
     RDKit          3D

 35 34  0  0  0  0  0  0  0  0999 V2000
   47.9287   10.7418   19.7176 Ca  0  0  0  0  0 15  0  0  0  0  0  0
   48.1835   12.6883   21.1749 S   0  0  0  0  0  0  0  0  0  0  0  0
   47.9786   11.2175   20.1559 C   0  0  0  0  0  0  0  0  0  0  0  0
   48.2194   11.3541   18.7828 C   0  0  0  0  0  0  0  0  0  0  0  0
   47.8599   12.1912   22.5138 O   0  0  0  0  0  0  0  0  0  0  0  0
   47.2089   13.6061   20.5958 O   0  0  0  0  0  0  0  0  0  0  0  0
   49.5854   13.0261   20.9549 O   0  0  0  0  0  0  0  0  0  0  0  0
   47.5967    9.9861   20.6938 C   0  0  0  0  0  0  0  0  0  0  0  0
   47.4550    8.8834   19.8512 C   0  0  0  0  0  0  0  0  0  0  0  0
   48.0734   10.2456   17.9582 C   0  0  0  0  0  0  0  0  0  0  0  0
   47.6936    9.0127   18.4802 C   0  0  0  0  0  0  0  0  0  0  0  0
   47.3433    9.7693   22.0208 O   0  0  0  0  0  0  0  0  0  0  0  0
   48.2979   10.3334   16.6147 O   0  0  0  0  0  0  0  0  0  0  0  0
   49.9737    9.4185   19.5072 S   0  0  0  0  0  0  0  0  0  0  0  0
   48.4376   10.3402   19.6928 C   0  0  0  0  0  0  0  0  0  0  0  0
   48.4170   11.6514   19.2006 C   0  0  0  0  0  0  0  0  0  0  0  0
   49.6417    8.1280   20.1146 O   0  0  0  0  0  0  0  0  0  0  0  0
   50.9202   10.2375   20.2562 O   0  0  0  0  0  0  0  0  0  0  0  0
   50.1530    9.4009   18.0597 O   0  0  0  0  0  0  0  0  0  0  0  0
   47.3063    9.7881   20.2982 C   0  0  0  0  0  0  0  0  0  0  0  0
   46.1458   10.5539   20.4119 C   0  0  0  0  0  0  0  0  0  0  0  0
   47.2529   12.4000   19.3221 C   0  0  0  0  0  0  0  0  0  0  0  0
   46.1184   11.8630   19.9230 C   0  0  0  0  0  0  0  0  0  0  0  0
   47.2441    8.5180   20.8036 O   0  0  0  0  0  0  0  0  0  0  0  0
   47.1885   13.6816   18.8566 O   0  0  0  0  0  0  0  0  0  0  0  0
   48.5146   12.3264   18.3994 H   0  0  0  0  0  0  0  0  0  0  0  0
   47.1584    7.9251   20.2664 H   0  0  0  0  0  0  0  0  0  0  0  0
   47.5834    8.1551   17.8244 H   0  0  0  0  0  0  0  0  0  0  0  0
   47.4848   10.6367   22.4855 H   0  0  0  0  0  0  0  0  0  0  0  0
   48.5509   11.2534   16.4261 H   0  0  0  0  0  0  0  0  0  0  0  0
   49.3150   12.0481   18.7358 H   0  0  0  0  0  0  0  0  0  0  0  0
   45.2651   10.1274   20.8820 H   0  0  0  0  0  0  0  0  0  0  0  0
   45.2159   12.4589   20.0112 H   0  0  0  0  0  0  0  0  0  0  0  0
   48.1348    8.1041   20.6501 H   0  0  0  0  0  0  0  0  0  0  0  0
   48.0574   13.8911   18.4732 H   0  0  0  0  0  0  0  0  0  0  0  0
  3  2  1  0
  4  3  2  0
  5  2  1  0
  6  2  2  0
  7  2  2  0
  8  3  1  0
  9  8  2  0
 10  4  1  0
 11  9  1  0
 12  8  1  0
 13 10  1  0
 10 11  2  0
 15 14  1  0
 16 15  2  0
 17 14  1  0
 18 14  2  0
 19 14  2  0
 20 15  1  0
 21 20  2  0
 22 16  1  0
 23 21  1  0
 24 20  1  0
 25 22  1  0
 22 23  2  0
  4 26  1  0
  9 27  1  0
 11 28  1  0
 12 29  1  0
 13 30  1  0
 16 31  1  0
 21 32  1  0
 23 33  1  0
 24 34  1  0
 25 35  1  0
M  CHG  3   1   2   5  -1  17  -1
M  END
> <Uni-Dock RESULT> 
ENERGY=   -3.255  LOWER_BOUND=    0.000  UPPER_BOUND=    0.000
INTER + INTRA:          -3.255
INTER:                  -3.255
INTRA:                   0.000
UNBOUND:                 0.000

$$$$

     RDKit          3D

 35 34  0  0  0  0  0  0  0  0999 V2000
   54.3885    7.1792    7.9526 Ca  0  0  0  0  0 15  0  0  0  0  0  0
   54.8153    4.7850    8.2038 S   0  0  0  0  0  0  0  0  0  0  0  0
   54.4434    6.5336    7.9854 C   0  0  0  0  0  0  0  0  0  0  0  0
   55.3599    7.4515    8.5141 C   0  0  0  0  0  0  0  0  0  0  0  0
   53.6781    4.1370    7.5470 O   0  0  0  0  0  0  0  0  0  0  0  0
   54.8564    4.6547    9.6560 O   0  0  0  0  0  0  0  0  0  0  0  0
   56.0946    4.6509    7.5160 O   0  0  0  0  0  0  0  0  0  0  0  0
   53.2962    6.9737    7.3209 C   0  0  0  0  0  0  0  0  0  0  0  0
   53.0647    8.3426    7.1845 C   0  0  0  0  0  0  0  0  0  0  0  0
   55.1137    8.8111    8.3692 C   0  0  0  0  0  0  0  0  0  0  0  0
   53.9749    9.2640    7.7096 C   0  0  0  0  0  0  0  0  0  0  0  0
   52.3538    6.1442    6.7771 O   0  0  0  0  0  0  0  0  0  0  0  0
   55.9798    9.7404    8.8687 O   0  0  0  0  0  0  0  0  0  0  0  0
   55.3024    8.1115    5.8854 S   0  0  0  0  0  0  0  0  0  0  0  0
   54.5666    7.4389    7.3853 C   0  0  0  0  0  0  0  0  0  0  0  0
   55.4426    6.9324    8.3539 C   0  0  0  0  0  0  0  0  0  0  0  0
   54.1275    8.5367    5.1218 O   0  0  0  0  0  0  0  0  0  0  0  0
   56.0161    6.9596    5.3456 O   0  0  0  0  0  0  0  0  0  0  0  0
   56.1353    9.1907    6.4044 O   0  0  0  0  0  0  0  0  0  0  0  0
   53.1852    7.4150    7.5912 C   0  0  0  0  0  0  0  0  0  0  0  0
   52.6768    6.8803    8.7751 C   0  0  0  0  0  0  0  0  0  0  0  0
   54.9192    6.4036    9.5272 C   0  0  0  0  0  0  0  0  0  0  0  0
   53.5452    6.3732    9.7457 C   0  0  0  0  0  0  0  0  0  0  0  0
   52.2638    7.8885    6.6973 O   0  0  0  0  0  0  0  0  0  0  0  0
   55.7360    5.8993   10.4976 O   0  0  0  0  0  0  0  0  0  0  0  0
   56.2410    7.0736    9.0245 H   0  0  0  0  0  0  0  0  0  0  0  0
   52.1739    8.6876    6.6685 H   0  0  0  0  0  0  0  0  0  0  0  0
   53.7952   10.3289    7.6036 H   0  0  0  0  0  0  0  0  0  0  0  0
   52.6549    5.2132    6.9530 H   0  0  0  0  0  0  0  0  0  0  0  0
   56.7087    9.2546    9.2913 H   0  0  0  0  0  0  0  0  0  0  0  0
   56.5108    6.9674    8.1602 H   0  0  0  0  0  0  0  0  0  0  0  0
   51.6036    6.8604    8.9378 H   0  0  0  0  0  0  0  0  0  0  0  0
   53.1500    5.9572   10.6667 H   0  0  0  0  0  0  0  0  0  0  0  0
   52.7727    8.2323    5.9155 H   0  0  0  0  0  0  0  0  0  0  0  0
   56.6507    5.9999   10.1829 H   0  0  0  0  0  0  0  0  0  0  0  0
  3  2  1  0
  4  3  2  0
  5  2  1  0
  6  2  2  0
  7  2  2  0
  8  3  1  0
  9  8  2  0
 10  4  1  0
 11  9  1  0
 12  8  1  0
 13 10  1  0
 10 11  2  0
 15 14  1  0
 16 15  2  0
 17 14  1  0
 18 14  2  0
 19 14  2  0
 20 15  1  0
 21 20  2  0
 22 16  1  0
 23 21  1  0
 24 20  1  0
 25 22  1  0
 22 23  2  0
  4 26  1  0
  9 27  1  0
 11 28  1  0
 12 29  1  0
 13 30  1  0
 16 31  1  0
 21 32  1  0
 23 33  1  0
 24 34  1  0
 25 35  1  0
M  CHG  3   1   2   5  -1  17  -1
M  END
> <Uni-Dock RESULT> 
ENERGY=   -3.072  LOWER_BOUND=   12.999  UPPER_BOUND=   14.568
INTER + INTRA:          -3.072
INTER:                  -3.072
INTRA:                   0.000
UNBOUND:                 0.000

$$$$

     RDKit          3D

 35 34  0  0  0  0  0  0  0  0999 V2000
   49.7558    4.6539   18.4534 Ca  0  0  0  0  0 15  0  0  0  0  0  0
   47.5090    4.9382   17.5321 S   0  0  0  0  0  0  0  0  0  0  0  0
   49.1489    4.7748   18.2586 C   0  0  0  0  0  0  0  0  0  0  0  0
   50.0296    3.8723   17.6489 C   0  0  0  0  0  0  0  0  0  0  0  0
   46.8784    5.9354   18.3996 O   0  0  0  0  0  0  0  0  0  0  0  0
   46.9806    3.5836   17.6491 O   0  0  0  0  0  0  0  0  0  0  0  0
   47.8121    5.3887   16.1783 O   0  0  0  0  0  0  0  0  0  0  0  0
   49.5427    5.5076   19.3807 C   0  0  0  0  0  0  0  0  0  0  0  0
   50.8275    5.3359   19.8963 C   0  0  0  0  0  0  0  0  0  0  0  0
   51.3054    3.7136   18.1755 C   0  0  0  0  0  0  0  0  0  0  0  0
   51.7114    4.4371   19.2929 C   0  0  0  0  0  0  0  0  0  0  0  0
   48.7447    6.4072   20.0336 O   0  0  0  0  0  0  0  0  0  0  0  0
   52.1960    2.8454   17.6133 O   0  0  0  0  0  0  0  0  0  0  0  0
   51.3882    6.2144   17.5167 S   0  0  0  0  0  0  0  0  0  0  0  0
   50.1941    5.0946   18.2675 C   0  0  0  0  0  0  0  0  0  0  0  0
   49.6018    4.1397   17.4311 C   0  0  0  0  0  0  0  0  0  0  0  0
   51.7912    7.0503   18.6496 O   0  0  0  0  0  0  0  0  0  0  0  0
   50.5881    6.8848   16.4979 O   0  0  0  0  0  0  0  0  0  0  0  0
   52.4082    5.2959   17.0230 O   0  0  0  0  0  0  0  0  0  0  0  0
   49.8608    5.1604   19.6223 C   0  0  0  0  0  0  0  0  0  0  0  0
   48.9278    4.2642   20.1441 C   0  0  0  0  0  0  0  0  0  0  0  0
   48.6746    3.2548   17.9674 C   0  0  0  0  0  0  0  0  0  0  0  0
   48.3329    3.3089   19.3153 C   0  0  0  0  0  0  0  0  0  0  0  0
   50.3926    6.0611   20.5046 O   0  0  0  0  0  0  0  0  0  0  0  0
   48.0730    2.3085   17.1890 O   0  0  0  0  0  0  0  0  0  0  0  0
   49.6895    3.3194   16.7781 H   0  0  0  0  0  0  0  0  0  0  0  0
   51.1364    5.9042   20.7683 H   0  0  0  0  0  0  0  0  0  0  0  0
   52.7109    4.3033   19.6937 H   0  0  0  0  0  0  0  0  0  0  0  0
   47.8734    6.4184   19.5548 H   0  0  0  0  0  0  0  0  0  0  0  0
   51.7516    2.4312   16.8537 H   0  0  0  0  0  0  0  0  0  0  0  0
   49.8848    4.1174   16.3828 H   0  0  0  0  0  0  0  0  0  0  0  0
   48.6668    4.3131   21.1968 H   0  0  0  0  0  0  0  0  0  0  0  0
   47.6072    2.6115   19.7209 H   0  0  0  0  0  0  0  0  0  0  0  0
   51.0315    6.6232   19.9908 H   0  0  0  0  0  0  0  0  0  0  0  0
   48.4242    2.4131   16.2881 H   0  0  0  0  0  0  0  0  0  0  0  0
  3  2  1  0
  4  3  2  0
  5  2  1  0
  6  2  2  0
  7  2  2  0
  8  3  1  0
  9  8  2  0
 10  4  1  0
 11  9  1  0
 12  8  1  0
 13 10  1  0
 10 11  2  0
 15 14  1  0
 16 15  2  0
 17 14  1  0
 18 14  2  0
 19 14  2  0
 20 15  1  0
 21 20  2  0
 22 16  1  0
 23 21  1  0
 24 20  1  0
 25 22  1  0
 22 23  2  0
  4 26  1  0
  9 27  1  0
 11 28  1  0
 12 29  1  0
 13 30  1  0
 16 31  1  0
 21 32  1  0
 23 33  1  0
 24 34  1  0
 25 35  1  0
M  CHG  3   1   2   5  -1  17  -1
M  END
> <Uni-Dock RESULT> 
ENERGY=   -3.064  LOWER_BOUND=    5.571  UPPER_BOUND=    7.100
INTER + INTRA:          -3.064
INTER:                  -3.064
INTRA:                   0.000
UNBOUND:                 0.000

$$$$

     RDKit          3D

 35 34  0  0  0  0  0  0  0  0999 V2000
   48.2634   12.0978   19.4102 Ca  0  0  0  0  0 15  0  0  0  0  0  0
   50.0920   11.4789   17.9101 S   0  0  0  0  0  0  0  0  0  0  0  0
   48.7744   11.9956   19.0238 C   0  0  0  0  0  0  0  0  0  0  0  0
   47.7520   11.0715   19.2744 C   0  0  0  0  0  0  0  0  0  0  0  0
   50.9596   12.6583   17.8804 O   0  0  0  0  0  0  0  0  0  0  0  0
   49.3658   11.2053   16.6749 O   0  0  0  0  0  0  0  0  0  0  0  0
   50.6414   10.3153   18.5969 O   0  0  0  0  0  0  0  0  0  0  0  0
   48.7561   13.2584   19.6207 C   0  0  0  0  0  0  0  0  0  0  0  0
   47.7070   13.5988   20.4747 C   0  0  0  0  0  0  0  0  0  0  0  0
   46.7147   11.4271   20.1275 C   0  0  0  0  0  0  0  0  0  0  0  0
   46.6835   12.6817   20.7291 C   0  0  0  0  0  0  0  0  0  0  0  0
   49.7141   14.2163   19.4286 O   0  0  0  0  0  0  0  0  0  0  0  0
   45.6980   10.5580   20.3998 O   0  0  0  0  0  0  0  0  0  0  0  0
   48.7202   11.5784   21.7553 S   0  0  0  0  0  0  0  0  0  0  0  0
   48.3831   12.0272   20.0440 C   0  0  0  0  0  0  0  0  0  0  0  0
   48.2715   10.9803   19.1201 C   0  0  0  0  0  0  0  0  0  0  0  0
   48.7701   12.8829   22.4187 O   0  0  0  0  0  0  0  0  0  0  0  0
   49.9972   10.8817   21.6483 O   0  0  0  0  0  0  0  0  0  0  0  0
   47.5685   10.7490   22.0920 O   0  0  0  0  0  0  0  0  0  0  0  0
   48.2361   13.3554   19.6374 C   0  0  0  0  0  0  0  0  0  0  0  0
   47.9757   13.6381   18.2964 C   0  0  0  0  0  0  0  0  0  0  0  0
   48.0118   11.2797   17.7885 C   0  0  0  0  0  0  0  0  0  0  0  0
   47.8631   12.5983   17.3693 C   0  0  0  0  0  0  0  0  0  0  0  0
   48.3303   14.4334   20.4750 O   0  0  0  0  0  0  0  0  0  0  0  0
   47.8952   10.2910   16.8546 O   0  0  0  0  0  0  0  0  0  0  0  0
   47.7986   10.0990   18.7931 H   0  0  0  0  0  0  0  0  0  0  0  0
   47.6902   14.5796   20.9401 H   0  0  0  0  0  0  0  0  0  0  0  0
   45.8672   12.9461   21.3934 H   0  0  0  0  0  0  0  0  0  0  0  0
   50.3849   13.8304   18.8046 H   0  0  0  0  0  0  0  0  0  0  0  0
   45.8780    9.7419   19.9024 H   0  0  0  0  0  0  0  0  0  0  0  0
   48.3914    9.9596   19.4716 H   0  0  0  0  0  0  0  0  0  0  0  0
   47.8611   14.6695   17.9776 H   0  0  0  0  0  0  0  0  0  0  0  0
   47.6605   12.8178   16.3261 H   0  0  0  0  0  0  0  0  0  0  0  0
   48.5158   14.0755   21.3837 H   0  0  0  0  0  0  0  0  0  0  0  0
   48.0257    9.4447   17.3157 H   0  0  0  0  0  0  0  0  0  0  0  0
  3  2  1  0
  4  3  2  0
  5  2  1  0
  6  2  2  0
  7  2  2  0
  8  3  1  0
  9  8  2  0
 10  4  1  0
 11  9  1  0
 12  8  1  0
 13 10  1  0
 10 11  2  0
 15 14  1  0
 16 15  2  0
 17 14  1  0
 18 14  2  0
 19 14  2  0
 20 15  1  0
 21 20  2  0
 22 16  1  0
 23 21  1  0
 24 20  1  0
 25 22  1  0
 22 23  2  0
  4 26  1  0
  9 27  1  0
 11 28  1  0
 12 29  1  0
 13 30  1  0
 16 31  1  0
 21 32  1  0
 23 33  1  0
 24 34  1  0
 25 35  1  0
M  CHG  3   1   2   5  -1  17  -1
M  END
> <Uni-Dock RESULT> 
ENERGY=   -3.048  LOWER_BOUND=    1.604  UPPER_BOUND=    3.888
INTER + INTRA:          -3.048
INTER:                  -3.048
INTRA:                   0.000
UNBOUND:                 0.000

$$$$

     RDKit          3D

 35 34  0  0  0  0  0  0  0  0999 V2000
   48.0553   11.6068   20.2308 Ca  0  0  0  0  0 15  0  0  0  0  0  0
   47.9735    9.5225   18.9554 S   0  0  0  0  0  0  0  0  0  0  0  0
   48.0161   11.0916   19.8384 C   0  0  0  0  0  0  0  0  0  0  0  0
   48.3560   11.0500   21.1966 C   0  0  0  0  0  0  0  0  0  0  0  0
   47.5935    9.9332   17.6020 O   0  0  0  0  0  0  0  0  0  0  0  0
   46.9576    8.7786   19.6917 O   0  0  0  0  0  0  0  0  0  0  0  0
   49.3440    9.0454   19.1027 O   0  0  0  0  0  0  0  0  0  0  0  0
   47.7258   12.3064   19.2129 C   0  0  0  0  0  0  0  0  0  0  0  0
   47.7762   13.4883   19.9522 C   0  0  0  0  0  0  0  0  0  0  0  0
   48.4014   12.2367   21.9178 C   0  0  0  0  0  0  0  0  0  0  0  0
   48.1146   13.4542   21.3077 C   0  0  0  0  0  0  0  0  0  0  0  0
   47.3860   12.4327   17.8935 O   0  0  0  0  0  0  0  0  0  0  0  0
   48.7279   12.2427   23.2432 O   0  0  0  0  0  0  0  0  0  0  0  0
   50.2421   12.6977   20.1590 S   0  0  0  0  0  0  0  0  0  0  0  0
   48.6050   11.9473   20.1785 C   0  0  0  0  0  0  0  0  0  0  0  0
   48.4842   10.6961   20.7964 C   0  0  0  0  0  0  0  0  0  0  0  0
   50.0018   13.9590   19.4550 O   0  0  0  0  0  0  0  0  0  0  0  0
   51.0275   11.7115   19.4253 O   0  0  0  0  0  0  0  0  0  0  0  0
   50.5441   12.8224   21.5806 O   0  0  0  0  0  0  0  0  0  0  0  0
   47.4931   12.5709   19.6077 C   0  0  0  0  0  0  0  0  0  0  0  0
   46.2510   11.9376   19.6555 C   0  0  0  0  0  0  0  0  0  0  0  0
   47.2397   10.0795   20.8350 C   0  0  0  0  0  0  0  0  0  0  0  0
   46.1233   10.6890   20.2704 C   0  0  0  0  0  0  0  0  0  0  0  0
   47.5263   13.7899   18.9869 O   0  0  0  0  0  0  0  0  0  0  0  0
   47.0764    8.8603   21.4268 O   0  0  0  0  0  0  0  0  0  0  0  0
   48.5755   10.0879   21.6501 H   0  0  0  0  0  0  0  0  0  0  0  0
   47.5512   14.4339   19.4686 H   0  0  0  0  0  0  0  0  0  0  0  0
   48.1539   14.3734   21.8831 H   0  0  0  0  0  0  0  0  0  0  0  0
   47.3928   11.5171   17.5063 H   0  0  0  0  0  0  0  0  0  0  0  0
   48.8947   11.3200   23.5012 H   0  0  0  0  0  0  0  0  0  0  0  0
   49.3699   10.2408   21.2298 H   0  0  0  0  0  0  0  0  0  0  0  0
   45.3850   12.4199   19.2127 H   0  0  0  0  0  0  0  0  0  0  0  0
   45.1574   10.1961   20.3078 H   0  0  0  0  0  0  0  0  0  0  0  0
   48.4665   14.1098   19.0329 H   0  0  0  0  0  0  0  0  0  0  0  0
   47.9468    8.5864   21.7632 H   0  0  0  0  0  0  0  0  0  0  0  0
  3  2  1  0
  4  3  2  0
  5  2  1  0
  6  2  2  0
  7  2  2  0
  8  3  1  0
  9  8  2  0
 10  4  1  0
 11  9  1  0
 12  8  1  0
 13 10  1  0
 10 11  2  0
 15 14  1  0
 16 15  2  0
 17 14  1  0
 18 14  2  0
 19 14  2  0
 20 15  1  0
 21 20  2  0
 22 16  1  0
 23 21  1  0
 24 20  1  0
 25 22  1  0
 22 23  2  0
  4 26  1  0
  9 27  1  0
 11 28  1  0
 12 29  1  0
 13 30  1  0
 16 31  1  0
 21 32  1  0
 23 33  1  0
 24 34  1  0
 25 35  1  0
M  CHG  3   1   2   5  -1  17  -1
M  END
> <Uni-Dock RESULT> 
ENERGY=   -3.028  LOWER_BOUND=    1.318  UPPER_BOUND=    4.018
INTER + INTRA:          -3.028
INTER:                  -3.028
INTRA:                   0.000
UNBOUND:                 0.000

$$$$

     RDKit          3D

 35 34  0  0  0  0  0  0  0  0999 V2000
   48.2593   11.9260   19.4221 Ca  0  0  0  0  0 15  0  0  0  0  0  0
   50.3122   12.8029   18.4250 S   0  0  0  0  0  0  0  0  0  0  0  0
   48.7886   12.2182   19.1869 C   0  0  0  0  0  0  0  0  0  0  0  0
   48.4370   10.8806   18.9651 C   0  0  0  0  0  0  0  0  0  0  0  0
   50.3629   14.2016   18.8556 O   0  0  0  0  0  0  0  0  0  0  0  0
   50.0499   12.5946   17.0053 O   0  0  0  0  0  0  0  0  0  0  0  0
   51.3145   11.9276   19.0225 O   0  0  0  0  0  0  0  0  0  0  0  0
   47.9804   13.0479   19.9678 C   0  0  0  0  0  0  0  0  0  0  0  0
   46.8118   12.5349   20.5309 C   0  0  0  0  0  0  0  0  0  0  0  0
   47.2696   10.3863   19.5334 C   0  0  0  0  0  0  0  0  0  0  0  0
   46.4548   11.2013   20.3136 C   0  0  0  0  0  0  0  0  0  0  0  0
   48.2522   14.3626   20.2321 O   0  0  0  0  0  0  0  0  0  0  0  0
   46.8887    9.0893   19.3435 O   0  0  0  0  0  0  0  0  0  0  0  0
   48.5878   11.0182   21.6683 S   0  0  0  0  0  0  0  0  0  0  0  0
   48.3059   11.7352   20.0404 C   0  0  0  0  0  0  0  0  0  0  0  0
   48.9339   11.1149   18.9528 C   0  0  0  0  0  0  0  0  0  0  0  0
   47.8024   11.8954   22.5388 O   0  0  0  0  0  0  0  0  0  0  0  0
   50.0353   11.1289   21.8104 O   0  0  0  0  0  0  0  0  0  0  0  0
   48.0654    9.6658   21.5073 O   0  0  0  0  0  0  0  0  0  0  0  0
   47.4995   12.8600   19.8515 C   0  0  0  0  0  0  0  0  0  0  0  0
   47.3204   13.3679   18.5647 C   0  0  0  0  0  0  0  0  0  0  0  0
   48.7446   11.6339   17.6780 C   0  0  0  0  0  0  0  0  0  0  0  0
   47.9440   12.7540   17.4749 C   0  0  0  0  0  0  0  0  0  0  0  0
   46.8522   13.5230   20.8584 O   0  0  0  0  0  0  0  0  0  0  0  0
   49.3373   11.0614   16.5898 O   0  0  0  0  0  0  0  0  0  0  0  0
   49.0890   10.2647   18.3527 H   0  0  0  0  0  0  0  0  0  0  0  0
   46.1817   13.1774   21.1384 H   0  0  0  0  0  0  0  0  0  0  0  0
   45.5458   10.8019   20.7516 H   0  0  0  0  0  0  0  0  0  0  0  0
   49.1050   14.5782   19.7688 H   0  0  0  0  0  0  0  0  0  0  0  0
   47.5642    8.6718   18.7820 H   0  0  0  0  0  0  0  0  0  0  0  0
   49.5537   10.2422   19.1367 H   0  0  0  0  0  0  0  0  0  0  0  0
   46.6942   14.2421   18.4149 H   0  0  0  0  0  0  0  0  0  0  0  0
   47.8049   13.1488   16.4738 H   0  0  0  0  0  0  0  0  0  0  0  0
   47.0743   13.0488   21.7034 H   0  0  0  0  0  0  0  0  0  0  0  0
   49.8523   10.3014   16.9109 H   0  0  0  0  0  0  0  0  0  0  0  0
  3  2  1  0
  4  3  2  0
  5  2  1  0
  6  2  2  0
  7  2  2  0
  8  3  1  0
  9  8  2  0
 10  4  1  0
 11  9  1  0
 12  8  1  0
 13 10  1  0
 10 11  2  0
 15 14  1  0
 16 15  2  0
 17 14  1  0
 18 14  2  0
 19 14  2  0
 20 15  1  0
 21 20  2  0
 22 16  1  0
 23 21  1  0
 24 20  1  0
 25 22  1  0
 22 23  2  0
  4 26  1  0
  9 27  1  0
 11 28  1  0
 12 29  1  0
 13 30  1  0
 16 31  1  0
 21 32  1  0
 23 33  1  0
 24 34  1  0
 25 35  1  0
M  CHG  3   1   2   5  -1  17  -1
M  END
> <Uni-Dock RESULT> 
ENERGY=   -2.973  LOWER_BOUND=    1.556  UPPER_BOUND=    3.340
INTER + INTRA:          -2.973
INTER:                  -2.973
INTRA:                   0.000
UNBOUND:                 0.000

$$$$

     RDKit          3D

 35 34  0  0  0  0  0  0  0  0999 V2000
   53.8189    7.5825    8.7473 Ca  0  0  0  0  0 15  0  0  0  0  0  0
   54.8770    8.9292   10.4921 S   0  0  0  0  0  0  0  0  0  0  0  0
   54.1126    7.8812    9.2427 C   0  0  0  0  0  0  0  0  0  0  0  0
   53.5578    8.5204    8.1266 C   0  0  0  0  0  0  0  0  0  0  0  0
   55.3362    7.9536   11.4830 O   0  0  0  0  0  0  0  0  0  0  0  0
   53.7642    9.7727   10.9138 O   0  0  0  0  0  0  0  0  0  0  0  0
   55.9309    9.5963    9.7359 O   0  0  0  0  0  0  0  0  0  0  0  0
   54.0655    6.4904    9.3644 C   0  0  0  0  0  0  0  0  0  0  0  0
   53.4588    5.7339    8.3617 C   0  0  0  0  0  0  0  0  0  0  0  0
   52.9575    7.7515    7.1373 C   0  0  0  0  0  0  0  0  0  0  0  0
   52.9033    6.3651    7.2453 C   0  0  0  0  0  0  0  0  0  0  0  0
   54.5826    5.7907   10.4204 O   0  0  0  0  0  0  0  0  0  0  0  0
   52.4044    8.3325    6.0329 O   0  0  0  0  0  0  0  0  0  0  0  0
   55.3792    6.8491    7.0138 S   0  0  0  0  0  0  0  0  0  0  0  0
   54.2209    7.3242    8.3085 C   0  0  0  0  0  0  0  0  0  0  0  0
   53.9595    8.6919    8.4600 C   0  0  0  0  0  0  0  0  0  0  0  0
   55.4109    5.3905    7.1396 O   0  0  0  0  0  0  0  0  0  0  0  0
   56.5989    7.5386    7.4194 O   0  0  0  0  0  0  0  0  0  0  0  0
   54.7289    7.3594    5.8120 O   0  0  0  0  0  0  0  0  0  0  0  0
   53.6007    6.3840    9.1347 C   0  0  0  0  0  0  0  0  0  0  0  0
   52.7125    6.8158   10.1199 C   0  0  0  0  0  0  0  0  0  0  0  0
   53.0722    9.1045    9.4463 C   0  0  0  0  0  0  0  0  0  0  0  0
   52.4472    8.1790   10.2766 C   0  0  0  0  0  0  0  0  0  0  0  0
   53.8013    5.0330    9.0520 O   0  0  0  0  0  0  0  0  0  0  0  0
   52.7884   10.4271    9.6291 O   0  0  0  0  0  0  0  0  0  0  0  0
   53.6126    9.6034    8.0650 H   0  0  0  0  0  0  0  0  0  0  0  0
   53.4208    4.6527    8.4536 H   0  0  0  0  0  0  0  0  0  0  0  0
   52.4313    5.7768    6.4651 H   0  0  0  0  0  0  0  0  0  0  0  0
   54.9753    6.4589   11.0429 H   0  0  0  0  0  0  0  0  0  0  0  0
   52.5305    9.2928    6.1210 H   0  0  0  0  0  0  0  0  0  0  0  0
   54.4595    9.3947    7.7999 H   0  0  0  0  0  0  0  0  0  0  0  0
   52.2291    6.0873   10.7635 H   0  0  0  0  0  0  0  0  0  0  0  0
   51.7563    8.5152   11.0428 H   0  0  0  0  0  0  0  0  0  0  0  0
   54.4502    4.8838    8.3137 H   0  0  0  0  0  0  0  0  0  0  0  0
   53.3052   10.9244    8.9722 H   0  0  0  0  0  0  0  0  0  0  0  0
  3  2  1  0
  4  3  2  0
  5  2  1  0
  6  2  2  0
  7  2  2  0
  8  3  1  0
  9  8  2  0
 10  4  1  0
 11  9  1  0
 12  8  1  0
 13 10  1  0
 10 11  2  0
 15 14  1  0
 16 15  2  0
 17 14  1  0
 18 14  2  0
 19 14  2  0
 20 15  1  0
 21 20  2  0
 22 16  1  0
 23 21  1  0
 24 20  1  0
 25 22  1  0
 22 23  2  0
  4 26  1  0
  9 27  1  0
 11 28  1  0
 12 29  1  0
 13 30  1  0
 16 31  1  0
 21 32  1  0
 23 33  1  0
 24 34  1  0
 25 35  1  0
M  CHG  3   1   2   5  -1  17  -1
M  END
> <Uni-Dock RESULT> 
ENERGY=   -2.958  LOWER_BOUND=   11.090  UPPER_BOUND=   13.023
INTER + INTRA:          -2.958
INTER:                  -2.958
INTRA:                   0.000
UNBOUND:                 0.000

$$$$

     RDKit          3D

 35 34  0  0  0  0  0  0  0  0999 V2000
   53.9531    8.1290    7.3483 Ca  0  0  0  0  0 15  0  0  0  0  0  0
   54.9204    9.6289    5.6774 S   0  0  0  0  0  0  0  0  0  0  0  0
   54.2498    8.5508    6.9547 C   0  0  0  0  0  0  0  0  0  0  0  0
   53.2351    7.6640    6.5728 C   0  0  0  0  0  0  0  0  0  0  0  0
   55.9289   10.3965    6.4109 O   0  0  0  0  0  0  0  0  0  0  0  0
   53.7442   10.3824    5.2573 O   0  0  0  0  0  0  0  0  0  0  0  0
   55.4444    8.6735    4.7076 O   0  0  0  0  0  0  0  0  0  0  0  0
   54.7091    8.5835    8.2735 C   0  0  0  0  0  0  0  0  0  0  0  0
   54.1486    7.7223    9.2170 C   0  0  0  0  0  0  0  0  0  0  0  0
   52.6880    6.8133    7.5253 C   0  0  0  0  0  0  0  0  0  0  0  0
   53.1357    6.8350    8.8429 C   0  0  0  0  0  0  0  0  0  0  0  0
   55.6942    9.4180    8.7267 O   0  0  0  0  0  0  0  0  0  0  0  0
   51.6976    5.9333    7.1972 O   0  0  0  0  0  0  0  0  0  0  0  0
   55.1453    6.0034    7.5436 S   0  0  0  0  0  0  0  0  0  0  0  0
   54.2857    7.5840    7.4636 C   0  0  0  0  0  0  0  0  0  0  0  0
   53.6289    7.8929    6.2655 C   0  0  0  0  0  0  0  0  0  0  0  0
   55.6996    6.0150    8.8990 O   0  0  0  0  0  0  0  0  0  0  0  0
   56.1221    6.1257    6.4672 O   0  0  0  0  0  0  0  0  0  0  0  0
   54.0649    5.0499    7.3177 O   0  0  0  0  0  0  0  0  0  0  0  0
   54.2641    8.4754    8.5388 C   0  0  0  0  0  0  0  0  0  0  0  0
   53.5801    9.6848    8.4142 C   0  0  0  0  0  0  0  0  0  0  0  0
   52.9525    9.1018    6.1587 C   0  0  0  0  0  0  0  0  0  0  0  0
   52.9226    9.9994    7.2217 C   0  0  0  0  0  0  0  0  0  0  0  0
   54.8788    8.2497    9.7403 O   0  0  0  0  0  0  0  0  0  0  0  0
   52.2991    9.4434    5.0100 O   0  0  0  0  0  0  0  0  0  0  0  0
   52.9027    7.6658    5.5388 H   0  0  0  0  0  0  0  0  0  0  0  0
   54.5035    7.7456   10.2428 H   0  0  0  0  0  0  0  0  0  0  0  0
   52.6995    6.1649    9.5766 H   0  0  0  0  0  0  0  0  0  0  0  0
   55.9897    9.9622    7.9490 H   0  0  0  0  0  0  0  0  0  0  0  0
   51.5110    6.0523    6.2502 H   0  0  0  0  0  0  0  0  0  0  0  0
   53.6666    7.1762    5.4503 H   0  0  0  0  0  0  0  0  0  0  0  0
   53.5617   10.3795    9.2483 H   0  0  0  0  0  0  0  0  0  0  0  0
   52.3905   10.9400    7.1244 H   0  0  0  0  0  0  0  0  0  0  0  0
   55.3173    7.3599    9.6757 H   0  0  0  0  0  0  0  0  0  0  0  0
   52.4222    8.7113    4.3818 H   0  0  0  0  0  0  0  0  0  0  0  0
  3  2  1  0
  4  3  2  0
  5  2  1  0
  6  2  2  0
  7  2  2  0
  8  3  1  0
  9  8  2  0
 10  4  1  0
 11  9  1  0
 12  8  1  0
 13 10  1  0
 10 11  2  0
 15 14  1  0
 16 15  2  0
 17 14  1  0
 18 14  2  0
 19 14  2  0
 20 15  1  0
 21 20  2  0
 22 16  1  0
 23 21  1  0
 24 20  1  0
 25 22  1  0
 22 23  2  0
  4 26  1  0
  9 27  1  0
 11 28  1  0
 12 29  1  0
 13 30  1  0
 16 31  1  0
 21 32  1  0
 23 33  1  0
 24 34  1  0
 25 35  1  0
M  CHG  3   1   2   5  -1  17  -1
M  END
> <Uni-Dock RESULT> 
ENERGY=   -2.901  LOWER_BOUND=   12.963  UPPER_BOUND=   14.421
INTER + INTRA:          -2.901
INTER:                  -2.901
INTRA:                   0.000
UNBOUND:                 0.000

$$$$

     RDKit          3D

 35 34  0  0  0  0  0  0  0  0999 V2000
   48.7723    5.8504   20.1643 Ca  0  0  0  0  0 15  0  0  0  0  0  0
   50.1654    4.6776   18.5330 S   0  0  0  0  0  0  0  0  0  0  0  0
   49.1466    5.5984   19.6981 C   0  0  0  0  0  0  0  0  0  0  0  0
   48.6377    4.8935   20.7963 C   0  0  0  0  0  0  0  0  0  0  0  0
   50.5132    5.6992   17.5431 O   0  0  0  0  0  0  0  0  0  0  0  0
   49.2484    3.6427   18.0683 O   0  0  0  0  0  0  0  0  0  0  0  0
   51.2659    4.2218   19.3749 O   0  0  0  0  0  0  0  0  0  0  0  0
   48.8655    6.9564   19.5302 C   0  0  0  0  0  0  0  0  0  0  0  0
   48.0693    7.6136   20.4684 C   0  0  0  0  0  0  0  0  0  0  0  0
   47.8465    5.5636   21.7210 C   0  0  0  0  0  0  0  0  0  0  0  0
   47.5582    6.9163   21.5665 C   0  0  0  0  0  0  0  0  0  0  0  0
   49.3227    7.7156   18.4878 O   0  0  0  0  0  0  0  0  0  0  0  0
   47.3299    4.9159   22.8058 O   0  0  0  0  0  0  0  0  0  0  0  0
   50.0592    6.8815   21.9694 S   0  0  0  0  0  0  0  0  0  0  0  0
   49.0922    6.1841   20.6195 C   0  0  0  0  0  0  0  0  0  0  0  0
   49.0848    4.7890   20.4945 C   0  0  0  0  0  0  0  0  0  0  0  0
   49.8438    8.3200   21.8003 O   0  0  0  0  0  0  0  0  0  0  0  0
   51.4053    6.4102   21.6636 O   0  0  0  0  0  0  0  0  0  0  0  0
   49.4280    6.2882   23.1430 O   0  0  0  0  0  0  0  0  0  0  0  0
   48.3748    6.9837   19.7267 C   0  0  0  0  0  0  0  0  0  0  0  0
   47.6447    6.3827   18.7011 C   0  0  0  0  0  0  0  0  0  0  0  0
   48.3523    4.2070   19.4674 C   0  0  0  0  0  0  0  0  0  0  0  0
   47.6329    4.9912   18.5706 C   0  0  0  0  0  0  0  0  0  0  0  0
   48.3301    8.3503   19.7796 O   0  0  0  0  0  0  0  0  0  0  0  0
   48.3171    2.8518   19.3084 O   0  0  0  0  0  0  0  0  0  0  0  0
   48.8766    3.8386   20.8950 H   0  0  0  0  0  0  0  0  0  0  0  0
   47.8492    8.6691   20.3405 H   0  0  0  0  0  0  0  0  0  0  0  0
   46.9389    7.4273   22.2965 H   0  0  0  0  0  0  0  0  0  0  0  0
   49.8676    7.1150   17.9125 H   0  0  0  0  0  0  0  0  0  0  0  0
   47.6275    3.9914   22.7559 H   0  0  0  0  0  0  0  0  0  0  0  0
   49.6540    4.1986   21.2066 H   0  0  0  0  0  0  0  0  0  0  0  0
   47.0862    7.0017   18.0057 H   0  0  0  0  0  0  0  0  0  0  0  0
   47.0651    4.5234   17.7730 H   0  0  0  0  0  0  0  0  0  0  0  0
   48.8913    8.6261   20.5525 H   0  0  0  0  0  0  0  0  0  0  0  0
   48.8671    2.4665   20.0119 H   0  0  0  0  0  0  0  0  0  0  0  0
  3  2  1  0
  4  3  2  0
  5  2  1  0
  6  2  2  0
  7  2  2  0
  8  3  1  0
  9  8  2  0
 10  4  1  0
 11  9  1  0
 12  8  1  0
 13 10  1  0
 10 11  2  0
 15 14  1  0
 16 15  2  0
 17 14  1  0
 18 14  2  0
 19 14  2  0
 20 15  1  0
 21 20  2  0
 22 16  1  0
 23 21  1  0
 24 20  1  0
 25 22  1  0
 22 23  2  0
  4 26  1  0
  9 27  1  0
 11 28  1  0
 12 29  1  0
 13 30  1  0
 16 31  1  0
 21 32  1  0
 23 33  1  0
 24 34  1  0
 25 35  1  0
M  CHG  3   1   2   5  -1  17  -1
M  END
> <Uni-Dock RESULT> 
ENERGY=   -2.867  LOWER_BOUND=    3.798  UPPER_BOUND=    6.350
INTER + INTRA:          -2.867
INTER:                  -2.867
INTRA:                   0.000
UNBOUND:                 0.000

$$$$
