
     RDKit          3D

 35 34  0  0  0  0  0  0  0  0999 V2000
   44.3036    4.2031   10.7727 Ca  0  0  0  0  0 15  0  0  0  0  0  0
   43.3767    6.0657   12.2217 S   0  0  0  0  0  0  0  0  0  0  0  0
   44.0264    4.7244   11.2092 C   0  0  0  0  0  0  0  0  0  0  0  0
   44.6900    5.0691   10.0248 C   0  0  0  0  0  0  0  0  0  0  0  0
   42.4333    6.7163   11.3196 O   0  0  0  0  0  0  0  0  0  0  0  0
   42.7683    5.3442   13.3428 O   0  0  0  0  0  0  0  0  0  0  0  0
   44.5776    6.8243   12.5525 O   0  0  0  0  0  0  0  0  0  0  0  0
   43.8823    3.3840   11.5771 C   0  0  0  0  0  0  0  0  0  0  0  0
   44.4046    2.3844   10.7564 C   0  0  0  0  0  0  0  0  0  0  0  0
   45.2044    4.0624    9.2183 C   0  0  0  0  0  0  0  0  0  0  0  0
   45.0678    2.7210    9.5735 C   0  0  0  0  0  0  0  0  0  0  0  0
   43.2504    2.9569   12.7134 O   0  0  0  0  0  0  0  0  0  0  0  0
   45.8469    4.4233    8.0694 O   0  0  0  0  0  0  0  0  0  0  0  0
   44.7465    3.0329    8.5676 S   0  0  0  0  0  0  0  0  0  0  0  0
   44.4213    3.8424   10.1440 C   0  0  0  0  0  0  0  0  0  0  0  0
   44.7981    5.1853   10.2731 C   0  0  0  0  0  0  0  0  0  0  0  0
   44.2335    1.6798    8.7996 O   0  0  0  0  0  0  0  0  0  0  0  0
   46.1969    3.1335    8.4521 O   0  0  0  0  0  0  0  0  0  0  0  0
   43.9696    3.8372    7.6314 O   0  0  0  0  0  0  0  0  0  0  0  0
   43.8163    3.1700   11.2092 C   0  0  0  0  0  0  0  0  0  0  0  0
   43.5872    3.8442   12.4086 C   0  0  0  0  0  0  0  0  0  0  0  0
   44.5634    5.8428   11.4736 C   0  0  0  0  0  0  0  0  0  0  0  0
   43.9606    5.1838   12.5443 C   0  0  0  0  0  0  0  0  0  0  0  0
   43.4166    1.8616   11.1717 O   0  0  0  0  0  0  0  0  0  0  0  0
   44.9395    7.1510   11.5751 O   0  0  0  0  0  0  0  0  0  0  0  0
   44.7948    6.1155    9.7512 H   0  0  0  0  0  0  0  0  0  0  0  0
   44.2911    1.3436   11.0449 H   0  0  0  0  0  0  0  0  0  0  0  0
   45.4665    1.9291    8.9494 H   0  0  0  0  0  0  0  0  0  0  0  0
   42.9360    3.7722   13.1887 H   0  0  0  0  0  0  0  0  0  0  0  0
   46.1444    3.6160    7.6227 H   0  0  0  0  0  0  0  0  0  0  0  0
   45.2677    5.6956    9.4366 H   0  0  0  0  0  0  0  0  0  0  0  0
   43.1169    3.3191   13.2346 H   0  0  0  0  0  0  0  0  0  0  0  0
   43.7739    5.6900   13.4850 H   0  0  0  0  0  0  0  0  0  0  0  0
   43.6427    1.5200   10.2654 H   0  0  0  0  0  0  0  0  0  0  0  0
   44.7107    7.4635   12.4637 H   0  0  0  0  0  0  0  0  0  0  0  0
  3  2  1  0
  4  3  2  0
  5  2  1  0
  6  2  2  0
  7  2  2  0
  8  3  1  0
  9  8  2  0
 10  4  1  0
 11  9  1  0
 12  8  1  0
 13 10  1  0
 10 11  2  0
 15 14  1  0
 16 15  2  0
 17 14  1  0
 18 14  2  0
 19 14  2  0
 20 15  1  0
 21 20  2  0
 22 16  1  0
 23 21  1  0
 24 20  1  0
 25 22  1  0
 22 23  2  0
  4 26  1  0
  9 27  1  0
 11 28  1  0
 12 29  1  0
 13 30  1  0
 16 31  1  0
 21 32  1  0
 23 33  1  0
 24 34  1  0
 25 35  1  0
M  CHG  3   1   2   5  -1  17  -1
M  END
> <Uni-Dock RESULT> 
ENERGY=   -6.089  LOWER_BOUND=    0.000  UPPER_BOUND=    0.000
INTER + INTRA:          -6.089
INTER:                  -6.089
INTRA:                   0.000
UNBOUND:                 0.000

$$$$

     RDKit          3D

 35 34  0  0  0  0  0  0  0  0999 V2000
   45.1690    5.3842   12.5316 Ca  0  0  0  0  0 15  0  0  0  0  0  0
   43.1503    4.5960   11.2157 S   0  0  0  0  0  0  0  0  0  0  0  0
   44.5892    5.1315   12.1586 C   0  0  0  0  0  0  0  0  0  0  0  0
   44.9086    6.4951   12.1357 C   0  0  0  0  0  0  0  0  0  0  0  0
   43.5027    4.9794    9.8533 O   0  0  0  0  0  0  0  0  0  0  0  0
   43.1297    3.1529   11.4699 O   0  0  0  0  0  0  0  0  0  0  0  0
   42.0661    5.3492   11.8355 O   0  0  0  0  0  0  0  0  0  0  0  0
   45.3689    4.2327   12.8914 C   0  0  0  0  0  0  0  0  0  0  0  0
   46.4729    4.7004   13.6043 C   0  0  0  0  0  0  0  0  0  0  0  0
   46.0107    6.9453   12.8504 C   0  0  0  0  0  0  0  0  0  0  0  0
   46.7973    6.0594   13.5858 C   0  0  0  0  0  0  0  0  0  0  0  0
   45.1312    2.8872   12.9701 O   0  0  0  0  0  0  0  0  0  0  0  0
   46.3017    8.2783   12.8126 O   0  0  0  0  0  0  0  0  0  0  0  0
   47.2935    6.7272   12.8646 S   0  0  0  0  0  0  0  0  0  0  0  0
   45.7966    5.7510   12.6347 C   0  0  0  0  0  0  0  0  0  0  0  0
   44.6380    6.4263   12.2301 C   0  0  0  0  0  0  0  0  0  0  0  0
   48.2679    5.7127   13.2758 O   0  0  0  0  0  0  0  0  0  0  0  0
   46.9020    7.6681   13.9079 O   0  0  0  0  0  0  0  0  0  0  0  0
   47.5109    7.2923   11.5378 O   0  0  0  0  0  0  0  0  0  0  0  0
   45.7748    4.3702   12.8480 C   0  0  0  0  0  0  0  0  0  0  0  0
   44.5886    3.6620   12.6554 C   0  0  0  0  0  0  0  0  0  0  0  0
   43.4649    5.7072   12.0427 C   0  0  0  0  0  0  0  0  0  0  0  0
   43.4292    4.3291   12.2519 C   0  0  0  0  0  0  0  0  0  0  0  0
   46.8566    3.6308   13.2430 O   0  0  0  0  0  0  0  0  0  0  0  0
   42.3492    6.3875   11.6483 O   0  0  0  0  0  0  0  0  0  0  0  0
   44.2934    7.1826   11.5616 H   0  0  0  0  0  0  0  0  0  0  0  0
   47.0769    3.9996   14.1728 H   0  0  0  0  0  0  0  0  0  0  0  0
   47.6594    6.4029   14.1466 H   0  0  0  0  0  0  0  0  0  0  0  0
   44.3235    2.7074   12.4182 H   0  0  0  0  0  0  0  0  0  0  0  0
   47.0901    8.4315   13.3554 H   0  0  0  0  0  0  0  0  0  0  0  0
   44.6696    7.5003   12.0680 H   0  0  0  0  0  0  0  0  0  0  0  0
   44.5748    2.5890   12.8219 H   0  0  0  0  0  0  0  0  0  0  0  0
   42.5172    3.7604   12.1078 H   0  0  0  0  0  0  0  0  0  0  0  0
   47.6167    4.2652   13.3378 H   0  0  0  0  0  0  0  0  0  0  0  0
   41.6221    5.7521   11.5622 H   0  0  0  0  0  0  0  0  0  0  0  0
  3  2  1  0
  4  3  2  0
  5  2  1  0
  6  2  2  0
  7  2  2  0
  8  3  1  0
  9  8  2  0
 10  4  1  0
 11  9  1  0
 12  8  1  0
 13 10  1  0
 10 11  2  0
 15 14  1  0
 16 15  2  0
 17 14  1  0
 18 14  2  0
 19 14  2  0
 20 15  1  0
 21 20  2  0
 22 16  1  0
 23 21  1  0
 24 20  1  0
 25 22  1  0
 22 23  2  0
  4 26  1  0
  9 27  1  0
 11 28  1  0
 12 29  1  0
 13 30  1  0
 16 31  1  0
 21 32  1  0
 23 33  1  0
 24 34  1  0
 25 35  1  0
M  CHG  3   1   2   5  -1  17  -1
M  END
> <Uni-Dock RESULT> 
ENERGY=   -6.006  LOWER_BOUND=    2.226  UPPER_BOUND=    3.966
INTER + INTRA:          -6.006
INTER:                  -6.006
INTRA:                   0.000
UNBOUND:                 0.000

$$$$

     RDKit          3D

 35 34  0  0  0  0  0  0  0  0999 V2000
   44.8810    4.0542   10.4995 Ca  0  0  0  0  0 15  0  0  0  0  0  0
   44.8843    4.3349   13.0193 S   0  0  0  0  0  0  0  0  0  0  0  0
   44.8886    4.1607   11.2260 C   0  0  0  0  0  0  0  0  0  0  0  0
   44.5722    2.9033   10.6960 C   0  0  0  0  0  0  0  0  0  0  0  0
   45.9002    3.3742   13.4342 O   0  0  0  0  0  0  0  0  0  0  0  0
   45.2503    5.7427   13.1971 O   0  0  0  0  0  0  0  0  0  0  0  0
   43.5069    4.0048   13.3671 O   0  0  0  0  0  0  0  0  0  0  0  0
   45.1942    5.2303   10.3802 C   0  0  0  0  0  0  0  0  0  0  0  0
   45.1829    5.0409    8.9983 C   0  0  0  0  0  0  0  0  0  0  0  0
   44.5653    2.7306    9.3182 C   0  0  0  0  0  0  0  0  0  0  0  0
   44.8682    3.7892    8.4628 C   0  0  0  0  0  0  0  0  0  0  0  0
   45.5140    6.4898   10.8097 O   0  0  0  0  0  0  0  0  0  0  0  0
   44.2539    1.4963    8.8258 O   0  0  0  0  0  0  0  0  0  0  0  0
   45.4139    2.8412    8.3379 S   0  0  0  0  0  0  0  0  0  0  0  0
   45.0467    3.7248    9.8646 C   0  0  0  0  0  0  0  0  0  0  0  0
   44.3694    3.0253   10.8716 C   0  0  0  0  0  0  0  0  0  0  0  0
   46.1060    3.8612    7.5454 O   0  0  0  0  0  0  0  0  0  0  0  0
   44.0869    2.4769    7.8547 O   0  0  0  0  0  0  0  0  0  0  0  0
   46.2535    1.7423    8.8012 O   0  0  0  0  0  0  0  0  0  0  0  0
   45.4166    5.0590   10.0535 C   0  0  0  0  0  0  0  0  0  0  0  0
   45.1076    5.6960   11.2553 C   0  0  0  0  0  0  0  0  0  0  0  0
   44.0690    3.6734   12.0625 C   0  0  0  0  0  0  0  0  0  0  0  0
   44.4322    5.0044   12.2642 C   0  0  0  0  0  0  0  0  0  0  0  0
   46.0788    5.8174    9.1265 O   0  0  0  0  0  0  0  0  0  0  0  0
   43.4086    2.9709   13.0286 O   0  0  0  0  0  0  0  0  0  0  0  0
   44.3366    2.0806   11.3656 H   0  0  0  0  0  0  0  0  0  0  0  0
   45.4208    5.8740    8.3436 H   0  0  0  0  0  0  0  0  0  0  0  0
   44.8651    3.6627    7.3859 H   0  0  0  0  0  0  0  0  0  0  0  0
   45.4808    6.4693   11.8036 H   0  0  0  0  0  0  0  0  0  0  0  0
   44.2920    1.5380    7.8580 H   0  0  0  0  0  0  0  0  0  0  0  0
   44.0879    1.9882   10.7110 H   0  0  0  0  0  0  0  0  0  0  0  0
   45.3964    6.7329   11.3993 H   0  0  0  0  0  0  0  0  0  0  0  0
   44.2013    5.5176   13.1911 H   0  0  0  0  0  0  0  0  0  0  0  0
   46.2272    5.2345    8.3343 H   0  0  0  0  0  0  0  0  0  0  0  0
   43.2745    3.5560   13.7898 H   0  0  0  0  0  0  0  0  0  0  0  0
  3  2  1  0
  4  3  2  0
  5  2  1  0
  6  2  2  0
  7  2  2  0
  8  3  1  0
  9  8  2  0
 10  4  1  0
 11  9  1  0
 12  8  1  0
 13 10  1  0
 10 11  2  0
 15 14  1  0
 16 15  2  0
 17 14  1  0
 18 14  2  0
 19 14  2  0
 20 15  1  0
 21 20  2  0
 22 16  1  0
 23 21  1  0
 24 20  1  0
 25 22  1  0
 22 23  2  0
  4 26  1  0
  9 27  1  0
 11 28  1  0
 12 29  1  0
 13 30  1  0
 16 31  1  0
 21 32  1  0
 23 33  1  0
 24 34  1  0
 25 35  1  0
M  CHG  3   1   2   5  -1  17  -1
M  END
> <Uni-Dock RESULT> 
ENERGY=   -5.398  LOWER_BOUND=    1.206  UPPER_BOUND=    2.915
INTER + INTRA:          -5.398
INTER:                  -5.398
INTRA:                   0.000
UNBOUND:                 0.000

$$$$

     RDKit          3D

 35 34  0  0  0  0  0  0  0  0999 V2000
   45.2757    6.0417   12.4908 Ca  0  0  0  0  0 15  0  0  0  0  0  0
   42.9353    5.1256   12.1566 S   0  0  0  0  0  0  0  0  0  0  0  0
   44.5906    5.7997   12.3847 C   0  0  0  0  0  0  0  0  0  0  0  0
   45.5690    4.9501   12.9164 C   0  0  0  0  0  0  0  0  0  0  0  0
   42.5546    4.7523   13.5141 O   0  0  0  0  0  0  0  0  0  0  0  0
   42.2070    6.2682   11.5985 O   0  0  0  0  0  0  0  0  0  0  0  0
   43.1658    4.0250   11.2278 O   0  0  0  0  0  0  0  0  0  0  0  0
   44.9039    7.1195   12.0486 C   0  0  0  0  0  0  0  0  0  0  0  0
   46.2018    7.5910   12.2455 C   0  0  0  0  0  0  0  0  0  0  0  0
   46.8565    5.4343   13.1066 C   0  0  0  0  0  0  0  0  0  0  0  0
   47.1828    6.7489   12.7757 C   0  0  0  0  0  0  0  0  0  0  0  0
   44.0134    8.0171   11.5250 O   0  0  0  0  0  0  0  0  0  0  0  0
   47.7924    4.5875   13.6262 O   0  0  0  0  0  0  0  0  0  0  0  0
   47.4280    6.3858   13.7858 S   0  0  0  0  0  0  0  0  0  0  0  0
   45.8963    6.1672   12.8625 C   0  0  0  0  0  0  0  0  0  0  0  0
   45.4369    4.8581   12.6696 C   0  0  0  0  0  0  0  0  0  0  0  0
   47.5879    7.8426   13.7850 O   0  0  0  0  0  0  0  0  0  0  0  0
   48.3953    5.6566   12.9735 O   0  0  0  0  0  0  0  0  0  0  0  0
   47.1044    5.7994   15.0813 O   0  0  0  0  0  0  0  0  0  0  0  0
   45.1806    7.2527   12.3506 C   0  0  0  0  0  0  0  0  0  0  0  0
   43.9999    7.0274   11.6429 C   0  0  0  0  0  0  0  0  0  0  0  0
   44.2598    4.6501   11.9628 C   0  0  0  0  0  0  0  0  0  0  0  0
   43.5358    5.7241   11.4467 C   0  0  0  0  0  0  0  0  0  0  0  0
   45.5543    8.5617   12.4910 O   0  0  0  0  0  0  0  0  0  0  0  0
   43.8325    3.3656   11.7880 O   0  0  0  0  0  0  0  0  0  0  0  0
   45.3113    3.9262   13.1732 H   0  0  0  0  0  0  0  0  0  0  0  0
   46.4423    8.6170   11.9835 H   0  0  0  0  0  0  0  0  0  0  0  0
   48.1857    7.1347   12.9211 H   0  0  0  0  0  0  0  0  0  0  0  0
   43.1434    7.5417   11.4437 H   0  0  0  0  0  0  0  0  0  0  0  0
   48.6306    5.0694   13.6970 H   0  0  0  0  0  0  0  0  0  0  0  0
   46.0037    4.0235   13.0733 H   0  0  0  0  0  0  0  0  0  0  0  0
   43.4458    7.8729   11.2463 H   0  0  0  0  0  0  0  0  0  0  0  0
   42.6158    5.5702   10.8937 H   0  0  0  0  0  0  0  0  0  0  0  0
   46.4026    8.5623   13.0104 H   0  0  0  0  0  0  0  0  0  0  0  0
   43.0067    3.3878   11.2808 H   0  0  0  0  0  0  0  0  0  0  0  0
  3  2  1  0
  4  3  2  0
  5  2  1  0
  6  2  2  0
  7  2  2  0
  8  3  1  0
  9  8  2  0
 10  4  1  0
 11  9  1  0
 12  8  1  0
 13 10  1  0
 10 11  2  0
 15 14  1  0
 16 15  2  0
 17 14  1  0
 18 14  2  0
 19 14  2  0
 20 15  1  0
 21 20  2  0
 22 16  1  0
 23 21  1  0
 24 20  1  0
 25 22  1  0
 22 23  2  0
  4 26  1  0
  9 27  1  0
 11 28  1  0
 12 29  1  0
 13 30  1  0
 16 31  1  0
 21 32  1  0
 23 33  1  0
 24 34  1  0
 25 35  1  0
M  CHG  3   1   2   5  -1  17  -1
M  END
> <Uni-Dock RESULT> 
ENERGY=   -4.961  LOWER_BOUND=    2.389  UPPER_BOUND=    4.683
INTER + INTRA:          -4.961
INTER:                  -4.961
INTRA:                   0.000
UNBOUND:                 0.000

$$$$

     RDKit          3D

 35 34  0  0  0  0  0  0  0  0999 V2000
   44.6530    4.2142   10.7786 Ca  0  0  0  0  0 15  0  0  0  0  0  0
   45.0572    2.6410    8.8318 S   0  0  0  0  0  0  0  0  0  0  0  0
   44.7567    3.7400   10.2276 C   0  0  0  0  0  0  0  0  0  0  0  0
   45.2753    5.0390   10.1534 C   0  0  0  0  0  0  0  0  0  0  0  0
   46.5134    2.5704    8.7911 O   0  0  0  0  0  0  0  0  0  0  0  0
   44.3866    1.4086    9.2547 O   0  0  0  0  0  0  0  0  0  0  0  0
   44.4165    3.3469    7.7281 O   0  0  0  0  0  0  0  0  0  0  0  0
   44.0346    3.3278   11.3508 C   0  0  0  0  0  0  0  0  0  0  0  0
   43.8308    4.2192   12.4041 C   0  0  0  0  0  0  0  0  0  0  0  0
   45.0640    5.9148   11.2101 C   0  0  0  0  0  0  0  0  0  0  0  0
   44.3454    5.5166   12.3367 C   0  0  0  0  0  0  0  0  0  0  0  0
   43.4932    2.0808   11.5080 O   0  0  0  0  0  0  0  0  0  0  0  0
   45.5792    7.1751   11.1144 O   0  0  0  0  0  0  0  0  0  0  0  0
   45.3417    5.9627   12.4804 S   0  0  0  0  0  0  0  0  0  0  0  0
   44.8432    4.7051   11.2904 C   0  0  0  0  0  0  0  0  0  0  0  0
   45.0934    4.9589    9.9358 C   0  0  0  0  0  0  0  0  0  0  0  0
   44.9325    5.3663   13.7550 O   0  0  0  0  0  0  0  0  0  0  0  0
   44.5631    7.1226   12.0617 O   0  0  0  0  0  0  0  0  0  0  0  0
   46.7825    6.0455   12.2701 O   0  0  0  0  0  0  0  0  0  0  0  0
   44.2282    3.5146   11.6872 C   0  0  0  0  0  0  0  0  0  0  0  0
   43.8623    2.5741   10.7244 C   0  0  0  0  0  0  0  0  0  0  0  0
   44.7232    4.0126    8.9892 C   0  0  0  0  0  0  0  0  0  0  0  0
   44.1089    2.8207    9.3713 C   0  0  0  0  0  0  0  0  0  0  0  0
   43.9461    3.1843   12.9850 O   0  0  0  0  0  0  0  0  0  0  0  0
   44.9775    4.2827    7.6757 O   0  0  0  0  0  0  0  0  0  0  0  0
   45.8348    5.3460    9.2739 H   0  0  0  0  0  0  0  0  0  0  0  0
   43.2693    3.8960   13.2756 H   0  0  0  0  0  0  0  0  0  0  0  0
   44.1760    6.1942   13.1660 H   0  0  0  0  0  0  0  0  0  0  0  0
   43.7188    1.5662   10.6872 H   0  0  0  0  0  0  0  0  0  0  0  0
   45.3486    7.6585   11.9225 H   0  0  0  0  0  0  0  0  0  0  0  0
   45.5723    5.8888    9.6417 H   0  0  0  0  0  0  0  0  0  0  0  0
   43.3846    1.6499   11.0357 H   0  0  0  0  0  0  0  0  0  0  0  0
   43.8166    2.0768    8.6385 H   0  0  0  0  0  0  0  0  0  0  0  0
   44.2609    3.9419   13.5473 H   0  0  0  0  0  0  0  0  0  0  0  0
   44.6637    3.5336    7.1465 H   0  0  0  0  0  0  0  0  0  0  0  0
  3  2  1  0
  4  3  2  0
  5  2  1  0
  6  2  2  0
  7  2  2  0
  8  3  1  0
  9  8  2  0
 10  4  1  0
 11  9  1  0
 12  8  1  0
 13 10  1  0
 10 11  2  0
 15 14  1  0
 16 15  2  0
 17 14  1  0
 18 14  2  0
 19 14  2  0
 20 15  1  0
 21 20  2  0
 22 16  1  0
 23 21  1  0
 24 20  1  0
 25 22  1  0
 22 23  2  0
  4 26  1  0
  9 27  1  0
 11 28  1  0
 12 29  1  0
 13 30  1  0
 16 31  1  0
 21 32  1  0
 23 33  1  0
 24 34  1  0
 25 35  1  0
M  CHG  3   1   2   5  -1  17  -1
M  END
> <Uni-Dock RESULT> 
ENERGY=   -4.941  LOWER_BOUND=    0.938  UPPER_BOUND=    3.893
INTER + INTRA:          -4.941
INTER:                  -4.941
INTRA:                   0.000
UNBOUND:                 0.000

$$$$

     RDKit          3D

 35 34  0  0  0  0  0  0  0  0999 V2000
   45.0951    5.8703   12.2775 Ca  0  0  0  0  0 15  0  0  0  0  0  0
   46.9770    7.5619   12.4357 S   0  0  0  0  0  0  0  0  0  0  0  0
   45.6234    6.3789   12.3158 C   0  0  0  0  0  0  0  0  0  0  0  0
   45.9008    5.0423   12.6294 C   0  0  0  0  0  0  0  0  0  0  0  0
   47.9423    7.0385   11.4758 O   0  0  0  0  0  0  0  0  0  0  0  0
   46.3300    8.8174   12.0450 O   0  0  0  0  0  0  0  0  0  0  0  0
   47.3543    7.4714   13.8416 O   0  0  0  0  0  0  0  0  0  0  0  0
   44.3378    6.7637   11.9258 C   0  0  0  0  0  0  0  0  0  0  0  0
   43.3257    5.8070   11.8494 C   0  0  0  0  0  0  0  0  0  0  0  0
   44.8826    4.1015   12.5484 C   0  0  0  0  0  0  0  0  0  0  0  0
   43.5955    4.4718   12.1608 C   0  0  0  0  0  0  0  0  0  0  0  0
   43.9778    8.0438   11.6021 O   0  0  0  0  0  0  0  0  0  0  0  0
   45.1776    2.8055   12.8589 O   0  0  0  0  0  0  0  0  0  0  0  0
   44.0826    3.6370   11.6334 S   0  0  0  0  0  0  0  0  0  0  0  0
   44.7827    5.2363   12.0785 C   0  0  0  0  0  0  0  0  0  0  0  0
   45.9583    5.2400   12.8401 C   0  0  0  0  0  0  0  0  0  0  0  0
   42.8960    4.0190   10.8628 O   0  0  0  0  0  0  0  0  0  0  0  0
   43.8089    3.0369   12.9342 O   0  0  0  0  0  0  0  0  0  0  0  0
   45.1549    3.0260   10.8563 O   0  0  0  0  0  0  0  0  0  0  0  0
   44.1877    6.4385   11.6867 C   0  0  0  0  0  0  0  0  0  0  0  0
   44.7715    7.6495   12.0584 C   0  0  0  0  0  0  0  0  0  0  0  0
   46.5274    6.4538   13.2023 C   0  0  0  0  0  0  0  0  0  0  0  0
   45.9442    7.6606   12.8181 C   0  0  0  0  0  0  0  0  0  0  0  0
   43.0418    6.5289   10.9438 O   0  0  0  0  0  0  0  0  0  0  0  0
   47.6728    6.4316   13.9445 O   0  0  0  0  0  0  0  0  0  0  0  0
   46.9050    4.7573   12.9311 H   0  0  0  0  0  0  0  0  0  0  0  0
   42.3277    6.1090   11.5461 H   0  0  0  0  0  0  0  0  0  0  0  0
   42.7949    3.7434   12.0951 H   0  0  0  0  0  0  0  0  0  0  0  0
   44.7938    8.6037   11.7024 H   0  0  0  0  0  0  0  0  0  0  0  0
   44.3708    2.2782   12.7549 H   0  0  0  0  0  0  0  0  0  0  0  0
   46.4101    4.2977   13.1378 H   0  0  0  0  0  0  0  0  0  0  0  0
   44.3068    8.5820   11.7524 H   0  0  0  0  0  0  0  0  0  0  0  0
   46.3822    8.6126   13.0969 H   0  0  0  0  0  0  0  0  0  0  0  0
   42.7477    5.5971   10.7583 H   0  0  0  0  0  0  0  0  0  0  0  0
   47.9415    7.3475   14.1137 H   0  0  0  0  0  0  0  0  0  0  0  0
  3  2  1  0
  4  3  2  0
  5  2  1  0
  6  2  2  0
  7  2  2  0
  8  3  1  0
  9  8  2  0
 10  4  1  0
 11  9  1  0
 12  8  1  0
 13 10  1  0
 10 11  2  0
 15 14  1  0
 16 15  2  0
 17 14  1  0
 18 14  2  0
 19 14  2  0
 20 15  1  0
 21 20  2  0
 22 16  1  0
 23 21  1  0
 24 20  1  0
 25 22  1  0
 22 23  2  0
  4 26  1  0
  9 27  1  0
 11 28  1  0
 12 29  1  0
 13 30  1  0
 16 31  1  0
 21 32  1  0
 23 33  1  0
 24 34  1  0
 25 35  1  0
M  CHG  3   1   2   5  -1  17  -1
M  END
> <Uni-Dock RESULT> 
ENERGY=   -4.758  LOWER_BOUND=    2.204  UPPER_BOUND=    3.788
INTER + INTRA:          -4.758
INTER:                  -4.758
INTRA:                   0.000
UNBOUND:                 0.000

$$$$

     RDKit          3D

 35 34  0  0  0  0  0  0  0  0999 V2000
   45.6737    5.9469   12.7134 Ca  0  0  0  0  0 15  0  0  0  0  0  0
   47.2357    7.8613   13.2820 S   0  0  0  0  0  0  0  0  0  0  0  0
   46.1430    6.4839   12.8881 C   0  0  0  0  0  0  0  0  0  0  0  0
   44.9246    6.7809   12.2643 C   0  0  0  0  0  0  0  0  0  0  0  0
   46.4211    8.6642   14.1869 O   0  0  0  0  0  0  0  0  0  0  0  0
   48.3768    7.1860   13.9062 O   0  0  0  0  0  0  0  0  0  0  0  0
   47.5014    8.4411   11.9704 O   0  0  0  0  0  0  0  0  0  0  0  0
   46.4831    5.1619   13.1869 C   0  0  0  0  0  0  0  0  0  0  0  0
   45.6001    4.1327   12.8601 C   0  0  0  0  0  0  0  0  0  0  0  0
   44.0561    5.7453   11.9454 C   0  0  0  0  0  0  0  0  0  0  0  0
   44.3829    4.4218   12.2378 C   0  0  0  0  0  0  0  0  0  0  0  0
   47.6491    4.7808   13.7936 O   0  0  0  0  0  0  0  0  0  0  0  0
   42.8750    6.0599   11.3380 O   0  0  0  0  0  0  0  0  0  0  0  0
   43.4113    4.8104   12.5803 S   0  0  0  0  0  0  0  0  0  0  0  0
   45.0286    5.5972   12.6876 C   0  0  0  0  0  0  0  0  0  0  0  0
   45.1677    6.8725   12.1253 C   0  0  0  0  0  0  0  0  0  0  0  0
   43.6416    3.5298   13.2546 O   0  0  0  0  0  0  0  0  0  0  0  0
   43.1961    4.7218   11.1405 O   0  0  0  0  0  0  0  0  0  0  0  0
   42.5551    5.7447   13.3022 O   0  0  0  0  0  0  0  0  0  0  0  0
   46.1150    4.9722   13.3056 C   0  0  0  0  0  0  0  0  0  0  0  0
   47.3458    5.6262   13.3612 C   0  0  0  0  0  0  0  0  0  0  0  0
   46.3995    7.5106   12.1886 C   0  0  0  0  0  0  0  0  0  0  0  0
   47.4917    6.8984   12.8023 C   0  0  0  0  0  0  0  0  0  0  0  0
   46.0698    3.7307   13.8798 O   0  0  0  0  0  0  0  0  0  0  0  0
   46.5102    8.7527   11.6336 O   0  0  0  0  0  0  0  0  0  0  0  0
   44.6732    7.8135   12.0378 H   0  0  0  0  0  0  0  0  0  0  0  0
   45.8671    3.1063   13.0936 H   0  0  0  0  0  0  0  0  0  0  0  0
   43.7104    3.6075   11.9920 H   0  0  0  0  0  0  0  0  0  0  0  0
   48.1678    5.6125   13.9627 H   0  0  0  0  0  0  0  0  0  0  0  0
   42.3861    5.2373   11.1825 H   0  0  0  0  0  0  0  0  0  0  0  0
   44.3144    7.3465   11.6479 H   0  0  0  0  0  0  0  0  0  0  0  0
   48.1882    5.1380   13.8421 H   0  0  0  0  0  0  0  0  0  0  0  0
   48.4568    7.3898   12.8559 H   0  0  0  0  0  0  0  0  0  0  0  0
   45.1406    3.3957   13.7627 H   0  0  0  0  0  0  0  0  0  0  0  0
   47.4211    9.0598   11.7585 H   0  0  0  0  0  0  0  0  0  0  0  0
  3  2  1  0
  4  3  2  0
  5  2  1  0
  6  2  2  0
  7  2  2  0
  8  3  1  0
  9  8  2  0
 10  4  1  0
 11  9  1  0
 12  8  1  0
 13 10  1  0
 10 11  2  0
 15 14  1  0
 16 15  2  0
 17 14  1  0
 18 14  2  0
 19 14  2  0
 20 15  1  0
 21 20  2  0
 22 16  1  0
 23 21  1  0
 24 20  1  0
 25 22  1  0
 22 23  2  0
  4 26  1  0
  9 27  1  0
 11 28  1  0
 12 29  1  0
 13 30  1  0
 16 31  1  0
 21 32  1  0
 23 33  1  0
 24 34  1  0
 25 35  1  0
M  CHG  3   1   2   5  -1  17  -1
M  END
> <Uni-Dock RESULT> 
ENERGY=   -4.734  LOWER_BOUND=    2.552  UPPER_BOUND=    4.021
INTER + INTRA:          -4.734
INTER:                  -4.734
INTRA:                   0.000
UNBOUND:                 0.000

$$$$

     RDKit          3D

 35 34  0  0  0  0  0  0  0  0999 V2000
   44.7772    4.2876   10.2998 Ca  0  0  0  0  0 15  0  0  0  0  0  0
   45.0174    3.2074    8.0187 S   0  0  0  0  0  0  0  0  0  0  0  0
   44.8624    3.9946    9.6320 C   0  0  0  0  0  0  0  0  0  0  0  0
   44.0618    3.3586   10.5894 C   0  0  0  0  0  0  0  0  0  0  0  0
   43.6385    3.1812    7.5444 O   0  0  0  0  0  0  0  0  0  0  0  0
   45.9031    4.1309    7.3045 O   0  0  0  0  0  0  0  0  0  0  0  0
   45.6078    1.9159    8.3509 O   0  0  0  0  0  0  0  0  0  0  0  0
   45.5103    5.1954    9.9338 C   0  0  0  0  0  0  0  0  0  0  0  0
   45.3564    5.7622   11.1990 C   0  0  0  0  0  0  0  0  0  0  0  0
   43.9184    3.9355   11.8444 C   0  0  0  0  0  0  0  0  0  0  0  0
   44.5592    5.1332   12.1588 C   0  0  0  0  0  0  0  0  0  0  0  0
   46.3096    5.8839    9.0621 O   0  0  0  0  0  0  0  0  0  0  0  0
   43.1332    3.2970   12.7603 O   0  0  0  0  0  0  0  0  0  0  0  0
   43.4751    5.0562   12.3350 S   0  0  0  0  0  0  0  0  0  0  0  0
   44.4102    4.5341   10.8861 C   0  0  0  0  0  0  0  0  0  0  0  0
   44.2842    3.1997   10.4794 C   0  0  0  0  0  0  0  0  0  0  0  0
   43.8464    6.4688   12.4541 O   0  0  0  0  0  0  0  0  0  0  0  0
   44.0006    4.1876   13.3821 O   0  0  0  0  0  0  0  0  0  0  0  0
   42.0961    4.8109   11.9282 O   0  0  0  0  0  0  0  0  0  0  0  0
   45.2357    5.4152   10.1824 C   0  0  0  0  0  0  0  0  0  0  0  0
   45.9379    4.9590    9.0669 C   0  0  0  0  0  0  0  0  0  0  0  0
   44.9899    2.7607    9.3668 C   0  0  0  0  0  0  0  0  0  0  0  0
   45.8169    3.6291    8.6556 C   0  0  0  0  0  0  0  0  0  0  0  0
   45.4180    6.7319   10.5078 O   0  0  0  0  0  0  0  0  0  0  0  0
   44.8507    1.4562    8.9901 O   0  0  0  0  0  0  0  0  0  0  0  0
   43.5639    2.4253   10.3409 H   0  0  0  0  0  0  0  0  0  0  0  0
   45.8611    6.6954   11.4306 H   0  0  0  0  0  0  0  0  0  0  0  0
   44.4524    5.5901   13.1364 H   0  0  0  0  0  0  0  0  0  0  0  0
   46.3223    5.3634    8.2145 H   0  0  0  0  0  0  0  0  0  0  0  0
   43.1345    3.8196   13.5767 H   0  0  0  0  0  0  0  0  0  0  0  0
   43.6388    2.5257   11.0360 H   0  0  0  0  0  0  0  0  0  0  0  0
   46.5786    5.6459    8.5221 H   0  0  0  0  0  0  0  0  0  0  0  0
   46.3713    3.2942    7.7859 H   0  0  0  0  0  0  0  0  0  0  0  0
   44.8608    6.9068   11.3129 H   0  0  0  0  0  0  0  0  0  0  0  0
   45.4007    1.3074    8.2058 H   0  0  0  0  0  0  0  0  0  0  0  0
  3  2  1  0
  4  3  2  0
  5  2  1  0
  6  2  2  0
  7  2  2  0
  8  3  1  0
  9  8  2  0
 10  4  1  0
 11  9  1  0
 12  8  1  0
 13 10  1  0
 10 11  2  0
 15 14  1  0
 16 15  2  0
 17 14  1  0
 18 14  2  0
 19 14  2  0
 20 15  1  0
 21 20  2  0
 22 16  1  0
 23 21  1  0
 24 20  1  0
 25 22  1  0
 22 23  2  0
  4 26  1  0
  9 27  1  0
 11 28  1  0
 12 29  1  0
 13 30  1  0
 16 31  1  0
 21 32  1  0
 23 33  1  0
 24 34  1  0
 25 35  1  0
M  CHG  3   1   2   5  -1  17  -1
M  END
> <Uni-Dock RESULT> 
ENERGY=   -4.616  LOWER_BOUND=    0.972  UPPER_BOUND=    4.484
INTER + INTRA:          -4.616
INTER:                  -4.616
INTRA:                   0.000
UNBOUND:                 0.000

$$$$

     RDKit          3D

 35 34  0  0  0  0  0  0  0  0999 V2000
   44.8162    8.4180   11.8499 Ca  0  0  0  0  0 15  0  0  0  0  0  0
   43.9358   10.7607   11.4437 S   0  0  0  0  0  0  0  0  0  0  0  0
   44.5825    9.1060   11.7442 C   0  0  0  0  0  0  0  0  0  0  0  0
   43.8214    8.0205   11.2921 C   0  0  0  0  0  0  0  0  0  0  0  0
   42.6649   10.7397   12.1589 O   0  0  0  0  0  0  0  0  0  0  0  0
   44.9697   11.6126   12.0377 O   0  0  0  0  0  0  0  0  0  0  0  0
   43.8540   10.8101    9.9884 O   0  0  0  0  0  0  0  0  0  0  0  0
   45.7969    8.8954   12.4027 C   0  0  0  0  0  0  0  0  0  0  0  0
   46.2517    7.5931   12.6095 C   0  0  0  0  0  0  0  0  0  0  0  0
   44.2876    6.7300   11.5056 C   0  0  0  0  0  0  0  0  0  0  0  0
   45.4976    6.5056   12.1611 C   0  0  0  0  0  0  0  0  0  0  0  0
   46.6035    9.8941   12.8770 O   0  0  0  0  0  0  0  0  0  0  0  0
   43.5283    5.6888   11.0558 O   0  0  0  0  0  0  0  0  0  0  0  0
   44.5989    5.9839   12.5252 S   0  0  0  0  0  0  0  0  0  0  0  0
   44.7730    7.7165   12.0623 C   0  0  0  0  0  0  0  0  0  0  0  0
   43.9004    8.2181   11.0881 C   0  0  0  0  0  0  0  0  0  0  0  0
   45.6473    5.8240   13.5366 O   0  0  0  0  0  0  0  0  0  0  0  0
   44.8442    5.2922   11.2648 O   0  0  0  0  0  0  0  0  0  0  0  0
   43.2336    5.9270   13.0347 O   0  0  0  0  0  0  0  0  0  0  0  0
   45.7378    8.5434   12.6438 C   0  0  0  0  0  0  0  0  0  0  0  0
   45.8297    9.8780   12.2488 C   0  0  0  0  0  0  0  0  0  0  0  0
   44.0045    9.5490   10.7056 C   0  0  0  0  0  0  0  0  0  0  0  0
   44.9625   10.3851   11.2777 C   0  0  0  0  0  0  0  0  0  0  0  0
   46.6292    8.1389   13.6002 O   0  0  0  0  0  0  0  0  0  0  0  0
   43.1431   10.0144    9.7546 O   0  0  0  0  0  0  0  0  0  0  0  0
   42.8790    8.1991   10.7815 H   0  0  0  0  0  0  0  0  0  0  0  0
   47.1958    7.4326   13.1215 H   0  0  0  0  0  0  0  0  0  0  0  0
   45.8686    5.5011   12.3318 H   0  0  0  0  0  0  0  0  0  0  0  0
   46.1527   10.7533   12.6580 H   0  0  0  0  0  0  0  0  0  0  0  0
   43.9845    4.8630   11.2790 H   0  0  0  0  0  0  0  0  0  0  0  0
   43.1551    7.5636   10.6445 H   0  0  0  0  0  0  0  0  0  0  0  0
   46.5804   10.5183   12.7025 H   0  0  0  0  0  0  0  0  0  0  0  0
   45.0504   11.4253   10.9844 H   0  0  0  0  0  0  0  0  0  0  0  0
   46.4431    7.1777   13.7755 H   0  0  0  0  0  0  0  0  0  0  0  0
   43.3412   10.9505    9.5992 H   0  0  0  0  0  0  0  0  0  0  0  0
  3  2  1  0
  4  3  2  0
  5  2  1  0
  6  2  2  0
  7  2  2  0
  8  3  1  0
  9  8  2  0
 10  4  1  0
 11  9  1  0
 12  8  1  0
 13 10  1  0
 10 11  2  0
 15 14  1  0
 16 15  2  0
 17 14  1  0
 18 14  2  0
 19 14  2  0
 20 15  1  0
 21 20  2  0
 22 16  1  0
 23 21  1  0
 24 20  1  0
 25 22  1  0
 22 23  2  0
  4 26  1  0
  9 27  1  0
 11 28  1  0
 12 29  1  0
 13 30  1  0
 16 31  1  0
 21 32  1  0
 23 33  1  0
 24 34  1  0
 25 35  1  0
M  CHG  3   1   2   5  -1  17  -1
M  END
> <Uni-Dock RESULT> 
ENERGY=   -4.314  LOWER_BOUND=    3.185  UPPER_BOUND=    5.184
INTER + INTRA:          -4.314
INTER:                  -4.314
INTRA:                   0.000
UNBOUND:                 0.000

$$$$
