
     RDKit          3D

 35 34  0  0  0  0  0  0  0  0999 V2000
   46.1925    2.7995    8.0701 Ca  0  0  0  0  0 15  0  0  0  0  0  0
   47.4637    2.0712    6.1489 S   0  0  0  0  0  0  0  0  0  0  0  0
   46.4394    2.5773    7.5410 C   0  0  0  0  0  0  0  0  0  0  0  0
   46.3135    3.9529    7.7733 C   0  0  0  0  0  0  0  0  0  0  0  0
   48.7647    2.6294    6.5007 O   0  0  0  0  0  0  0  0  0  0  0  0
   46.7859    2.6984    5.0197 O   0  0  0  0  0  0  0  0  0  0  0  0
   47.3711    0.6108    6.2046 O   0  0  0  0  0  0  0  0  0  0  0  0
   45.7914    1.6530    8.3638 C   0  0  0  0  0  0  0  0  0  0  0  0
   45.0117    2.1088    9.4270 C   0  0  0  0  0  0  0  0  0  0  0  0
   45.5330    4.3894    8.8366 C   0  0  0  0  0  0  0  0  0  0  0  0
   44.8817    3.4798    9.6645 C   0  0  0  0  0  0  0  0  0  0  0  0
   45.8630    0.2959    8.2051 O   0  0  0  0  0  0  0  0  0  0  0  0
   45.3825    5.7203    9.0995 O   0  0  0  0  0  0  0  0  0  0  0  0
   44.7355    3.9313    9.6743 S   0  0  0  0  0  0  0  0  0  0  0  0
   45.8315    3.1585    8.4723 C   0  0  0  0  0  0  0  0  0  0  0  0
   45.8170    1.7597    8.4028 C   0  0  0  0  0  0  0  0  0  0  0  0
   43.4211    3.4767    9.2343 O   0  0  0  0  0  0  0  0  0  0  0  0
   45.0058    5.3569    9.4759 O   0  0  0  0  0  0  0  0  0  0  0  0
   45.2131    3.3735   10.9346 O   0  0  0  0  0  0  0  0  0  0  0  0
   46.6665    3.9052    7.6377 C   0  0  0  0  0  0  0  0  0  0  0  0
   47.4929    3.2469    6.7268 C   0  0  0  0  0  0  0  0  0  0  0  0
   46.6465    1.1203    7.4899 C   0  0  0  0  0  0  0  0  0  0  0  0
   47.4834    1.8514    6.6521 C   0  0  0  0  0  0  0  0  0  0  0  0
   46.7402    5.2715    7.6428 O   0  0  0  0  0  0  0  0  0  0  0  0
   46.6646   -0.2408    7.3884 O   0  0  0  0  0  0  0  0  0  0  0  0
   46.8313    4.6428    7.1135 H   0  0  0  0  0  0  0  0  0  0  0  0
   44.5069    1.3927   10.0681 H   0  0  0  0  0  0  0  0  0  0  0  0
   44.2752    3.8347   10.4914 H   0  0  0  0  0  0  0  0  0  0  0  0
   46.4465    0.1292    7.4175 H   0  0  0  0  0  0  0  0  0  0  0  0
   45.8988    6.2042    8.4322 H   0  0  0  0  0  0  0  0  0  0  0  0
   45.1553    1.2113    9.0669 H   0  0  0  0  0  0  0  0  0  0  0  0
   48.1428    3.8247    6.0769 H   0  0  0  0  0  0  0  0  0  0  0  0
   48.1262    1.3391    5.9437 H   0  0  0  0  0  0  0  0  0  0  0  0
   46.1018    5.5909    8.3349 H   0  0  0  0  0  0  0  0  0  0  0  0
   46.0281   -0.5850    8.0382 H   0  0  0  0  0  0  0  0  0  0  0  0
  3  2  1  0
  4  3  2  0
  5  2  1  0
  6  2  2  0
  7  2  2  0
  8  3  1  0
  9  8  2  0
 10  4  1  0
 11  9  1  0
 12  8  1  0
 13 10  1  0
 10 11  2  0
 15 14  1  0
 16 15  2  0
 17 14  1  0
 18 14  2  0
 19 14  2  0
 20 15  1  0
 21 20  2  0
 22 16  1  0
 23 21  1  0
 24 20  1  0
 25 22  1  0
 22 23  2  0
  4 26  1  0
  9 27  1  0
 11 28  1  0
 12 29  1  0
 13 30  1  0
 16 31  1  0
 21 32  1  0
 23 33  1  0
 24 34  1  0
 25 35  1  0
M  CHG  3   1   2   5  -1  17  -1
M  END
> <Uni-Dock RESULT> 
ENERGY=   -6.541  LOWER_BOUND=    0.000  UPPER_BOUND=    0.000
INTER + INTRA:          -6.541
INTER:                  -6.541
INTRA:                   0.000
UNBOUND:                 0.000

$$$$

     RDKit          3D

 35 34  0  0  0  0  0  0  0  0999 V2000
   44.6405    4.2294   10.6408 Ca  0  0  0  0  0 15  0  0  0  0  0  0
   43.8461    5.2464   12.6834 S   0  0  0  0  0  0  0  0  0  0  0  0
   44.3851    4.5493   11.1128 C   0  0  0  0  0  0  0  0  0  0  0  0
   44.0378    3.2173   10.8535 C   0  0  0  0  0  0  0  0  0  0  0  0
   44.4991    4.3728   13.6520 O   0  0  0  0  0  0  0  0  0  0  0  0
   42.3950    5.1272   12.5951 O   0  0  0  0  0  0  0  0  0  0  0  0
   44.3692    6.6126   12.6173 O   0  0  0  0  0  0  0  0  0  0  0  0
   45.1180    5.2891   10.1819 C   0  0  0  0  0  0  0  0  0  0  0  0
   45.5062    4.6914    8.9827 C   0  0  0  0  0  0  0  0  0  0  0  0
   44.4325    2.6378    9.6541 C   0  0  0  0  0  0  0  0  0  0  0  0
   45.1630    3.3629    8.7175 C   0  0  0  0  0  0  0  0  0  0  0  0
   45.4968    6.5920   10.3582 O   0  0  0  0  0  0  0  0  0  0  0  0
   44.1158    1.3430    9.3601 O   0  0  0  0  0  0  0  0  0  0  0  0
   44.9489    2.9655    8.5708 S   0  0  0  0  0  0  0  0  0  0  0  0
   44.6930    3.8414   10.1235 C   0  0  0  0  0  0  0  0  0  0  0  0
   45.1237    5.1728   10.1832 C   0  0  0  0  0  0  0  0  0  0  0  0
   44.1802    3.7714    7.6287 O   0  0  0  0  0  0  0  0  0  0  0  0
   44.3957    1.6411    8.8616 O   0  0  0  0  0  0  0  0  0  0  0  0
   46.3986    3.0184    8.4191 O   0  0  0  0  0  0  0  0  0  0  0  0
   44.0933    3.2358   11.2302 C   0  0  0  0  0  0  0  0  0  0  0  0
   43.9233    3.9682   12.4052 C   0  0  0  0  0  0  0  0  0  0  0  0
   44.9467    5.8876   11.3614 C   0  0  0  0  0  0  0  0  0  0  0  0
   44.3507    5.2971   12.4717 C   0  0  0  0  0  0  0  0  0  0  0  0
   43.6459    1.9429   11.2538 O   0  0  0  0  0  0  0  0  0  0  0  0
   45.3514    7.1872   11.4638 O   0  0  0  0  0  0  0  0  0  0  0  0
   43.4673    2.6723   11.6000 H   0  0  0  0  0  0  0  0  0  0  0  0
   46.0759    5.2641    8.2573 H   0  0  0  0  0  0  0  0  0  0  0  0
   45.4649    2.8977    7.7847 H   0  0  0  0  0  0  0  0  0  0  0  0
   45.1513    6.8738   11.2469 H   0  0  0  0  0  0  0  0  0  0  0  0
   43.6114    0.9932   10.1146 H   0  0  0  0  0  0  0  0  0  0  0  0
   45.5859    5.6114    9.3036 H   0  0  0  0  0  0  0  0  0  0  0  0
   43.4574    3.5001   13.2668 H   0  0  0  0  0  0  0  0  0  0  0  0
   44.2185    5.8671   13.3856 H   0  0  0  0  0  0  0  0  0  0  0  0
   43.8345    1.5574   10.3570 H   0  0  0  0  0  0  0  0  0  0  0  0
   45.7404    7.4344   10.6073 H   0  0  0  0  0  0  0  0  0  0  0  0
  3  2  1  0
  4  3  2  0
  5  2  1  0
  6  2  2  0
  7  2  2  0
  8  3  1  0
  9  8  2  0
 10  4  1  0
 11  9  1  0
 12  8  1  0
 13 10  1  0
 10 11  2  0
 15 14  1  0
 16 15  2  0
 17 14  1  0
 18 14  2  0
 19 14  2  0
 20 15  1  0
 21 20  2  0
 22 16  1  0
 23 21  1  0
 24 20  1  0
 25 22  1  0
 22 23  2  0
  4 26  1  0
  9 27  1  0
 11 28  1  0
 12 29  1  0
 13 30  1  0
 16 31  1  0
 21 32  1  0
 23 33  1  0
 24 34  1  0
 25 35  1  0
M  CHG  3   1   2   5  -1  17  -1
M  END
> <Uni-Dock RESULT> 
ENERGY=   -6.269  LOWER_BOUND=    2.376  UPPER_BOUND=    5.535
INTER + INTRA:          -6.269
INTER:                  -6.269
INTRA:                   0.000
UNBOUND:                 0.000

$$$$

     RDKit          3D

 35 34  0  0  0  0  0  0  0  0999 V2000
   44.5865    3.9424   10.4975 Ca  0  0  0  0  0 15  0  0  0  0  0  0
   44.2286    4.6740   12.7722 S   0  0  0  0  0  0  0  0  0  0  0  0
   44.5485    4.0588   11.1102 C   0  0  0  0  0  0  0  0  0  0  0  0
   45.2574    4.9008   10.2438 C   0  0  0  0  0  0  0  0  0  0  0  0
   43.4482    5.8788   12.5132 O   0  0  0  0  0  0  0  0  0  0  0  0
   45.5757    4.8868   13.2899 O   0  0  0  0  0  0  0  0  0  0  0  0
   43.4897    3.5660   13.3811 O   0  0  0  0  0  0  0  0  0  0  0  0
   44.1165    2.8000   10.6859 C   0  0  0  0  0  0  0  0  0  0  0  0
   44.3960    2.3809    9.3850 C   0  0  0  0  0  0  0  0  0  0  0  0
   45.5271    4.4675    8.9516 C   0  0  0  0  0  0  0  0  0  0  0  0
   45.1028    3.2160    8.5154 C   0  0  0  0  0  0  0  0  0  0  0  0
   43.4202    1.9194   11.4681 O   0  0  0  0  0  0  0  0  0  0  0  0
   46.2147    5.2552    8.0742 O   0  0  0  0  0  0  0  0  0  0  0  0
   45.4405    3.4347    8.2636 S   0  0  0  0  0  0  0  0  0  0  0  0
   44.8376    3.8714    9.9035 C   0  0  0  0  0  0  0  0  0  0  0  0
   44.1367    2.8849   10.6089 C   0  0  0  0  0  0  0  0  0  0  0  0
   46.3276    2.3119    8.5470 O   0  0  0  0  0  0  0  0  0  0  0  0
   46.1048    4.6671    7.8340 O   0  0  0  0  0  0  0  0  0  0  0  0
   44.2075    3.1092    7.5554 O   0  0  0  0  0  0  0  0  0  0  0  0
   45.0501    5.1333   10.4636 C   0  0  0  0  0  0  0  0  0  0  0  0
   44.5576    5.4099   11.7390 C   0  0  0  0  0  0  0  0  0  0  0  0
   43.6530    3.1775   11.8781 C   0  0  0  0  0  0  0  0  0  0  0  0
   43.8574    4.4303   12.4485 C   0  0  0  0  0  0  0  0  0  0  0  0
   45.7231    6.1496    9.8420 O   0  0  0  0  0  0  0  0  0  0  0  0
   42.9648    2.2464   12.6009 O   0  0  0  0  0  0  0  0  0  0  0  0
   45.5779    5.8727   10.6075 H   0  0  0  0  0  0  0  0  0  0  0  0
   44.0614    1.4030    9.0525 H   0  0  0  0  0  0  0  0  0  0  0  0
   45.3203    2.8902    7.5034 H   0  0  0  0  0  0  0  0  0  0  0  0
   43.3001    2.3549   12.3538 H   0  0  0  0  0  0  0  0  0  0  0  0
   46.4302    6.0817    8.5395 H   0  0  0  0  0  0  0  0  0  0  0  0
   43.9901    1.9151   10.1426 H   0  0  0  0  0  0  0  0  0  0  0  0
   44.7213    6.3898   12.1768 H   0  0  0  0  0  0  0  0  0  0  0  0
   43.4741    4.6453   13.4407 H   0  0  0  0  0  0  0  0  0  0  0  0
   46.0085    5.8044    8.9544 H   0  0  0  0  0  0  0  0  0  0  0  0
   42.9159    1.4410   12.0579 H   0  0  0  0  0  0  0  0  0  0  0  0
  3  2  1  0
  4  3  2  0
  5  2  1  0
  6  2  2  0
  7  2  2  0
  8  3  1  0
  9  8  2  0
 10  4  1  0
 11  9  1  0
 12  8  1  0
 13 10  1  0
 10 11  2  0
 15 14  1  0
 16 15  2  0
 17 14  1  0
 18 14  2  0
 19 14  2  0
 20 15  1  0
 21 20  2  0
 22 16  1  0
 23 21  1  0
 24 20  1  0
 25 22  1  0
 22 23  2  0
  4 26  1  0
  9 27  1  0
 11 28  1  0
 12 29  1  0
 13 30  1  0
 16 31  1  0
 21 32  1  0
 23 33  1  0
 24 34  1  0
 25 35  1  0
M  CHG  3   1   2   5  -1  17  -1
M  END
> <Uni-Dock RESULT> 
ENERGY=   -6.125  LOWER_BOUND=    2.212  UPPER_BOUND=    4.848
INTER + INTRA:          -6.125
INTER:                  -6.125
INTRA:                   0.000
UNBOUND:                 0.000

$$$$

     RDKit          3D

 35 34  0  0  0  0  0  0  0  0999 V2000
   45.2580    5.9458   12.7325 Ca  0  0  0  0  0 15  0  0  0  0  0  0
   47.4519    6.9351   12.9464 S   0  0  0  0  0  0  0  0  0  0  0  0
   45.8547    6.1308   12.7331 C   0  0  0  0  0  0  0  0  0  0  0  0
   44.8605    6.8547   12.0627 C   0  0  0  0  0  0  0  0  0  0  0  0
   47.1023    8.1203   13.7217 O   0  0  0  0  0  0  0  0  0  0  0  0
   47.8660    7.1750   11.5684 O   0  0  0  0  0  0  0  0  0  0  0  0
   48.2225    5.9188   13.6658 O   0  0  0  0  0  0  0  0  0  0  0  0
   45.6003    4.8422   13.2085 C   0  0  0  0  0  0  0  0  0  0  0  0
   44.3416    4.2741   13.0116 C   0  0  0  0  0  0  0  0  0  0  0  0
   43.6125    6.2736   11.8753 C   0  0  0  0  0  0  0  0  0  0  0  0
   43.3450    4.9907   12.3436 C   0  0  0  0  0  0  0  0  0  0  0  0
   46.5148    4.0703   13.8718 O   0  0  0  0  0  0  0  0  0  0  0  0
   42.6146    6.9428   11.2275 O   0  0  0  0  0  0  0  0  0  0  0  0
   43.0516    5.1724   12.0177 S   0  0  0  0  0  0  0  0  0  0  0  0
   44.6628    5.8032   12.5175 C   0  0  0  0  0  0  0  0  0  0  0  0
   45.5133    4.9176   13.1915 C   0  0  0  0  0  0  0  0  0  0  0  0
   43.4100    4.0692   11.1332 O   0  0  0  0  0  0  0  0  0  0  0  0
   42.4490    6.3340   11.3603 O   0  0  0  0  0  0  0  0  0  0  0  0
   42.4548    4.7968   13.2946 O   0  0  0  0  0  0  0  0  0  0  0  0
   45.0638    7.1148   12.2532 C   0  0  0  0  0  0  0  0  0  0  0  0
   46.3253    7.5433   12.6666 C   0  0  0  0  0  0  0  0  0  0  0  0
   46.7663    5.3610   13.5961 C   0  0  0  0  0  0  0  0  0  0  0  0
   47.1791    6.6650   13.3395 C   0  0  0  0  0  0  0  0  0  0  0  0
   44.2946    8.0401   11.6018 O   0  0  0  0  0  0  0  0  0  0  0  0
   47.6271    4.5320   14.2556 O   0  0  0  0  0  0  0  0  0  0  0  0
   45.0935    7.8540   11.7066 H   0  0  0  0  0  0  0  0  0  0  0  0
   44.1411    3.2727   13.3801 H   0  0  0  0  0  0  0  0  0  0  0  0
   42.3657    4.5490   12.1902 H   0  0  0  0  0  0  0  0  0  0  0  0
   47.3509    4.6048   13.9335 H   0  0  0  0  0  0  0  0  0  0  0  0
   42.9707    7.8112   10.9725 H   0  0  0  0  0  0  0  0  0  0  0  0
   45.1686    3.9050   13.3800 H   0  0  0  0  0  0  0  0  0  0  0  0
   46.6397    8.5622   12.4625 H   0  0  0  0  0  0  0  0  0  0  0  0
   48.1605    6.9981   13.6612 H   0  0  0  0  0  0  0  0  0  0  0  0
   43.4372    7.5915   11.3738 H   0  0  0  0  0  0  0  0  0  0  0  0
   47.1821    3.6721   14.3484 H   0  0  0  0  0  0  0  0  0  0  0  0
  3  2  1  0
  4  3  2  0
  5  2  1  0
  6  2  2  0
  7  2  2  0
  8  3  1  0
  9  8  2  0
 10  4  1  0
 11  9  1  0
 12  8  1  0
 13 10  1  0
 10 11  2  0
 15 14  1  0
 16 15  2  0
 17 14  1  0
 18 14  2  0
 19 14  2  0
 20 15  1  0
 21 20  2  0
 22 16  1  0
 23 21  1  0
 24 20  1  0
 25 22  1  0
 22 23  2  0
  4 26  1  0
  9 27  1  0
 11 28  1  0
 12 29  1  0
 13 30  1  0
 16 31  1  0
 21 32  1  0
 23 33  1  0
 24 34  1  0
 25 35  1  0
M  CHG  3   1   2   5  -1  17  -1
M  END
> <Uni-Dock RESULT> 
ENERGY=   -6.110  LOWER_BOUND=    5.475  UPPER_BOUND=    6.184
INTER + INTRA:          -6.110
INTER:                  -6.110
INTRA:                   0.000
UNBOUND:                 0.000

$$$$

     RDKit          3D

 35 34  0  0  0  0  0  0  0  0999 V2000
   44.6381    4.0924   10.5318 Ca  0  0  0  0  0 15  0  0  0  0  0  0
   45.2395    2.8302    8.5613 S   0  0  0  0  0  0  0  0  0  0  0  0
   44.8828    3.7778   10.0507 C   0  0  0  0  0  0  0  0  0  0  0  0
   44.1551    3.1321   11.0584 C   0  0  0  0  0  0  0  0  0  0  0  0
   43.9043    2.5073    8.0707 O   0  0  0  0  0  0  0  0  0  0  0  0
   46.0143    1.7099    9.0835 O   0  0  0  0  0  0  0  0  0  0  0  0
   45.9915    3.7899    7.7503 O   0  0  0  0  0  0  0  0  0  0  0  0
   45.3050    5.0995   10.2115 C   0  0  0  0  0  0  0  0  0  0  0  0
   44.9966    5.7800   11.3896 C   0  0  0  0  0  0  0  0  0  0  0  0
   43.8567    3.8247   12.2253 C   0  0  0  0  0  0  0  0  0  0  0  0
   44.2710    5.1419   12.3991 C   0  0  0  0  0  0  0  0  0  0  0  0
   46.0180    5.8005    9.2775 O   0  0  0  0  0  0  0  0  0  0  0  0
   43.1501    3.2345   13.2330 O   0  0  0  0  0  0  0  0  0  0  0  0
   44.1390    4.8992   12.7851 S   0  0  0  0  0  0  0  0  0  0  0  0
   44.4729    4.2474   11.1397 C   0  0  0  0  0  0  0  0  0  0  0  0
   45.2134    5.0588   10.2706 C   0  0  0  0  0  0  0  0  0  0  0  0
   45.4816    5.0934   13.3213 O   0  0  0  0  0  0  0  0  0  0  0  0
   43.3670    3.8179   13.4012 O   0  0  0  0  0  0  0  0  0  0  0  0
   43.3885    6.1150   12.4917 O   0  0  0  0  0  0  0  0  0  0  0  0
   44.0214    2.9905   10.7307 C   0  0  0  0  0  0  0  0  0  0  0  0
   44.3132    2.5422    9.4424 C   0  0  0  0  0  0  0  0  0  0  0  0
   45.4949    4.5967    8.9909 C   0  0  0  0  0  0  0  0  0  0  0  0
   45.0515    3.3465    8.5700 C   0  0  0  0  0  0  0  0  0  0  0  0
   43.2942    2.1388   11.5168 O   0  0  0  0  0  0  0  0  0  0  0  0
   46.2131    5.3540    8.1113 O   0  0  0  0  0  0  0  0  0  0  0  0
   43.8430    2.1040   10.8993 H   0  0  0  0  0  0  0  0  0  0  0  0
   45.3236    6.8074   11.5173 H   0  0  0  0  0  0  0  0  0  0  0  0
   44.0309    5.6710   13.3157 H   0  0  0  0  0  0  0  0  0  0  0  0
   46.1580    5.1899    8.5055 H   0  0  0  0  0  0  0  0  0  0  0  0
   42.9452    2.3280   12.9463 H   0  0  0  0  0  0  0  0  0  0  0  0
   45.5482    6.0303   10.6222 H   0  0  0  0  0  0  0  0  0  0  0  0
   43.9636    1.5656    9.1219 H   0  0  0  0  0  0  0  0  0  0  0  0
   45.2786    2.9979    7.5677 H   0  0  0  0  0  0  0  0  0  0  0  0
   43.1688    2.5927   12.3924 H   0  0  0  0  0  0  0  0  0  0  0  0
   46.4383    6.1841    8.5653 H   0  0  0  0  0  0  0  0  0  0  0  0
  3  2  1  0
  4  3  2  0
  5  2  1  0
  6  2  2  0
  7  2  2  0
  8  3  1  0
  9  8  2  0
 10  4  1  0
 11  9  1  0
 12  8  1  0
 13 10  1  0
 10 11  2  0
 15 14  1  0
 16 15  2  0
 17 14  1  0
 18 14  2  0
 19 14  2  0
 20 15  1  0
 21 20  2  0
 22 16  1  0
 23 21  1  0
 24 20  1  0
 25 22  1  0
 22 23  2  0
  4 26  1  0
  9 27  1  0
 11 28  1  0
 12 29  1  0
 13 30  1  0
 16 31  1  0
 21 32  1  0
 23 33  1  0
 24 34  1  0
 25 35  1  0
M  CHG  3   1   2   5  -1  17  -1
M  END
> <Uni-Dock RESULT> 
ENERGY=   -5.908  LOWER_BOUND=    2.223  UPPER_BOUND=    4.238
INTER + INTRA:          -5.908
INTER:                  -5.908
INTRA:                   0.000
UNBOUND:                 0.000

$$$$

     RDKit          3D

 35 34  0  0  0  0  0  0  0  0999 V2000
   45.1667    5.8485   12.6727 Ca  0  0  0  0  0 15  0  0  0  0  0  0
   43.5002    4.1606   12.2130 S   0  0  0  0  0  0  0  0  0  0  0  0
   44.7549    5.4281   12.4629 C   0  0  0  0  0  0  0  0  0  0  0  0
   45.9281    5.0427   13.1240 C   0  0  0  0  0  0  0  0  0  0  0  0
   43.1835    3.7624   13.5801 O   0  0  0  0  0  0  0  0  0  0  0  0
   44.2121    3.1721   11.4105 O   0  0  0  0  0  0  0  0  0  0  0  0
   42.4451    4.8959   11.5127 O   0  0  0  0  0  0  0  0  0  0  0  0
   44.5831    6.7429   12.0238 C   0  0  0  0  0  0  0  0  0  0  0  0
   45.5930    7.6789   12.2479 C   0  0  0  0  0  0  0  0  0  0  0  0
   46.9236    5.9877   13.3389 C   0  0  0  0  0  0  0  0  0  0  0  0
   46.7661    7.3011   12.9069 C   0  0  0  0  0  0  0  0  0  0  0  0
   43.4700    7.1992   11.3720 O   0  0  0  0  0  0  0  0  0  0  0  0
   48.0828    5.6558   13.9787 O   0  0  0  0  0  0  0  0  0  0  0  0
   47.2049    7.1550   13.0137 S   0  0  0  0  0  0  0  0  0  0  0  0
   45.7328    6.1407   12.7955 C   0  0  0  0  0  0  0  0  0  0  0  0
   44.6558    6.7185   12.1114 C   0  0  0  0  0  0  0  0  0  0  0  0
   47.5946    7.4380   11.6368 O   0  0  0  0  0  0  0  0  0  0  0  0
   48.0995    6.2576   13.7478 O   0  0  0  0  0  0  0  0  0  0  0  0
   46.6919    8.2879   13.7759 O   0  0  0  0  0  0  0  0  0  0  0  0
   45.6506    4.8333   13.2803 C   0  0  0  0  0  0  0  0  0  0  0  0
   44.4818    4.0988   13.0790 C   0  0  0  0  0  0  0  0  0  0  0  0
   43.4992    5.9728   11.9198 C   0  0  0  0  0  0  0  0  0  0  0  0
   43.4034    4.6691   12.3972 C   0  0  0  0  0  0  0  0  0  0  0  0
   46.6552    4.1970   13.9571 O   0  0  0  0  0  0  0  0  0  0  0  0
   42.4258    6.4961   11.2589 O   0  0  0  0  0  0  0  0  0  0  0  0
   46.0275    4.0119   13.4516 H   0  0  0  0  0  0  0  0  0  0  0  0
   45.4622    8.7015   11.9077 H   0  0  0  0  0  0  0  0  0  0  0  0
   47.5518    8.0290   13.0814 H   0  0  0  0  0  0  0  0  0  0  0  0
   42.8496    6.4269   11.2879 H   0  0  0  0  0  0  0  0  0  0  0  0
   48.0237    4.7123   14.2074 H   0  0  0  0  0  0  0  0  0  0  0  0
   44.7547    7.7374   11.7483 H   0  0  0  0  0  0  0  0  0  0  0  0
   44.4152    3.0824   13.4546 H   0  0  0  0  0  0  0  0  0  0  0  0
   42.4941    4.0980   12.2405 H   0  0  0  0  0  0  0  0  0  0  0  0
   47.4109    4.8400   14.0204 H   0  0  0  0  0  0  0  0  0  0  0  0
   42.6635    7.4027   10.9989 H   0  0  0  0  0  0  0  0  0  0  0  0
  3  2  1  0
  4  3  2  0
  5  2  1  0
  6  2  2  0
  7  2  2  0
  8  3  1  0
  9  8  2  0
 10  4  1  0
 11  9  1  0
 12  8  1  0
 13 10  1  0
 10 11  2  0
 15 14  1  0
 16 15  2  0
 17 14  1  0
 18 14  2  0
 19 14  2  0
 20 15  1  0
 21 20  2  0
 22 16  1  0
 23 21  1  0
 24 20  1  0
 25 22  1  0
 22 23  2  0
  4 26  1  0
  9 27  1  0
 11 28  1  0
 12 29  1  0
 13 30  1  0
 16 31  1  0
 21 32  1  0
 23 33  1  0
 24 34  1  0
 25 35  1  0
M  CHG  3   1   2   5  -1  17  -1
M  END
> <Uni-Dock RESULT> 
ENERGY=   -5.853  LOWER_BOUND=    5.276  UPPER_BOUND=    6.613
INTER + INTRA:          -5.853
INTER:                  -5.853
INTRA:                   0.000
UNBOUND:                 0.000

$$$$

     RDKit          3D

 35 34  0  0  0  0  0  0  0  0999 V2000
   45.4900    5.6380   12.8068 Ca  0  0  0  0  0 15  0  0  0  0  0  0
   47.5441    6.4844   13.7563 S   0  0  0  0  0  0  0  0  0  0  0  0
   45.9662    5.8960   13.1182 C   0  0  0  0  0  0  0  0  0  0  0  0
   45.7606    4.5105   13.1042 C   0  0  0  0  0  0  0  0  0  0  0  0
   48.4997    5.8568   12.8503 O   0  0  0  0  0  0  0  0  0  0  0  0
   47.5354    5.9769   15.1239 O   0  0  0  0  0  0  0  0  0  0  0  0
   47.4148    7.9371   13.6247 O   0  0  0  0  0  0  0  0  0  0  0  0
   44.9789    6.7679   12.6534 C   0  0  0  0  0  0  0  0  0  0  0  0
   43.7770    6.2495   12.1710 C   0  0  0  0  0  0  0  0  0  0  0  0
   44.5577    4.0112   12.6203 C   0  0  0  0  0  0  0  0  0  0  0  0
   43.5653    4.8682   12.1541 C   0  0  0  0  0  0  0  0  0  0  0  0
   45.1008    8.1306   12.6330 O   0  0  0  0  0  0  0  0  0  0  0  0
   44.3149    2.6684   12.5884 O   0  0  0  0  0  0  0  0  0  0  0  0
   43.4405    4.4225   12.2593 S   0  0  0  0  0  0  0  0  0  0  0  0
   44.9810    5.2581   12.6741 C   0  0  0  0  0  0  0  0  0  0  0  0
   44.9829    6.6576   12.6165 C   0  0  0  0  0  0  0  0  0  0  0  0
   42.5193    4.9548   13.2573 O   0  0  0  0  0  0  0  0  0  0  0  0
   43.7947    3.0108   12.4214 O   0  0  0  0  0  0  0  0  0  0  0  0
   43.2114    4.8562   10.8857 O   0  0  0  0  0  0  0  0  0  0  0  0
   46.1332    4.5580   13.0394 C   0  0  0  0  0  0  0  0  0  0  0  0
   47.2959    5.2637   13.3493 C   0  0  0  0  0  0  0  0  0  0  0  0
   46.1497    7.3446   12.9283 C   0  0  0  0  0  0  0  0  0  0  0  0
   47.3049    6.6602   13.2939 C   0  0  0  0  0  0  0  0  0  0  0  0
   46.2143    3.1945   13.1197 O   0  0  0  0  0  0  0  0  0  0  0  0
   46.1965    8.7081   12.8853 O   0  0  0  0  0  0  0  0  0  0  0  0
   46.5501    3.8623   13.4733 H   0  0  0  0  0  0  0  0  0  0  0  0
   43.0079    6.9249   11.8091 H   0  0  0  0  0  0  0  0  0  0  0  0
   42.6304    4.4646   11.7789 H   0  0  0  0  0  0  0  0  0  0  0  0
   45.9987    8.3442   13.0026 H   0  0  0  0  0  0  0  0  0  0  0  0
   45.1037    2.2261   12.9463 H   0  0  0  0  0  0  0  0  0  0  0  0
   44.0691    7.1691   12.3286 H   0  0  0  0  0  0  0  0  0  0  0  0
   48.1928    4.7222   13.6336 H   0  0  0  0  0  0  0  0  0  0  0  0
   48.2092    7.2094   13.5350 H   0  0  0  0  0  0  0  0  0  0  0  0
   45.3192    2.8386   12.8734 H   0  0  0  0  0  0  0  0  0  0  0  0
   45.3145    9.0166   12.6151 H   0  0  0  0  0  0  0  0  0  0  0  0
  3  2  1  0
  4  3  2  0
  5  2  1  0
  6  2  2  0
  7  2  2  0
  8  3  1  0
  9  8  2  0
 10  4  1  0
 11  9  1  0
 12  8  1  0
 13 10  1  0
 10 11  2  0
 15 14  1  0
 16 15  2  0
 17 14  1  0
 18 14  2  0
 19 14  2  0
 20 15  1  0
 21 20  2  0
 22 16  1  0
 23 21  1  0
 24 20  1  0
 25 22  1  0
 22 23  2  0
  4 26  1  0
  9 27  1  0
 11 28  1  0
 12 29  1  0
 13 30  1  0
 16 31  1  0
 21 32  1  0
 23 33  1  0
 24 34  1  0
 25 35  1  0
M  CHG  3   1   2   5  -1  17  -1
M  END
> <Uni-Dock RESULT> 
ENERGY=   -5.746  LOWER_BOUND=    5.275  UPPER_BOUND=    6.715
INTER + INTRA:          -5.746
INTER:                  -5.746
INTRA:                   0.000
UNBOUND:                 0.000

$$$$

     RDKit          3D

 35 34  0  0  0  0  0  0  0  0999 V2000
   45.4447    5.4667   12.7174 Ca  0  0  0  0  0 15  0  0  0  0  0  0
   43.2054    4.8620   12.0408 S   0  0  0  0  0  0  0  0  0  0  0  0
   44.8576    5.2723   12.6283 C   0  0  0  0  0  0  0  0  0  0  0  0
   45.1722    6.6319   12.7491 C   0  0  0  0  0  0  0  0  0  0  0  0
   43.1785    5.4897   10.7243 O   0  0  0  0  0  0  0  0  0  0  0  0
   42.3538    5.4733   13.0552 O   0  0  0  0  0  0  0  0  0  0  0  0
   43.2269    3.3978   12.0381 O   0  0  0  0  0  0  0  0  0  0  0  0
   45.7973    4.2914   12.9538 C   0  0  0  0  0  0  0  0  0  0  0  0
   47.0611    4.6740   13.4036 C   0  0  0  0  0  0  0  0  0  0  0  0
   46.4357    6.9952   13.1987 C   0  0  0  0  0  0  0  0  0  0  0  0
   47.3817    6.0287   13.5266 C   0  0  0  0  0  0  0  0  0  0  0  0
   45.5697    2.9452   12.8638 O   0  0  0  0  0  0  0  0  0  0  0  0
   46.7849    8.3080   13.3315 O   0  0  0  0  0  0  0  0  0  0  0  0
   47.4527    6.4701   13.6860 S   0  0  0  0  0  0  0  0  0  0  0  0
   45.9498    5.7936   12.9599 C   0  0  0  0  0  0  0  0  0  0  0  0
   45.8313    4.3984   12.9233 C   0  0  0  0  0  0  0  0  0  0  0  0
   47.4034    5.9471   15.0469 O   0  0  0  0  0  0  0  0  0  0  0  0
   47.2410    7.9137   13.5600 O   0  0  0  0  0  0  0  0  0  0  0  0
   48.4914    5.9128   12.8269 O   0  0  0  0  0  0  0  0  0  0  0  0
   44.9364    6.6089   12.4506 C   0  0  0  0  0  0  0  0  0  0  0  0
   43.7958    6.0235   11.9006 C   0  0  0  0  0  0  0  0  0  0  0  0
   44.6886    3.8321   12.3719 C   0  0  0  0  0  0  0  0  0  0  0  0
   43.6709    4.6321   11.8609 C   0  0  0  0  0  0  0  0  0  0  0  0
   44.9747    7.9766   12.4484 O   0  0  0  0  0  0  0  0  0  0  0  0
   44.5313    2.4775   12.3157 O   0  0  0  0  0  0  0  0  0  0  0  0
   44.4171    7.3672   12.4872 H   0  0  0  0  0  0  0  0  0  0  0  0
   47.7934    3.9137   13.6574 H   0  0  0  0  0  0  0  0  0  0  0  0
   48.3648    6.3266   13.8765 H   0  0  0  0  0  0  0  0  0  0  0  0
   44.6387    2.8328   12.5337 H   0  0  0  0  0  0  0  0  0  0  0  0
   46.0148    8.8378   13.0628 H   0  0  0  0  0  0  0  0  0  0  0  0
   46.6388    3.7955   13.3283 H   0  0  0  0  0  0  0  0  0  0  0  0
   43.0066    6.6547   11.5041 H   0  0  0  0  0  0  0  0  0  0  0  0
   42.7838    4.1765   11.4331 H   0  0  0  0  0  0  0  0  0  0  0  0
   45.8370    8.2404   12.8670 H   0  0  0  0  0  0  0  0  0  0  0  0
   45.3260    2.0801   12.7113 H   0  0  0  0  0  0  0  0  0  0  0  0
  3  2  1  0
  4  3  2  0
  5  2  1  0
  6  2  2  0
  7  2  2  0
  8  3  1  0
  9  8  2  0
 10  4  1  0
 11  9  1  0
 12  8  1  0
 13 10  1  0
 10 11  2  0
 15 14  1  0
 16 15  2  0
 17 14  1  0
 18 14  2  0
 19 14  2  0
 20 15  1  0
 21 20  2  0
 22 16  1  0
 23 21  1  0
 24 20  1  0
 25 22  1  0
 22 23  2  0
  4 26  1  0
  9 27  1  0
 11 28  1  0
 12 29  1  0
 13 30  1  0
 16 31  1  0
 21 32  1  0
 23 33  1  0
 24 34  1  0
 25 35  1  0
M  CHG  3   1   2   5  -1  17  -1
M  END
> <Uni-Dock RESULT> 
ENERGY=   -5.555  LOWER_BOUND=    5.081  UPPER_BOUND=    6.184
INTER + INTRA:          -5.555
INTER:                  -5.555
INTRA:                   0.000
UNBOUND:                 0.000

$$$$

     RDKit          3D

 35 34  0  0  0  0  0  0  0  0999 V2000
   49.6570    3.5922   17.8176 Ca  0  0  0  0  0 15  0  0  0  0  0  0
   52.0044    3.9523   18.2623 S   0  0  0  0  0  0  0  0  0  0  0  0
   50.2744    3.6858   17.8389 C   0  0  0  0  0  0  0  0  0  0  0  0
   49.3655    4.6845   18.2111 C   0  0  0  0  0  0  0  0  0  0  0  0
   51.9568    4.0536   19.7167 O   0  0  0  0  0  0  0  0  0  0  0  0
   52.3131    5.1860   17.5478 O   0  0  0  0  0  0  0  0  0  0  0  0
   52.6464    2.7453   17.7375 O   0  0  0  0  0  0  0  0  0  0  0  0
   49.8395    2.5397   17.1691 C   0  0  0  0  0  0  0  0  0  0  0  0
   48.4850    2.3922   16.8697 C   0  0  0  0  0  0  0  0  0  0  0  0
   48.0202    4.5213   17.9050 C   0  0  0  0  0  0  0  0  0  0  0  0
   47.5728    3.3847   17.2381 C   0  0  0  0  0  0  0  0  0  0  0  0
   50.6609    1.5202   16.7718 O   0  0  0  0  0  0  0  0  0  0  0  0
   47.1001    5.4691   18.2486 O   0  0  0  0  0  0  0  0  0  0  0  0
   47.2858    3.7626   17.2472 S   0  0  0  0  0  0  0  0  0  0  0  0
   49.0271    3.6956   17.7020 C   0  0  0  0  0  0  0  0  0  0  0  0
   49.7663    2.6011   17.2357 C   0  0  0  0  0  0  0  0  0  0  0  0
   47.3459    3.7975   15.7901 O   0  0  0  0  0  0  0  0  0  0  0  0
   46.8408    5.0024   17.8872 O   0  0  0  0  0  0  0  0  0  0  0  0
   46.7635    2.5335   17.8337 O   0  0  0  0  0  0  0  0  0  0  0  0
   49.6310    4.6824   18.4846 C   0  0  0  0  0  0  0  0  0  0  0  0
   50.9848    4.5731   18.8028 C   0  0  0  0  0  0  0  0  0  0  0  0
   51.1136    2.5078   17.5621 C   0  0  0  0  0  0  0  0  0  0  0  0
   51.7284    3.4837   18.3409 C   0  0  0  0  0  0  0  0  0  0  0  0
   48.9808    5.7804   18.9784 O   0  0  0  0  0  0  0  0  0  0  0  0
   51.8717    1.4586   17.1292 O   0  0  0  0  0  0  0  0  0  0  0  0
   49.7389    5.5621   18.7306 H   0  0  0  0  0  0  0  0  0  0  0  0
   48.1443    1.5024   16.3491 H   0  0  0  0  0  0  0  0  0  0  0  0
   46.5191    3.2702   17.0052 H   0  0  0  0  0  0  0  0  0  0  0  0
   51.5821    1.7676   17.0522 H   0  0  0  0  0  0  0  0  0  0  0  0
   47.5804    6.1839   18.7007 H   0  0  0  0  0  0  0  0  0  0  0  0
   49.2642    1.8526   16.6297 H   0  0  0  0  0  0  0  0  0  0  0  0
   51.4568    5.3387   19.4109 H   0  0  0  0  0  0  0  0  0  0  0  0
   52.7816    3.3984   18.5883 H   0  0  0  0  0  0  0  0  0  0  0  0
   48.0375    5.7180   18.6709 H   0  0  0  0  0  0  0  0  0  0  0  0
   51.2896    0.8812   16.6061 H   0  0  0  0  0  0  0  0  0  0  0  0
  3  2  1  0
  4  3  2  0
  5  2  1  0
  6  2  2  0
  7  2  2  0
  8  3  1  0
  9  8  2  0
 10  4  1  0
 11  9  1  0
 12  8  1  0
 13 10  1  0
 10 11  2  0
 15 14  1  0
 16 15  2  0
 17 14  1  0
 18 14  2  0
 19 14  2  0
 20 15  1  0
 21 20  2  0
 22 16  1  0
 23 21  1  0
 24 20  1  0
 25 22  1  0
 22 23  2  0
  4 26  1  0
  9 27  1  0
 11 28  1  0
 12 29  1  0
 13 30  1  0
 16 31  1  0
 21 32  1  0
 23 33  1  0
 24 34  1  0
 25 35  1  0
M  CHG  3   1   2   5  -1  17  -1
M  END
> <Uni-Dock RESULT> 
ENERGY=   -5.457  LOWER_BOUND=    9.266  UPPER_BOUND=   10.637
INTER + INTRA:          -5.457
INTER:                  -5.457
INTRA:                   0.000
UNBOUND:                 0.000

$$$$
