
     RDKit          3D

 35 34  0  0  0  0  0  0  0  0999 V2000
   45.5440    5.5782   12.0866 Ca  0  0  0  0  0 15  0  0  0  0  0  0
   43.3859    5.1960   11.0032 S   0  0  0  0  0  0  0  0  0  0  0  0
   44.9607    5.4279   11.8455 C   0  0  0  0  0  0  0  0  0  0  0  0
   45.8120    6.4210   11.3443 C   0  0  0  0  0  0  0  0  0  0  0  0
   43.8052    4.8446    9.6510 O   0  0  0  0  0  0  0  0  0  0  0  0
   42.7564    6.5030   11.1552 O   0  0  0  0  0  0  0  0  0  0  0  0
   42.7741    4.1109   11.7730 O   0  0  0  0  0  0  0  0  0  0  0  0
   45.3338    4.6607   12.9516 C   0  0  0  0  0  0  0  0  0  0  0  0
   46.5681    4.8890   13.5604 C   0  0  0  0  0  0  0  0  0  0  0  0
   47.0376    6.6350   11.9629 C   0  0  0  0  0  0  0  0  0  0  0  0
   47.4223    5.8782   13.0655 C   0  0  0  0  0  0  0  0  0  0  0  0
   44.5620    3.6738   13.5014 O   0  0  0  0  0  0  0  0  0  0  0  0
   47.8980    7.5918   11.5078 O   0  0  0  0  0  0  0  0  0  0  0  0
   46.5300    7.6830   12.8446 S   0  0  0  0  0  0  0  0  0  0  0  0
   45.8209    6.1045   12.3458 C   0  0  0  0  0  0  0  0  0  0  0  0
   45.2459    6.0381   11.0704 C   0  0  0  0  0  0  0  0  0  0  0  0
   45.3783    8.5759   12.7795 O   0  0  0  0  0  0  0  0  0  0  0  0
   47.5585    7.8957   11.8322 O   0  0  0  0  0  0  0  0  0  0  0  0
   47.0254    7.3940   14.1919 O   0  0  0  0  0  0  0  0  0  0  0  0
   45.8345    4.9849   13.1810 C   0  0  0  0  0  0  0  0  0  0  0  0
   45.2684    3.7899   12.7362 C   0  0  0  0  0  0  0  0  0  0  0  0
   44.6866    4.8399   10.6434 C   0  0  0  0  0  0  0  0  0  0  0  0
   44.6931    3.7166   11.4648 C   0  0  0  0  0  0  0  0  0  0  0  0
   46.3750    4.9666   14.4379 O   0  0  0  0  0  0  0  0  0  0  0  0
   44.1157    4.7304    9.4084 O   0  0  0  0  0  0  0  0  0  0  0  0
   45.4893    6.9983   10.4828 H   0  0  0  0  0  0  0  0  0  0  0  0
   46.8606    4.2942   14.4202 H   0  0  0  0  0  0  0  0  0  0  0  0
   48.3824    6.0559   13.5389 H   0  0  0  0  0  0  0  0  0  0  0  0
   43.7258    3.6311   12.9655 H   0  0  0  0  0  0  0  0  0  0  0  0
   47.4742    8.0177   10.7429 H   0  0  0  0  0  0  0  0  0  0  0  0
   45.2531    6.9281   10.4481 H   0  0  0  0  0  0  0  0  0  0  0  0
   45.2777    2.9181   13.3832 H   0  0  0  0  0  0  0  0  0  0  0  0
   44.2527    2.7872   11.1185 H   0  0  0  0  0  0  0  0  0  0  0  0
   46.7338    5.8778   14.6094 H   0  0  0  0  0  0  0  0  0  0  0  0
   44.1987    5.5979    8.9766 H   0  0  0  0  0  0  0  0  0  0  0  0
  3  2  1  0
  4  3  2  0
  5  2  1  0
  6  2  2  0
  7  2  2  0
  8  3  1  0
  9  8  2  0
 10  4  1  0
 11  9  1  0
 12  8  1  0
 13 10  1  0
 10 11  2  0
 15 14  1  0
 16 15  2  0
 17 14  1  0
 18 14  2  0
 19 14  2  0
 20 15  1  0
 21 20  2  0
 22 16  1  0
 23 21  1  0
 24 20  1  0
 25 22  1  0
 22 23  2  0
  4 26  1  0
  9 27  1  0
 11 28  1  0
 12 29  1  0
 13 30  1  0
 16 31  1  0
 21 32  1  0
 23 33  1  0
 24 34  1  0
 25 35  1  0
M  CHG  3   1   2   5  -1  17  -1
M  END
> <Uni-Dock RESULT> 
ENERGY=   -5.365  LOWER_BOUND=    0.000  UPPER_BOUND=    0.000
INTER + INTRA:          -5.365
INTER:                  -5.365
INTRA:                   0.000
UNBOUND:                 0.000

$$$$

     RDKit          3D

 35 34  0  0  0  0  0  0  0  0999 V2000
   45.2864    5.3299   12.5824 Ca  0  0  0  0  0 15  0  0  0  0  0  0
   47.2705    6.7433   12.3754 S   0  0  0  0  0  0  0  0  0  0  0  0
   45.8487    5.6519   12.5509 C   0  0  0  0  0  0  0  0  0  0  0  0
   44.5980    6.1710   12.1926 C   0  0  0  0  0  0  0  0  0  0  0  0
   46.9263    7.8480   13.2636 O   0  0  0  0  0  0  0  0  0  0  0  0
   47.2564    7.0454   10.9484 O   0  0  0  0  0  0  0  0  0  0  0  0
   48.3758    5.8954   12.8269 O   0  0  0  0  0  0  0  0  0  0  0  0
   45.9687    4.3423   13.0220 C   0  0  0  0  0  0  0  0  0  0  0  0
   44.8286    3.5465   13.1353 C   0  0  0  0  0  0  0  0  0  0  0  0
   43.4730    5.3645   12.3117 C   0  0  0  0  0  0  0  0  0  0  0  0
   43.5776    4.0581   12.7795 C   0  0  0  0  0  0  0  0  0  0  0  0
   47.1508    3.7611   13.3921 O   0  0  0  0  0  0  0  0  0  0  0  0
   42.2349    5.8295   11.9741 O   0  0  0  0  0  0  0  0  0  0  0  0
   43.5371    4.8882   10.9324 S   0  0  0  0  0  0  0  0  0  0  0  0
   44.8288    5.1468   12.1605 C   0  0  0  0  0  0  0  0  0  0  0  0
   45.2466    6.4657   12.3787 C   0  0  0  0  0  0  0  0  0  0  0  0
   44.1521    5.4142    9.7187 O   0  0  0  0  0  0  0  0  0  0  0  0
   42.4310    5.6688   11.4754 O   0  0  0  0  0  0  0  0  0  0  0  0
   43.3567    3.4355   10.9663 O   0  0  0  0  0  0  0  0  0  0  0  0
   45.4004    4.0905   12.8738 C   0  0  0  0  0  0  0  0  0  0  0  0
   46.3977    4.3563   13.8124 C   0  0  0  0  0  0  0  0  0  0  0  0
   46.2410    6.7124   13.3173 C   0  0  0  0  0  0  0  0  0  0  0  0
   46.8193    5.6700   14.0351 C   0  0  0  0  0  0  0  0  0  0  0  0
   45.0494    2.7769   12.7204 O   0  0  0  0  0  0  0  0  0  0  0  0
   46.6785    7.9821   13.5618 O   0  0  0  0  0  0  0  0  0  0  0  0
   44.5422    7.1934   11.8302 H   0  0  0  0  0  0  0  0  0  0  0  0
   44.9189    2.5284   13.5011 H   0  0  0  0  0  0  0  0  0  0  0  0
   42.6906    3.4393   12.8676 H   0  0  0  0  0  0  0  0  0  0  0  0
   47.8610    4.4434   13.2568 H   0  0  0  0  0  0  0  0  0  0  0  0
   42.3462    6.7472   11.6717 H   0  0  0  0  0  0  0  0  0  0  0  0
   44.7802    7.2620   11.8062 H   0  0  0  0  0  0  0  0  0  0  0  0
   46.8437    3.5373   14.3682 H   0  0  0  0  0  0  0  0  0  0  0  0
   47.5951    5.8770   14.7652 H   0  0  0  0  0  0  0  0  0  0  0  0
   44.3376    2.7490   12.0270 H   0  0  0  0  0  0  0  0  0  0  0  0
   46.1733    8.5760   12.9806 H   0  0  0  0  0  0  0  0  0  0  0  0
  3  2  1  0
  4  3  2  0
  5  2  1  0
  6  2  2  0
  7  2  2  0
  8  3  1  0
  9  8  2  0
 10  4  1  0
 11  9  1  0
 12  8  1  0
 13 10  1  0
 10 11  2  0
 15 14  1  0
 16 15  2  0
 17 14  1  0
 18 14  2  0
 19 14  2  0
 20 15  1  0
 21 20  2  0
 22 16  1  0
 23 21  1  0
 24 20  1  0
 25 22  1  0
 22 23  2  0
  4 26  1  0
  9 27  1  0
 11 28  1  0
 12 29  1  0
 13 30  1  0
 16 31  1  0
 21 32  1  0
 23 33  1  0
 24 34  1  0
 25 35  1  0
M  CHG  3   1   2   5  -1  17  -1
M  END
> <Uni-Dock RESULT> 
ENERGY=   -5.076  LOWER_BOUND=    1.097  UPPER_BOUND=    3.916
INTER + INTRA:          -5.076
INTER:                  -5.076
INTRA:                   0.000
UNBOUND:                 0.000

$$$$

     RDKit          3D

 35 34  0  0  0  0  0  0  0  0999 V2000
   46.9959    7.5065   12.4928 Ca  0  0  0  0  0 15  0  0  0  0  0  0
   49.2348    7.7041   13.4550 S   0  0  0  0  0  0  0  0  0  0  0  0
   47.5736    7.6231   12.7642 C   0  0  0  0  0  0  0  0  0  0  0  0
   47.1829    6.4101   12.1828 C   0  0  0  0  0  0  0  0  0  0  0  0
   50.0695    7.4277   12.2912 O   0  0  0  0  0  0  0  0  0  0  0  0
   49.1987    6.6617   14.4748 O   0  0  0  0  0  0  0  0  0  0  0  0
   49.2983    9.0764   13.9619 O   0  0  0  0  0  0  0  0  0  0  0  0
   46.6992    8.7120   12.7975 C   0  0  0  0  0  0  0  0  0  0  0  0
   45.4245    8.5859   12.2448 C   0  0  0  0  0  0  0  0  0  0  0  0
   45.9098    6.3020   11.6371 C   0  0  0  0  0  0  0  0  0  0  0  0
   45.0283    7.3785   11.6632 C   0  0  0  0  0  0  0  0  0  0  0  0
   47.0029    9.9285   13.3453 O   0  0  0  0  0  0  0  0  0  0  0  0
   45.4876    5.1389   11.0607 O   0  0  0  0  0  0  0  0  0  0  0  0
   45.3147    5.7699   12.8604 S   0  0  0  0  0  0  0  0  0  0  0  0
   46.5047    7.0961   12.5983 C   0  0  0  0  0  0  0  0  0  0  0  0
   47.8301    6.7225   12.3430 C   0  0  0  0  0  0  0  0  0  0  0  0
   45.8636    5.0852   14.0256 O   0  0  0  0  0  0  0  0  0  0  0  0
   45.3829    5.0374   11.6007 O   0  0  0  0  0  0  0  0  0  0  0  0
   44.0698    6.5052   13.0925 O   0  0  0  0  0  0  0  0  0  0  0  0
   46.1399    8.4437   12.6440 C   0  0  0  0  0  0  0  0  0  0  0  0
   47.1090    9.4247   12.4326 C   0  0  0  0  0  0  0  0  0  0  0  0
   48.7825    7.7125   12.1346 C   0  0  0  0  0  0  0  0  0  0  0  0
   48.4335    9.0589   12.1772 C   0  0  0  0  0  0  0  0  0  0  0  0
   44.8699    8.8913   12.8869 O   0  0  0  0  0  0  0  0  0  0  0  0
   50.0856    7.3936   11.8827 O   0  0  0  0  0  0  0  0  0  0  0  0
   47.8887    5.5845   12.1747 H   0  0  0  0  0  0  0  0  0  0  0  0
   44.7430    9.4305   12.2693 H   0  0  0  0  0  0  0  0  0  0  0  0
   44.0369    7.2801   11.2332 H   0  0  0  0  0  0  0  0  0  0  0  0
   47.9319    9.8631   13.6928 H   0  0  0  0  0  0  0  0  0  0  0  0
   46.2200    4.5027   11.1297 H   0  0  0  0  0  0  0  0  0  0  0  0
   48.0778    5.6654   12.3147 H   0  0  0  0  0  0  0  0  0  0  0  0
   46.8284   10.4729   12.4675 H   0  0  0  0  0  0  0  0  0  0  0  0
   49.1875    9.8217   12.0127 H   0  0  0  0  0  0  0  0  0  0  0  0
   44.3014    8.0860   13.0155 H   0  0  0  0  0  0  0  0  0  0  0  0
   50.1494    6.4231   11.8892 H   0  0  0  0  0  0  0  0  0  0  0  0
  3  2  1  0
  4  3  2  0
  5  2  1  0
  6  2  2  0
  7  2  2  0
  8  3  1  0
  9  8  2  0
 10  4  1  0
 11  9  1  0
 12  8  1  0
 13 10  1  0
 10 11  2  0
 15 14  1  0
 16 15  2  0
 17 14  1  0
 18 14  2  0
 19 14  2  0
 20 15  1  0
 21 20  2  0
 22 16  1  0
 23 21  1  0
 24 20  1  0
 25 22  1  0
 22 23  2  0
  4 26  1  0
  9 27  1  0
 11 28  1  0
 12 29  1  0
 13 30  1  0
 16 31  1  0
 21 32  1  0
 23 33  1  0
 24 34  1  0
 25 35  1  0
M  CHG  3   1   2   5  -1  17  -1
M  END
> <Uni-Dock RESULT> 
ENERGY=   -4.143  LOWER_BOUND=    2.053  UPPER_BOUND=    4.852
INTER + INTRA:          -4.143
INTER:                  -4.143
INTRA:                   0.000
UNBOUND:                 0.000

$$$$

     RDKit          3D

 35 34  0  0  0  0  0  0  0  0999 V2000
   46.3359    7.1261   12.5429 Ca  0  0  0  0  0 15  0  0  0  0  0  0
   48.2253    6.8696   14.0731 S   0  0  0  0  0  0  0  0  0  0  0  0
   46.8247    7.1218   12.9695 C   0  0  0  0  0  0  0  0  0  0  0  0
   46.4719    6.0554   12.1326 C   0  0  0  0  0  0  0  0  0  0  0  0
   49.3128    6.5998   13.1391 O   0  0  0  0  0  0  0  0  0  0  0  0
   47.7846    5.7380   14.8813 O   0  0  0  0  0  0  0  0  0  0  0  0
   48.3058    8.1509   14.7775 O   0  0  0  0  0  0  0  0  0  0  0  0
   46.1097    8.3213   12.9357 C   0  0  0  0  0  0  0  0  0  0  0  0
   45.0337    8.4545   12.0577 C   0  0  0  0  0  0  0  0  0  0  0  0
   45.3976    6.2053   11.2644 C   0  0  0  0  0  0  0  0  0  0  0  0
   44.6763    7.3945   11.2200 C   0  0  0  0  0  0  0  0  0  0  0  0
   46.3893    9.4082   13.7184 O   0  0  0  0  0  0  0  0  0  0  0  0
   45.0193    5.1923   10.4315 O   0  0  0  0  0  0  0  0  0  0  0  0
   44.4272    5.6379   12.1972 S   0  0  0  0  0  0  0  0  0  0  0  0
   45.7901    6.7867   12.4545 C   0  0  0  0  0  0  0  0  0  0  0  0
   47.0809    6.2450   12.5004 C   0  0  0  0  0  0  0  0  0  0  0  0
   44.5456    4.7517   13.3497 O   0  0  0  0  0  0  0  0  0  0  0  0
   44.7572    5.0485   10.9043 O   0  0  0  0  0  0  0  0  0  0  0  0
   43.2622    6.5250   12.2040 O   0  0  0  0  0  0  0  0  0  0  0  0
   45.5878    8.1608   12.6037 C   0  0  0  0  0  0  0  0  0  0  0  0
   46.6856    8.9989   12.8004 C   0  0  0  0  0  0  0  0  0  0  0  0
   48.1630    7.0942   12.6970 C   0  0  0  0  0  0  0  0  0  0  0  0
   47.9763    8.4650   12.8472 C   0  0  0  0  0  0  0  0  0  0  0  0
   44.3620    8.7680   12.5714 O   0  0  0  0  0  0  0  0  0  0  0  0
   49.4378    6.6093   12.7485 O   0  0  0  0  0  0  0  0  0  0  0  0
   47.0501    5.1375   12.1858 H   0  0  0  0  0  0  0  0  0  0  0  0
   44.4763    9.3857   12.0294 H   0  0  0  0  0  0  0  0  0  0  0  0
   43.8395    7.4979   10.5371 H   0  0  0  0  0  0  0  0  0  0  0  0
   47.1705    9.1628   14.2821 H   0  0  0  0  0  0  0  0  0  0  0  0
   45.6236    4.4475   10.5933 H   0  0  0  0  0  0  0  0  0  0  0  0
   47.2009    5.1723   12.3806 H   0  0  0  0  0  0  0  0  0  0  0  0
   46.5313   10.0672   12.9166 H   0  0  0  0  0  0  0  0  0  0  0  0
   48.8304    9.1167   13.0002 H   0  0  0  0  0  0  0  0  0  0  0  0
   43.6898    8.0501   12.4261 H   0  0  0  0  0  0  0  0  0  0  0  0
   49.3830    5.6459   12.6269 H   0  0  0  0  0  0  0  0  0  0  0  0
  3  2  1  0
  4  3  2  0
  5  2  1  0
  6  2  2  0
  7  2  2  0
  8  3  1  0
  9  8  2  0
 10  4  1  0
 11  9  1  0
 12  8  1  0
 13 10  1  0
 10 11  2  0
 15 14  1  0
 16 15  2  0
 17 14  1  0
 18 14  2  0
 19 14  2  0
 20 15  1  0
 21 20  2  0
 22 16  1  0
 23 21  1  0
 24 20  1  0
 25 22  1  0
 22 23  2  0
  4 26  1  0
  9 27  1  0
 11 28  1  0
 12 29  1  0
 13 30  1  0
 16 31  1  0
 21 32  1  0
 23 33  1  0
 24 34  1  0
 25 35  1  0
M  CHG  3   1   2   5  -1  17  -1
M  END
> <Uni-Dock RESULT> 
ENERGY=   -4.034  LOWER_BOUND=    1.677  UPPER_BOUND=    4.543
INTER + INTRA:          -4.034
INTER:                  -4.034
INTRA:                   0.000
UNBOUND:                 0.000

$$$$

     RDKit          3D

 35 34  0  0  0  0  0  0  0  0999 V2000
   43.7624   11.4625    9.4878 Ca  0  0  0  0  0 15  0  0  0  0  0  0
   41.9892   10.5519   10.9034 S   0  0  0  0  0  0  0  0  0  0  0  0
   43.3179   11.2584    9.9141 C   0  0  0  0  0  0  0  0  0  0  0  0
   43.3932   10.8639    8.5722 C   0  0  0  0  0  0  0  0  0  0  0  0
   42.2716    9.1228   10.8284 O   0  0  0  0  0  0  0  0  0  0  0  0
   40.7982   11.0039   10.1926 O   0  0  0  0  0  0  0  0  0  0  0  0
   42.2104   11.1680   12.2133 O   0  0  0  0  0  0  0  0  0  0  0  0
   44.2421   12.1616   10.4445 C   0  0  0  0  0  0  0  0  0  0  0  0
   45.2491   12.6736    9.6259 C   0  0  0  0  0  0  0  0  0  0  0  0
   44.4024   11.3837    7.7711 C   0  0  0  0  0  0  0  0  0  0  0  0
   45.3300   12.2843    8.2862 C   0  0  0  0  0  0  0  0  0  0  0  0
   44.2380   12.5968   11.7418 O   0  0  0  0  0  0  0  0  0  0  0  0
   44.5132   11.0267    6.4584 O   0  0  0  0  0  0  0  0  0  0  0  0
   43.5863   12.4893    7.2760 S   0  0  0  0  0  0  0  0  0  0  0  0
   43.7563   11.7843    8.9245 C   0  0  0  0  0  0  0  0  0  0  0  0
   43.0815   10.5833    9.1774 C   0  0  0  0  0  0  0  0  0  0  0  0
   42.1472   12.7060    7.1772 O   0  0  0  0  0  0  0  0  0  0  0  0
   44.1309   11.4340    6.4289 O   0  0  0  0  0  0  0  0  0  0  0  0
   44.3996   13.7036    7.3674 O   0  0  0  0  0  0  0  0  0  0  0  0
   44.5231   12.3946    9.9199 C   0  0  0  0  0  0  0  0  0  0  0  0
   44.6153   11.7982   11.1778 C   0  0  0  0  0  0  0  0  0  0  0  0
   43.1842   10.0031   10.4357 C   0  0  0  0  0  0  0  0  0  0  0  0
   43.9446   10.5998   11.4368 C   0  0  0  0  0  0  0  0  0  0  0  0
   45.2115   13.5655    9.7544 O   0  0  0  0  0  0  0  0  0  0  0  0
   42.5434    8.8333   10.7256 O   0  0  0  0  0  0  0  0  0  0  0  0
   42.6578   10.1599    8.1936 H   0  0  0  0  0  0  0  0  0  0  0  0
   45.9687   13.3757   10.0356 H   0  0  0  0  0  0  0  0  0  0  0  0
   46.1131   12.6823    7.6492 H   0  0  0  0  0  0  0  0  0  0  0  0
   43.4729   12.1497   12.1922 H   0  0  0  0  0  0  0  0  0  0  0  0
   43.7937   10.3997    6.2703 H   0  0  0  0  0  0  0  0  0  0  0  0
   42.4945   10.1371    8.3800 H   0  0  0  0  0  0  0  0  0  0  0  0
   45.2106   12.2702   11.9533 H   0  0  0  0  0  0  0  0  0  0  0  0
   44.0161   10.1357   12.4152 H   0  0  0  0  0  0  0  0  0  0  0  0
   45.0502   13.8636    8.8199 H   0  0  0  0  0  0  0  0  0  0  0  0
   42.0663    8.5615    9.9229 H   0  0  0  0  0  0  0  0  0  0  0  0
  3  2  1  0
  4  3  2  0
  5  2  1  0
  6  2  2  0
  7  2  2  0
  8  3  1  0
  9  8  2  0
 10  4  1  0
 11  9  1  0
 12  8  1  0
 13 10  1  0
 10 11  2  0
 15 14  1  0
 16 15  2  0
 17 14  1  0
 18 14  2  0
 19 14  2  0
 20 15  1  0
 21 20  2  0
 22 16  1  0
 23 21  1  0
 24 20  1  0
 25 22  1  0
 22 23  2  0
  4 26  1  0
  9 27  1  0
 11 28  1  0
 12 29  1  0
 13 30  1  0
 16 31  1  0
 21 32  1  0
 23 33  1  0
 24 34  1  0
 25 35  1  0
M  CHG  3   1   2   5  -1  17  -1
M  END
> <Uni-Dock RESULT> 
ENERGY=   -3.952  LOWER_BOUND=    5.853  UPPER_BOUND=    7.238
INTER + INTRA:          -3.952
INTER:                  -3.952
INTRA:                   0.000
UNBOUND:                 0.000

$$$$

     RDKit          3D

 35 34  0  0  0  0  0  0  0  0999 V2000
   49.8725    4.2180   17.6451 Ca  0  0  0  0  0 15  0  0  0  0  0  0
   51.8676    5.6310   17.6619 S   0  0  0  0  0  0  0  0  0  0  0  0
   50.4376    4.5366   17.6354 C   0  0  0  0  0  0  0  0  0  0  0  0
   49.1866    5.1155   17.8843 C   0  0  0  0  0  0  0  0  0  0  0  0
   51.8329    6.1554   19.0227 O   0  0  0  0  0  0  0  0  0  0  0  0
   51.5498    6.5838   16.6041 O   0  0  0  0  0  0  0  0  0  0  0  0
   52.9713    4.7139   17.3703 O   0  0  0  0  0  0  0  0  0  0  0  0
   50.5517    3.1681   17.3796 C   0  0  0  0  0  0  0  0  0  0  0  0
   49.4053    2.3731   17.3730 C   0  0  0  0  0  0  0  0  0  0  0  0
   48.0553    4.3090   17.8739 C   0  0  0  0  0  0  0  0  0  0  0  0
   48.1541    2.9442   17.6206 C   0  0  0  0  0  0  0  0  0  0  0  0
   51.7337    2.5265   17.1277 O   0  0  0  0  0  0  0  0  0  0  0  0
   46.8167    4.8310   18.1113 O   0  0  0  0  0  0  0  0  0  0  0  0
   47.7584    4.5607   16.4661 S   0  0  0  0  0  0  0  0  0  0  0  0
   49.3160    4.2438   17.3127 C   0  0  0  0  0  0  0  0  0  0  0  0
   49.8832    5.3084   18.0244 C   0  0  0  0  0  0  0  0  0  0  0  0
   48.1185    5.6305   15.5422 O   0  0  0  0  0  0  0  0  0  0  0  0
   46.8779    4.9388   17.5659 O   0  0  0  0  0  0  0  0  0  0  0  0
   47.4681    3.2664   15.8458 O   0  0  0  0  0  0  0  0  0  0  0  0
   49.9452    2.9974   17.2725 C   0  0  0  0  0  0  0  0  0  0  0  0
   51.1513    2.8152   17.9496 C   0  0  0  0  0  0  0  0  0  0  0  0
   51.0848    5.1095   18.6931 C   0  0  0  0  0  0  0  0  0  0  0  0
   51.7228    3.8732   18.6617 C   0  0  0  0  0  0  0  0  0  0  0  0
   49.4583    1.9087   16.6018 O   0  0  0  0  0  0  0  0  0  0  0  0
   51.6730    6.1191   19.3987 O   0  0  0  0  0  0  0  0  0  0  0  0
   49.1354    6.1828   18.0793 H   0  0  0  0  0  0  0  0  0  0  0  0
   49.4911    1.3093   17.1745 H   0  0  0  0  0  0  0  0  0  0  0  0
   47.2622    2.3261   17.6155 H   0  0  0  0  0  0  0  0  0  0  0  0
   52.4487    3.2161   17.1662 H   0  0  0  0  0  0  0  0  0  0  0  0
   46.9325    5.7841   18.2665 H   0  0  0  0  0  0  0  0  0  0  0  0
   49.3663    6.2636   18.0339 H   0  0  0  0  0  0  0  0  0  0  0  0
   51.6426    1.8475   17.9202 H   0  0  0  0  0  0  0  0  0  0  0  0
   52.6610    3.7318   19.1885 H   0  0  0  0  0  0  0  0  0  0  0  0
   48.6058    2.1916   16.1759 H   0  0  0  0  0  0  0  0  0  0  0  0
   51.0993    6.8999   19.3139 H   0  0  0  0  0  0  0  0  0  0  0  0
  3  2  1  0
  4  3  2  0
  5  2  1  0
  6  2  2  0
  7  2  2  0
  8  3  1  0
  9  8  2  0
 10  4  1  0
 11  9  1  0
 12  8  1  0
 13 10  1  0
 10 11  2  0
 15 14  1  0
 16 15  2  0
 17 14  1  0
 18 14  2  0
 19 14  2  0
 20 15  1  0
 21 20  2  0
 22 16  1  0
 23 21  1  0
 24 20  1  0
 25 22  1  0
 22 23  2  0
  4 26  1  0
  9 27  1  0
 11 28  1  0
 12 29  1  0
 13 30  1  0
 16 31  1  0
 21 32  1  0
 23 33  1  0
 24 34  1  0
 25 35  1  0
M  CHG  3   1   2   5  -1  17  -1
M  END
> <Uni-Dock RESULT> 
ENERGY=   -3.802  LOWER_BOUND=    5.988  UPPER_BOUND=    8.156
INTER + INTRA:          -3.802
INTER:                  -3.802
INTRA:                   0.000
UNBOUND:                 0.000

$$$$

     RDKit          3D

 35 34  0  0  0  0  0  0  0  0999 V2000
   54.5526    6.9611    7.1289 Ca  0  0  0  0  0 15  0  0  0  0  0  0
   56.0464    8.7869    6.4869 S   0  0  0  0  0  0  0  0  0  0  0  0
   54.8935    7.4850    6.9551 C   0  0  0  0  0  0  0  0  0  0  0  0
   55.4324    6.2181    7.2130 C   0  0  0  0  0  0  0  0  0  0  0  0
   56.6425    8.2511    5.2681 O   0  0  0  0  0  0  0  0  0  0  0  0
   56.9258    8.8563    7.6486 O   0  0  0  0  0  0  0  0  0  0  0  0
   55.1615    9.9385    6.2995 O   0  0  0  0  0  0  0  0  0  0  0  0
   53.5190    7.7102    7.0615 C   0  0  0  0  0  0  0  0  0  0  0  0
   52.6777    6.6597    7.4287 C   0  0  0  0  0  0  0  0  0  0  0  0
   54.5801    5.1832    7.5776 C   0  0  0  0  0  0  0  0  0  0  0  0
   53.2088    5.3932    7.6875 C   0  0  0  0  0  0  0  0  0  0  0  0
   52.9144    8.9151    6.8271 O   0  0  0  0  0  0  0  0  0  0  0  0
   55.0622    3.9331    7.8380 O   0  0  0  0  0  0  0  0  0  0  0  0
   54.7419    5.4123    9.0111 S   0  0  0  0  0  0  0  0  0  0  0  0
   54.5370    6.5626    7.6406 C   0  0  0  0  0  0  0  0  0  0  0  0
   55.6617    6.8127    6.8442 C   0  0  0  0  0  0  0  0  0  0  0  0
   55.7737    6.0625    9.8113 O   0  0  0  0  0  0  0  0  0  0  0  0
   55.1425    4.1859    8.3305 O   0  0  0  0  0  0  0  0  0  0  0  0
   53.4046    5.3915    9.6073 O   0  0  0  0  0  0  0  0  0  0  0  0
   53.3175    7.1873    7.3686 C   0  0  0  0  0  0  0  0  0  0  0  0
   53.2231    8.0689    6.2916 C   0  0  0  0  0  0  0  0  0  0  0  0
   55.5499    7.6936    5.7755 C   0  0  0  0  0  0  0  0  0  0  0  0
   54.3414    8.3230    5.4928 C   0  0  0  0  0  0  0  0  0  0  0  0
   52.1744    6.9975    8.0963 O   0  0  0  0  0  0  0  0  0  0  0  0
   56.6202    7.9664    4.9735 O   0  0  0  0  0  0  0  0  0  0  0  0
   56.5057    6.0794    7.1206 H   0  0  0  0  0  0  0  0  0  0  0  0
   51.6091    6.8319    7.5121 H   0  0  0  0  0  0  0  0  0  0  0  0
   52.5547    4.5758    7.9731 H   0  0  0  0  0  0  0  0  0  0  0  0
   53.6344    9.5541    6.5789 H   0  0  0  0  0  0  0  0  0  0  0  0
   56.0264    3.9665    7.7149 H   0  0  0  0  0  0  0  0  0  0  0  0
   56.5935    6.3094    7.0849 H   0  0  0  0  0  0  0  0  0  0  0  0
   52.2766    8.5558    6.0778 H   0  0  0  0  0  0  0  0  0  0  0  0
   54.2683    9.0087    4.6549 H   0  0  0  0  0  0  0  0  0  0  0  0
   52.3978    6.3523    8.8188 H   0  0  0  0  0  0  0  0  0  0  0  0
   57.3705    7.4478    5.3110 H   0  0  0  0  0  0  0  0  0  0  0  0
  3  2  1  0
  4  3  2  0
  5  2  1  0
  6  2  2  0
  7  2  2  0
  8  3  1  0
  9  8  2  0
 10  4  1  0
 11  9  1  0
 12  8  1  0
 13 10  1  0
 10 11  2  0
 15 14  1  0
 16 15  2  0
 17 14  1  0
 18 14  2  0
 19 14  2  0
 20 15  1  0
 21 20  2  0
 22 16  1  0
 23 21  1  0
 24 20  1  0
 25 22  1  0
 22 23  2  0
  4 26  1  0
  9 27  1  0
 11 28  1  0
 12 29  1  0
 13 30  1  0
 16 31  1  0
 21 32  1  0
 23 33  1  0
 24 34  1  0
 25 35  1  0
M  CHG  3   1   2   5  -1  17  -1
M  END
> <Uni-Dock RESULT> 
ENERGY=   -3.756  LOWER_BOUND=    9.029  UPPER_BOUND=   11.111
INTER + INTRA:          -3.756
INTER:                  -3.756
INTRA:                   0.000
UNBOUND:                 0.000

$$$$

     RDKit          3D

 35 34  0  0  0  0  0  0  0  0999 V2000
   47.7719   10.8128   18.8449 Ca  0  0  0  0  0 15  0  0  0  0  0  0
   48.0772   13.2368   18.9344 S   0  0  0  0  0  0  0  0  0  0  0  0
   47.8331   11.4525   18.9338 C   0  0  0  0  0  0  0  0  0  0  0  0
   48.0952   10.7732   17.7372 C   0  0  0  0  0  0  0  0  0  0  0  0
   47.1426   13.6790   17.9055 O   0  0  0  0  0  0  0  0  0  0  0  0
   49.4927   13.3572   18.6030 O   0  0  0  0  0  0  0  0  0  0  0  0
   47.7201   13.6029   20.3065 O   0  0  0  0  0  0  0  0  0  0  0  0
   47.4017   10.7595   20.0673 C   0  0  0  0  0  0  0  0  0  0  0  0
   47.2315    9.3763   20.0027 C   0  0  0  0  0  0  0  0  0  0  0  0
   47.9204    9.3956   17.6906 C   0  0  0  0  0  0  0  0  0  0  0  0
   47.4912    8.6923   18.8120 C   0  0  0  0  0  0  0  0  0  0  0  0
   47.1247   11.3470   21.2716 O   0  0  0  0  0  0  0  0  0  0  0  0
   48.1641    8.6937   16.5456 O   0  0  0  0  0  0  0  0  0  0  0  0
   49.3117    9.1006   18.0235 S   0  0  0  0  0  0  0  0  0  0  0  0
   48.1665   10.3237   18.6838 C   0  0  0  0  0  0  0  0  0  0  0  0
   47.9458   11.4723   17.9134 C   0  0  0  0  0  0  0  0  0  0  0  0
   50.5510    9.8622   17.9138 O   0  0  0  0  0  0  0  0  0  0  0  0
   48.6783    8.7303   16.7627 O   0  0  0  0  0  0  0  0  0  0  0  0
   49.2998    8.0662   19.0599 O   0  0  0  0  0  0  0  0  0  0  0  0
   47.5177   10.1513   19.9088 C   0  0  0  0  0  0  0  0  0  0  0  0
   46.6415   11.1360   20.3660 C   0  0  0  0  0  0  0  0  0  0  0  0
   47.0699   12.4429   18.3837 C   0  0  0  0  0  0  0  0  0  0  0  0
   46.4167   12.2845   19.6022 C   0  0  0  0  0  0  0  0  0  0  0  0
   47.6780    9.0611   20.7200 O   0  0  0  0  0  0  0  0  0  0  0  0
   46.8255   13.5777   17.6657 O   0  0  0  0  0  0  0  0  0  0  0  0
   48.4292   11.3443   16.8758 H   0  0  0  0  0  0  0  0  0  0  0  0
   46.8963    8.8352   20.8821 H   0  0  0  0  0  0  0  0  0  0  0  0
   47.3588    7.6165   18.7615 H   0  0  0  0  0  0  0  0  0  0  0  0
   47.2909   12.3208   21.1610 H   0  0  0  0  0  0  0  0  0  0  0  0
   48.4517    9.3343   15.8726 H   0  0  0  0  0  0  0  0  0  0  0  0
   48.4674   11.5729   16.9660 H   0  0  0  0  0  0  0  0  0  0  0  0
   46.1357   11.0047   21.3177 H   0  0  0  0  0  0  0  0  0  0  0  0
   45.7352   13.0506   19.9576 H   0  0  0  0  0  0  0  0  0  0  0  0
   48.3230    8.4569   20.2647 H   0  0  0  0  0  0  0  0  0  0  0  0
   47.3578   13.5230   16.8536 H   0  0  0  0  0  0  0  0  0  0  0  0
  3  2  1  0
  4  3  2  0
  5  2  1  0
  6  2  2  0
  7  2  2  0
  8  3  1  0
  9  8  2  0
 10  4  1  0
 11  9  1  0
 12  8  1  0
 13 10  1  0
 10 11  2  0
 15 14  1  0
 16 15  2  0
 17 14  1  0
 18 14  2  0
 19 14  2  0
 20 15  1  0
 21 20  2  0
 22 16  1  0
 23 21  1  0
 24 20  1  0
 25 22  1  0
 22 23  2  0
  4 26  1  0
  9 27  1  0
 11 28  1  0
 12 29  1  0
 13 30  1  0
 16 31  1  0
 21 32  1  0
 23 33  1  0
 24 34  1  0
 25 35  1  0
M  CHG  3   1   2   5  -1  17  -1
M  END
> <Uni-Dock RESULT> 
ENERGY=   -3.709  LOWER_BOUND=    7.346  UPPER_BOUND=    9.443
INTER + INTRA:          -3.709
INTER:                  -3.709
INTRA:                   0.000
UNBOUND:                 0.000

$$$$

     RDKit          3D

 35 34  0  0  0  0  0  0  0  0999 V2000
   42.9701   11.5840    9.0753 Ca  0  0  0  0  0 15  0  0  0  0  0  0
   44.8138   12.2418    7.6106 S   0  0  0  0  0  0  0  0  0  0  0  0
   43.4263   11.8174    8.6774 C   0  0  0  0  0  0  0  0  0  0  0  0
   43.4558   10.5591    9.2921 C   0  0  0  0  0  0  0  0  0  0  0  0
   44.7544   11.1984    6.5931 O   0  0  0  0  0  0  0  0  0  0  0  0
   45.9450   12.1720    8.5290 O   0  0  0  0  0  0  0  0  0  0  0  0
   44.4589   13.5867    7.1526 O   0  0  0  0  0  0  0  0  0  0  0  0
   42.3588   12.6919    8.8942 C   0  0  0  0  0  0  0  0  0  0  0  0
   41.3131   12.3041    9.7322 C   0  0  0  0  0  0  0  0  0  0  0  0
   42.4061   10.1891   10.1237 C   0  0  0  0  0  0  0  0  0  0  0  0
   41.3362   11.0501   10.3487 C   0  0  0  0  0  0  0  0  0  0  0  0
   42.2542   13.9354    8.3330 O   0  0  0  0  0  0  0  0  0  0  0  0
   42.3939    8.9728   10.7429 O   0  0  0  0  0  0  0  0  0  0  0  0
   43.0605   10.6658   11.3394 S   0  0  0  0  0  0  0  0  0  0  0  0
   42.9458   11.3854    9.6925 C   0  0  0  0  0  0  0  0  0  0  0  0
   43.7865   10.8563    8.7052 C   0  0  0  0  0  0  0  0  0  0  0  0
   44.4525   10.9202   11.6938 O   0  0  0  0  0  0  0  0  0  0  0  0
   42.7106    9.2711   11.0945 O   0  0  0  0  0  0  0  0  0  0  0  0
   42.0697   11.4392   12.0907 O   0  0  0  0  0  0  0  0  0  0  0  0
   42.0630   12.4261    9.3944 C   0  0  0  0  0  0  0  0  0  0  0  0
   42.0214   12.9410    8.0985 C   0  0  0  0  0  0  0  0  0  0  0  0
   43.7320   11.3808    7.4197 C   0  0  0  0  0  0  0  0  0  0  0  0
   42.8575   12.4176    7.1085 C   0  0  0  0  0  0  0  0  0  0  0  0
   41.2105   12.9977   10.2994 O   0  0  0  0  0  0  0  0  0  0  0  0
   44.5332   10.8954    6.4270 O   0  0  0  0  0  0  0  0  0  0  0  0
   44.3016    9.9051    9.1009 H   0  0  0  0  0  0  0  0  0  0  0  0
   40.4822   12.9817    9.9024 H   0  0  0  0  0  0  0  0  0  0  0  0
   40.5229   10.7482   11.0006 H   0  0  0  0  0  0  0  0  0  0  0  0
   43.0633   14.0654    7.7701 H   0  0  0  0  0  0  0  0  0  0  0  0
   43.2060    8.5080   10.4774 H   0  0  0  0  0  0  0  0  0  0  0  0
   44.4603   10.0475    8.9726 H   0  0  0  0  0  0  0  0  0  0  0  0
   41.3362   13.7498    7.8639 H   0  0  0  0  0  0  0  0  0  0  0  0
   42.8253   12.8179    6.1003 H   0  0  0  0  0  0  0  0  0  0  0  0
   41.3552   12.5303   11.1648 H   0  0  0  0  0  0  0  0  0  0  0  0
   45.0721   10.1851    6.8155 H   0  0  0  0  0  0  0  0  0  0  0  0
  3  2  1  0
  4  3  2  0
  5  2  1  0
  6  2  2  0
  7  2  2  0
  8  3  1  0
  9  8  2  0
 10  4  1  0
 11  9  1  0
 12  8  1  0
 13 10  1  0
 10 11  2  0
 15 14  1  0
 16 15  2  0
 17 14  1  0
 18 14  2  0
 19 14  2  0
 20 15  1  0
 21 20  2  0
 22 16  1  0
 23 21  1  0
 24 20  1  0
 25 22  1  0
 22 23  2  0
  4 26  1  0
  9 27  1  0
 11 28  1  0
 12 29  1  0
 13 30  1  0
 16 31  1  0
 21 32  1  0
 23 33  1  0
 24 34  1  0
 25 35  1  0
M  CHG  3   1   2   5  -1  17  -1
M  END
> <Uni-Dock RESULT> 
ENERGY=   -3.683  LOWER_BOUND=    6.295  UPPER_BOUND=    7.894
INTER + INTRA:          -3.683
INTER:                  -3.683
INTRA:                   0.000
UNBOUND:                 0.000

$$$$
