
     RDKit          3D

 35 34  0  0  0  0  0  0  0  0999 V2000
   44.0754    4.5456   11.0009 Ca  0  0  0  0  0 15  0  0  0  0  0  0
   44.4717    3.3656    8.8966 S   0  0  0  0  0  0  0  0  0  0  0  0
   44.1589    4.1761   10.4742 C   0  0  0  0  0  0  0  0  0  0  0  0
   44.4271    5.5488   10.5502 C   0  0  0  0  0  0  0  0  0  0  0  0
   45.8992    3.5968    8.7057 O   0  0  0  0  0  0  0  0  0  0  0  0
   44.0917    1.9789    9.1744 O   0  0  0  0  0  0  0  0  0  0  0  0
   43.5831    4.0888    7.9938 O   0  0  0  0  0  0  0  0  0  0  0  0
   43.6703    3.4825   11.5839 C   0  0  0  0  0  0  0  0  0  0  0  0
   43.4486    4.1678   12.7786 C   0  0  0  0  0  0  0  0  0  0  0  0
   44.2005    6.2157   11.7480 C   0  0  0  0  0  0  0  0  0  0  0  0
   43.7141    5.5374   12.8615 C   0  0  0  0  0  0  0  0  0  0  0  0
   43.3835    2.1447   11.5924 O   0  0  0  0  0  0  0  0  0  0  0  0
   44.4481    7.5527   11.8667 O   0  0  0  0  0  0  0  0  0  0  0  0
   45.3972    4.0734    8.9991 S   0  0  0  0  0  0  0  0  0  0  0  0
   44.4524    4.3674   10.5038 C   0  0  0  0  0  0  0  0  0  0  0  0
   43.5777    5.4615   10.5043 C   0  0  0  0  0  0  0  0  0  0  0  0
   46.1816    2.8868    9.3468 O   0  0  0  0  0  0  0  0  0  0  0  0
   44.3472    3.8612    8.0089 O   0  0  0  0  0  0  0  0  0  0  0  0
   46.1594    5.3097    8.8639 O   0  0  0  0  0  0  0  0  0  0  0  0
   44.5734    3.5508   11.6307 C   0  0  0  0  0  0  0  0  0  0  0  0
   43.8134    3.8314   12.7664 C   0  0  0  0  0  0  0  0  0  0  0  0
   42.8283    5.7263   11.6439 C   0  0  0  0  0  0  0  0  0  0  0  0
   42.9388    4.9213   12.7737 C   0  0  0  0  0  0  0  0  0  0  0  0
   45.4028    2.4656   11.7114 O   0  0  0  0  0  0  0  0  0  0  0  0
   41.9639    6.7817   11.6883 O   0  0  0  0  0  0  0  0  0  0  0  0
   44.8061    6.0558    9.6678 H   0  0  0  0  0  0  0  0  0  0  0  0
   43.0690    3.6312   13.6427 H   0  0  0  0  0  0  0  0  0  0  0  0
   43.5417    6.0707   13.7908 H   0  0  0  0  0  0  0  0  0  0  0  0
   43.5901    1.8009   10.6827 H   0  0  0  0  0  0  0  0  0  0  0  0
   44.7783    7.8605   11.0052 H   0  0  0  0  0  0  0  0  0  0  0  0
   43.5091    6.0746    9.6105 H   0  0  0  0  0  0  0  0  0  0  0  0
   43.9055    3.1984   13.6437 H   0  0  0  0  0  0  0  0  0  0  0  0
   42.3474    5.1398   13.6570 H   0  0  0  0  0  0  0  0  0  0  0  0
   45.8707    2.3962   10.8370 H   0  0  0  0  0  0  0  0  0  0  0  0
   42.0133    7.2289   10.8259 H   0  0  0  0  0  0  0  0  0  0  0  0
  3  2  1  0
  4  3  2  0
  5  2  1  0
  6  2  2  0
  7  2  2  0
  8  3  1  0
  9  8  2  0
 10  4  1  0
 11  9  1  0
 12  8  1  0
 13 10  1  0
 10 11  2  0
 15 14  1  0
 16 15  2  0
 17 14  1  0
 18 14  2  0
 19 14  2  0
 20 15  1  0
 21 20  2  0
 22 16  1  0
 23 21  1  0
 24 20  1  0
 25 22  1  0
 22 23  2  0
  4 26  1  0
  9 27  1  0
 11 28  1  0
 12 29  1  0
 13 30  1  0
 16 31  1  0
 21 32  1  0
 23 33  1  0
 24 34  1  0
 25 35  1  0
M  CHG  3   1   2   5  -1  17  -1
M  END
> <Uni-Dock RESULT> 
ENERGY=   -5.326  LOWER_BOUND=    0.000  UPPER_BOUND=    0.000
INTER + INTRA:          -5.326
INTER:                  -5.326
INTRA:                   0.000
UNBOUND:                 0.000

$$$$

     RDKit          3D

 35 34  0  0  0  0  0  0  0  0999 V2000
   45.1877    5.4166   12.3478 Ca  0  0  0  0  0 15  0  0  0  0  0  0
   47.3091    6.6103   12.5766 S   0  0  0  0  0  0  0  0  0  0  0  0
   45.7781    5.6737   12.4268 C   0  0  0  0  0  0  0  0  0  0  0  0
   44.6354    6.3789   12.0284 C   0  0  0  0  0  0  0  0  0  0  0  0
   46.9686    7.6031   13.5894 O   0  0  0  0  0  0  0  0  0  0  0  0
   48.2654    5.5848   12.9989 O   0  0  0  0  0  0  0  0  0  0  0  0
   47.4956    7.1199   11.2226 O   0  0  0  0  0  0  0  0  0  0  0  0
   45.7142    4.3037   12.6923 C   0  0  0  0  0  0  0  0  0  0  0  0
   44.4974    3.6347   12.5579 C   0  0  0  0  0  0  0  0  0  0  0  0
   43.4318    5.6967   11.8996 C   0  0  0  0  0  0  0  0  0  0  0  0
   43.3533    4.3321   12.1607 C   0  0  0  0  0  0  0  0  0  0  0  0
   46.7817    3.5435   13.0853 O   0  0  0  0  0  0  0  0  0  0  0  0
   42.2938    6.3442   11.5139 O   0  0  0  0  0  0  0  0  0  0  0  0
   46.5245    7.3424   13.0417 S   0  0  0  0  0  0  0  0  0  0  0  0
   45.5563    5.8929   12.5890 C   0  0  0  0  0  0  0  0  0  0  0  0
   44.8987    5.9257   11.3527 C   0  0  0  0  0  0  0  0  0  0  0  0
   47.0545    6.9694   14.3548 O   0  0  0  0  0  0  0  0  0  0  0  0
   47.5075    7.4083   11.9660 O   0  0  0  0  0  0  0  0  0  0  0  0
   45.5182    8.3984   13.0501 O   0  0  0  0  0  0  0  0  0  0  0  0
   45.4541    4.7759   13.4215 C   0  0  0  0  0  0  0  0  0  0  0  0
   44.6881    3.6837   13.0136 C   0  0  0  0  0  0  0  0  0  0  0  0
   44.1402    4.8292   10.9621 C   0  0  0  0  0  0  0  0  0  0  0  0
   44.0294    3.7097   11.7813 C   0  0  0  0  0  0  0  0  0  0  0  0
   46.0636    4.6647   14.6414 O   0  0  0  0  0  0  0  0  0  0  0  0
   43.4827    4.8184    9.7659 O   0  0  0  0  0  0  0  0  0  0  0  0
   44.7220    7.4432   11.8303 H   0  0  0  0  0  0  0  0  0  0  0  0
   44.4448    2.5699   12.7636 H   0  0  0  0  0  0  0  0  0  0  0  0
   42.4068    3.8119   12.0561 H   0  0  0  0  0  0  0  0  0  0  0  0
   47.5655    4.1531   13.1353 H   0  0  0  0  0  0  0  0  0  0  0  0
   42.5283    7.2780   11.3755 H   0  0  0  0  0  0  0  0  0  0  0  0
   45.0005    6.8106   10.7312 H   0  0  0  0  0  0  0  0  0  0  0  0
   44.6069    2.8142   13.6586 H   0  0  0  0  0  0  0  0  0  0  0  0
   43.4335    2.8602   11.4637 H   0  0  0  0  0  0  0  0  0  0  0  0
   46.5653    5.5101   14.7899 H   0  0  0  0  0  0  0  0  0  0  0  0
   43.6677    5.6678    9.3297 H   0  0  0  0  0  0  0  0  0  0  0  0
  3  2  1  0
  4  3  2  0
  5  2  1  0
  6  2  2  0
  7  2  2  0
  8  3  1  0
  9  8  2  0
 10  4  1  0
 11  9  1  0
 12  8  1  0
 13 10  1  0
 10 11  2  0
 15 14  1  0
 16 15  2  0
 17 14  1  0
 18 14  2  0
 19 14  2  0
 20 15  1  0
 21 20  2  0
 22 16  1  0
 23 21  1  0
 24 20  1  0
 25 22  1  0
 22 23  2  0
  4 26  1  0
  9 27  1  0
 11 28  1  0
 12 29  1  0
 13 30  1  0
 16 31  1  0
 21 32  1  0
 23 33  1  0
 24 34  1  0
 25 35  1  0
M  CHG  3   1   2   5  -1  17  -1
M  END
> <Uni-Dock RESULT> 
ENERGY=   -4.928  LOWER_BOUND=    2.525  UPPER_BOUND=    3.923
INTER + INTRA:          -4.928
INTER:                  -4.928
INTRA:                   0.000
UNBOUND:                 0.000

$$$$

     RDKit          3D

 35 34  0  0  0  0  0  0  0  0999 V2000
   45.6020    5.3738   12.1420 Ca  0  0  0  0  0 15  0  0  0  0  0  0
   43.5659    4.7332   10.9498 S   0  0  0  0  0  0  0  0  0  0  0  0
   45.0470    5.1645   11.8794 C   0  0  0  0  0  0  0  0  0  0  0  0
   45.9358    6.0664   11.2805 C   0  0  0  0  0  0  0  0  0  0  0  0
   44.1208    4.1416    9.7375 O   0  0  0  0  0  0  0  0  0  0  0  0
   42.8893    3.7987   11.8517 O   0  0  0  0  0  0  0  0  0  0  0  0
   42.9137    6.0275   10.7858 O   0  0  0  0  0  0  0  0  0  0  0  0
   45.3141    4.6330   13.1433 C   0  0  0  0  0  0  0  0  0  0  0  0
   46.4795    5.0069   13.8127 C   0  0  0  0  0  0  0  0  0  0  0  0
   47.0918    6.4279   11.9614 C   0  0  0  0  0  0  0  0  0  0  0  0
   47.3708    5.9063   13.2210 C   0  0  0  0  0  0  0  0  0  0  0  0
   44.4995    3.7486   13.7960 O   0  0  0  0  0  0  0  0  0  0  0  0
   47.9854    7.3033   11.4155 O   0  0  0  0  0  0  0  0  0  0  0  0
   44.3890    4.7314   10.1188 S   0  0  0  0  0  0  0  0  0  0  0  0
   45.2884    5.1387   11.6251 C   0  0  0  0  0  0  0  0  0  0  0  0
   45.5128    6.4963   11.8866 C   0  0  0  0  0  0  0  0  0  0  0  0
   44.3398    3.2687   10.1674 O   0  0  0  0  0  0  0  0  0  0  0  0
   43.1132    5.4075   10.3258 O   0  0  0  0  0  0  0  0  0  0  0  0
   45.2472    5.2945    9.0823 O   0  0  0  0  0  0  0  0  0  0  0  0
   45.7494    4.1572   12.5056 C   0  0  0  0  0  0  0  0  0  0  0  0
   46.4402    4.5373   13.6564 C   0  0  0  0  0  0  0  0  0  0  0  0
   46.2024    6.8571   13.0375 C   0  0  0  0  0  0  0  0  0  0  0  0
   46.6675    5.8901   13.9236 C   0  0  0  0  0  0  0  0  0  0  0  0
   45.5721    2.8128   12.3236 O   0  0  0  0  0  0  0  0  0  0  0  0
   46.4435    8.1681   13.3317 O   0  0  0  0  0  0  0  0  0  0  0  0
   45.6960    6.4596   10.2970 H   0  0  0  0  0  0  0  0  0  0  0  0
   46.6898    4.5953   14.7951 H   0  0  0  0  0  0  0  0  0  0  0  0
   48.2774    6.1972   13.7416 H   0  0  0  0  0  0  0  0  0  0  0  0
   43.7212    3.5816   13.2004 H   0  0  0  0  0  0  0  0  0  0  0  0
   47.6365    7.5636   10.5456 H   0  0  0  0  0  0  0  0  0  0  0  0
   45.1400    7.2321   11.1801 H   0  0  0  0  0  0  0  0  0  0  0  0
   46.7997    3.7767   14.3426 H   0  0  0  0  0  0  0  0  0  0  0  0
   47.2048    6.1862   14.8188 H   0  0  0  0  0  0  0  0  0  0  0  0
   45.0703    2.7019   11.4726 H   0  0  0  0  0  0  0  0  0  0  0  0
   46.0542    8.6986   12.6154 H   0  0  0  0  0  0  0  0  0  0  0  0
  3  2  1  0
  4  3  2  0
  5  2  1  0
  6  2  2  0
  7  2  2  0
  8  3  1  0
  9  8  2  0
 10  4  1  0
 11  9  1  0
 12  8  1  0
 13 10  1  0
 10 11  2  0
 15 14  1  0
 16 15  2  0
 17 14  1  0
 18 14  2  0
 19 14  2  0
 20 15  1  0
 21 20  2  0
 22 16  1  0
 23 21  1  0
 24 20  1  0
 25 22  1  0
 22 23  2  0
  4 26  1  0
  9 27  1  0
 11 28  1  0
 12 29  1  0
 13 30  1  0
 16 31  1  0
 21 32  1  0
 23 33  1  0
 24 34  1  0
 25 35  1  0
M  CHG  3   1   2   5  -1  17  -1
M  END
> <Uni-Dock RESULT> 
ENERGY=   -4.842  LOWER_BOUND=    2.244  UPPER_BOUND=    2.832
INTER + INTRA:          -4.842
INTER:                  -4.842
INTRA:                   0.000
UNBOUND:                 0.000

$$$$

     RDKit          3D

 35 34  0  0  0  0  0  0  0  0999 V2000
   45.6492    5.5174   12.6552 Ca  0  0  0  0  0 15  0  0  0  0  0  0
   43.3913    4.6006   12.4574 S   0  0  0  0  0  0  0  0  0  0  0  0
   45.0638    5.2378   12.6588 C   0  0  0  0  0  0  0  0  0  0  0  0
   45.5091    6.1705   11.7134 C   0  0  0  0  0  0  0  0  0  0  0  0
   43.4538    3.9729   11.1422 O   0  0  0  0  0  0  0  0  0  0  0  0
   43.2677    3.6783   13.5882 O   0  0  0  0  0  0  0  0  0  0  0  0
   42.5840    5.8121   12.5471 O   0  0  0  0  0  0  0  0  0  0  0  0
   45.8947    4.8312   13.7055 C   0  0  0  0  0  0  0  0  0  0  0  0
   47.1807    5.3621   13.8068 C   0  0  0  0  0  0  0  0  0  0  0  0
   46.7929    6.6891   11.8294 C   0  0  0  0  0  0  0  0  0  0  0  0
   47.6315    6.2931   12.8670 C   0  0  0  0  0  0  0  0  0  0  0  0
   45.5366    3.9268   14.6678 O   0  0  0  0  0  0  0  0  0  0  0  0
   47.2677    7.6001   10.9307 O   0  0  0  0  0  0  0  0  0  0  0  0
   43.7859    4.6124   11.3564 S   0  0  0  0  0  0  0  0  0  0  0  0
   45.1780    5.2153   12.3270 C   0  0  0  0  0  0  0  0  0  0  0  0
   45.3310    6.6039   12.4287 C   0  0  0  0  0  0  0  0  0  0  0  0
   43.9327    3.1595   11.4644 O   0  0  0  0  0  0  0  0  0  0  0  0
   42.6439    5.1803   12.0644 O   0  0  0  0  0  0  0  0  0  0  0  0
   44.0603    5.1727   10.0378 O   0  0  0  0  0  0  0  0  0  0  0  0
   46.0760    4.3510   12.9579 C   0  0  0  0  0  0  0  0  0  0  0  0
   47.1348    4.8804   13.6959 C   0  0  0  0  0  0  0  0  0  0  0  0
   46.3911    7.1141   13.1678 C   0  0  0  0  0  0  0  0  0  0  0  0
   47.2933    6.2649   13.8015 C   0  0  0  0  0  0  0  0  0  0  0  0
   45.9971    2.9859   12.9079 O   0  0  0  0  0  0  0  0  0  0  0  0
   46.5781    8.4604   13.2933 O   0  0  0  0  0  0  0  0  0  0  0  0
   44.8361    6.4636   10.9130 H   0  0  0  0  0  0  0  0  0  0  0  0
   47.8287    5.0479   14.6193 H   0  0  0  0  0  0  0  0  0  0  0  0
   48.6319    6.7062   12.9456 H   0  0  0  0  0  0  0  0  0  0  0  0
   44.6060    3.6430   14.4632 H   0  0  0  0  0  0  0  0  0  0  0  0
   46.5596    7.7597   10.2833 H   0  0  0  0  0  0  0  0  0  0  0  0
   44.6140    7.2458   11.9253 H   0  0  0  0  0  0  0  0  0  0  0  0
   47.8342    4.2110   14.1872 H   0  0  0  0  0  0  0  0  0  0  0  0
   48.1169    6.6770   14.3755 H   0  0  0  0  0  0  0  0  0  0  0  0
   45.2023    2.7643   12.3533 H   0  0  0  0  0  0  0  0  0  0  0  0
   45.8662    8.8962   12.7941 H   0  0  0  0  0  0  0  0  0  0  0  0
  3  2  1  0
  4  3  2  0
  5  2  1  0
  6  2  2  0
  7  2  2  0
  8  3  1  0
  9  8  2  0
 10  4  1  0
 11  9  1  0
 12  8  1  0
 13 10  1  0
 10 11  2  0
 15 14  1  0
 16 15  2  0
 17 14  1  0
 18 14  2  0
 19 14  2  0
 20 15  1  0
 21 20  2  0
 22 16  1  0
 23 21  1  0
 24 20  1  0
 25 22  1  0
 22 23  2  0
  4 26  1  0
  9 27  1  0
 11 28  1  0
 12 29  1  0
 13 30  1  0
 16 31  1  0
 21 32  1  0
 23 33  1  0
 24 34  1  0
 25 35  1  0
M  CHG  3   1   2   5  -1  17  -1
M  END
> <Uni-Dock RESULT> 
ENERGY=   -4.373  LOWER_BOUND=    2.579  UPPER_BOUND=    3.523
INTER + INTRA:          -4.373
INTER:                  -4.373
INTRA:                   0.000
UNBOUND:                 0.000

$$$$

     RDKit          3D

 35 34  0  0  0  0  0  0  0  0999 V2000
   45.3678    5.2859   12.5980 Ca  0  0  0  0  0 15  0  0  0  0  0  0
   43.3833    4.6422   11.3233 S   0  0  0  0  0  0  0  0  0  0  0  0
   44.8655    5.1539   12.2093 C   0  0  0  0  0  0  0  0  0  0  0  0
   45.0383    4.6531   13.5059 C   0  0  0  0  0  0  0  0  0  0  0  0
   42.3177    5.1395   12.1863 O   0  0  0  0  0  0  0  0  0  0  0  0
   43.5281    5.3350   10.0413 O   0  0  0  0  0  0  0  0  0  0  0  0
   43.5367    3.1925   11.2718 O   0  0  0  0  0  0  0  0  0  0  0  0
   45.8120    6.0120   11.6442 C   0  0  0  0  0  0  0  0  0  0  0  0
   46.9398    6.3713   12.3824 C   0  0  0  0  0  0  0  0  0  0  0  0
   46.1675    5.0214   14.2270 C   0  0  0  0  0  0  0  0  0  0  0  0
   47.1186    5.8753   13.6767 C   0  0  0  0  0  0  0  0  0  0  0  0
   45.7179    6.5436   10.3870 O   0  0  0  0  0  0  0  0  0  0  0  0
   46.3761    4.5571   15.4935 O   0  0  0  0  0  0  0  0  0  0  0  0
   42.9724    4.8384   12.4006 S   0  0  0  0  0  0  0  0  0  0  0  0
   44.7258    5.2310   12.5226 C   0  0  0  0  0  0  0  0  0  0  0  0
   45.5738    4.2222   12.9972 C   0  0  0  0  0  0  0  0  0  0  0  0
   42.4057    6.0861   11.8846 O   0  0  0  0  0  0  0  0  0  0  0  0
   42.9689    3.7168   11.4680 O   0  0  0  0  0  0  0  0  0  0  0  0
   42.6284    4.5191   13.7817 O   0  0  0  0  0  0  0  0  0  0  0  0
   45.2358    6.4810   12.1641 C   0  0  0  0  0  0  0  0  0  0  0  0
   46.6046    6.7233   12.2816 C   0  0  0  0  0  0  0  0  0  0  0  0
   46.9345    4.4806   13.1078 C   0  0  0  0  0  0  0  0  0  0  0  0
   47.4564    5.7213   12.7544 C   0  0  0  0  0  0  0  0  0  0  0  0
   44.4769    7.5175   11.6931 O   0  0  0  0  0  0  0  0  0  0  0  0
   47.7970    3.5268   13.5656 O   0  0  0  0  0  0  0  0  0  0  0  0
   44.2823    3.9884   13.9133 H   0  0  0  0  0  0  0  0  0  0  0  0
   47.6771    7.0380   11.9457 H   0  0  0  0  0  0  0  0  0  0  0  0
   47.9958    6.1547   14.2511 H   0  0  0  0  0  0  0  0  0  0  0  0
   44.8727    6.1997    9.9923 H   0  0  0  0  0  0  0  0  0  0  0  0
   45.6237    3.9819   15.7152 H   0  0  0  0  0  0  0  0  0  0  0  0
   45.1427    3.2624   13.2665 H   0  0  0  0  0  0  0  0  0  0  0  0
   47.0037    7.6939   12.0038 H   0  0  0  0  0  0  0  0  0  0  0  0
   48.5212    5.9094   12.8459 H   0  0  0  0  0  0  0  0  0  0  0  0
   43.5366    7.1959   11.6662 H   0  0  0  0  0  0  0  0  0  0  0  0
   47.2690    2.7341   13.7628 H   0  0  0  0  0  0  0  0  0  0  0  0
  3  2  1  0
  4  3  2  0
  5  2  1  0
  6  2  2  0
  7  2  2  0
  8  3  1  0
  9  8  2  0
 10  4  1  0
 11  9  1  0
 12  8  1  0
 13 10  1  0
 10 11  2  0
 15 14  1  0
 16 15  2  0
 17 14  1  0
 18 14  2  0
 19 14  2  0
 20 15  1  0
 21 20  2  0
 22 16  1  0
 23 21  1  0
 24 20  1  0
 25 22  1  0
 22 23  2  0
  4 26  1  0
  9 27  1  0
 11 28  1  0
 12 29  1  0
 13 30  1  0
 16 31  1  0
 21 32  1  0
 23 33  1  0
 24 34  1  0
 25 35  1  0
M  CHG  3   1   2   5  -1  17  -1
M  END
> <Uni-Dock RESULT> 
ENERGY=   -4.191  LOWER_BOUND=    2.496  UPPER_BOUND=    4.204
INTER + INTRA:          -4.191
INTER:                  -4.191
INTRA:                   0.000
UNBOUND:                 0.000

$$$$

     RDKit          3D

 35 34  0  0  0  0  0  0  0  0999 V2000
   54.7237    6.9724    7.1603 Ca  0  0  0  0  0 15  0  0  0  0  0  0
   56.9128    8.0286    6.8956 S   0  0  0  0  0  0  0  0  0  0  0  0
   55.2712    7.3117    7.0828 C   0  0  0  0  0  0  0  0  0  0  0  0
   55.1994    5.9288    7.2932 C   0  0  0  0  0  0  0  0  0  0  0  0
   57.4264    7.3279    5.7240 O   0  0  0  0  0  0  0  0  0  0  0  0
   56.6152    9.4487    6.6977 O   0  0  0  0  0  0  0  0  0  0  0  0
   57.5454    7.6932    8.1664 O   0  0  0  0  0  0  0  0  0  0  0  0
   54.1095    8.0853    7.0237 C   0  0  0  0  0  0  0  0  0  0  0  0
   52.8668    7.4700    7.1763 C   0  0  0  0  0  0  0  0  0  0  0  0
   53.9534    5.3324    7.4431 C   0  0  0  0  0  0  0  0  0  0  0  0
   52.7879    6.0906    7.3865 C   0  0  0  0  0  0  0  0  0  0  0  0
   54.0933    9.4384    6.8221 O   0  0  0  0  0  0  0  0  0  0  0  0
   53.8369    3.9883    7.6498 O   0  0  0  0  0  0  0  0  0  0  0  0
   57.0012    7.0418    6.2740 S   0  0  0  0  0  0  0  0  0  0  0  0
   55.3035    7.0300    6.8750 C   0  0  0  0  0  0  0  0  0  0  0  0
   55.0463    6.3051    8.0456 C   0  0  0  0  0  0  0  0  0  0  0  0
   56.9033    7.8704    5.0706 O   0  0  0  0  0  0  0  0  0  0  0  0
   57.7223    7.6429    7.3905 O   0  0  0  0  0  0  0  0  0  0  0  0
   57.2578    5.6252    6.0391 O   0  0  0  0  0  0  0  0  0  0  0  0
   54.2755    7.7082    6.2159 C   0  0  0  0  0  0  0  0  0  0  0  0
   52.9804    7.6604    6.7322 C   0  0  0  0  0  0  0  0  0  0  0  0
   53.7507    6.2683    8.5459 C   0  0  0  0  0  0  0  0  0  0  0  0
   52.7167    6.9391    7.8998 C   0  0  0  0  0  0  0  0  0  0  0  0
   54.4428    8.4371    5.0701 O   0  0  0  0  0  0  0  0  0  0  0  0
   53.4550    5.5743    9.6836 O   0  0  0  0  0  0  0  0  0  0  0  0
   56.1230    5.3587    7.3334 H   0  0  0  0  0  0  0  0  0  0  0  0
   51.9623    8.0688    7.1309 H   0  0  0  0  0  0  0  0  0  0  0  0
   51.8213    5.6118    7.5052 H   0  0  0  0  0  0  0  0  0  0  0  0
   55.0406    9.7268    6.7329 H   0  0  0  0  0  0  0  0  0  0  0  0
   54.7375    3.6210    7.6609 H   0  0  0  0  0  0  0  0  0  0  0  0
   55.8698    5.7901    8.5316 H   0  0  0  0  0  0  0  0  0  0  0  0
   52.1794    8.1866    6.2220 H   0  0  0  0  0  0  0  0  0  0  0  0
   51.7094    6.9018    8.3017 H   0  0  0  0  0  0  0  0  0  0  0  0
   55.4054    8.3767    4.8294 H   0  0  0  0  0  0  0  0  0  0  0  0
   54.2835    5.1731    9.9978 H   0  0  0  0  0  0  0  0  0  0  0  0
  3  2  1  0
  4  3  2  0
  5  2  1  0
  6  2  2  0
  7  2  2  0
  8  3  1  0
  9  8  2  0
 10  4  1  0
 11  9  1  0
 12  8  1  0
 13 10  1  0
 10 11  2  0
 15 14  1  0
 16 15  2  0
 17 14  1  0
 18 14  2  0
 19 14  2  0
 20 15  1  0
 21 20  2  0
 22 16  1  0
 23 21  1  0
 24 20  1  0
 25 22  1  0
 22 23  2  0
  4 26  1  0
  9 27  1  0
 11 28  1  0
 12 29  1  0
 13 30  1  0
 16 31  1  0
 21 32  1  0
 23 33  1  0
 24 34  1  0
 25 35  1  0
M  CHG  3   1   2   5  -1  17  -1
M  END
> <Uni-Dock RESULT> 
ENERGY=   -3.888  LOWER_BOUND=   10.624  UPPER_BOUND=   12.206
INTER + INTRA:          -3.888
INTER:                  -3.888
INTRA:                   0.000
UNBOUND:                 0.000

$$$$

     RDKit          3D

 35 34  0  0  0  0  0  0  0  0999 V2000
   45.2453    5.1885   12.2500 Ca  0  0  0  0  0 15  0  0  0  0  0  0
   44.1469    3.7541   10.6027 S   0  0  0  0  0  0  0  0  0  0  0  0
   44.9420    4.8645   11.7768 C   0  0  0  0  0  0  0  0  0  0  0  0
   45.4910    4.2875   12.9290 C   0  0  0  0  0  0  0  0  0  0  0  0
   43.0845    3.1602   11.4066 O   0  0  0  0  0  0  0  0  0  0  0  0
   43.7011    4.6728    9.5531 O   0  0  0  0  0  0  0  0  0  0  0  0
   45.2387    2.8614   10.2305 O   0  0  0  0  0  0  0  0  0  0  0  0
   45.0173    6.2431   11.5645 C   0  0  0  0  0  0  0  0  0  0  0  0
   45.6468    7.0501   12.5124 C   0  0  0  0  0  0  0  0  0  0  0  0
   46.1144    5.1061   13.8627 C   0  0  0  0  0  0  0  0  0  0  0  0
   46.1968    6.4811   13.6643 C   0  0  0  0  0  0  0  0  0  0  0  0
   44.5075    6.8837   10.4682 O   0  0  0  0  0  0  0  0  0  0  0  0
   46.6630    4.5864   14.9993 O   0  0  0  0  0  0  0  0  0  0  0  0
   43.7818    3.3307   11.6301 S   0  0  0  0  0  0  0  0  0  0  0  0
   44.8075    4.7418   12.0776 C   0  0  0  0  0  0  0  0  0  0  0  0
   46.1428    4.4799   12.4099 C   0  0  0  0  0  0  0  0  0  0  0  0
   42.4879    3.9576   11.3526 O   0  0  0  0  0  0  0  0  0  0  0  0
   44.4799    2.7952   10.4666 O   0  0  0  0  0  0  0  0  0  0  0  0
   43.8347    2.5127   12.8366 O   0  0  0  0  0  0  0  0  0  0  0  0
   44.3105    6.0471   12.0979 C   0  0  0  0  0  0  0  0  0  0  0  0
   45.1562    7.0980   12.4535 C   0  0  0  0  0  0  0  0  0  0  0  0
   46.9711    5.5385   12.7616 C   0  0  0  0  0  0  0  0  0  0  0  0
   46.4896    6.8439   12.7861 C   0  0  0  0  0  0  0  0  0  0  0  0
   43.0220    6.3868   11.7876 O   0  0  0  0  0  0  0  0  0  0  0  0
   48.2787    5.3290   13.0927 O   0  0  0  0  0  0  0  0  0  0  0  0
   45.4141    3.2123   13.0612 H   0  0  0  0  0  0  0  0  0  0  0  0
   45.7068    8.1219   12.3499 H   0  0  0  0  0  0  0  0  0  0  0  0
   46.6865    7.1086   14.4017 H   0  0  0  0  0  0  0  0  0  0  0  0
   44.0964    6.1849    9.8927 H   0  0  0  0  0  0  0  0  0  0  0  0
   46.5162    3.6252   14.9747 H   0  0  0  0  0  0  0  0  0  0  0  0
   46.4950    3.4529   12.3833 H   0  0  0  0  0  0  0  0  0  0  0  0
   44.7727    8.1136   12.4701 H   0  0  0  0  0  0  0  0  0  0  0  0
   47.1477    7.6612   13.0627 H   0  0  0  0  0  0  0  0  0  0  0  0
   42.5497    5.5426   11.5583 H   0  0  0  0  0  0  0  0  0  0  0  0
   48.4421    4.3727   13.0232 H   0  0  0  0  0  0  0  0  0  0  0  0
  3  2  1  0
  4  3  2  0
  5  2  1  0
  6  2  2  0
  7  2  2  0
  8  3  1  0
  9  8  2  0
 10  4  1  0
 11  9  1  0
 12  8  1  0
 13 10  1  0
 10 11  2  0
 15 14  1  0
 16 15  2  0
 17 14  1  0
 18 14  2  0
 19 14  2  0
 20 15  1  0
 21 20  2  0
 22 16  1  0
 23 21  1  0
 24 20  1  0
 25 22  1  0
 22 23  2  0
  4 26  1  0
  9 27  1  0
 11 28  1  0
 12 29  1  0
 13 30  1  0
 16 31  1  0
 21 32  1  0
 23 33  1  0
 24 34  1  0
 25 35  1  0
M  CHG  3   1   2   5  -1  17  -1
M  END
> <Uni-Dock RESULT> 
ENERGY=   -3.886  LOWER_BOUND=    2.145  UPPER_BOUND=    3.666
INTER + INTRA:          -3.886
INTER:                  -3.886
INTRA:                   0.000
UNBOUND:                 0.000

$$$$

     RDKit          3D

 35 34  0  0  0  0  0  0  0  0999 V2000
   49.4842    5.5030   17.1620 Ca  0  0  0  0  0 15  0  0  0  0  0  0
   47.6318    4.1770   18.0496 S   0  0  0  0  0  0  0  0  0  0  0  0
   49.0373    5.1251   17.4420 C   0  0  0  0  0  0  0  0  0  0  0  0
   48.8030    5.9987   16.3725 C   0  0  0  0  0  0  0  0  0  0  0  0
   47.2387    3.4133   16.8707 O   0  0  0  0  0  0  0  0  0  0  0  0
   48.2258    3.3945   19.1355 O   0  0  0  0  0  0  0  0  0  0  0  0
   46.7069    5.2249   18.4671 O   0  0  0  0  0  0  0  0  0  0  0  0
   50.3124    5.0074   18.0003 C   0  0  0  0  0  0  0  0  0  0  0  0
   51.3606    5.7697   17.4844 C   0  0  0  0  0  0  0  0  0  0  0  0
   49.8584    6.7504   15.8710 C   0  0  0  0  0  0  0  0  0  0  0  0
   51.1338    6.6434   16.4174 C   0  0  0  0  0  0  0  0  0  0  0  0
   50.6240    4.1792   19.0439 O   0  0  0  0  0  0  0  0  0  0  0  0
   49.6751    7.6140   14.8300 O   0  0  0  0  0  0  0  0  0  0  0  0
   47.4839    4.1237   16.8906 S   0  0  0  0  0  0  0  0  0  0  0  0
   48.9944    5.0827   17.0956 C   0  0  0  0  0  0  0  0  0  0  0  0
   48.8715    6.4779   17.0774 C   0  0  0  0  0  0  0  0  0  0  0  0
   47.9744    2.7456   16.9590 O   0  0  0  0  0  0  0  0  0  0  0  0
   46.6819    4.5594   18.0284 O   0  0  0  0  0  0  0  0  0  0  0  0
   47.0161    4.5569   15.5787 O   0  0  0  0  0  0  0  0  0  0  0  0
   50.2424    4.4791   17.2665 C   0  0  0  0  0  0  0  0  0  0  0  0
   51.3759    5.2777   17.4203 C   0  0  0  0  0  0  0  0  0  0  0  0
   50.0107    7.2581   17.2320 C   0  0  0  0  0  0  0  0  0  0  0  0
   51.2605    6.6704   17.4031 C   0  0  0  0  0  0  0  0  0  0  0  0
   50.4476    3.1266   17.2959 O   0  0  0  0  0  0  0  0  0  0  0  0
   49.9372    8.6211   17.2204 O   0  0  0  0  0  0  0  0  0  0  0  0
   47.7991    6.0646   15.9633 H   0  0  0  0  0  0  0  0  0  0  0  0
   52.3526    5.6803   17.9164 H   0  0  0  0  0  0  0  0  0  0  0  0
   51.9490    7.2365   16.0159 H   0  0  0  0  0  0  0  0  0  0  0  0
   49.7855    3.7093   19.2979 H   0  0  0  0  0  0  0  0  0  0  0  0
   48.7375    7.5621   14.5765 H   0  0  0  0  0  0  0  0  0  0  0  0
   47.8855    6.9129   16.9425 H   0  0  0  0  0  0  0  0  0  0  0  0
   52.3472    4.8113   17.5533 H   0  0  0  0  0  0  0  0  0  0  0  0
   52.1420    7.2919   17.5227 H   0  0  0  0  0  0  0  0  0  0  0  0
   49.5585    2.6986   17.1751 H   0  0  0  0  0  0  0  0  0  0  0  0
   49.0021    8.8564   17.0926 H   0  0  0  0  0  0  0  0  0  0  0  0
  3  2  1  0
  4  3  2  0
  5  2  1  0
  6  2  2  0
  7  2  2  0
  8  3  1  0
  9  8  2  0
 10  4  1  0
 11  9  1  0
 12  8  1  0
 13 10  1  0
 10 11  2  0
 15 14  1  0
 16 15  2  0
 17 14  1  0
 18 14  2  0
 19 14  2  0
 20 15  1  0
 21 20  2  0
 22 16  1  0
 23 21  1  0
 24 20  1  0
 25 22  1  0
 22 23  2  0
  4 26  1  0
  9 27  1  0
 11 28  1  0
 12 29  1  0
 13 30  1  0
 16 31  1  0
 21 32  1  0
 23 33  1  0
 24 34  1  0
 25 35  1  0
M  CHG  3   1   2   5  -1  17  -1
M  END
> <Uni-Dock RESULT> 
ENERGY=   -3.818  LOWER_BOUND=    7.585  UPPER_BOUND=    8.797
INTER + INTRA:          -3.818
INTER:                  -3.818
INTRA:                   0.000
UNBOUND:                 0.000

$$$$

     RDKit          3D

 35 34  0  0  0  0  0  0  0  0999 V2000
   54.1792    6.0641    9.0809 Ca  0  0  0  0  0 15  0  0  0  0  0  0
   56.2877    4.9851    9.6870 S   0  0  0  0  0  0  0  0  0  0  0  0
   54.7517    5.7737    9.1749 C   0  0  0  0  0  0  0  0  0  0  0  0
   53.8734    6.1777   10.1885 C   0  0  0  0  0  0  0  0  0  0  0  0
   55.8092    3.8153   10.4151 O   0  0  0  0  0  0  0  0  0  0  0  0
   56.9395    4.7042    8.4061 O   0  0  0  0  0  0  0  0  0  0  0  0
   56.9168    6.0244   10.4944 O   0  0  0  0  0  0  0  0  0  0  0  0
   54.4333    5.9816    7.8307 C   0  0  0  0  0  0  0  0  0  0  0  0
   53.2270    6.5984    7.4986 C   0  0  0  0  0  0  0  0  0  0  0  0
   52.6761    6.7906    9.8398 C   0  0  0  0  0  0  0  0  0  0  0  0
   52.3459    7.0041    8.5048 C   0  0  0  0  0  0  0  0  0  0  0  0
   55.2344    5.6174    6.7831 O   0  0  0  0  0  0  0  0  0  0  0  0
   51.7910    7.2002   10.7946 O   0  0  0  0  0  0  0  0  0  0  0  0
   55.5081    4.5042   10.4143 S   0  0  0  0  0  0  0  0  0  0  0  0
   54.5242    5.6056    9.3837 C   0  0  0  0  0  0  0  0  0  0  0  0
   54.2548    6.8830    9.8913 C   0  0  0  0  0  0  0  0  0  0  0  0
   55.5892    3.2942    9.5936 O   0  0  0  0  0  0  0  0  0  0  0  0
   56.7556    5.2462   10.5599 O   0  0  0  0  0  0  0  0  0  0  0  0
   54.6906    4.3908   11.6171 O   0  0  0  0  0  0  0  0  0  0  0  0
   54.0423    5.2202    8.1305 C   0  0  0  0  0  0  0  0  0  0  0  0
   53.2852    6.1200    7.3799 C   0  0  0  0  0  0  0  0  0  0  0  0
   53.4994    7.7665    9.1303 C   0  0  0  0  0  0  0  0  0  0  0  0
   53.0128    7.3961    7.8803 C   0  0  0  0  0  0  0  0  0  0  0  0
   54.2602    3.9940    7.5640 O   0  0  0  0  0  0  0  0  0  0  0  0
   53.2129    9.0209    9.5861 O   0  0  0  0  0  0  0  0  0  0  0  0
   54.1535    6.0002   11.2226 H   0  0  0  0  0  0  0  0  0  0  0  0
   52.9769    6.7612    6.4547 H   0  0  0  0  0  0  0  0  0  0  0  0
   51.4075    7.4839    8.2467 H   0  0  0  0  0  0  0  0  0  0  0  0
   56.0457    5.1966    7.1746 H   0  0  0  0  0  0  0  0  0  0  0  0
   52.1773    6.9755   11.6586 H   0  0  0  0  0  0  0  0  0  0  0  0
   54.6456    7.1486   10.8692 H   0  0  0  0  0  0  0  0  0  0  0  0
   52.9094    5.8231    6.4055 H   0  0  0  0  0  0  0  0  0  0  0  0
   52.4240    8.0962    7.2966 H   0  0  0  0  0  0  0  0  0  0  0  0
   54.8070    3.4724    8.2099 H   0  0  0  0  0  0  0  0  0  0  0  0
   53.6254    9.1083   10.4625 H   0  0  0  0  0  0  0  0  0  0  0  0
  3  2  1  0
  4  3  2  0
  5  2  1  0
  6  2  2  0
  7  2  2  0
  8  3  1  0
  9  8  2  0
 10  4  1  0
 11  9  1  0
 12  8  1  0
 13 10  1  0
 10 11  2  0
 15 14  1  0
 16 15  2  0
 17 14  1  0
 18 14  2  0
 19 14  2  0
 20 15  1  0
 21 20  2  0
 22 16  1  0
 23 21  1  0
 24 20  1  0
 25 22  1  0
 22 23  2  0
  4 26  1  0
  9 27  1  0
 11 28  1  0
 12 29  1  0
 13 30  1  0
 16 31  1  0
 21 32  1  0
 23 33  1  0
 24 34  1  0
 25 35  1  0
M  CHG  3   1   2   5  -1  17  -1
M  END
> <Uni-Dock RESULT> 
ENERGY=   -3.729  LOWER_BOUND=    9.594  UPPER_BOUND=   10.887
INTER + INTRA:          -3.729
INTER:                  -3.729
INTRA:                   0.000
UNBOUND:                 0.000

$$$$
