
     RDKit          3D

 35 34  0  0  0  0  0  0  0  0999 V2000
   45.6200    5.5087   12.1200 Ca  0  0  0  0  0 15  0  0  0  0  0  0
   44.8695    4.6625    9.8509 S   0  0  0  0  0  0  0  0  0  0  0  0
   45.4055    5.2391   11.4716 C   0  0  0  0  0  0  0  0  0  0  0  0
   45.4804    6.6228   11.6751 C   0  0  0  0  0  0  0  0  0  0  0  0
   45.8845    5.2196    8.9640 O   0  0  0  0  0  0  0  0  0  0  0  0
   43.5323    5.2334    9.7368 O   0  0  0  0  0  0  0  0  0  0  0  0
   44.9125    3.2060   10.0077 O   0  0  0  0  0  0  0  0  0  0  0  0
   45.7377    4.3519   12.4990 C   0  0  0  0  0  0  0  0  0  0  0  0
   46.1468    4.8518   13.7353 C   0  0  0  0  0  0  0  0  0  0  0  0
   45.8895    7.1049   12.9116 C   0  0  0  0  0  0  0  0  0  0  0  0
   46.2240    6.2311   13.9453 C   0  0  0  0  0  0  0  0  0  0  0  0
   45.6935    2.9885   12.3889 O   0  0  0  0  0  0  0  0  0  0  0  0
   45.9547    8.4571   13.0856 O   0  0  0  0  0  0  0  0  0  0  0  0
   43.3333    5.1122   11.0992 S   0  0  0  0  0  0  0  0  0  0  0  0
   44.9527    5.3766   11.8435 C   0  0  0  0  0  0  0  0  0  0  0  0
   45.8105    6.2925   11.2210 C   0  0  0  0  0  0  0  0  0  0  0  0
   42.7353    6.4410   11.1594 O   0  0  0  0  0  0  0  0  0  0  0  0
   43.6718    4.6190    9.7691 O   0  0  0  0  0  0  0  0  0  0  0  0
   42.7354    4.1200   11.9968 O   0  0  0  0  0  0  0  0  0  0  0  0
   45.3543    4.7012   12.9991 C   0  0  0  0  0  0  0  0  0  0  0  0
   46.6194    4.9433   13.5341 C   0  0  0  0  0  0  0  0  0  0  0  0
   47.0670    6.5226   11.7658 C   0  0  0  0  0  0  0  0  0  0  0  0
   47.4803    5.8557   12.9184 C   0  0  0  0  0  0  0  0  0  0  0  0
   44.5834    3.7920   13.6715 O   0  0  0  0  0  0  0  0  0  0  0  0
   47.8847    7.4195   11.1413 O   0  0  0  0  0  0  0  0  0  0  0  0
   45.2191    7.3009   10.8674 H   0  0  0  0  0  0  0  0  0  0  0  0
   46.4044    4.1601   14.5317 H   0  0  0  0  0  0  0  0  0  0  0  0
   46.5442    6.5994   14.9135 H   0  0  0  0  0  0  0  0  0  0  0  0
   45.3884    2.7867   11.4640 H   0  0  0  0  0  0  0  0  0  0  0  0
   46.2533    8.6316   13.9912 H   0  0  0  0  0  0  0  0  0  0  0  0
   45.4851    6.8105   10.3230 H   0  0  0  0  0  0  0  0  0  0  0  0
   46.9287    4.4170   14.4321 H   0  0  0  0  0  0  0  0  0  0  0  0
   48.4597    6.0297   13.3500 H   0  0  0  0  0  0  0  0  0  0  0  0
   43.7228    3.7266   13.1773 H   0  0  0  0  0  0  0  0  0  0  0  0
   48.7159    7.4679   11.6378 H   0  0  0  0  0  0  0  0  0  0  0  0
  3  2  1  0
  4  3  2  0
  5  2  1  0
  6  2  2  0
  7  2  2  0
  8  3  1  0
  9  8  2  0
 10  4  1  0
 11  9  1  0
 12  8  1  0
 13 10  1  0
 10 11  2  0
 15 14  1  0
 16 15  2  0
 17 14  1  0
 18 14  2  0
 19 14  2  0
 20 15  1  0
 21 20  2  0
 22 16  1  0
 23 21  1  0
 24 20  1  0
 25 22  1  0
 22 23  2  0
  4 26  1  0
  9 27  1  0
 11 28  1  0
 12 29  1  0
 13 30  1  0
 16 31  1  0
 21 32  1  0
 23 33  1  0
 24 34  1  0
 25 35  1  0
M  CHG  3   1   2   5  -1  17  -1
M  END
> <Uni-Dock RESULT> 
ENERGY=   -4.123  LOWER_BOUND=    0.000  UPPER_BOUND=    0.000
INTER + INTRA:          -4.123
INTER:                  -4.123
INTRA:                   0.000
UNBOUND:                 0.000

$$$$

     RDKit          3D

 35 34  0  0  0  0  0  0  0  0999 V2000
   45.7413    5.8387   12.4171 Ca  0  0  0  0  0 15  0  0  0  0  0  0
   46.5151    8.1523   13.1075 S   0  0  0  0  0  0  0  0  0  0  0  0
   45.9723    6.4990   12.6403 C   0  0  0  0  0  0  0  0  0  0  0  0
   45.4344    6.3315   11.3580 C   0  0  0  0  0  0  0  0  0  0  0  0
   45.2868    8.9316   13.0013 O   0  0  0  0  0  0  0  0  0  0  0  0
   47.5467    8.4396   12.1175 O   0  0  0  0  0  0  0  0  0  0  0  0
   47.0044    7.9460   14.4734 O   0  0  0  0  0  0  0  0  0  0  0  0
   46.0773    5.4125   13.5130 C   0  0  0  0  0  0  0  0  0  0  0  0
   45.6417    4.1532   13.1006 C   0  0  0  0  0  0  0  0  0  0  0  0
   45.0052    5.0714   10.9622 C   0  0  0  0  0  0  0  0  0  0  0  0
   45.1040    3.9789   11.8228 C   0  0  0  0  0  0  0  0  0  0  0  0
   46.5885    5.4843   14.7804 O   0  0  0  0  0  0  0  0  0  0  0  0
   44.4846    4.9335    9.7081 O   0  0  0  0  0  0  0  0  0  0  0  0
   47.9086    7.1066   12.0658 S   0  0  0  0  0  0  0  0  0  0  0  0
   46.3816    6.1869   12.3284 C   0  0  0  0  0  0  0  0  0  0  0  0
   45.1991    6.7334   11.8135 C   0  0  0  0  0  0  0  0  0  0  0  0
   48.0022    7.1584   10.6114 O   0  0  0  0  0  0  0  0  0  0  0  0
   47.6369    8.3720   12.7381 O   0  0  0  0  0  0  0  0  0  0  0  0
   48.9033    6.2544   12.7230 O   0  0  0  0  0  0  0  0  0  0  0  0
   46.3600    4.9718   13.0181 C   0  0  0  0  0  0  0  0  0  0  0  0
   45.1499    4.3005   13.1933 C   0  0  0  0  0  0  0  0  0  0  0  0
   44.0023    6.0531   11.9961 C   0  0  0  0  0  0  0  0  0  0  0  0
   43.9664    4.8398   12.6822 C   0  0  0  0  0  0  0  0  0  0  0  0
   47.4642    4.3659   13.5535 O   0  0  0  0  0  0  0  0  0  0  0  0
   42.8636    6.6056   11.4851 O   0  0  0  0  0  0  0  0  0  0  0  0
   45.3589    7.1851   10.6900 H   0  0  0  0  0  0  0  0  0  0  0  0
   45.7245    3.3108   13.7809 H   0  0  0  0  0  0  0  0  0  0  0  0
   44.7712    2.9919   11.5214 H   0  0  0  0  0  0  0  0  0  0  0  0
   46.8527    6.4317   14.9284 H   0  0  0  0  0  0  0  0  0  0  0  0
   44.2343    4.0051    9.5848 H   0  0  0  0  0  0  0  0  0  0  0  0
   45.2308    7.6791   11.2793 H   0  0  0  0  0  0  0  0  0  0  0  0
   45.1361    3.3565   13.7296 H   0  0  0  0  0  0  0  0  0  0  0  0
   43.0361    4.3024   12.8291 H   0  0  0  0  0  0  0  0  0  0  0  0
   48.2395    4.9549   13.3506 H   0  0  0  0  0  0  0  0  0  0  0  0
   42.1219    6.0172   11.6935 H   0  0  0  0  0  0  0  0  0  0  0  0
  3  2  1  0
  4  3  2  0
  5  2  1  0
  6  2  2  0
  7  2  2  0
  8  3  1  0
  9  8  2  0
 10  4  1  0
 11  9  1  0
 12  8  1  0
 13 10  1  0
 10 11  2  0
 15 14  1  0
 16 15  2  0
 17 14  1  0
 18 14  2  0
 19 14  2  0
 20 15  1  0
 21 20  2  0
 22 16  1  0
 23 21  1  0
 24 20  1  0
 25 22  1  0
 22 23  2  0
  4 26  1  0
  9 27  1  0
 11 28  1  0
 12 29  1  0
 13 30  1  0
 16 31  1  0
 21 32  1  0
 23 33  1  0
 24 34  1  0
 25 35  1  0
M  CHG  3   1   2   5  -1  17  -1
M  END
> <Uni-Dock RESULT> 
ENERGY=   -3.755  LOWER_BOUND=    1.802  UPPER_BOUND=    4.008
INTER + INTRA:          -3.755
INTER:                  -3.755
INTRA:                   0.000
UNBOUND:                 0.000

$$$$

     RDKit          3D

 35 34  0  0  0  0  0  0  0  0999 V2000
   49.3803    4.8329   17.6533 Ca  0  0  0  0  0 15  0  0  0  0  0  0
   50.3495    6.9602   18.6347 S   0  0  0  0  0  0  0  0  0  0  0  0
   49.6788    5.4345   17.9501 C   0  0  0  0  0  0  0  0  0  0  0  0
   48.5776    5.5386   17.0908 C   0  0  0  0  0  0  0  0  0  0  0  0
   49.2162    7.5005   19.3769 O   0  0  0  0  0  0  0  0  0  0  0  0
   50.7461    7.6970   17.4402 O   0  0  0  0  0  0  0  0  0  0  0  0
   51.4574    6.4715   19.4602 O   0  0  0  0  0  0  0  0  0  0  0  0
   50.2252    4.1848   18.2547 C   0  0  0  0  0  0  0  0  0  0  0  0
   49.6669    3.0345   17.6972 C   0  0  0  0  0  0  0  0  0  0  0  0
   48.0332    4.3842   16.5436 C   0  0  0  0  0  0  0  0  0  0  0  0
   48.5683    3.1310   16.8392 C   0  0  0  0  0  0  0  0  0  0  0  0
   51.2976    3.9898   19.0822 O   0  0  0  0  0  0  0  0  0  0  0  0
   46.9605    4.5114   15.7093 O   0  0  0  0  0  0  0  0  0  0  0  0
   51.0604    6.5214   16.7847 S   0  0  0  0  0  0  0  0  0  0  0  0
   49.8847    5.3027   17.4002 C   0  0  0  0  0  0  0  0  0  0  0  0
   48.5923    5.7466   17.7079 C   0  0  0  0  0  0  0  0  0  0  0  0
   50.4171    6.9956   15.5648 O   0  0  0  0  0  0  0  0  0  0  0  0
   51.1344    7.4755   17.8853 O   0  0  0  0  0  0  0  0  0  0  0  0
   52.2667    5.7151   16.5785 O   0  0  0  0  0  0  0  0  0  0  0  0
   50.2328    3.9600   17.5703 C   0  0  0  0  0  0  0  0  0  0  0  0
   49.2836    3.0577   18.0503 C   0  0  0  0  0  0  0  0  0  0  0  0
   47.6585    4.8361   18.1849 C   0  0  0  0  0  0  0  0  0  0  0  0
   47.9924    3.4936   18.3593 C   0  0  0  0  0  0  0  0  0  0  0  0
   51.4686    3.4400   17.2957 O   0  0  0  0  0  0  0  0  0  0  0  0
   46.4059    5.2926   18.4777 O   0  0  0  0  0  0  0  0  0  0  0  0
   48.1632    6.5168   16.8627 H   0  0  0  0  0  0  0  0  0  0  0  0
   50.0936    2.0649   17.9357 H   0  0  0  0  0  0  0  0  0  0  0  0
   48.1491    2.2250   16.4161 H   0  0  0  0  0  0  0  0  0  0  0  0
   51.5818    4.8892   19.3979 H   0  0  0  0  0  0  0  0  0  0  0  0
   46.7003    3.6255   15.4138 H   0  0  0  0  0  0  0  0  0  0  0  0
   48.3356    6.7935   17.5708 H   0  0  0  0  0  0  0  0  0  0  0  0
   49.5569    2.0151   18.1815 H   0  0  0  0  0  0  0  0  0  0  0  0
   47.2692    2.7764   18.7312 H   0  0  0  0  0  0  0  0  0  0  0  0
   52.0286    4.1934   16.9669 H   0  0  0  0  0  0  0  0  0  0  0  0
   45.8779    4.5444   18.7957 H   0  0  0  0  0  0  0  0  0  0  0  0
  3  2  1  0
  4  3  2  0
  5  2  1  0
  6  2  2  0
  7  2  2  0
  8  3  1  0
  9  8  2  0
 10  4  1  0
 11  9  1  0
 12  8  1  0
 13 10  1  0
 10 11  2  0
 15 14  1  0
 16 15  2  0
 17 14  1  0
 18 14  2  0
 19 14  2  0
 20 15  1  0
 21 20  2  0
 22 16  1  0
 23 21  1  0
 24 20  1  0
 25 22  1  0
 22 23  2  0
  4 26  1  0
  9 27  1  0
 11 28  1  0
 12 29  1  0
 13 30  1  0
 16 31  1  0
 21 32  1  0
 23 33  1  0
 24 34  1  0
 25 35  1  0
M  CHG  3   1   2   5  -1  17  -1
M  END
> <Uni-Dock RESULT> 
ENERGY=   -3.638  LOWER_BOUND=    6.351  UPPER_BOUND=    8.189
INTER + INTRA:          -3.638
INTER:                  -3.638
INTRA:                   0.000
UNBOUND:                 0.000

$$$$

     RDKit          3D

 35 34  0  0  0  0  0  0  0  0999 V2000
   49.4559    5.4786   17.1967 Ca  0  0  0  0  0 15  0  0  0  0  0  0
   47.8202    3.7452   16.3318 S   0  0  0  0  0  0  0  0  0  0  0  0
   49.0007    4.9583   16.9493 C   0  0  0  0  0  0  0  0  0  0  0  0
   48.5748    6.2895   17.0397 C   0  0  0  0  0  0  0  0  0  0  0  0
   47.5250    4.2424   14.9928 O   0  0  0  0  0  0  0  0  0  0  0  0
   46.7365    3.8331   17.3039 O   0  0  0  0  0  0  0  0  0  0  0  0
   48.5965    2.5031   16.3767 O   0  0  0  0  0  0  0  0  0  0  0  0
   50.2974    4.6011   17.3286 C   0  0  0  0  0  0  0  0  0  0  0  0
   51.1716    5.5804   17.8002 C   0  0  0  0  0  0  0  0  0  0  0  0
   49.4568    7.2529   17.5113 C   0  0  0  0  0  0  0  0  0  0  0  0
   50.7534    6.9104   17.8930 C   0  0  0  0  0  0  0  0  0  0  0  0
   50.7970    3.3282   17.2736 O   0  0  0  0  0  0  0  0  0  0  0  0
   49.0187    8.5432   17.5901 O   0  0  0  0  0  0  0  0  0  0  0  0
   47.6309    4.1216   18.3175 S   0  0  0  0  0  0  0  0  0  0  0  0
   48.9455    5.0751   17.5371 C   0  0  0  0  0  0  0  0  0  0  0  0
   48.5885    5.9369   16.4922 C   0  0  0  0  0  0  0  0  0  0  0  0
   46.7504    5.1612   18.8380 O   0  0  0  0  0  0  0  0  0  0  0  0
   47.1086    3.3329   17.2074 O   0  0  0  0  0  0  0  0  0  0  0  0
   48.3601    3.3580   19.3338 O   0  0  0  0  0  0  0  0  0  0  0  0
   50.2775    4.9706   17.9467 C   0  0  0  0  0  0  0  0  0  0  0  0
   51.2563    5.7319   17.3082 C   0  0  0  0  0  0  0  0  0  0  0  0
   49.5746    6.6882   15.8664 C   0  0  0  0  0  0  0  0  0  0  0  0
   50.9073    6.5938   16.2651 C   0  0  0  0  0  0  0  0  0  0  0  0
   50.7153    4.1565   18.9559 O   0  0  0  0  0  0  0  0  0  0  0  0
   49.2021    7.5209   14.8510 O   0  0  0  0  0  0  0  0  0  0  0  0
   47.5637    6.5529   16.7414 H   0  0  0  0  0  0  0  0  0  0  0  0
   52.1786    5.2999   18.0942 H   0  0  0  0  0  0  0  0  0  0  0  0
   51.4481    7.6565   18.2621 H   0  0  0  0  0  0  0  0  0  0  0  0
   50.0676    2.7503   16.9225 H   0  0  0  0  0  0  0  0  0  0  0  0
   49.7429    9.0883   17.9338 H   0  0  0  0  0  0  0  0  0  0  0  0
   47.5490    6.0080   16.1841 H   0  0  0  0  0  0  0  0  0  0  0  0
   52.2905    5.6487   17.6286 H   0  0  0  0  0  0  0  0  0  0  0  0
   51.6833    7.1769   15.7817 H   0  0  0  0  0  0  0  0  0  0  0  0
   49.9145    3.6842   19.3094 H   0  0  0  0  0  0  0  0  0  0  0  0
   49.9954    7.9701   14.5215 H   0  0  0  0  0  0  0  0  0  0  0  0
  3  2  1  0
  4  3  2  0
  5  2  1  0
  6  2  2  0
  7  2  2  0
  8  3  1  0
  9  8  2  0
 10  4  1  0
 11  9  1  0
 12  8  1  0
 13 10  1  0
 10 11  2  0
 15 14  1  0
 16 15  2  0
 17 14  1  0
 18 14  2  0
 19 14  2  0
 20 15  1  0
 21 20  2  0
 22 16  1  0
 23 21  1  0
 24 20  1  0
 25 22  1  0
 22 23  2  0
  4 26  1  0
  9 27  1  0
 11 28  1  0
 12 29  1  0
 13 30  1  0
 16 31  1  0
 21 32  1  0
 23 33  1  0
 24 34  1  0
 25 35  1  0
M  CHG  3   1   2   5  -1  17  -1
M  END
> <Uni-Dock RESULT> 
ENERGY=   -3.574  LOWER_BOUND=    5.547  UPPER_BOUND=    6.854
INTER + INTRA:          -3.574
INTER:                  -3.574
INTRA:                   0.000
UNBOUND:                 0.000

$$$$

     RDKit          3D

 35 34  0  0  0  0  0  0  0  0999 V2000
   54.5460    6.9528    7.5111 Ca  0  0  0  0  0 15  0  0  0  0  0  0
   56.7027    7.2544    6.2128 S   0  0  0  0  0  0  0  0  0  0  0  0
   55.1571    7.0527    7.1165 C   0  0  0  0  0  0  0  0  0  0  0  0
   55.2065    6.3776    8.3427 C   0  0  0  0  0  0  0  0  0  0  0  0
   57.1169    5.8755    5.9803 O   0  0  0  0  0  0  0  0  0  0  0  0
   57.5187    8.0224    7.1463 O   0  0  0  0  0  0  0  0  0  0  0  0
   56.2723    7.9844    5.0171 O   0  0  0  0  0  0  0  0  0  0  0  0
   53.9447    7.5458    6.6267 C   0  0  0  0  0  0  0  0  0  0  0  0
   52.7769    7.3622    7.3670 C   0  0  0  0  0  0  0  0  0  0  0  0
   54.0353    6.2028    9.0681 C   0  0  0  0  0  0  0  0  0  0  0  0
   52.8189    6.6895    8.5910 C   0  0  0  0  0  0  0  0  0  0  0  0
   53.8038    8.2157    5.4416 O   0  0  0  0  0  0  0  0  0  0  0  0
   54.1089    5.5417   10.2598 O   0  0  0  0  0  0  0  0  0  0  0  0
   56.4011    8.6770    7.6290 S   0  0  0  0  0  0  0  0  0  0  0  0
   55.0656    7.4708    7.5397 C   0  0  0  0  0  0  0  0  0  0  0  0
   55.3890    6.1275    7.7696 C   0  0  0  0  0  0  0  0  0  0  0  0
   56.8716    8.5290    9.0015 O   0  0  0  0  0  0  0  0  0  0  0  0
   57.3113    8.2211    6.5846 O   0  0  0  0  0  0  0  0  0  0  0  0
   55.7056    9.9347    7.3423 O   0  0  0  0  0  0  0  0  0  0  0  0
   53.7501    7.8446    7.2527 C   0  0  0  0  0  0  0  0  0  0  0  0
   52.7539    6.8700    7.1956 C   0  0  0  0  0  0  0  0  0  0  0  0
   54.3861    5.1689    7.7093 C   0  0  0  0  0  0  0  0  0  0  0  0
   53.0693    5.5280    7.4240 C   0  0  0  0  0  0  0  0  0  0  0  0
   53.3449    9.1300    7.0153 O   0  0  0  0  0  0  0  0  0  0  0  0
   54.7259    3.8667    7.9370 O   0  0  0  0  0  0  0  0  0  0  0  0
   56.1562    5.9996    8.7114 H   0  0  0  0  0  0  0  0  0  0  0  0
   51.8363    7.7464    6.9838 H   0  0  0  0  0  0  0  0  0  0  0  0
   51.9000    6.5573    9.1512 H   0  0  0  0  0  0  0  0  0  0  0  0
   54.7094    8.2678    5.0338 H   0  0  0  0  0  0  0  0  0  0  0  0
   53.2179    5.5022   10.6396 H   0  0  0  0  0  0  0  0  0  0  0  0
   56.4162    5.8512    7.9917 H   0  0  0  0  0  0  0  0  0  0  0  0
   51.7325    7.1633    6.9724 H   0  0  0  0  0  0  0  0  0  0  0  0
   52.2804    4.7857    7.3750 H   0  0  0  0  0  0  0  0  0  0  0  0
   54.1546    9.7028    7.0896 H   0  0  0  0  0  0  0  0  0  0  0  0
   53.9244    3.3269    7.8600 H   0  0  0  0  0  0  0  0  0  0  0  0
  3  2  1  0
  4  3  2  0
  5  2  1  0
  6  2  2  0
  7  2  2  0
  8  3  1  0
  9  8  2  0
 10  4  1  0
 11  9  1  0
 12  8  1  0
 13 10  1  0
 10 11  2  0
 15 14  1  0
 16 15  2  0
 17 14  1  0
 18 14  2  0
 19 14  2  0
 20 15  1  0
 21 20  2  0
 22 16  1  0
 23 21  1  0
 24 20  1  0
 25 22  1  0
 22 23  2  0
  4 26  1  0
  9 27  1  0
 11 28  1  0
 12 29  1  0
 13 30  1  0
 16 31  1  0
 21 32  1  0
 23 33  1  0
 24 34  1  0
 25 35  1  0
M  CHG  3   1   2   5  -1  17  -1
M  END
> <Uni-Dock RESULT> 
ENERGY=   -3.480  LOWER_BOUND=    9.365  UPPER_BOUND=   11.320
INTER + INTRA:          -3.480
INTER:                  -3.480
INTRA:                   0.000
UNBOUND:                 0.000

$$$$

     RDKit          3D

 35 34  0  0  0  0  0  0  0  0999 V2000
   48.5105    6.1079   17.8004 Ca  0  0  0  0  0 15  0  0  0  0  0  0
   48.8398    6.9693   15.4387 S   0  0  0  0  0  0  0  0  0  0  0  0
   48.5970    6.3807   17.1242 C   0  0  0  0  0  0  0  0  0  0  0  0
   48.9196    5.0454   17.3973 C   0  0  0  0  0  0  0  0  0  0  0  0
   47.9579    6.0996   14.6685 O   0  0  0  0  0  0  0  0  0  0  0  0
   50.2711    6.7747   15.2373 O   0  0  0  0  0  0  0  0  0  0  0  0
   48.4092    8.3671   15.5309 O   0  0  0  0  0  0  0  0  0  0  0  0
   48.1061    7.2127   18.1341 C   0  0  0  0  0  0  0  0  0  0  0  0
   47.9371    6.7060   19.4226 C   0  0  0  0  0  0  0  0  0  0  0  0
   48.7458    4.5558   18.6852 C   0  0  0  0  0  0  0  0  0  0  0  0
   48.2567    5.3748   19.7021 C   0  0  0  0  0  0  0  0  0  0  0  0
   47.7661    8.5265   17.9575 O   0  0  0  0  0  0  0  0  0  0  0  0
   49.0670    3.2514   18.9266 O   0  0  0  0  0  0  0  0  0  0  0  0
   50.5234    7.0374   16.5707 S   0  0  0  0  0  0  0  0  0  0  0  0
   49.0949    6.3963   17.4621 C   0  0  0  0  0  0  0  0  0  0  0  0
   48.4807    5.2426   16.9583 C   0  0  0  0  0  0  0  0  0  0  0  0
   51.4663    5.9271   16.6410 O   0  0  0  0  0  0  0  0  0  0  0  0
   49.9708    7.3293   15.2529 O   0  0  0  0  0  0  0  0  0  0  0  0
   50.8865    8.2129   17.3669 O   0  0  0  0  0  0  0  0  0  0  0  0
   48.6045    7.0149   18.6152 C   0  0  0  0  0  0  0  0  0  0  0  0
   47.4950    6.4767   19.2670 C   0  0  0  0  0  0  0  0  0  0  0  0
   47.3769    4.7189   17.6184 C   0  0  0  0  0  0  0  0  0  0  0  0
   46.8774    5.3260   18.7700 C   0  0  0  0  0  0  0  0  0  0  0  0
   49.1406    8.1421   19.1764 O   0  0  0  0  0  0  0  0  0  0  0  0
   46.7958    3.5941   17.1084 O   0  0  0  0  0  0  0  0  0  0  0  0
   49.3004    4.4100   16.6025 H   0  0  0  0  0  0  0  0  0  0  0  0
   47.5553    7.3548   20.2052 H   0  0  0  0  0  0  0  0  0  0  0  0
   48.1182    5.0003   20.7102 H   0  0  0  0  0  0  0  0  0  0  0  0
   47.9389    8.7400   17.0016 H   0  0  0  0  0  0  0  0  0  0  0  0
   48.8916    3.0646   19.8616 H   0  0  0  0  0  0  0  0  0  0  0  0
   48.8727    4.7721   16.0607 H   0  0  0  0  0  0  0  0  0  0  0  0
   47.1162    6.9596   20.1628 H   0  0  0  0  0  0  0  0  0  0  0  0
   46.0160    4.9234   19.2914 H   0  0  0  0  0  0  0  0  0  0  0  0
   49.9136    8.4040   18.6080 H   0  0  0  0  0  0  0  0  0  0  0  0
   46.0466    3.3566   17.6758 H   0  0  0  0  0  0  0  0  0  0  0  0
  3  2  1  0
  4  3  2  0
  5  2  1  0
  6  2  2  0
  7  2  2  0
  8  3  1  0
  9  8  2  0
 10  4  1  0
 11  9  1  0
 12  8  1  0
 13 10  1  0
 10 11  2  0
 15 14  1  0
 16 15  2  0
 17 14  1  0
 18 14  2  0
 19 14  2  0
 20 15  1  0
 21 20  2  0
 22 16  1  0
 23 21  1  0
 24 20  1  0
 25 22  1  0
 22 23  2  0
  4 26  1  0
  9 27  1  0
 11 28  1  0
 12 29  1  0
 13 30  1  0
 16 31  1  0
 21 32  1  0
 23 33  1  0
 24 34  1  0
 25 35  1  0
M  CHG  3   1   2   5  -1  17  -1
M  END
> <Uni-Dock RESULT> 
ENERGY=   -3.376  LOWER_BOUND=    5.604  UPPER_BOUND=    7.551
INTER + INTRA:          -3.376
INTER:                  -3.376
INTRA:                   0.000
UNBOUND:                 0.000

$$$$

     RDKit          3D

 35 34  0  0  0  0  0  0  0  0999 V2000
   49.8345    4.6520   18.5597 Ca  0  0  0  0  0 15  0  0  0  0  0  0
   48.3864    3.0009   17.2929 S   0  0  0  0  0  0  0  0  0  0  0  0
   49.4032    4.1678   18.2154 C   0  0  0  0  0  0  0  0  0  0  0  0
   50.3581    4.9017   17.5004 C   0  0  0  0  0  0  0  0  0  0  0  0
   49.3769    2.0833   16.7416 O   0  0  0  0  0  0  0  0  0  0  0  0
   47.7042    3.8627   16.3343 O   0  0  0  0  0  0  0  0  0  0  0  0
   47.5307    2.4364   18.3402 O   0  0  0  0  0  0  0  0  0  0  0  0
   49.2574    4.3464   19.5937 C   0  0  0  0  0  0  0  0  0  0  0  0
   50.0709    5.2634   20.2593 C   0  0  0  0  0  0  0  0  0  0  0  0
   51.1605    5.8109   18.1774 C   0  0  0  0  0  0  0  0  0  0  0  0
   51.0257    5.9989   19.5524 C   0  0  0  0  0  0  0  0  0  0  0  0
   48.3530    3.6739   20.3700 O   0  0  0  0  0  0  0  0  0  0  0  0
   52.0837    6.5141   17.4590 O   0  0  0  0  0  0  0  0  0  0  0  0
   47.6828    4.9043   17.2426 S   0  0  0  0  0  0  0  0  0  0  0  0
   49.1996    4.7339   18.2001 C   0  0  0  0  0  0  0  0  0  0  0  0
   50.3347    4.2518   17.5359 C   0  0  0  0  0  0  0  0  0  0  0  0
   48.0669    5.8550   16.2055 O   0  0  0  0  0  0  0  0  0  0  0  0
   47.4309    3.5375   16.8007 O   0  0  0  0  0  0  0  0  0  0  0  0
   46.7403    5.4191   18.2398 O   0  0  0  0  0  0  0  0  0  0  0  0
   49.2589    5.0659   19.5562 C   0  0  0  0  0  0  0  0  0  0  0  0
   50.4591    4.9149   20.2506 C   0  0  0  0  0  0  0  0  0  0  0  0
   51.5222    4.1069   18.2410 C   0  0  0  0  0  0  0  0  0  0  0  0
   51.5954    4.4345   19.5943 C   0  0  0  0  0  0  0  0  0  0  0  0
   48.2020    5.5427   20.2832 O   0  0  0  0  0  0  0  0  0  0  0  0
   52.6145    3.6354   17.5720 O   0  0  0  0  0  0  0  0  0  0  0  0
   50.4604    4.7526   16.4290 H   0  0  0  0  0  0  0  0  0  0  0  0
   49.9554    5.4000   21.3304 H   0  0  0  0  0  0  0  0  0  0  0  0
   51.6482    6.7067   20.0883 H   0  0  0  0  0  0  0  0  0  0  0  0
   47.8529    3.0650   19.7630 H   0  0  0  0  0  0  0  0  0  0  0  0
   52.5587    7.1000   18.0680 H   0  0  0  0  0  0  0  0  0  0  0  0
   50.2741    3.9975   16.4812 H   0  0  0  0  0  0  0  0  0  0  0  0
   50.5022    5.1736   21.3043 H   0  0  0  0  0  0  0  0  0  0  0  0
   52.5187    4.3243   20.1521 H   0  0  0  0  0  0  0  0  0  0  0  0
   47.4280    5.5952   19.6608 H   0  0  0  0  0  0  0  0  0  0  0  0
   53.3557    3.5920   18.1952 H   0  0  0  0  0  0  0  0  0  0  0  0
  3  2  1  0
  4  3  2  0
  5  2  1  0
  6  2  2  0
  7  2  2  0
  8  3  1  0
  9  8  2  0
 10  4  1  0
 11  9  1  0
 12  8  1  0
 13 10  1  0
 10 11  2  0
 15 14  1  0
 16 15  2  0
 17 14  1  0
 18 14  2  0
 19 14  2  0
 20 15  1  0
 21 20  2  0
 22 16  1  0
 23 21  1  0
 24 20  1  0
 25 22  1  0
 22 23  2  0
  4 26  1  0
  9 27  1  0
 11 28  1  0
 12 29  1  0
 13 30  1  0
 16 31  1  0
 21 32  1  0
 23 33  1  0
 24 34  1  0
 25 35  1  0
M  CHG  3   1   2   5  -1  17  -1
M  END
> <Uni-Dock RESULT> 
ENERGY=   -3.327  LOWER_BOUND=    6.715  UPPER_BOUND=    7.958
INTER + INTRA:          -3.327
INTER:                  -3.327
INTRA:                   0.000
UNBOUND:                 0.000

$$$$

     RDKit          3D

 35 34  0  0  0  0  0  0  0  0999 V2000
   47.9982   10.9482   20.9852 Ca  0  0  0  0  0 15  0  0  0  0  0  0
   48.8927   11.0312   23.3560 S   0  0  0  0  0  0  0  0  0  0  0  0
   48.2418   10.9520   21.6778 C   0  0  0  0  0  0  0  0  0  0  0  0
   48.7238   11.8848   20.7509 C   0  0  0  0  0  0  0  0  0  0  0  0
   48.5056   12.3707   23.7838 O   0  0  0  0  0  0  0  0  0  0  0  0
   50.3197   10.8078   23.1542 O   0  0  0  0  0  0  0  0  0  0  0  0
   48.1797    9.9362   24.0195 O   0  0  0  0  0  0  0  0  0  0  0  0
   47.2909   10.0009   21.2980 C   0  0  0  0  0  0  0  0  0  0  0  0
   46.8202    9.9836   19.9851 C   0  0  0  0  0  0  0  0  0  0  0  0
   48.2454   11.8547   19.4475 C   0  0  0  0  0  0  0  0  0  0  0  0
   47.2966   10.9114   19.0552 C   0  0  0  0  0  0  0  0  0  0  0  0
   46.7658    9.0542   22.1353 O   0  0  0  0  0  0  0  0  0  0  0  0
   48.7301   12.7740   18.5626 O   0  0  0  0  0  0  0  0  0  0  0  0
   50.0665    9.9741   22.0812 S   0  0  0  0  0  0  0  0  0  0  0  0
   48.5888   10.6421   21.2960 C   0  0  0  0  0  0  0  0  0  0  0  0
   48.4206   12.0326   21.3081 C   0  0  0  0  0  0  0  0  0  0  0  0
   51.1413   10.5901   21.3116 O   0  0  0  0  0  0  0  0  0  0  0  0
   49.9240   10.4242   23.4611 O   0  0  0  0  0  0  0  0  0  0  0  0
   49.9035    8.5320   21.8776 O   0  0  0  0  0  0  0  0  0  0  0  0
   47.6355    9.8176   20.6925 C   0  0  0  0  0  0  0  0  0  0  0  0
   46.5092   10.3869   20.0986 C   0  0  0  0  0  0  0  0  0  0  0  0
   47.2939   12.5843   20.7127 C   0  0  0  0  0  0  0  0  0  0  0  0
   46.3350   11.7733   20.1069 C   0  0  0  0  0  0  0  0  0  0  0  0
   47.7184    8.4527   20.6340 O   0  0  0  0  0  0  0  0  0  0  0  0
   47.1523   13.9417   20.7372 O   0  0  0  0  0  0  0  0  0  0  0  0
   49.4632   12.6186   21.0600 H   0  0  0  0  0  0  0  0  0  0  0  0
   46.0812    9.2435   19.6929 H   0  0  0  0  0  0  0  0  0  0  0  0
   46.9180   10.8811   18.0396 H   0  0  0  0  0  0  0  0  0  0  0  0
   47.1920    9.1909   23.0235 H   0  0  0  0  0  0  0  0  0  0  0  0
   48.3029   12.6235   17.7055 H   0  0  0  0  0  0  0  0  0  0  0  0
   49.1699   12.6616   21.7810 H   0  0  0  0  0  0  0  0  0  0  0  0
   45.7701    9.7437   19.6305 H   0  0  0  0  0  0  0  0  0  0  0  0
   45.4524   12.1962   19.6398 H   0  0  0  0  0  0  0  0  0  0  0  0
   48.5633    8.1982   21.0929 H   0  0  0  0  0  0  0  0  0  0  0  0
   46.3247   14.1678   20.2860 H   0  0  0  0  0  0  0  0  0  0  0  0
  3  2  1  0
  4  3  2  0
  5  2  1  0
  6  2  2  0
  7  2  2  0
  8  3  1  0
  9  8  2  0
 10  4  1  0
 11  9  1  0
 12  8  1  0
 13 10  1  0
 10 11  2  0
 15 14  1  0
 16 15  2  0
 17 14  1  0
 18 14  2  0
 19 14  2  0
 20 15  1  0
 21 20  2  0
 22 16  1  0
 23 21  1  0
 24 20  1  0
 25 22  1  0
 22 23  2  0
  4 26  1  0
  9 27  1  0
 11 28  1  0
 12 29  1  0
 13 30  1  0
 16 31  1  0
 21 32  1  0
 23 33  1  0
 24 34  1  0
 25 35  1  0
M  CHG  3   1   2   5  -1  17  -1
M  END
> <Uni-Dock RESULT> 
ENERGY=   -3.326  LOWER_BOUND=   10.086  UPPER_BOUND=   11.928
INTER + INTRA:          -3.326
INTER:                  -3.326
INTRA:                   0.000
UNBOUND:                 0.000

$$$$

     RDKit          3D

 35 34  0  0  0  0  0  0  0  0999 V2000
   54.9497    6.5680    7.6956 Ca  0  0  0  0  0 15  0  0  0  0  0  0
   56.3098    8.7025    7.5481 S   0  0  0  0  0  0  0  0  0  0  0  0
   55.3646    7.1728    7.6611 C   0  0  0  0  0  0  0  0  0  0  0  0
   54.0076    7.2224    7.3176 C   0  0  0  0  0  0  0  0  0  0  0  0
   55.6133    9.5762    8.4855 O   0  0  0  0  0  0  0  0  0  0  0  0
   56.1888    9.0473    6.1362 O   0  0  0  0  0  0  0  0  0  0  0  0
   57.6463    8.2757    7.9715 O   0  0  0  0  0  0  0  0  0  0  0  0
   55.9482    5.9721    8.0742 C   0  0  0  0  0  0  0  0  0  0  0  0
   55.1705    4.8163    8.1441 C   0  0  0  0  0  0  0  0  0  0  0  0
   53.2466    6.0632    7.3922 C   0  0  0  0  0  0  0  0  0  0  0  0
   53.8161    4.8586    7.8029 C   0  0  0  0  0  0  0  0  0  0  0  0
   57.2629    5.8319    8.4278 O   0  0  0  0  0  0  0  0  0  0  0  0
   51.9267    6.1369    7.0525 O   0  0  0  0  0  0  0  0  0  0  0  0
   56.1594    7.7112    5.7831 S   0  0  0  0  0  0  0  0  0  0  0  0
   55.3149    6.8776    7.1390 C   0  0  0  0  0  0  0  0  0  0  0  0
   54.2879    7.5740    7.7888 C   0  0  0  0  0  0  0  0  0  0  0  0
   55.0770    7.9551    4.8367 O   0  0  0  0  0  0  0  0  0  0  0  0
   56.7213    8.8887    6.4349 O   0  0  0  0  0  0  0  0  0  0  0  0
   57.1397    6.7068    5.3613 O   0  0  0  0  0  0  0  0  0  0  0  0
   55.6592    5.5841    7.5404 C   0  0  0  0  0  0  0  0  0  0  0  0
   54.9729    4.9849    8.5965 C   0  0  0  0  0  0  0  0  0  0  0  0
   53.6140    6.9640    8.8386 C   0  0  0  0  0  0  0  0  0  0  0  0
   53.9472    5.6738    9.2493 C   0  0  0  0  0  0  0  0  0  0  0  0
   56.6465    4.8319    6.9640 O   0  0  0  0  0  0  0  0  0  0  0  0
   52.6171    7.6626    9.4560 O   0  0  0  0  0  0  0  0  0  0  0  0
   53.5671    8.1629    6.9980 H   0  0  0  0  0  0  0  0  0  0  0  0
   55.6267    3.8848    8.4655 H   0  0  0  0  0  0  0  0  0  0  0  0
   53.2289    3.9492    7.8638 H   0  0  0  0  0  0  0  0  0  0  0  0
   57.6822    6.7284    8.3286 H   0  0  0  0  0  0  0  0  0  0  0  0
   51.5380    5.2548    7.1558 H   0  0  0  0  0  0  0  0  0  0  0  0
   54.0309    8.5793    7.4661 H   0  0  0  0  0  0  0  0  0  0  0  0
   55.2426    3.9797    8.9062 H   0  0  0  0  0  0  0  0  0  0  0  0
   53.4259    5.1904   10.0681 H   0  0  0  0  0  0  0  0  0  0  0  0
   57.0392    5.3852    6.2368 H   0  0  0  0  0  0  0  0  0  0  0  0
   52.2489    7.1067   10.1596 H   0  0  0  0  0  0  0  0  0  0  0  0
  3  2  1  0
  4  3  2  0
  5  2  1  0
  6  2  2  0
  7  2  2  0
  8  3  1  0
  9  8  2  0
 10  4  1  0
 11  9  1  0
 12  8  1  0
 13 10  1  0
 10 11  2  0
 15 14  1  0
 16 15  2  0
 17 14  1  0
 18 14  2  0
 19 14  2  0
 20 15  1  0
 21 20  2  0
 22 16  1  0
 23 21  1  0
 24 20  1  0
 25 22  1  0
 22 23  2  0
  4 26  1  0
  9 27  1  0
 11 28  1  0
 12 29  1  0
 13 30  1  0
 16 31  1  0
 21 32  1  0
 23 33  1  0
 24 34  1  0
 25 35  1  0
M  CHG  3   1   2   5  -1  17  -1
M  END
> <Uni-Dock RESULT> 
ENERGY=   -3.225  LOWER_BOUND=    9.258  UPPER_BOUND=   11.392
INTER + INTRA:          -3.225
INTER:                  -3.225
INTRA:                   0.000
UNBOUND:                 0.000

$$$$
