
     RDKit          3D

 35 34  0  0  0  0  0  0  0  0999 V2000
   45.3579    5.5865   12.4962 Ca  0  0  0  0  0 15  0  0  0  0  0  0
   43.9223    3.7660   11.7202 S   0  0  0  0  0  0  0  0  0  0  0  0
   44.9326    5.1514   12.2708 C   0  0  0  0  0  0  0  0  0  0  0  0
   46.1673    4.8468   12.8581 C   0  0  0  0  0  0  0  0  0  0  0  0
   44.7865    3.1221   10.7371 O   0  0  0  0  0  0  0  0  0  0  0  0
   42.7403    4.4359   11.1740 O   0  0  0  0  0  0  0  0  0  0  0  0
   43.7060    3.0270   12.9591 O   0  0  0  0  0  0  0  0  0  0  0  0
   44.5196    6.4781   12.1267 C   0  0  0  0  0  0  0  0  0  0  0  0
   45.3483    7.5074   12.5737 C   0  0  0  0  0  0  0  0  0  0  0  0
   46.9801    5.8843   13.2978 C   0  0  0  0  0  0  0  0  0  0  0  0
   46.5814    7.2106   13.1607 C   0  0  0  0  0  0  0  0  0  0  0  0
   43.3315    6.8594   11.5653 O   0  0  0  0  0  0  0  0  0  0  0  0
   48.1908    5.6333   13.8759 O   0  0  0  0  0  0  0  0  0  0  0  0
   47.3625    5.1035   13.8097 S   0  0  0  0  0  0  0  0  0  0  0  0
   45.9248    5.4926   12.7973 C   0  0  0  0  0  0  0  0  0  0  0  0
   44.6830    5.0259   13.2468 C   0  0  0  0  0  0  0  0  0  0  0  0
   47.0306    5.7404   15.0792 O   0  0  0  0  0  0  0  0  0  0  0  0
   48.4540    5.7288   13.0599 O   0  0  0  0  0  0  0  0  0  0  0  0
   47.3582    3.6448   13.8086 O   0  0  0  0  0  0  0  0  0  0  0  0
   46.0245    6.2264   11.6128 C   0  0  0  0  0  0  0  0  0  0  0  0
   44.8729    6.4950   10.8729 C   0  0  0  0  0  0  0  0  0  0  0  0
   43.5462    5.3026   12.4975 C   0  0  0  0  0  0  0  0  0  0  0  0
   43.6307    6.0324   11.3155 C   0  0  0  0  0  0  0  0  0  0  0  0
   47.1969    6.7171   11.1059 O   0  0  0  0  0  0  0  0  0  0  0  0
   42.3161    4.8673   12.8981 O   0  0  0  0  0  0  0  0  0  0  0  0
   46.4561    3.8043   12.9540 H   0  0  0  0  0  0  0  0  0  0  0  0
   45.0299    8.5394   12.4631 H   0  0  0  0  0  0  0  0  0  0  0  0
   47.2263    8.0110   13.5085 H   0  0  0  0  0  0  0  0  0  0  0  0
   42.8588    6.0260   11.2998 H   0  0  0  0  0  0  0  0  0  0  0  0
   48.3064    4.6677   13.8907 H   0  0  0  0  0  0  0  0  0  0  0  0
   44.6430    4.4586   14.1721 H   0  0  0  0  0  0  0  0  0  0  0  0
   44.9474    7.0651    9.9520 H   0  0  0  0  0  0  0  0  0  0  0  0
   42.7346    6.2412   10.7402 H   0  0  0  0  0  0  0  0  0  0  0  0
   47.9172    6.4477   11.7359 H   0  0  0  0  0  0  0  0  0  0  0  0
   42.4414    4.3817   13.7313 H   0  0  0  0  0  0  0  0  0  0  0  0
  3  2  1  0
  4  3  2  0
  5  2  1  0
  6  2  2  0
  7  2  2  0
  8  3  1  0
  9  8  2  0
 10  4  1  0
 11  9  1  0
 12  8  1  0
 13 10  1  0
 10 11  2  0
 15 14  1  0
 16 15  2  0
 17 14  1  0
 18 14  2  0
 19 14  2  0
 20 15  1  0
 21 20  2  0
 22 16  1  0
 23 21  1  0
 24 20  1  0
 25 22  1  0
 22 23  2  0
  4 26  1  0
  9 27  1  0
 11 28  1  0
 12 29  1  0
 13 30  1  0
 16 31  1  0
 21 32  1  0
 23 33  1  0
 24 34  1  0
 25 35  1  0
M  CHG  3   1   2   5  -1  17  -1
M  END
> <Uni-Dock RESULT> 
ENERGY=   -4.705  LOWER_BOUND=    0.000  UPPER_BOUND=    0.000
INTER + INTRA:          -4.705
INTER:                  -4.705
INTRA:                   0.000
UNBOUND:                 0.000

$$$$

     RDKit          3D

 35 34  0  0  0  0  0  0  0  0999 V2000
   44.2412    4.4611   10.9788 Ca  0  0  0  0  0 15  0  0  0  0  0  0
   44.4458    6.7700   11.7562 S   0  0  0  0  0  0  0  0  0  0  0  0
   44.2528    5.0568   11.2355 C   0  0  0  0  0  0  0  0  0  0  0  0
   44.9562    4.6543   10.0930 C   0  0  0  0  0  0  0  0  0  0  0  0
   45.8799    6.8591   12.0075 O   0  0  0  0  0  0  0  0  0  0  0  0
   43.5945    6.8352   12.9459 O   0  0  0  0  0  0  0  0  0  0  0  0
   43.9558    7.5050   10.5953 O   0  0  0  0  0  0  0  0  0  0  0  0
   43.4417    4.1547   11.9281 C   0  0  0  0  0  0  0  0  0  0  0  0
   43.3338    2.8402   11.4739 C   0  0  0  0  0  0  0  0  0  0  0  0
   44.8372    3.3413    9.6545 C   0  0  0  0  0  0  0  0  0  0  0  0
   44.0328    2.4319   10.3346 C   0  0  0  0  0  0  0  0  0  0  0  0
   42.7234    4.4674   13.0498 O   0  0  0  0  0  0  0  0  0  0  0  0
   45.5045    2.9062    8.5462 O   0  0  0  0  0  0  0  0  0  0  0  0
   45.1847    3.7961    8.8236 S   0  0  0  0  0  0  0  0  0  0  0  0
   44.5268    4.2372   10.4410 C   0  0  0  0  0  0  0  0  0  0  0  0
   43.6060    5.2916   10.4890 C   0  0  0  0  0  0  0  0  0  0  0  0
   43.9803    3.4281    8.0877 O   0  0  0  0  0  0  0  0  0  0  0  0
   46.0885    2.6889    9.1428 O   0  0  0  0  0  0  0  0  0  0  0  0
   45.8345    5.0329    8.4042 O   0  0  0  0  0  0  0  0  0  0  0  0
   44.9065    3.5685   11.6072 C   0  0  0  0  0  0  0  0  0  0  0  0
   44.3606    3.9579   12.8304 C   0  0  0  0  0  0  0  0  0  0  0  0
   43.0721    5.6664   11.7158 C   0  0  0  0  0  0  0  0  0  0  0  0
   43.4413    5.0091   12.8856 C   0  0  0  0  0  0  0  0  0  0  0  0
   45.7978    2.5310   11.6460 O   0  0  0  0  0  0  0  0  0  0  0  0
   42.1719    6.6882   11.8089 O   0  0  0  0  0  0  0  0  0  0  0  0
   45.5774    5.3823    9.5796 H   0  0  0  0  0  0  0  0  0  0  0  0
   42.7041    2.1369   12.0101 H   0  0  0  0  0  0  0  0  0  0  0  0
   43.9491    1.4093    9.9811 H   0  0  0  0  0  0  0  0  0  0  0  0
   42.9007    5.4258   13.2465 H   0  0  0  0  0  0  0  0  0  0  0  0
   46.0110    3.6617    8.2019 H   0  0  0  0  0  0  0  0  0  0  0  0
   43.3338    5.7888    9.5627 H   0  0  0  0  0  0  0  0  0  0  0  0
   44.6538    3.4400   13.7383 H   0  0  0  0  0  0  0  0  0  0  0  0
   43.0164    5.3124   13.8370 H   0  0  0  0  0  0  0  0  0  0  0  0
   46.0947    2.3724   10.7106 H   0  0  0  0  0  0  0  0  0  0  0  0
   42.0308    7.0286   10.9089 H   0  0  0  0  0  0  0  0  0  0  0  0
  3  2  1  0
  4  3  2  0
  5  2  1  0
  6  2  2  0
  7  2  2  0
  8  3  1  0
  9  8  2  0
 10  4  1  0
 11  9  1  0
 12  8  1  0
 13 10  1  0
 10 11  2  0
 15 14  1  0
 16 15  2  0
 17 14  1  0
 18 14  2  0
 19 14  2  0
 20 15  1  0
 21 20  2  0
 22 16  1  0
 23 21  1  0
 24 20  1  0
 25 22  1  0
 22 23  2  0
  4 26  1  0
  9 27  1  0
 11 28  1  0
 12 29  1  0
 13 30  1  0
 16 31  1  0
 21 32  1  0
 23 33  1  0
 24 34  1  0
 25 35  1  0
M  CHG  3   1   2   5  -1  17  -1
M  END
> <Uni-Dock RESULT> 
ENERGY=   -4.595  LOWER_BOUND=    2.356  UPPER_BOUND=    4.231
INTER + INTRA:          -4.595
INTER:                  -4.595
INTRA:                   0.000
UNBOUND:                 0.000

$$$$

     RDKit          3D

 35 34  0  0  0  0  0  0  0  0999 V2000
   47.3535    6.6866   13.1380 Ca  0  0  0  0  0 15  0  0  0  0  0  0
   48.9386    7.8981   14.5511 S   0  0  0  0  0  0  0  0  0  0  0  0
   47.7870    7.0473   13.4587 C   0  0  0  0  0  0  0  0  0  0  0  0
   47.0704    5.9723   13.9998 C   0  0  0  0  0  0  0  0  0  0  0  0
   48.0621    8.3791   15.6134 O   0  0  0  0  0  0  0  0  0  0  0  0
   49.4938    8.9341   13.6778 O   0  0  0  0  0  0  0  0  0  0  0  0
   49.8619    6.8312   14.9214 O   0  0  0  0  0  0  0  0  0  0  0  0
   47.6032    7.4288   12.1275 C   0  0  0  0  0  0  0  0  0  0  0  0
   46.6957    6.7291   11.3321 C   0  0  0  0  0  0  0  0  0  0  0  0
   46.1706    5.2864   13.1934 C   0  0  0  0  0  0  0  0  0  0  0  0
   45.9774    5.6554   11.8655 C   0  0  0  0  0  0  0  0  0  0  0  0
   48.2623    8.4649   11.5240 O   0  0  0  0  0  0  0  0  0  0  0  0
   45.4514    4.2329   13.6792 O   0  0  0  0  0  0  0  0  0  0  0  0
   46.3228    4.6170   13.9328 S   0  0  0  0  0  0  0  0  0  0  0  0
   47.0197    6.1672   13.3373 C   0  0  0  0  0  0  0  0  0  0  0  0
   48.4164    6.2665   13.3014 C   0  0  0  0  0  0  0  0  0  0  0  0
   46.8580    3.6496   12.9814 O   0  0  0  0  0  0  0  0  0  0  0  0
   44.8822    4.8619   13.8362 O   0  0  0  0  0  0  0  0  0  0  0  0
   46.8542    4.5376   15.2889 O   0  0  0  0  0  0  0  0  0  0  0  0
   46.2182    7.2345   12.9252 C   0  0  0  0  0  0  0  0  0  0  0  0
   46.8191    8.4098   12.4739 C   0  0  0  0  0  0  0  0  0  0  0  0
   48.9982    7.4443   12.8490 C   0  0  0  0  0  0  0  0  0  0  0  0
   48.2121    8.5157   12.4354 C   0  0  0  0  0  0  0  0  0  0  0  0
   44.8501    7.2182   12.9293 O   0  0  0  0  0  0  0  0  0  0  0  0
   50.3549    7.5845   12.7973 O   0  0  0  0  0  0  0  0  0  0  0  0
   47.2387    5.7035   15.0385 H   0  0  0  0  0  0  0  0  0  0  0  0
   46.5508    7.0232   10.2971 H   0  0  0  0  0  0  0  0  0  0  0  0
   45.2713    5.1109   11.2470 H   0  0  0  0  0  0  0  0  0  0  0  0
   48.8651    8.8596   12.2090 H   0  0  0  0  0  0  0  0  0  0  0  0
   45.7083    4.1157   14.6099 H   0  0  0  0  0  0  0  0  0  0  0  0
   49.0082    5.4169   13.6293 H   0  0  0  0  0  0  0  0  0  0  0  0
   46.1987    9.2409   12.1530 H   0  0  0  0  0  0  0  0  0  0  0  0
   48.6798    9.4297   12.0844 H   0  0  0  0  0  0  0  0  0  0  0  0
   44.5745    6.3265   13.2720 H   0  0  0  0  0  0  0  0  0  0  0  0
   50.7414    6.7518   13.1184 H   0  0  0  0  0  0  0  0  0  0  0  0
  3  2  1  0
  4  3  2  0
  5  2  1  0
  6  2  2  0
  7  2  2  0
  8  3  1  0
  9  8  2  0
 10  4  1  0
 11  9  1  0
 12  8  1  0
 13 10  1  0
 10 11  2  0
 15 14  1  0
 16 15  2  0
 17 14  1  0
 18 14  2  0
 19 14  2  0
 20 15  1  0
 21 20  2  0
 22 16  1  0
 23 21  1  0
 24 20  1  0
 25 22  1  0
 22 23  2  0
  4 26  1  0
  9 27  1  0
 11 28  1  0
 12 29  1  0
 13 30  1  0
 16 31  1  0
 21 32  1  0
 23 33  1  0
 24 34  1  0
 25 35  1  0
M  CHG  3   1   2   5  -1  17  -1
M  END
> <Uni-Dock RESULT> 
ENERGY=   -3.621  LOWER_BOUND=    1.992  UPPER_BOUND=    4.564
INTER + INTRA:          -3.621
INTER:                  -3.621
INTRA:                   0.000
UNBOUND:                 0.000

$$$$

     RDKit          3D

 35 34  0  0  0  0  0  0  0  0999 V2000
   45.1960    5.5287   12.2063 Ca  0  0  0  0  0 15  0  0  0  0  0  0
   47.1645    6.3694   13.3876 S   0  0  0  0  0  0  0  0  0  0  0  0
   45.7023    5.8133   12.4953 C   0  0  0  0  0  0  0  0  0  0  0  0
   45.3878    4.4506   12.5725 C   0  0  0  0  0  0  0  0  0  0  0  0
   46.8396    6.0191   14.7660 O   0  0  0  0  0  0  0  0  0  0  0  0
   47.1868    7.8035   13.0928 O   0  0  0  0  0  0  0  0  0  0  0  0
   48.2257    5.5860   12.7647 O   0  0  0  0  0  0  0  0  0  0  0  0
   44.9049    6.6883   11.7537 C   0  0  0  0  0  0  0  0  0  0  0  0
   43.7845    6.1956   11.0844 C   0  0  0  0  0  0  0  0  0  0  0  0
   44.2683    3.9769   11.8996 C   0  0  0  0  0  0  0  0  0  0  0  0
   43.4649    4.8370   11.1570 C   0  0  0  0  0  0  0  0  0  0  0  0
   45.1425    8.0298   11.6279 O   0  0  0  0  0  0  0  0  0  0  0  0
   43.9247    2.6567   11.9473 O   0  0  0  0  0  0  0  0  0  0  0  0
   44.7870    3.1237   12.0445 S   0  0  0  0  0  0  0  0  0  0  0  0
   45.0267    4.9025   12.1919 C   0  0  0  0  0  0  0  0  0  0  0  0
   46.2422    5.4228   11.7293 C   0  0  0  0  0  0  0  0  0  0  0  0
   44.8932    2.9137   10.6050 O   0  0  0  0  0  0  0  0  0  0  0  0
   43.4485    2.9387   12.6091 O   0  0  0  0  0  0  0  0  0  0  0  0
   45.8835    2.5945   12.8480 O   0  0  0  0  0  0  0  0  0  0  0  0
   44.0545    5.7422   12.7406 C   0  0  0  0  0  0  0  0  0  0  0  0
   44.3005    7.1125   12.8270 C   0  0  0  0  0  0  0  0  0  0  0  0
   46.4706    6.7901   11.8230 C   0  0  0  0  0  0  0  0  0  0  0  0
   45.5110    7.6384   12.3674 C   0  0  0  0  0  0  0  0  0  0  0  0
   42.8441    5.3144   13.2141 O   0  0  0  0  0  0  0  0  0  0  0  0
   47.6406    7.3398   11.3848 O   0  0  0  0  0  0  0  0  0  0  0  0
   46.0301    3.7995   13.1581 H   0  0  0  0  0  0  0  0  0  0  0  0
   43.1629    6.8733   10.5072 H   0  0  0  0  0  0  0  0  0  0  0  0
   42.5933    4.4535   10.6365 H   0  0  0  0  0  0  0  0  0  0  0  0
   45.9632    8.2266   12.1537 H   0  0  0  0  0  0  0  0  0  0  0  0
   44.5859    2.2087   12.5023 H   0  0  0  0  0  0  0  0  0  0  0  0
   46.9750    4.7406   11.3087 H   0  0  0  0  0  0  0  0  0  0  0  0
   43.5467    7.7675   13.2529 H   0  0  0  0  0  0  0  0  0  0  0  0
   45.7028    8.7044   12.4345 H   0  0  0  0  0  0  0  0  0  0  0  0
   42.8174    4.3289   13.0856 H   0  0  0  0  0  0  0  0  0  0  0  0
   48.1872    6.6130   11.0400 H   0  0  0  0  0  0  0  0  0  0  0  0
  3  2  1  0
  4  3  2  0
  5  2  1  0
  6  2  2  0
  7  2  2  0
  8  3  1  0
  9  8  2  0
 10  4  1  0
 11  9  1  0
 12  8  1  0
 13 10  1  0
 10 11  2  0
 15 14  1  0
 16 15  2  0
 17 14  1  0
 18 14  2  0
 19 14  2  0
 20 15  1  0
 21 20  2  0
 22 16  1  0
 23 21  1  0
 24 20  1  0
 25 22  1  0
 22 23  2  0
  4 26  1  0
  9 27  1  0
 11 28  1  0
 12 29  1  0
 13 30  1  0
 16 31  1  0
 21 32  1  0
 23 33  1  0
 24 34  1  0
 25 35  1  0
M  CHG  3   1   2   5  -1  17  -1
M  END
> <Uni-Dock RESULT> 
ENERGY=   -3.507  LOWER_BOUND=    1.076  UPPER_BOUND=    3.835
INTER + INTRA:          -3.507
INTER:                  -3.507
INTRA:                   0.000
UNBOUND:                 0.000

$$$$

     RDKit          3D

 35 34  0  0  0  0  0  0  0  0999 V2000
   47.8311   10.9545   21.0430 Ca  0  0  0  0  0 15  0  0  0  0  0  0
   49.6994   10.0459   22.3320 S   0  0  0  0  0  0  0  0  0  0  0  0
   48.2906   10.6560   21.3904 C   0  0  0  0  0  0  0  0  0  0  0  0
   48.3707   11.9651   20.8987 C   0  0  0  0  0  0  0  0  0  0  0  0
   50.7854   10.1392   21.3625 O   0  0  0  0  0  0  0  0  0  0  0  0
   49.2816    8.6858   22.6779 O   0  0  0  0  0  0  0  0  0  0  0  0
   49.7586   10.9848   23.4468 O   0  0  0  0  0  0  0  0  0  0  0  0
   47.1592    9.8723   21.1510 C   0  0  0  0  0  0  0  0  0  0  0  0
   46.1002   10.4029   20.4141 C   0  0  0  0  0  0  0  0  0  0  0  0
   47.3068   12.4776   20.1667 C   0  0  0  0  0  0  0  0  0  0  0  0
   46.1735   11.7084   19.9205 C   0  0  0  0  0  0  0  0  0  0  0  0
   47.0027    8.5876   21.5951 O   0  0  0  0  0  0  0  0  0  0  0  0
   47.3422   13.7480   19.6688 O   0  0  0  0  0  0  0  0  0  0  0  0
   47.7831   13.3236   20.4412 S   0  0  0  0  0  0  0  0  0  0  0  0
   47.8127   11.5629   20.8184 C   0  0  0  0  0  0  0  0  0  0  0  0
   47.9290   11.2013   22.1667 C   0  0  0  0  0  0  0  0  0  0  0  0
   46.6065   13.7788   21.1733 O   0  0  0  0  0  0  0  0  0  0  0  0
   47.6567   13.3308   18.9823 O   0  0  0  0  0  0  0  0  0  0  0  0
   49.0698   13.7745   20.9598 O   0  0  0  0  0  0  0  0  0  0  0  0
   47.7248   10.5864   19.8234 C   0  0  0  0  0  0  0  0  0  0  0  0
   47.7533    9.2382   20.1804 C   0  0  0  0  0  0  0  0  0  0  0  0
   47.9559    9.8538   22.5044 C   0  0  0  0  0  0  0  0  0  0  0  0
   47.8691    8.8703   21.5236 C   0  0  0  0  0  0  0  0  0  0  0  0
   47.6093   10.8554   18.4868 O   0  0  0  0  0  0  0  0  0  0  0  0
   48.0680    9.4565   23.8055 O   0  0  0  0  0  0  0  0  0  0  0  0
   49.2653   12.5454   21.1041 H   0  0  0  0  0  0  0  0  0  0  0  0
   45.2197    9.7962   20.2264 H   0  0  0  0  0  0  0  0  0  0  0  0
   45.3499   12.1213   19.3472 H   0  0  0  0  0  0  0  0  0  0  0  0
   47.8288    8.3545   22.0967 H   0  0  0  0  0  0  0  0  0  0  0  0
   48.1949   14.1349   19.9318 H   0  0  0  0  0  0  0  0  0  0  0  0
   47.9951   11.9870   22.9135 H   0  0  0  0  0  0  0  0  0  0  0  0
   47.6851    8.4771   19.4092 H   0  0  0  0  0  0  0  0  0  0  0  0
   47.8914    7.8216   21.8017 H   0  0  0  0  0  0  0  0  0  0  0  0
   47.6029   11.8451   18.3926 H   0  0  0  0  0  0  0  0  0  0  0  0
   48.1164   10.2623   24.3479 H   0  0  0  0  0  0  0  0  0  0  0  0
  3  2  1  0
  4  3  2  0
  5  2  1  0
  6  2  2  0
  7  2  2  0
  8  3  1  0
  9  8  2  0
 10  4  1  0
 11  9  1  0
 12  8  1  0
 13 10  1  0
 10 11  2  0
 15 14  1  0
 16 15  2  0
 17 14  1  0
 18 14  2  0
 19 14  2  0
 20 15  1  0
 21 20  2  0
 22 16  1  0
 23 21  1  0
 24 20  1  0
 25 22  1  0
 22 23  2  0
  4 26  1  0
  9 27  1  0
 11 28  1  0
 12 29  1  0
 13 30  1  0
 16 31  1  0
 21 32  1  0
 23 33  1  0
 24 34  1  0
 25 35  1  0
M  CHG  3   1   2   5  -1  17  -1
M  END
> <Uni-Dock RESULT> 
ENERGY=   -3.308  LOWER_BOUND=    9.321  UPPER_BOUND=   11.114
INTER + INTRA:          -3.308
INTER:                  -3.308
INTRA:                   0.000
UNBOUND:                 0.000

$$$$

     RDKit          3D

 35 34  0  0  0  0  0  0  0  0999 V2000
   49.4101    4.8925   18.8468 Ca  0  0  0  0  0 15  0  0  0  0  0  0
   49.5768    6.4377   20.7341 S   0  0  0  0  0  0  0  0  0  0  0  0
   49.5190    5.2820   19.3541 C   0  0  0  0  0  0  0  0  0  0  0  0
   48.3068    5.1773   18.6601 C   0  0  0  0  0  0  0  0  0  0  0  0
   49.2711    7.7093   20.0879 O   0  0  0  0  0  0  0  0  0  0  0  0
   50.9536    6.2905   21.2105 O   0  0  0  0  0  0  0  0  0  0  0  0
   48.5473    5.9117   21.6236 O   0  0  0  0  0  0  0  0  0  0  0  0
   50.6246    4.5154   18.9778 C   0  0  0  0  0  0  0  0  0  0  0  0
   50.5159    3.6376   17.8991 C   0  0  0  0  0  0  0  0  0  0  0  0
   48.2162    4.2979   17.5882 C   0  0  0  0  0  0  0  0  0  0  0  0
   49.3094    3.5280   17.2023 C   0  0  0  0  0  0  0  0  0  0  0  0
   51.8414    4.5585   19.6018 O   0  0  0  0  0  0  0  0  0  0  0  0
   47.0546    4.1639   16.8841 O   0  0  0  0  0  0  0  0  0  0  0  0
   47.2423    4.4371   17.8121 S   0  0  0  0  0  0  0  0  0  0  0  0
   48.8628    4.7915   18.5133 C   0  0  0  0  0  0  0  0  0  0  0  0
   49.0247    4.5735   19.8874 C   0  0  0  0  0  0  0  0  0  0  0  0
   47.0804    3.0174   18.1050 O   0  0  0  0  0  0  0  0  0  0  0  0
   47.4316    4.7691   16.3984 O   0  0  0  0  0  0  0  0  0  0  0  0
   46.3759    5.3439   18.5570 O   0  0  0  0  0  0  0  0  0  0  0  0
   49.9234    5.2637   17.7364 C   0  0  0  0  0  0  0  0  0  0  0  0
   51.1551    5.5194   18.3393 C   0  0  0  0  0  0  0  0  0  0  0  0
   50.2583    4.8335   20.4716 C   0  0  0  0  0  0  0  0  0  0  0  0
   51.3236    5.3042   19.7099 C   0  0  0  0  0  0  0  0  0  0  0  0
   49.8478    5.5021   16.3912 O   0  0  0  0  0  0  0  0  0  0  0  0
   50.4604    4.6354   21.8068 O   0  0  0  0  0  0  0  0  0  0  0  0
   47.4681    5.7884   18.9803 H   0  0  0  0  0  0  0  0  0  0  0  0
   51.3734    3.0405   17.6044 H   0  0  0  0  0  0  0  0  0  0  0  0
   49.2246    2.8453   16.3631 H   0  0  0  0  0  0  0  0  0  0  0  0
   51.7626    5.2205   20.3394 H   0  0  0  0  0  0  0  0  0  0  0  0
   46.4057    4.7675   17.2846 H   0  0  0  0  0  0  0  0  0  0  0  0
   48.1784    4.2060   20.4604 H   0  0  0  0  0  0  0  0  0  0  0  0
   51.9812    5.8864   17.7380 H   0  0  0  0  0  0  0  0  0  0  0  0
   52.2816    5.5031   20.1792 H   0  0  0  0  0  0  0  0  0  0  0  0
   48.9211    5.2759   16.1111 H   0  0  0  0  0  0  0  0  0  0  0  0
   49.6226    4.3095   22.1782 H   0  0  0  0  0  0  0  0  0  0  0  0
  3  2  1  0
  4  3  2  0
  5  2  1  0
  6  2  2  0
  7  2  2  0
  8  3  1  0
  9  8  2  0
 10  4  1  0
 11  9  1  0
 12  8  1  0
 13 10  1  0
 10 11  2  0
 15 14  1  0
 16 15  2  0
 17 14  1  0
 18 14  2  0
 19 14  2  0
 20 15  1  0
 21 20  2  0
 22 16  1  0
 23 21  1  0
 24 20  1  0
 25 22  1  0
 22 23  2  0
  4 26  1  0
  9 27  1  0
 11 28  1  0
 12 29  1  0
 13 30  1  0
 16 31  1  0
 21 32  1  0
 23 33  1  0
 24 34  1  0
 25 35  1  0
M  CHG  3   1   2   5  -1  17  -1
M  END
> <Uni-Dock RESULT> 
ENERGY=   -3.285  LOWER_BOUND=    5.990  UPPER_BOUND=    8.522
INTER + INTRA:          -3.285
INTER:                  -3.285
INTRA:                   0.000
UNBOUND:                 0.000

$$$$

     RDKit          3D

 35 34  0  0  0  0  0  0  0  0999 V2000
   47.8160   11.0868   19.6279 Ca  0  0  0  0  0 15  0  0  0  0  0  0
   48.4700    8.7973   19.0727 S   0  0  0  0  0  0  0  0  0  0  0  0
   47.9873   10.4662   19.5474 C   0  0  0  0  0  0  0  0  0  0  0  0
   47.8278   11.4015   18.5170 C   0  0  0  0  0  0  0  0  0  0  0  0
   47.3689    8.3894   18.2072 O   0  0  0  0  0  0  0  0  0  0  0  0
   48.5411    8.1109   20.3642 O   0  0  0  0  0  0  0  0  0  0  0  0
   49.7509    9.0203   18.4113 O   0  0  0  0  0  0  0  0  0  0  0  0
   47.7767   10.8301   20.8796 C   0  0  0  0  0  0  0  0  0  0  0  0
   47.4039   12.1397   21.1826 C   0  0  0  0  0  0  0  0  0  0  0  0
   47.4561   12.7016   18.8367 C   0  0  0  0  0  0  0  0  0  0  0  0
   47.2431   13.0781   20.1594 C   0  0  0  0  0  0  0  0  0  0  0  0
   47.9112    9.9787   21.9422 O   0  0  0  0  0  0  0  0  0  0  0  0
   47.2896   13.6452   17.8647 O   0  0  0  0  0  0  0  0  0  0  0  0
   47.8374   12.8273   17.9111 S   0  0  0  0  0  0  0  0  0  0  0  0
   47.7561   11.5594   19.1874 C   0  0  0  0  0  0  0  0  0  0  0  0
   48.9274   10.8347   19.4421 C   0  0  0  0  0  0  0  0  0  0  0  0
   48.8650   13.7240   18.4284 O   0  0  0  0  0  0  0  0  0  0  0  0
   46.4752   13.3649   17.9143 O   0  0  0  0  0  0  0  0  0  0  0  0
   48.2024   12.0554   16.7284 O   0  0  0  0  0  0  0  0  0  0  0  0
   46.5851   11.2961   19.9022 C   0  0  0  0  0  0  0  0  0  0  0  0
   46.5866   10.3003   20.8791 C   0  0  0  0  0  0  0  0  0  0  0  0
   48.9111    9.8464   20.4186 C   0  0  0  0  0  0  0  0  0  0  0  0
   47.7518    9.5734   21.1384 C   0  0  0  0  0  0  0  0  0  0  0  0
   45.4019   11.9571   19.7146 O   0  0  0  0  0  0  0  0  0  0  0  0
   50.0295    9.1161   20.6994 O   0  0  0  0  0  0  0  0  0  0  0  0
   47.9998   11.0836   17.4929 H   0  0  0  0  0  0  0  0  0  0  0  0
   47.2396   12.4254   22.2171 H   0  0  0  0  0  0  0  0  0  0  0  0
   46.9531   14.0969   20.3949 H   0  0  0  0  0  0  0  0  0  0  0  0
   48.1769    9.0956   21.5708 H   0  0  0  0  0  0  0  0  0  0  0  0
   47.4765   13.2149   17.0128 H   0  0  0  0  0  0  0  0  0  0  0  0
   49.8193   11.0663   18.8672 H   0  0  0  0  0  0  0  0  0  0  0  0
   45.6780   10.0935   21.4362 H   0  0  0  0  0  0  0  0  0  0  0  0
   47.7532    8.7987   21.8982 H   0  0  0  0  0  0  0  0  0  0  0  0
   45.5577   12.6267   18.9966 H   0  0  0  0  0  0  0  0  0  0  0  0
   50.7352    9.4352   20.1112 H   0  0  0  0  0  0  0  0  0  0  0  0
  3  2  1  0
  4  3  2  0
  5  2  1  0
  6  2  2  0
  7  2  2  0
  8  3  1  0
  9  8  2  0
 10  4  1  0
 11  9  1  0
 12  8  1  0
 13 10  1  0
 10 11  2  0
 15 14  1  0
 16 15  2  0
 17 14  1  0
 18 14  2  0
 19 14  2  0
 20 15  1  0
 21 20  2  0
 22 16  1  0
 23 21  1  0
 24 20  1  0
 25 22  1  0
 22 23  2  0
  4 26  1  0
  9 27  1  0
 11 28  1  0
 12 29  1  0
 13 30  1  0
 16 31  1  0
 21 32  1  0
 23 33  1  0
 24 34  1  0
 25 35  1  0
M  CHG  3   1   2   5  -1  17  -1
M  END
> <Uni-Dock RESULT> 
ENERGY=   -3.253  LOWER_BOUND=    8.223  UPPER_BOUND=    9.903
INTER + INTRA:          -3.253
INTER:                  -3.253
INTRA:                   0.000
UNBOUND:                 0.000

$$$$

     RDKit          3D

 35 34  0  0  0  0  0  0  0  0999 V2000
   40.6374   14.4117   14.0444 Ca  0  0  0  0  0 15  0  0  0  0  0  0
   41.0432   16.7706   14.5425 S   0  0  0  0  0  0  0  0  0  0  0  0
   40.7828   15.0394   14.1198 C   0  0  0  0  0  0  0  0  0  0  0  0
   39.9818   14.2848   14.9864 C   0  0  0  0  0  0  0  0  0  0  0  0
   39.6838   17.2997   14.5382 O   0  0  0  0  0  0  0  0  0  0  0  0
   41.9014   17.2355   13.4509 O   0  0  0  0  0  0  0  0  0  0  0  0
   41.6866   16.6786   15.8484 O   0  0  0  0  0  0  0  0  0  0  0  0
   41.3468   14.4577   12.9818 C   0  0  0  0  0  0  0  0  0  0  0  0
   41.1073   13.1107   12.7093 C   0  0  0  0  0  0  0  0  0  0  0  0
   39.7537   12.9445   14.6997 C   0  0  0  0  0  0  0  0  0  0  0  0
   40.3092   12.3518   13.5697 C   0  0  0  0  0  0  0  0  0  0  0  0
   42.1388   15.1239   12.0869 O   0  0  0  0  0  0  0  0  0  0  0  0
   38.9799   12.1719   15.5165 O   0  0  0  0  0  0  0  0  0  0  0  0
   39.5212   12.9788   15.6809 S   0  0  0  0  0  0  0  0  0  0  0  0
   40.2956   14.0174   14.4300 C   0  0  0  0  0  0  0  0  0  0  0  0
   41.4563   14.7071   14.8029 C   0  0  0  0  0  0  0  0  0  0  0  0
   40.5794   12.0241   15.9912 O   0  0  0  0  0  0  0  0  0  0  0  0
   38.3692   12.4283   14.9637 O   0  0  0  0  0  0  0  0  0  0  0  0
   39.2033   13.9406   16.7305 O   0  0  0  0  0  0  0  0  0  0  0  0
   39.7758   14.1421   13.1394 C   0  0  0  0  0  0  0  0  0  0  0  0
   40.4225   14.9629   12.2153 C   0  0  0  0  0  0  0  0  0  0  0  0
   42.0877   15.5203   13.8699 C   0  0  0  0  0  0  0  0  0  0  0  0
   41.5810   15.6539   12.5806 C   0  0  0  0  0  0  0  0  0  0  0  0
   38.6493   13.5040   12.6966 O   0  0  0  0  0  0  0  0  0  0  0  0
   43.2209   16.2105   14.1903 O   0  0  0  0  0  0  0  0  0  0  0  0
   39.5598   14.7698   15.8616 H   0  0  0  0  0  0  0  0  0  0  0  0
   41.5443   12.6558   11.8256 H   0  0  0  0  0  0  0  0  0  0  0  0
   40.1227   11.3040   13.3579 H   0  0  0  0  0  0  0  0  0  0  0  0
   42.2159   16.0600   12.4129 H   0  0  0  0  0  0  0  0  0  0  0  0
   38.6784   12.7396   16.2464 H   0  0  0  0  0  0  0  0  0  0  0  0
   41.8321   14.5866   15.8147 H   0  0  0  0  0  0  0  0  0  0  0  0
   40.0208   15.0616   11.2115 H   0  0  0  0  0  0  0  0  0  0  0  0
   42.0843   16.2925   11.8620 H   0  0  0  0  0  0  0  0  0  0  0  0
   38.3069   12.9643   13.4581 H   0  0  0  0  0  0  0  0  0  0  0  0
   43.4302   16.0032   15.1171 H   0  0  0  0  0  0  0  0  0  0  0  0
  3  2  1  0
  4  3  2  0
  5  2  1  0
  6  2  2  0
  7  2  2  0
  8  3  1  0
  9  8  2  0
 10  4  1  0
 11  9  1  0
 12  8  1  0
 13 10  1  0
 10 11  2  0
 15 14  1  0
 16 15  2  0
 17 14  1  0
 18 14  2  0
 19 14  2  0
 20 15  1  0
 21 20  2  0
 22 16  1  0
 23 21  1  0
 24 20  1  0
 25 22  1  0
 22 23  2  0
  4 26  1  0
  9 27  1  0
 11 28  1  0
 12 29  1  0
 13 30  1  0
 16 31  1  0
 21 32  1  0
 23 33  1  0
 24 34  1  0
 25 35  1  0
M  CHG  3   1   2   5  -1  17  -1
M  END
> <Uni-Dock RESULT> 
ENERGY=   -3.170  LOWER_BOUND=    9.199  UPPER_BOUND=   11.051
INTER + INTRA:          -3.170
INTER:                  -3.170
INTRA:                   0.000
UNBOUND:                 0.000

$$$$

     RDKit          3D

 35 34  0  0  0  0  0  0  0  0999 V2000
   48.4303    5.3223   18.4080 Ca  0  0  0  0  0 15  0  0  0  0  0  0
   48.3185    3.1501   17.2915 S   0  0  0  0  0  0  0  0  0  0  0  0
   48.3967    4.7802   18.0530 C   0  0  0  0  0  0  0  0  0  0  0  0
   48.5013    4.8278   19.4490 C   0  0  0  0  0  0  0  0  0  0  0  0
   49.5815    2.5511   17.7085 O   0  0  0  0  0  0  0  0  0  0  0  0
   48.2166    3.4727   15.8668 O   0  0  0  0  0  0  0  0  0  0  0  0
   47.1160    2.5835   17.8922 O   0  0  0  0  0  0  0  0  0  0  0  0
   48.3561    5.9565   17.3005 C   0  0  0  0  0  0  0  0  0  0  0  0
   48.4207    7.1893   17.9500 C   0  0  0  0  0  0  0  0  0  0  0  0
   48.5646    6.0643   20.0796 C   0  0  0  0  0  0  0  0  0  0  0  0
   48.5251    7.2441   19.3426 C   0  0  0  0  0  0  0  0  0  0  0  0
   48.2550    5.9965   15.9366 O   0  0  0  0  0  0  0  0  0  0  0  0
   48.6669    6.1574   21.4375 O   0  0  0  0  0  0  0  0  0  0  0  0
   48.2899    5.4665   20.8445 S   0  0  0  0  0  0  0  0  0  0  0  0
   48.4527    5.3934   19.0525 C   0  0  0  0  0  0  0  0  0  0  0  0
   47.4242    4.7593   18.3439 C   0  0  0  0  0  0  0  0  0  0  0  0
   47.0472    6.2113   21.0138 O   0  0  0  0  0  0  0  0  0  0  0  0
   49.5070    6.1768   21.2424 O   0  0  0  0  0  0  0  0  0  0  0  0
   48.2414    4.0552   21.2103 O   0  0  0  0  0  0  0  0  0  0  0  0
   49.5493    5.9396   18.3814 C   0  0  0  0  0  0  0  0  0  0  0  0
   49.6171    5.8505   16.9909 C   0  0  0  0  0  0  0  0  0  0  0  0
   47.5078    4.6794   16.9593 C   0  0  0  0  0  0  0  0  0  0  0  0
   48.5945    5.2191   16.2776 C   0  0  0  0  0  0  0  0  0  0  0  0
   50.5932    6.5740   18.9979 O   0  0  0  0  0  0  0  0  0  0  0  0
   46.5285    4.0705   16.2291 O   0  0  0  0  0  0  0  0  0  0  0  0
   48.5302    3.8935   20.0019 H   0  0  0  0  0  0  0  0  0  0  0  0
   48.3893    8.1052   17.3678 H   0  0  0  0  0  0  0  0  0  0  0  0
   48.5755    8.2030   19.8482 H   0  0  0  0  0  0  0  0  0  0  0  0
   48.2193    5.0535   15.6235 H   0  0  0  0  0  0  0  0  0  0  0  0
   48.6811    5.2497   21.7865 H   0  0  0  0  0  0  0  0  0  0  0  0
   46.5868    4.3460   18.8984 H   0  0  0  0  0  0  0  0  0  0  0  0
   50.4682    6.2741   16.4667 H   0  0  0  0  0  0  0  0  0  0  0  0
   48.6468    5.1496   15.1960 H   0  0  0  0  0  0  0  0  0  0  0  0
   50.4032    6.5576   19.9736 H   0  0  0  0  0  0  0  0  0  0  0  0
   45.8564    3.7556   16.8575 H   0  0  0  0  0  0  0  0  0  0  0  0
  3  2  1  0
  4  3  2  0
  5  2  1  0
  6  2  2  0
  7  2  2  0
  8  3  1  0
  9  8  2  0
 10  4  1  0
 11  9  1  0
 12  8  1  0
 13 10  1  0
 10 11  2  0
 15 14  1  0
 16 15  2  0
 17 14  1  0
 18 14  2  0
 19 14  2  0
 20 15  1  0
 21 20  2  0
 22 16  1  0
 23 21  1  0
 24 20  1  0
 25 22  1  0
 22 23  2  0
  4 26  1  0
  9 27  1  0
 11 28  1  0
 12 29  1  0
 13 30  1  0
 16 31  1  0
 21 32  1  0
 23 33  1  0
 24 34  1  0
 25 35  1  0
M  CHG  3   1   2   5  -1  17  -1
M  END
> <Uni-Dock RESULT> 
ENERGY=   -3.159  LOWER_BOUND=    5.286  UPPER_BOUND=    6.986
INTER + INTRA:          -3.159
INTER:                  -3.159
INTRA:                   0.000
UNBOUND:                 0.000

$$$$
