
     RDKit          3D

 35 34  0  0  0  0  0  0  0  0999 V2000
   44.3580    4.0583   10.3678 Ca  0  0  0  0  0 15  0  0  0  0  0  0
   43.5735    5.6425   12.0566 S   0  0  0  0  0  0  0  0  0  0  0  0
   44.1226    4.4252   10.8483 C   0  0  0  0  0  0  0  0  0  0  0  0
   44.8517    4.9000    9.7506 C   0  0  0  0  0  0  0  0  0  0  0  0
   42.8644    4.8163   13.0359 O   0  0  0  0  0  0  0  0  0  0  0  0
   42.7314    6.5210   11.2524 O   0  0  0  0  0  0  0  0  0  0  0  0
   44.8340    6.2147   12.5166 O   0  0  0  0  0  0  0  0  0  0  0  0
   43.8429    3.0633   10.9832 C   0  0  0  0  0  0  0  0  0  0  0  0
   44.2965    2.1700   10.0125 C   0  0  0  0  0  0  0  0  0  0  0  0
   45.2957    3.9964    8.7930 C   0  0  0  0  0  0  0  0  0  0  0  0
   45.0244    2.6368    8.9146 C   0  0  0  0  0  0  0  0  0  0  0  0
   43.1387    2.5198   12.0229 O   0  0  0  0  0  0  0  0  0  0  0  0
   46.0093    4.4152    7.7076 O   0  0  0  0  0  0  0  0  0  0  0  0
   43.4122    5.4634   12.2543 S   0  0  0  0  0  0  0  0  0  0  0  0
   44.0745    4.4434   10.9250 C   0  0  0  0  0  0  0  0  0  0  0  0
   44.7802    5.0896    9.9022 C   0  0  0  0  0  0  0  0  0  0  0  0
   44.6126    6.0724   12.8157 O   0  0  0  0  0  0  0  0  0  0  0  0
   42.7584    4.4718   13.1128 O   0  0  0  0  0  0  0  0  0  0  0  0
   42.5072    6.3608   11.5452 O   0  0  0  0  0  0  0  0  0  0  0  0
   43.8998    3.0570   10.8999 C   0  0  0  0  0  0  0  0  0  0  0  0
   44.4335    2.3145    9.8467 C   0  0  0  0  0  0  0  0  0  0  0  0
   45.3056    4.3364    8.8603 C   0  0  0  0  0  0  0  0  0  0  0  0
   45.1387    2.9525    8.8230 C   0  0  0  0  0  0  0  0  0  0  0  0
   43.2262    2.3445   11.8545 O   0  0  0  0  0  0  0  0  0  0  0  0
   45.9892    4.9887    7.8755 O   0  0  0  0  0  0  0  0  0  0  0  0
   45.0506    5.9653    9.6780 H   0  0  0  0  0  0  0  0  0  0  0  0
   44.0806    1.1109   10.1148 H   0  0  0  0  0  0  0  0  0  0  0  0
   45.3774    1.9422    8.1593 H   0  0  0  0  0  0  0  0  0  0  0  0
   42.8873    3.2712   12.6233 H   0  0  0  0  0  0  0  0  0  0  0  0
   46.1049    5.3802    7.7825 H   0  0  0  0  0  0  0  0  0  0  0  0
   44.9084    6.1681    9.9345 H   0  0  0  0  0  0  0  0  0  0  0  0
   44.2961    1.2374    9.8299 H   0  0  0  0  0  0  0  0  0  0  0  0
   45.5456    2.3572    8.0132 H   0  0  0  0  0  0  0  0  0  0  0  0
   42.9085    3.0017   12.5302 H   0  0  0  0  0  0  0  0  0  0  0  0
   46.2892    4.3316    7.2291 H   0  0  0  0  0  0  0  0  0  0  0  0
  3  2  1  0
  4  3  2  0
  5  2  1  0
  6  2  2  0
  7  2  2  0
  8  3  1  0
  9  8  2  0
 10  4  1  0
 11  9  1  0
 12  8  1  0
 13 10  1  0
 10 11  2  0
 15 14  1  0
 16 15  2  0
 17 14  1  0
 18 14  2  0
 19 14  2  0
 20 15  1  0
 21 20  2  0
 22 16  1  0
 23 21  1  0
 24 20  1  0
 25 22  1  0
 22 23  2  0
  4 26  1  0
  9 27  1  0
 11 28  1  0
 12 29  1  0
 13 30  1  0
 16 31  1  0
 21 32  1  0
 23 33  1  0
 24 34  1  0
 25 35  1  0
M  CHG  3   1   2   5  -1  17  -1
M  END
> <Uni-Dock RESULT> 
ENERGY=   -8.582  LOWER_BOUND=    0.000  UPPER_BOUND=    0.000
INTER + INTRA:          -8.582
INTER:                  -8.582
INTRA:                   0.000
UNBOUND:                 0.000

$$$$

     RDKit          3D

 35 34  0  0  0  0  0  0  0  0999 V2000
   44.7447    4.1741   10.4734 Ca  0  0  0  0  0 15  0  0  0  0  0  0
   44.1231    4.7896   12.7564 S   0  0  0  0  0  0  0  0  0  0  0  0
   44.6038    4.3997   11.0652 C   0  0  0  0  0  0  0  0  0  0  0  0
   44.3611    3.0947   10.6179 C   0  0  0  0  0  0  0  0  0  0  0  0
   44.5127    6.1960   12.8781 O   0  0  0  0  0  0  0  0  0  0  0  0
   44.9240    3.8492   13.5322 O   0  0  0  0  0  0  0  0  0  0  0  0
   42.6864    4.5379   12.7373 O   0  0  0  0  0  0  0  0  0  0  0  0
   45.1941    5.3442   10.2221 C   0  0  0  0  0  0  0  0  0  0  0  0
   45.5438    4.9799    8.9217 C   0  0  0  0  0  0  0  0  0  0  0  0
   44.7159    2.7489    9.3197 C   0  0  0  0  0  0  0  0  0  0  0  0
   45.3046    3.6796    8.4688 C   0  0  0  0  0  0  0  0  0  0  0  0
   45.4642    6.6366   10.5812 O   0  0  0  0  0  0  0  0  0  0  0  0
   44.4977    1.4890    8.8425 O   0  0  0  0  0  0  0  0  0  0  0  0
   44.2206    5.0847   12.7808 S   0  0  0  0  0  0  0  0  0  0  0  0
   44.6025    4.4611   11.1342 C   0  0  0  0  0  0  0  0  0  0  0  0
   44.2916    3.1232   10.8595 C   0  0  0  0  0  0  0  0  0  0  0  0
   42.7754    4.9059   12.8609 O   0  0  0  0  0  0  0  0  0  0  0  0
   44.6714    6.4768   12.6998 O   0  0  0  0  0  0  0  0  0  0  0  0
   45.0238    4.2232   13.6410 O   0  0  0  0  0  0  0  0  0  0  0  0
   45.1875    5.2687   10.1551 C   0  0  0  0  0  0  0  0  0  0  0  0
   45.4623    4.7353    8.8960 C   0  0  0  0  0  0  0  0  0  0  0  0
   44.5715    2.6068    9.6011 C   0  0  0  0  0  0  0  0  0  0  0  0
   45.1548    3.4016    8.6150 C   0  0  0  0  0  0  0  0  0  0  0  0
   45.5239    6.5829   10.3357 O   0  0  0  0  0  0  0  0  0  0  0  0
   44.2594    1.3006    9.3574 O   0  0  0  0  0  0  0  0  0  0  0  0
   43.9007    2.3865   11.3006 H   0  0  0  0  0  0  0  0  0  0  0  0
   46.0027    5.7120    8.2643 H   0  0  0  0  0  0  0  0  0  0  0  0
   45.5766    3.3959    7.4574 H   0  0  0  0  0  0  0  0  0  0  0  0
   45.1623    6.7422   11.5225 H   0  0  0  0  0  0  0  0  0  0  0  0
   44.0855    0.9781    9.5602 H   0  0  0  0  0  0  0  0  0  0  0  0
   43.8371    2.5068   11.6302 H   0  0  0  0  0  0  0  0  0  0  0  0
   45.9169    5.3653    8.1373 H   0  0  0  0  0  0  0  0  0  0  0  0
   45.3765    3.0061    7.6301 H   0  0  0  0  0  0  0  0  0  0  0  0
   45.2711    6.8168   11.2688 H   0  0  0  0  0  0  0  0  0  0  0  0
   44.5131    1.0940    8.4450 H   0  0  0  0  0  0  0  0  0  0  0  0
  3  2  1  0
  4  3  2  0
  5  2  1  0
  6  2  2  0
  7  2  2  0
  8  3  1  0
  9  8  2  0
 10  4  1  0
 11  9  1  0
 12  8  1  0
 13 10  1  0
 10 11  2  0
 15 14  1  0
 16 15  2  0
 17 14  1  0
 18 14  2  0
 19 14  2  0
 20 15  1  0
 21 20  2  0
 22 16  1  0
 23 21  1  0
 24 20  1  0
 25 22  1  0
 22 23  2  0
  4 26  1  0
  9 27  1  0
 11 28  1  0
 12 29  1  0
 13 30  1  0
 16 31  1  0
 21 32  1  0
 23 33  1  0
 24 34  1  0
 25 35  1  0
M  CHG  3   1   2   5  -1  17  -1
M  END
> <Uni-Dock RESULT> 
ENERGY=   -7.346  LOWER_BOUND=    1.363  UPPER_BOUND=    2.769
INTER + INTRA:          -7.346
INTER:                  -7.346
INTRA:                   0.000
UNBOUND:                 0.000

$$$$

     RDKit          3D

 35 34  0  0  0  0  0  0  0  0999 V2000
   46.3505    2.4562    7.8908 Ca  0  0  0  0  0 15  0  0  0  0  0  0
   44.9026    3.6241    9.4773 S   0  0  0  0  0  0  0  0  0  0  0  0
   45.9903    2.8243    8.2855 C   0  0  0  0  0  0  0  0  0  0  0  0
   46.0009    1.4237    8.2713 C   0  0  0  0  0  0  0  0  0  0  0  0
   45.1422    5.0453    9.2178 O   0  0  0  0  0  0  0  0  0  0  0  0
   45.4142    3.1254   10.7490 O   0  0  0  0  0  0  0  0  0  0  0  0
   43.5891    3.1286    9.0810 O   0  0  0  0  0  0  0  0  0  0  0  0
   46.7953    3.5523    7.4061 C   0  0  0  0  0  0  0  0  0  0  0  0
   47.6168    2.8735    6.5059 C   0  0  0  0  0  0  0  0  0  0  0  0
   46.8252    0.7638    7.3681 C   0  0  0  0  0  0  0  0  0  0  0  0
   47.6324    1.4762    6.4863 C   0  0  0  0  0  0  0  0  0  0  0  0
   46.8433    4.9188    7.3562 O   0  0  0  0  0  0  0  0  0  0  0  0
   46.8669   -0.5996    7.3198 O   0  0  0  0  0  0  0  0  0  0  0  0
   44.9680    3.9248    9.4270 S   0  0  0  0  0  0  0  0  0  0  0  0
   45.9605    2.9027    8.3241 C   0  0  0  0  0  0  0  0  0  0  0  0
   45.8462    1.5124    8.4508 C   0  0  0  0  0  0  0  0  0  0  0  0
   43.6061    3.5265    9.0894 O   0  0  0  0  0  0  0  0  0  0  0  0
   45.3394    5.2811    9.0145 O   0  0  0  0  0  0  0  0  0  0  0  0
   45.4463    3.5262   10.7458 O   0  0  0  0  0  0  0  0  0  0  0  0
   46.8179    3.4600    7.3716 C   0  0  0  0  0  0  0  0  0  0  0  0
   47.5641    2.6225    6.5425 C   0  0  0  0  0  0  0  0  0  0  0  0
   46.5958    0.6919    7.6180 C   0  0  0  0  0  0  0  0  0  0  0  0
   47.4550    1.2348    6.6634 C   0  0  0  0  0  0  0  0  0  0  0  0
   46.9916    4.8037    7.1788 O   0  0  0  0  0  0  0  0  0  0  0  0
   46.4673   -0.6594    7.7604 O   0  0  0  0  0  0  0  0  0  0  0  0
   45.3622    0.8902    8.9691 H   0  0  0  0  0  0  0  0  0  0  0  0
   48.2435    3.4368    5.8213 H   0  0  0  0  0  0  0  0  0  0  0  0
   48.2713    0.9479    5.7861 H   0  0  0  0  0  0  0  0  0  0  0  0
   46.2122    5.2538    8.0474 H   0  0  0  0  0  0  0  0  0  0  0  0
   46.2494   -0.9293    7.9950 H   0  0  0  0  0  0  0  0  0  0  0  0
   45.1757    1.0928    9.1957 H   0  0  0  0  0  0  0  0  0  0  0  0
   48.2294    3.0585    5.8034 H   0  0  0  0  0  0  0  0  0  0  0  0
   48.0437    0.6012    6.0093 H   0  0  0  0  0  0  0  0  0  0  0  0
   46.4020    5.2647    7.8339 H   0  0  0  0  0  0  0  0  0  0  0  0
   47.0488   -1.0885    7.1143 H   0  0  0  0  0  0  0  0  0  0  0  0
  3  2  1  0
  4  3  2  0
  5  2  1  0
  6  2  2  0
  7  2  2  0
  8  3  1  0
  9  8  2  0
 10  4  1  0
 11  9  1  0
 12  8  1  0
 13 10  1  0
 10 11  2  0
 15 14  1  0
 16 15  2  0
 17 14  1  0
 18 14  2  0
 19 14  2  0
 20 15  1  0
 21 20  2  0
 22 16  1  0
 23 21  1  0
 24 20  1  0
 25 22  1  0
 22 23  2  0
  4 26  1  0
  9 27  1  0
 11 28  1  0
 12 29  1  0
 13 30  1  0
 16 31  1  0
 21 32  1  0
 23 33  1  0
 24 34  1  0
 25 35  1  0
M  CHG  3   1   2   5  -1  17  -1
M  END
> <Uni-Dock RESULT> 
ENERGY=   -7.314  LOWER_BOUND=    2.894  UPPER_BOUND=    4.502
INTER + INTRA:          -7.314
INTER:                  -7.314
INTRA:                   0.000
UNBOUND:                 0.000

$$$$

     RDKit          3D

 35 34  0  0  0  0  0  0  0  0999 V2000
   45.8409    2.8658    8.5335 Ca  0  0  0  0  0 15  0  0  0  0  0  0
   44.5871    3.2736   10.5924 S   0  0  0  0  0  0  0  0  0  0  0  0
   45.5119    3.0404    9.0648 C   0  0  0  0  0  0  0  0  0  0  0  0
   45.8286    1.7242    8.7055 C   0  0  0  0  0  0  0  0  0  0  0  0
   44.4379    4.7293   10.6509 O   0  0  0  0  0  0  0  0  0  0  0  0
   45.4819    2.6960   11.5890 O   0  0  0  0  0  0  0  0  0  0  0  0
   43.3604    2.5291   10.3302 O   0  0  0  0  0  0  0  0  0  0  0  0
   45.9047    4.1131    8.2608 C   0  0  0  0  0  0  0  0  0  0  0  0
   46.6196    3.8664    7.0885 C   0  0  0  0  0  0  0  0  0  0  0  0
   46.5414    1.4967    7.5347 C   0  0  0  0  0  0  0  0  0  0  0  0
   46.9391    2.5556    6.7240 C   0  0  0  0  0  0  0  0  0  0  0  0
   45.6358    5.4253    8.5399 O   0  0  0  0  0  0  0  0  0  0  0  0
   46.8713    0.2304    7.1464 O   0  0  0  0  0  0  0  0  0  0  0  0
   44.5705    3.5847   10.6065 S   0  0  0  0  0  0  0  0  0  0  0  0
   45.4754    3.0989    9.1262 C   0  0  0  0  0  0  0  0  0  0  0  0
   45.7051    1.7318    8.9262 C   0  0  0  0  0  0  0  0  0  0  0  0
   43.2905    2.9076   10.4328 O   0  0  0  0  0  0  0  0  0  0  0  0
   44.5243    5.0439   10.4796 O   0  0  0  0  0  0  0  0  0  0  0  0
   45.4229    3.0834   11.6786 O   0  0  0  0  0  0  0  0  0  0  0  0
   45.9384    4.0387    8.2011 C   0  0  0  0  0  0  0  0  0  0  0  0
   46.6339    3.6083    7.0713 C   0  0  0  0  0  0  0  0  0  0  0  0
   46.3992    1.3191    7.7964 C   0  0  0  0  0  0  0  0  0  0  0  0
   46.8665    2.2460    6.8654 C   0  0  0  0  0  0  0  0  0  0  0  0
   45.7597    5.3906    8.3160 O   0  0  0  0  0  0  0  0  0  0  0  0
   46.6105   -0.0182    7.6235 O   0  0  0  0  0  0  0  0  0  0  0  0
   45.5072    0.9147    9.3544 H   0  0  0  0  0  0  0  0  0  0  0  0
   46.9262    4.6982    6.4617 H   0  0  0  0  0  0  0  0  0  0  0  0
   47.4952    2.3635    5.8123 H   0  0  0  0  0  0  0  0  0  0  0  0
   45.1277    5.4388    9.3944 H   0  0  0  0  0  0  0  0  0  0  0  0
   46.5194   -0.3766    7.8200 H   0  0  0  0  0  0  0  0  0  0  0  0
   45.3394    1.0122    9.6536 H   0  0  0  0  0  0  0  0  0  0  0  0
   46.9924    4.3408    6.3543 H   0  0  0  0  0  0  0  0  0  0  0  0
   47.4093    1.9321    5.9808 H   0  0  0  0  0  0  0  0  0  0  0  0
   45.2545    5.5412    9.1595 H   0  0  0  0  0  0  0  0  0  0  0  0
   47.1030   -0.1426    6.7979 H   0  0  0  0  0  0  0  0  0  0  0  0
  3  2  1  0
  4  3  2  0
  5  2  1  0
  6  2  2  0
  7  2  2  0
  8  3  1  0
  9  8  2  0
 10  4  1  0
 11  9  1  0
 12  8  1  0
 13 10  1  0
 10 11  2  0
 15 14  1  0
 16 15  2  0
 17 14  1  0
 18 14  2  0
 19 14  2  0
 20 15  1  0
 21 20  2  0
 22 16  1  0
 23 21  1  0
 24 20  1  0
 25 22  1  0
 22 23  2  0
  4 26  1  0
  9 27  1  0
 11 28  1  0
 12 29  1  0
 13 30  1  0
 16 31  1  0
 21 32  1  0
 23 33  1  0
 24 34  1  0
 25 35  1  0
M  CHG  3   1   2   5  -1  17  -1
M  END
> <Uni-Dock RESULT> 
ENERGY=   -7.098  LOWER_BOUND=    2.276  UPPER_BOUND=    3.756
INTER + INTRA:          -7.098
INTER:                  -7.098
INTRA:                   0.000
UNBOUND:                 0.000

$$$$

     RDKit          3D

 35 34  0  0  0  0  0  0  0  0999 V2000
   45.3956    5.7848   12.6580 Ca  0  0  0  0  0 15  0  0  0  0  0  0
   43.2315    5.6379   11.5301 S   0  0  0  0  0  0  0  0  0  0  0  0
   44.8253    5.8133   12.3499 C   0  0  0  0  0  0  0  0  0  0  0  0
   45.4162    4.6468   12.8518 C   0  0  0  0  0  0  0  0  0  0  0  0
   42.9226    7.0165   11.1442 O   0  0  0  0  0  0  0  0  0  0  0  0
   42.3962    5.0827   12.5892 O   0  0  0  0  0  0  0  0  0  0  0  0
   43.5461    4.7355   10.4281 O   0  0  0  0  0  0  0  0  0  0  0  0
   45.4594    7.0503   12.4887 C   0  0  0  0  0  0  0  0  0  0  0  0
   46.6940    7.1200   13.1343 C   0  0  0  0  0  0  0  0  0  0  0  0
   46.6461    4.7345   13.4922 C   0  0  0  0  0  0  0  0  0  0  0  0
   47.2893    5.9600   13.6376 C   0  0  0  0  0  0  0  0  0  0  0  0
   44.9506    8.2338   12.0278 O   0  0  0  0  0  0  0  0  0  0  0  0
   47.2579    3.6234   13.9962 O   0  0  0  0  0  0  0  0  0  0  0  0
   43.1647    5.9350   11.4628 S   0  0  0  0  0  0  0  0  0  0  0  0
   44.7531    5.8541   12.3094 C   0  0  0  0  0  0  0  0  0  0  0  0
   45.1909    4.5979   12.7476 C   0  0  0  0  0  0  0  0  0  0  0  0
   43.3780    5.0748   10.3045 O   0  0  0  0  0  0  0  0  0  0  0  0
   43.0435    7.3642   11.1620 O   0  0  0  0  0  0  0  0  0  0  0  0
   42.2401    5.4347   12.4737 O   0  0  0  0  0  0  0  0  0  0  0  0
   45.5324    6.9932   12.5292 C   0  0  0  0  0  0  0  0  0  0  0  0
   46.7548    6.8744   13.1903 C   0  0  0  0  0  0  0  0  0  0  0  0
   46.4103    4.4960   13.4043 C   0  0  0  0  0  0  0  0  0  0  0  0
   47.1978    5.6243   13.6300 C   0  0  0  0  0  0  0  0  0  0  0  0
   45.1837    8.2569   12.1366 O   0  0  0  0  0  0  0  0  0  0  0  0
   46.8154    3.2613   13.8216 O   0  0  0  0  0  0  0  0  0  0  0  0
   44.8947    3.7023   12.7261 H   0  0  0  0  0  0  0  0  0  0  0  0
   47.1892    8.0800   13.2436 H   0  0  0  0  0  0  0  0  0  0  0  0
   48.2497    6.0140   14.1399 H   0  0  0  0  0  0  0  0  0  0  0  0
   44.0792    8.0237   11.5978 H   0  0  0  0  0  0  0  0  0  0  0  0
   46.6768    2.8663   13.8087 H   0  0  0  0  0  0  0  0  0  0  0  0
   44.5747    3.7207   12.5699 H   0  0  0  0  0  0  0  0  0  0  0  0
   47.3582    7.7613   13.3596 H   0  0  0  0  0  0  0  0  0  0  0  0
   48.1510    5.5534   14.1419 H   0  0  0  0  0  0  0  0  0  0  0  0
   44.3003    8.1823   11.6856 H   0  0  0  0  0  0  0  0  0  0  0  0
   47.6761    3.3564   14.2573 H   0  0  0  0  0  0  0  0  0  0  0  0
  3  2  1  0
  4  3  2  0
  5  2  1  0
  6  2  2  0
  7  2  2  0
  8  3  1  0
  9  8  2  0
 10  4  1  0
 11  9  1  0
 12  8  1  0
 13 10  1  0
 10 11  2  0
 15 14  1  0
 16 15  2  0
 17 14  1  0
 18 14  2  0
 19 14  2  0
 20 15  1  0
 21 20  2  0
 22 16  1  0
 23 21  1  0
 24 20  1  0
 25 22  1  0
 22 23  2  0
  4 26  1  0
  9 27  1  0
 11 28  1  0
 12 29  1  0
 13 30  1  0
 16 31  1  0
 21 32  1  0
 23 33  1  0
 24 34  1  0
 25 35  1  0
M  CHG  3   1   2   5  -1  17  -1
M  END
> <Uni-Dock RESULT> 
ENERGY=   -7.012  LOWER_BOUND=    2.817  UPPER_BOUND=    4.361
INTER + INTRA:          -7.012
INTER:                  -7.012
INTRA:                   0.000
UNBOUND:                 0.000

$$$$

     RDKit          3D

 35 34  0  0  0  0  0  0  0  0999 V2000
   45.5661    5.8929   12.8607 Ca  0  0  0  0  0 15  0  0  0  0  0  0
   43.4976    4.7084   12.3176 S   0  0  0  0  0  0  0  0  0  0  0  0
   45.0500    5.5211   12.7331 C   0  0  0  0  0  0  0  0  0  0  0  0
   45.0946    6.9151   12.6043 C   0  0  0  0  0  0  0  0  0  0  0  0
   43.8057    3.2976   12.5614 O   0  0  0  0  0  0  0  0  0  0  0  0
   43.3185    5.0767   10.9176 O   0  0  0  0  0  0  0  0  0  0  0  0
   42.5657    5.3171   13.2603 O   0  0  0  0  0  0  0  0  0  0  0  0
   46.1709    4.8089   13.1663 C   0  0  0  0  0  0  0  0  0  0  0  0
   47.3450    5.4971   13.4730 C   0  0  0  0  0  0  0  0  0  0  0  0
   46.2721    7.5845   12.9139 C   0  0  0  0  0  0  0  0  0  0  0  0
   47.3965    6.8880   13.3467 C   0  0  0  0  0  0  0  0  0  0  0  0
   46.2097    3.4496   13.3183 O   0  0  0  0  0  0  0  0  0  0  0  0
   46.3599    8.9421   12.8028 O   0  0  0  0  0  0  0  0  0  0  0  0
   43.5732    4.4086   12.3579 S   0  0  0  0  0  0  0  0  0  0  0  0
   45.0033    5.4422   12.7220 C   0  0  0  0  0  0  0  0  0  0  0  0
   44.8693    6.8237   12.5341 C   0  0  0  0  0  0  0  0  0  0  0  0
   42.5682    4.9194   13.2832 O   0  0  0  0  0  0  0  0  0  0  0  0
   44.0731    3.0651   12.6626 O   0  0  0  0  0  0  0  0  0  0  0  0
   43.3399    4.6760   10.9433 O   0  0  0  0  0  0  0  0  0  0  0  0
   46.2095    4.9018   13.1760 C   0  0  0  0  0  0  0  0  0  0  0  0
   47.2860    5.7476   13.4430 C   0  0  0  0  0  0  0  0  0  0  0  0
   45.9503    7.6527   12.8043 C   0  0  0  0  0  0  0  0  0  0  0  0
   47.1594    7.1267   13.2578 C   0  0  0  0  0  0  0  0  0  0  0  0
   46.4289    3.5677   13.3872 O   0  0  0  0  0  0  0  0  0  0  0  0
   45.7953    8.9952   12.6135 O   0  0  0  0  0  0  0  0  0  0  0  0
   44.2042    7.4363   12.2647 H   0  0  0  0  0  0  0  0  0  0  0  0
   48.2177    4.9461   13.8100 H   0  0  0  0  0  0  0  0  0  0  0  0
   48.3096    7.4236   13.5852 H   0  0  0  0  0  0  0  0  0  0  0  0
   45.3117    3.1066   13.0650 H   0  0  0  0  0  0  0  0  0  0  0  0
   45.4951    9.2607   12.4922 H   0  0  0  0  0  0  0  0  0  0  0  0
   43.9256    7.2301   12.1806 H   0  0  0  0  0  0  0  0  0  0  0  0
   48.2220    5.3248   13.7957 H   0  0  0  0  0  0  0  0  0  0  0  0
   48.0081    7.7670   13.4710 H   0  0  0  0  0  0  0  0  0  0  0  0
   45.5823    3.0990   13.1568 H   0  0  0  0  0  0  0  0  0  0  0  0
   46.6297    9.4318   12.8433 H   0  0  0  0  0  0  0  0  0  0  0  0
  3  2  1  0
  4  3  2  0
  5  2  1  0
  6  2  2  0
  7  2  2  0
  8  3  1  0
  9  8  2  0
 10  4  1  0
 11  9  1  0
 12  8  1  0
 13 10  1  0
 10 11  2  0
 15 14  1  0
 16 15  2  0
 17 14  1  0
 18 14  2  0
 19 14  2  0
 20 15  1  0
 21 20  2  0
 22 16  1  0
 23 21  1  0
 24 20  1  0
 25 22  1  0
 22 23  2  0
  4 26  1  0
  9 27  1  0
 11 28  1  0
 12 29  1  0
 13 30  1  0
 16 31  1  0
 21 32  1  0
 23 33  1  0
 24 34  1  0
 25 35  1  0
M  CHG  3   1   2   5  -1  17  -1
M  END
> <Uni-Dock RESULT> 
ENERGY=   -6.724  LOWER_BOUND=    3.026  UPPER_BOUND=    4.088
INTER + INTRA:          -6.724
INTER:                  -6.724
INTRA:                   0.000
UNBOUND:                 0.000

$$$$

     RDKit          3D

 35 34  0  0  0  0  0  0  0  0999 V2000
   45.6170    4.6277   12.4156 Ca  0  0  0  0  0 15  0  0  0  0  0  0
   44.0971    3.4394   10.9140 S   0  0  0  0  0  0  0  0  0  0  0  0
   45.1995    4.3730   11.9893 C   0  0  0  0  0  0  0  0  0  0  0  0
   45.9189    3.6490   12.9485 C   0  0  0  0  0  0  0  0  0  0  0  0
   43.5271    4.4858   10.0626 O   0  0  0  0  0  0  0  0  0  0  0  0
   43.1722    2.8347   11.8661 O   0  0  0  0  0  0  0  0  0  0  0  0
   45.0153    2.5223   10.2479 O   0  0  0  0  0  0  0  0  0  0  0  0
   45.3436    5.7586   11.8859 C   0  0  0  0  0  0  0  0  0  0  0  0
   46.2143    6.4244   12.7489 C   0  0  0  0  0  0  0  0  0  0  0  0
   46.7817    4.3281   13.8001 C   0  0  0  0  0  0  0  0  0  0  0  0
   46.9351    5.7082   13.7085 C   0  0  0  0  0  0  0  0  0  0  0  0
   44.6790    6.5376   10.9784 O   0  0  0  0  0  0  0  0  0  0  0  0
   47.5022    3.6625   14.7492 O   0  0  0  0  0  0  0  0  0  0  0  0
   43.9689    3.6680   10.7451 S   0  0  0  0  0  0  0  0  0  0  0  0
   45.1358    4.3740   11.9225 C   0  0  0  0  0  0  0  0  0  0  0  0
   45.7666    3.4977   12.8146 C   0  0  0  0  0  0  0  0  0  0  0  0
   44.8021    2.7388    9.9904 O   0  0  0  0  0  0  0  0  0  0  0  0
   43.5233    4.8491   10.0006 O   0  0  0  0  0  0  0  0  0  0  0  0
   42.9632    3.0689   11.6150 O   0  0  0  0  0  0  0  0  0  0  0  0
   45.4129    5.7433   11.9579 C   0  0  0  0  0  0  0  0  0  0  0  0
   46.3252    6.2376   12.8901 C   0  0  0  0  0  0  0  0  0  0  0  0
   46.6724    4.0051   13.7370 C   0  0  0  0  0  0  0  0  0  0  0  0
   46.9582    5.3691   13.7831 C   0  0  0  0  0  0  0  0  0  0  0  0
   44.8446    6.6696   11.1263 O   0  0  0  0  0  0  0  0  0  0  0  0
   47.2742    3.1316   14.5957 O   0  0  0  0  0  0  0  0  0  0  0  0
   45.7821    2.5728   13.0004 H   0  0  0  0  0  0  0  0  0  0  0  0
   46.3282    7.5012   12.6709 H   0  0  0  0  0  0  0  0  0  0  0  0
   47.6125    6.2259   14.3799 H   0  0  0  0  0  0  0  0  0  0  0  0
   44.1051    5.9279   10.4425 H   0  0  0  0  0  0  0  0  0  0  0  0
   47.2751    2.7199   14.6726 H   0  0  0  0  0  0  0  0  0  0  0  0
   45.5416    2.4354   12.7758 H   0  0  0  0  0  0  0  0  0  0  0  0
   46.5385    7.3020   12.9153 H   0  0  0  0  0  0  0  0  0  0  0  0
   47.6641    5.7734   14.5001 H   0  0  0  0  0  0  0  0  0  0  0  0
   44.2256    6.1732   10.5265 H   0  0  0  0  0  0  0  0  0  0  0  0
   47.8717    3.6346   15.1698 H   0  0  0  0  0  0  0  0  0  0  0  0
  3  2  1  0
  4  3  2  0
  5  2  1  0
  6  2  2  0
  7  2  2  0
  8  3  1  0
  9  8  2  0
 10  4  1  0
 11  9  1  0
 12  8  1  0
 13 10  1  0
 10 11  2  0
 15 14  1  0
 16 15  2  0
 17 14  1  0
 18 14  2  0
 19 14  2  0
 20 15  1  0
 21 20  2  0
 22 16  1  0
 23 21  1  0
 24 20  1  0
 25 22  1  0
 22 23  2  0
  4 26  1  0
  9 27  1  0
 11 28  1  0
 12 29  1  0
 13 30  1  0
 16 31  1  0
 21 32  1  0
 23 33  1  0
 24 34  1  0
 25 35  1  0
M  CHG  3   1   2   5  -1  17  -1
M  END
> <Uni-Dock RESULT> 
ENERGY=   -6.365  LOWER_BOUND=    2.838  UPPER_BOUND=    4.365
INTER + INTRA:          -6.365
INTER:                  -6.365
INTRA:                   0.000
UNBOUND:                 0.000

$$$$

     RDKit          3D

 35 34  0  0  0  0  0  0  0  0999 V2000
   49.9378    3.3683   17.5089 Ca  0  0  0  0  0 15  0  0  0  0  0  0
   47.5864    3.4527   16.8451 S   0  0  0  0  0  0  0  0  0  0  0  0
   49.3144    3.4561   17.3522 C   0  0  0  0  0  0  0  0  0  0  0  0
   50.0242    2.2574   17.2065 C   0  0  0  0  0  0  0  0  0  0  0  0
   47.1722    4.8282   17.1295 O   0  0  0  0  0  0  0  0  0  0  0  0
   47.0092    2.4332   17.7141 O   0  0  0  0  0  0  0  0  0  0  0  0
   47.6778    3.1066   15.4310 O   0  0  0  0  0  0  0  0  0  0  0  0
   49.9364    4.5945   17.8702 C   0  0  0  0  0  0  0  0  0  0  0  0
   51.2787    4.5328   18.2451 C   0  0  0  0  0  0  0  0  0  0  0  0
   51.3604    2.2136   17.5850 C   0  0  0  0  0  0  0  0  0  0  0  0
   51.9929    3.3400   18.1025 C   0  0  0  0  0  0  0  0  0  0  0  0
   49.3151    5.8012   18.0441 O   0  0  0  0  0  0  0  0  0  0  0  0
   52.0899    1.0667   17.4604 O   0  0  0  0  0  0  0  0  0  0  0  0
   47.5003    3.7427   16.9205 S   0  0  0  0  0  0  0  0  0  0  0  0
   49.2343    3.5016   17.3464 C   0  0  0  0  0  0  0  0  0  0  0  0
   49.7829    2.2303   17.1353 C   0  0  0  0  0  0  0  0  0  0  0  0
   47.4798    3.4468   15.4925 O   0  0  0  0  0  0  0  0  0  0  0  0
   47.2865    5.1506   17.2669 O   0  0  0  0  0  0  0  0  0  0  0  0
   46.8243    2.7829   17.7859 O   0  0  0  0  0  0  0  0  0  0  0  0
   50.0175    4.5342   17.8692 C   0  0  0  0  0  0  0  0  0  0  0  0
   51.3553    4.2935   18.1819 C   0  0  0  0  0  0  0  0  0  0  0  0
   51.1165    2.0063   17.4517 C   0  0  0  0  0  0  0  0  0  0  0  0
   51.9092    3.0277   17.9738 C   0  0  0  0  0  0  0  0  0  0  0  0
   49.5655    5.8038   18.1074 O   0  0  0  0  0  0  0  0  0  0  0  0
   51.6282    0.7594   17.2371 O   0  0  0  0  0  0  0  0  0  0  0  0
   49.5087    1.3920   16.8003 H   0  0  0  0  0  0  0  0  0  0  0  0
   51.7646    5.4161   18.6480 H   0  0  0  0  0  0  0  0  0  0  0  0
   53.0370    3.2916   18.3941 H   0  0  0  0  0  0  0  0  0  0  0  0
   48.3768    5.6881   17.7359 H   0  0  0  0  0  0  0  0  0  0  0  0
   51.4987    0.3902   17.0877 H   0  0  0  0  0  0  0  0  0  0  0  0
   49.1623    1.4368   16.7282 H   0  0  0  0  0  0  0  0  0  0  0  0
   51.9614    5.0978   18.5879 H   0  0  0  0  0  0  0  0  0  0  0  0
   52.9512    2.8611   18.2235 H   0  0  0  0  0  0  0  0  0  0  0  0
   48.6080    5.8211   17.8387 H   0  0  0  0  0  0  0  0  0  0  0  0
   52.5599    0.7644   17.5048 H   0  0  0  0  0  0  0  0  0  0  0  0
  3  2  1  0
  4  3  2  0
  5  2  1  0
  6  2  2  0
  7  2  2  0
  8  3  1  0
  9  8  2  0
 10  4  1  0
 11  9  1  0
 12  8  1  0
 13 10  1  0
 10 11  2  0
 15 14  1  0
 16 15  2  0
 17 14  1  0
 18 14  2  0
 19 14  2  0
 20 15  1  0
 21 20  2  0
 22 16  1  0
 23 21  1  0
 24 20  1  0
 25 22  1  0
 22 23  2  0
  4 26  1  0
  9 27  1  0
 11 28  1  0
 12 29  1  0
 13 30  1  0
 16 31  1  0
 21 32  1  0
 23 33  1  0
 24 34  1  0
 25 35  1  0
M  CHG  3   1   2   5  -1  17  -1
M  END
> <Uni-Dock RESULT> 
ENERGY=   -6.168  LOWER_BOUND=    8.357  UPPER_BOUND=    9.208
INTER + INTRA:          -6.168
INTER:                  -6.168
INTRA:                   0.000
UNBOUND:                 0.000

$$$$

     RDKit          3D

 35 34  0  0  0  0  0  0  0  0999 V2000
   49.2496    3.9072   17.8370 Ca  0  0  0  0  0 15  0  0  0  0  0  0
   51.5838    4.3613   18.4046 S   0  0  0  0  0  0  0  0  0  0  0  0
   49.8847    3.9709   17.9533 C   0  0  0  0  0  0  0  0  0  0  0  0
   48.8890    4.8513   18.3953 C   0  0  0  0  0  0  0  0  0  0  0  0
   52.3326    3.2612   17.7933 O   0  0  0  0  0  0  0  0  0  0  0  0
   51.5296    4.3472   19.8622 O   0  0  0  0  0  0  0  0  0  0  0  0
   51.7772    5.6687   17.7873 O   0  0  0  0  0  0  0  0  0  0  0  0
   49.5553    2.8440   17.1964 C   0  0  0  0  0  0  0  0  0  0  0  0
   48.2194    2.5967   16.8794 C   0  0  0  0  0  0  0  0  0  0  0  0
   47.5636    4.5896   18.0706 C   0  0  0  0  0  0  0  0  0  0  0  0
   47.2208    3.4709   17.3172 C   0  0  0  0  0  0  0  0  0  0  0  0
   50.4658    1.9369   16.7271 O   0  0  0  0  0  0  0  0  0  0  0  0
   46.5614    5.4207   18.4803 O   0  0  0  0  0  0  0  0  0  0  0  0
   51.7363    4.1175   18.2841 S   0  0  0  0  0  0  0  0  0  0  0  0
   49.9736    3.9461   17.9527 C   0  0  0  0  0  0  0  0  0  0  0  0
   49.1176    4.9232   18.4764 C   0  0  0  0  0  0  0  0  0  0  0  0
   52.0510    5.4034   17.6721 O   0  0  0  0  0  0  0  0  0  0  0  0
   52.2977    2.9493   17.6001 O   0  0  0  0  0  0  0  0  0  0  0  0
   51.7920    4.0678   19.7407 O   0  0  0  0  0  0  0  0  0  0  0  0
   49.4624    2.8835   17.2027 C   0  0  0  0  0  0  0  0  0  0  0  0
   48.0888    2.7986   16.9758 C   0  0  0  0  0  0  0  0  0  0  0  0
   47.7523    4.8247   18.2419 C   0  0  0  0  0  0  0  0  0  0  0  0
   47.2290    3.7698   17.4952 C   0  0  0  0  0  0  0  0  0  0  0  0
   50.2231    1.8868   16.6544 O   0  0  0  0  0  0  0  0  0  0  0  0
   46.9386    5.7888   18.7625 O   0  0  0  0  0  0  0  0  0  0  0  0
   49.1814    5.7174   18.9818 H   0  0  0  0  0  0  0  0  0  0  0  0
   47.9605    1.7216   16.2912 H   0  0  0  0  0  0  0  0  0  0  0  0
   46.1816    3.2787   17.0708 H   0  0  0  0  0  0  0  0  0  0  0  0
   51.3609    2.2454   17.0304 H   0  0  0  0  0  0  0  0  0  0  0  0
   46.9751    6.1400   18.9878 H   0  0  0  0  0  0  0  0  0  0  0  0
   49.5289    5.7439   19.0578 H   0  0  0  0  0  0  0  0  0  0  0  0
   47.6945    1.9718   16.3926 H   0  0  0  0  0  0  0  0  0  0  0  0
   46.1643    3.6855   17.3075 H   0  0  0  0  0  0  0  0  0  0  0  0
   51.1676    2.0814   16.8982 H   0  0  0  0  0  0  0  0  0  0  0  0
   46.0251    5.5807   18.5137 H   0  0  0  0  0  0  0  0  0  0  0  0
  3  2  1  0
  4  3  2  0
  5  2  1  0
  6  2  2  0
  7  2  2  0
  8  3  1  0
  9  8  2  0
 10  4  1  0
 11  9  1  0
 12  8  1  0
 13 10  1  0
 10 11  2  0
 15 14  1  0
 16 15  2  0
 17 14  1  0
 18 14  2  0
 19 14  2  0
 20 15  1  0
 21 20  2  0
 22 16  1  0
 23 21  1  0
 24 20  1  0
 25 22  1  0
 22 23  2  0
  4 26  1  0
  9 27  1  0
 11 28  1  0
 12 29  1  0
 13 30  1  0
 16 31  1  0
 21 32  1  0
 23 33  1  0
 24 34  1  0
 25 35  1  0
M  CHG  3   1   2   5  -1  17  -1
M  END
> <Uni-Dock RESULT> 
ENERGY=   -5.651  LOWER_BOUND=    8.624  UPPER_BOUND=    9.676
INTER + INTRA:          -5.651
INTER:                  -5.651
INTRA:                   0.000
UNBOUND:                 0.000

$$$$
