
     RDKit          3D

 35 34  0  0  0  0  0  0  0  0999 V2000
   45.3328    5.5637   12.6434 Ca  0  0  0  0  0 15  0  0  0  0  0  0
   47.3349    6.9099   13.0389 S   0  0  0  0  0  0  0  0  0  0  0  0
   45.8874    5.8687   12.7855 C   0  0  0  0  0  0  0  0  0  0  0  0
   44.8552    6.3924   11.9967 C   0  0  0  0  0  0  0  0  0  0  0  0
   46.7643    8.0818   13.6939 O   0  0  0  0  0  0  0  0  0  0  0  0
   47.8147    7.1124   11.6764 O   0  0  0  0  0  0  0  0  0  0  0  0
   48.1836    6.0685   13.8851 O   0  0  0  0  0  0  0  0  0  0  0  0
   45.7811    4.5925   13.3434 C   0  0  0  0  0  0  0  0  0  0  0  0
   44.6333    3.8348   13.1099 C   0  0  0  0  0  0  0  0  0  0  0  0
   43.7191    5.6240   11.7743 C   0  0  0  0  0  0  0  0  0  0  0  0
   43.5997    4.3511   12.3238 C   0  0  0  0  0  0  0  0  0  0  0  0
   46.7419    4.0094   14.1237 O   0  0  0  0  0  0  0  0  0  0  0  0
   42.6894    6.0947   11.0120 O   0  0  0  0  0  0  0  0  0  0  0  0
   43.1393    4.8942   11.5625 S   0  0  0  0  0  0  0  0  0  0  0  0
   44.7038    5.3446   12.3342 C   0  0  0  0  0  0  0  0  0  0  0  0
   45.0024    6.7085   12.4461 C   0  0  0  0  0  0  0  0  0  0  0  0
   43.1729    3.4301   11.6198 O   0  0  0  0  0  0  0  0  0  0  0  0
   42.1594    5.5255   12.4389 O   0  0  0  0  0  0  0  0  0  0  0  0
   43.2686    5.4642   10.2263 O   0  0  0  0  0  0  0  0  0  0  0  0
   45.5980    4.3814   12.8092 C   0  0  0  0  0  0  0  0  0  0  0  0
   46.7962    4.7849   13.3985 C   0  0  0  0  0  0  0  0  0  0  0  0
   46.1993    7.0943   13.0354 C   0  0  0  0  0  0  0  0  0  0  0  0
   47.1005    6.1438   13.5135 C   0  0  0  0  0  0  0  0  0  0  0  0
   45.3885    3.0307   12.7416 O   0  0  0  0  0  0  0  0  0  0  0  0
   46.4678    8.4289   13.1330 O   0  0  0  0  0  0  0  0  0  0  0  0
   44.9719    7.3881   11.5790 H   0  0  0  0  0  0  0  0  0  0  0  0
   44.5480    2.8426   13.5422 H   0  0  0  0  0  0  0  0  0  0  0  0
   42.7067    3.7618   12.1420 H   0  0  0  0  0  0  0  0  0  0  0  0
   47.4874    4.6629   14.1978 H   0  0  0  0  0  0  0  0  0  0  0  0
   42.9383    6.9863   10.7133 H   0  0  0  0  0  0  0  0  0  0  0  0
   44.2978    7.4465   12.0725 H   0  0  0  0  0  0  0  0  0  0  0  0
   47.4890    4.0341   13.7667 H   0  0  0  0  0  0  0  0  0  0  0  0
   48.0371    6.4366   13.9749 H   0  0  0  0  0  0  0  0  0  0  0  0
   44.5057    2.9004   12.3026 H   0  0  0  0  0  0  0  0  0  0  0  0
   47.3305    8.5334   13.5625 H   0  0  0  0  0  0  0  0  0  0  0  0
  3  2  1  0
  4  3  2  0
  5  2  1  0
  6  2  2  0
  7  2  2  0
  8  3  1  0
  9  8  2  0
 10  4  1  0
 11  9  1  0
 12  8  1  0
 13 10  1  0
 10 11  2  0
 15 14  1  0
 16 15  2  0
 17 14  1  0
 18 14  2  0
 19 14  2  0
 20 15  1  0
 21 20  2  0
 22 16  1  0
 23 21  1  0
 24 20  1  0
 25 22  1  0
 22 23  2  0
  4 26  1  0
  9 27  1  0
 11 28  1  0
 12 29  1  0
 13 30  1  0
 16 31  1  0
 21 32  1  0
 23 33  1  0
 24 34  1  0
 25 35  1  0
M  CHG  3   1   2   5  -1  17  -1
M  END
> <Uni-Dock RESULT> 
ENERGY=   -5.887  LOWER_BOUND=    0.000  UPPER_BOUND=    0.000
INTER + INTRA:          -5.887
INTER:                  -5.887
INTRA:                   0.000
UNBOUND:                 0.000

$$$$

     RDKit          3D

 35 34  0  0  0  0  0  0  0  0999 V2000
   44.2939    4.2497   10.4666 Ca  0  0  0  0  0 15  0  0  0  0  0  0
   45.0720    3.3820    8.3174 S   0  0  0  0  0  0  0  0  0  0  0  0
   44.4976    3.9574    9.9245 C   0  0  0  0  0  0  0  0  0  0  0  0
   44.3080    5.3367   10.0776 C   0  0  0  0  0  0  0  0  0  0  0  0
   46.3506    4.0704    8.1794 O   0  0  0  0  0  0  0  0  0  0  0  0
   44.0074    3.8316    7.4274 O   0  0  0  0  0  0  0  0  0  0  0  0
   45.1567    1.9334    8.5137 O   0  0  0  0  0  0  0  0  0  0  0  0
   44.2472    3.0813   10.9832 C   0  0  0  0  0  0  0  0  0  0  0  0
   43.8035    3.5895   12.2043 C   0  0  0  0  0  0  0  0  0  0  0  0
   43.8657    5.8257   11.3006 C   0  0  0  0  0  0  0  0  0  0  0  0
   43.6122    4.9646   12.3641 C   0  0  0  0  0  0  0  0  0  0  0  0
   44.4071    1.7241   10.9157 O   0  0  0  0  0  0  0  0  0  0  0  0
   43.6674    7.1623   11.4940 O   0  0  0  0  0  0  0  0  0  0  0  0
   43.3697    5.9457   12.1089 S   0  0  0  0  0  0  0  0  0  0  0  0
   44.0143    4.7213   10.9550 C   0  0  0  0  0  0  0  0  0  0  0  0
   44.8290    5.1795    9.9119 C   0  0  0  0  0  0  0  0  0  0  0  0
   42.5857    5.1216   13.0331 O   0  0  0  0  0  0  0  0  0  0  0  0
   44.5851    6.5220   12.6724 O   0  0  0  0  0  0  0  0  0  0  0  0
   42.5865    6.8183   11.2415 O   0  0  0  0  0  0  0  0  0  0  0  0
   43.7220    3.3607   11.0814 C   0  0  0  0  0  0  0  0  0  0  0  0
   44.2472    2.4547   10.1600 C   0  0  0  0  0  0  0  0  0  0  0  0
   45.3444    4.2652    9.0025 C   0  0  0  0  0  0  0  0  0  0  0  0
   45.0608    2.9048    9.1170 C   0  0  0  0  0  0  0  0  0  0  0  0
   42.9371    2.8260   12.0668 O   0  0  0  0  0  0  0  0  0  0  0  0
   46.1356    4.7358    7.9949 O   0  0  0  0  0  0  0  0  0  0  0  0
   44.5126    5.9882    9.2331 H   0  0  0  0  0  0  0  0  0  0  0  0
   43.6080    2.9110   13.0290 H   0  0  0  0  0  0  0  0  0  0  0  0
   43.2671    5.3603   13.3139 H   0  0  0  0  0  0  0  0  0  0  0  0
   44.7233    1.5177    9.9961 H   0  0  0  0  0  0  0  0  0  0  0  0
   43.8900    7.6087   10.6590 H   0  0  0  0  0  0  0  0  0  0  0  0
   45.0480    6.2404    9.8257 H   0  0  0  0  0  0  0  0  0  0  0  0
   44.0184    1.3980   10.2608 H   0  0  0  0  0  0  0  0  0  0  0  0
   45.4592    2.1844    8.4113 H   0  0  0  0  0  0  0  0  0  0  0  0
   42.6404    3.5840   12.6383 H   0  0  0  0  0  0  0  0  0  0  0  0
   46.4132    3.9828    7.4512 H   0  0  0  0  0  0  0  0  0  0  0  0
  3  2  1  0
  4  3  2  0
  5  2  1  0
  6  2  2  0
  7  2  2  0
  8  3  1  0
  9  8  2  0
 10  4  1  0
 11  9  1  0
 12  8  1  0
 13 10  1  0
 10 11  2  0
 15 14  1  0
 16 15  2  0
 17 14  1  0
 18 14  2  0
 19 14  2  0
 20 15  1  0
 21 20  2  0
 22 16  1  0
 23 21  1  0
 24 20  1  0
 25 22  1  0
 22 23  2  0
  4 26  1  0
  9 27  1  0
 11 28  1  0
 12 29  1  0
 13 30  1  0
 16 31  1  0
 21 32  1  0
 23 33  1  0
 24 34  1  0
 25 35  1  0
M  CHG  3   1   2   5  -1  17  -1
M  END
> <Uni-Dock RESULT> 
ENERGY=   -5.851  LOWER_BOUND=    2.506  UPPER_BOUND=    4.055
INTER + INTRA:          -5.851
INTER:                  -5.851
INTRA:                   0.000
UNBOUND:                 0.000

$$$$

     RDKit          3D

 35 34  0  0  0  0  0  0  0  0999 V2000
   45.3584    5.6282   12.7019 Ca  0  0  0  0  0 15  0  0  0  0  0  0
   47.0511    4.7522   14.2330 S   0  0  0  0  0  0  0  0  0  0  0  0
   45.8424    5.4533   13.0968 C   0  0  0  0  0  0  0  0  0  0  0  0
   44.6979    4.6903   12.8325 C   0  0  0  0  0  0  0  0  0  0  0  0
   47.4317    3.5160   13.5585 O   0  0  0  0  0  0  0  0  0  0  0  0
   46.2734    4.5962   15.4571 O   0  0  0  0  0  0  0  0  0  0  0  0
   48.0840    5.7893   14.2731 O   0  0  0  0  0  0  0  0  0  0  0  0
   46.0216    6.7015   12.4960 C   0  0  0  0  0  0  0  0  0  0  0  0
   45.0480    7.1897   11.6242 C   0  0  0  0  0  0  0  0  0  0  0  0
   43.7383    5.1918   11.9618 C   0  0  0  0  0  0  0  0  0  0  0  0
   43.9037    6.4337   11.3561 C   0  0  0  0  0  0  0  0  0  0  0  0
   47.1084    7.5072   12.7007 O   0  0  0  0  0  0  0  0  0  0  0  0
   42.6079    4.4822   11.6759 O   0  0  0  0  0  0  0  0  0  0  0  0
   43.1158    5.7733   11.5282 S   0  0  0  0  0  0  0  0  0  0  0  0
   44.7116    5.6964   12.3610 C   0  0  0  0  0  0  0  0  0  0  0  0
   45.1931    4.4321   12.7240 C   0  0  0  0  0  0  0  0  0  0  0  0
   42.9461    7.2127   11.3109 O   0  0  0  0  0  0  0  0  0  0  0  0
   43.3491    4.9885   10.3213 O   0  0  0  0  0  0  0  0  0  0  0  0
   42.2148    5.1858   12.5131 O   0  0  0  0  0  0  0  0  0  0  0  0
   45.4548    6.8459   12.6422 C   0  0  0  0  0  0  0  0  0  0  0  0
   46.6850    6.7297   13.2894 C   0  0  0  0  0  0  0  0  0  0  0  0
   46.4196    4.3329   13.3677 C   0  0  0  0  0  0  0  0  0  0  0  0
   47.1714    5.4717   13.6542 C   0  0  0  0  0  0  0  0  0  0  0  0
   45.0625    8.1180   12.3247 O   0  0  0  0  0  0  0  0  0  0  0  0
   46.8675    3.0902   13.7113 O   0  0  0  0  0  0  0  0  0  0  0  0
   44.5917    3.7242   13.3174 H   0  0  0  0  0  0  0  0  0  0  0  0
   45.1847    8.1596   11.1558 H   0  0  0  0  0  0  0  0  0  0  0  0
   43.1461    6.8133   10.6780 H   0  0  0  0  0  0  0  0  0  0  0  0
   47.7047    7.0291   13.3364 H   0  0  0  0  0  0  0  0  0  0  0  0
   42.6567    3.6509   12.1785 H   0  0  0  0  0  0  0  0  0  0  0  0
   44.6045    3.5467   12.4990 H   0  0  0  0  0  0  0  0  0  0  0  0
   47.2603    7.6248   13.5065 H   0  0  0  0  0  0  0  0  0  0  0  0
   48.1299    5.4029   14.1565 H   0  0  0  0  0  0  0  0  0  0  0  0
   44.1791    8.0403   11.8745 H   0  0  0  0  0  0  0  0  0  0  0  0
   47.7274    3.1885   14.1476 H   0  0  0  0  0  0  0  0  0  0  0  0
  3  2  1  0
  4  3  2  0
  5  2  1  0
  6  2  2  0
  7  2  2  0
  8  3  1  0
  9  8  2  0
 10  4  1  0
 11  9  1  0
 12  8  1  0
 13 10  1  0
 10 11  2  0
 15 14  1  0
 16 15  2  0
 17 14  1  0
 18 14  2  0
 19 14  2  0
 20 15  1  0
 21 20  2  0
 22 16  1  0
 23 21  1  0
 24 20  1  0
 25 22  1  0
 22 23  2  0
  4 26  1  0
  9 27  1  0
 11 28  1  0
 12 29  1  0
 13 30  1  0
 16 31  1  0
 21 32  1  0
 23 33  1  0
 24 34  1  0
 25 35  1  0
M  CHG  3   1   2   5  -1  17  -1
M  END
> <Uni-Dock RESULT> 
ENERGY=   -5.734  LOWER_BOUND=    0.984  UPPER_BOUND=    2.850
INTER + INTRA:          -5.734
INTER:                  -5.734
INTRA:                   0.000
UNBOUND:                 0.000

$$$$

     RDKit          3D

 35 34  0  0  0  0  0  0  0  0999 V2000
   45.4902    5.9004   12.7274 Ca  0  0  0  0  0 15  0  0  0  0  0  0
   43.4040    4.7334   12.2142 S   0  0  0  0  0  0  0  0  0  0  0  0
   44.9686    5.5332   12.6091 C   0  0  0  0  0  0  0  0  0  0  0  0
   45.0334    6.9229   12.4466 C   0  0  0  0  0  0  0  0  0  0  0  0
   43.2292    5.0704   10.8058 O   0  0  0  0  0  0  0  0  0  0  0  0
   42.4821    5.3783   13.1425 O   0  0  0  0  0  0  0  0  0  0  0  0
   43.6918    3.3247   12.4918 O   0  0  0  0  0  0  0  0  0  0  0  0
   46.0793    4.8153   13.0587 C   0  0  0  0  0  0  0  0  0  0  0  0
   47.2636    5.4935   13.3480 C   0  0  0  0  0  0  0  0  0  0  0  0
   46.2208    7.5823   12.7394 C   0  0  0  0  0  0  0  0  0  0  0  0
   47.3352    6.8800   13.1882 C   0  0  0  0  0  0  0  0  0  0  0  0
   46.0985    3.4598   13.2435 O   0  0  0  0  0  0  0  0  0  0  0  0
   46.3284    8.9354   12.5955 O   0  0  0  0  0  0  0  0  0  0  0  0
   47.0174    7.8726   13.1808 S   0  0  0  0  0  0  0  0  0  0  0  0
   45.9464    6.4565   12.8751 C   0  0  0  0  0  0  0  0  0  0  0  0
   44.8805    6.6305   11.9832 C   0  0  0  0  0  0  0  0  0  0  0  0
   47.9879    7.3299   14.1355 O   0  0  0  0  0  0  0  0  0  0  0  0
   47.5495    8.1609   11.8539 O   0  0  0  0  0  0  0  0  0  0  0  0
   46.0927    8.8573   13.7308 O   0  0  0  0  0  0  0  0  0  0  0  0
   46.1570    5.2226   13.4965 C   0  0  0  0  0  0  0  0  0  0  0  0
   45.2973    4.1584   13.2242 C   0  0  0  0  0  0  0  0  0  0  0  0
   44.0333    5.5614   11.7224 C   0  0  0  0  0  0  0  0  0  0  0  0
   44.2321    4.3250   12.3355 C   0  0  0  0  0  0  0  0  0  0  0  0
   47.1703    4.9636   14.3791 O   0  0  0  0  0  0  0  0  0  0  0  0
   43.0019    5.7555   10.8498 O   0  0  0  0  0  0  0  0  0  0  0  0
   44.1504    7.4486   12.0950 H   0  0  0  0  0  0  0  0  0  0  0  0
   48.1285    4.9382   13.6977 H   0  0  0  0  0  0  0  0  0  0  0  0
   48.2564    7.4078   13.4132 H   0  0  0  0  0  0  0  0  0  0  0  0
   45.1953    3.1239   12.9990 H   0  0  0  0  0  0  0  0  0  0  0  0
   45.4679    9.2590   12.2777 H   0  0  0  0  0  0  0  0  0  0  0  0
   44.7286    7.5955   11.5072 H   0  0  0  0  0  0  0  0  0  0  0  0
   45.4636    3.2009   13.7085 H   0  0  0  0  0  0  0  0  0  0  0  0
   43.5752    3.4853   12.1373 H   0  0  0  0  0  0  0  0  0  0  0  0
   47.6912    5.8058   14.4709 H   0  0  0  0  0  0  0  0  0  0  0  0
   42.5083    4.9247   10.7751 H   0  0  0  0  0  0  0  0  0  0  0  0
  3  2  1  0
  4  3  2  0
  5  2  1  0
  6  2  2  0
  7  2  2  0
  8  3  1  0
  9  8  2  0
 10  4  1  0
 11  9  1  0
 12  8  1  0
 13 10  1  0
 10 11  2  0
 15 14  1  0
 16 15  2  0
 17 14  1  0
 18 14  2  0
 19 14  2  0
 20 15  1  0
 21 20  2  0
 22 16  1  0
 23 21  1  0
 24 20  1  0
 25 22  1  0
 22 23  2  0
  4 26  1  0
  9 27  1  0
 11 28  1  0
 12 29  1  0
 13 30  1  0
 16 31  1  0
 21 32  1  0
 23 33  1  0
 24 34  1  0
 25 35  1  0
M  CHG  3   1   2   5  -1  17  -1
M  END
> <Uni-Dock RESULT> 
ENERGY=   -5.643  LOWER_BOUND=    0.758  UPPER_BOUND=    3.927
INTER + INTRA:          -5.643
INTER:                  -5.643
INTRA:                   0.000
UNBOUND:                 0.000

$$$$

     RDKit          3D

 35 34  0  0  0  0  0  0  0  0999 V2000
   45.2635    5.8991   12.6600 Ca  0  0  0  0  0 15  0  0  0  0  0  0
   43.1781    5.9583   11.3852 S   0  0  0  0  0  0  0  0  0  0  0  0
   44.7226    5.9810   12.3114 C   0  0  0  0  0  0  0  0  0  0  0  0
   45.1383    4.7741   12.8879 C   0  0  0  0  0  0  0  0  0  0  0  0
   42.2144    5.5418   12.3978 O   0  0  0  0  0  0  0  0  0  0  0  0
   43.4593    4.9855   10.3354 O   0  0  0  0  0  0  0  0  0  0  0  0
   43.0586    7.3477   10.9384 O   0  0  0  0  0  0  0  0  0  0  0  0
   45.4855    7.1418   12.4589 C   0  0  0  0  0  0  0  0  0  0  0  0
   46.6734    7.0942   13.1888 C   0  0  0  0  0  0  0  0  0  0  0  0
   46.3241    4.7447   13.6116 C   0  0  0  0  0  0  0  0  0  0  0  0
   47.0942    5.8934   13.7667 C   0  0  0  0  0  0  0  0  0  0  0  0
   45.1503    8.3577   11.9285 O   0  0  0  0  0  0  0  0  0  0  0  0
   46.7669    3.5905   14.1902 O   0  0  0  0  0  0  0  0  0  0  0  0
   47.2352    4.8662   13.8739 S   0  0  0  0  0  0  0  0  0  0  0  0
   45.8493    5.6202   13.0038 C   0  0  0  0  0  0  0  0  0  0  0  0
   44.6195    4.9507   13.0404 C   0  0  0  0  0  0  0  0  0  0  0  0
   48.3187    5.8203   13.6215 O   0  0  0  0  0  0  0  0  0  0  0  0
   46.7588    4.8211   15.2515 O   0  0  0  0  0  0  0  0  0  0  0  0
   47.3728    3.5809   13.1986 O   0  0  0  0  0  0  0  0  0  0  0  0
   45.9792    6.8279   12.3129 C   0  0  0  0  0  0  0  0  0  0  0  0
   44.8736    7.3681   11.6559 C   0  0  0  0  0  0  0  0  0  0  0  0
   43.5281    5.5013   12.3813 C   0  0  0  0  0  0  0  0  0  0  0  0
   43.6438    6.7057   11.6883 C   0  0  0  0  0  0  0  0  0  0  0  0
   47.1395    7.5482   12.2248 O   0  0  0  0  0  0  0  0  0  0  0  0
   42.3406    4.8305   12.4313 O   0  0  0  0  0  0  0  0  0  0  0  0
   44.5202    3.8914   12.7528 H   0  0  0  0  0  0  0  0  0  0  0  0
   47.2684    7.9948   13.3051 H   0  0  0  0  0  0  0  0  0  0  0  0
   48.0182    5.8561   14.3345 H   0  0  0  0  0  0  0  0  0  0  0  0
   44.2914    8.2327   11.4438 H   0  0  0  0  0  0  0  0  0  0  0  0
   46.1156    2.8983   13.9837 H   0  0  0  0  0  0  0  0  0  0  0  0
   44.5330    4.0124   13.5814 H   0  0  0  0  0  0  0  0  0  0  0  0
   44.9776    8.3068   11.1199 H   0  0  0  0  0  0  0  0  0  0  0  0
   42.7966    7.1422   11.1711 H   0  0  0  0  0  0  0  0  0  0  0  0
   47.8280    7.0440   12.7354 H   0  0  0  0  0  0  0  0  0  0  0  0
   41.6851    5.3377   11.9288 H   0  0  0  0  0  0  0  0  0  0  0  0
  3  2  1  0
  4  3  2  0
  5  2  1  0
  6  2  2  0
  7  2  2  0
  8  3  1  0
  9  8  2  0
 10  4  1  0
 11  9  1  0
 12  8  1  0
 13 10  1  0
 10 11  2  0
 15 14  1  0
 16 15  2  0
 17 14  1  0
 18 14  2  0
 19 14  2  0
 20 15  1  0
 21 20  2  0
 22 16  1  0
 23 21  1  0
 24 20  1  0
 25 22  1  0
 22 23  2  0
  4 26  1  0
  9 27  1  0
 11 28  1  0
 12 29  1  0
 13 30  1  0
 16 31  1  0
 21 32  1  0
 23 33  1  0
 24 34  1  0
 25 35  1  0
M  CHG  3   1   2   5  -1  17  -1
M  END
> <Uni-Dock RESULT> 
ENERGY=   -5.608  LOWER_BOUND=    1.044  UPPER_BOUND=    4.234
INTER + INTRA:          -5.608
INTER:                  -5.608
INTRA:                   0.000
UNBOUND:                 0.000

$$$$

     RDKit          3D

 35 34  0  0  0  0  0  0  0  0999 V2000
   44.8566    6.3547   12.3080 Ca  0  0  0  0  0 15  0  0  0  0  0  0
   43.2171    4.5639   12.0209 S   0  0  0  0  0  0  0  0  0  0  0  0
   44.3800    5.9267   12.2053 C   0  0  0  0  0  0  0  0  0  0  0  0
   45.6277    5.6287   12.7679 C   0  0  0  0  0  0  0  0  0  0  0  0
   43.0394    4.1180   13.3983 O   0  0  0  0  0  0  0  0  0  0  0  0
   43.9437    3.6514   11.1450 O   0  0  0  0  0  0  0  0  0  0  0  0
   42.0553    5.2209   11.4186 O   0  0  0  0  0  0  0  0  0  0  0  0
   44.0688    7.2299   11.8106 C   0  0  0  0  0  0  0  0  0  0  0  0
   45.0133    8.2425   11.9800 C   0  0  0  0  0  0  0  0  0  0  0  0
   46.5566    6.6493   12.9293 C   0  0  0  0  0  0  0  0  0  0  0  0
   46.2601    7.9522   12.5406 C   0  0  0  0  0  0  0  0  0  0  0  0
   42.8757    7.6032   11.2544 O   0  0  0  0  0  0  0  0  0  0  0  0
   47.7844    6.4040   13.4729 O   0  0  0  0  0  0  0  0  0  0  0  0
   47.1184    7.4050   12.7650 S   0  0  0  0  0  0  0  0  0  0  0  0
   45.5056    6.6782   12.4237 C   0  0  0  0  0  0  0  0  0  0  0  0
   45.1775    5.4884   13.0860 C   0  0  0  0  0  0  0  0  0  0  0  0
   47.1072    8.6014   11.9186 O   0  0  0  0  0  0  0  0  0  0  0  0
   47.0544    7.6610   14.1993 O   0  0  0  0  0  0  0  0  0  0  0  0
   48.0366    6.3548   12.3395 O   0  0  0  0  0  0  0  0  0  0  0  0
   44.6031    7.2665   11.5336 C   0  0  0  0  0  0  0  0  0  0  0  0
   43.3670    6.6618   11.3055 C   0  0  0  0  0  0  0  0  0  0  0  0
   43.9429    4.8984   12.8483 C   0  0  0  0  0  0  0  0  0  0  0  0
   43.0331    5.4749   11.9629 C   0  0  0  0  0  0  0  0  0  0  0  0
   44.8395    8.4252   10.8447 O   0  0  0  0  0  0  0  0  0  0  0  0
   43.6462    3.7396   13.5056 O   0  0  0  0  0  0  0  0  0  0  0  0
   45.8354    4.6044   13.0633 H   0  0  0  0  0  0  0  0  0  0  0  0
   44.7741    9.2563   11.6741 H   0  0  0  0  0  0  0  0  0  0  0  0
   46.9951    8.7397   12.6725 H   0  0  0  0  0  0  0  0  0  0  0  0
   42.3156    6.7837   11.1993 H   0  0  0  0  0  0  0  0  0  0  0  0
   47.8199    5.4551   13.6837 H   0  0  0  0  0  0  0  0  0  0  0  0
   45.8890    5.0419   13.7754 H   0  0  0  0  0  0  0  0  0  0  0  0
   42.6677    7.1214   10.6134 H   0  0  0  0  0  0  0  0  0  0  0  0
   42.0672    5.0206   11.7718 H   0  0  0  0  0  0  0  0  0  0  0  0
   45.7477    8.7335   11.1078 H   0  0  0  0  0  0  0  0  0  0  0  0
   42.7592    3.4571   13.2355 H   0  0  0  0  0  0  0  0  0  0  0  0
  3  2  1  0
  4  3  2  0
  5  2  1  0
  6  2  2  0
  7  2  2  0
  8  3  1  0
  9  8  2  0
 10  4  1  0
 11  9  1  0
 12  8  1  0
 13 10  1  0
 10 11  2  0
 15 14  1  0
 16 15  2  0
 17 14  1  0
 18 14  2  0
 19 14  2  0
 20 15  1  0
 21 20  2  0
 22 16  1  0
 23 21  1  0
 24 20  1  0
 25 22  1  0
 22 23  2  0
  4 26  1  0
  9 27  1  0
 11 28  1  0
 12 29  1  0
 13 30  1  0
 16 31  1  0
 21 32  1  0
 23 33  1  0
 24 34  1  0
 25 35  1  0
M  CHG  3   1   2   5  -1  17  -1
M  END
> <Uni-Dock RESULT> 
ENERGY=   -4.847  LOWER_BOUND=    1.198  UPPER_BOUND=    4.538
INTER + INTRA:          -4.847
INTER:                  -4.847
INTRA:                   0.000
UNBOUND:                 0.000

$$$$

     RDKit          3D

 35 34  0  0  0  0  0  0  0  0999 V2000
   44.8482    5.7001   11.9547 Ca  0  0  0  0  0 15  0  0  0  0  0  0
   44.2362    3.3757   11.5073 S   0  0  0  0  0  0  0  0  0  0  0  0
   44.6215    5.1052   11.8297 C   0  0  0  0  0  0  0  0  0  0  0  0
   45.9625    5.4242   12.0785 C   0  0  0  0  0  0  0  0  0  0  0  0
   44.6743    2.7250   12.7371 O   0  0  0  0  0  0  0  0  0  0  0  0
   45.0347    3.0954   10.3192 O   0  0  0  0  0  0  0  0  0  0  0  0
   42.7875    3.4100   11.2966 O   0  0  0  0  0  0  0  0  0  0  0  0
   43.6394    6.0984   11.8355 C   0  0  0  0  0  0  0  0  0  0  0  0
   44.0021    7.4208   12.0922 C   0  0  0  0  0  0  0  0  0  0  0  0
   46.3061    6.7464   12.3323 C   0  0  0  0  0  0  0  0  0  0  0  0
   45.3381    7.7462   12.3413 C   0  0  0  0  0  0  0  0  0  0  0  0
   42.3105    5.8706   11.6024 O   0  0  0  0  0  0  0  0  0  0  0  0
   47.6004    7.1021   12.5798 O   0  0  0  0  0  0  0  0  0  0  0  0
   46.3770    7.6977   12.2712 S   0  0  0  0  0  0  0  0  0  0  0  0
   45.2722    6.2940   12.0363 C   0  0  0  0  0  0  0  0  0  0  0  0
   45.7380    5.0307   12.4226 C   0  0  0  0  0  0  0  0  0  0  0  0
   45.5730    8.8153   11.7689 O   0  0  0  0  0  0  0  0  0  0  0  0
   46.5961    7.6918   13.7130 O   0  0  0  0  0  0  0  0  0  0  0  0
   47.5245    7.3405   11.4449 O   0  0  0  0  0  0  0  0  0  0  0  0
   43.9944    6.4423   11.4902 C   0  0  0  0  0  0  0  0  0  0  0  0
   43.1793    5.3217   11.3300 C   0  0  0  0  0  0  0  0  0  0  0  0
   44.9146    3.9248   12.2568 C   0  0  0  0  0  0  0  0  0  0  0  0
   43.6376    4.0586   11.7133 C   0  0  0  0  0  0  0  0  0  0  0  0
   43.4591    7.6353   11.0863 O   0  0  0  0  0  0  0  0  0  0  0  0
   45.3907    2.7046   12.6407 O   0  0  0  0  0  0  0  0  0  0  0  0
   46.6993    4.6264   12.0661 H   0  0  0  0  0  0  0  0  0  0  0  0
   43.2408    8.1949   12.0973 H   0  0  0  0  0  0  0  0  0  0  0  0
   45.6206    8.7748   12.5410 H   0  0  0  0  0  0  0  0  0  0  0  0
   42.2109    4.8952   11.4382 H   0  0  0  0  0  0  0  0  0  0  0  0
   48.1342    6.2902   12.5350 H   0  0  0  0  0  0  0  0  0  0  0  0
   46.7337    4.9302   12.8458 H   0  0  0  0  0  0  0  0  0  0  0  0
   42.1869    5.4401   10.9055 H   0  0  0  0  0  0  0  0  0  0  0  0
   42.9884    3.2002   11.5806 H   0  0  0  0  0  0  0  0  0  0  0  0
   44.1482    8.3310   11.2606 H   0  0  0  0  0  0  0  0  0  0  0  0
   44.7054    2.0427   12.4626 H   0  0  0  0  0  0  0  0  0  0  0  0
  3  2  1  0
  4  3  2  0
  5  2  1  0
  6  2  2  0
  7  2  2  0
  8  3  1  0
  9  8  2  0
 10  4  1  0
 11  9  1  0
 12  8  1  0
 13 10  1  0
 10 11  2  0
 15 14  1  0
 16 15  2  0
 17 14  1  0
 18 14  2  0
 19 14  2  0
 20 15  1  0
 21 20  2  0
 22 16  1  0
 23 21  1  0
 24 20  1  0
 25 22  1  0
 22 23  2  0
  4 26  1  0
  9 27  1  0
 11 28  1  0
 12 29  1  0
 13 30  1  0
 16 31  1  0
 21 32  1  0
 23 33  1  0
 24 34  1  0
 25 35  1  0
M  CHG  3   1   2   5  -1  17  -1
M  END
> <Uni-Dock RESULT> 
ENERGY=   -4.729  LOWER_BOUND=    1.116  UPPER_BOUND=    4.306
INTER + INTRA:          -4.729
INTER:                  -4.729
INTRA:                   0.000
UNBOUND:                 0.000

$$$$

     RDKit          3D

 35 34  0  0  0  0  0  0  0  0999 V2000
   45.1925    6.2445   12.5246 Ca  0  0  0  0  0 15  0  0  0  0  0  0
   43.3520    4.7345   11.9679 S   0  0  0  0  0  0  0  0  0  0  0  0
   44.6716    5.8984   12.3521 C   0  0  0  0  0  0  0  0  0  0  0  0
   45.8191    5.3815   12.9667 C   0  0  0  0  0  0  0  0  0  0  0  0
   43.0078    4.2089   13.2843 O   0  0  0  0  0  0  0  0  0  0  0  0
   44.0140    3.8016   11.0629 O   0  0  0  0  0  0  0  0  0  0  0  0
   42.3413    5.5967   11.3521 O   0  0  0  0  0  0  0  0  0  0  0  0
   44.5725    7.2603   12.0576 C   0  0  0  0  0  0  0  0  0  0  0  0
   45.6300    8.1110   12.3805 C   0  0  0  0  0  0  0  0  0  0  0  0
   46.8628    6.2430   13.2814 C   0  0  0  0  0  0  0  0  0  0  0  0
   46.7778    7.6019   12.9938 C   0  0  0  0  0  0  0  0  0  0  0  0
   43.4887    7.8433   11.4597 O   0  0  0  0  0  0  0  0  0  0  0  0
   47.9993    5.7822   13.8806 O   0  0  0  0  0  0  0  0  0  0  0  0
   47.5334    6.9218   13.2240 S   0  0  0  0  0  0  0  0  0  0  0  0
   45.8684    6.4619   12.7119 C   0  0  0  0  0  0  0  0  0  0  0  0
   45.3304    5.2815   13.2403 C   0  0  0  0  0  0  0  0  0  0  0  0
   47.7515    8.1719   12.4909 O   0  0  0  0  0  0  0  0  0  0  0  0
   47.3927    7.0677   14.6682 O   0  0  0  0  0  0  0  0  0  0  0  0
   48.3305    5.7892   12.7668 O   0  0  0  0  0  0  0  0  0  0  0  0
   45.1269    7.2427   11.8211 C   0  0  0  0  0  0  0  0  0  0  0  0
   43.8417    6.8405   11.4576 C   0  0  0  0  0  0  0  0  0  0  0  0
   44.0495    4.8944   12.8686 C   0  0  0  0  0  0  0  0  0  0  0  0
   43.2988    5.6641   11.9809 C   0  0  0  0  0  0  0  0  0  0  0  0
   45.5721    8.4076   11.2575 O   0  0  0  0  0  0  0  0  0  0  0  0
   43.5472    3.7405   13.3968 O   0  0  0  0  0  0  0  0  0  0  0  0
   45.8616    4.3176   13.1810 H   0  0  0  0  0  0  0  0  0  0  0  0
   45.5558    9.1699   12.1528 H   0  0  0  0  0  0  0  0  0  0  0  0
   47.6006    8.2635   13.2451 H   0  0  0  0  0  0  0  0  0  0  0  0
   42.8283    7.1191   11.2934 H   0  0  0  0  0  0  0  0  0  0  0  0
   47.8887    4.8241   14.0063 H   0  0  0  0  0  0  0  0  0  0  0  0
   45.9183    4.6841   13.9319 H   0  0  0  0  0  0  0  0  0  0  0  0
   43.2679    7.4493   10.7652 H   0  0  0  0  0  0  0  0  0  0  0  0
   42.2980    5.3690   11.6857 H   0  0  0  0  0  0  0  0  0  0  0  0
   46.4904    8.5612   11.6071 H   0  0  0  0  0  0  0  0  0  0  0  0
   42.6539    3.6099   13.0439 H   0  0  0  0  0  0  0  0  0  0  0  0
  3  2  1  0
  4  3  2  0
  5  2  1  0
  6  2  2  0
  7  2  2  0
  8  3  1  0
  9  8  2  0
 10  4  1  0
 11  9  1  0
 12  8  1  0
 13 10  1  0
 10 11  2  0
 15 14  1  0
 16 15  2  0
 17 14  1  0
 18 14  2  0
 19 14  2  0
 20 15  1  0
 21 20  2  0
 22 16  1  0
 23 21  1  0
 24 20  1  0
 25 22  1  0
 22 23  2  0
  4 26  1  0
  9 27  1  0
 11 28  1  0
 12 29  1  0
 13 30  1  0
 16 31  1  0
 21 32  1  0
 23 33  1  0
 24 34  1  0
 25 35  1  0
M  CHG  3   1   2   5  -1  17  -1
M  END
> <Uni-Dock RESULT> 
ENERGY=   -4.682  LOWER_BOUND=    1.108  UPPER_BOUND=    4.527
INTER + INTRA:          -4.682
INTER:                  -4.682
INTRA:                   0.000
UNBOUND:                 0.000

$$$$

     RDKit          3D

 35 34  0  0  0  0  0  0  0  0999 V2000
   51.9105    2.9089   17.9289 Ca  0  0  0  0  0 15  0  0  0  0  0  0
   50.1719    4.6252   17.8350 S   0  0  0  0  0  0  0  0  0  0  0  0
   51.4103    3.3181   17.8723 C   0  0  0  0  0  0  0  0  0  0  0  0
   52.6403    3.6216   18.4698 C   0  0  0  0  0  0  0  0  0  0  0  0
   50.8442    5.6688   17.0690 O   0  0  0  0  0  0  0  0  0  0  0  0
   49.9718    4.9046   19.2526 O   0  0  0  0  0  0  0  0  0  0  0  0
   49.0480    3.9747   17.1583 O   0  0  0  0  0  0  0  0  0  0  0  0
   51.1725    2.0513   17.3339 C   0  0  0  0  0  0  0  0  0  0  0  0
   52.1731    1.0811   17.3940 C   0  0  0  0  0  0  0  0  0  0  0  0
   53.6256    2.6434   18.5212 C   0  0  0  0  0  0  0  0  0  0  0  0
   53.4026    1.3771   17.9888 C   0  0  0  0  0  0  0  0  0  0  0  0
   50.0014    1.6754   16.7345 O   0  0  0  0  0  0  0  0  0  0  0  0
   54.8385    2.8957   19.0940 O   0  0  0  0  0  0  0  0  0  0  0  0
   54.0789    1.8120   18.6521 S   0  0  0  0  0  0  0  0  0  0  0  0
   52.5269    2.5678   18.1361 C   0  0  0  0  0  0  0  0  0  0  0  0
   52.4855    3.9648   18.0433 C   0  0  0  0  0  0  0  0  0  0  0  0
   53.7516    0.3836   18.6345 O   0  0  0  0  0  0  0  0  0  0  0  0
   55.0051    2.2475   17.6132 O   0  0  0  0  0  0  0  0  0  0  0  0
   54.2850    2.3833   19.9781 O   0  0  0  0  0  0  0  0  0  0  0  0
   51.3963    1.8033   17.8357 C   0  0  0  0  0  0  0  0  0  0  0  0
   50.2194    2.4394   17.4409 C   0  0  0  0  0  0  0  0  0  0  0  0
   51.3064    4.5834   17.6488 C   0  0  0  0  0  0  0  0  0  0  0  0
   50.1711    3.8326   17.3462 C   0  0  0  0  0  0  0  0  0  0  0  0
   51.3468    0.4371   17.8991 O   0  0  0  0  0  0  0  0  0  0  0  0
   51.2909    5.9456   17.5658 O   0  0  0  0  0  0  0  0  0  0  0  0
   52.7903    4.6168   18.8781 H   0  0  0  0  0  0  0  0  0  0  0  0
   51.9910    0.0956   16.9764 H   0  0  0  0  0  0  0  0  0  0  0  0
   54.1811    0.6225   18.0358 H   0  0  0  0  0  0  0  0  0  0  0  0
   49.3958    2.4631   16.7682 H   0  0  0  0  0  0  0  0  0  0  0  0
   54.8208    3.8158   19.4090 H   0  0  0  0  0  0  0  0  0  0  0  0
   53.3722    4.5467   18.2799 H   0  0  0  0  0  0  0  0  0  0  0  0
   49.3426    1.8426   17.2081 H   0  0  0  0  0  0  0  0  0  0  0  0
   49.2467    4.3078   17.0374 H   0  0  0  0  0  0  0  0  0  0  0  0
   52.2473    0.1319   18.1908 H   0  0  0  0  0  0  0  0  0  0  0  0
   50.4064    6.2213   17.2807 H   0  0  0  0  0  0  0  0  0  0  0  0
  3  2  1  0
  4  3  2  0
  5  2  1  0
  6  2  2  0
  7  2  2  0
  8  3  1  0
  9  8  2  0
 10  4  1  0
 11  9  1  0
 12  8  1  0
 13 10  1  0
 10 11  2  0
 15 14  1  0
 16 15  2  0
 17 14  1  0
 18 14  2  0
 19 14  2  0
 20 15  1  0
 21 20  2  0
 22 16  1  0
 23 21  1  0
 24 20  1  0
 25 22  1  0
 22 23  2  0
  4 26  1  0
  9 27  1  0
 11 28  1  0
 12 29  1  0
 13 30  1  0
 16 31  1  0
 21 32  1  0
 23 33  1  0
 24 34  1  0
 25 35  1  0
M  CHG  3   1   2   5  -1  17  -1
M  END
> <Uni-Dock RESULT> 
ENERGY=   -4.216  LOWER_BOUND=    7.283  UPPER_BOUND=    9.695
INTER + INTRA:          -4.216
INTER:                  -4.216
INTRA:                   0.000
UNBOUND:                 0.000

$$$$
