
     RDKit          3D

 35 34  0  0  0  0  0  0  0  0999 V2000
   44.3898    4.0845   10.3501 Ca  0  0  0  0  0 15  0  0  0  0  0  0
   43.4523    5.7748   11.9908 S   0  0  0  0  0  0  0  0  0  0  0  0
   44.1044    4.5547   10.8364 C   0  0  0  0  0  0  0  0  0  0  0  0
   45.0117    5.0000    9.8666 C   0  0  0  0  0  0  0  0  0  0  0  0
   42.5635    4.9665   12.8302 O   0  0  0  0  0  0  0  0  0  0  0  0
   44.6571    6.2606   12.6537 O   0  0  0  0  0  0  0  0  0  0  0  0
   42.7788    6.7198   11.1074 O   0  0  0  0  0  0  0  0  0  0  0  0
   43.7294    3.2097   10.8924 C   0  0  0  0  0  0  0  0  0  0  0  0
   44.2646    2.3064    9.9741 C   0  0  0  0  0  0  0  0  0  0  0  0
   45.5358    4.0886    8.9594 C   0  0  0  0  0  0  0  0  0  0  0  0
   45.1702    2.7438    9.0040 C   0  0  0  0  0  0  0  0  0  0  0  0
   42.8516    2.6882   11.8038 O   0  0  0  0  0  0  0  0  0  0  0  0
   46.4180    4.5464    8.0239 O   0  0  0  0  0  0  0  0  0  0  0  0
   43.5912    5.4178   12.2373 S   0  0  0  0  0  0  0  0  0  0  0  0
   44.1591    4.3795   10.8799 C   0  0  0  0  0  0  0  0  0  0  0  0
   44.7401    5.0265    9.7819 C   0  0  0  0  0  0  0  0  0  0  0  0
   44.8201    6.0832   12.6552 O   0  0  0  0  0  0  0  0  0  0  0  0
   42.5980    6.2650   11.5864 O   0  0  0  0  0  0  0  0  0  0  0  0
   43.0562    4.4355   13.1824 O   0  0  0  0  0  0  0  0  0  0  0  0
   44.0339    2.9885   10.9035 C   0  0  0  0  0  0  0  0  0  0  0  0
   44.4937    2.2394    9.8201 C   0  0  0  0  0  0  0  0  0  0  0  0
   45.1928    4.2650    8.7114 C   0  0  0  0  0  0  0  0  0  0  0  0
   45.0746    2.8785    8.7213 C   0  0  0  0  0  0  0  0  0  0  0  0
   43.4798    2.2813   11.9354 O   0  0  0  0  0  0  0  0  0  0  0  0
   45.7653    4.8539    7.6212 O   0  0  0  0  0  0  0  0  0  0  0  0
   45.2943    6.0487    9.8348 H   0  0  0  0  0  0  0  0  0  0  0  0
   43.9714    1.2619   10.0201 H   0  0  0  0  0  0  0  0  0  0  0  0
   45.5748    2.0258    8.2994 H   0  0  0  0  0  0  0  0  0  0  0  0
   42.5594    3.4425   12.3827 H   0  0  0  0  0  0  0  0  0  0  0  0
   46.6894    3.7973    7.4718 H   0  0  0  0  0  0  0  0  0  0  0  0
   44.8212    6.1094    9.7976 H   0  0  0  0  0  0  0  0  0  0  0  0
   44.3977    1.1581    9.8357 H   0  0  0  0  0  0  0  0  0  0  0  0
   45.4324    2.2962    7.8784 H   0  0  0  0  0  0  0  0  0  0  0  0
   43.2035    2.9446   12.6225 H   0  0  0  0  0  0  0  0  0  0  0  0
   45.7667    5.8132    7.7814 H   0  0  0  0  0  0  0  0  0  0  0  0
  3  2  1  0
  4  3  2  0
  5  2  1  0
  6  2  2  0
  7  2  2  0
  8  3  1  0
  9  8  2  0
 10  4  1  0
 11  9  1  0
 12  8  1  0
 13 10  1  0
 10 11  2  0
 15 14  1  0
 16 15  2  0
 17 14  1  0
 18 14  2  0
 19 14  2  0
 20 15  1  0
 21 20  2  0
 22 16  1  0
 23 21  1  0
 24 20  1  0
 25 22  1  0
 22 23  2  0
  4 26  1  0
  9 27  1  0
 11 28  1  0
 12 29  1  0
 13 30  1  0
 16 31  1  0
 21 32  1  0
 23 33  1  0
 24 34  1  0
 25 35  1  0
M  CHG  3   1   2   5  -1  17  -1
M  END
> <Uni-Dock RESULT> 
ENERGY=   -7.755  LOWER_BOUND=    0.000  UPPER_BOUND=    0.000
INTER + INTRA:          -7.755
INTER:                  -7.755
INTRA:                   0.000
UNBOUND:                 0.000

$$$$

     RDKit          3D

 35 34  0  0  0  0  0  0  0  0999 V2000
   44.3893    4.0891   10.3615 Ca  0  0  0  0  0 15  0  0  0  0  0  0
   43.4484    5.7419   12.0382 S   0  0  0  0  0  0  0  0  0  0  0  0
   44.1031    4.5482   10.8579 C   0  0  0  0  0  0  0  0  0  0  0  0
   45.0040    5.0175    9.8934 C   0  0  0  0  0  0  0  0  0  0  0  0
   42.5677    4.9124   12.8652 O   0  0  0  0  0  0  0  0  0  0  0  0
   44.6530    6.2219   12.7057 O   0  0  0  0  0  0  0  0  0  0  0  0
   42.7660    6.6999   11.1757 O   0  0  0  0  0  0  0  0  0  0  0  0
   43.7362    3.2002   10.8894 C   0  0  0  0  0  0  0  0  0  0  0  0
   44.2730    2.3179    9.9518 C   0  0  0  0  0  0  0  0  0  0  0  0
   45.5298    4.1268    8.9668 C   0  0  0  0  0  0  0  0  0  0  0  0
   45.1722    2.7792    8.9869 C   0  0  0  0  0  0  0  0  0  0  0  0
   42.8650    2.6560   11.7939 O   0  0  0  0  0  0  0  0  0  0  0  0
   46.4056    4.6078    8.0369 O   0  0  0  0  0  0  0  0  0  0  0  0
   43.5904    5.3811   12.2772 S   0  0  0  0  0  0  0  0  0  0  0  0
   44.1590    4.3725   10.8978 C   0  0  0  0  0  0  0  0  0  0  0  0
   44.7319    5.0440    9.8102 C   0  0  0  0  0  0  0  0  0  0  0  0
   44.8171    6.0455   12.7032 O   0  0  0  0  0  0  0  0  0  0  0  0
   42.5898    6.2348   11.6466 O   0  0  0  0  0  0  0  0  0  0  0  0
   43.0648    4.3776   13.2052 O   0  0  0  0  0  0  0  0  0  0  0  0
   44.0420    2.9806   10.8950 C   0  0  0  0  0  0  0  0  0  0  0  0
   44.5019    2.2552    9.7956 C   0  0  0  0  0  0  0  0  0  0  0  0
   45.1848    4.3060    8.7236 C   0  0  0  0  0  0  0  0  0  0  0  0
   45.0747    2.9189    8.7071 C   0  0  0  0  0  0  0  0  0  0  0  0
   43.4960    2.2503   11.9152 O   0  0  0  0  0  0  0  0  0  0  0  0
   45.7496    4.9191    7.6427 O   0  0  0  0  0  0  0  0  0  0  0  0
   45.2803    6.0682    9.8807 H   0  0  0  0  0  0  0  0  0  0  0  0
   43.9860    1.2710    9.9787 H   0  0  0  0  0  0  0  0  0  0  0  0
   45.5782    2.0774    8.2669 H   0  0  0  0  0  0  0  0  0  0  0  0
   42.5707    3.3973   12.3883 H   0  0  0  0  0  0  0  0  0  0  0  0
   46.6792    3.8711    7.4694 H   0  0  0  0  0  0  0  0  0  0  0  0
   44.8068    6.1268    9.8465 H   0  0  0  0  0  0  0  0  0  0  0  0
   44.4123    1.1734    9.7907 H   0  0  0  0  0  0  0  0  0  0  0  0
   45.4325    2.3550    7.8518 H   0  0  0  0  0  0  0  0  0  0  0  0
   43.2187    2.8987   12.6160 H   0  0  0  0  0  0  0  0  0  0  0  0
   45.7460    5.8752    7.8214 H   0  0  0  0  0  0  0  0  0  0  0  0
  3  2  1  0
  4  3  2  0
  5  2  1  0
  6  2  2  0
  7  2  2  0
  8  3  1  0
  9  8  2  0
 10  4  1  0
 11  9  1  0
 12  8  1  0
 13 10  1  0
 10 11  2  0
 15 14  1  0
 16 15  2  0
 17 14  1  0
 18 14  2  0
 19 14  2  0
 20 15  1  0
 21 20  2  0
 22 16  1  0
 23 21  1  0
 24 20  1  0
 25 22  1  0
 22 23  2  0
  4 26  1  0
  9 27  1  0
 11 28  1  0
 12 29  1  0
 13 30  1  0
 16 31  1  0
 21 32  1  0
 23 33  1  0
 24 34  1  0
 25 35  1  0
M  CHG  3   1   2   5  -1  17  -1
M  END
> <Uni-Dock RESULT> 
ENERGY=   -7.741  LOWER_BOUND=    0.047  UPPER_BOUND=    0.047
INTER + INTRA:          -7.741
INTER:                  -7.741
INTRA:                   0.000
UNBOUND:                 0.000

$$$$

     RDKit          3D

 35 34  0  0  0  0  0  0  0  0999 V2000
   45.4893    5.6104   12.8159 Ca  0  0  0  0  0 15  0  0  0  0  0  0
   43.0750    5.2578   12.1265 S   0  0  0  0  0  0  0  0  0  0  0  0
   44.7886    5.5337   12.6102 C   0  0  0  0  0  0  0  0  0  0  0  0
   45.5143    4.4326   13.0822 C   0  0  0  0  0  0  0  0  0  0  0  0
   42.6522    6.5943   11.6992 O   0  0  0  0  0  0  0  0  0  0  0  0
   43.2015    4.2766   11.0550 O   0  0  0  0  0  0  0  0  0  0  0  0
   42.4680    4.7831   13.3648 O   0  0  0  0  0  0  0  0  0  0  0  0
   45.3873    6.7935   12.5241 C   0  0  0  0  0  0  0  0  0  0  0  0
   46.7177    6.9521   12.9118 C   0  0  0  0  0  0  0  0  0  0  0  0
   46.8379    4.6065   13.4644 C   0  0  0  0  0  0  0  0  0  0  0  0
   47.4475    5.8579   13.3836 C   0  0  0  0  0  0  0  0  0  0  0  0
   44.7553    7.9218   12.0759 O   0  0  0  0  0  0  0  0  0  0  0  0
   47.5243    3.5186   13.9209 O   0  0  0  0  0  0  0  0  0  0  0  0
   43.2735    5.4911   11.7895 S   0  0  0  0  0  0  0  0  0  0  0  0
   44.9137    5.6408   12.5180 C   0  0  0  0  0  0  0  0  0  0  0  0
   45.3693    4.5645   13.2900 C   0  0  0  0  0  0  0  0  0  0  0  0
   43.4142    4.3090   10.9466 O   0  0  0  0  0  0  0  0  0  0  0  0
   42.4238    5.3375   12.9651 O   0  0  0  0  0  0  0  0  0  0  0  0
   43.1306    6.7601   11.0728 O   0  0  0  0  0  0  0  0  0  0  0  0
   45.7106    6.7728   12.3323 C   0  0  0  0  0  0  0  0  0  0  0  0
   46.9731    6.8281   12.9236 C   0  0  0  0  0  0  0  0  0  0  0  0
   46.6292    4.6362   13.8716 C   0  0  0  0  0  0  0  0  0  0  0  0
   47.4339    5.7577   13.6951 C   0  0  0  0  0  0  0  0  0  0  0  0
   45.3406    7.8641   11.5946 O   0  0  0  0  0  0  0  0  0  0  0  0
   47.1129    3.6107   14.6315 O   0  0  0  0  0  0  0  0  0  0  0  0
   45.0361    3.4589   13.1439 H   0  0  0  0  0  0  0  0  0  0  0  0
   47.1802    7.9322   12.8438 H   0  0  0  0  0  0  0  0  0  0  0  0
   48.4805    6.0021   13.6800 H   0  0  0  0  0  0  0  0  0  0  0  0
   43.8269    7.6542   11.8398 H   0  0  0  0  0  0  0  0  0  0  0  0
   48.4242    3.8007   14.1449 H   0  0  0  0  0  0  0  0  0  0  0  0
   44.7230    3.7004   13.4131 H   0  0  0  0  0  0  0  0  0  0  0  0
   47.5946    7.7066   12.7809 H   0  0  0  0  0  0  0  0  0  0  0  0
   48.4158    5.8004   14.1551 H   0  0  0  0  0  0  0  0  0  0  0  0
   44.4296    7.6774   11.2428 H   0  0  0  0  0  0  0  0  0  0  0  0
   46.4291    2.9193   14.6483 H   0  0  0  0  0  0  0  0  0  0  0  0
  3  2  1  0
  4  3  2  0
  5  2  1  0
  6  2  2  0
  7  2  2  0
  8  3  1  0
  9  8  2  0
 10  4  1  0
 11  9  1  0
 12  8  1  0
 13 10  1  0
 10 11  2  0
 15 14  1  0
 16 15  2  0
 17 14  1  0
 18 14  2  0
 19 14  2  0
 20 15  1  0
 21 20  2  0
 22 16  1  0
 23 21  1  0
 24 20  1  0
 25 22  1  0
 22 23  2  0
  4 26  1  0
  9 27  1  0
 11 28  1  0
 12 29  1  0
 13 30  1  0
 16 31  1  0
 21 32  1  0
 23 33  1  0
 24 34  1  0
 25 35  1  0
M  CHG  3   1   2   5  -1  17  -1
M  END
> <Uni-Dock RESULT> 
ENERGY=   -6.645  LOWER_BOUND=    2.891  UPPER_BOUND=    4.361
INTER + INTRA:          -6.645
INTER:                  -6.645
INTRA:                   0.000
UNBOUND:                 0.000

$$$$

     RDKit          3D

 35 34  0  0  0  0  0  0  0  0999 V2000
   44.8591    4.1459   10.5042 Ca  0  0  0  0  0 15  0  0  0  0  0  0
   44.5242    4.5441   12.9856 S   0  0  0  0  0  0  0  0  0  0  0  0
   44.7729    4.2849   11.2200 C   0  0  0  0  0  0  0  0  0  0  0  0
   44.3559    3.0619   10.6792 C   0  0  0  0  0  0  0  0  0  0  0  0
   45.0653    5.8918   13.1825 O   0  0  0  0  0  0  0  0  0  0  0  0
   43.0765    4.4324   13.1222 O   0  0  0  0  0  0  0  0  0  0  0  0
   45.3110    3.4686   13.5784 O   0  0  0  0  0  0  0  0  0  0  0  0
   45.3587    5.2576   10.4054 C   0  0  0  0  0  0  0  0  0  0  0  0
   45.5280    5.0055    9.0440 C   0  0  0  0  0  0  0  0  0  0  0  0
   44.5311    2.8258    9.3221 C   0  0  0  0  0  0  0  0  0  0  0  0
   45.1143    3.7877    8.4979 C   0  0  0  0  0  0  0  0  0  0  0  0
   45.7945    6.4774   10.8475 O   0  0  0  0  0  0  0  0  0  0  0  0
   44.1168    1.6268    8.8185 O   0  0  0  0  0  0  0  0  0  0  0  0
   44.3668    4.9145   12.7722 S   0  0  0  0  0  0  0  0  0  0  0  0
   44.7436    4.4126   11.0842 C   0  0  0  0  0  0  0  0  0  0  0  0
   44.6223    3.0504   10.7816 C   0  0  0  0  0  0  0  0  0  0  0  0
   42.9747    4.5032   12.9156 O   0  0  0  0  0  0  0  0  0  0  0  0
   45.3391    4.1522   13.5477 O   0  0  0  0  0  0  0  0  0  0  0  0
   44.5931    6.3606   12.7286 O   0  0  0  0  0  0  0  0  0  0  0  0
   45.1409    5.3276   10.1063 C   0  0  0  0  0  0  0  0  0  0  0  0
   45.4188    4.8758    8.8160 C   0  0  0  0  0  0  0  0  0  0  0  0
   44.9029    2.6177    9.4914 C   0  0  0  0  0  0  0  0  0  0  0  0
   45.2998    3.5179    8.5072 C   0  0  0  0  0  0  0  0  0  0  0  0
   45.2833    6.6715   10.3198 O   0  0  0  0  0  0  0  0  0  0  0  0
   44.7979    1.2996    9.1528 O   0  0  0  0  0  0  0  0  0  0  0  0
   43.9019    2.3148   11.3244 H   0  0  0  0  0  0  0  0  0  0  0  0
   45.9835    5.7632    8.4135 H   0  0  0  0  0  0  0  0  0  0  0  0
   45.2546    3.6112    7.4373 H   0  0  0  0  0  0  0  0  0  0  0  0
   45.6091    6.5099   11.8242 H   0  0  0  0  0  0  0  0  0  0  0  0
   44.3062    1.6160    7.8680 H   0  0  0  0  0  0  0  0  0  0  0  0
   44.3111    2.3675   11.5666 H   0  0  0  0  0  0  0  0  0  0  0  0
   45.7277    5.5846    8.0540 H   0  0  0  0  0  0  0  0  0  0  0  0
   45.5158    3.1662    7.5037 H   0  0  0  0  0  0  0  0  0  0  0  0
   45.0531    6.8369   11.2727 H   0  0  0  0  0  0  0  0  0  0  0  0
   44.5136    0.8207    9.9501 H   0  0  0  0  0  0  0  0  0  0  0  0
  3  2  1  0
  4  3  2  0
  5  2  1  0
  6  2  2  0
  7  2  2  0
  8  3  1  0
  9  8  2  0
 10  4  1  0
 11  9  1  0
 12  8  1  0
 13 10  1  0
 10 11  2  0
 15 14  1  0
 16 15  2  0
 17 14  1  0
 18 14  2  0
 19 14  2  0
 20 15  1  0
 21 20  2  0
 22 16  1  0
 23 21  1  0
 24 20  1  0
 25 22  1  0
 22 23  2  0
  4 26  1  0
  9 27  1  0
 11 28  1  0
 12 29  1  0
 13 30  1  0
 16 31  1  0
 21 32  1  0
 23 33  1  0
 24 34  1  0
 25 35  1  0
M  CHG  3   1   2   5  -1  17  -1
M  END
> <Uni-Dock RESULT> 
ENERGY=   -6.635  LOWER_BOUND=    1.450  UPPER_BOUND=    2.834
INTER + INTRA:          -6.635
INTER:                  -6.635
INTRA:                   0.000
UNBOUND:                 0.000

$$$$

     RDKit          3D

 35 34  0  0  0  0  0  0  0  0999 V2000
   45.5606    5.9254   12.7849 Ca  0  0  0  0  0 15  0  0  0  0  0  0
   43.4036    4.8147   12.0487 S   0  0  0  0  0  0  0  0  0  0  0  0
   44.9471    5.5804   12.5757 C   0  0  0  0  0  0  0  0  0  0  0  0
   45.0048    6.9798   12.5901 C   0  0  0  0  0  0  0  0  0  0  0  0
   43.7102    3.3859   12.1594 O   0  0  0  0  0  0  0  0  0  0  0  0
   42.4479    5.3203   13.0275 O   0  0  0  0  0  0  0  0  0  0  0  0
   43.2518    5.3113   10.6858 O   0  0  0  0  0  0  0  0  0  0  0  0
   46.0558    4.8209   12.9592 C   0  0  0  0  0  0  0  0  0  0  0  0
   47.2270    5.4645   13.3587 C   0  0  0  0  0  0  0  0  0  0  0  0
   46.1779    7.6059   12.9904 C   0  0  0  0  0  0  0  0  0  0  0  0
   47.2914    6.8602   13.3755 C   0  0  0  0  0  0  0  0  0  0  0  0
   46.0885    3.4527   12.9756 O   0  0  0  0  0  0  0  0  0  0  0  0
   46.2096    8.9705   12.9961 O   0  0  0  0  0  0  0  0  0  0  0  0
   43.5286    4.6113   12.4366 S   0  0  0  0  0  0  0  0  0  0  0  0
   45.0550    5.5240   12.7199 C   0  0  0  0  0  0  0  0  0  0  0  0
   45.0736    6.8707   12.3352 C   0  0  0  0  0  0  0  0  0  0  0  0
   42.5649    5.3616   13.2341 O   0  0  0  0  0  0  0  0  0  0  0  0
   43.3715    4.7094   10.9897 O   0  0  0  0  0  0  0  0  0  0  0  0
   43.8605    3.2781   12.9433 O   0  0  0  0  0  0  0  0  0  0  0  0
   46.1809    4.9316   13.2966 C   0  0  0  0  0  0  0  0  0  0  0  0
   47.3340    5.6928   13.4898 C   0  0  0  0  0  0  0  0  0  0  0  0
   46.2304    7.6141   12.5349 C   0  0  0  0  0  0  0  0  0  0  0  0
   47.3595    7.0370   13.1083 C   0  0  0  0  0  0  0  0  0  0  0  0
   46.2445    3.6255   13.6991 O   0  0  0  0  0  0  0  0  0  0  0  0
   46.2927    8.9292   12.1750 O   0  0  0  0  0  0  0  0  0  0  0  0
   44.1352    7.5577   12.2893 H   0  0  0  0  0  0  0  0  0  0  0  0
   48.0868    4.8718   13.6562 H   0  0  0  0  0  0  0  0  0  0  0  0
   48.2110    7.3414   13.6894 H   0  0  0  0  0  0  0  0  0  0  0  0
   45.1944    3.1422   12.6699 H   0  0  0  0  0  0  0  0  0  0  0  0
   47.0874    9.2515   13.2963 H   0  0  0  0  0  0  0  0  0  0  0  0
   44.1802    7.2983   11.8898 H   0  0  0  0  0  0  0  0  0  0  0  0
   48.2105    5.2349   13.9379 H   0  0  0  0  0  0  0  0  0  0  0  0
   48.2562    7.6293   13.2585 H   0  0  0  0  0  0  0  0  0  0  0  0
   45.3591    3.2199   13.4988 H   0  0  0  0  0  0  0  0  0  0  0  0
   45.4282    9.1639   11.7962 H   0  0  0  0  0  0  0  0  0  0  0  0
  3  2  1  0
  4  3  2  0
  5  2  1  0
  6  2  2  0
  7  2  2  0
  8  3  1  0
  9  8  2  0
 10  4  1  0
 11  9  1  0
 12  8  1  0
 13 10  1  0
 10 11  2  0
 15 14  1  0
 16 15  2  0
 17 14  1  0
 18 14  2  0
 19 14  2  0
 20 15  1  0
 21 20  2  0
 22 16  1  0
 23 21  1  0
 24 20  1  0
 25 22  1  0
 22 23  2  0
  4 26  1  0
  9 27  1  0
 11 28  1  0
 12 29  1  0
 13 30  1  0
 16 31  1  0
 21 32  1  0
 23 33  1  0
 24 34  1  0
 25 35  1  0
M  CHG  3   1   2   5  -1  17  -1
M  END
> <Uni-Dock RESULT> 
ENERGY=   -6.389  LOWER_BOUND=    2.991  UPPER_BOUND=    4.016
INTER + INTRA:          -6.389
INTER:                  -6.389
INTRA:                   0.000
UNBOUND:                 0.000

$$$$

     RDKit          3D

 35 34  0  0  0  0  0  0  0  0999 V2000
   45.0539    5.3931   12.5882 Ca  0  0  0  0  0 15  0  0  0  0  0  0
   47.0333    6.9394   12.9333 S   0  0  0  0  0  0  0  0  0  0  0  0
   45.6391    5.8218   12.7015 C   0  0  0  0  0  0  0  0  0  0  0  0
   44.5378    6.3002   11.9802 C   0  0  0  0  0  0  0  0  0  0  0  0
   47.9663    6.1178   13.7093 O   0  0  0  0  0  0  0  0  0  0  0  0
   47.4471    7.2194   11.5632 O   0  0  0  0  0  0  0  0  0  0  0  0
   46.4322    8.0499   13.6632 O   0  0  0  0  0  0  0  0  0  0  0  0
   45.6400    4.5224   13.2158 C   0  0  0  0  0  0  0  0  0  0  0  0
   44.5342    3.6982   13.0073 C   0  0  0  0  0  0  0  0  0  0  0  0
   43.4445    5.4675   11.7810 C   0  0  0  0  0  0  0  0  0  0  0  0
   43.4322    4.1689   12.2886 C   0  0  0  0  0  0  0  0  0  0  0  0
   46.6700    3.9736   13.9306 O   0  0  0  0  0  0  0  0  0  0  0  0
   42.3835    5.9562   11.0749 O   0  0  0  0  0  0  0  0  0  0  0  0
   47.2026    6.5422   12.7884 S   0  0  0  0  0  0  0  0  0  0  0  0
   45.6503    5.6380   12.6603 C   0  0  0  0  0  0  0  0  0  0  0  0
   44.5213    6.3630   12.2584 C   0  0  0  0  0  0  0  0  0  0  0  0
   47.3925    7.0287   11.4265 O   0  0  0  0  0  0  0  0  0  0  0  0
   46.8901    7.5564   13.7892 O   0  0  0  0  0  0  0  0  0  0  0  0
   48.1382    5.5016   13.2199 O   0  0  0  0  0  0  0  0  0  0  0  0
   45.5575    4.2737   12.9454 C   0  0  0  0  0  0  0  0  0  0  0  0
   44.3253    3.6301   12.8271 C   0  0  0  0  0  0  0  0  0  0  0  0
   43.3020    5.7061   12.1457 C   0  0  0  0  0  0  0  0  0  0  0  0
   43.1947    4.3474   12.4264 C   0  0  0  0  0  0  0  0  0  0  0  0
   46.6101    3.4954   13.3430 O   0  0  0  0  0  0  0  0  0  0  0  0
   42.1764    6.3735   11.7574 O   0  0  0  0  0  0  0  0  0  0  0  0
   44.5509    7.3126   11.5861 H   0  0  0  0  0  0  0  0  0  0  0  0
   44.5377    2.6890   13.4081 H   0  0  0  0  0  0  0  0  0  0  0  0
   42.5825    3.5125   12.1375 H   0  0  0  0  0  0  0  0  0  0  0  0
   47.3758    4.6714   13.9958 H   0  0  0  0  0  0  0  0  0  0  0  0
   41.7088    5.2621   11.0234 H   0  0  0  0  0  0  0  0  0  0  0  0
   44.6303    7.4222   12.0449 H   0  0  0  0  0  0  0  0  0  0  0  0
   44.2502    2.5699   13.0480 H   0  0  0  0  0  0  0  0  0  0  0  0
   42.2362    3.8471   12.3343 H   0  0  0  0  0  0  0  0  0  0  0  0
   47.4075    4.0880   13.3803 H   0  0  0  0  0  0  0  0  0  0  0  0
   42.4308    7.2997   11.6046 H   0  0  0  0  0  0  0  0  0  0  0  0
  3  2  1  0
  4  3  2  0
  5  2  1  0
  6  2  2  0
  7  2  2  0
  8  3  1  0
  9  8  2  0
 10  4  1  0
 11  9  1  0
 12  8  1  0
 13 10  1  0
 10 11  2  0
 15 14  1  0
 16 15  2  0
 17 14  1  0
 18 14  2  0
 19 14  2  0
 20 15  1  0
 21 20  2  0
 22 16  1  0
 23 21  1  0
 24 20  1  0
 25 22  1  0
 22 23  2  0
  4 26  1  0
  9 27  1  0
 11 28  1  0
 12 29  1  0
 13 30  1  0
 16 31  1  0
 21 32  1  0
 23 33  1  0
 24 34  1  0
 25 35  1  0
M  CHG  3   1   2   5  -1  17  -1
M  END
> <Uni-Dock RESULT> 
ENERGY=   -5.911  LOWER_BOUND=    3.049  UPPER_BOUND=    3.956
INTER + INTRA:          -5.911
INTER:                  -5.911
INTRA:                   0.000
UNBOUND:                 0.000

$$$$

     RDKit          3D

 35 34  0  0  0  0  0  0  0  0999 V2000
   49.9793    3.3245   17.4372 Ca  0  0  0  0  0 15  0  0  0  0  0  0
   47.5112    3.5029   16.8851 S   0  0  0  0  0  0  0  0  0  0  0  0
   49.2650    3.4011   17.2855 C   0  0  0  0  0  0  0  0  0  0  0  0
   49.9137    2.1820   17.0512 C   0  0  0  0  0  0  0  0  0  0  0  0
   47.1869    4.8842   17.2522 O   0  0  0  0  0  0  0  0  0  0  0  0
   47.4953    3.2228   15.4540 O   0  0  0  0  0  0  0  0  0  0  0  0
   46.9288    2.4806   17.7470 O   0  0  0  0  0  0  0  0  0  0  0  0
   49.9675    4.4888   17.8111 C   0  0  0  0  0  0  0  0  0  0  0  0
   51.3249    4.3560   18.1035 C   0  0  0  0  0  0  0  0  0  0  0  0
   51.2654    2.0654   17.3474 C   0  0  0  0  0  0  0  0  0  0  0  0
   51.9783    3.1427   17.8723 C   0  0  0  0  0  0  0  0  0  0  0  0
   49.4157    5.7139   18.0713 O   0  0  0  0  0  0  0  0  0  0  0  0
   51.8753    0.8676   17.1104 O   0  0  0  0  0  0  0  0  0  0  0  0
   47.7121    3.8681   16.7015 S   0  0  0  0  0  0  0  0  0  0  0  0
   49.3942    3.5343   17.2513 C   0  0  0  0  0  0  0  0  0  0  0  0
   49.7918    2.1925   17.3093 C   0  0  0  0  0  0  0  0  0  0  0  0
   47.7042    3.2968   15.3594 O   0  0  0  0  0  0  0  0  0  0  0  0
   46.9134    3.1636   17.6982 O   0  0  0  0  0  0  0  0  0  0  0  0
   47.6453    5.3297   16.7622 O   0  0  0  0  0  0  0  0  0  0  0  0
   50.2776    4.5558   17.6082 C   0  0  0  0  0  0  0  0  0  0  0  0
   51.5686    4.2319   18.0263 C   0  0  0  0  0  0  0  0  0  0  0  0
   51.0812    1.8878   17.7279 C   0  0  0  0  0  0  0  0  0  0  0  0
   51.9719    2.8951   18.0865 C   0  0  0  0  0  0  0  0  0  0  0  0
   49.9682    5.8882   17.5794 O   0  0  0  0  0  0  0  0  0  0  0  0
   51.5106    0.5942   17.7995 O   0  0  0  0  0  0  0  0  0  0  0  0
   49.3550    1.3447   16.6422 H   0  0  0  0  0  0  0  0  0  0  0  0
   51.8682    5.2029   18.5118 H   0  0  0  0  0  0  0  0  0  0  0  0
   53.0338    3.0599   18.1062 H   0  0  0  0  0  0  0  0  0  0  0  0
   48.4564    5.6551   17.8152 H   0  0  0  0  0  0  0  0  0  0  0  0
   52.8069    0.9466   17.3661 H   0  0  0  0  0  0  0  0  0  0  0  0
   49.0787    1.4245   17.0245 H   0  0  0  0  0  0  0  0  0  0  0  0
   52.2572    5.0237   18.3043 H   0  0  0  0  0  0  0  0  0  0  0  0
   52.9760    2.6429   18.4116 H   0  0  0  0  0  0  0  0  0  0  0  0
   49.0275    5.9579   17.2653 H   0  0  0  0  0  0  0  0  0  0  0  0
   50.7701    0.0304   17.5170 H   0  0  0  0  0  0  0  0  0  0  0  0
  3  2  1  0
  4  3  2  0
  5  2  1  0
  6  2  2  0
  7  2  2  0
  8  3  1  0
  9  8  2  0
 10  4  1  0
 11  9  1  0
 12  8  1  0
 13 10  1  0
 10 11  2  0
 15 14  1  0
 16 15  2  0
 17 14  1  0
 18 14  2  0
 19 14  2  0
 20 15  1  0
 21 20  2  0
 22 16  1  0
 23 21  1  0
 24 20  1  0
 25 22  1  0
 22 23  2  0
  4 26  1  0
  9 27  1  0
 11 28  1  0
 12 29  1  0
 13 30  1  0
 16 31  1  0
 21 32  1  0
 23 33  1  0
 24 34  1  0
 25 35  1  0
M  CHG  3   1   2   5  -1  17  -1
M  END
> <Uni-Dock RESULT> 
ENERGY=   -5.740  LOWER_BOUND=    8.283  UPPER_BOUND=    9.193
INTER + INTRA:          -5.740
INTER:                  -5.740
INTRA:                   0.000
UNBOUND:                 0.000

$$$$

     RDKit          3D

 35 34  0  0  0  0  0  0  0  0999 V2000
   49.3558    3.8617   17.8887 Ca  0  0  0  0  0 15  0  0  0  0  0  0
   51.7019    4.2920   18.7485 S   0  0  0  0  0  0  0  0  0  0  0  0
   50.0425    3.9629   18.1284 C   0  0  0  0  0  0  0  0  0  0  0  0
   49.0674    4.9478   18.3315 C   0  0  0  0  0  0  0  0  0  0  0  0
   52.4253    3.0767   18.3646 O   0  0  0  0  0  0  0  0  0  0  0  0
   52.0814    5.4953   18.0171 O   0  0  0  0  0  0  0  0  0  0  0  0
   51.4795    4.4533   20.1809 O   0  0  0  0  0  0  0  0  0  0  0  0
   49.7228    2.7741   17.4670 C   0  0  0  0  0  0  0  0  0  0  0  0
   48.4219    2.5700   17.0069 C   0  0  0  0  0  0  0  0  0  0  0  0
   47.7768    4.7298   17.8675 C   0  0  0  0  0  0  0  0  0  0  0  0
   47.4443    3.5482   17.2060 C   0  0  0  0  0  0  0  0  0  0  0  0
   50.6098    1.7601   17.2254 O   0  0  0  0  0  0  0  0  0  0  0  0
   46.8443    5.7042   18.0773 O   0  0  0  0  0  0  0  0  0  0  0  0
   51.7455    4.1477   18.3187 S   0  0  0  0  0  0  0  0  0  0  0  0
   50.0000    3.8835   17.9626 C   0  0  0  0  0  0  0  0  0  0  0  0
   49.0878    4.7677   18.5524 C   0  0  0  0  0  0  0  0  0  0  0  0
   51.9674    5.4947   17.8049 O   0  0  0  0  0  0  0  0  0  0  0  0
   51.7923    4.0039   19.7695 O   0  0  0  0  0  0  0  0  0  0  0  0
   52.3878    3.0724   17.5600 O   0  0  0  0  0  0  0  0  0  0  0  0
   49.5569    2.8475   17.1370 C   0  0  0  0  0  0  0  0  0  0  0  0
   48.1905    2.6955   16.8999 C   0  0  0  0  0  0  0  0  0  0  0  0
   47.7306    4.6018   18.3054 C   0  0  0  0  0  0  0  0  0  0  0  0
   47.2748    3.5742   17.4851 C   0  0  0  0  0  0  0  0  0  0  0  0
   50.3809    1.9433   16.5243 O   0  0  0  0  0  0  0  0  0  0  0  0
   46.8068    5.4402   18.8593 O   0  0  0  0  0  0  0  0  0  0  0  0
   49.3301    5.8672   18.8474 H   0  0  0  0  0  0  0  0  0  0  0  0
   48.1765    1.6453   16.4932 H   0  0  0  0  0  0  0  0  0  0  0  0
   46.4390    3.3704   16.8407 H   0  0  0  0  0  0  0  0  0  0  0  0
   51.4824    2.0475   17.6066 H   0  0  0  0  0  0  0  0  0  0  0  0
   46.0035    5.4048   17.6992 H   0  0  0  0  0  0  0  0  0  0  0  0
   49.4678    5.5616   19.1886 H   0  0  0  0  0  0  0  0  0  0  0  0
   47.8433    1.8912   16.2586 H   0  0  0  0  0  0  0  0  0  0  0  0
   46.2120    3.4562   17.3007 H   0  0  0  0  0  0  0  0  0  0  0  0
   51.3107    2.1788   16.7859 H   0  0  0  0  0  0  0  0  0  0  0  0
   47.2940    6.0893   19.3953 H   0  0  0  0  0  0  0  0  0  0  0  0
  3  2  1  0
  4  3  2  0
  5  2  1  0
  6  2  2  0
  7  2  2  0
  8  3  1  0
  9  8  2  0
 10  4  1  0
 11  9  1  0
 12  8  1  0
 13 10  1  0
 10 11  2  0
 15 14  1  0
 16 15  2  0
 17 14  1  0
 18 14  2  0
 19 14  2  0
 20 15  1  0
 21 20  2  0
 22 16  1  0
 23 21  1  0
 24 20  1  0
 25 22  1  0
 22 23  2  0
  4 26  1  0
  9 27  1  0
 11 28  1  0
 12 29  1  0
 13 30  1  0
 16 31  1  0
 21 32  1  0
 23 33  1  0
 24 34  1  0
 25 35  1  0
M  CHG  3   1   2   5  -1  17  -1
M  END
> <Uni-Dock RESULT> 
ENERGY=   -5.111  LOWER_BOUND=    8.697  UPPER_BOUND=    9.776
INTER + INTRA:          -5.111
INTER:                  -5.111
INTRA:                   0.000
UNBOUND:                 0.000

$$$$

     RDKit          3D

 35 34  0  0  0  0  0  0  0  0999 V2000
   45.8641    6.1083   12.9085 Ca  0  0  0  0  0 15  0  0  0  0  0  0
   46.9074    8.4124   12.7328 S   0  0  0  0  0  0  0  0  0  0  0  0
   46.1461    6.7831   12.8427 C   0  0  0  0  0  0  0  0  0  0  0  0
   46.8126    5.8053   13.5922 C   0  0  0  0  0  0  0  0  0  0  0  0
   45.9549    9.1462   11.8949 O   0  0  0  0  0  0  0  0  0  0  0  0
   46.9576    8.8343   14.1279 O   0  0  0  0  0  0  0  0  0  0  0  0
   48.1901    8.1218   12.1023 O   0  0  0  0  0  0  0  0  0  0  0  0
   44.9355    6.4887   12.2097 C   0  0  0  0  0  0  0  0  0  0  0  0
   44.3896    5.2105   12.3272 C   0  0  0  0  0  0  0  0  0  0  0  0
   46.2564    4.5375   13.6998 C   0  0  0  0  0  0  0  0  0  0  0  0
   45.0491    4.2303   13.0733 C   0  0  0  0  0  0  0  0  0  0  0  0
   44.2176    7.3801   11.4593 O   0  0  0  0  0  0  0  0  0  0  0  0
   46.9244    3.6018   14.4355 O   0  0  0  0  0  0  0  0  0  0  0  0
   46.4699    8.4760   12.8421 S   0  0  0  0  0  0  0  0  0  0  0  0
   45.9622    6.7483   12.8667 C   0  0  0  0  0  0  0  0  0  0  0  0
   46.9016    5.8139   13.3209 C   0  0  0  0  0  0  0  0  0  0  0  0
   46.7746    8.7308   14.2456 O   0  0  0  0  0  0  0  0  0  0  0  0
   47.6131    8.4514   11.9365 O   0  0  0  0  0  0  0  0  0  0  0  0
   45.2750    9.1478   12.3268 O   0  0  0  0  0  0  0  0  0  0  0  0
   44.6916    6.3395   12.4548 C   0  0  0  0  0  0  0  0  0  0  0  0
   44.3588    4.9853   12.4977 C   0  0  0  0  0  0  0  0  0  0  0  0
   46.5534    4.4693   13.3572 C   0  0  0  0  0  0  0  0  0  0  0  0
   45.2913    4.0476   12.9498 C   0  0  0  0  0  0  0  0  0  0  0  0
   43.7188    7.1867   11.9990 O   0  0  0  0  0  0  0  0  0  0  0  0
   47.4375    3.5249   13.7925 O   0  0  0  0  0  0  0  0  0  0  0  0
   47.7531    6.0483   14.0790 H   0  0  0  0  0  0  0  0  0  0  0  0
   43.4488    4.9846   11.8342 H   0  0  0  0  0  0  0  0  0  0  0  0
   44.6082    3.2429   13.1524 H   0  0  0  0  0  0  0  0  0  0  0  0
   44.7260    8.2350   11.4679 H   0  0  0  0  0  0  0  0  0  0  0  0
   46.4132    2.7786   14.4140 H   0  0  0  0  0  0  0  0  0  0  0  0
   47.8798    6.1674   13.6333 H   0  0  0  0  0  0  0  0  0  0  0  0
   43.3720    4.6647   12.1782 H   0  0  0  0  0  0  0  0  0  0  0  0
   45.0327    2.9943   12.9834 H   0  0  0  0  0  0  0  0  0  0  0  0
   44.1009    8.1041   12.0267 H   0  0  0  0  0  0  0  0  0  0  0  0
   48.2572    3.9894   14.0339 H   0  0  0  0  0  0  0  0  0  0  0  0
  3  2  1  0
  4  3  2  0
  5  2  1  0
  6  2  2  0
  7  2  2  0
  8  3  1  0
  9  8  2  0
 10  4  1  0
 11  9  1  0
 12  8  1  0
 13 10  1  0
 10 11  2  0
 15 14  1  0
 16 15  2  0
 17 14  1  0
 18 14  2  0
 19 14  2  0
 20 15  1  0
 21 20  2  0
 22 16  1  0
 23 21  1  0
 24 20  1  0
 25 22  1  0
 22 23  2  0
  4 26  1  0
  9 27  1  0
 11 28  1  0
 12 29  1  0
 13 30  1  0
 16 31  1  0
 21 32  1  0
 23 33  1  0
 24 34  1  0
 25 35  1  0
M  CHG  3   1   2   5  -1  17  -1
M  END
> <Uni-Dock RESULT> 
ENERGY=   -5.101  LOWER_BOUND=    3.379  UPPER_BOUND=    4.621
INTER + INTRA:          -5.101
INTER:                  -5.101
INTRA:                   0.000
UNBOUND:                 0.000

$$$$
