
     RDKit          3D

 77 79  0  0  0  0  0  0  0  0999 V2000
   43.1858    4.8102   12.5370 C   0  0  0  0  0  0  0  0  0  0  0  0
   43.1323    4.0961   11.3411 C   0  0  0  0  0  0  0  0  0  0  0  0
   44.0718    4.3411   10.3424 C   0  0  0  0  0  0  0  0  0  0  0  0
   45.0636    5.3043   10.5369 C   0  0  0  0  0  0  0  0  0  0  0  0
   45.1210    6.0350   11.7312 C   0  0  0  0  0  0  0  0  0  0  0  0
   44.1767    5.7744   12.7329 C   0  0  0  0  0  0  0  0  0  0  0  0
   46.1984    7.0699   11.9427 C   0  0  0  0  0  0  0  0  0  0  0  0
   47.4474    6.4616   12.5881 C   0  0  0  0  0  0  0  0  0  0  0  0
   48.5838    7.4705   12.7172 C   0  0  0  0  0  0  0  0  0  0  0  0
   48.2655    8.5449   13.7238 C   0  0  0  0  0  0  0  0  0  0  0  0
   47.7807    9.6317   13.4386 O   0  0  0  0  0  0  0  0  0  0  0  0
   48.5651    8.1268   14.9829 O   0  0  0  0  0  0  0  0  0  0  0  0
   48.2258    9.0661   16.0097 C   0  0  0  0  0  0  0  0  0  0  0  0
   48.6339    8.5178   17.3792 C   0  0  0  0  0  0  0  0  0  0  0  0
   50.1646    8.4273   17.4954 C   0  0  0  0  0  0  0  0  0  0  0  0
   50.5549    7.8209   18.7416 O   0  0  0  0  0  0  0  0  0  0  0  0
   50.5207    6.4577   18.7599 C   0  0  0  0  0  0  0  0  0  0  0  0
   50.2620    5.7523   17.7943 O   0  0  0  0  0  0  0  0  0  0  0  0
   50.8230    5.9502   20.1500 C   0  0  0  0  0  0  0  0  0  0  0  0
   51.5740    4.6208   20.1338 C   0  0  0  0  0  0  0  0  0  0  0  0
   53.0057    4.7728   19.6085 C   0  0  0  0  0  0  0  0  0  0  0  0
   53.7570    3.4650   19.6541 C   0  0  0  0  0  0  0  0  0  0  0  0
   54.3659    1.3511   18.6238 C   0  0  0  0  0  0  0  0  0  0  0  0
   53.6808    2.5670   18.5804 C   0  0  0  0  0  0  0  0  0  0  0  0
   54.5184    3.1183   20.7773 C   0  0  0  0  0  0  0  0  0  0  0  0
   55.2023    1.9017   20.8188 C   0  0  0  0  0  0  0  0  0  0  0  0
   55.1276    1.0192   19.7420 C   0  0  0  0  0  0  0  0  0  0  0  0
   48.1348    9.4466   18.3704 O   0  0  0  0  0  0  0  0  0  0  0  0
   47.7938    8.9275   19.5816 C   0  0  0  0  0  0  0  0  0  0  0  0
   47.8220    7.7425   19.8830 O   0  0  0  0  0  0  0  0  0  0  0  0
   47.3319   10.0190   20.5139 C   0  0  0  0  0  0  0  0  0  0  0  0
   48.4004   11.0919   20.6933 C   0  0  0  0  0  0  0  0  0  0  0  0
   47.9804   12.1315   21.7323 C   0  0  0  0  0  0  0  0  0  0  0  0
   48.9971   13.2416   21.8314 C   0  0  0  0  0  0  0  0  0  0  0  0
   50.0725   13.1442   22.7246 C   0  0  0  0  0  0  0  0  0  0  0  0
   51.0318   14.1571   22.7887 C   0  0  0  0  0  0  0  0  0  0  0  0
   50.9271   15.2714   21.9579 C   0  0  0  0  0  0  0  0  0  0  0  0
   49.8619   15.3769   21.0643 C   0  0  0  0  0  0  0  0  0  0  0  0
   48.9011   14.3662   21.0003 C   0  0  0  0  0  0  0  0  0  0  0  0
   42.4537    4.6200   13.3173 H   0  0  0  0  0  0  0  0  0  0  0  0
   42.3584    3.3491   11.1865 H   0  0  0  0  0  0  0  0  0  0  0  0
   44.0326    3.7829    9.4105 H   0  0  0  0  0  0  0  0  0  0  0  0
   45.7896    5.4832    9.7478 H   0  0  0  0  0  0  0  0  0  0  0  0
   44.2040    6.3234   13.6710 H   0  0  0  0  0  0  0  0  0  0  0  0
   46.4550    7.5283   10.9789 H   0  0  0  0  0  0  0  0  0  0  0  0
   45.7984    7.8791   12.5651 H   0  0  0  0  0  0  0  0  0  0  0  0
   47.1934    6.0544   13.5750 H   0  0  0  0  0  0  0  0  0  0  0  0
   47.7981    5.6172   11.9812 H   0  0  0  0  0  0  0  0  0  0  0  0
   48.8025    7.9485   11.7555 H   0  0  0  0  0  0  0  0  0  0  0  0
   49.5084    6.9681   13.0264 H   0  0  0  0  0  0  0  0  0  0  0  0
   48.7255   10.0259   15.8251 H   0  0  0  0  0  0  0  0  0  0  0  0
   47.1425    9.2414   15.9987 H   0  0  0  0  0  0  0  0  0  0  0  0
   48.1805    7.5284   17.5152 H   0  0  0  0  0  0  0  0  0  0  0  0
   50.5986    9.4342   17.5041 H   0  0  0  0  0  0  0  0  0  0  0  0
   50.6142    7.8866   16.6538 H   0  0  0  0  0  0  0  0  0  0  0  0
   51.4100    6.6982   20.6957 H   0  0  0  0  0  0  0  0  0  0  0  0
   49.8658    5.8291   20.6686 H   0  0  0  0  0  0  0  0  0  0  0  0
   51.6018    4.2247   21.1572 H   0  0  0  0  0  0  0  0  0  0  0  0
   51.0289    3.8843   19.5289 H   0  0  0  0  0  0  0  0  0  0  0  0
   53.0017    5.1484   18.5772 H   0  0  0  0  0  0  0  0  0  0  0  0
   53.5473    5.5232   20.2010 H   0  0  0  0  0  0  0  0  0  0  0  0
   54.3017    0.6633   17.7847 H   0  0  0  0  0  0  0  0  0  0  0  0
   53.0869    2.8115   17.7029 H   0  0  0  0  0  0  0  0  0  0  0  0
   54.5824    3.7929   21.6281 H   0  0  0  0  0  0  0  0  0  0  0  0
   55.7923    1.6409   21.6923 H   0  0  0  0  0  0  0  0  0  0  0  0
   55.6609    0.0726   19.7756 H   0  0  0  0  0  0  0  0  0  0  0  0
   47.1030    9.5567   21.4804 H   0  0  0  0  0  0  0  0  0  0  0  0
   46.4002   10.4410   20.1217 H   0  0  0  0  0  0  0  0  0  0  0  0
   48.5932   11.5849   19.7316 H   0  0  0  0  0  0  0  0  0  0  0  0
   49.3491   10.6246   20.9898 H   0  0  0  0  0  0  0  0  0  0  0  0
   47.8546   11.6578   22.7150 H   0  0  0  0  0  0  0  0  0  0  0  0
   47.0013   12.5559   21.4746 H   0  0  0  0  0  0  0  0  0  0  0  0
   50.1710   12.2773   23.3743 H   0  0  0  0  0  0  0  0  0  0  0  0
   51.8645   14.0739   23.4841 H   0  0  0  0  0  0  0  0  0  0  0  0
   51.6774   16.0577   22.0032 H   0  0  0  0  0  0  0  0  0  0  0  0
   49.7828   16.2434   20.4127 H   0  0  0  0  0  0  0  0  0  0  0  0
   48.0796   14.4582   20.2935 H   0  0  0  0  0  0  0  0  0  0  0  0
  1  2  2  0
  1  6  1  0
  2  3  1  0
  3  4  2  0
  4  5  1  0
  5  6  2  0
  5  7  1  0
  7  8  1  0
  8  9  1  0
  9 10  1  0
 10 11  2  0
 10 12  1  0
 12 13  1  0
 13 14  1  0
 14 15  1  0
 15 16  1  0
 16 17  1  0
 17 18  2  0
 17 19  1  0
 19 20  1  0
 20 21  1  0
 21 22  1  0
 24 22  1  0
 22 25  2  0
 23 24  2  0
 23 27  1  0
 25 26  1  0
 26 27  2  0
 14 28  1  0
 28 29  1  0
 29 30  2  0
 29 31  1  0
 31 32  1  0
 32 33  1  0
 33 34  1  0
 39 34  1  0
 35 34  2  0
 35 36  1  0
 36 37  2  0
 37 38  1  0
 38 39  2  0
  1 40  1  0
  2 41  1  0
  3 42  1  0
  4 43  1  0
  6 44  1  0
  7 45  1  0
  7 46  1  0
  8 47  1  0
  8 48  1  0
  9 49  1  0
  9 50  1  0
 13 51  1  0
 13 52  1  0
 14 53  1  0
 15 54  1  0
 15 55  1  0
 19 56  1  0
 19 57  1  0
 20 58  1  0
 20 59  1  0
 21 60  1  0
 21 61  1  0
 23 62  1  0
 24 63  1  0
 25 64  1  0
 26 65  1  0
 27 66  1  0
 31 67  1  0
 31 68  1  0
 32 69  1  0
 32 70  1  0
 33 71  1  0
 33 72  1  0
 35 73  1  0
 36 74  1  0
 37 75  1  0
 38 76  1  0
 39 77  1  0
M  END
> <Uni-Dock RESULT> 
ENERGY=   -6.139  LOWER_BOUND=    0.000  UPPER_BOUND=    0.000
INTER + INTRA:          -6.139
INTER:                  -6.139
INTRA:                   0.000
UNBOUND:                 0.000

$$$$

     RDKit          3D

 77 79  0  0  0  0  0  0  0  0999 V2000
   47.0318    8.9704   22.0788 C   0  0  0  0  0  0  0  0  0  0  0  0
   47.7879    9.2428   23.2177 C   0  0  0  0  0  0  0  0  0  0  0  0
   49.0388    8.6519   23.3795 C   0  0  0  0  0  0  0  0  0  0  0  0
   49.5332    7.7840   22.4041 C   0  0  0  0  0  0  0  0  0  0  0  0
   48.7776    7.4953   21.2599 C   0  0  0  0  0  0  0  0  0  0  0  0
   47.5246    8.1021   21.1026 C   0  0  0  0  0  0  0  0  0  0  0  0
   49.3171    6.5633   20.2031 C   0  0  0  0  0  0  0  0  0  0  0  0
   50.1159    7.3196   19.1370 C   0  0  0  0  0  0  0  0  0  0  0  0
   50.7534    6.3828   18.1162 C   0  0  0  0  0  0  0  0  0  0  0  0
   49.7194    5.7175   17.2461 C   0  0  0  0  0  0  0  0  0  0  0  0
   49.2449    4.6113   17.4665 O   0  0  0  0  0  0  0  0  0  0  0  0
   49.3734    6.5259   16.2085 O   0  0  0  0  0  0  0  0  0  0  0  0
   48.3406    5.9952   15.3699 C   0  0  0  0  0  0  0  0  0  0  0  0
   48.0512    6.9604   14.2179 C   0  0  0  0  0  0  0  0  0  0  0  0
   49.2534    7.0440   13.2625 C   0  0  0  0  0  0  0  0  0  0  0  0
   49.0287    8.0229   12.2310 O   0  0  0  0  0  0  0  0  0  0  0  0
   49.2846    9.3136   12.5895 C   0  0  0  0  0  0  0  0  0  0  0  0
   49.7475    9.6605   13.6676 O   0  0  0  0  0  0  0  0  0  0  0  0
   48.8893   10.2501   11.4724 C   0  0  0  0  0  0  0  0  0  0  0  0
   49.7955   11.4765   11.3928 C   0  0  0  0  0  0  0  0  0  0  0  0
   51.2113   11.1191   10.9274 C   0  0  0  0  0  0  0  0  0  0  0  0
   52.0797   12.3459   10.7944 C   0  0  0  0  0  0  0  0  0  0  0  0
   53.5869   13.9743   11.7830 C   0  0  0  0  0  0  0  0  0  0  0  0
   52.7909   12.8330   11.8998 C   0  0  0  0  0  0  0  0  0  0  0  0
   52.1674   13.0292    9.5750 C   0  0  0  0  0  0  0  0  0  0  0  0
   52.9635   14.1705    9.4606 C   0  0  0  0  0  0  0  0  0  0  0  0
   53.6743   14.6420   10.5636 C   0  0  0  0  0  0  0  0  0  0  0  0
   46.9097    6.4318   13.5022 O   0  0  0  0  0  0  0  0  0  0  0  0
   46.0901    7.3361   12.8998 C   0  0  0  0  0  0  0  0  0  0  0  0
   46.2056    8.5525   12.9574 O   0  0  0  0  0  0  0  0  0  0  0  0
   44.9758    6.6336   12.1659 C   0  0  0  0  0  0  0  0  0  0  0  0
   45.5172    5.6553   11.1293 C   0  0  0  0  0  0  0  0  0  0  0  0
   44.3904    5.0363   10.3022 C   0  0  0  0  0  0  0  0  0  0  0  0
   44.9250    3.9974    9.3480 C   0  0  0  0  0  0  0  0  0  0  0  0
   45.3387    4.3604    8.0592 C   0  0  0  0  0  0  0  0  0  0  0  0
   45.8663    3.4027    7.1904 C   0  0  0  0  0  0  0  0  0  0  0  0
   45.9897    2.0774    7.6040 C   0  0  0  0  0  0  0  0  0  0  0  0
   45.5828    1.7063    8.8851 C   0  0  0  0  0  0  0  0  0  0  0  0
   45.0534    2.6620    9.7541 C   0  0  0  0  0  0  0  0  0  0  0  0
   46.0558    9.4309   21.9509 H   0  0  0  0  0  0  0  0  0  0  0  0
   47.4026    9.9148   23.9799 H   0  0  0  0  0  0  0  0  0  0  0  0
   49.6304    8.8657   24.2660 H   0  0  0  0  0  0  0  0  0  0  0  0
   50.5115    7.3314   22.5452 H   0  0  0  0  0  0  0  0  0  0  0  0
   46.9220    7.8993   20.2206 H   0  0  0  0  0  0  0  0  0  0  0  0
   49.9476    5.8014   20.6793 H   0  0  0  0  0  0  0  0  0  0  0  0
   48.4812    6.0209   19.7455 H   0  0  0  0  0  0  0  0  0  0  0  0
   49.4640    8.0411   18.6282 H   0  0  0  0  0  0  0  0  0  0  0  0
   50.9109    7.9017   19.6203 H   0  0  0  0  0  0  0  0  0  0  0  0
   51.3477    5.6042   18.6078 H   0  0  0  0  0  0  0  0  0  0  0  0
   51.4471    6.9352   17.4707 H   0  0  0  0  0  0  0  0  0  0  0  0
   48.6400    5.0162   14.9738 H   0  0  0  0  0  0  0  0  0  0  0  0
   47.4273    5.8551   15.9622 H   0  0  0  0  0  0  0  0  0  0  0  0
   47.8220    7.9497   14.6322 H   0  0  0  0  0  0  0  0  0  0  0  0
   49.3849    6.0873   12.7431 H   0  0  0  0  0  0  0  0  0  0  0  0
   50.1901    7.2587   13.7910 H   0  0  0  0  0  0  0  0  0  0  0  0
   48.9112    9.7134   10.5167 H   0  0  0  0  0  0  0  0  0  0  0  0
   47.8565   10.5636   11.6594 H   0  0  0  0  0  0  0  0  0  0  0  0
   49.3508   12.1923   10.6893 H   0  0  0  0  0  0  0  0  0  0  0  0
   49.8373   11.9814   12.3669 H   0  0  0  0  0  0  0  0  0  0  0  0
   51.6840   10.4193   11.6286 H   0  0  0  0  0  0  0  0  0  0  0  0
   51.1704   10.5970    9.9613 H   0  0  0  0  0  0  0  0  0  0  0  0
   54.1359   14.3420   12.6460 H   0  0  0  0  0  0  0  0  0  0  0  0
   52.7289   12.3239   12.8586 H   0  0  0  0  0  0  0  0  0  0  0  0
   51.6148   12.6778    8.7065 H   0  0  0  0  0  0  0  0  0  0  0  0
   53.0280   14.6937    8.5113 H   0  0  0  0  0  0  0  0  0  0  0  0
   54.2940   15.5305   10.4729 H   0  0  0  0  0  0  0  0  0  0  0  0
   44.3672    7.3995   11.6725 H   0  0  0  0  0  0  0  0  0  0  0  0
   44.3385    6.1293   12.9006 H   0  0  0  0  0  0  0  0  0  0  0  0
   46.0871    4.8631   11.6320 H   0  0  0  0  0  0  0  0  0  0  0  0
   46.2296    6.1697   10.4704 H   0  0  0  0  0  0  0  0  0  0  0  0
   43.8594    5.8156    9.7394 H   0  0  0  0  0  0  0  0  0  0  0  0
   43.6415    4.5762   10.9599 H   0  0  0  0  0  0  0  0  0  0  0  0
   45.2547    5.3922    7.7249 H   0  0  0  0  0  0  0  0  0  0  0  0
   46.1863    3.6925    6.1916 H   0  0  0  0  0  0  0  0  0  0  0  0
   46.4064    1.3323    6.9299 H   0  0  0  0  0  0  0  0  0  0  0  0
   45.6837    0.6737    9.2097 H   0  0  0  0  0  0  0  0  0  0  0  0
   44.7468    2.3599   10.7529 H   0  0  0  0  0  0  0  0  0  0  0  0
  1  2  2  0
  1  6  1  0
  2  3  1  0
  3  4  2  0
  4  5  1  0
  5  6  2  0
  5  7  1  0
  7  8  1  0
  8  9  1  0
  9 10  1  0
 10 11  2  0
 10 12  1  0
 12 13  1  0
 13 14  1  0
 14 15  1  0
 15 16  1  0
 16 17  1  0
 17 18  2  0
 17 19  1  0
 19 20  1  0
 20 21  1  0
 21 22  1  0
 24 22  1  0
 22 25  2  0
 23 24  2  0
 23 27  1  0
 25 26  1  0
 26 27  2  0
 14 28  1  0
 28 29  1  0
 29 30  2  0
 29 31  1  0
 31 32  1  0
 32 33  1  0
 33 34  1  0
 39 34  1  0
 35 34  2  0
 35 36  1  0
 36 37  2  0
 37 38  1  0
 38 39  2  0
  1 40  1  0
  2 41  1  0
  3 42  1  0
  4 43  1  0
  6 44  1  0
  7 45  1  0
  7 46  1  0
  8 47  1  0
  8 48  1  0
  9 49  1  0
  9 50  1  0
 13 51  1  0
 13 52  1  0
 14 53  1  0
 15 54  1  0
 15 55  1  0
 19 56  1  0
 19 57  1  0
 20 58  1  0
 20 59  1  0
 21 60  1  0
 21 61  1  0
 23 62  1  0
 24 63  1  0
 25 64  1  0
 26 65  1  0
 27 66  1  0
 31 67  1  0
 31 68  1  0
 32 69  1  0
 32 70  1  0
 33 71  1  0
 33 72  1  0
 35 73  1  0
 36 74  1  0
 37 75  1  0
 38 76  1  0
 39 77  1  0
M  END
> <Uni-Dock RESULT> 
ENERGY=   -5.985  LOWER_BOUND=    3.760  UPPER_BOUND=   11.848
INTER + INTRA:          -5.985
INTER:                  -5.985
INTRA:                   0.000
UNBOUND:                 0.000

$$$$

     RDKit          3D

 77 79  0  0  0  0  0  0  0  0999 V2000
   47.7274   11.5418   21.7147 C   0  0  0  0  0  0  0  0  0  0  0  0
   48.5106   11.8460   22.8269 C   0  0  0  0  0  0  0  0  0  0  0  0
   49.5590   11.0040   23.1904 C   0  0  0  0  0  0  0  0  0  0  0  0
   49.8225    9.8539   22.4442 C   0  0  0  0  0  0  0  0  0  0  0  0
   49.0356    9.5330   21.3300 C   0  0  0  0  0  0  0  0  0  0  0  0
   47.9893   10.3915   20.9677 C   0  0  0  0  0  0  0  0  0  0  0  0
   49.3270    8.2938   20.5202 C   0  0  0  0  0  0  0  0  0  0  0  0
   50.3134    8.5803   19.3837 C   0  0  0  0  0  0  0  0  0  0  0  0
   50.6975    7.3191   18.6170 C   0  0  0  0  0  0  0  0  0  0  0  0
   49.5386    6.7712   17.8262 C   0  0  0  0  0  0  0  0  0  0  0  0
   48.7860    5.8941   18.2282 O   0  0  0  0  0  0  0  0  0  0  0  0
   49.4341    7.4042   16.6268 O   0  0  0  0  0  0  0  0  0  0  0  0
   48.3112    6.9896   15.8401 C   0  0  0  0  0  0  0  0  0  0  0  0
   48.3044    7.7320   14.5018 C   0  0  0  0  0  0  0  0  0  0  0  0
   49.5010    7.3043   13.6356 C   0  0  0  0  0  0  0  0  0  0  0  0
   49.5583    8.0686   12.4168 O   0  0  0  0  0  0  0  0  0  0  0  0
   50.1396    9.2972   12.5286 C   0  0  0  0  0  0  0  0  0  0  0  0
   50.6606    9.7336   13.5460 O   0  0  0  0  0  0  0  0  0  0  0  0
   50.0226   10.0469   11.2227 C   0  0  0  0  0  0  0  0  0  0  0  0
   51.2209   10.9573   10.9646 C   0  0  0  0  0  0  0  0  0  0  0  0
   52.4997   10.1618   10.6802 C   0  0  0  0  0  0  0  0  0  0  0  0
   53.6625   11.0710   10.3672 C   0  0  0  0  0  0  0  0  0  0  0  0
   55.5298   12.4326   11.1156 C   0  0  0  0  0  0  0  0  0  0  0  0
   54.4596   11.5823   11.4008 C   0  0  0  0  0  0  0  0  0  0  0  0
   53.9463   11.4373    9.0455 C   0  0  0  0  0  0  0  0  0  0  0  0
   55.0166   12.2881    8.7627 C   0  0  0  0  0  0  0  0  0  0  0  0
   55.8092   12.7843    9.7970 C   0  0  0  0  0  0  0  0  0  0  0  0
   47.0754    7.3729   13.8272 O   0  0  0  0  0  0  0  0  0  0  0  0
   46.5325    8.3085   13.0009 C   0  0  0  0  0  0  0  0  0  0  0  0
   46.9635    9.4394   12.8235 O   0  0  0  0  0  0  0  0  0  0  0  0
   45.2841    7.7745   12.3450 C   0  0  0  0  0  0  0  0  0  0  0  0
   45.5648    6.4952   11.5642 C   0  0  0  0  0  0  0  0  0  0  0  0
   44.3279    6.0237   10.7997 C   0  0  0  0  0  0  0  0  0  0  0  0
   44.5848    4.7064   10.1110 C   0  0  0  0  0  0  0  0  0  0  0  0
   45.0997    4.6728    8.8081 C   0  0  0  0  0  0  0  0  0  0  0  0
   45.3699    3.4518    8.1863 C   0  0  0  0  0  0  0  0  0  0  0  0
   45.1334    2.2564    8.8628 C   0  0  0  0  0  0  0  0  0  0  0  0
   44.6230    2.2790   10.1603 C   0  0  0  0  0  0  0  0  0  0  0  0
   44.3505    3.4986   10.7826 C   0  0  0  0  0  0  0  0  0  0  0  0
   46.9093   12.1978   21.4296 H   0  0  0  0  0  0  0  0  0  0  0  0
   48.3041   12.7387   23.4113 H   0  0  0  0  0  0  0  0  0  0  0  0
   50.1720   11.2418   24.0559 H   0  0  0  0  0  0  0  0  0  0  0  0
   50.6446    9.2074   22.7408 H   0  0  0  0  0  0  0  0  0  0  0  0
   47.3684   10.1679   20.1035 H   0  0  0  0  0  0  0  0  0  0  0  0
   49.7269    7.5143   21.1814 H   0  0  0  0  0  0  0  0  0  0  0  0
   48.3850    7.8982   20.1221 H   0  0  0  0  0  0  0  0  0  0  0  0
   49.8827    9.3202   18.6972 H   0  0  0  0  0  0  0  0  0  0  0  0
   51.2259    9.0291   19.7963 H   0  0  0  0  0  0  0  0  0  0  0  0
   51.0579    6.5363   19.2941 H   0  0  0  0  0  0  0  0  0  0  0  0
   51.5222    7.5284   17.9248 H   0  0  0  0  0  0  0  0  0  0  0  0
   48.3483    5.9060   15.6686 H   0  0  0  0  0  0  0  0  0  0  0  0
   47.3841    7.2143   16.3828 H   0  0  0  0  0  0  0  0  0  0  0  0
   48.3375    8.8113   14.6940 H   0  0  0  0  0  0  0  0  0  0  0  0
   49.3840    6.2585   13.3274 H   0  0  0  0  0  0  0  0  0  0  0  0
   50.4528    7.3797   14.1753 H   0  0  0  0  0  0  0  0  0  0  0  0
   49.9172    9.3337   10.3968 H   0  0  0  0  0  0  0  0  0  0  0  0
   49.1060   10.6448   11.2707 H   0  0  0  0  0  0  0  0  0  0  0  0
   50.9916   11.5982   10.1034 H   0  0  0  0  0  0  0  0  0  0  0  0
   51.3789   11.6280   11.8194 H   0  0  0  0  0  0  0  0  0  0  0  0
   52.7603    9.5284   11.5379 H   0  0  0  0  0  0  0  0  0  0  0  0
   52.3378    9.4762    9.8368 H   0  0  0  0  0  0  0  0  0  0  0  0
   56.1427   12.8215   11.9246 H   0  0  0  0  0  0  0  0  0  0  0  0
   54.2506   11.3192   12.4349 H   0  0  0  0  0  0  0  0  0  0  0  0
   53.3343   11.0636    8.2277 H   0  0  0  0  0  0  0  0  0  0  0  0
   55.2316   12.5659    7.7352 H   0  0  0  0  0  0  0  0  0  0  0  0
   56.6423   13.4462    9.5751 H   0  0  0  0  0  0  0  0  0  0  0  0
   44.9066    8.5485   11.6677 H   0  0  0  0  0  0  0  0  0  0  0  0
   44.5251    7.6150   13.1187 H   0  0  0  0  0  0  0  0  0  0  0  0
   45.8980    5.7082   12.2531 H   0  0  0  0  0  0  0  0  0  0  0  0
   46.3979    6.6611   10.8679 H   0  0  0  0  0  0  0  0  0  0  0  0
   44.0299    6.7760   10.0573 H   0  0  0  0  0  0  0  0  0  0  0  0
   43.4740    5.9182   11.4815 H   0  0  0  0  0  0  0  0  0  0  0  0
   45.2958    5.5978    8.2702 H   0  0  0  0  0  0  0  0  0  0  0  0
   45.7706    3.4339    7.1748 H   0  0  0  0  0  0  0  0  0  0  0  0
   45.3495    1.3053    8.3812 H   0  0  0  0  0  0  0  0  0  0  0  0
   44.4432    1.3469   10.6900 H   0  0  0  0  0  0  0  0  0  0  0  0
   43.9595    3.5014   11.7975 H   0  0  0  0  0  0  0  0  0  0  0  0
  1  2  2  0
  1  6  1  0
  2  3  1  0
  3  4  2  0
  4  5  1  0
  5  6  2  0
  5  7  1  0
  7  8  1  0
  8  9  1  0
  9 10  1  0
 10 11  2  0
 10 12  1  0
 12 13  1  0
 13 14  1  0
 14 15  1  0
 15 16  1  0
 16 17  1  0
 17 18  2  0
 17 19  1  0
 19 20  1  0
 20 21  1  0
 21 22  1  0
 24 22  1  0
 22 25  2  0
 23 24  2  0
 23 27  1  0
 25 26  1  0
 26 27  2  0
 14 28  1  0
 28 29  1  0
 29 30  2  0
 29 31  1  0
 31 32  1  0
 32 33  1  0
 33 34  1  0
 39 34  1  0
 35 34  2  0
 35 36  1  0
 36 37  2  0
 37 38  1  0
 38 39  2  0
  1 40  1  0
  2 41  1  0
  3 42  1  0
  4 43  1  0
  6 44  1  0
  7 45  1  0
  7 46  1  0
  8 47  1  0
  8 48  1  0
  9 49  1  0
  9 50  1  0
 13 51  1  0
 13 52  1  0
 14 53  1  0
 15 54  1  0
 15 55  1  0
 19 56  1  0
 19 57  1  0
 20 58  1  0
 20 59  1  0
 21 60  1  0
 21 61  1  0
 23 62  1  0
 24 63  1  0
 25 64  1  0
 26 65  1  0
 27 66  1  0
 31 67  1  0
 31 68  1  0
 32 69  1  0
 32 70  1  0
 33 71  1  0
 33 72  1  0
 35 73  1  0
 36 74  1  0
 37 75  1  0
 38 76  1  0
 39 77  1  0
M  END
> <Uni-Dock RESULT> 
ENERGY=   -5.391  LOWER_BOUND=    3.776  UPPER_BOUND=   11.551
INTER + INTRA:          -5.391
INTER:                  -5.391
INTRA:                   0.000
UNBOUND:                 0.000

$$$$

     RDKit          3D

 77 79  0  0  0  0  0  0  0  0999 V2000
   47.5767   11.7844   21.5320 C   0  0  0  0  0  0  0  0  0  0  0  0
   48.3384   12.1060   22.6541 C   0  0  0  0  0  0  0  0  0  0  0  0
   49.3626   11.2564   23.0659 C   0  0  0  0  0  0  0  0  0  0  0  0
   49.6231   10.0816   22.3582 C   0  0  0  0  0  0  0  0  0  0  0  0
   48.8573    9.7434   21.2344 C   0  0  0  0  0  0  0  0  0  0  0  0
   47.8355   10.6094   20.8234 C   0  0  0  0  0  0  0  0  0  0  0  0
   49.1456    8.4773   20.4662 C   0  0  0  0  0  0  0  0  0  0  0  0
   50.1638    8.7149   19.3466 C   0  0  0  0  0  0  0  0  0  0  0  0
   50.5434    7.4265   18.6243 C   0  0  0  0  0  0  0  0  0  0  0  0
   49.3939    6.8769   17.8209 C   0  0  0  0  0  0  0  0  0  0  0  0
   48.6163    6.0244   18.2284 O   0  0  0  0  0  0  0  0  0  0  0  0
   49.3294    7.4779   16.6024 O   0  0  0  0  0  0  0  0  0  0  0  0
   48.2183    7.0610   15.8004 C   0  0  0  0  0  0  0  0  0  0  0  0
   48.2567    7.7660   14.4424 C   0  0  0  0  0  0  0  0  0  0  0  0
   49.4657    7.2936   13.6176 C   0  0  0  0  0  0  0  0  0  0  0  0
   49.5658    8.0226   12.3801 O   0  0  0  0  0  0  0  0  0  0  0  0
   50.1662    9.2436   12.4723 C   0  0  0  0  0  0  0  0  0  0  0  0
   50.6705    9.6991   13.4897 O   0  0  0  0  0  0  0  0  0  0  0  0
   50.0938    9.9585   11.1438 C   0  0  0  0  0  0  0  0  0  0  0  0
   51.3141   10.8406   10.8901 C   0  0  0  0  0  0  0  0  0  0  0  0
   52.5848   10.0155   10.6587 C   0  0  0  0  0  0  0  0  0  0  0  0
   53.7709   10.8953   10.3493 C   0  0  0  0  0  0  0  0  0  0  0  0
   55.6439   12.2447   11.1052 C   0  0  0  0  0  0  0  0  0  0  0  0
   54.5521   11.4213   11.3875 C   0  0  0  0  0  0  0  0  0  0  0  0
   54.0925   11.2197    9.0253 C   0  0  0  0  0  0  0  0  0  0  0  0
   55.1845   12.0437    8.7453 C   0  0  0  0  0  0  0  0  0  0  0  0
   55.9609   12.5546    9.7846 C   0  0  0  0  0  0  0  0  0  0  0  0
   47.0379    7.4095   13.7482 O   0  0  0  0  0  0  0  0  0  0  0  0
   46.5317    8.3310   12.8837 C   0  0  0  0  0  0  0  0  0  0  0  0
   46.9870    9.4489   12.6859 O   0  0  0  0  0  0  0  0  0  0  0  0
   45.2899    7.8006   12.2125 C   0  0  0  0  0  0  0  0  0  0  0  0
   45.5661    6.4954   11.4741 C   0  0  0  0  0  0  0  0  0  0  0  0
   44.3395    6.0243   10.6930 C   0  0  0  0  0  0  0  0  0  0  0  0
   44.5890    4.6840   10.0471 C   0  0  0  0  0  0  0  0  0  0  0  0
   45.1341    4.6052    8.7585 C   0  0  0  0  0  0  0  0  0  0  0  0
   45.3971    3.3630    8.1772 C   0  0  0  0  0  0  0  0  0  0  0  0
   45.1230    2.1911    8.8803 C   0  0  0  0  0  0  0  0  0  0  0  0
   44.5824    2.2586   10.1639 C   0  0  0  0  0  0  0  0  0  0  0  0
   44.3171    3.4996   10.7457 C   0  0  0  0  0  0  0  0  0  0  0  0
   46.7775   12.4464   21.2092 H   0  0  0  0  0  0  0  0  0  0  0  0
   48.1341   13.0180   23.2086 H   0  0  0  0  0  0  0  0  0  0  0  0
   49.9590   11.5076   23.9393 H   0  0  0  0  0  0  0  0  0  0  0  0
   50.4262    9.4295   22.6923 H   0  0  0  0  0  0  0  0  0  0  0  0
   47.2315   10.3726   19.9508 H   0  0  0  0  0  0  0  0  0  0  0  0
   49.5156    7.7097   21.1581 H   0  0  0  0  0  0  0  0  0  0  0  0
   48.2064    8.0871   20.0563 H   0  0  0  0  0  0  0  0  0  0  0  0
   49.7629    9.4428   18.6298 H   0  0  0  0  0  0  0  0  0  0  0  0
   51.0742    9.1592   19.7688 H   0  0  0  0  0  0  0  0  0  0  0  0
   50.8734    6.6567   19.3312 H   0  0  0  0  0  0  0  0  0  0  0  0
   51.3879    7.6020   17.9469 H   0  0  0  0  0  0  0  0  0  0  0  0
   48.2400    5.9726   15.6596 H   0  0  0  0  0  0  0  0  0  0  0  0
   47.2827    7.3168   16.3140 H   0  0  0  0  0  0  0  0  0  0  0  0
   48.3046    8.8494   14.6057 H   0  0  0  0  0  0  0  0  0  0  0  0
   49.3373    6.2418   13.3354 H   0  0  0  0  0  0  0  0  0  0  0  0
   50.4056    7.3676   14.1780 H   0  0  0  0  0  0  0  0  0  0  0  0
   49.9953    9.2245   10.3354 H   0  0  0  0  0  0  0  0  0  0  0  0
   49.1872   10.5733   11.1531 H   0  0  0  0  0  0  0  0  0  0  0  0
   51.1169   11.4610   10.0063 H   0  0  0  0  0  0  0  0  0  0  0  0
   51.4637   11.5320   11.7297 H   0  0  0  0  0  0  0  0  0  0  0  0
   52.8134    9.4018   11.5396 H   0  0  0  0  0  0  0  0  0  0  0  0
   52.4308    9.3096    9.8307 H   0  0  0  0  0  0  0  0  0  0  0  0
   56.2443   12.6453   11.9179 H   0  0  0  0  0  0  0  0  0  0  0  0
   54.3139   11.1908   12.4231 H   0  0  0  0  0  0  0  0  0  0  0  0
   53.4936   10.8340    8.2034 H   0  0  0  0  0  0  0  0  0  0  0  0
   55.4288   12.2890    7.7162 H   0  0  0  0  0  0  0  0  0  0  0  0
   56.8109   13.1956    9.5650 H   0  0  0  0  0  0  0  0  0  0  0  0
   44.9426    8.5618   11.5052 H   0  0  0  0  0  0  0  0  0  0  0  0
   44.5099    7.6759   12.9716 H   0  0  0  0  0  0  0  0  0  0  0  0
   45.8686    5.7222   12.1923 H   0  0  0  0  0  0  0  0  0  0  0  0
   46.4183    6.6274   10.7940 H   0  0  0  0  0  0  0  0  0  0  0  0
   44.0727    6.7606    9.9232 H   0  0  0  0  0  0  0  0  0  0  0  0
   43.4678    5.9526   11.3565 H   0  0  0  0  0  0  0  0  0  0  0  0
   45.3595    5.5114    8.2004 H   0  0  0  0  0  0  0  0  0  0  0  0
   45.8213    3.3100    7.1766 H   0  0  0  0  0  0  0  0  0  0  0  0
   45.3335    1.2234    8.4303 H   0  0  0  0  0  0  0  0  0  0  0  0
   44.3733    1.3449   10.7144 H   0  0  0  0  0  0  0  0  0  0  0  0
   43.9021    3.5374   11.7503 H   0  0  0  0  0  0  0  0  0  0  0  0
  1  2  2  0
  1  6  1  0
  2  3  1  0
  3  4  2  0
  4  5  1  0
  5  6  2  0
  5  7  1  0
  7  8  1  0
  8  9  1  0
  9 10  1  0
 10 11  2  0
 10 12  1  0
 12 13  1  0
 13 14  1  0
 14 15  1  0
 15 16  1  0
 16 17  1  0
 17 18  2  0
 17 19  1  0
 19 20  1  0
 20 21  1  0
 21 22  1  0
 24 22  1  0
 22 25  2  0
 23 24  2  0
 23 27  1  0
 25 26  1  0
 26 27  2  0
 14 28  1  0
 28 29  1  0
 29 30  2  0
 29 31  1  0
 31 32  1  0
 32 33  1  0
 33 34  1  0
 39 34  1  0
 35 34  2  0
 35 36  1  0
 36 37  2  0
 37 38  1  0
 38 39  2  0
  1 40  1  0
  2 41  1  0
  3 42  1  0
  4 43  1  0
  6 44  1  0
  7 45  1  0
  7 46  1  0
  8 47  1  0
  8 48  1  0
  9 49  1  0
  9 50  1  0
 13 51  1  0
 13 52  1  0
 14 53  1  0
 15 54  1  0
 15 55  1  0
 19 56  1  0
 19 57  1  0
 20 58  1  0
 20 59  1  0
 21 60  1  0
 21 61  1  0
 23 62  1  0
 24 63  1  0
 25 64  1  0
 26 65  1  0
 27 66  1  0
 31 67  1  0
 31 68  1  0
 32 69  1  0
 32 70  1  0
 33 71  1  0
 33 72  1  0
 35 73  1  0
 36 74  1  0
 37 75  1  0
 38 76  1  0
 39 77  1  0
M  END
> <Uni-Dock RESULT> 
ENERGY=   -5.329  LOWER_BOUND=    3.765  UPPER_BOUND=   11.532
INTER + INTRA:          -5.329
INTER:                  -5.329
INTRA:                   0.000
UNBOUND:                 0.000

$$$$

     RDKit          3D

 77 79  0  0  0  0  0  0  0  0999 V2000
   51.1263   16.0887   19.5476 C   0  0  0  0  0  0  0  0  0  0  0  0
   51.4219   16.8058   20.7057 C   0  0  0  0  0  0  0  0  0  0  0  0
   50.7680   16.5021   21.8975 C   0  0  0  0  0  0  0  0  0  0  0  0
   49.8140   15.4833   21.9312 C   0  0  0  0  0  0  0  0  0  0  0  0
   49.5018   14.7625   20.7708 C   0  0  0  0  0  0  0  0  0  0  0  0
   50.1719   15.0699   19.5795 C   0  0  0  0  0  0  0  0  0  0  0  0
   48.4762   13.6566   20.8112 C   0  0  0  0  0  0  0  0  0  0  0  0
   49.1166   12.3035   21.1365 C   0  0  0  0  0  0  0  0  0  0  0  0
   48.0826   11.1918   21.2808 C   0  0  0  0  0  0  0  0  0  0  0  0
   47.4286   10.8626   19.9645 C   0  0  0  0  0  0  0  0  0  0  0  0
   46.3685   11.3417   19.5852 O   0  0  0  0  0  0  0  0  0  0  0  0
   48.1914    9.9879   19.2552 O   0  0  0  0  0  0  0  0  0  0  0  0
   47.6734    9.6762   17.9568 C   0  0  0  0  0  0  0  0  0  0  0  0
   48.5820    8.6619   17.2581 C   0  0  0  0  0  0  0  0  0  0  0  0
   48.5348    7.3030   17.9766 C   0  0  0  0  0  0  0  0  0  0  0  0
   49.4605    6.3718   17.3859 O   0  0  0  0  0  0  0  0  0  0  0  0
   50.7530    6.4939   17.8036 C   0  0  0  0  0  0  0  0  0  0  0  0
   51.1367    7.2665   18.6713 O   0  0  0  0  0  0  0  0  0  0  0  0
   51.6415    5.5561   17.0212 C   0  0  0  0  0  0  0  0  0  0  0  0
   52.8041    5.0238   17.8558 C   0  0  0  0  0  0  0  0  0  0  0  0
   52.3346    4.0627   18.9533 C   0  0  0  0  0  0  0  0  0  0  0  0
   53.4966    3.4967   19.7318 C   0  0  0  0  0  0  0  0  0  0  0  0
   55.0890    3.6683   21.5582 C   0  0  0  0  0  0  0  0  0  0  0  0
   54.0068    4.1838   20.8420 C   0  0  0  0  0  0  0  0  0  0  0  0
   54.0976    2.2930   19.3425 C   0  0  0  0  0  0  0  0  0  0  0  0
   55.1800    1.7796   20.0598 C   0  0  0  0  0  0  0  0  0  0  0  0
   55.6745    2.4660   21.1682 C   0  0  0  0  0  0  0  0  0  0  0  0
   48.0801    8.5056   15.9097 O   0  0  0  0  0  0  0  0  0  0  0  0
   48.9935    8.2097   14.9450 C   0  0  0  0  0  0  0  0  0  0  0  0
   50.2019    8.1189   15.1109 O   0  0  0  0  0  0  0  0  0  0  0  0
   48.3156    8.0399   13.6087 C   0  0  0  0  0  0  0  0  0  0  0  0
   47.2450    6.9553   13.6575 C   0  0  0  0  0  0  0  0  0  0  0  0
   46.6454    6.6986   12.2750 C   0  0  0  0  0  0  0  0  0  0  0  0
   45.5199    5.6969   12.3488 C   0  0  0  0  0  0  0  0  0  0  0  0
   45.7779    4.3255   12.2202 C   0  0  0  0  0  0  0  0  0  0  0  0
   44.7390    3.3981   12.3245 C   0  0  0  0  0  0  0  0  0  0  0  0
   43.4364    3.8329   12.5634 C   0  0  0  0  0  0  0  0  0  0  0  0
   43.1694    5.1952   12.6948 C   0  0  0  0  0  0  0  0  0  0  0  0
   44.2065    6.1237   12.5889 C   0  0  0  0  0  0  0  0  0  0  0  0
   51.6358   16.3242   18.6170 H   0  0  0  0  0  0  0  0  0  0  0  0
   52.1612   17.6019   20.6801 H   0  0  0  0  0  0  0  0  0  0  0  0
   50.9997   17.0589   22.8018 H   0  0  0  0  0  0  0  0  0  0  0  0
   49.3129   15.2584   22.8694 H   0  0  0  0  0  0  0  0  0  0  0  0
   49.9521   14.5207   18.6672 H   0  0  0  0  0  0  0  0  0  0  0  0
   47.7084   13.9012   21.5564 H   0  0  0  0  0  0  0  0  0  0  0  0
   47.9581   13.6153   19.8458 H   0  0  0  0  0  0  0  0  0  0  0  0
   49.8435   12.0409   20.3573 H   0  0  0  0  0  0  0  0  0  0  0  0
   49.6784   12.3815   22.0760 H   0  0  0  0  0  0  0  0  0  0  0  0
   47.3012   11.4663   21.9986 H   0  0  0  0  0  0  0  0  0  0  0  0
   48.5519   10.2812   21.6728 H   0  0  0  0  0  0  0  0  0  0  0  0
   46.6558    9.2733   18.0416 H   0  0  0  0  0  0  0  0  0  0  0  0
   47.6249   10.5926   17.3549 H   0  0  0  0  0  0  0  0  0  0  0  0
   49.6067    9.0526   17.2451 H   0  0  0  0  0  0  0  0  0  0  0  0
   47.5419    6.8527   17.8589 H   0  0  0  0  0  0  0  0  0  0  0  0
   48.7247    7.3950   19.0528 H   0  0  0  0  0  0  0  0  0  0  0  0
   51.0470    4.7173   16.6405 H   0  0  0  0  0  0  0  0  0  0  0  0
   52.0272    6.1137   16.1609 H   0  0  0  0  0  0  0  0  0  0  0  0
   53.5010    4.5011   17.1877 H   0  0  0  0  0  0  0  0  0  0  0  0
   53.3641    5.8566   18.3011 H   0  0  0  0  0  0  0  0  0  0  0  0
   51.6518    4.5707   19.6465 H   0  0  0  0  0  0  0  0  0  0  0  0
   51.7578    3.2382   18.5115 H   0  0  0  0  0  0  0  0  0  0  0  0
   55.4751    4.2083   22.4188 H   0  0  0  0  0  0  0  0  0  0  0  0
   53.5620    5.1253   21.1553 H   0  0  0  0  0  0  0  0  0  0  0  0
   53.7276    1.7481   18.4769 H   0  0  0  0  0  0  0  0  0  0  0  0
   55.6393    0.8447   19.7531 H   0  0  0  0  0  0  0  0  0  0  0  0
   56.5169    2.0649   21.7258 H   0  0  0  0  0  0  0  0  0  0  0  0
   49.0850    7.7705   12.8768 H   0  0  0  0  0  0  0  0  0  0  0  0
   47.8963    9.0055   13.3057 H   0  0  0  0  0  0  0  0  0  0  0  0
   46.4522    7.2507   14.3571 H   0  0  0  0  0  0  0  0  0  0  0  0
   47.6745    6.0281   14.0602 H   0  0  0  0  0  0  0  0  0  0  0  0
   47.4192    6.3338   11.5865 H   0  0  0  0  0  0  0  0  0  0  0  0
   46.2721    7.6350   11.8401 H   0  0  0  0  0  0  0  0  0  0  0  0
   46.7905    3.9709   12.0403 H   0  0  0  0  0  0  0  0  0  0  0  0
   44.9474    2.3349   12.2245 H   0  0  0  0  0  0  0  0  0  0  0  0
   42.6279    3.1105   12.6508 H   0  0  0  0  0  0  0  0  0  0  0  0
   42.1544    5.5342   12.8863 H   0  0  0  0  0  0  0  0  0  0  0  0
   43.9849    7.1826   12.7008 H   0  0  0  0  0  0  0  0  0  0  0  0
  1  2  2  0
  1  6  1  0
  2  3  1  0
  3  4  2  0
  4  5  1  0
  5  6  2  0
  5  7  1  0
  7  8  1  0
  8  9  1  0
  9 10  1  0
 10 11  2  0
 10 12  1  0
 12 13  1  0
 13 14  1  0
 14 15  1  0
 15 16  1  0
 16 17  1  0
 17 18  2  0
 17 19  1  0
 19 20  1  0
 20 21  1  0
 21 22  1  0
 24 22  1  0
 22 25  2  0
 23 24  2  0
 23 27  1  0
 25 26  1  0
 26 27  2  0
 14 28  1  0
 28 29  1  0
 29 30  2  0
 29 31  1  0
 31 32  1  0
 32 33  1  0
 33 34  1  0
 39 34  1  0
 35 34  2  0
 35 36  1  0
 36 37  2  0
 37 38  1  0
 38 39  2  0
  1 40  1  0
  2 41  1  0
  3 42  1  0
  4 43  1  0
  6 44  1  0
  7 45  1  0
  7 46  1  0
  8 47  1  0
  8 48  1  0
  9 49  1  0
  9 50  1  0
 13 51  1  0
 13 52  1  0
 14 53  1  0
 15 54  1  0
 15 55  1  0
 19 56  1  0
 19 57  1  0
 20 58  1  0
 20 59  1  0
 21 60  1  0
 21 61  1  0
 23 62  1  0
 24 63  1  0
 25 64  1  0
 26 65  1  0
 27 66  1  0
 31 67  1  0
 31 68  1  0
 32 69  1  0
 32 70  1  0
 33 71  1  0
 33 72  1  0
 35 73  1  0
 36 74  1  0
 37 75  1  0
 38 76  1  0
 39 77  1  0
M  END
> <Uni-Dock RESULT> 
ENERGY=   -5.320  LOWER_BOUND=    1.330  UPPER_BOUND=    9.572
INTER + INTRA:          -5.320
INTER:                  -5.320
INTRA:                   0.000
UNBOUND:                 0.000

$$$$

     RDKit          3D

 77 79  0  0  0  0  0  0  0  0999 V2000
   48.9436   14.2437   20.7348 C   0  0  0  0  0  0  0  0  0  0  0  0
   49.7455   14.6313   21.8069 C   0  0  0  0  0  0  0  0  0  0  0  0
   50.4654   13.6743   22.5184 C   0  0  0  0  0  0  0  0  0  0  0  0
   50.3803   12.3274   22.1610 C   0  0  0  0  0  0  0  0  0  0  0  0
   49.5697   11.9252   21.0911 C   0  0  0  0  0  0  0  0  0  0  0  0
   48.8570   12.8969   20.3764 C   0  0  0  0  0  0  0  0  0  0  0  0
   49.4853   10.4700   20.7014 C   0  0  0  0  0  0  0  0  0  0  0  0
   50.5487   10.1006   19.6625 C   0  0  0  0  0  0  0  0  0  0  0  0
   50.5441    8.6119   19.3315 C   0  0  0  0  0  0  0  0  0  0  0  0
   49.2987    8.2090   18.5863 C   0  0  0  0  0  0  0  0  0  0  0  0
   48.2966    7.7517   19.1195 O   0  0  0  0  0  0  0  0  0  0  0  0
   49.4370    8.4500   17.2548 O   0  0  0  0  0  0  0  0  0  0  0  0
   48.2673    8.1591   16.4810 C   0  0  0  0  0  0  0  0  0  0  0  0
   48.5372    8.4292   14.9988 C   0  0  0  0  0  0  0  0  0  0  0  0
   49.5678    7.4325   14.4426 C   0  0  0  0  0  0  0  0  0  0  0  0
   49.9015    7.7402   13.0762 O   0  0  0  0  0  0  0  0  0  0  0  0
   50.8339    8.7220   12.9131 C   0  0  0  0  0  0  0  0  0  0  0  0
   51.4314    9.2765   13.8254 O   0  0  0  0  0  0  0  0  0  0  0  0
   51.0003    9.0403   11.4461 C   0  0  0  0  0  0  0  0  0  0  0  0
   52.4311    9.4428   11.0963 C   0  0  0  0  0  0  0  0  0  0  0  0
   53.4055    8.2649   11.2066 C   0  0  0  0  0  0  0  0  0  0  0  0
   54.8041    8.6598   10.8006 C   0  0  0  0  0  0  0  0  0  0  0  0
   56.9778    9.5842   11.3671 C   0  0  0  0  0  0  0  0  0  0  0  0
   55.6865    9.2076   11.7419 C   0  0  0  0  0  0  0  0  0  0  0  0
   55.2315    8.5095    9.4753 C   0  0  0  0  0  0  0  0  0  0  0  0
   56.5230    8.8873    9.1026 C   0  0  0  0  0  0  0  0  0  0  0  0
   57.3965    9.4228   10.0484 C   0  0  0  0  0  0  0  0  0  0  0  0
   47.2805    8.2533   14.3030 O   0  0  0  0  0  0  0  0  0  0  0  0
   47.0850    9.0089   13.1879 C   0  0  0  0  0  0  0  0  0  0  0  0
   47.8537    9.8576   12.7578 O   0  0  0  0  0  0  0  0  0  0  0  0
   45.7546    8.6854   12.5561 C   0  0  0  0  0  0  0  0  0  0  0  0
   45.6466    7.2058   12.2039 C   0  0  0  0  0  0  0  0  0  0  0  0
   44.3502    6.9028   11.4527 C   0  0  0  0  0  0  0  0  0  0  0  0
   44.2046    5.4234   11.1959 C   0  0  0  0  0  0  0  0  0  0  0  0
   44.7258    4.8490   10.0287 C   0  0  0  0  0  0  0  0  0  0  0  0
   44.6209    3.4736    9.8104 C   0  0  0  0  0  0  0  0  0  0  0  0
   44.0001    2.6616   10.7580 C   0  0  0  0  0  0  0  0  0  0  0  0
   43.4799    3.2232   11.9236 C   0  0  0  0  0  0  0  0  0  0  0  0
   43.5823    4.5981   12.1425 C   0  0  0  0  0  0  0  0  0  0  0  0
   48.3816   14.9891   20.1784 H   0  0  0  0  0  0  0  0  0  0  0  0
   49.8095   15.6788   22.0890 H   0  0  0  0  0  0  0  0  0  0  0  0
   51.0931   13.9758   23.3529 H   0  0  0  0  0  0  0  0  0  0  0  0
   50.9487   11.5930   22.7261 H   0  0  0  0  0  0  0  0  0  0  0  0
   48.2262   12.6109   19.5382 H   0  0  0  0  0  0  0  0  0  0  0  0
   49.5993    9.8474   21.5981 H   0  0  0  0  0  0  0  0  0  0  0  0
   48.4806   10.2620   20.3149 H   0  0  0  0  0  0  0  0  0  0  0  0
   50.3939   10.6886   18.7489 H   0  0  0  0  0  0  0  0  0  0  0  0
   51.5418   10.3699   20.0443 H   0  0  0  0  0  0  0  0  0  0  0  0
   50.6190    8.0024   20.2392 H   0  0  0  0  0  0  0  0  0  0  0  0
   51.4152    8.3537   18.7170 H   0  0  0  0  0  0  0  0  0  0  0  0
   47.9692    7.1124   16.6241 H   0  0  0  0  0  0  0  0  0  0  0  0
   47.4397    8.7954   16.8195 H   0  0  0  0  0  0  0  0  0  0  0  0
   48.8999    9.4580   14.8855 H   0  0  0  0  0  0  0  0  0  0  0  0
   49.1397    6.4231   14.4256 H   0  0  0  0  0  0  0  0  0  0  0  0
   50.4771    7.3899   15.0543 H   0  0  0  0  0  0  0  0  0  0  0  0
   50.7044    8.1725   10.8450 H   0  0  0  0  0  0  0  0  0  0  0  0
   50.3158    9.8625   11.2108 H   0  0  0  0  0  0  0  0  0  0  0  0
   52.4423    9.8296   10.0691 H   0  0  0  0  0  0  0  0  0  0  0  0
   52.7628   10.2655   11.7433 H   0  0  0  0  0  0  0  0  0  0  0  0
   53.4265    7.8747   12.2324 H   0  0  0  0  0  0  0  0  0  0  0  0
   53.0652    7.4332   10.5742 H   0  0  0  0  0  0  0  0  0  0  0  0
   57.6546   10.0058   12.1058 H   0  0  0  0  0  0  0  0  0  0  0  0
   55.3718    9.3428   12.7739 H   0  0  0  0  0  0  0  0  0  0  0  0
   54.5607    8.0987    8.7241 H   0  0  0  0  0  0  0  0  0  0  0  0
   56.8478    8.7657    8.0736 H   0  0  0  0  0  0  0  0  0  0  0  0
   58.4017    9.7160    9.7567 H   0  0  0  0  0  0  0  0  0  0  0  0
   45.6607    9.2917   11.6485 H   0  0  0  0  0  0  0  0  0  0  0  0
   44.9587    8.9945   13.2426 H   0  0  0  0  0  0  0  0  0  0  0  0
   45.6940    6.6040   13.1207 H   0  0  0  0  0  0  0  0  0  0  0  0
   46.5122    6.9046   11.5986 H   0  0  0  0  0  0  0  0  0  0  0  0
   44.3270    7.4468   10.4991 H   0  0  0  0  0  0  0  0  0  0  0  0
   43.4841    7.2604   12.0249 H   0  0  0  0  0  0  0  0  0  0  0  0
   45.2190    5.4692    9.2834 H   0  0  0  0  0  0  0  0  0  0  0  0
   45.0289    3.0348    8.9021 H   0  0  0  0  0  0  0  0  0  0  0  0
   43.9236    1.5894   10.5912 H   0  0  0  0  0  0  0  0  0  0  0  0
   43.0002    2.5893   12.6652 H   0  0  0  0  0  0  0  0  0  0  0  0
   43.1785    5.0214   13.0594 H   0  0  0  0  0  0  0  0  0  0  0  0
  1  2  2  0
  1  6  1  0
  2  3  1  0
  3  4  2  0
  4  5  1  0
  5  6  2  0
  5  7  1  0
  7  8  1  0
  8  9  1  0
  9 10  1  0
 10 11  2  0
 10 12  1  0
 12 13  1  0
 13 14  1  0
 14 15  1  0
 15 16  1  0
 16 17  1  0
 17 18  2  0
 17 19  1  0
 19 20  1  0
 20 21  1  0
 21 22  1  0
 24 22  1  0
 22 25  2  0
 23 24  2  0
 23 27  1  0
 25 26  1  0
 26 27  2  0
 14 28  1  0
 28 29  1  0
 29 30  2  0
 29 31  1  0
 31 32  1  0
 32 33  1  0
 33 34  1  0
 39 34  1  0
 35 34  2  0
 35 36  1  0
 36 37  2  0
 37 38  1  0
 38 39  2  0
  1 40  1  0
  2 41  1  0
  3 42  1  0
  4 43  1  0
  6 44  1  0
  7 45  1  0
  7 46  1  0
  8 47  1  0
  8 48  1  0
  9 49  1  0
  9 50  1  0
 13 51  1  0
 13 52  1  0
 14 53  1  0
 15 54  1  0
 15 55  1  0
 19 56  1  0
 19 57  1  0
 20 58  1  0
 20 59  1  0
 21 60  1  0
 21 61  1  0
 23 62  1  0
 24 63  1  0
 25 64  1  0
 26 65  1  0
 27 66  1  0
 31 67  1  0
 31 68  1  0
 32 69  1  0
 32 70  1  0
 33 71  1  0
 33 72  1  0
 35 73  1  0
 36 74  1  0
 37 75  1  0
 38 76  1  0
 39 77  1  0
M  END
> <Uni-Dock RESULT> 
ENERGY=   -5.135  LOWER_BOUND=    3.675  UPPER_BOUND=   11.036
INTER + INTRA:          -5.135
INTER:                  -5.135
INTRA:                   0.000
UNBOUND:                 0.000

$$$$

     RDKit          3D

 77 79  0  0  0  0  0  0  0  0999 V2000
   49.0592   14.4384   20.6634 C   0  0  0  0  0  0  0  0  0  0  0  0
   49.8433   14.8250   21.7491 C   0  0  0  0  0  0  0  0  0  0  0  0
   50.4971   13.8610   22.5128 C   0  0  0  0  0  0  0  0  0  0  0  0
   50.3638   12.5083   22.1942 C   0  0  0  0  0  0  0  0  0  0  0  0
   49.5703   12.1076   21.1110 C   0  0  0  0  0  0  0  0  0  0  0  0
   48.9243   13.0858   20.3438 C   0  0  0  0  0  0  0  0  0  0  0  0
   49.4338   10.6457   20.7634 C   0  0  0  0  0  0  0  0  0  0  0  0
   50.5121   10.1975   19.7719 C   0  0  0  0  0  0  0  0  0  0  0  0
   50.4519    8.7005   19.4866 C   0  0  0  0  0  0  0  0  0  0  0  0
   49.2140    8.3284   18.7134 C   0  0  0  0  0  0  0  0  0  0  0  0
   48.1763    7.9323   19.2270 O   0  0  0  0  0  0  0  0  0  0  0  0
   49.4048    8.5205   17.3805 O   0  0  0  0  0  0  0  0  0  0  0  0
   48.2485    8.2559   16.5777 C   0  0  0  0  0  0  0  0  0  0  0  0
   48.5768    8.4665   15.0977 C   0  0  0  0  0  0  0  0  0  0  0  0
   49.5792    7.4088   14.6064 C   0  0  0  0  0  0  0  0  0  0  0  0
   49.9692    7.6579   13.2431 O   0  0  0  0  0  0  0  0  0  0  0  0
   50.9489    8.5926   13.0808 C   0  0  0  0  0  0  0  0  0  0  0  0
   51.5413    9.1496   13.9950 O   0  0  0  0  0  0  0  0  0  0  0  0
   51.1755    8.8563   11.6111 C   0  0  0  0  0  0  0  0  0  0  0  0
   52.6332    9.1850   11.2965 C   0  0  0  0  0  0  0  0  0  0  0  0
   53.5504    7.9701   11.4749 C   0  0  0  0  0  0  0  0  0  0  0  0
   54.9772    8.2909   11.1032 C   0  0  0  0  0  0  0  0  0  0  0  0
   57.1708    9.1378   11.7126 C   0  0  0  0  0  0  0  0  0  0  0  0
   55.8529    8.8297   12.0560 C   0  0  0  0  0  0  0  0  0  0  0  0
   55.4392    8.0799    9.7980 C   0  0  0  0  0  0  0  0  0  0  0  0
   56.7573    8.3892    9.4567 C   0  0  0  0  0  0  0  0  0  0  0  0
   57.6233    8.9163   10.4139 C   0  0  0  0  0  0  0  0  0  0  0  0
   47.3361    8.3230   14.3666 O   0  0  0  0  0  0  0  0  0  0  0  0
   47.2097    9.0503   13.2230 C   0  0  0  0  0  0  0  0  0  0  0  0
   48.0284    9.8507   12.7928 O   0  0  0  0  0  0  0  0  0  0  0  0
   45.8868    8.7648   12.5579 C   0  0  0  0  0  0  0  0  0  0  0  0
   45.7245    7.2807   12.2477 C   0  0  0  0  0  0  0  0  0  0  0  0
   44.4403    7.0103   11.4639 C   0  0  0  0  0  0  0  0  0  0  0  0
   44.2375    5.5312   11.2477 C   0  0  0  0  0  0  0  0  0  0  0  0
   44.7692    4.8976   10.1165 C   0  0  0  0  0  0  0  0  0  0  0  0
   44.6104    3.5218    9.9369 C   0  0  0  0  0  0  0  0  0  0  0  0
   43.9245    2.7682   10.8879 C   0  0  0  0  0  0  0  0  0  0  0  0
   43.3932    3.3888   12.0180 C   0  0  0  0  0  0  0  0  0  0  0  0
   43.5495    4.7643   12.1981 C   0  0  0  0  0  0  0  0  0  0  0  0
   48.5487   15.1893   20.0664 H   0  0  0  0  0  0  0  0  0  0  0  0
   49.9447   15.8773   22.0010 H   0  0  0  0  0  0  0  0  0  0  0  0
   51.1109   14.1616   23.3580 H   0  0  0  0  0  0  0  0  0  0  0  0
   50.8809   11.7684   22.7999 H   0  0  0  0  0  0  0  0  0  0  0  0
   48.3082   12.8008   19.4944 H   0  0  0  0  0  0  0  0  0  0  0  0
   49.4917   10.0477   21.6819 H   0  0  0  0  0  0  0  0  0  0  0  0
   48.4335   10.4692   20.3505 H   0  0  0  0  0  0  0  0  0  0  0  0
   50.4125   10.7621   18.8361 H   0  0  0  0  0  0  0  0  0  0  0  0
   51.5035   10.4355   20.1778 H   0  0  0  0  0  0  0  0  0  0  0  0
   50.4710    8.1177   20.4145 H   0  0  0  0  0  0  0  0  0  0  0  0
   51.3297    8.3854   18.9093 H   0  0  0  0  0  0  0  0  0  0  0  0
   47.8999    7.2282   16.7428 H   0  0  0  0  0  0  0  0  0  0  0  0
   47.4396    8.9380   16.8691 H   0  0  0  0  0  0  0  0  0  0  0  0
   48.9881    9.4745   14.9650 H   0  0  0  0  0  0  0  0  0  0  0  0
   49.1075    6.4189   14.6063 H   0  0  0  0  0  0  0  0  0  0  0  0
   50.4660    7.3464   15.2488 H   0  0  0  0  0  0  0  0  0  0  0  0
   50.8606    7.9834   11.0273 H   0  0  0  0  0  0  0  0  0  0  0  0
   50.5359    9.6994   11.3283 H   0  0  0  0  0  0  0  0  0  0  0  0
   52.6939    9.5379   10.2589 H   0  0  0  0  0  0  0  0  0  0  0  0
   52.9804   10.0129   11.9286 H   0  0  0  0  0  0  0  0  0  0  0  0
   53.5216    7.6124   12.5122 H   0  0  0  0  0  0  0  0  0  0  0  0
   53.1937    7.1341   10.8573 H   0  0  0  0  0  0  0  0  0  0  0  0
   57.8420    9.5531   12.4599 H   0  0  0  0  0  0  0  0  0  0  0  0
   55.5120    9.0114   13.0724 H   0  0  0  0  0  0  0  0  0  0  0  0
   54.7749    7.6747    9.0380 H   0  0  0  0  0  0  0  0  0  0  0  0
   57.1088    8.2208    8.4432 H   0  0  0  0  0  0  0  0  0  0  0  0
   58.6493    9.1562   10.1468 H   0  0  0  0  0  0  0  0  0  0  0  0
   45.8486    9.3452   11.6295 H   0  0  0  0  0  0  0  0  0  0  0  0
   45.0841    9.1299   13.2080 H   0  0  0  0  0  0  0  0  0  0  0  0
   45.7161    6.7070   13.1836 H   0  0  0  0  0  0  0  0  0  0  0  0
   46.5945    6.9231   11.6808 H   0  0  0  0  0  0  0  0  0  0  0  0
   44.4714    7.5240   10.4937 H   0  0  0  0  0  0  0  0  0  0  0  0
   43.5733    7.4232   11.9959 H   0  0  0  0  0  0  0  0  0  0  0  0
   45.3128    5.4717    9.3692 H   0  0  0  0  0  0  0  0  0  0  0  0
   45.0270    3.0369    9.0565 H   0  0  0  0  0  0  0  0  0  0  0  0
   43.8059    1.6956   10.7516 H   0  0  0  0  0  0  0  0  0  0  0  0
   42.8627    2.8004   12.7624 H   0  0  0  0  0  0  0  0  0  0  0  0
   43.1362    5.2338   13.0878 H   0  0  0  0  0  0  0  0  0  0  0  0
  1  2  2  0
  1  6  1  0
  2  3  1  0
  3  4  2  0
  4  5  1  0
  5  6  2  0
  5  7  1  0
  7  8  1  0
  8  9  1  0
  9 10  1  0
 10 11  2  0
 10 12  1  0
 12 13  1  0
 13 14  1  0
 14 15  1  0
 15 16  1  0
 16 17  1  0
 17 18  2  0
 17 19  1  0
 19 20  1  0
 20 21  1  0
 21 22  1  0
 24 22  1  0
 22 25  2  0
 23 24  2  0
 23 27  1  0
 25 26  1  0
 26 27  2  0
 14 28  1  0
 28 29  1  0
 29 30  2  0
 29 31  1  0
 31 32  1  0
 32 33  1  0
 33 34  1  0
 39 34  1  0
 35 34  2  0
 35 36  1  0
 36 37  2  0
 37 38  1  0
 38 39  2  0
  1 40  1  0
  2 41  1  0
  3 42  1  0
  4 43  1  0
  6 44  1  0
  7 45  1  0
  7 46  1  0
  8 47  1  0
  8 48  1  0
  9 49  1  0
  9 50  1  0
 13 51  1  0
 13 52  1  0
 14 53  1  0
 15 54  1  0
 15 55  1  0
 19 56  1  0
 19 57  1  0
 20 58  1  0
 20 59  1  0
 21 60  1  0
 21 61  1  0
 23 62  1  0
 24 63  1  0
 25 64  1  0
 26 65  1  0
 27 66  1  0
 31 67  1  0
 31 68  1  0
 32 69  1  0
 32 70  1  0
 33 71  1  0
 33 72  1  0
 35 73  1  0
 36 74  1  0
 37 75  1  0
 38 76  1  0
 39 77  1  0
M  END
> <Uni-Dock RESULT> 
ENERGY=   -5.124  LOWER_BOUND=    3.675  UPPER_BOUND=   10.928
INTER + INTRA:          -5.124
INTER:                  -5.124
INTRA:                   0.000
UNBOUND:                 0.000

$$$$

     RDKit          3D

 77 79  0  0  0  0  0  0  0  0999 V2000
   44.1215    4.6592   10.2958 C   0  0  0  0  0  0  0  0  0  0  0  0
   43.4759    3.7390   11.1200 C   0  0  0  0  0  0  0  0  0  0  0  0
   43.9116    3.5534   12.4299 C   0  0  0  0  0  0  0  0  0  0  0  0
   44.9968    4.2851   12.9158 C   0  0  0  0  0  0  0  0  0  0  0  0
   45.6595    5.2057   12.0930 C   0  0  0  0  0  0  0  0  0  0  0  0
   45.2075    5.3913   10.7800 C   0  0  0  0  0  0  0  0  0  0  0  0
   46.8271    6.0012   12.6225 C   0  0  0  0  0  0  0  0  0  0  0  0
   46.3724    7.3223   13.2508 C   0  0  0  0  0  0  0  0  0  0  0  0
   47.5277    8.0931   13.8811 C   0  0  0  0  0  0  0  0  0  0  0  0
   48.4855    8.6133   12.8414 C   0  0  0  0  0  0  0  0  0  0  0  0
   49.5041    8.0314   12.4932 O   0  0  0  0  0  0  0  0  0  0  0  0
   48.0452    9.7951   12.3320 O   0  0  0  0  0  0  0  0  0  0  0  0
   48.8654   10.3243   11.2837 C   0  0  0  0  0  0  0  0  0  0  0  0
   48.3061   11.6665   10.8058 C   0  0  0  0  0  0  0  0  0  0  0  0
   48.4339   12.7327   11.9066 C   0  0  0  0  0  0  0  0  0  0  0  0
   47.8217   13.9715   11.5021 O   0  0  0  0  0  0  0  0  0  0  0  0
   46.4693   14.0319   11.6670 C   0  0  0  0  0  0  0  0  0  0  0  0
   45.7894   13.1584   12.1882 O   0  0  0  0  0  0  0  0  0  0  0  0
   45.9338   15.3208   11.0898 C   0  0  0  0  0  0  0  0  0  0  0  0
   44.7314   15.8515   11.8672 C   0  0  0  0  0  0  0  0  0  0  0  0
   45.1205   16.3481   13.2640 C   0  0  0  0  0  0  0  0  0  0  0  0
   43.9360   16.9255   13.9991 C   0  0  0  0  0  0  0  0  0  0  0  0
   41.9955   16.6235   15.4287 C   0  0  0  0  0  0  0  0  0  0  0  0
   43.0987   16.0942   14.7559 C   0  0  0  0  0  0  0  0  0  0  0  0
   43.6415   18.2922   13.9156 C   0  0  0  0  0  0  0  0  0  0  0  0
   42.5376   18.8192   14.5887 C   0  0  0  0  0  0  0  0  0  0  0  0
   41.7158   17.9856   15.3463 C   0  0  0  0  0  0  0  0  0  0  0  0
   49.0946   12.0674    9.6603 O   0  0  0  0  0  0  0  0  0  0  0  0
   48.4637   12.8105    8.7103 C   0  0  0  0  0  0  0  0  0  0  0  0
   47.2804   13.1199    8.7165 O   0  0  0  0  0  0  0  0  0  0  0  0
   49.4216   13.1815    7.6064 C   0  0  0  0  0  0  0  0  0  0  0  0
   50.6273   13.9447    8.1438 C   0  0  0  0  0  0  0  0  0  0  0  0
   51.5340   14.4271    7.0116 C   0  0  0  0  0  0  0  0  0  0  0  0
   52.7733   15.0937    7.5551 C   0  0  0  0  0  0  0  0  0  0  0  0
   52.7839   16.4700    7.8186 C   0  0  0  0  0  0  0  0  0  0  0  0
   53.9209   17.0781    8.3551 C   0  0  0  0  0  0  0  0  0  0  0  0
   55.0530   16.3155    8.6374 C   0  0  0  0  0  0  0  0  0  0  0  0
   55.0520   14.9449    8.3806 C   0  0  0  0  0  0  0  0  0  0  0  0
   53.9169   14.3359    7.8425 C   0  0  0  0  0  0  0  0  0  0  0  0
   43.7826    4.8054    9.2736 H   0  0  0  0  0  0  0  0  0  0  0  0
   42.6337    3.1656   10.7420 H   0  0  0  0  0  0  0  0  0  0  0  0
   43.4072    2.8380   13.0743 H   0  0  0  0  0  0  0  0  0  0  0  0
   45.3242    4.1288   13.9405 H   0  0  0  0  0  0  0  0  0  0  0  0
   45.7008    6.1045   10.1240 H   0  0  0  0  0  0  0  0  0  0  0  0
   47.3717    5.3984   13.3605 H   0  0  0  0  0  0  0  0  0  0  0  0
   47.5327    6.1867   11.8040 H   0  0  0  0  0  0  0  0  0  0  0  0
   45.8774    7.9421   12.4924 H   0  0  0  0  0  0  0  0  0  0  0  0
   45.6240    7.1192   14.0273 H   0  0  0  0  0  0  0  0  0  0  0  0
   48.0860    7.4667   14.5861 H   0  0  0  0  0  0  0  0  0  0  0  0
   47.1491    8.9436   14.4609 H   0  0  0  0  0  0  0  0  0  0  0  0
   49.8968   10.4514   11.6372 H   0  0  0  0  0  0  0  0  0  0  0  0
   48.8808    9.6192   10.4428 H   0  0  0  0  0  0  0  0  0  0  0  0
   47.2550   11.5329   10.5225 H   0  0  0  0  0  0  0  0  0  0  0  0
   49.4914   12.9648   12.0808 H   0  0  0  0  0  0  0  0  0  0  0  0
   48.0131   12.3963   12.8619 H   0  0  0  0  0  0  0  0  0  0  0  0
   46.7276   16.0769   11.0778 H   0  0  0  0  0  0  0  0  0  0  0  0
   45.6450   15.1188   10.0526 H   0  0  0  0  0  0  0  0  0  0  0  0
   44.2865   16.6779   11.2978 H   0  0  0  0  0  0  0  0  0  0  0  0
   43.9586   15.0758   11.9468 H   0  0  0  0  0  0  0  0  0  0  0  0
   45.5492   15.5317   13.8594 H   0  0  0  0  0  0  0  0  0  0  0  0
   45.9074   17.1113   13.1875 H   0  0  0  0  0  0  0  0  0  0  0  0
   41.3541   15.9701   16.0145 H   0  0  0  0  0  0  0  0  0  0  0  0
   43.3029   15.0285   14.8258 H   0  0  0  0  0  0  0  0  0  0  0  0
   44.2692   18.9551   13.3242 H   0  0  0  0  0  0  0  0  0  0  0  0
   42.3169   19.8802   14.5208 H   0  0  0  0  0  0  0  0  0  0  0  0
   40.8570   18.3975   15.8701 H   0  0  0  0  0  0  0  0  0  0  0  0
   48.8770   13.8043    6.8882 H   0  0  0  0  0  0  0  0  0  0  0  0
   49.7244   12.2664    7.0858 H   0  0  0  0  0  0  0  0  0  0  0  0
   51.1967   13.3011    8.8269 H   0  0  0  0  0  0  0  0  0  0  0  0
   50.2876   14.7990    8.7447 H   0  0  0  0  0  0  0  0  0  0  0  0
   50.9923   15.1284    6.3630 H   0  0  0  0  0  0  0  0  0  0  0  0
   51.8246   13.5855    6.3693 H   0  0  0  0  0  0  0  0  0  0  0  0
   51.9054   17.0767    7.6099 H   0  0  0  0  0  0  0  0  0  0  0  0
   53.9211   18.1470    8.5580 H   0  0  0  0  0  0  0  0  0  0  0  0
   55.9367   16.7876    9.0610 H   0  0  0  0  0  0  0  0  0  0  0  0
   55.9331   14.3491    8.6054 H   0  0  0  0  0  0  0  0  0  0  0  0
   53.9277   13.2648    7.6541 H   0  0  0  0  0  0  0  0  0  0  0  0
  1  2  2  0
  1  6  1  0
  2  3  1  0
  3  4  2  0
  4  5  1  0
  5  6  2  0
  5  7  1  0
  7  8  1  0
  8  9  1  0
  9 10  1  0
 10 11  2  0
 10 12  1  0
 12 13  1  0
 13 14  1  0
 14 15  1  0
 15 16  1  0
 16 17  1  0
 17 18  2  0
 17 19  1  0
 19 20  1  0
 20 21  1  0
 21 22  1  0
 24 22  1  0
 22 25  2  0
 23 24  2  0
 23 27  1  0
 25 26  1  0
 26 27  2  0
 14 28  1  0
 28 29  1  0
 29 30  2  0
 29 31  1  0
 31 32  1  0
 32 33  1  0
 33 34  1  0
 39 34  1  0
 35 34  2  0
 35 36  1  0
 36 37  2  0
 37 38  1  0
 38 39  2  0
  1 40  1  0
  2 41  1  0
  3 42  1  0
  4 43  1  0
  6 44  1  0
  7 45  1  0
  7 46  1  0
  8 47  1  0
  8 48  1  0
  9 49  1  0
  9 50  1  0
 13 51  1  0
 13 52  1  0
 14 53  1  0
 15 54  1  0
 15 55  1  0
 19 56  1  0
 19 57  1  0
 20 58  1  0
 20 59  1  0
 21 60  1  0
 21 61  1  0
 23 62  1  0
 24 63  1  0
 25 64  1  0
 26 65  1  0
 27 66  1  0
 31 67  1  0
 31 68  1  0
 32 69  1  0
 32 70  1  0
 33 71  1  0
 33 72  1  0
 35 73  1  0
 36 74  1  0
 37 75  1  0
 38 76  1  0
 39 77  1  0
M  END
> <Uni-Dock RESULT> 
ENERGY=   -4.734  LOWER_BOUND=    7.127  UPPER_BOUND=   12.183
INTER + INTRA:          -4.734
INTER:                  -4.734
INTRA:                   0.000
UNBOUND:                 0.000

$$$$

     RDKit          3D

 77 79  0  0  0  0  0  0  0  0999 V2000
   50.4505   10.9322   22.2202 C   0  0  0  0  0  0  0  0  0  0  0  0
   49.6604   10.9826   23.3674 C   0  0  0  0  0  0  0  0  0  0  0  0
   48.4971   11.7487   23.3774 C   0  0  0  0  0  0  0  0  0  0  0  0
   48.1251   12.4692   22.2410 C   0  0  0  0  0  0  0  0  0  0  0  0
   48.9169   12.4338   21.0854 C   0  0  0  0  0  0  0  0  0  0  0  0
   50.0801   11.6528   21.0830 C   0  0  0  0  0  0  0  0  0  0  0  0
   48.5089   13.2068   19.8557 C   0  0  0  0  0  0  0  0  0  0  0  0
   47.6223   12.3685   18.9294 C   0  0  0  0  0  0  0  0  0  0  0  0
   47.1176   13.1657   17.7312 C   0  0  0  0  0  0  0  0  0  0  0  0
   48.2336   13.5137   16.7814 C   0  0  0  0  0  0  0  0  0  0  0  0
   48.8483   14.5716   16.8017 O   0  0  0  0  0  0  0  0  0  0  0  0
   48.4750   12.4836   15.9266 O   0  0  0  0  0  0  0  0  0  0  0  0
   49.5721   12.7069   15.0333 C   0  0  0  0  0  0  0  0  0  0  0  0
   49.7372   11.5096   14.0943 C   0  0  0  0  0  0  0  0  0  0  0  0
   48.5385   11.3987   13.1373 C   0  0  0  0  0  0  0  0  0  0  0  0
   48.6372   10.2194   12.3173 O   0  0  0  0  0  0  0  0  0  0  0  0
   48.2125    9.0651   12.9065 C   0  0  0  0  0  0  0  0  0  0  0  0
   47.7035    8.9938   14.0168 O   0  0  0  0  0  0  0  0  0  0  0  0
   48.4862    7.8889   11.9995 C   0  0  0  0  0  0  0  0  0  0  0  0
   47.4273    6.7962   12.1275 C   0  0  0  0  0  0  0  0  0  0  0  0
   46.0726    7.2359   11.5614 C   0  0  0  0  0  0  0  0  0  0  0  0
   45.0513    6.1278   11.6382 C   0  0  0  0  0  0  0  0  0  0  0  0
   43.3393    4.9261   12.8732 C   0  0  0  0  0  0  0  0  0  0  0  0
   44.2776    5.9571   12.7946 C   0  0  0  0  0  0  0  0  0  0  0  0
   44.8799    5.2401   10.5686 C   0  0  0  0  0  0  0  0  0  0  0  0
   43.9414    4.2095   10.6495 C   0  0  0  0  0  0  0  0  0  0  0  0
   43.1701    4.0535   11.8006 C   0  0  0  0  0  0  0  0  0  0  0  0
   50.9412   11.7405   13.3251 O   0  0  0  0  0  0  0  0  0  0  0  0
   51.6376   10.6400   12.9295 C   0  0  0  0  0  0  0  0  0  0  0  0
   51.3632    9.4823   13.2135 O   0  0  0  0  0  0  0  0  0  0  0  0
   52.8376   11.0400   12.1087 C   0  0  0  0  0  0  0  0  0  0  0  0
   52.4337   11.8623   10.8898 C   0  0  0  0  0  0  0  0  0  0  0  0
   53.6354   12.1616    9.9937 C   0  0  0  0  0  0  0  0  0  0  0  0
   53.2459   13.0577    8.8444 C   0  0  0  0  0  0  0  0  0  0  0  0
   52.7936   12.5101    7.6364 C   0  0  0  0  0  0  0  0  0  0  0  0
   52.4000   13.3427    6.5866 C   0  0  0  0  0  0  0  0  0  0  0  0
   52.4498   14.7275    6.7374 C   0  0  0  0  0  0  0  0  0  0  0  0
   52.8965   15.2824    7.9362 C   0  0  0  0  0  0  0  0  0  0  0  0
   53.2921   14.4514    8.9859 C   0  0  0  0  0  0  0  0  0  0  0  0
   51.3582   10.3347   22.2107 H   0  0  0  0  0  0  0  0  0  0  0  0
   49.9509   10.4256   24.2543 H   0  0  0  0  0  0  0  0  0  0  0  0
   47.8789   11.7865   24.2706 H   0  0  0  0  0  0  0  0  0  0  0  0
   47.2141   13.0619   22.2649 H   0  0  0  0  0  0  0  0  0  0  0  0
   50.7079   11.6037   20.1966 H   0  0  0  0  0  0  0  0  0  0  0  0
   47.9819   14.1203   20.1599 H   0  0  0  0  0  0  0  0  0  0  0  0
   49.4106   13.5398   19.3282 H   0  0  0  0  0  0  0  0  0  0  0  0
   48.1760   11.4854   18.5862 H   0  0  0  0  0  0  0  0  0  0  0  0
   46.7558   11.9967   19.4909 H   0  0  0  0  0  0  0  0  0  0  0  0
   46.6286   14.0938   18.0485 H   0  0  0  0  0  0  0  0  0  0  0  0
   46.3602   12.5931   17.1822 H   0  0  0  0  0  0  0  0  0  0  0  0
   49.4054   13.6218   14.4500 H   0  0  0  0  0  0  0  0  0  0  0  0
   50.4933   12.8400   15.6147 H   0  0  0  0  0  0  0  0  0  0  0  0
   49.8328   10.5972   14.6953 H   0  0  0  0  0  0  0  0  0  0  0  0
   48.5359   12.2468   12.4422 H   0  0  0  0  0  0  0  0  0  0  0  0
   47.5794   11.4111   13.6692 H   0  0  0  0  0  0  0  0  0  0  0  0
   48.5391    8.2305   10.9591 H   0  0  0  0  0  0  0  0  0  0  0  0
   49.4682    7.4876   12.2728 H   0  0  0  0  0  0  0  0  0  0  0  0
   47.7772    5.9078   11.5859 H   0  0  0  0  0  0  0  0  0  0  0  0
   47.3155    6.4974   13.1780 H   0  0  0  0  0  0  0  0  0  0  0  0
   45.6929    8.1120   12.1029 H   0  0  0  0  0  0  0  0  0  0  0  0
   46.1858    7.5533   10.5154 H   0  0  0  0  0  0  0  0  0  0  0  0
   42.7430    4.8042   13.7738 H   0  0  0  0  0  0  0  0  0  0  0  0
   44.4019    6.6285   13.6408 H   0  0  0  0  0  0  0  0  0  0  0  0
   45.4775    5.3446    9.6658 H   0  0  0  0  0  0  0  0  0  0  0  0
   43.8128    3.5265    9.8152 H   0  0  0  0  0  0  0  0  0  0  0  0
   42.4396    3.2509   11.8619 H   0  0  0  0  0  0  0  0  0  0  0  0
   53.3424   10.1222   11.7876 H   0  0  0  0  0  0  0  0  0  0  0  0
   53.5324   11.5902   12.7527 H   0  0  0  0  0  0  0  0  0  0  0  0
   51.9705   12.8025   11.2162 H   0  0  0  0  0  0  0  0  0  0  0  0
   51.6627   11.3265   10.3199 H   0  0  0  0  0  0  0  0  0  0  0  0
   54.0620   11.2273    9.6048 H   0  0  0  0  0  0  0  0  0  0  0  0
   54.4355   12.6397   10.5738 H   0  0  0  0  0  0  0  0  0  0  0  0
   52.7428   11.4312    7.5065 H   0  0  0  0  0  0  0  0  0  0  0  0
   52.0490   12.9100    5.6520 H   0  0  0  0  0  0  0  0  0  0  0  0
   52.1374   15.3763    5.9222 H   0  0  0  0  0  0  0  0  0  0  0  0
   52.9305   16.3623    8.0559 H   0  0  0  0  0  0  0  0  0  0  0  0
   53.6315   14.8980    9.9178 H   0  0  0  0  0  0  0  0  0  0  0  0
  1  2  2  0
  1  6  1  0
  2  3  1  0
  3  4  2  0
  4  5  1  0
  5  6  2  0
  5  7  1  0
  7  8  1  0
  8  9  1  0
  9 10  1  0
 10 11  2  0
 10 12  1  0
 12 13  1  0
 13 14  1  0
 14 15  1  0
 15 16  1  0
 16 17  1  0
 17 18  2  0
 17 19  1  0
 19 20  1  0
 20 21  1  0
 21 22  1  0
 24 22  1  0
 22 25  2  0
 23 24  2  0
 23 27  1  0
 25 26  1  0
 26 27  2  0
 14 28  1  0
 28 29  1  0
 29 30  2  0
 29 31  1  0
 31 32  1  0
 32 33  1  0
 33 34  1  0
 39 34  1  0
 35 34  2  0
 35 36  1  0
 36 37  2  0
 37 38  1  0
 38 39  2  0
  1 40  1  0
  2 41  1  0
  3 42  1  0
  4 43  1  0
  6 44  1  0
  7 45  1  0
  7 46  1  0
  8 47  1  0
  8 48  1  0
  9 49  1  0
  9 50  1  0
 13 51  1  0
 13 52  1  0
 14 53  1  0
 15 54  1  0
 15 55  1  0
 19 56  1  0
 19 57  1  0
 20 58  1  0
 20 59  1  0
 21 60  1  0
 21 61  1  0
 23 62  1  0
 24 63  1  0
 25 64  1  0
 26 65  1  0
 27 66  1  0
 31 67  1  0
 31 68  1  0
 32 69  1  0
 32 70  1  0
 33 71  1  0
 33 72  1  0
 35 73  1  0
 36 74  1  0
 37 75  1  0
 38 76  1  0
 39 77  1  0
M  END
> <Uni-Dock RESULT> 
ENERGY=   -4.700  LOWER_BOUND=    5.036  UPPER_BOUND=   11.166
INTER + INTRA:          -4.700
INTER:                  -4.700
INTRA:                   0.000
UNBOUND:                 0.000

$$$$
