
     RDKit          3D

 77 79  0  0  0  0  0  0  0  0999 V2000
   44.8826   13.0305    8.4150 C   0  0  0  0  0  0  0  0  0  0  0  0
   44.5029   12.1479    7.4049 C   0  0  0  0  0  0  0  0  0  0  0  0
   43.9126   10.9276    7.7317 C   0  0  0  0  0  0  0  0  0  0  0  0
   43.7030   10.5885    9.0693 C   0  0  0  0  0  0  0  0  0  0  0  0
   44.0818   11.4677   10.0934 C   0  0  0  0  0  0  0  0  0  0  0  0
   44.6732   12.6929    9.7538 C   0  0  0  0  0  0  0  0  0  0  0  0
   43.8702   11.0903   11.5379 C   0  0  0  0  0  0  0  0  0  0  0  0
   44.8576   10.0353   12.0437 C   0  0  0  0  0  0  0  0  0  0  0  0
   46.3010   10.5346   12.0763 C   0  0  0  0  0  0  0  0  0  0  0  0
   47.1836    9.5323   12.7748 C   0  0  0  0  0  0  0  0  0  0  0  0
   47.2477    8.3445   12.4872 O   0  0  0  0  0  0  0  0  0  0  0  0
   47.8874   10.1344   13.7725 O   0  0  0  0  0  0  0  0  0  0  0  0
   48.6893    9.2296   14.5544 C   0  0  0  0  0  0  0  0  0  0  0  0
   49.2950   10.0047   15.7294 C   0  0  0  0  0  0  0  0  0  0  0  0
   50.2868    9.1361   16.5158 C   0  0  0  0  0  0  0  0  0  0  0  0
   49.6184    7.9423   16.9619 O   0  0  0  0  0  0  0  0  0  0  0  0
   50.3678    7.1293   17.7550 C   0  0  0  0  0  0  0  0  0  0  0  0
   51.5199    7.3534   18.0957 O   0  0  0  0  0  0  0  0  0  0  0  0
   49.5477    5.9320   18.1742 C   0  0  0  0  0  0  0  0  0  0  0  0
   50.4138    4.7293   18.5447 C   0  0  0  0  0  0  0  0  0  0  0  0
   51.0978    4.1164   17.3195 C   0  0  0  0  0  0  0  0  0  0  0  0
   51.9201    2.9057   17.6826 C   0  0  0  0  0  0  0  0  0  0  0  0
   52.1494    0.4986   17.8973 C   0  0  0  0  0  0  0  0  0  0  0  0
   51.3863    1.6163   17.5557 C   0  0  0  0  0  0  0  0  0  0  0  0
   53.2259    3.0573   18.1680 C   0  0  0  0  0  0  0  0  0  0  0  0
   53.9873    1.9387   18.5095 C   0  0  0  0  0  0  0  0  0  0  0  0
   53.4500    0.6597   18.3720 C   0  0  0  0  0  0  0  0  0  0  0  0
   48.2022   10.3921   16.5996 O   0  0  0  0  0  0  0  0  0  0  0  0
   48.4506   11.4332   17.4356 C   0  0  0  0  0  0  0  0  0  0  0  0
   49.4812   12.0913   17.4574 O   0  0  0  0  0  0  0  0  0  0  0  0
   47.2893   11.6458   18.3708 C   0  0  0  0  0  0  0  0  0  0  0  0
   47.2051   10.5376   19.4169 C   0  0  0  0  0  0  0  0  0  0  0  0
   48.3464   10.6122   20.4398 C   0  0  0  0  0  0  0  0  0  0  0  0
   48.3125    9.4504   21.4022 C   0  0  0  0  0  0  0  0  0  0  0  0
   47.3047    9.3590   22.3726 C   0  0  0  0  0  0  0  0  0  0  0  0
   47.2661    8.2776   23.2547 C   0  0  0  0  0  0  0  0  0  0  0  0
   48.2351    7.2786   23.1759 C   0  0  0  0  0  0  0  0  0  0  0  0
   49.2455    7.3612   22.2179 C   0  0  0  0  0  0  0  0  0  0  0  0
   49.2856    8.4430   21.3371 C   0  0  0  0  0  0  0  0  0  0  0  0
   45.3453   13.9816    8.1598 H   0  0  0  0  0  0  0  0  0  0  0  0
   44.6675   12.4100    6.3626 H   0  0  0  0  0  0  0  0  0  0  0  0
   43.6167   10.2380    6.9452 H   0  0  0  0  0  0  0  0  0  0  0  0
   43.2432    9.6317    9.3084 H   0  0  0  0  0  0  0  0  0  0  0  0
   44.9781   13.3919   10.5294 H   0  0  0  0  0  0  0  0  0  0  0  0
   42.8485   10.7064   11.6467 H   0  0  0  0  0  0  0  0  0  0  0  0
   43.9204   11.9826   12.1735 H   0  0  0  0  0  0  0  0  0  0  0  0
   44.5562    9.7379   13.0567 H   0  0  0  0  0  0  0  0  0  0  0  0
   44.7952    9.1283   11.4290 H   0  0  0  0  0  0  0  0  0  0  0  0
   46.7033   10.6911   11.0705 H   0  0  0  0  0  0  0  0  0  0  0  0
   46.3490   11.4931   12.6052 H   0  0  0  0  0  0  0  0  0  0  0  0
   49.4825    8.8216   13.9171 H   0  0  0  0  0  0  0  0  0  0  0  0
   48.0472    8.4195   14.9214 H   0  0  0  0  0  0  0  0  0  0  0  0
   49.7879   10.9059   15.3431 H   0  0  0  0  0  0  0  0  0  0  0  0
   51.1307    8.8561   15.8743 H   0  0  0  0  0  0  0  0  0  0  0  0
   50.6577    9.6799   17.3917 H   0  0  0  0  0  0  0  0  0  0  0  0
   48.9411    6.2341   19.0351 H   0  0  0  0  0  0  0  0  0  0  0  0
   48.8683    5.6557   17.3591 H   0  0  0  0  0  0  0  0  0  0  0  0
   49.7769    3.9735   19.0201 H   0  0  0  0  0  0  0  0  0  0  0  0
   51.1637    5.0171   19.2916 H   0  0  0  0  0  0  0  0  0  0  0  0
   51.7470    4.8506   16.8286 H   0  0  0  0  0  0  0  0  0  0  0  0
   50.3457    3.8359   16.5714 H   0  0  0  0  0  0  0  0  0  0  0  0
   51.7307   -0.4991   17.7906 H   0  0  0  0  0  0  0  0  0  0  0  0
   50.3737    1.4736   17.1864 H   0  0  0  0  0  0  0  0  0  0  0  0
   53.6571    4.0505   18.2799 H   0  0  0  0  0  0  0  0  0  0  0  0
   55.0011    2.0650   18.8814 H   0  0  0  0  0  0  0  0  0  0  0  0
   54.0455   -0.2106   18.6344 H   0  0  0  0  0  0  0  0  0  0  0  0
   46.3713   11.6804   17.7721 H   0  0  0  0  0  0  0  0  0  0  0  0
   47.3923   12.6298   18.8443 H   0  0  0  0  0  0  0  0  0  0  0  0
   47.2102    9.5551   18.9264 H   0  0  0  0  0  0  0  0  0  0  0  0
   46.2415   10.6231   19.9345 H   0  0  0  0  0  0  0  0  0  0  0  0
   48.2856   11.5475   21.0096 H   0  0  0  0  0  0  0  0  0  0  0  0
   49.3156   10.6304   19.9257 H   0  0  0  0  0  0  0  0  0  0  0  0
   46.5442   10.1330   22.4490 H   0  0  0  0  0  0  0  0  0  0  0  0
   46.4814    8.2160   24.0065 H   0  0  0  0  0  0  0  0  0  0  0  0
   48.2061    6.4386   23.8657 H   0  0  0  0  0  0  0  0  0  0  0  0
   50.0067    6.5862   22.1621 H   0  0  0  0  0  0  0  0  0  0  0  0
   50.0873    8.4960   20.6041 H   0  0  0  0  0  0  0  0  0  0  0  0
  1  2  2  0
  1  6  1  0
  2  3  1  0
  3  4  2  0
  4  5  1  0
  5  6  2  0
  5  7  1  0
  7  8  1  0
  8  9  1  0
  9 10  1  0
 10 11  2  0
 10 12  1  0
 12 13  1  0
 13 14  1  0
 14 15  1  0
 15 16  1  0
 16 17  1  0
 17 18  2  0
 17 19  1  0
 19 20  1  0
 20 21  1  0
 21 22  1  0
 24 22  1  0
 22 25  2  0
 23 24  2  0
 23 27  1  0
 25 26  1  0
 26 27  2  0
 14 28  1  0
 28 29  1  0
 29 30  2  0
 29 31  1  0
 31 32  1  0
 32 33  1  0
 33 34  1  0
 39 34  1  0
 35 34  2  0
 35 36  1  0
 36 37  2  0
 37 38  1  0
 38 39  2  0
  1 40  1  0
  2 41  1  0
  3 42  1  0
  4 43  1  0
  6 44  1  0
  7 45  1  0
  7 46  1  0
  8 47  1  0
  8 48  1  0
  9 49  1  0
  9 50  1  0
 13 51  1  0
 13 52  1  0
 14 53  1  0
 15 54  1  0
 15 55  1  0
 19 56  1  0
 19 57  1  0
 20 58  1  0
 20 59  1  0
 21 60  1  0
 21 61  1  0
 23 62  1  0
 24 63  1  0
 25 64  1  0
 26 65  1  0
 27 66  1  0
 31 67  1  0
 31 68  1  0
 32 69  1  0
 32 70  1  0
 33 71  1  0
 33 72  1  0
 35 73  1  0
 36 74  1  0
 37 75  1  0
 38 76  1  0
 39 77  1  0
M  END
> <Uni-Dock RESULT> 
ENERGY=   -5.907  LOWER_BOUND=    0.000  UPPER_BOUND=    0.000
INTER + INTRA:          -5.907
INTER:                  -5.907
INTRA:                   0.000
UNBOUND:                 0.000

$$$$

     RDKit          3D

 77 79  0  0  0  0  0  0  0  0999 V2000
   45.0003   13.1068    8.0759 C   0  0  0  0  0  0  0  0  0  0  0  0
   44.6018   12.1950    7.0995 C   0  0  0  0  0  0  0  0  0  0  0  0
   44.0113   10.9883    7.4728 C   0  0  0  0  0  0  0  0  0  0  0  0
   43.8203   10.6920    8.8234 C   0  0  0  0  0  0  0  0  0  0  0  0
   44.2181   11.6008    9.8138 C   0  0  0  0  0  0  0  0  0  0  0  0
   44.8095   12.8120    9.4274 C   0  0  0  0  0  0  0  0  0  0  0  0
   44.0266   11.2694   11.2723 C   0  0  0  0  0  0  0  0  0  0  0  0
   45.0169   10.2261   11.7961 C   0  0  0  0  0  0  0  0  0  0  0  0
   46.4628   10.7194   11.7917 C   0  0  0  0  0  0  0  0  0  0  0  0
   47.3515    9.7352   12.5079 C   0  0  0  0  0  0  0  0  0  0  0  0
   47.4062    8.5387   12.2566 O   0  0  0  0  0  0  0  0  0  0  0  0
   48.0727   10.3647   13.4758 O   0  0  0  0  0  0  0  0  0  0  0  0
   48.8823    9.4809   14.2736 C   0  0  0  0  0  0  0  0  0  0  0  0
   49.5088   10.2893   15.4147 C   0  0  0  0  0  0  0  0  0  0  0  0
   50.5086    9.4410   16.2130 C   0  0  0  0  0  0  0  0  0  0  0  0
   49.8419    8.2647   16.7060 O   0  0  0  0  0  0  0  0  0  0  0  0
   50.5996    7.4733   17.5129 C   0  0  0  0  0  0  0  0  0  0  0  0
   51.7577    7.7025   17.8293 O   0  0  0  0  0  0  0  0  0  0  0  0
   49.7809    6.2935   17.9813 C   0  0  0  0  0  0  0  0  0  0  0  0
   50.6473    5.0988   18.3762 C   0  0  0  0  0  0  0  0  0  0  0  0
   51.3103    4.4449   17.1607 C   0  0  0  0  0  0  0  0  0  0  0  0
   52.1328    3.2423   17.5491 C   0  0  0  0  0  0  0  0  0  0  0  0
   52.3551    0.8420   17.8353 C   0  0  0  0  0  0  0  0  0  0  0  0
   51.5917    1.9521   17.4704 C   0  0  0  0  0  0  0  0  0  0  0  0
   53.4464    3.4027   18.0101 C   0  0  0  0  0  0  0  0  0  0  0  0
   54.2081    2.2917   18.3750 C   0  0  0  0  0  0  0  0  0  0  0  0
   53.6634    1.0116   18.2854 C   0  0  0  0  0  0  0  0  0  0  0  0
   48.4309   10.7087   16.2885 O   0  0  0  0  0  0  0  0  0  0  0  0
   48.6962   11.7741   17.0879 C   0  0  0  0  0  0  0  0  0  0  0  0
   49.7297   12.4278   17.0739 O   0  0  0  0  0  0  0  0  0  0  0  0
   47.5499   12.0212   18.0331 C   0  0  0  0  0  0  0  0  0  0  0  0
   47.4767   10.9465   19.1144 C   0  0  0  0  0  0  0  0  0  0  0  0
   48.6335   11.0475   20.1174 C   0  0  0  0  0  0  0  0  0  0  0  0
   48.6091    9.9164   21.1160 C   0  0  0  0  0  0  0  0  0  0  0  0
   47.6155    9.8600   22.1036 C   0  0  0  0  0  0  0  0  0  0  0  0
   47.5855    8.8068   23.0195 C   0  0  0  0  0  0  0  0  0  0  0  0
   48.5491    7.8012   22.9575 C   0  0  0  0  0  0  0  0  0  0  0  0
   49.5453    7.8492   21.9825 C   0  0  0  0  0  0  0  0  0  0  0  0
   49.5768    8.9029   21.0680 C   0  0  0  0  0  0  0  0  0  0  0  0
   45.4632   14.0474    7.7843 H   0  0  0  0  0  0  0  0  0  0  0  0
   44.7518   12.4238    6.0471 H   0  0  0  0  0  0  0  0  0  0  0  0
   43.7007   10.2759    6.7127 H   0  0  0  0  0  0  0  0  0  0  0  0
   43.3600    9.7452    9.0989 H   0  0  0  0  0  0  0  0  0  0  0  0
   45.1290   13.5334   10.1763 H   0  0  0  0  0  0  0  0  0  0  0  0
   43.0050   10.8940   11.4082 H   0  0  0  0  0  0  0  0  0  0  0  0
   44.0900   12.1809   11.8790 H   0  0  0  0  0  0  0  0  0  0  0  0
   44.7294    9.9618   12.8222 H   0  0  0  0  0  0  0  0  0  0  0  0
   44.9415    9.3007   11.2109 H   0  0  0  0  0  0  0  0  0  0  0  0
   46.8507   10.8427   10.7757 H   0  0  0  0  0  0  0  0  0  0  0  0
   46.5228   11.6937   12.2897 H   0  0  0  0  0  0  0  0  0  0  0  0
   49.6642    9.0495   13.6376 H   0  0  0  0  0  0  0  0  0  0  0  0
   48.2424    8.6856   14.6751 H   0  0  0  0  0  0  0  0  0  0  0  0
   49.9998   11.1757   14.9933 H   0  0  0  0  0  0  0  0  0  0  0  0
   51.3416    9.1372   15.5681 H   0  0  0  0  0  0  0  0  0  0  0  0
   50.8949   10.0100   17.0660 H   0  0  0  0  0  0  0  0  0  0  0  0
   49.1885    6.6251   18.8413 H   0  0  0  0  0  0  0  0  0  0  0  0
   49.0882    5.9952   17.1854 H   0  0  0  0  0  0  0  0  0  0  0  0
   50.0144    4.3612   18.8844 H   0  0  0  0  0  0  0  0  0  0  0  0
   51.4096    5.4063   19.1026 H   0  0  0  0  0  0  0  0  0  0  0  0
   51.9552    5.1605   16.6376 H   0  0  0  0  0  0  0  0  0  0  0  0
   50.5459    4.1449   16.4330 H   0  0  0  0  0  0  0  0  0  0  0  0
   51.9307   -0.1566   17.7660 H   0  0  0  0  0  0  0  0  0  0  0  0
   50.5731    1.8027   17.1209 H   0  0  0  0  0  0  0  0  0  0  0  0
   53.8834    4.3969   18.0846 H   0  0  0  0  0  0  0  0  0  0  0  0
   55.2278    2.4248   18.7277 H   0  0  0  0  0  0  0  0  0  0  0  0
   54.2590    0.1471   18.5660 H   0  0  0  0  0  0  0  0  0  0  0  0
   46.6232   12.0414   17.4474 H   0  0  0  0  0  0  0  0  0  0  0  0
   47.6641   13.0189   18.4742 H   0  0  0  0  0  0  0  0  0  0  0  0
   47.4702    9.9492   18.6548 H   0  0  0  0  0  0  0  0  0  0  0  0
   46.5213   11.0526   19.6433 H   0  0  0  0  0  0  0  0  0  0  0  0
   48.5852   12.0004   20.6587 H   0  0  0  0  0  0  0  0  0  0  0  0
   49.5950   11.0452   19.5887 H   0  0  0  0  0  0  0  0  0  0  0  0
   46.8596   10.6396   22.1672 H   0  0  0  0  0  0  0  0  0  0  0  0
   46.8120    8.7723   23.7844 H   0  0  0  0  0  0  0  0  0  0  0  0
   48.5268    6.9832   23.6735 H   0  0  0  0  0  0  0  0  0  0  0  0
   50.3023    7.0693   21.9396 H   0  0  0  0  0  0  0  0  0  0  0  0
   50.3677    8.9293   20.3218 H   0  0  0  0  0  0  0  0  0  0  0  0
  1  2  2  0
  1  6  1  0
  2  3  1  0
  3  4  2  0
  4  5  1  0
  5  6  2  0
  5  7  1  0
  7  8  1  0
  8  9  1  0
  9 10  1  0
 10 11  2  0
 10 12  1  0
 12 13  1  0
 13 14  1  0
 14 15  1  0
 15 16  1  0
 16 17  1  0
 17 18  2  0
 17 19  1  0
 19 20  1  0
 20 21  1  0
 21 22  1  0
 24 22  1  0
 22 25  2  0
 23 24  2  0
 23 27  1  0
 25 26  1  0
 26 27  2  0
 14 28  1  0
 28 29  1  0
 29 30  2  0
 29 31  1  0
 31 32  1  0
 32 33  1  0
 33 34  1  0
 39 34  1  0
 35 34  2  0
 35 36  1  0
 36 37  2  0
 37 38  1  0
 38 39  2  0
  1 40  1  0
  2 41  1  0
  3 42  1  0
  4 43  1  0
  6 44  1  0
  7 45  1  0
  7 46  1  0
  8 47  1  0
  8 48  1  0
  9 49  1  0
  9 50  1  0
 13 51  1  0
 13 52  1  0
 14 53  1  0
 15 54  1  0
 15 55  1  0
 19 56  1  0
 19 57  1  0
 20 58  1  0
 20 59  1  0
 21 60  1  0
 21 61  1  0
 23 62  1  0
 24 63  1  0
 25 64  1  0
 26 65  1  0
 27 66  1  0
 31 67  1  0
 31 68  1  0
 32 69  1  0
 32 70  1  0
 33 71  1  0
 33 72  1  0
 35 73  1  0
 36 74  1  0
 37 75  1  0
 38 76  1  0
 39 77  1  0
M  END
> <Uni-Dock RESULT> 
ENERGY=   -5.269  LOWER_BOUND=    0.476  UPPER_BOUND=    0.476
INTER + INTRA:          -5.269
INTER:                  -5.269
INTRA:                   0.000
UNBOUND:                 0.000

$$$$

     RDKit          3D

 77 79  0  0  0  0  0  0  0  0999 V2000
   56.7735    3.9275   22.9224 C   0  0  0  0  0  0  0  0  0  0  0  0
   55.8225    3.4988   23.8473 C   0  0  0  0  0  0  0  0  0  0  0  0
   54.7033    2.7874   23.4167 C   0  0  0  0  0  0  0  0  0  0  0  0
   54.5336    2.5054   22.0602 C   0  0  0  0  0  0  0  0  0  0  0  0
   55.4828    2.9324   21.1212 C   0  0  0  0  0  0  0  0  0  0  0  0
   56.6054    3.6458   21.5650 C   0  0  0  0  0  0  0  0  0  0  0  0
   55.2871    2.6417   19.6546 C   0  0  0  0  0  0  0  0  0  0  0  0
   54.2103    3.5101   18.9988 C   0  0  0  0  0  0  0  0  0  0  0  0
   54.5792    4.9921   18.9603 C   0  0  0  0  0  0  0  0  0  0  0  0
   53.5851    5.7551   18.1232 C   0  0  0  0  0  0  0  0  0  0  0  0
   52.3719    5.7171   18.2794 O   0  0  0  0  0  0  0  0  0  0  0  0
   54.2281    6.4806   17.1673 O   0  0  0  0  0  0  0  0  0  0  0  0
   53.3469    7.1698   16.2610 C   0  0  0  0  0  0  0  0  0  0  0  0
   54.1894    7.8082   15.1515 C   0  0  0  0  0  0  0  0  0  0  0  0
   53.3276    8.6897   14.2368 C   0  0  0  0  0  0  0  0  0  0  0  0
   52.2546    7.8992   13.6936 O   0  0  0  0  0  0  0  0  0  0  0  0
   51.4703    8.5444   12.7880 C   0  0  0  0  0  0  0  0  0  0  0  0
   51.6267    9.7013   12.4261 O   0  0  0  0  0  0  0  0  0  0  0  0
   50.4044    7.6036   12.2776 C   0  0  0  0  0  0  0  0  0  0  0  0
   49.1773    8.3418   11.7454 C   0  0  0  0  0  0  0  0  0  0  0  0
   48.3746    9.0036   12.8690 C   0  0  0  0  0  0  0  0  0  0  0  0
   47.1427    9.6977   12.3452 C   0  0  0  0  0  0  0  0  0  0  0  0
   44.7631    9.6947   11.8655 C   0  0  0  0  0  0  0  0  0  0  0  0
   45.9000    9.0501   12.3555 C   0  0  0  0  0  0  0  0  0  0  0  0
   47.2296   10.9961   11.8254 C   0  0  0  0  0  0  0  0  0  0  0  0
   46.0919   11.6389   11.3355 C   0  0  0  0  0  0  0  0  0  0  0  0
   44.8586   10.9892   11.3576 C   0  0  0  0  0  0  0  0  0  0  0  0
   54.7663    6.7297   14.3734 O   0  0  0  0  0  0  0  0  0  0  0  0
   55.8667    7.0479   13.6438 C   0  0  0  0  0  0  0  0  0  0  0  0
   56.4286    8.1342   13.6500 O   0  0  0  0  0  0  0  0  0  0  0  0
   56.2839    5.8829   12.7852 C   0  0  0  0  0  0  0  0  0  0  0  0
   55.3095    5.6631   11.6311 C   0  0  0  0  0  0  0  0  0  0  0  0
   55.3941    6.7739   10.5760 C   0  0  0  0  0  0  0  0  0  0  0  0
   54.3530    6.6018    9.4972 C   0  0  0  0  0  0  0  0  0  0  0  0
   54.4594    5.5601    8.5649 C   0  0  0  0  0  0  0  0  0  0  0  0
   53.4895    5.3934    7.5747 C   0  0  0  0  0  0  0  0  0  0  0  0
   52.4053    6.2670    7.5064 C   0  0  0  0  0  0  0  0  0  0  0  0
   52.2914    7.3100    8.4254 C   0  0  0  0  0  0  0  0  0  0  0  0
   53.2617    7.4783    9.4142 C   0  0  0  0  0  0  0  0  0  0  0  0
   57.6456    4.4846   23.2585 H   0  0  0  0  0  0  0  0  0  0  0  0
   55.9525    3.7195   24.9040 H   0  0  0  0  0  0  0  0  0  0  0  0
   53.9604    2.4531   24.1365 H   0  0  0  0  0  0  0  0  0  0  0  0
   53.6537    1.9511   21.7395 H   0  0  0  0  0  0  0  0  0  0  0  0
   57.3555    3.9903   20.8566 H   0  0  0  0  0  0  0  0  0  0  0  0
   55.0103    1.5857   19.5475 H   0  0  0  0  0  0  0  0  0  0  0  0
   56.2359    2.7549   19.1164 H   0  0  0  0  0  0  0  0  0  0  0  0
   54.0543    3.1508   17.9732 H   0  0  0  0  0  0  0  0  0  0  0  0
   53.2503    3.3826   19.5153 H   0  0  0  0  0  0  0  0  0  0  0  0
   54.5875    5.4384   19.9597 H   0  0  0  0  0  0  0  0  0  0  0  0
   55.5820    5.1127   18.5353 H   0  0  0  0  0  0  0  0  0  0  0  0
   52.8020    7.9409   16.8179 H   0  0  0  0  0  0  0  0  0  0  0  0
   52.6427    6.4438   15.8363 H   0  0  0  0  0  0  0  0  0  0  0  0
   54.9950    8.3948   15.6112 H   0  0  0  0  0  0  0  0  0  0  0  0
   52.9045    9.5234   14.8094 H   0  0  0  0  0  0  0  0  0  0  0  0
   53.9292    9.0822   13.4094 H   0  0  0  0  0  0  0  0  0  0  0  0
   50.8524    7.0013   11.4795 H   0  0  0  0  0  0  0  0  0  0  0  0
   50.1019    6.9272   13.0857 H   0  0  0  0  0  0  0  0  0  0  0  0
   48.5384    7.6227   11.2186 H   0  0  0  0  0  0  0  0  0  0  0  0
   49.4775    9.0917   11.0033 H   0  0  0  0  0  0  0  0  0  0  0  0
   48.9894    9.7334   13.4083 H   0  0  0  0  0  0  0  0  0  0  0  0
   48.0818    8.2523   13.6131 H   0  0  0  0  0  0  0  0  0  0  0  0
   43.8011    9.1883   11.8821 H   0  0  0  0  0  0  0  0  0  0  0  0
   45.8086    8.0407   12.7488 H   0  0  0  0  0  0  0  0  0  0  0  0
   48.1865   11.5144   11.8026 H   0  0  0  0  0  0  0  0  0  0  0  0
   46.1673   12.6479   10.9377 H   0  0  0  0  0  0  0  0  0  0  0  0
   43.9729   11.4925   10.9794 H   0  0  0  0  0  0  0  0  0  0  0  0
   56.3342    4.9912   13.4214 H   0  0  0  0  0  0  0  0  0  0  0  0
   57.3008    6.0623   12.4156 H   0  0  0  0  0  0  0  0  0  0  0  0
   54.2825    5.5918   12.0132 H   0  0  0  0  0  0  0  0  0  0  0  0
   55.5373    4.6960   11.1657 H   0  0  0  0  0  0  0  0  0  0  0  0
   56.3881    6.7829   10.1122 H   0  0  0  0  0  0  0  0  0  0  0  0
   55.2690    7.7562   11.0488 H   0  0  0  0  0  0  0  0  0  0  0  0
   55.3019    4.8731    8.6029 H   0  0  0  0  0  0  0  0  0  0  0  0
   53.5813    4.5833    6.8535 H   0  0  0  0  0  0  0  0  0  0  0  0
   51.6523    6.1383    6.7327 H   0  0  0  0  0  0  0  0  0  0  0  0
   51.4501    7.9970    8.3668 H   0  0  0  0  0  0  0  0  0  0  0  0
   53.1619    8.3039   10.1152 H   0  0  0  0  0  0  0  0  0  0  0  0
  1  2  2  0
  1  6  1  0
  2  3  1  0
  3  4  2  0
  4  5  1  0
  5  6  2  0
  5  7  1  0
  7  8  1  0
  8  9  1  0
  9 10  1  0
 10 11  2  0
 10 12  1  0
 12 13  1  0
 13 14  1  0
 14 15  1  0
 15 16  1  0
 16 17  1  0
 17 18  2  0
 17 19  1  0
 19 20  1  0
 20 21  1  0
 21 22  1  0
 24 22  1  0
 22 25  2  0
 23 24  2  0
 23 27  1  0
 25 26  1  0
 26 27  2  0
 14 28  1  0
 28 29  1  0
 29 30  2  0
 29 31  1  0
 31 32  1  0
 32 33  1  0
 33 34  1  0
 39 34  1  0
 35 34  2  0
 35 36  1  0
 36 37  2  0
 37 38  1  0
 38 39  2  0
  1 40  1  0
  2 41  1  0
  3 42  1  0
  4 43  1  0
  6 44  1  0
  7 45  1  0
  7 46  1  0
  8 47  1  0
  8 48  1  0
  9 49  1  0
  9 50  1  0
 13 51  1  0
 13 52  1  0
 14 53  1  0
 15 54  1  0
 15 55  1  0
 19 56  1  0
 19 57  1  0
 20 58  1  0
 20 59  1  0
 21 60  1  0
 21 61  1  0
 23 62  1  0
 24 63  1  0
 25 64  1  0
 26 65  1  0
 27 66  1  0
 31 67  1  0
 31 68  1  0
 32 69  1  0
 32 70  1  0
 33 71  1  0
 33 72  1  0
 35 73  1  0
 36 74  1  0
 37 75  1  0
 38 76  1  0
 39 77  1  0
M  END
> <Uni-Dock RESULT> 
ENERGY=   -5.025  LOWER_BOUND=    4.948  UPPER_BOUND=   12.906
INTER + INTRA:          -5.025
INTER:                  -5.025
INTRA:                   0.000
UNBOUND:                 0.000

$$$$

     RDKit          3D

 77 79  0  0  0  0  0  0  0  0999 V2000
   44.7354   13.1645    7.7822 C   0  0  0  0  0  0  0  0  0  0  0  0
   44.3286   12.1620    6.9028 C   0  0  0  0  0  0  0  0  0  0  0  0
   43.7874   10.9770    7.3997 C   0  0  0  0  0  0  0  0  0  0  0  0
   43.6539   10.7930    8.7769 C   0  0  0  0  0  0  0  0  0  0  0  0
   44.0606   11.7936    9.6705 C   0  0  0  0  0  0  0  0  0  0  0  0
   44.6021   12.9821    9.1603 C   0  0  0  0  0  0  0  0  0  0  0  0
   43.9316   11.5839   11.1582 C   0  0  0  0  0  0  0  0  0  0  0  0
   44.9701   10.6155   11.7302 C   0  0  0  0  0  0  0  0  0  0  0  0
   46.3999   11.1440   11.6284 C   0  0  0  0  0  0  0  0  0  0  0  0
   47.3422   10.2484   12.3909 C   0  0  0  0  0  0  0  0  0  0  0  0
   47.4226    9.0366   12.2402 O   0  0  0  0  0  0  0  0  0  0  0  0
   48.0792   10.9773   13.2734 O   0  0  0  0  0  0  0  0  0  0  0  0
   48.9425   10.1866   14.1116 C   0  0  0  0  0  0  0  0  0  0  0  0
   49.5859   11.1060   15.1551 C   0  0  0  0  0  0  0  0  0  0  0  0
   50.6382   10.3557   15.9835 C   0  0  0  0  0  0  0  0  0  0  0  0
   50.0242    9.2093   16.5998 O   0  0  0  0  0  0  0  0  0  0  0  0
   50.8333    8.5101   17.4413 C   0  0  0  0  0  0  0  0  0  0  0  0
   51.9948    8.7956   17.6924 O   0  0  0  0  0  0  0  0  0  0  0  0
   50.0667    7.3540   18.0393 C   0  0  0  0  0  0  0  0  0  0  0  0
   50.9813    6.2206   18.5007 C   0  0  0  0  0  0  0  0  0  0  0  0
   51.6188    5.4821   17.3205 C   0  0  0  0  0  0  0  0  0  0  0  0
   52.4894    4.3390   17.7777 C   0  0  0  0  0  0  0  0  0  0  0  0
   52.7918    1.9788   18.2580 C   0  0  0  0  0  0  0  0  0  0  0  0
   51.9836    3.0332   17.8298 C   0  0  0  0  0  0  0  0  0  0  0  0
   53.8135    4.5725   18.1727 C   0  0  0  0  0  0  0  0  0  0  0  0
   54.6200    3.5172   18.6010 C   0  0  0  0  0  0  0  0  0  0  0  0
   54.1099    2.2204   18.6414 C   0  0  0  0  0  0  0  0  0  0  0  0
   48.5284   11.5709   16.0309 O   0  0  0  0  0  0  0  0  0  0  0  0
   48.7912   12.7076   16.7261 C   0  0  0  0  0  0  0  0  0  0  0  0
   49.8041   13.3842   16.6169 O   0  0  0  0  0  0  0  0  0  0  0  0
   47.6731   13.0052   17.6903 C   0  0  0  0  0  0  0  0  0  0  0  0
   47.6702   12.0258   18.8610 C   0  0  0  0  0  0  0  0  0  0  0  0
   48.8591   12.2427   19.8066 C   0  0  0  0  0  0  0  0  0  0  0  0
   48.9037   11.2014   20.8978 C   0  0  0  0  0  0  0  0  0  0  0  0
   47.9484   11.2042   21.9241 C   0  0  0  0  0  0  0  0  0  0  0  0
   47.9822   10.2332   22.9265 C   0  0  0  0  0  0  0  0  0  0  0  0
   48.9718    9.2514   22.9132 C   0  0  0  0  0  0  0  0  0  0  0  0
   49.9304    9.2413   21.9001 C   0  0  0  0  0  0  0  0  0  0  0  0
   49.8982   10.2129   20.8988 C   0  0  0  0  0  0  0  0  0  0  0  0
   45.1598   14.0881    7.3942 H   0  0  0  0  0  0  0  0  0  0  0  0
   44.4339   12.3033    5.8299 H   0  0  0  0  0  0  0  0  0  0  0  0
   43.4704   10.1941    6.7153 H   0  0  0  0  0  0  0  0  0  0  0  0
   43.2317    9.8617    9.1493 H   0  0  0  0  0  0  0  0  0  0  0  0
   44.9272   13.7731    9.8323 H   0  0  0  0  0  0  0  0  0  0  0  0
   42.9268   11.1951   11.3646 H   0  0  0  0  0  0  0  0  0  0  0  0
   43.9902   12.5455   11.6824 H   0  0  0  0  0  0  0  0  0  0  0  0
   44.7277   10.4330   12.7854 H   0  0  0  0  0  0  0  0  0  0  0  0
   44.9007    9.6416   11.2291 H   0  0  0  0  0  0  0  0  0  0  0  0
   46.7471   11.1895   10.5914 H   0  0  0  0  0  0  0  0  0  0  0  0
   46.4494   12.1587   12.0392 H   0  0  0  0  0  0  0  0  0  0  0  0
   49.7131    9.7226   13.4850 H   0  0  0  0  0  0  0  0  0  0  0  0
   48.3409    9.4124   14.6036 H   0  0  0  0  0  0  0  0  0  0  0  0
   50.0353   11.9654   14.6413 H   0  0  0  0  0  0  0  0  0  0  0  0
   51.4558   10.0193   15.3352 H   0  0  0  0  0  0  0  0  0  0  0  0
   51.0382   11.0058   16.7696 H   0  0  0  0  0  0  0  0  0  0  0  0
   49.4963    7.7428   18.8902 H   0  0  0  0  0  0  0  0  0  0  0  0
   49.3547    6.9705   17.2989 H   0  0  0  0  0  0  0  0  0  0  0  0
   50.3888    5.5132   19.0936 H   0  0  0  0  0  0  0  0  0  0  0  0
   51.7600    6.6090   19.1685 H   0  0  0  0  0  0  0  0  0  0  0  0
   52.2233    6.1665   16.7141 H   0  0  0  0  0  0  0  0  0  0  0  0
   50.8376    5.1009   16.6508 H   0  0  0  0  0  0  0  0  0  0  0  0
   52.3944    0.9672   18.2901 H   0  0  0  0  0  0  0  0  0  0  0  0
   50.9579    2.8280   17.5336 H   0  0  0  0  0  0  0  0  0  0  0  0
   54.2238    5.5804   18.1456 H   0  0  0  0  0  0  0  0  0  0  0  0
   55.6474    3.7064   18.9017 H   0  0  0  0  0  0  0  0  0  0  0  0
   54.7402    1.3990   18.9714 H   0  0  0  0  0  0  0  0  0  0  0  0
   46.7256   12.9509   17.1410 H   0  0  0  0  0  0  0  0  0  0  0  0
   47.7740   14.0398   18.0403 H   0  0  0  0  0  0  0  0  0  0  0  0
   47.6763   10.9929   18.4883 H   0  0  0  0  0  0  0  0  0  0  0  0
   46.7319   12.1522   19.4153 H   0  0  0  0  0  0  0  0  0  0  0  0
   48.8026   13.2370   20.2664 H   0  0  0  0  0  0  0  0  0  0  0  0
   49.8005   12.2199   19.2434 H   0  0  0  0  0  0  0  0  0  0  0  0
   47.1729   11.9665   21.9502 H   0  0  0  0  0  0  0  0  0  0  0  0
   47.2381   10.2445   23.7208 H   0  0  0  0  0  0  0  0  0  0  0  0
   48.9992    8.4976   23.6964 H   0  0  0  0  0  0  0  0  0  0  0  0
   50.7077    8.4805   21.8945 H   0  0  0  0  0  0  0  0  0  0  0  0
   50.6605   10.1956   20.1233 H   0  0  0  0  0  0  0  0  0  0  0  0
  1  2  2  0
  1  6  1  0
  2  3  1  0
  3  4  2  0
  4  5  1  0
  5  6  2  0
  5  7  1  0
  7  8  1  0
  8  9  1  0
  9 10  1  0
 10 11  2  0
 10 12  1  0
 12 13  1  0
 13 14  1  0
 14 15  1  0
 15 16  1  0
 16 17  1  0
 17 18  2  0
 17 19  1  0
 19 20  1  0
 20 21  1  0
 21 22  1  0
 24 22  1  0
 22 25  2  0
 23 24  2  0
 23 27  1  0
 25 26  1  0
 26 27  2  0
 14 28  1  0
 28 29  1  0
 29 30  2  0
 29 31  1  0
 31 32  1  0
 32 33  1  0
 33 34  1  0
 39 34  1  0
 35 34  2  0
 35 36  1  0
 36 37  2  0
 37 38  1  0
 38 39  2  0
  1 40  1  0
  2 41  1  0
  3 42  1  0
  4 43  1  0
  6 44  1  0
  7 45  1  0
  7 46  1  0
  8 47  1  0
  8 48  1  0
  9 49  1  0
  9 50  1  0
 13 51  1  0
 13 52  1  0
 14 53  1  0
 15 54  1  0
 15 55  1  0
 19 56  1  0
 19 57  1  0
 20 58  1  0
 20 59  1  0
 21 60  1  0
 21 61  1  0
 23 62  1  0
 24 63  1  0
 25 64  1  0
 26 65  1  0
 27 66  1  0
 31 67  1  0
 31 68  1  0
 32 69  1  0
 32 70  1  0
 33 71  1  0
 33 72  1  0
 35 73  1  0
 36 74  1  0
 37 75  1  0
 38 76  1  0
 39 77  1  0
M  END
> <Uni-Dock RESULT> 
ENERGY=   -4.948  LOWER_BOUND=    1.230  UPPER_BOUND=    1.425
INTER + INTRA:          -4.948
INTER:                  -4.948
INTRA:                   0.000
UNBOUND:                 0.000

$$$$

     RDKit          3D

 77 79  0  0  0  0  0  0  0  0999 V2000
   51.2151   11.4320   23.5271 C   0  0  0  0  0  0  0  0  0  0  0  0
   50.6566   12.5642   24.1183 C   0  0  0  0  0  0  0  0  0  0  0  0
   49.2813   12.7817   24.0453 C   0  0  0  0  0  0  0  0  0  0  0  0
   48.4635   11.8673   23.3795 C   0  0  0  0  0  0  0  0  0  0  0  0
   49.0142   10.7258   22.7803 C   0  0  0  0  0  0  0  0  0  0  0  0
   50.3982   10.5160   22.8610 C   0  0  0  0  0  0  0  0  0  0  0  0
   48.1299    9.7495   22.0464 C   0  0  0  0  0  0  0  0  0  0  0  0
   47.6510   10.2635   20.6862 C   0  0  0  0  0  0  0  0  0  0  0  0
   48.7879   10.4461   19.6822 C   0  0  0  0  0  0  0  0  0  0  0  0
   48.2319   10.7483   18.3144 C   0  0  0  0  0  0  0  0  0  0  0  0
   47.4274   11.6384   18.0732 O   0  0  0  0  0  0  0  0  0  0  0  0
   48.7437    9.8862   17.3935 O   0  0  0  0  0  0  0  0  0  0  0  0
   48.1944   10.0442   16.0720 C   0  0  0  0  0  0  0  0  0  0  0  0
   48.7323    8.9187   15.1818 C   0  0  0  0  0  0  0  0  0  0  0  0
   48.3094    9.1167   13.7194 C   0  0  0  0  0  0  0  0  0  0  0  0
   46.8745    9.2018   13.6503 O   0  0  0  0  0  0  0  0  0  0  0  0
   46.3662    9.2837   12.3907 C   0  0  0  0  0  0  0  0  0  0  0  0
   47.0328    9.2824   11.3663 O   0  0  0  0  0  0  0  0  0  0  0  0
   44.8581    9.3411   12.4542 C   0  0  0  0  0  0  0  0  0  0  0  0
   44.2443    9.9995   11.2198 C   0  0  0  0  0  0  0  0  0  0  0  0
   44.5255   11.5040   11.1730 C   0  0  0  0  0  0  0  0  0  0  0  0
   43.8850   12.1578    9.9747 C   0  0  0  0  0  0  0  0  0  0  0  0
   42.0434   13.3808    8.9721 C   0  0  0  0  0  0  0  0  0  0  0  0
   42.6347   12.7808   10.0850 C   0  0  0  0  0  0  0  0  0  0  0  0
   44.5272   12.1357    8.7294 C   0  0  0  0  0  0  0  0  0  0  0  0
   43.9343   12.7357    7.6176 C   0  0  0  0  0  0  0  0  0  0  0  0
   42.6938   13.3601    7.7395 C   0  0  0  0  0  0  0  0  0  0  0  0
   48.1773    7.6745   15.6772 O   0  0  0  0  0  0  0  0  0  0  0  0
   48.8490    6.5462   15.3306 C   0  0  0  0  0  0  0  0  0  0  0  0
   49.8982    6.5133   14.7030 O   0  0  0  0  0  0  0  0  0  0  0  0
   48.0994    5.3245   15.7930 C   0  0  0  0  0  0  0  0  0  0  0  0
   46.8393    5.0954   14.9627 C   0  0  0  0  0  0  0  0  0  0  0  0
   47.1575    4.6469   13.5301 C   0  0  0  0  0  0  0  0  0  0  0  0
   45.9094    4.5282   12.6904 C   0  0  0  0  0  0  0  0  0  0  0  0
   44.9896    3.4961   12.9241 C   0  0  0  0  0  0  0  0  0  0  0  0
   43.8287    3.3938   12.1555 C   0  0  0  0  0  0  0  0  0  0  0  0
   43.5771    4.3211   11.1454 C   0  0  0  0  0  0  0  0  0  0  0  0
   44.4872    5.3493   10.9005 C   0  0  0  0  0  0  0  0  0  0  0  0
   45.6488    5.4509   11.6673 C   0  0  0  0  0  0  0  0  0  0  0  0
   52.2887   11.2637   23.5822 H   0  0  0  0  0  0  0  0  0  0  0  0
   51.2929   13.2784   24.6356 H   0  0  0  0  0  0  0  0  0  0  0  0
   48.8444   13.6645   24.5052 H   0  0  0  0  0  0  0  0  0  0  0  0
   47.3923   12.0520   23.3292 H   0  0  0  0  0  0  0  0  0  0  0  0
   50.8507    9.6394   22.4027 H   0  0  0  0  0  0  0  0  0  0  0  0
   47.2577    9.5353   22.6761 H   0  0  0  0  0  0  0  0  0  0  0  0
   48.6472    8.7906   21.9212 H   0  0  0  0  0  0  0  0  0  0  0  0
   46.9251    9.5458   20.2820 H   0  0  0  0  0  0  0  0  0  0  0  0
   47.1089   11.2103   20.8053 H   0  0  0  0  0  0  0  0  0  0  0  0
   49.4536   11.2686   19.9621 H   0  0  0  0  0  0  0  0  0  0  0  0
   49.3913    9.5325   19.6364 H   0  0  0  0  0  0  0  0  0  0  0  0
   48.4996   11.0208   15.6783 H   0  0  0  0  0  0  0  0  0  0  0  0
   47.1009    9.9898   16.1378 H   0  0  0  0  0  0  0  0  0  0  0  0
   49.8258    8.8887   15.2703 H   0  0  0  0  0  0  0  0  0  0  0  0
   48.7430   10.0436   13.3259 H   0  0  0  0  0  0  0  0  0  0  0  0
   48.6415    8.2694   13.1091 H   0  0  0  0  0  0  0  0  0  0  0  0
   44.4936    8.3121   12.5482 H   0  0  0  0  0  0  0  0  0  0  0  0
   44.5546    9.8931   13.3517 H   0  0  0  0  0  0  0  0  0  0  0  0
   43.1603    9.8338   11.2382 H   0  0  0  0  0  0  0  0  0  0  0  0
   44.6163    9.5170   10.3076 H   0  0  0  0  0  0  0  0  0  0  0  0
   45.6042   11.6973   11.1470 H   0  0  0  0  0  0  0  0  0  0  0  0
   44.1586   11.9825   12.0897 H   0  0  0  0  0  0  0  0  0  0  0  0
   41.0757   13.8676    9.0665 H   0  0  0  0  0  0  0  0  0  0  0  0
   42.1146   12.8061   11.0394 H   0  0  0  0  0  0  0  0  0  0  0  0
   45.4961   11.6516    8.6210 H   0  0  0  0  0  0  0  0  0  0  0  0
   44.4413   12.7177    6.6560 H   0  0  0  0  0  0  0  0  0  0  0  0
   42.2352   13.8304    6.8739 H   0  0  0  0  0  0  0  0  0  0  0  0
   47.8437    5.4612   16.8505 H   0  0  0  0  0  0  0  0  0  0  0  0
   48.7698    4.4579   15.7418 H   0  0  0  0  0  0  0  0  0  0  0  0
   46.2322    6.0101   14.9388 H   0  0  0  0  0  0  0  0  0  0  0  0
   46.2313    4.3301   15.4609 H   0  0  0  0  0  0  0  0  0  0  0  0
   47.6722    3.6783   13.5405 H   0  0  0  0  0  0  0  0  0  0  0  0
   47.8489    5.3549   13.0560 H   0  0  0  0  0  0  0  0  0  0  0  0
   45.1743    2.7625   13.7057 H   0  0  0  0  0  0  0  0  0  0  0  0
   43.1214    2.5879   12.3422 H   0  0  0  0  0  0  0  0  0  0  0  0
   42.6743    4.2385   10.5452 H   0  0  0  0  0  0  0  0  0  0  0  0
   44.2953    6.0678   10.1067 H   0  0  0  0  0  0  0  0  0  0  0  0
   46.3521    6.2527   11.4544 H   0  0  0  0  0  0  0  0  0  0  0  0
  1  2  2  0
  1  6  1  0
  2  3  1  0
  3  4  2  0
  4  5  1  0
  5  6  2  0
  5  7  1  0
  7  8  1  0
  8  9  1  0
  9 10  1  0
 10 11  2  0
 10 12  1  0
 12 13  1  0
 13 14  1  0
 14 15  1  0
 15 16  1  0
 16 17  1  0
 17 18  2  0
 17 19  1  0
 19 20  1  0
 20 21  1  0
 21 22  1  0
 24 22  1  0
 22 25  2  0
 23 24  2  0
 23 27  1  0
 25 26  1  0
 26 27  2  0
 14 28  1  0
 28 29  1  0
 29 30  2  0
 29 31  1  0
 31 32  1  0
 32 33  1  0
 33 34  1  0
 39 34  1  0
 35 34  2  0
 35 36  1  0
 36 37  2  0
 37 38  1  0
 38 39  2  0
  1 40  1  0
  2 41  1  0
  3 42  1  0
  4 43  1  0
  6 44  1  0
  7 45  1  0
  7 46  1  0
  8 47  1  0
  8 48  1  0
  9 49  1  0
  9 50  1  0
 13 51  1  0
 13 52  1  0
 14 53  1  0
 15 54  1  0
 15 55  1  0
 19 56  1  0
 19 57  1  0
 20 58  1  0
 20 59  1  0
 21 60  1  0
 21 61  1  0
 23 62  1  0
 24 63  1  0
 25 64  1  0
 26 65  1  0
 27 66  1  0
 31 67  1  0
 31 68  1  0
 32 69  1  0
 32 70  1  0
 33 71  1  0
 33 72  1  0
 35 73  1  0
 36 74  1  0
 37 75  1  0
 38 76  1  0
 39 77  1  0
M  END
> <Uni-Dock RESULT> 
ENERGY=   -4.733  LOWER_BOUND=    3.111  UPPER_BOUND=   11.590
INTER + INTRA:          -4.733
INTER:                  -4.733
INTRA:                   0.000
UNBOUND:                 0.000

$$$$

     RDKit          3D

 77 79  0  0  0  0  0  0  0  0999 V2000
   56.0394    6.2202   12.3733 C   0  0  0  0  0  0  0  0  0  0  0  0
   55.8020    4.8534   12.2358 C   0  0  0  0  0  0  0  0  0  0  0  0
   54.9235    4.3941   11.2552 C   0  0  0  0  0  0  0  0  0  0  0  0
   54.2806    5.3019   10.4122 C   0  0  0  0  0  0  0  0  0  0  0  0
   54.5108    6.6786   10.5420 C   0  0  0  0  0  0  0  0  0  0  0  0
   55.3972    7.1297   11.5303 C   0  0  0  0  0  0  0  0  0  0  0  0
   53.8006    7.6574    9.6413 C   0  0  0  0  0  0  0  0  0  0  0  0
   52.3221    7.8460    9.9906 C   0  0  0  0  0  0  0  0  0  0  0  0
   52.1088    8.4931   11.3579 C   0  0  0  0  0  0  0  0  0  0  0  0
   50.6548    8.8405   11.5491 C   0  0  0  0  0  0  0  0  0  0  0  0
   49.7283    8.0544   11.4036 O   0  0  0  0  0  0  0  0  0  0  0  0
   50.5219   10.1505   11.8951 O   0  0  0  0  0  0  0  0  0  0  0  0
   49.1562   10.5926   12.0075 C   0  0  0  0  0  0  0  0  0  0  0  0
   49.1510   12.1072   12.2404 C   0  0  0  0  0  0  0  0  0  0  0  0
   47.7326   12.6208   12.5248 C   0  0  0  0  0  0  0  0  0  0  0  0
   46.8698   12.2535   11.4331 O   0  0  0  0  0  0  0  0  0  0  0  0
   45.6000   12.7346   11.5205 C   0  0  0  0  0  0  0  0  0  0  0  0
   45.1779   13.4330   12.4304 O   0  0  0  0  0  0  0  0  0  0  0  0
   44.8086   12.3027   10.3085 C   0  0  0  0  0  0  0  0  0  0  0  0
   43.3037   12.2756   10.5706 C   0  0  0  0  0  0  0  0  0  0  0  0
   42.9071   11.1382   11.5160 C   0  0  0  0  0  0  0  0  0  0  0  0
   41.4169   11.0893   11.7413 C   0  0  0  0  0  0  0  0  0  0  0  0
   39.2289   10.1926   11.1926 C   0  0  0  0  0  0  0  0  0  0  0  0
   40.6084   10.2312   10.9838 C   0  0  0  0  0  0  0  0  0  0  0  0
   40.8194   11.9158   12.7024 C   0  0  0  0  0  0  0  0  0  0  0  0
   39.4399   11.8762   12.9094 C   0  0  0  0  0  0  0  0  0  0  0  0
   38.6452   11.0131   12.1563 C   0  0  0  0  0  0  0  0  0  0  0  0
   49.6536   12.7311   11.0323 O   0  0  0  0  0  0  0  0  0  0  0  0
   50.1387   13.9917   11.1737 C   0  0  0  0  0  0  0  0  0  0  0  0
   50.2398   14.5950   12.2327 O   0  0  0  0  0  0  0  0  0  0  0  0
   50.5025   14.5693    9.8312 C   0  0  0  0  0  0  0  0  0  0  0  0
   49.2589   14.9018    9.0112 C   0  0  0  0  0  0  0  0  0  0  0  0
   48.4873   16.0998    9.5804 C   0  0  0  0  0  0  0  0  0  0  0  0
   47.2052   16.3501    8.8250 C   0  0  0  0  0  0  0  0  0  0  0  0
   47.2363   16.8543    7.5171 C   0  0  0  0  0  0  0  0  0  0  0  0
   46.0506   17.0738    6.8137 C   0  0  0  0  0  0  0  0  0  0  0  0
   44.8229   16.7928    7.4114 C   0  0  0  0  0  0  0  0  0  0  0  0
   44.7792   16.2955    8.7138 C   0  0  0  0  0  0  0  0  0  0  0  0
   45.9642   16.0777    9.4181 C   0  0  0  0  0  0  0  0  0  0  0  0
   56.7232    6.5785   13.1401 H   0  0  0  0  0  0  0  0  0  0  0  0
   56.3007    4.1453   12.8933 H   0  0  0  0  0  0  0  0  0  0  0  0
   54.7368    3.3286   11.1473 H   0  0  0  0  0  0  0  0  0  0  0  0
   53.5961    4.9281    9.6532 H   0  0  0  0  0  0  0  0  0  0  0  0
   55.5916    8.1929   11.6532 H   0  0  0  0  0  0  0  0  0  0  0  0
   53.8818    7.2958    8.6089 H   0  0  0  0  0  0  0  0  0  0  0  0
   54.3136    8.6267    9.6566 H   0  0  0  0  0  0  0  0  0  0  0  0
   51.8625    8.4763    9.2180 H   0  0  0  0  0  0  0  0  0  0  0  0
   51.7951    6.8841    9.9518 H   0  0  0  0  0  0  0  0  0  0  0  0
   52.4045    7.8290   12.1762 H   0  0  0  0  0  0  0  0  0  0  0  0
   52.7140    9.4034   11.4348 H   0  0  0  0  0  0  0  0  0  0  0  0
   48.6871   10.0751   12.8524 H   0  0  0  0  0  0  0  0  0  0  0  0
   48.6303   10.3473   11.0767 H   0  0  0  0  0  0  0  0  0  0  0  0
   49.8239   12.3398   13.0756 H   0  0  0  0  0  0  0  0  0  0  0  0
   47.3503   12.1737   13.4500 H   0  0  0  0  0  0  0  0  0  0  0  0
   47.7348   13.7124   12.6196 H   0  0  0  0  0  0  0  0  0  0  0  0
   45.0337   13.0077    9.5005 H   0  0  0  0  0  0  0  0  0  0  0  0
   45.1427   11.3068    9.9944 H   0  0  0  0  0  0  0  0  0  0  0  0
   42.7847   12.1484    9.6128 H   0  0  0  0  0  0  0  0  0  0  0  0
   42.9718   13.2384   10.9778 H   0  0  0  0  0  0  0  0  0  0  0  0
   43.4079   11.2455   12.4851 H   0  0  0  0  0  0  0  0  0  0  0  0
   43.2466   10.1772   11.1094 H   0  0  0  0  0  0  0  0  0  0  0  0
   38.6085    9.5199   10.6053 H   0  0  0  0  0  0  0  0  0  0  0  0
   41.0483    9.5845   10.2287 H   0  0  0  0  0  0  0  0  0  0  0  0
   41.4288   12.5940   13.2970 H   0  0  0  0  0  0  0  0  0  0  0  0
   38.9849   12.5178   13.6600 H   0  0  0  0  0  0  0  0  0  0  0  0
   37.5716   10.9804   12.3214 H   0  0  0  0  0  0  0  0  0  0  0  0
   51.1272   13.8387    9.3036 H   0  0  0  0  0  0  0  0  0  0  0  0
   51.1240   15.4597    9.9860 H   0  0  0  0  0  0  0  0  0  0  0  0
   48.5979   14.0266    8.9572 H   0  0  0  0  0  0  0  0  0  0  0  0
   49.5713   15.1210    7.9826 H   0  0  0  0  0  0  0  0  0  0  0  0
   49.1060   17.0046    9.5397 H   0  0  0  0  0  0  0  0  0  0  0  0
   48.2582   15.9340   10.6407 H   0  0  0  0  0  0  0  0  0  0  0  0
   48.1864   17.0824    7.0390 H   0  0  0  0  0  0  0  0  0  0  0  0
   46.0841   17.4678    5.7996 H   0  0  0  0  0  0  0  0  0  0  0  0
   43.8999   16.9674    6.8639 H   0  0  0  0  0  0  0  0  0  0  0  0
   43.8211   16.0844    9.1835 H   0  0  0  0  0  0  0  0  0  0  0  0
   45.9098   15.6999   10.4366 H   0  0  0  0  0  0  0  0  0  0  0  0
  1  2  2  0
  1  6  1  0
  2  3  1  0
  3  4  2  0
  4  5  1  0
  5  6  2  0
  5  7  1  0
  7  8  1  0
  8  9  1  0
  9 10  1  0
 10 11  2  0
 10 12  1  0
 12 13  1  0
 13 14  1  0
 14 15  1  0
 15 16  1  0
 16 17  1  0
 17 18  2  0
 17 19  1  0
 19 20  1  0
 20 21  1  0
 21 22  1  0
 24 22  1  0
 22 25  2  0
 23 24  2  0
 23 27  1  0
 25 26  1  0
 26 27  2  0
 14 28  1  0
 28 29  1  0
 29 30  2  0
 29 31  1  0
 31 32  1  0
 32 33  1  0
 33 34  1  0
 39 34  1  0
 35 34  2  0
 35 36  1  0
 36 37  2  0
 37 38  1  0
 38 39  2  0
  1 40  1  0
  2 41  1  0
  3 42  1  0
  4 43  1  0
  6 44  1  0
  7 45  1  0
  7 46  1  0
  8 47  1  0
  8 48  1  0
  9 49  1  0
  9 50  1  0
 13 51  1  0
 13 52  1  0
 14 53  1  0
 15 54  1  0
 15 55  1  0
 19 56  1  0
 19 57  1  0
 20 58  1  0
 20 59  1  0
 21 60  1  0
 21 61  1  0
 23 62  1  0
 24 63  1  0
 25 64  1  0
 26 65  1  0
 27 66  1  0
 31 67  1  0
 31 68  1  0
 32 69  1  0
 32 70  1  0
 33 71  1  0
 33 72  1  0
 35 73  1  0
 36 74  1  0
 37 75  1  0
 38 76  1  0
 39 77  1  0
M  END
> <Uni-Dock RESULT> 
ENERGY=   -4.709  LOWER_BOUND=    6.491  UPPER_BOUND=   12.294
INTER + INTRA:          -4.709
INTER:                  -4.709
INTRA:                   0.000
UNBOUND:                 0.000

$$$$

     RDKit          3D

 77 79  0  0  0  0  0  0  0  0999 V2000
   44.7002    3.3105    9.3555 C   0  0  0  0  0  0  0  0  0  0  0  0
   44.4374    2.3217   10.3025 C   0  0  0  0  0  0  0  0  0  0  0  0
   43.7820    2.6498   11.4887 C   0  0  0  0  0  0  0  0  0  0  0  0
   43.3901    3.9676   11.7293 C   0  0  0  0  0  0  0  0  0  0  0  0
   43.6501    4.9703   10.7847 C   0  0  0  0  0  0  0  0  0  0  0  0
   44.3084    4.6294    9.5946 C   0  0  0  0  0  0  0  0  0  0  0  0
   43.2413    6.3962   11.0560 C   0  0  0  0  0  0  0  0  0  0  0  0
   44.1294    7.1002   12.0853 C   0  0  0  0  0  0  0  0  0  0  0  0
   45.5667    7.2905   11.6039 C   0  0  0  0  0  0  0  0  0  0  0  0
   46.3267    8.1673   12.5656 C   0  0  0  0  0  0  0  0  0  0  0  0
   46.4015    7.9730   13.7716 O   0  0  0  0  0  0  0  0  0  0  0  0
   46.9060    9.2063   11.9036 O   0  0  0  0  0  0  0  0  0  0  0  0
   47.5771   10.1482   12.7612 C   0  0  0  0  0  0  0  0  0  0  0  0
   48.0397   11.3376   11.9127 C   0  0  0  0  0  0  0  0  0  0  0  0
   48.8993   12.3067   12.7363 C   0  0  0  0  0  0  0  0  0  0  0  0
   48.1513   12.7406   13.8866 O   0  0  0  0  0  0  0  0  0  0  0  0
   48.7710   13.6803   14.6510 C   0  0  0  0  0  0  0  0  0  0  0  0
   49.8729   14.1553   14.4184 O   0  0  0  0  0  0  0  0  0  0  0  0
   47.8762   14.0675   15.8047 C   0  0  0  0  0  0  0  0  0  0  0  0
   48.6586   14.6317   16.9894 C   0  0  0  0  0  0  0  0  0  0  0  0
   49.4845   13.5534   17.6966 C   0  0  0  0  0  0  0  0  0  0  0  0
   50.2243   14.1049   18.8891 C   0  0  0  0  0  0  0  0  0  0  0  0
   50.3693   14.5128   21.2777 C   0  0  0  0  0  0  0  0  0  0  0  0
   49.6831   13.9967   20.1772 C   0  0  0  0  0  0  0  0  0  0  0  0
   51.4577   14.7485   18.7206 C   0  0  0  0  0  0  0  0  0  0  0  0
   52.1422   15.2642   19.8221 C   0  0  0  0  0  0  0  0  0  0  0  0
   51.5992   15.1443   21.1005 C   0  0  0  0  0  0  0  0  0  0  0  0
   46.8506   12.0257   11.4503 O   0  0  0  0  0  0  0  0  0  0  0  0
   47.0097   12.8141   10.3559 C   0  0  0  0  0  0  0  0  0  0  0  0
   48.0429   12.9278    9.7114 O   0  0  0  0  0  0  0  0  0  0  0  0
   45.7402   13.5694   10.0623 C   0  0  0  0  0  0  0  0  0  0  0  0
   45.4938   14.6685   11.0923 C   0  0  0  0  0  0  0  0  0  0  0  0
   46.4916   15.8268   10.9603 C   0  0  0  0  0  0  0  0  0  0  0  0
   46.3049   16.8534   12.0504 C   0  0  0  0  0  0  0  0  0  0  0  0
   45.1760   17.6848   12.0595 C   0  0  0  0  0  0  0  0  0  0  0  0
   44.9971   18.6259   13.0751 C   0  0  0  0  0  0  0  0  0  0  0  0
   45.9455   18.7457   14.0898 C   0  0  0  0  0  0  0  0  0  0  0  0
   47.0750   17.9274   14.0886 C   0  0  0  0  0  0  0  0  0  0  0  0
   47.2553   16.9878   13.0726 C   0  0  0  0  0  0  0  0  0  0  0  0
   45.2137    3.0547    8.4311 H   0  0  0  0  0  0  0  0  0  0  0  0
   44.7440    1.2951   10.1172 H   0  0  0  0  0  0  0  0  0  0  0  0
   43.5771    1.8800   12.2284 H   0  0  0  0  0  0  0  0  0  0  0  0
   42.8814    4.2083   12.6607 H   0  0  0  0  0  0  0  0  0  0  0  0
   44.5239    5.3890    8.8464 H   0  0  0  0  0  0  0  0  0  0  0  0
   42.2058    6.3940   11.4178 H   0  0  0  0  0  0  0  0  0  0  0  0
   43.2271    6.9702   10.1216 H   0  0  0  0  0  0  0  0  0  0  0  0
   43.6903    8.0819   12.3062 H   0  0  0  0  0  0  0  0  0  0  0  0
   44.1284    6.5462   13.0327 H   0  0  0  0  0  0  0  0  0  0  0  0
   46.1016    6.3389   11.5244 H   0  0  0  0  0  0  0  0  0  0  0  0
   45.5659    7.7541   10.6110 H   0  0  0  0  0  0  0  0  0  0  0  0
   48.4382    9.6518   13.2237 H   0  0  0  0  0  0  0  0  0  0  0  0
   46.8742   10.4811   13.5347 H   0  0  0  0  0  0  0  0  0  0  0  0
   48.5994   10.9595   11.0477 H   0  0  0  0  0  0  0  0  0  0  0  0
   49.8140   11.8041   13.0721 H   0  0  0  0  0  0  0  0  0  0  0  0
   49.1635   13.1849   12.1366 H   0  0  0  0  0  0  0  0  0  0  0  0
   47.1682   14.8172   15.4345 H   0  0  0  0  0  0  0  0  0  0  0  0
   47.3043   13.1901   16.1292 H   0  0  0  0  0  0  0  0  0  0  0  0
   47.9478   15.0687   17.7012 H   0  0  0  0  0  0  0  0  0  0  0  0
   49.3097   15.4503   16.6592 H   0  0  0  0  0  0  0  0  0  0  0  0
   50.2091   13.1043   17.0075 H   0  0  0  0  0  0  0  0  0  0  0  0
   48.8316   12.7328   18.0195 H   0  0  0  0  0  0  0  0  0  0  0  0
   49.9461   14.4199   22.2749 H   0  0  0  0  0  0  0  0  0  0  0  0
   48.7253   13.5065   20.3324 H   0  0  0  0  0  0  0  0  0  0  0  0
   51.8925   14.8484   17.7277 H   0  0  0  0  0  0  0  0  0  0  0  0
   53.1005   15.7583   19.6830 H   0  0  0  0  0  0  0  0  0  0  0  0
   52.1352   15.5428   21.9577 H   0  0  0  0  0  0  0  0  0  0  0  0
   44.9102   12.8529   10.0582 H   0  0  0  0  0  0  0  0  0  0  0  0
   45.8018   13.9839    9.0486 H   0  0  0  0  0  0  0  0  0  0  0  0
   45.5416   14.2515   12.1071 H   0  0  0  0  0  0  0  0  0  0  0  0
   44.4725   15.0460   10.9577 H   0  0  0  0  0  0  0  0  0  0  0  0
   46.3771   16.3180    9.9863 H   0  0  0  0  0  0  0  0  0  0  0  0
   47.5203   15.4463   10.9913 H   0  0  0  0  0  0  0  0  0  0  0  0
   44.4297   17.6061   11.2722 H   0  0  0  0  0  0  0  0  0  0  0  0
   44.1190   19.2690   13.0729 H   0  0  0  0  0  0  0  0  0  0  0  0
   45.8068   19.4813   14.8784 H   0  0  0  0  0  0  0  0  0  0  0  0
   47.8194   18.0267   14.8755 H   0  0  0  0  0  0  0  0  0  0  0  0
   48.1477   16.3661   13.0822 H   0  0  0  0  0  0  0  0  0  0  0  0
  1  2  2  0
  1  6  1  0
  2  3  1  0
  3  4  2  0
  4  5  1  0
  5  6  2  0
  5  7  1  0
  7  8  1  0
  8  9  1  0
  9 10  1  0
 10 11  2  0
 10 12  1  0
 12 13  1  0
 13 14  1  0
 14 15  1  0
 15 16  1  0
 16 17  1  0
 17 18  2  0
 17 19  1  0
 19 20  1  0
 20 21  1  0
 21 22  1  0
 24 22  1  0
 22 25  2  0
 23 24  2  0
 23 27  1  0
 25 26  1  0
 26 27  2  0
 14 28  1  0
 28 29  1  0
 29 30  2  0
 29 31  1  0
 31 32  1  0
 32 33  1  0
 33 34  1  0
 39 34  1  0
 35 34  2  0
 35 36  1  0
 36 37  2  0
 37 38  1  0
 38 39  2  0
  1 40  1  0
  2 41  1  0
  3 42  1  0
  4 43  1  0
  6 44  1  0
  7 45  1  0
  7 46  1  0
  8 47  1  0
  8 48  1  0
  9 49  1  0
  9 50  1  0
 13 51  1  0
 13 52  1  0
 14 53  1  0
 15 54  1  0
 15 55  1  0
 19 56  1  0
 19 57  1  0
 20 58  1  0
 20 59  1  0
 21 60  1  0
 21 61  1  0
 23 62  1  0
 24 63  1  0
 25 64  1  0
 26 65  1  0
 27 66  1  0
 31 67  1  0
 31 68  1  0
 32 69  1  0
 32 70  1  0
 33 71  1  0
 33 72  1  0
 35 73  1  0
 36 74  1  0
 37 75  1  0
 38 76  1  0
 39 77  1  0
M  END
> <Uni-Dock RESULT> 
ENERGY=   -4.659  LOWER_BOUND=    5.960  UPPER_BOUND=    9.523
INTER + INTRA:          -4.659
INTER:                  -4.659
INTRA:                   0.000
UNBOUND:                 0.000

$$$$

     RDKit          3D

 77 79  0  0  0  0  0  0  0  0999 V2000
   45.2537    4.1579    8.6497 C   0  0  0  0  0  0  0  0  0  0  0  0
   44.6737    2.9314    8.9699 C   0  0  0  0  0  0  0  0  0  0  0  0
   44.0482    2.7576   10.2040 C   0  0  0  0  0  0  0  0  0  0  0  0
   44.0038    3.8103   11.1194 C   0  0  0  0  0  0  0  0  0  0  0  0
   44.5847    5.0477   10.8086 C   0  0  0  0  0  0  0  0  0  0  0  0
   45.2097    5.2123    9.5643 C   0  0  0  0  0  0  0  0  0  0  0  0
   44.5505    6.1770   11.8073 C   0  0  0  0  0  0  0  0  0  0  0  0
   45.5200    5.9870   12.9767 C   0  0  0  0  0  0  0  0  0  0  0  0
   46.9861    6.0148   12.5481 C   0  0  0  0  0  0  0  0  0  0  0  0
   47.8829    6.0340   13.7591 C   0  0  0  0  0  0  0  0  0  0  0  0
   47.8201    5.2331   14.6823 O   0  0  0  0  0  0  0  0  0  0  0  0
   48.7610    7.0715   13.6824 O   0  0  0  0  0  0  0  0  0  0  0  0
   49.5968    7.2209   14.8453 C   0  0  0  0  0  0  0  0  0  0  0  0
   50.4153    8.5078   14.6963 C   0  0  0  0  0  0  0  0  0  0  0  0
   51.4420    8.6477   15.8289 C   0  0  0  0  0  0  0  0  0  0  0  0
   50.7580    8.6029   17.0943 O   0  0  0  0  0  0  0  0  0  0  0  0
   51.5502    8.8121   18.1807 C   0  0  0  0  0  0  0  0  0  0  0  0
   52.7518    9.0312   18.1380 O   0  0  0  0  0  0  0  0  0  0  0  0
   50.7124    8.7659   19.4368 C   0  0  0  0  0  0  0  0  0  0  0  0
   51.5326    8.4093   20.6753 C   0  0  0  0  0  0  0  0  0  0  0  0
   51.9925    6.9488   20.6571 C   0  0  0  0  0  0  0  0  0  0  0  0
   52.7678    6.5889   21.8993 C   0  0  0  0  0  0  0  0  0  0  0  0
   52.8503    5.6496   24.1363 C   0  0  0  0  0  0  0  0  0  0  0  0
   52.1297    5.9769   22.9865 C   0  0  0  0  0  0  0  0  0  0  0  0
   54.1362    6.8779   21.9876 C   0  0  0  0  0  0  0  0  0  0  0  0
   54.8550    6.5503   23.1381 C   0  0  0  0  0  0  0  0  0  0  0  0
   54.2127    5.9343   24.2111 C   0  0  0  0  0  0  0  0  0  0  0  0
   49.4859    9.6189   14.7517 O   0  0  0  0  0  0  0  0  0  0  0  0
   49.9234   10.7853   14.2107 C   0  0  0  0  0  0  0  0  0  0  0  0
   50.9917   10.9406   13.6361 O   0  0  0  0  0  0  0  0  0  0  0  0
   48.9227   11.8849   14.4513 C   0  0  0  0  0  0  0  0  0  0  0  0
   48.9057   12.3134   15.9161 C   0  0  0  0  0  0  0  0  0  0  0  0
   50.1813   13.0649   16.3195 C   0  0  0  0  0  0  0  0  0  0  0  0
   50.1984   13.3877   17.7935 C   0  0  0  0  0  0  0  0  0  0  0  0
   49.3323   14.3562   18.3203 C   0  0  0  0  0  0  0  0  0  0  0  0
   49.3394   14.6457   19.6860 C   0  0  0  0  0  0  0  0  0  0  0  0
   50.2131   13.9711   20.5373 C   0  0  0  0  0  0  0  0  0  0  0  0
   51.0829   13.0090   20.0240 C   0  0  0  0  0  0  0  0  0  0  0  0
   51.0775   12.7206   18.6585 C   0  0  0  0  0  0  0  0  0  0  0  0
   45.7437    4.2925    7.6876 H   0  0  0  0  0  0  0  0  0  0  0  0
   44.7094    2.1099    8.2585 H   0  0  0  0  0  0  0  0  0  0  0  0
   43.5961    1.8015   10.4555 H   0  0  0  0  0  0  0  0  0  0  0  0
   43.5140    3.6585   12.0792 H   0  0  0  0  0  0  0  0  0  0  0  0
   45.6699    6.1617    9.2996 H   0  0  0  0  0  0  0  0  0  0  0  0
   43.5289    6.2593   12.1983 H   0  0  0  0  0  0  0  0  0  0  0  0
   44.7534    7.1314   11.3065 H   0  0  0  0  0  0  0  0  0  0  0  0
   45.3425    6.7882   13.7060 H   0  0  0  0  0  0  0  0  0  0  0  0
   45.3069    5.0462   13.5001 H   0  0  0  0  0  0  0  0  0  0  0  0
   47.2540    5.1400   11.9472 H   0  0  0  0  0  0  0  0  0  0  0  0
   47.1767    6.9058   11.9394 H   0  0  0  0  0  0  0  0  0  0  0  0
   50.2615    6.3519   14.9150 H   0  0  0  0  0  0  0  0  0  0  0  0
   48.9555    7.2766   15.7334 H   0  0  0  0  0  0  0  0  0  0  0  0
   50.9132    8.5000   13.7183 H   0  0  0  0  0  0  0  0  0  0  0  0
   52.1654    7.8251   15.7831 H   0  0  0  0  0  0  0  0  0  0  0  0
   51.9701    9.6043   15.7481 H   0  0  0  0  0  0  0  0  0  0  0  0
   50.2556    9.7537   19.5638 H   0  0  0  0  0  0  0  0  0  0  0  0
   49.9075    8.0326   19.3080 H   0  0  0  0  0  0  0  0  0  0  0  0
   50.9155    8.5839   21.5650 H   0  0  0  0  0  0  0  0  0  0  0  0
   52.3985    9.0769   20.7625 H   0  0  0  0  0  0  0  0  0  0  0  0
   52.6180    6.7489   19.7795 H   0  0  0  0  0  0  0  0  0  0  0  0
   51.1248    6.2838   20.5628 H   0  0  0  0  0  0  0  0  0  0  0  0
   52.3498    5.1695   24.9736 H   0  0  0  0  0  0  0  0  0  0  0  0
   51.0678    5.7477   22.9437 H   0  0  0  0  0  0  0  0  0  0  0  0
   54.6494    7.3585   21.1567 H   0  0  0  0  0  0  0  0  0  0  0  0
   55.9173    6.7743   23.1967 H   0  0  0  0  0  0  0  0  0  0  0  0
   54.7746    5.6762   25.1047 H   0  0  0  0  0  0  0  0  0  0  0  0
   47.9349   11.5200   14.1457 H   0  0  0  0  0  0  0  0  0  0  0  0
   49.1617   12.7303   13.7946 H   0  0  0  0  0  0  0  0  0  0  0  0
   48.7711   11.4368   16.5637 H   0  0  0  0  0  0  0  0  0  0  0  0
   48.0327   12.9579   16.0778 H   0  0  0  0  0  0  0  0  0  0  0  0
   50.2685   13.9985   15.7503 H   0  0  0  0  0  0  0  0  0  0  0  0
   51.0678   12.4695   16.0672 H   0  0  0  0  0  0  0  0  0  0  0  0
   48.6479   14.8940   17.6678 H   0  0  0  0  0  0  0  0  0  0  0  0
   48.6652   15.4009   20.0859 H   0  0  0  0  0  0  0  0  0  0  0  0
   50.2202   14.1998   21.6002 H   0  0  0  0  0  0  0  0  0  0  0  0
   51.7707   12.4888   20.6868 H   0  0  0  0  0  0  0  0  0  0  0  0
   51.7705   11.9753   18.2748 H   0  0  0  0  0  0  0  0  0  0  0  0
  1  2  2  0
  1  6  1  0
  2  3  1  0
  3  4  2  0
  4  5  1  0
  5  6  2  0
  5  7  1  0
  7  8  1  0
  8  9  1  0
  9 10  1  0
 10 11  2  0
 10 12  1  0
 12 13  1  0
 13 14  1  0
 14 15  1  0
 15 16  1  0
 16 17  1  0
 17 18  2  0
 17 19  1  0
 19 20  1  0
 20 21  1  0
 21 22  1  0
 24 22  1  0
 22 25  2  0
 23 24  2  0
 23 27  1  0
 25 26  1  0
 26 27  2  0
 14 28  1  0
 28 29  1  0
 29 30  2  0
 29 31  1  0
 31 32  1  0
 32 33  1  0
 33 34  1  0
 39 34  1  0
 35 34  2  0
 35 36  1  0
 36 37  2  0
 37 38  1  0
 38 39  2  0
  1 40  1  0
  2 41  1  0
  3 42  1  0
  4 43  1  0
  6 44  1  0
  7 45  1  0
  7 46  1  0
  8 47  1  0
  8 48  1  0
  9 49  1  0
  9 50  1  0
 13 51  1  0
 13 52  1  0
 14 53  1  0
 15 54  1  0
 15 55  1  0
 19 56  1  0
 19 57  1  0
 20 58  1  0
 20 59  1  0
 21 60  1  0
 21 61  1  0
 23 62  1  0
 24 63  1  0
 25 64  1  0
 26 65  1  0
 27 66  1  0
 31 67  1  0
 31 68  1  0
 32 69  1  0
 32 70  1  0
 33 71  1  0
 33 72  1  0
 35 73  1  0
 36 74  1  0
 37 75  1  0
 38 76  1  0
 39 77  1  0
M  END
> <Uni-Dock RESULT> 
ENERGY=   -4.507  LOWER_BOUND=    4.350  UPPER_BOUND=    5.557
INTER + INTRA:          -4.507
INTER:                  -4.507
INTRA:                   0.000
UNBOUND:                 0.000

$$$$

     RDKit          3D

 77 79  0  0  0  0  0  0  0  0999 V2000
   45.1426    3.6757    8.7791 C   0  0  0  0  0  0  0  0  0  0  0  0
   44.5887    2.5702    9.4231 C   0  0  0  0  0  0  0  0  0  0  0  0
   44.0156    2.7145   10.6860 C   0  0  0  0  0  0  0  0  0  0  0  0
   43.9973    3.9646   11.3065 C   0  0  0  0  0  0  0  0  0  0  0  0
   44.5522    5.0830   10.6690 C   0  0  0  0  0  0  0  0  0  0  0  0
   45.1246    4.9272    9.3985 C   0  0  0  0  0  0  0  0  0  0  0  0
   44.5467    6.4283   11.3501 C   0  0  0  0  0  0  0  0  0  0  0  0
   45.5647    6.5401   12.4880 C   0  0  0  0  0  0  0  0  0  0  0  0
   47.0119    6.4584   12.0054 C   0  0  0  0  0  0  0  0  0  0  0  0
   47.9567    6.7833   13.1337 C   0  0  0  0  0  0  0  0  0  0  0  0
   47.9397    6.2420   14.2312 O   0  0  0  0  0  0  0  0  0  0  0  0
   48.8201    7.7675   12.7605 O   0  0  0  0  0  0  0  0  0  0  0  0
   49.7007    8.2061   13.8118 C   0  0  0  0  0  0  0  0  0  0  0  0
   50.4991    9.4133   13.3082 C   0  0  0  0  0  0  0  0  0  0  0  0
   51.5692    9.8351   14.3247 C   0  0  0  0  0  0  0  0  0  0  0  0
   50.9375   10.1121   15.5878 O   0  0  0  0  0  0  0  0  0  0  0  0
   51.7708   10.5893   16.5519 C   0  0  0  0  0  0  0  0  0  0  0  0
   52.9674   10.7902   16.4050 O   0  0  0  0  0  0  0  0  0  0  0  0
   50.9851   10.8626   17.8127 C   0  0  0  0  0  0  0  0  0  0  0  0
   51.8585   10.8308   19.0658 C   0  0  0  0  0  0  0  0  0  0  0  0
   52.3324    9.4132   19.3983 C   0  0  0  0  0  0  0  0  0  0  0  0
   53.1611    9.3792   20.6576 C   0  0  0  0  0  0  0  0  0  0  0  0
   53.3438    9.0366   23.0539 C   0  0  0  0  0  0  0  0  0  0  0  0
   52.5739    9.0624   21.8899 C   0  0  0  0  0  0  0  0  0  0  0  0
   54.5288    9.6809   20.6126 C   0  0  0  0  0  0  0  0  0  0  0  0
   55.2970    9.6551   21.7774 C   0  0  0  0  0  0  0  0  0  0  0  0
   54.7051    9.3307   22.9973 C   0  0  0  0  0  0  0  0  0  0  0  0
   49.5611   10.5024   13.1197 O   0  0  0  0  0  0  0  0  0  0  0  0
   49.9641   11.4939   12.2836 C   0  0  0  0  0  0  0  0  0  0  0  0
   51.0067   11.4985   11.6442 O   0  0  0  0  0  0  0  0  0  0  0  0
   48.9626   12.6188   12.2799 C   0  0  0  0  0  0  0  0  0  0  0  0
   49.0005   13.4039   13.5882 C   0  0  0  0  0  0  0  0  0  0  0  0
   50.2834   14.2329   13.7348 C   0  0  0  0  0  0  0  0  0  0  0  0
   50.3569   14.9182   15.0772 C   0  0  0  0  0  0  0  0  0  0  0  0
   49.5027   15.9886   15.3778 C   0  0  0  0  0  0  0  0  0  0  0  0
   49.5620   16.6143   16.6243 C   0  0  0  0  0  0  0  0  0  0  0  0
   50.4765   16.1769   17.5813 C   0  0  0  0  0  0  0  0  0  0  0  0
   51.3348   15.1161   17.2920 C   0  0  0  0  0  0  0  0  0  0  0  0
   51.2771   14.4915   16.0453 C   0  0  0  0  0  0  0  0  0  0  0  0
   45.5917    3.5624    7.7946 H   0  0  0  0  0  0  0  0  0  0  0  0
   44.6042    1.5954    8.9416 H   0  0  0  0  0  0  0  0  0  0  0  0
   43.5841    1.8532   11.1897 H   0  0  0  0  0  0  0  0  0  0  0  0
   43.5484    4.0607   12.2931 H   0  0  0  0  0  0  0  0  0  0  0  0
   45.5637    5.7786    8.8833 H   0  0  0  0  0  0  0  0  0  0  0  0
   43.5410    6.6069   11.7500 H   0  0  0  0  0  0  0  0  0  0  0  0
   44.7192    7.2248   10.6163 H   0  0  0  0  0  0  0  0  0  0  0  0
   45.4085    7.4999   12.9978 H   0  0  0  0  0  0  0  0  0  0  0  0
   45.3827    5.7625   13.2408 H   0  0  0  0  0  0  0  0  0  0  0  0
   47.2643    5.4600   11.6345 H   0  0  0  0  0  0  0  0  0  0  0  0
   47.1684    7.1664   11.1839 H   0  0  0  0  0  0  0  0  0  0  0  0
   50.3767    7.3830   14.0712 H   0  0  0  0  0  0  0  0  0  0  0  0
   49.0953    8.4849   14.6830 H   0  0  0  0  0  0  0  0  0  0  0  0
   50.9570    9.1582   12.3440 H   0  0  0  0  0  0  0  0  0  0  0  0
   52.2987    9.0276   14.4582 H   0  0  0  0  0  0  0  0  0  0  0  0
   52.0836   10.7401   13.9826 H   0  0  0  0  0  0  0  0  0  0  0  0
   50.5236   11.8504   17.7048 H   0  0  0  0  0  0  0  0  0  0  0  0
   50.1834   10.1206   17.9073 H   0  0  0  0  0  0  0  0  0  0  0  0
   51.2761   11.2250   19.9074 H   0  0  0  0  0  0  0  0  0  0  0  0
   52.7201   11.4987   18.9451 H   0  0  0  0  0  0  0  0  0  0  0  0
   52.9239    8.9977   18.5743 H   0  0  0  0  0  0  0  0  0  0  0  0
   51.4686    8.7461   19.5115 H   0  0  0  0  0  0  0  0  0  0  0  0
   52.8827    8.7841   24.0056 H   0  0  0  0  0  0  0  0  0  0  0  0
   51.5136    8.8300   21.9508 H   0  0  0  0  0  0  0  0  0  0  0  0
   55.0029    9.9356   19.6665 H   0  0  0  0  0  0  0  0  0  0  0  0
   56.3583    9.8864   21.7330 H   0  0  0  0  0  0  0  0  0  0  0  0
   55.3054    9.3071   23.9028 H   0  0  0  0  0  0  0  0  0  0  0  0
   47.9671   12.1885   12.1181 H   0  0  0  0  0  0  0  0  0  0  0  0
   49.1660   13.2704   11.4214 H   0  0  0  0  0  0  0  0  0  0  0  0
   48.9014   12.7198   14.4414 H   0  0  0  0  0  0  0  0  0  0  0  0
   48.1281   14.0686   13.6180 H   0  0  0  0  0  0  0  0  0  0  0  0
   50.3378   14.9920   12.9449 H   0  0  0  0  0  0  0  0  0  0  0  0
   51.1652   13.5929   13.6044 H   0  0  0  0  0  0  0  0  0  0  0  0
   48.7869   16.3439   14.6397 H   0  0  0  0  0  0  0  0  0  0  0  0
   48.8968   17.4462   16.8482 H   0  0  0  0  0  0  0  0  0  0  0  0
   50.5242   16.6672   18.5506 H   0  0  0  0  0  0  0  0  0  0  0  0
   52.0543   14.7804   18.0354 H   0  0  0  0  0  0  0  0  0  0  0  0
   51.9617   13.6733   15.8339 H   0  0  0  0  0  0  0  0  0  0  0  0
  1  2  2  0
  1  6  1  0
  2  3  1  0
  3  4  2  0
  4  5  1  0
  5  6  2  0
  5  7  1  0
  7  8  1  0
  8  9  1  0
  9 10  1  0
 10 11  2  0
 10 12  1  0
 12 13  1  0
 13 14  1  0
 14 15  1  0
 15 16  1  0
 16 17  1  0
 17 18  2  0
 17 19  1  0
 19 20  1  0
 20 21  1  0
 21 22  1  0
 24 22  1  0
 22 25  2  0
 23 24  2  0
 23 27  1  0
 25 26  1  0
 26 27  2  0
 14 28  1  0
 28 29  1  0
 29 30  2  0
 29 31  1  0
 31 32  1  0
 32 33  1  0
 33 34  1  0
 39 34  1  0
 35 34  2  0
 35 36  1  0
 36 37  2  0
 37 38  1  0
 38 39  2  0
  1 40  1  0
  2 41  1  0
  3 42  1  0
  4 43  1  0
  6 44  1  0
  7 45  1  0
  7 46  1  0
  8 47  1  0
  8 48  1  0
  9 49  1  0
  9 50  1  0
 13 51  1  0
 13 52  1  0
 14 53  1  0
 15 54  1  0
 15 55  1  0
 19 56  1  0
 19 57  1  0
 20 58  1  0
 20 59  1  0
 21 60  1  0
 21 61  1  0
 23 62  1  0
 24 63  1  0
 25 64  1  0
 26 65  1  0
 27 66  1  0
 31 67  1  0
 31 68  1  0
 32 69  1  0
 32 70  1  0
 33 71  1  0
 33 72  1  0
 35 73  1  0
 36 74  1  0
 37 75  1  0
 38 76  1  0
 39 77  1  0
M  END
> <Uni-Dock RESULT> 
ENERGY=   -4.260  LOWER_BOUND=    4.894  UPPER_BOUND=    6.953
INTER + INTRA:          -4.260
INTER:                  -4.260
INTRA:                   0.000
UNBOUND:                 0.000

$$$$
