
     RDKit          3D

 77 79  0  0  0  0  0  0  0  0999 V2000
   56.8708    7.7289   15.1652 C   0  0  0  0  0  0  0  0  0  0  0  0
   56.7203    6.3960   15.5441 C   0  0  0  0  0  0  0  0  0  0  0  0
   55.8683    5.5611   14.8232 C   0  0  0  0  0  0  0  0  0  0  0  0
   55.1693    6.0570   13.7208 C   0  0  0  0  0  0  0  0  0  0  0  0
   55.3214    7.3931   13.3263 C   0  0  0  0  0  0  0  0  0  0  0  0
   56.1729    8.2271   14.0634 C   0  0  0  0  0  0  0  0  0  0  0  0
   54.5627    7.9318   12.1395 C   0  0  0  0  0  0  0  0  0  0  0  0
   53.1254    8.3078   12.5026 C   0  0  0  0  0  0  0  0  0  0  0  0
   52.3945    8.9001   11.3057 C   0  0  0  0  0  0  0  0  0  0  0  0
   50.9801    9.2742   11.6641 C   0  0  0  0  0  0  0  0  0  0  0  0
   50.6329   10.3983   12.0010 O   0  0  0  0  0  0  0  0  0  0  0  0
   50.1627    8.1918   11.5568 O   0  0  0  0  0  0  0  0  0  0  0  0
   48.7583    8.4108   11.8010 C   0  0  0  0  0  0  0  0  0  0  0  0
   48.3810    8.0948   13.2580 C   0  0  0  0  0  0  0  0  0  0  0  0
   46.8589    7.9830   13.4101 C   0  0  0  0  0  0  0  0  0  0  0  0
   46.3236    6.9009   12.6333 O   0  0  0  0  0  0  0  0  0  0  0  0
   46.3174    5.6871   13.2496 C   0  0  0  0  0  0  0  0  0  0  0  0
   46.7451    5.4698   14.3751 O   0  0  0  0  0  0  0  0  0  0  0  0
   45.7649    4.6206   12.3376 C   0  0  0  0  0  0  0  0  0  0  0  0
   44.3765    4.9814   11.8084 C   0  0  0  0  0  0  0  0  0  0  0  0
   43.6997    3.8250   11.0653 C   0  0  0  0  0  0  0  0  0  0  0  0
   44.4415    3.3967    9.8231 C   0  0  0  0  0  0  0  0  0  0  0  0
   45.8920    1.8261    8.6723 C   0  0  0  0  0  0  0  0  0  0  0  0
   45.1890    2.2111    9.8149 C   0  0  0  0  0  0  0  0  0  0  0  0
   44.4091    4.1879    8.6661 C   0  0  0  0  0  0  0  0  0  0  0  0
   45.1133    3.8005    7.5256 C   0  0  0  0  0  0  0  0  0  0  0  0
   45.8546    2.6210    7.5286 C   0  0  0  0  0  0  0  0  0  0  0  0
   48.7958    9.1793   14.1167 O   0  0  0  0  0  0  0  0  0  0  0  0
   49.9624    9.0146   14.7959 C   0  0  0  0  0  0  0  0  0  0  0  0
   50.6774    8.0259   14.7504 O   0  0  0  0  0  0  0  0  0  0  0  0
   50.2498   10.2254   15.6452 C   0  0  0  0  0  0  0  0  0  0  0  0
   49.8077   10.0171   17.0895 C   0  0  0  0  0  0  0  0  0  0  0  0
   48.2830   10.0649   17.2444 C   0  0  0  0  0  0  0  0  0  0  0  0
   47.8671    9.9526   18.6900 C   0  0  0  0  0  0  0  0  0  0  0  0
   47.8012   11.0949   19.4999 C   0  0  0  0  0  0  0  0  0  0  0  0
   47.4334   10.9894   20.8424 C   0  0  0  0  0  0  0  0  0  0  0  0
   47.1299    9.7425   21.3880 C   0  0  0  0  0  0  0  0  0  0  0  0
   47.1976    8.6002   20.5922 C   0  0  0  0  0  0  0  0  0  0  0  0
   47.5673    8.7033   19.2500 C   0  0  0  0  0  0  0  0  0  0  0  0
   57.5303    8.3822   15.7296 H   0  0  0  0  0  0  0  0  0  0  0  0
   57.2632    6.0092   16.4031 H   0  0  0  0  0  0  0  0  0  0  0  0
   55.7438    4.5236   15.1215 H   0  0  0  0  0  0  0  0  0  0  0  0
   54.5023    5.3948   13.1732 H   0  0  0  0  0  0  0  0  0  0  0  0
   56.2980    9.2703   13.7836 H   0  0  0  0  0  0  0  0  0  0  0  0
   55.0897    8.8060   11.7346 H   0  0  0  0  0  0  0  0  0  0  0  0
   54.5662    7.1809   11.3385 H   0  0  0  0  0  0  0  0  0  0  0  0
   53.1210    9.0284   13.3318 H   0  0  0  0  0  0  0  0  0  0  0  0
   52.5891    7.4210   12.8634 H   0  0  0  0  0  0  0  0  0  0  0  0
   52.3763    8.2011   10.4613 H   0  0  0  0  0  0  0  0  0  0  0  0
   52.9003    9.8043   10.9462 H   0  0  0  0  0  0  0  0  0  0  0  0
   48.2367    7.7337   11.1164 H   0  0  0  0  0  0  0  0  0  0  0  0
   48.4701    9.4327   11.5257 H   0  0  0  0  0  0  0  0  0  0  0  0
   48.8487    7.1489   13.5569 H   0  0  0  0  0  0  0  0  0  0  0  0
   46.3751    8.9042   13.0612 H   0  0  0  0  0  0  0  0  0  0  0  0
   46.5762    7.8909   14.4685 H   0  0  0  0  0  0  0  0  0  0  0  0
   45.7137    3.6867   12.9104 H   0  0  0  0  0  0  0  0  0  0  0  0
   46.4832    4.4713   11.5250 H   0  0  0  0  0  0  0  0  0  0  0  0
   43.7356    5.2775   12.6481 H   0  0  0  0  0  0  0  0  0  0  0  0
   44.4463    5.8578   11.1519 H   0  0  0  0  0  0  0  0  0  0  0  0
   42.6842    4.1289   10.7744 H   0  0  0  0  0  0  0  0  0  0  0  0
   43.5711    2.9704   11.7431 H   0  0  0  0  0  0  0  0  0  0  0  0
   46.4706    0.9064    8.6757 H   0  0  0  0  0  0  0  0  0  0  0  0
   45.2313    1.5793   10.7001 H   0  0  0  0  0  0  0  0  0  0  0  0
   43.8329    5.1107    8.6457 H   0  0  0  0  0  0  0  0  0  0  0  0
   45.0836    4.4204    6.6334 H   0  0  0  0  0  0  0  0  0  0  0  0
   46.4011    2.3190    6.6387 H   0  0  0  0  0  0  0  0  0  0  0  0
   49.7812   11.1125   15.2045 H   0  0  0  0  0  0  0  0  0  0  0  0
   51.3312   10.4033   15.6026 H   0  0  0  0  0  0  0  0  0  0  0  0
   50.1886    9.0591   17.4674 H   0  0  0  0  0  0  0  0  0  0  0  0
   50.2615   10.8040   17.7059 H   0  0  0  0  0  0  0  0  0  0  0  0
   47.8112    9.2568   16.6702 H   0  0  0  0  0  0  0  0  0  0  0  0
   47.8889   11.0024   16.8294 H   0  0  0  0  0  0  0  0  0  0  0  0
   48.0400   12.0738   19.0891 H   0  0  0  0  0  0  0  0  0  0  0  0
   47.3868   11.8794   21.4645 H   0  0  0  0  0  0  0  0  0  0  0  0
   46.8457    9.6598   22.4339 H   0  0  0  0  0  0  0  0  0  0  0  0
   46.9643    7.6271   21.0176 H   0  0  0  0  0  0  0  0  0  0  0  0
   47.6203    7.8012   18.6440 H   0  0  0  0  0  0  0  0  0  0  0  0
  1  2  2  0
  1  6  1  0
  2  3  1  0
  3  4  2  0
  4  5  1  0
  5  6  2  0
  5  7  1  0
  7  8  1  0
  8  9  1  0
  9 10  1  0
 10 11  2  0
 10 12  1  0
 12 13  1  0
 13 14  1  0
 14 15  1  0
 15 16  1  0
 16 17  1  0
 17 18  2  0
 17 19  1  0
 19 20  1  0
 20 21  1  0
 21 22  1  0
 24 22  1  0
 22 25  2  0
 23 24  2  0
 23 27  1  0
 25 26  1  0
 26 27  2  0
 14 28  1  0
 28 29  1  0
 29 30  2  0
 29 31  1  0
 31 32  1  0
 32 33  1  0
 33 34  1  0
 39 34  1  0
 35 34  2  0
 35 36  1  0
 36 37  2  0
 37 38  1  0
 38 39  2  0
  1 40  1  0
  2 41  1  0
  3 42  1  0
  4 43  1  0
  6 44  1  0
  7 45  1  0
  7 46  1  0
  8 47  1  0
  8 48  1  0
  9 49  1  0
  9 50  1  0
 13 51  1  0
 13 52  1  0
 14 53  1  0
 15 54  1  0
 15 55  1  0
 19 56  1  0
 19 57  1  0
 20 58  1  0
 20 59  1  0
 21 60  1  0
 21 61  1  0
 23 62  1  0
 24 63  1  0
 25 64  1  0
 26 65  1  0
 27 66  1  0
 31 67  1  0
 31 68  1  0
 32 69  1  0
 32 70  1  0
 33 71  1  0
 33 72  1  0
 35 73  1  0
 36 74  1  0
 37 75  1  0
 38 76  1  0
 39 77  1  0
M  END
> <Uni-Dock RESULT> 
ENERGY=   -5.753  LOWER_BOUND=    0.000  UPPER_BOUND=    0.000
INTER + INTRA:          -5.753
INTER:                  -5.753
INTRA:                   0.000
UNBOUND:                 0.000

$$$$

     RDKit          3D

 77 79  0  0  0  0  0  0  0  0999 V2000
   46.2227    9.8254   12.2269 C   0  0  0  0  0  0  0  0  0  0  0  0
   47.4726   10.2991   11.8320 C   0  0  0  0  0  0  0  0  0  0  0  0
   48.5764    9.4483   11.8544 C   0  0  0  0  0  0  0  0  0  0  0  0
   48.4306    8.1226   12.2678 C   0  0  0  0  0  0  0  0  0  0  0  0
   47.1761    7.6344   12.6575 C   0  0  0  0  0  0  0  0  0  0  0  0
   46.0743    8.5003   12.6408 C   0  0  0  0  0  0  0  0  0  0  0  0
   47.0181    6.2045   13.1099 C   0  0  0  0  0  0  0  0  0  0  0  0
   47.4324    6.0178   14.5702 C   0  0  0  0  0  0  0  0  0  0  0  0
   47.2136    4.5808   15.0228 C   0  0  0  0  0  0  0  0  0  0  0  0
   47.6178    4.3976   16.4622 C   0  0  0  0  0  0  0  0  0  0  0  0
   46.8398    4.4538   17.4051 O   0  0  0  0  0  0  0  0  0  0  0  0
   48.9551    4.1632   16.5519 O   0  0  0  0  0  0  0  0  0  0  0  0
   49.4816    3.8963   17.8678 C   0  0  0  0  0  0  0  0  0  0  0  0
   50.0305    5.1724   18.5275 C   0  0  0  0  0  0  0  0  0  0  0  0
   50.8963    4.8223   19.7442 C   0  0  0  0  0  0  0  0  0  0  0  0
   52.0523    4.0562   19.3733 O   0  0  0  0  0  0  0  0  0  0  0  0
   53.1415    4.7845   19.0042 C   0  0  0  0  0  0  0  0  0  0  0  0
   53.1833    6.0061   18.9514 O   0  0  0  0  0  0  0  0  0  0  0  0
   54.2845    3.8842   18.6072 C   0  0  0  0  0  0  0  0  0  0  0  0
   54.6340    2.8820   19.7076 C   0  0  0  0  0  0  0  0  0  0  0  0
   55.9269    2.1097   19.4256 C   0  0  0  0  0  0  0  0  0  0  0  0
   55.8522    1.2502   18.1876 C   0  0  0  0  0  0  0  0  0  0  0  0
   56.4166    0.8574   15.8591 C   0  0  0  0  0  0  0  0  0  0  0  0
   56.5034    1.6422   17.0100 C   0  0  0  0  0  0  0  0  0  0  0  0
   55.1151    0.0576   18.1922 C   0  0  0  0  0  0  0  0  0  0  0  0
   55.0300   -0.7245   17.0400 C   0  0  0  0  0  0  0  0  0  0  0  0
   55.6795   -0.3249   15.8741 C   0  0  0  0  0  0  0  0  0  0  0  0
   48.9376    5.9747   19.0247 O   0  0  0  0  0  0  0  0  0  0  0  0
   48.5382    7.0184   18.2497 C   0  0  0  0  0  0  0  0  0  0  0  0
   49.0332    7.3396   17.1807 O   0  0  0  0  0  0  0  0  0  0  0  0
   47.3991    7.7534   18.9071 C   0  0  0  0  0  0  0  0  0  0  0  0
   47.8866    8.9825   19.6665 C   0  0  0  0  0  0  0  0  0  0  0  0
   48.6158    8.6139   20.9639 C   0  0  0  0  0  0  0  0  0  0  0  0
   49.0072    9.8407   21.7496 C   0  0  0  0  0  0  0  0  0  0  0  0
   48.1014   10.4300   22.6425 C   0  0  0  0  0  0  0  0  0  0  0  0
   48.4568   11.5756   23.3567 C   0  0  0  0  0  0  0  0  0  0  0  0
   49.7188   12.1431   23.1845 C   0  0  0  0  0  0  0  0  0  0  0  0
   50.6246   11.5675   22.2952 C   0  0  0  0  0  0  0  0  0  0  0  0
   50.2703   10.4232   21.5783 C   0  0  0  0  0  0  0  0  0  0  0  0
   45.3625   10.4891   12.2154 H   0  0  0  0  0  0  0  0  0  0  0  0
   47.5875   11.3316   11.5111 H   0  0  0  0  0  0  0  0  0  0  0  0
   49.5532    9.8177   11.5539 H   0  0  0  0  0  0  0  0  0  0  0  0
   49.3032    7.4732   12.2870 H   0  0  0  0  0  0  0  0  0  0  0  0
   45.0934    8.1477   12.9500 H   0  0  0  0  0  0  0  0  0  0  0  0
   45.9750    5.8902   12.9713 H   0  0  0  0  0  0  0  0  0  0  0  0
   47.6173    5.5528   12.4605 H   0  0  0  0  0  0  0  0  0  0  0  0
   46.8615    6.6994   15.2154 H   0  0  0  0  0  0  0  0  0  0  0  0
   48.4883    6.2894   14.6945 H   0  0  0  0  0  0  0  0  0  0  0  0
   47.7762    3.8747   14.4008 H   0  0  0  0  0  0  0  0  0  0  0  0
   46.1580    4.2981   14.9318 H   0  0  0  0  0  0  0  0  0  0  0  0
   50.2862    3.1692   17.7153 H   0  0  0  0  0  0  0  0  0  0  0  0
   48.7257    3.4130   18.4988 H   0  0  0  0  0  0  0  0  0  0  0  0
   50.6327    5.7276   17.7981 H   0  0  0  0  0  0  0  0  0  0  0  0
   50.3206    4.2181   20.4570 H   0  0  0  0  0  0  0  0  0  0  0  0
   51.1805    5.7290   20.2973 H   0  0  0  0  0  0  0  0  0  0  0  0
   55.1516    4.5213   18.3949 H   0  0  0  0  0  0  0  0  0  0  0  0
   54.0062    3.3829   17.6745 H   0  0  0  0  0  0  0  0  0  0  0  0
   54.7484    3.4157   20.6593 H   0  0  0  0  0  0  0  0  0  0  0  0
   53.8023    2.1802   19.8477 H   0  0  0  0  0  0  0  0  0  0  0  0
   56.1537    1.4613   20.2837 H   0  0  0  0  0  0  0  0  0  0  0  0
   56.7705    2.8090   19.3508 H   0  0  0  0  0  0  0  0  0  0  0  0
   56.9229    1.1702   14.9500 H   0  0  0  0  0  0  0  0  0  0  0  0
   57.0815    2.5637   16.9796 H   0  0  0  0  0  0  0  0  0  0  0  0
   54.6040   -0.2706   19.0949 H   0  0  0  0  0  0  0  0  0  0  0  0
   54.4554   -1.6469   17.0520 H   0  0  0  0  0  0  0  0  0  0  0  0
   55.6144   -0.9362   14.9775 H   0  0  0  0  0  0  0  0  0  0  0  0
   46.8399    7.0729   19.5587 H   0  0  0  0  0  0  0  0  0  0  0  0
   46.7029    8.0508   18.1135 H   0  0  0  0  0  0  0  0  0  0  0  0
   48.5472    9.5842   19.0284 H   0  0  0  0  0  0  0  0  0  0  0  0
   47.0168    9.6092   19.9026 H   0  0  0  0  0  0  0  0  0  0  0  0
   49.5154    8.0232   20.7467 H   0  0  0  0  0  0  0  0  0  0  0  0
   47.9773    7.9757   21.5896 H   0  0  0  0  0  0  0  0  0  0  0  0
   47.1114   10.0011   22.7834 H   0  0  0  0  0  0  0  0  0  0  0  0
   47.7481   12.0281   24.0454 H   0  0  0  0  0  0  0  0  0  0  0  0
   49.9949   13.0364   23.7389 H   0  0  0  0  0  0  0  0  0  0  0  0
   51.6077   12.0112   22.1578 H   0  0  0  0  0  0  0  0  0  0  0  0
   50.9873    9.9894   20.8843 H   0  0  0  0  0  0  0  0  0  0  0  0
  1  2  2  0
  1  6  1  0
  2  3  1  0
  3  4  2  0
  4  5  1  0
  5  6  2  0
  5  7  1  0
  7  8  1  0
  8  9  1  0
  9 10  1  0
 10 11  2  0
 10 12  1  0
 12 13  1  0
 13 14  1  0
 14 15  1  0
 15 16  1  0
 16 17  1  0
 17 18  2  0
 17 19  1  0
 19 20  1  0
 20 21  1  0
 21 22  1  0
 24 22  1  0
 22 25  2  0
 23 24  2  0
 23 27  1  0
 25 26  1  0
 26 27  2  0
 14 28  1  0
 28 29  1  0
 29 30  2  0
 29 31  1  0
 31 32  1  0
 32 33  1  0
 33 34  1  0
 39 34  1  0
 35 34  2  0
 35 36  1  0
 36 37  2  0
 37 38  1  0
 38 39  2  0
  1 40  1  0
  2 41  1  0
  3 42  1  0
  4 43  1  0
  6 44  1  0
  7 45  1  0
  7 46  1  0
  8 47  1  0
  8 48  1  0
  9 49  1  0
  9 50  1  0
 13 51  1  0
 13 52  1  0
 14 53  1  0
 15 54  1  0
 15 55  1  0
 19 56  1  0
 19 57  1  0
 20 58  1  0
 20 59  1  0
 21 60  1  0
 21 61  1  0
 23 62  1  0
 24 63  1  0
 25 64  1  0
 26 65  1  0
 27 66  1  0
 31 67  1  0
 31 68  1  0
 32 69  1  0
 32 70  1  0
 33 71  1  0
 33 72  1  0
 35 73  1  0
 36 74  1  0
 37 75  1  0
 38 76  1  0
 39 77  1  0
M  END
> <Uni-Dock RESULT> 
ENERGY=   -5.296  LOWER_BOUND=    4.278  UPPER_BOUND=    8.965
INTER + INTRA:          -5.296
INTER:                  -5.296
INTRA:                   0.000
UNBOUND:                 0.000

$$$$

     RDKit          3D

 77 79  0  0  0  0  0  0  0  0999 V2000
   44.8199    4.2015    8.7138 C   0  0  0  0  0  0  0  0  0  0  0  0
   45.0415    2.9556    9.2980 C   0  0  0  0  0  0  0  0  0  0  0  0
   45.1098    2.8414   10.6854 C   0  0  0  0  0  0  0  0  0  0  0  0
   44.9529    3.9720   11.4897 C   0  0  0  0  0  0  0  0  0  0  0  0
   44.7201    5.2274   10.9121 C   0  0  0  0  0  0  0  0  0  0  0  0
   44.6628    5.3334    9.5159 C   0  0  0  0  0  0  0  0  0  0  0  0
   44.5563    6.4504   11.7792 C   0  0  0  0  0  0  0  0  0  0  0  0
   45.9039    7.0183   12.2271 C   0  0  0  0  0  0  0  0  0  0  0  0
   45.7183    8.2825   13.0546 C   0  0  0  0  0  0  0  0  0  0  0  0
   47.0455    8.8443   13.4926 C   0  0  0  0  0  0  0  0  0  0  0  0
   47.6449    9.7300   12.8977 O   0  0  0  0  0  0  0  0  0  0  0  0
   47.4676    8.2287   14.6302 O   0  0  0  0  0  0  0  0  0  0  0  0
   48.6956    8.7107   15.2131 C   0  0  0  0  0  0  0  0  0  0  0  0
   49.9055    7.8821   14.7501 C   0  0  0  0  0  0  0  0  0  0  0  0
   51.1251    8.1647   15.6362 C   0  0  0  0  0  0  0  0  0  0  0  0
   50.8952    7.7768   16.9991 O   0  0  0  0  0  0  0  0  0  0  0  0
   51.1790    6.4782   17.2923 C   0  0  0  0  0  0  0  0  0  0  0  0
   51.5822    5.6494   16.4876 O   0  0  0  0  0  0  0  0  0  0  0  0
   50.8741    6.1711   18.7370 C   0  0  0  0  0  0  0  0  0  0  0  0
   51.5939    7.1252   19.6904 C   0  0  0  0  0  0  0  0  0  0  0  0
   51.4835    6.7012   21.1586 C   0  0  0  0  0  0  0  0  0  0  0  0
   50.0661    6.7010   21.6761 C   0  0  0  0  0  0  0  0  0  0  0  0
   48.0621    5.4953   22.3281 C   0  0  0  0  0  0  0  0  0  0  0  0
   49.3802    5.4941   21.8693 C   0  0  0  0  0  0  0  0  0  0  0  0
   49.4090    7.9082   21.9527 C   0  0  0  0  0  0  0  0  0  0  0  0
   48.0912    7.9061   22.4109 C   0  0  0  0  0  0  0  0  0  0  0  0
   47.4178    6.7009   22.5978 C   0  0  0  0  0  0  0  0  0  0  0  0
   50.2794    8.2694   13.4100 O   0  0  0  0  0  0  0  0  0  0  0  0
   49.8442    7.4747   12.3959 C   0  0  0  0  0  0  0  0  0  0  0  0
   49.1786    6.4592   12.5247 O   0  0  0  0  0  0  0  0  0  0  0  0
   50.3199    8.0093   11.0701 C   0  0  0  0  0  0  0  0  0  0  0  0
   51.5810    7.2956   10.5956 C   0  0  0  0  0  0  0  0  0  0  0  0
   52.8211    7.7111   11.3957 C   0  0  0  0  0  0  0  0  0  0  0  0
   54.0738    7.0694   10.8529 C   0  0  0  0  0  0  0  0  0  0  0  0
   54.7787    7.6687    9.7998 C   0  0  0  0  0  0  0  0  0  0  0  0
   55.9281    7.0662    9.2854 C   0  0  0  0  0  0  0  0  0  0  0  0
   56.3825    5.8598    9.8170 C   0  0  0  0  0  0  0  0  0  0  0  0
   55.6857    5.2535   10.8607 C   0  0  0  0  0  0  0  0  0  0  0  0
   54.5347    5.8532   11.3751 C   0  0  0  0  0  0  0  0  0  0  0  0
   44.7719    4.2928    7.6322 H   0  0  0  0  0  0  0  0  0  0  0  0
   45.1650    2.0748    8.6725 H   0  0  0  0  0  0  0  0  0  0  0  0
   45.2899    1.8722   11.1425 H   0  0  0  0  0  0  0  0  0  0  0  0
   45.0166    3.8677   12.5707 H   0  0  0  0  0  0  0  0  0  0  0  0
   44.4950    6.2987    9.0444 H   0  0  0  0  0  0  0  0  0  0  0  0
   43.9894    7.2144   11.2306 H   0  0  0  0  0  0  0  0  0  0  0  0
   43.9450    6.1926   12.6540 H   0  0  0  0  0  0  0  0  0  0  0  0
   46.5312    7.2379   11.3525 H   0  0  0  0  0  0  0  0  0  0  0  0
   46.4472    6.2669   12.8140 H   0  0  0  0  0  0  0  0  0  0  0  0
   45.0999    8.0947   13.9402 H   0  0  0  0  0  0  0  0  0  0  0  0
   45.2004    9.0568   12.4759 H   0  0  0  0  0  0  0  0  0  0  0  0
   48.5591    8.6148   16.2954 H   0  0  0  0  0  0  0  0  0  0  0  0
   48.8357    9.7774   14.9991 H   0  0  0  0  0  0  0  0  0  0  0  0
   49.6558    6.8154   14.8014 H   0  0  0  0  0  0  0  0  0  0  0  0
   51.3513    9.2387   15.6374 H   0  0  0  0  0  0  0  0  0  0  0  0
   52.0250    7.6803   15.2311 H   0  0  0  0  0  0  0  0  0  0  0  0
   51.1921    5.1397   18.9323 H   0  0  0  0  0  0  0  0  0  0  0  0
   49.7876    6.2119   18.8649 H   0  0  0  0  0  0  0  0  0  0  0  0
   52.6564    7.1718   19.4210 H   0  0  0  0  0  0  0  0  0  0  0  0
   51.2007    8.1418   19.5644 H   0  0  0  0  0  0  0  0  0  0  0  0
   52.0778    7.3880   21.7777 H   0  0  0  0  0  0  0  0  0  0  0  0
   51.9369    5.7102   21.2958 H   0  0  0  0  0  0  0  0  0  0  0  0
   47.5374    4.5549   22.4729 H   0  0  0  0  0  0  0  0  0  0  0  0
   49.8672    4.5432   21.6614 H   0  0  0  0  0  0  0  0  0  0  0  0
   49.9211    8.8583   21.8148 H   0  0  0  0  0  0  0  0  0  0  0  0
   47.5889    8.8466   22.6217 H   0  0  0  0  0  0  0  0  0  0  0  0
   46.3917    6.7004   22.9569 H   0  0  0  0  0  0  0  0  0  0  0  0
   50.4704    9.0927   11.1347 H   0  0  0  0  0  0  0  0  0  0  0  0
   49.5071    7.8605   10.3489 H   0  0  0  0  0  0  0  0  0  0  0  0
   51.4466    6.2076   10.6590 H   0  0  0  0  0  0  0  0  0  0  0  0
   51.7342    7.5348    9.5352 H   0  0  0  0  0  0  0  0  0  0  0  0
   52.7069    7.4398   12.4534 H   0  0  0  0  0  0  0  0  0  0  0  0
   52.9386    8.8029   11.3732 H   0  0  0  0  0  0  0  0  0  0  0  0
   54.4331    8.6074    9.3718 H   0  0  0  0  0  0  0  0  0  0  0  0
   56.4679    7.5359    8.4673 H   0  0  0  0  0  0  0  0  0  0  0  0
   57.2763    5.3895    9.4150 H   0  0  0  0  0  0  0  0  0  0  0  0
   56.0375    4.3112   11.2737 H   0  0  0  0  0  0  0  0  0  0  0  0
   53.9996    5.3641   12.1865 H   0  0  0  0  0  0  0  0  0  0  0  0
  1  2  2  0
  1  6  1  0
  2  3  1  0
  3  4  2  0
  4  5  1  0
  5  6  2  0
  5  7  1  0
  7  8  1  0
  8  9  1  0
  9 10  1  0
 10 11  2  0
 10 12  1  0
 12 13  1  0
 13 14  1  0
 14 15  1  0
 15 16  1  0
 16 17  1  0
 17 18  2  0
 17 19  1  0
 19 20  1  0
 20 21  1  0
 21 22  1  0
 24 22  1  0
 22 25  2  0
 23 24  2  0
 23 27  1  0
 25 26  1  0
 26 27  2  0
 14 28  1  0
 28 29  1  0
 29 30  2  0
 29 31  1  0
 31 32  1  0
 32 33  1  0
 33 34  1  0
 39 34  1  0
 35 34  2  0
 35 36  1  0
 36 37  2  0
 37 38  1  0
 38 39  2  0
  1 40  1  0
  2 41  1  0
  3 42  1  0
  4 43  1  0
  6 44  1  0
  7 45  1  0
  7 46  1  0
  8 47  1  0
  8 48  1  0
  9 49  1  0
  9 50  1  0
 13 51  1  0
 13 52  1  0
 14 53  1  0
 15 54  1  0
 15 55  1  0
 19 56  1  0
 19 57  1  0
 20 58  1  0
 20 59  1  0
 21 60  1  0
 21 61  1  0
 23 62  1  0
 24 63  1  0
 25 64  1  0
 26 65  1  0
 27 66  1  0
 31 67  1  0
 31 68  1  0
 32 69  1  0
 32 70  1  0
 33 71  1  0
 33 72  1  0
 35 73  1  0
 36 74  1  0
 37 75  1  0
 38 76  1  0
 39 77  1  0
M  END
> <Uni-Dock RESULT> 
ENERGY=   -5.098  LOWER_BOUND=    2.471  UPPER_BOUND=   10.289
INTER + INTRA:          -5.098
INTER:                  -5.098
INTRA:                   0.000
UNBOUND:                 0.000

$$$$

     RDKit          3D

 77 79  0  0  0  0  0  0  0  0999 V2000
   47.2127   15.3120   12.4722 C   0  0  0  0  0  0  0  0  0  0  0  0
   46.1993   15.5038   13.4097 C   0  0  0  0  0  0  0  0  0  0  0  0
   46.3861   15.0928   14.7283 C   0  0  0  0  0  0  0  0  0  0  0  0
   47.5877   14.4933   15.1114 C   0  0  0  0  0  0  0  0  0  0  0  0
   48.6162   14.3049   14.1784 C   0  0  0  0  0  0  0  0  0  0  0  0
   48.4149   14.7128   12.8528 C   0  0  0  0  0  0  0  0  0  0  0  0
   49.9122   13.6523   14.5892 C   0  0  0  0  0  0  0  0  0  0  0  0
   49.7992   12.1274   14.6219 C   0  0  0  0  0  0  0  0  0  0  0  0
   51.1315   11.4866   14.9849 C   0  0  0  0  0  0  0  0  0  0  0  0
   51.0216    9.9846   15.0133 C   0  0  0  0  0  0  0  0  0  0  0  0
   51.3155    9.2579   14.0735 O   0  0  0  0  0  0  0  0  0  0  0  0
   50.5552    9.5671   16.2214 O   0  0  0  0  0  0  0  0  0  0  0  0
   50.4627    8.1425   16.4257 C   0  0  0  0  0  0  0  0  0  0  0  0
   49.0532    7.6154   16.1085 C   0  0  0  0  0  0  0  0  0  0  0  0
   48.8687    6.1977   16.6639 C   0  0  0  0  0  0  0  0  0  0  0  0
   48.9748    6.1678   18.0952 O   0  0  0  0  0  0  0  0  0  0  0  0
   47.8195    6.4147   18.7716 C   0  0  0  0  0  0  0  0  0  0  0  0
   46.7429    6.6720   18.2504 O   0  0  0  0  0  0  0  0  0  0  0  0
   48.0496    6.3891   20.2619 C   0  0  0  0  0  0  0  0  0  0  0  0
   48.6921    5.0797   20.7205 C   0  0  0  0  0  0  0  0  0  0  0  0
   48.7314    4.9338   22.2452 C   0  0  0  0  0  0  0  0  0  0  0  0
   49.5713    5.9868   22.9254 C   0  0  0  0  0  0  0  0  0  0  0  0
   49.7403    8.0306   24.2250 C   0  0  0  0  0  0  0  0  0  0  0  0
   48.9632    7.0455   23.6138 C   0  0  0  0  0  0  0  0  0  0  0  0
   50.9708    5.9316   22.8623 C   0  0  0  0  0  0  0  0  0  0  0  0
   51.7448    6.9182   23.4740 C   0  0  0  0  0  0  0  0  0  0  0  0
   51.1304    7.9672   24.1542 C   0  0  0  0  0  0  0  0  0  0  0  0
   48.8784    7.5167   14.6784 O   0  0  0  0  0  0  0  0  0  0  0  0
   48.2094    8.5317   14.0688 C   0  0  0  0  0  0  0  0  0  0  0  0
   47.7352    9.5074   14.6292 O   0  0  0  0  0  0  0  0  0  0  0  0
   48.1083    8.2774   12.5873 C   0  0  0  0  0  0  0  0  0  0  0  0
   46.7654    7.6596   12.2131 C   0  0  0  0  0  0  0  0  0  0  0  0
   46.6611    6.1908   12.6402 C   0  0  0  0  0  0  0  0  0  0  0  0
   45.3667    5.5682   12.1790 C   0  0  0  0  0  0  0  0  0  0  0  0
   45.2647    5.0115   10.8966 C   0  0  0  0  0  0  0  0  0  0  0  0
   44.0620    4.4509   10.4629 C   0  0  0  0  0  0  0  0  0  0  0  0
   42.9508    4.4429   11.3052 C   0  0  0  0  0  0  0  0  0  0  0  0
   43.0407    4.9986   12.5803 C   0  0  0  0  0  0  0  0  0  0  0  0
   44.2419    5.5616   13.0151 C   0  0  0  0  0  0  0  0  0  0  0  0
   47.0661   15.6268   11.4427 H   0  0  0  0  0  0  0  0  0  0  0  0
   45.2628   15.9694   13.1121 H   0  0  0  0  0  0  0  0  0  0  0  0
   45.5944   15.2347   15.4590 H   0  0  0  0  0  0  0  0  0  0  0  0
   47.7153   14.1710   16.1426 H   0  0  0  0  0  0  0  0  0  0  0  0
   49.1937   14.5663   12.1084 H   0  0  0  0  0  0  0  0  0  0  0  0
   50.7098   13.9560   13.8980 H   0  0  0  0  0  0  0  0  0  0  0  0
   50.2093   14.0308   15.5761 H   0  0  0  0  0  0  0  0  0  0  0  0
   49.4624   11.7522   13.6459 H   0  0  0  0  0  0  0  0  0  0  0  0
   49.0329   11.8271   15.3477 H   0  0  0  0  0  0  0  0  0  0  0  0
   51.4927   11.8371   15.9589 H   0  0  0  0  0  0  0  0  0  0  0  0
   51.9058   11.7529   14.2553 H   0  0  0  0  0  0  0  0  0  0  0  0
   50.6995    7.9860   17.4834 H   0  0  0  0  0  0  0  0  0  0  0  0
   51.2276    7.6151   15.8426 H   0  0  0  0  0  0  0  0  0  0  0  0
   48.3070    8.2832   16.5559 H   0  0  0  0  0  0  0  0  0  0  0  0
   49.6449    5.5315   16.2663 H   0  0  0  0  0  0  0  0  0  0  0  0
   47.9159    5.7652   16.3265 H   0  0  0  0  0  0  0  0  0  0  0  0
   47.0763    6.5174   20.7511 H   0  0  0  0  0  0  0  0  0  0  0  0
   48.6661    7.2563   20.5195 H   0  0  0  0  0  0  0  0  0  0  0  0
   48.1282    4.2355   20.3049 H   0  0  0  0  0  0  0  0  0  0  0  0
   49.7072    5.0017   20.3113 H   0  0  0  0  0  0  0  0  0  0  0  0
   49.1399    3.9462   22.5022 H   0  0  0  0  0  0  0  0  0  0  0  0
   47.7095    4.9462   22.6476 H   0  0  0  0  0  0  0  0  0  0  0  0
   49.2603    8.8490   24.7547 H   0  0  0  0  0  0  0  0  0  0  0  0
   47.8788    7.1120   23.6772 H   0  0  0  0  0  0  0  0  0  0  0  0
   51.4669    5.1177   22.3375 H   0  0  0  0  0  0  0  0  0  0  0  0
   52.8291    6.8683   23.4191 H   0  0  0  0  0  0  0  0  0  0  0  0
   51.7345    8.7343   24.6324 H   0  0  0  0  0  0  0  0  0  0  0  0
   48.9453    7.6528   12.2559 H   0  0  0  0  0  0  0  0  0  0  0  0
   48.2343    9.2427   12.0823 H   0  0  0  0  0  0  0  0  0  0  0  0
   45.9456    8.2353   12.6626 H   0  0  0  0  0  0  0  0  0  0  0  0
   46.6440    7.7321   11.1244 H   0  0  0  0  0  0  0  0  0  0  0  0
   46.7355    6.0999   13.7318 H   0  0  0  0  0  0  0  0  0  0  0  0
   47.5021    5.6157   12.2296 H   0  0  0  0  0  0  0  0  0  0  0  0
   46.1221    5.0150   10.2266 H   0  0  0  0  0  0  0  0  0  0  0  0
   43.9902    4.0233    9.4663 H   0  0  0  0  0  0  0  0  0  0  0  0
   42.0136    4.0085   10.9668 H   0  0  0  0  0  0  0  0  0  0  0  0
   42.1738    4.9957   13.2366 H   0  0  0  0  0  0  0  0  0  0  0  0
   44.2938    5.9959   14.0113 H   0  0  0  0  0  0  0  0  0  0  0  0
  1  2  2  0
  1  6  1  0
  2  3  1  0
  3  4  2  0
  4  5  1  0
  5  6  2  0
  5  7  1  0
  7  8  1  0
  8  9  1  0
  9 10  1  0
 10 11  2  0
 10 12  1  0
 12 13  1  0
 13 14  1  0
 14 15  1  0
 15 16  1  0
 16 17  1  0
 17 18  2  0
 17 19  1  0
 19 20  1  0
 20 21  1  0
 21 22  1  0
 24 22  1  0
 22 25  2  0
 23 24  2  0
 23 27  1  0
 25 26  1  0
 26 27  2  0
 14 28  1  0
 28 29  1  0
 29 30  2  0
 29 31  1  0
 31 32  1  0
 32 33  1  0
 33 34  1  0
 39 34  1  0
 35 34  2  0
 35 36  1  0
 36 37  2  0
 37 38  1  0
 38 39  2  0
  1 40  1  0
  2 41  1  0
  3 42  1  0
  4 43  1  0
  6 44  1  0
  7 45  1  0
  7 46  1  0
  8 47  1  0
  8 48  1  0
  9 49  1  0
  9 50  1  0
 13 51  1  0
 13 52  1  0
 14 53  1  0
 15 54  1  0
 15 55  1  0
 19 56  1  0
 19 57  1  0
 20 58  1  0
 20 59  1  0
 21 60  1  0
 21 61  1  0
 23 62  1  0
 24 63  1  0
 25 64  1  0
 26 65  1  0
 27 66  1  0
 31 67  1  0
 31 68  1  0
 32 69  1  0
 32 70  1  0
 33 71  1  0
 33 72  1  0
 35 73  1  0
 36 74  1  0
 37 75  1  0
 38 76  1  0
 39 77  1  0
M  END
> <Uni-Dock RESULT> 
ENERGY=   -4.599  LOWER_BOUND=    3.533  UPPER_BOUND=    9.943
INTER + INTRA:          -4.599
INTER:                  -4.599
INTRA:                   0.000
UNBOUND:                 0.000

$$$$

     RDKit          3D

 77 79  0  0  0  0  0  0  0  0999 V2000
   44.4137    4.0138   12.7474 C   0  0  0  0  0  0  0  0  0  0  0  0
   43.2662    4.7918   12.8910 C   0  0  0  0  0  0  0  0  0  0  0  0
   43.2998    6.1460   12.5631 C   0  0  0  0  0  0  0  0  0  0  0  0
   44.4795    6.7225   12.0878 C   0  0  0  0  0  0  0  0  0  0  0  0
   45.6357    5.9465   11.9310 C   0  0  0  0  0  0  0  0  0  0  0  0
   45.5945    4.5879   12.2726 C   0  0  0  0  0  0  0  0  0  0  0  0
   46.9122    6.5688   11.4235 C   0  0  0  0  0  0  0  0  0  0  0  0
   47.6732    7.2975   12.5322 C   0  0  0  0  0  0  0  0  0  0  0  0
   48.9840    7.8708   12.0120 C   0  0  0  0  0  0  0  0  0  0  0  0
   49.7356    8.5851   13.1047 C   0  0  0  0  0  0  0  0  0  0  0  0
   50.6204    8.0719   13.7764 O   0  0  0  0  0  0  0  0  0  0  0  0
   49.2893    9.8646   13.2274 O   0  0  0  0  0  0  0  0  0  0  0  0
   49.9651   10.6993   14.1899 C   0  0  0  0  0  0  0  0  0  0  0  0
   49.2391   10.7022   15.5456 C   0  0  0  0  0  0  0  0  0  0  0  0
   49.7471   11.8489   16.4284 C   0  0  0  0  0  0  0  0  0  0  0  0
   49.4734   13.1320   15.8455 O   0  0  0  0  0  0  0  0  0  0  0  0
   48.2518   13.6571   16.1371 C   0  0  0  0  0  0  0  0  0  0  0  0
   47.3987   13.1100   16.8226 O   0  0  0  0  0  0  0  0  0  0  0  0
   48.0576   14.9867   15.4524 C   0  0  0  0  0  0  0  0  0  0  0  0
   49.1786   15.9719   15.7844 C   0  0  0  0  0  0  0  0  0  0  0  0
   48.8935   17.3931   15.2879 C   0  0  0  0  0  0  0  0  0  0  0  0
   48.7820   17.4909   13.7863 C   0  0  0  0  0  0  0  0  0  0  0  0
   47.4250   17.7084   11.7847 C   0  0  0  0  0  0  0  0  0  0  0  0
   47.5295   17.6390   13.1747 C   0  0  0  0  0  0  0  0  0  0  0  0
   49.9272   17.4160   12.9809 C   0  0  0  0  0  0  0  0  0  0  0  0
   49.8194   17.4852   11.5916 C   0  0  0  0  0  0  0  0  0  0  0  0
   48.5695   17.6307   10.9937 C   0  0  0  0  0  0  0  0  0  0  0  0
   49.5309    9.4811   16.2592 O   0  0  0  0  0  0  0  0  0  0  0  0
   48.5942    8.4968   16.2032 C   0  0  0  0  0  0  0  0  0  0  0  0
   47.5268    8.5646   15.6140 O   0  0  0  0  0  0  0  0  0  0  0  0
   49.0448    7.2986   16.9976 C   0  0  0  0  0  0  0  0  0  0  0  0
   48.4370    7.2901   18.3960 C   0  0  0  0  0  0  0  0  0  0  0  0
   49.0702    8.3435   19.3125 C   0  0  0  0  0  0  0  0  0  0  0  0
   48.5258    8.2583   20.7168 C   0  0  0  0  0  0  0  0  0  0  0  0
   49.0940    7.3752   21.6454 C   0  0  0  0  0  0  0  0  0  0  0  0
   48.5793    7.2832   22.9398 C   0  0  0  0  0  0  0  0  0  0  0  0
   47.4924    8.0708   23.3174 C   0  0  0  0  0  0  0  0  0  0  0  0
   46.9173    8.9482   22.3997 C   0  0  0  0  0  0  0  0  0  0  0  0
   47.4290    9.0401   21.1041 C   0  0  0  0  0  0  0  0  0  0  0  0
   44.3904    2.9593   13.0080 H   0  0  0  0  0  0  0  0  0  0  0  0
   42.3474    4.3441   13.2621 H   0  0  0  0  0  0  0  0  0  0  0  0
   42.4082    6.7559   12.6813 H   0  0  0  0  0  0  0  0  0  0  0  0
   44.4917    7.7825   11.8436 H   0  0  0  0  0  0  0  0  0  0  0  0
   46.4821    3.9683   12.1706 H   0  0  0  0  0  0  0  0  0  0  0  0
   47.5473    5.7906   10.9796 H   0  0  0  0  0  0  0  0  0  0  0  0
   46.6745    7.2644   10.6079 H   0  0  0  0  0  0  0  0  0  0  0  0
   47.8750    6.6115   13.3661 H   0  0  0  0  0  0  0  0  0  0  0  0
   47.0516    8.1040   12.9413 H   0  0  0  0  0  0  0  0  0  0  0  0
   48.8157    8.5656   11.1808 H   0  0  0  0  0  0  0  0  0  0  0  0
   49.6319    7.0762   11.6228 H   0  0  0  0  0  0  0  0  0  0  0  0
   49.9628   11.7038   13.7537 H   0  0  0  0  0  0  0  0  0  0  0  0
   51.0140   10.3975   14.2985 H   0  0  0  0  0  0  0  0  0  0  0  0
   48.1612   10.8187   15.3796 H   0  0  0  0  0  0  0  0  0  0  0  0
   50.8346   11.7750   16.5560 H   0  0  0  0  0  0  0  0  0  0  0  0
   49.3313   11.7763   17.4435 H   0  0  0  0  0  0  0  0  0  0  0  0
   47.0943   15.3937   15.7832 H   0  0  0  0  0  0  0  0  0  0  0  0
   47.9858   14.8006   14.3760 H   0  0  0  0  0  0  0  0  0  0  0  0
   49.3199   16.0054   16.8718 H   0  0  0  0  0  0  0  0  0  0  0  0
   50.1255   15.6117   15.3630 H   0  0  0  0  0  0  0  0  0  0  0  0
   49.7025   18.0595   15.6189 H   0  0  0  0  0  0  0  0  0  0  0  0
   47.9799   17.7773   15.7613 H   0  0  0  0  0  0  0  0  0  0  0  0
   46.4498   17.8210   11.3191 H   0  0  0  0  0  0  0  0  0  0  0  0
   46.6250   17.6990   13.7769 H   0  0  0  0  0  0  0  0  0  0  0  0
   50.9113   17.3052   13.4316 H   0  0  0  0  0  0  0  0  0  0  0  0
   50.7122   17.4251   10.9748 H   0  0  0  0  0  0  0  0  0  0  0  0
   48.4868   17.6867    9.9111 H   0  0  0  0  0  0  0  0  0  0  0  0
   50.1393    7.2627   17.0340 H   0  0  0  0  0  0  0  0  0  0  0  0
   48.7322    6.4050   16.4439 H   0  0  0  0  0  0  0  0  0  0  0  0
   47.3527    7.4529   18.3383 H   0  0  0  0  0  0  0  0  0  0  0  0
   48.5852    6.2927   18.8302 H   0  0  0  0  0  0  0  0  0  0  0  0
   48.8946    9.3533   18.9189 H   0  0  0  0  0  0  0  0  0  0  0  0
   50.1606    8.2144   19.3420 H   0  0  0  0  0  0  0  0  0  0  0  0
   49.9393    6.7509   21.3634 H   0  0  0  0  0  0  0  0  0  0  0  0
   49.0238    6.5945   23.6535 H   0  0  0  0  0  0  0  0  0  0  0  0
   47.0901    7.9977   24.3246 H   0  0  0  0  0  0  0  0  0  0  0  0
   46.0676    9.5604   22.6923 H   0  0  0  0  0  0  0  0  0  0  0  0
   46.9651    9.7262   20.3985 H   0  0  0  0  0  0  0  0  0  0  0  0
  1  2  2  0
  1  6  1  0
  2  3  1  0
  3  4  2  0
  4  5  1  0
  5  6  2  0
  5  7  1  0
  7  8  1  0
  8  9  1  0
  9 10  1  0
 10 11  2  0
 10 12  1  0
 12 13  1  0
 13 14  1  0
 14 15  1  0
 15 16  1  0
 16 17  1  0
 17 18  2  0
 17 19  1  0
 19 20  1  0
 20 21  1  0
 21 22  1  0
 24 22  1  0
 22 25  2  0
 23 24  2  0
 23 27  1  0
 25 26  1  0
 26 27  2  0
 14 28  1  0
 28 29  1  0
 29 30  2  0
 29 31  1  0
 31 32  1  0
 32 33  1  0
 33 34  1  0
 39 34  1  0
 35 34  2  0
 35 36  1  0
 36 37  2  0
 37 38  1  0
 38 39  2  0
  1 40  1  0
  2 41  1  0
  3 42  1  0
  4 43  1  0
  6 44  1  0
  7 45  1  0
  7 46  1  0
  8 47  1  0
  8 48  1  0
  9 49  1  0
  9 50  1  0
 13 51  1  0
 13 52  1  0
 14 53  1  0
 15 54  1  0
 15 55  1  0
 19 56  1  0
 19 57  1  0
 20 58  1  0
 20 59  1  0
 21 60  1  0
 21 61  1  0
 23 62  1  0
 24 63  1  0
 25 64  1  0
 26 65  1  0
 27 66  1  0
 31 67  1  0
 31 68  1  0
 32 69  1  0
 32 70  1  0
 33 71  1  0
 33 72  1  0
 35 73  1  0
 36 74  1  0
 37 75  1  0
 38 76  1  0
 39 77  1  0
M  END
> <Uni-Dock RESULT> 
ENERGY=   -4.581  LOWER_BOUND=    4.133  UPPER_BOUND=    9.231
INTER + INTRA:          -4.581
INTER:                  -4.581
INTRA:                   0.000
UNBOUND:                 0.000

$$$$

     RDKit          3D

 77 79  0  0  0  0  0  0  0  0999 V2000
   54.2245    5.0869    8.8752 C   0  0  0  0  0  0  0  0  0  0  0  0
   53.7852    5.3972    7.5893 C   0  0  0  0  0  0  0  0  0  0  0  0
   53.4690    6.7148    7.2625 C   0  0  0  0  0  0  0  0  0  0  0  0
   53.5956    7.7234    8.2198 C   0  0  0  0  0  0  0  0  0  0  0  0
   54.0457    7.4229    9.5125 C   0  0  0  0  0  0  0  0  0  0  0  0
   54.3517    6.0936    9.8341 C   0  0  0  0  0  0  0  0  0  0  0  0
   54.1772    8.5101   10.5492 C   0  0  0  0  0  0  0  0  0  0  0  0
   52.8349    8.8426   11.2026 C   0  0  0  0  0  0  0  0  0  0  0  0
   52.9987    9.9021   12.2834 C   0  0  0  0  0  0  0  0  0  0  0  0
   51.6775   10.2268   12.9298 C   0  0  0  0  0  0  0  0  0  0  0  0
   51.2786    9.7165   13.9681 O   0  0  0  0  0  0  0  0  0  0  0  0
   51.0084   11.1577   12.1969 O   0  0  0  0  0  0  0  0  0  0  0  0
   49.7518   11.6241   12.7294 C   0  0  0  0  0  0  0  0  0  0  0  0
   48.5640   10.8412   12.1453 C   0  0  0  0  0  0  0  0  0  0  0  0
   47.2441   11.5678   12.4326 C   0  0  0  0  0  0  0  0  0  0  0  0
   47.1978   12.8577   11.8043 O   0  0  0  0  0  0  0  0  0  0  0  0
   46.7423   12.8663   10.5216 C   0  0  0  0  0  0  0  0  0  0  0  0
   46.4039   11.8740    9.8908 O   0  0  0  0  0  0  0  0  0  0  0  0
   46.7634   14.2616    9.9497 C   0  0  0  0  0  0  0  0  0  0  0  0
   45.9876   15.2502   10.8207 C   0  0  0  0  0  0  0  0  0  0  0  0
   45.8026   16.6177   10.1551 C   0  0  0  0  0  0  0  0  0  0  0  0
   47.1034   17.3363    9.8930 C   0  0  0  0  0  0  0  0  0  0  0  0
   48.8382   18.0581    8.3554 C   0  0  0  0  0  0  0  0  0  0  0  0
   47.6246   17.4116    8.5941 C   0  0  0  0  0  0  0  0  0  0  0  0
   47.8182   17.9218   10.9474 C   0  0  0  0  0  0  0  0  0  0  0  0
   49.0314   18.5671   10.7057 C   0  0  0  0  0  0  0  0  0  0  0  0
   49.5415   18.6348    9.4110 C   0  0  0  0  0  0  0  0  0  0  0  0
   48.4651    9.5515   12.7874 O   0  0  0  0  0  0  0  0  0  0  0  0
   48.9879    8.4893   12.1182 C   0  0  0  0  0  0  0  0  0  0  0  0
   49.5190    8.5334   11.0196 O   0  0  0  0  0  0  0  0  0  0  0  0
   48.8012    7.2244   12.9151 C   0  0  0  0  0  0  0  0  0  0  0  0
   47.5765    6.4433   12.4517 C   0  0  0  0  0  0  0  0  0  0  0  0
   46.2642    7.1070   12.8855 C   0  0  0  0  0  0  0  0  0  0  0  0
   45.0665    6.2737   12.5026 C   0  0  0  0  0  0  0  0  0  0  0  0
   44.6147    5.2506   13.3477 C   0  0  0  0  0  0  0  0  0  0  0  0
   43.5171    4.4676   12.9856 C   0  0  0  0  0  0  0  0  0  0  0  0
   42.8625    4.6985   11.7762 C   0  0  0  0  0  0  0  0  0  0  0  0
   43.3073    5.7101   10.9268 C   0  0  0  0  0  0  0  0  0  0  0  0
   44.4061    6.4927   11.2860 C   0  0  0  0  0  0  0  0  0  0  0  0
   54.4658    4.0594    9.1328 H   0  0  0  0  0  0  0  0  0  0  0  0
   53.6851    4.6123    6.8435 H   0  0  0  0  0  0  0  0  0  0  0  0
   53.1193    6.9576    6.2628 H   0  0  0  0  0  0  0  0  0  0  0  0
   53.3376    8.7456    7.9515 H   0  0  0  0  0  0  0  0  0  0  0  0
   54.6914    5.8342   10.8338 H   0  0  0  0  0  0  0  0  0  0  0  0
   54.9018    8.2004   11.3141 H   0  0  0  0  0  0  0  0  0  0  0  0
   54.6013    9.4071   10.0790 H   0  0  0  0  0  0  0  0  0  0  0  0
   52.3914    7.9365   11.6375 H   0  0  0  0  0  0  0  0  0  0  0  0
   52.1282    9.1954   10.4409 H   0  0  0  0  0  0  0  0  0  0  0  0
   53.4347   10.8231   11.8789 H   0  0  0  0  0  0  0  0  0  0  0  0
   53.6814    9.5575   13.0694 H   0  0  0  0  0  0  0  0  0  0  0  0
   49.6906   12.6795   12.4440 H   0  0  0  0  0  0  0  0  0  0  0  0
   49.7555   11.5863   13.8257 H   0  0  0  0  0  0  0  0  0  0  0  0
   48.6956   10.7376   11.0614 H   0  0  0  0  0  0  0  0  0  0  0  0
   47.1273   11.7275   13.5121 H   0  0  0  0  0  0  0  0  0  0  0  0
   46.3839   10.9502   12.1370 H   0  0  0  0  0  0  0  0  0  0  0  0
   46.3172   14.2178    8.9488 H   0  0  0  0  0  0  0  0  0  0  0  0
   47.8106   14.5585    9.8324 H   0  0  0  0  0  0  0  0  0  0  0  0
   44.9968   14.8351   11.0435 H   0  0  0  0  0  0  0  0  0  0  0  0
   46.4942   15.3700   11.7866 H   0  0  0  0  0  0  0  0  0  0  0  0
   45.1811   17.2524   10.8024 H   0  0  0  0  0  0  0  0  0  0  0  0
   45.2377   16.5042    9.2200 H   0  0  0  0  0  0  0  0  0  0  0  0
   49.2358   18.1098    7.3455 H   0  0  0  0  0  0  0  0  0  0  0  0
   47.0898   16.9647    7.7582 H   0  0  0  0  0  0  0  0  0  0  0  0
   47.4329   17.8806   11.9641 H   0  0  0  0  0  0  0  0  0  0  0  0
   49.5796   19.0173   11.5290 H   0  0  0  0  0  0  0  0  0  0  0  0
   50.4858   19.1398    9.2234 H   0  0  0  0  0  0  0  0  0  0  0  0
   48.7486    7.4589   13.9841 H   0  0  0  0  0  0  0  0  0  0  0  0
   49.7071    6.6204   12.7833 H   0  0  0  0  0  0  0  0  0  0  0  0
   47.5909    6.3300   11.3596 H   0  0  0  0  0  0  0  0  0  0  0  0
   47.6315    5.4324   12.8761 H   0  0  0  0  0  0  0  0  0  0  0  0
   46.1683    8.1037   12.4352 H   0  0  0  0  0  0  0  0  0  0  0  0
   46.2597    7.2633   13.9728 H   0  0  0  0  0  0  0  0  0  0  0  0
   45.1187    5.0558   14.2921 H   0  0  0  0  0  0  0  0  0  0  0  0
   43.1742    3.6748   13.6451 H   0  0  0  0  0  0  0  0  0  0  0  0
   42.0092    4.0875   11.4931 H   0  0  0  0  0  0  0  0  0  0  0  0
   42.7994    5.8887    9.9821 H   0  0  0  0  0  0  0  0  0  0  0  0
   44.7437    7.2748   10.6091 H   0  0  0  0  0  0  0  0  0  0  0  0
  1  2  2  0
  1  6  1  0
  2  3  1  0
  3  4  2  0
  4  5  1  0
  5  6  2  0
  5  7  1  0
  7  8  1  0
  8  9  1  0
  9 10  1  0
 10 11  2  0
 10 12  1  0
 12 13  1  0
 13 14  1  0
 14 15  1  0
 15 16  1  0
 16 17  1  0
 17 18  2  0
 17 19  1  0
 19 20  1  0
 20 21  1  0
 21 22  1  0
 24 22  1  0
 22 25  2  0
 23 24  2  0
 23 27  1  0
 25 26  1  0
 26 27  2  0
 14 28  1  0
 28 29  1  0
 29 30  2  0
 29 31  1  0
 31 32  1  0
 32 33  1  0
 33 34  1  0
 39 34  1  0
 35 34  2  0
 35 36  1  0
 36 37  2  0
 37 38  1  0
 38 39  2  0
  1 40  1  0
  2 41  1  0
  3 42  1  0
  4 43  1  0
  6 44  1  0
  7 45  1  0
  7 46  1  0
  8 47  1  0
  8 48  1  0
  9 49  1  0
  9 50  1  0
 13 51  1  0
 13 52  1  0
 14 53  1  0
 15 54  1  0
 15 55  1  0
 19 56  1  0
 19 57  1  0
 20 58  1  0
 20 59  1  0
 21 60  1  0
 21 61  1  0
 23 62  1  0
 24 63  1  0
 25 64  1  0
 26 65  1  0
 27 66  1  0
 31 67  1  0
 31 68  1  0
 32 69  1  0
 32 70  1  0
 33 71  1  0
 33 72  1  0
 35 73  1  0
 36 74  1  0
 37 75  1  0
 38 76  1  0
 39 77  1  0
M  END
> <Uni-Dock RESULT> 
ENERGY=   -4.472  LOWER_BOUND=    4.903  UPPER_BOUND=    8.779
INTER + INTRA:          -4.472
INTER:                  -4.472
INTRA:                   0.000
UNBOUND:                 0.000

$$$$

     RDKit          3D

 77 79  0  0  0  0  0  0  0  0999 V2000
   44.0312    6.1993   12.5281 C   0  0  0  0  0  0  0  0  0  0  0  0
   44.8117    6.8926   11.6046 C   0  0  0  0  0  0  0  0  0  0  0  0
   46.1642    6.5844   11.4682 C   0  0  0  0  0  0  0  0  0  0  0  0
   46.7362    5.5804   12.2521 C   0  0  0  0  0  0  0  0  0  0  0  0
   45.9576    4.8712   13.1765 C   0  0  0  0  0  0  0  0  0  0  0  0
   44.6009    5.1951   13.3132 C   0  0  0  0  0  0  0  0  0  0  0  0
   46.5752    3.7907   14.0281 C   0  0  0  0  0  0  0  0  0  0  0  0
   47.3086    4.3672   15.2401 C   0  0  0  0  0  0  0  0  0  0  0  0
   47.8771    3.2588   16.1152 C   0  0  0  0  0  0  0  0  0  0  0  0
   48.5960    3.8261   17.3111 C   0  0  0  0  0  0  0  0  0  0  0  0
   48.0850    3.9689   18.4138 O   0  0  0  0  0  0  0  0  0  0  0  0
   49.8769    4.1485   16.9840 O   0  0  0  0  0  0  0  0  0  0  0  0
   50.7157    4.6403   18.0492 C   0  0  0  0  0  0  0  0  0  0  0  0
   50.7269    6.1773   18.0972 C   0  0  0  0  0  0  0  0  0  0  0  0
   51.8776    6.6822   18.9767 C   0  0  0  0  0  0  0  0  0  0  0  0
   53.1579    6.3070   18.4468 O   0  0  0  0  0  0  0  0  0  0  0  0
   53.6865    7.1668   17.5334 C   0  0  0  0  0  0  0  0  0  0  0  0
   53.1444    8.1897   17.1374 O   0  0  0  0  0  0  0  0  0  0  0  0
   55.0127    6.6635   17.0214 C   0  0  0  0  0  0  0  0  0  0  0  0
   55.9980    6.3858   18.1571 C   0  0  0  0  0  0  0  0  0  0  0  0
   57.4169    6.0904   17.6602 C   0  0  0  0  0  0  0  0  0  0  0  0
   57.5069    4.8447   16.8135 C   0  0  0  0  0  0  0  0  0  0  0  0
   57.7157    3.7872   14.6380 C   0  0  0  0  0  0  0  0  0  0  0  0
   57.6536    4.9396   15.4229 C   0  0  0  0  0  0  0  0  0  0  0  0
   57.4258    3.5754   17.4035 C   0  0  0  0  0  0  0  0  0  0  0  0
   57.4878    2.4253   16.6162 C   0  0  0  0  0  0  0  0  0  0  0  0
   57.6320    2.5308   15.2345 C   0  0  0  0  0  0  0  0  0  0  0  0
   49.5092    6.6563   18.7081 O   0  0  0  0  0  0  0  0  0  0  0  0
   48.5261    7.0810   17.8698 C   0  0  0  0  0  0  0  0  0  0  0  0
   48.5925    7.1032   16.6508 O   0  0  0  0  0  0  0  0  0  0  0  0
   47.3315    7.5507   18.6587 C   0  0  0  0  0  0  0  0  0  0  0  0
   47.3314    9.0657   18.8305 C   0  0  0  0  0  0  0  0  0  0  0  0
   48.3888    9.5378   19.8354 C   0  0  0  0  0  0  0  0  0  0  0  0
   48.3119   11.0267   20.0652 C   0  0  0  0  0  0  0  0  0  0  0  0
   47.4329   11.5523   21.0224 C   0  0  0  0  0  0  0  0  0  0  0  0
   47.3486   12.9312   21.2232 C   0  0  0  0  0  0  0  0  0  0  0  0
   48.1400   13.7969   20.4690 C   0  0  0  0  0  0  0  0  0  0  0  0
   49.0133   13.2844   19.5113 C   0  0  0  0  0  0  0  0  0  0  0  0
   49.0975   11.9058   19.3074 C   0  0  0  0  0  0  0  0  0  0  0  0
   42.9781    6.4424   12.6395 H   0  0  0  0  0  0  0  0  0  0  0  0
   44.3675    7.6754   10.9946 H   0  0  0  0  0  0  0  0  0  0  0  0
   46.7761    7.1288   10.7540 H   0  0  0  0  0  0  0  0  0  0  0  0
   47.7949    5.3570   12.1392 H   0  0  0  0  0  0  0  0  0  0  0  0
   43.9794    4.6668   14.0320 H   0  0  0  0  0  0  0  0  0  0  0  0
   45.7936    3.0931   14.3577 H   0  0  0  0  0  0  0  0  0  0  0  0
   47.2668    3.1990   13.4139 H   0  0  0  0  0  0  0  0  0  0  0  0
   46.6268    4.9925   15.8324 H   0  0  0  0  0  0  0  0  0  0  0  0
   48.1183    5.0276   14.9049 H   0  0  0  0  0  0  0  0  0  0  0  0
   48.5677    2.6190   15.5533 H   0  0  0  0  0  0  0  0  0  0  0  0
   47.0794    2.6023   16.4832 H   0  0  0  0  0  0  0  0  0  0  0  0
   51.7178    4.2581   17.8279 H   0  0  0  0  0  0  0  0  0  0  0  0
   50.4128    4.2121   19.0125 H   0  0  0  0  0  0  0  0  0  0  0  0
   50.8442    6.5712   17.0803 H   0  0  0  0  0  0  0  0  0  0  0  0
   51.8026    6.2500   19.9828 H   0  0  0  0  0  0  0  0  0  0  0  0
   51.8110    7.7697   19.1236 H   0  0  0  0  0  0  0  0  0  0  0  0
   55.4230    7.4289   16.3516 H   0  0  0  0  0  0  0  0  0  0  0  0
   54.8209    5.7677   16.4219 H   0  0  0  0  0  0  0  0  0  0  0  0
   56.0370    7.2572   18.8225 H   0  0  0  0  0  0  0  0  0  0  0  0
   55.6340    5.5498   18.7675 H   0  0  0  0  0  0  0  0  0  0  0  0
   58.0838    5.9695   18.5255 H   0  0  0  0  0  0  0  0  0  0  0  0
   57.8051    6.9547   17.1046 H   0  0  0  0  0  0  0  0  0  0  0  0
   57.8274    3.8703   13.5604 H   0  0  0  0  0  0  0  0  0  0  0  0
   57.7183    5.9127   14.9399 H   0  0  0  0  0  0  0  0  0  0  0  0
   57.3159    3.4750   18.4814 H   0  0  0  0  0  0  0  0  0  0  0  0
   57.4230    1.4454   17.0817 H   0  0  0  0  0  0  0  0  0  0  0  0
   57.6824    1.6339   14.6222 H   0  0  0  0  0  0  0  0  0  0  0  0
   47.2941    7.0357   19.6251 H   0  0  0  0  0  0  0  0  0  0  0  0
   46.4354    7.2319   18.1125 H   0  0  0  0  0  0  0  0  0  0  0  0
   47.4955    9.5564   17.8620 H   0  0  0  0  0  0  0  0  0  0  0  0
   46.3361    9.3733   19.1770 H   0  0  0  0  0  0  0  0  0  0  0  0
   49.3967    9.2791   19.4854 H   0  0  0  0  0  0  0  0  0  0  0  0
   48.2581    9.0195   20.7949 H   0  0  0  0  0  0  0  0  0  0  0  0
   46.8058   10.8891   21.6148 H   0  0  0  0  0  0  0  0  0  0  0  0
   46.6630   13.3311   21.9656 H   0  0  0  0  0  0  0  0  0  0  0  0
   48.0728   14.8708   20.6237 H   0  0  0  0  0  0  0  0  0  0  0  0
   49.6283   13.9588   18.9205 H   0  0  0  0  0  0  0  0  0  0  0  0
   49.7805   11.5225   18.5522 H   0  0  0  0  0  0  0  0  0  0  0  0
  1  2  2  0
  1  6  1  0
  2  3  1  0
  3  4  2  0
  4  5  1  0
  5  6  2  0
  5  7  1  0
  7  8  1  0
  8  9  1  0
  9 10  1  0
 10 11  2  0
 10 12  1  0
 12 13  1  0
 13 14  1  0
 14 15  1  0
 15 16  1  0
 16 17  1  0
 17 18  2  0
 17 19  1  0
 19 20  1  0
 20 21  1  0
 21 22  1  0
 24 22  1  0
 22 25  2  0
 23 24  2  0
 23 27  1  0
 25 26  1  0
 26 27  2  0
 14 28  1  0
 28 29  1  0
 29 30  2  0
 29 31  1  0
 31 32  1  0
 32 33  1  0
 33 34  1  0
 39 34  1  0
 35 34  2  0
 35 36  1  0
 36 37  2  0
 37 38  1  0
 38 39  2  0
  1 40  1  0
  2 41  1  0
  3 42  1  0
  4 43  1  0
  6 44  1  0
  7 45  1  0
  7 46  1  0
  8 47  1  0
  8 48  1  0
  9 49  1  0
  9 50  1  0
 13 51  1  0
 13 52  1  0
 14 53  1  0
 15 54  1  0
 15 55  1  0
 19 56  1  0
 19 57  1  0
 20 58  1  0
 20 59  1  0
 21 60  1  0
 21 61  1  0
 23 62  1  0
 24 63  1  0
 25 64  1  0
 26 65  1  0
 27 66  1  0
 31 67  1  0
 31 68  1  0
 32 69  1  0
 32 70  1  0
 33 71  1  0
 33 72  1  0
 35 73  1  0
 36 74  1  0
 37 75  1  0
 38 76  1  0
 39 77  1  0
M  END
> <Uni-Dock RESULT> 
ENERGY=   -4.300  LOWER_BOUND=    3.663  UPPER_BOUND=    9.462
INTER + INTRA:          -4.300
INTER:                  -4.300
INTRA:                   0.000
UNBOUND:                 0.000

$$$$

     RDKit          3D

 77 79  0  0  0  0  0  0  0  0999 V2000
   42.7927    5.3403   11.8763 C   0  0  0  0  0  0  0  0  0  0  0  0
   43.1442    4.6669   10.7076 C   0  0  0  0  0  0  0  0  0  0  0  0
   44.4099    4.0954   10.5894 C   0  0  0  0  0  0  0  0  0  0  0  0
   45.3235    4.1932   11.6408 C   0  0  0  0  0  0  0  0  0  0  0  0
   44.9761    4.8598   12.8235 C   0  0  0  0  0  0  0  0  0  0  0  0
   43.7045    5.4395   12.9289 C   0  0  0  0  0  0  0  0  0  0  0  0
   45.9637    4.9715   13.9577 C   0  0  0  0  0  0  0  0  0  0  0  0
   46.9668    6.1040   13.7329 C   0  0  0  0  0  0  0  0  0  0  0  0
   47.9192    6.2351   14.9131 C   0  0  0  0  0  0  0  0  0  0  0  0
   48.9047    7.3530   14.6938 C   0  0  0  0  0  0  0  0  0  0  0  0
   48.7584    8.4897   15.1229 O   0  0  0  0  0  0  0  0  0  0  0  0
   49.9631    6.9136   13.9603 O   0  0  0  0  0  0  0  0  0  0  0  0
   51.0290    7.8567   13.7272 C   0  0  0  0  0  0  0  0  0  0  0  0
   50.8617    8.5785   12.3797 C   0  0  0  0  0  0  0  0  0  0  0  0
   52.1596    9.2940   11.9849 C   0  0  0  0  0  0  0  0  0  0  0  0
   53.2405    8.3693   11.7916 O   0  0  0  0  0  0  0  0  0  0  0  0
   53.3377    7.8377   10.5422 C   0  0  0  0  0  0  0  0  0  0  0  0
   52.5735    8.0767    9.6170 O   0  0  0  0  0  0  0  0  0  0  0  0
   54.4835    6.8608   10.4579 C   0  0  0  0  0  0  0  0  0  0  0  0
   55.8062    7.4888   10.8980 C   0  0  0  0  0  0  0  0  0  0  0  0
   57.0177    6.5957   10.6120 C   0  0  0  0  0  0  0  0  0  0  0  0
   56.9888    5.2890   11.3660 C   0  0  0  0  0  0  0  0  0  0  0  0
   56.6241    2.8889   11.4077 C   0  0  0  0  0  0  0  0  0  0  0  0
   56.6712    4.0942   10.7056 C   0  0  0  0  0  0  0  0  0  0  0  0
   57.2604    5.2542   12.7410 C   0  0  0  0  0  0  0  0  0  0  0  0
   57.2121    4.0478   13.4402 C   0  0  0  0  0  0  0  0  0  0  0  0
   56.8936    2.8662   12.7746 C   0  0  0  0  0  0  0  0  0  0  0  0
   49.8523    9.6047   12.4967 O   0  0  0  0  0  0  0  0  0  0  0  0
   48.6081    9.2987   12.0410 C   0  0  0  0  0  0  0  0  0  0  0  0
   48.2788    8.2389   11.5317 O   0  0  0  0  0  0  0  0  0  0  0  0
   47.6784   10.4692   12.2295 C   0  0  0  0  0  0  0  0  0  0  0  0
   47.5427   11.2910   10.9523 C   0  0  0  0  0  0  0  0  0  0  0  0
   48.7971   12.1221   10.6587 C   0  0  0  0  0  0  0  0  0  0  0  0
   48.6111   13.0004    9.4464 C   0  0  0  0  0  0  0  0  0  0  0  0
   48.0246   14.2674    9.5717 C   0  0  0  0  0  0  0  0  0  0  0  0
   47.8361   15.0734    8.4476 C   0  0  0  0  0  0  0  0  0  0  0  0
   48.2301   14.6206    7.1889 C   0  0  0  0  0  0  0  0  0  0  0  0
   48.8095   13.3603    7.0533 C   0  0  0  0  0  0  0  0  0  0  0  0
   48.9968   12.5518    8.1759 C   0  0  0  0  0  0  0  0  0  0  0  0
   41.8084    5.7911   11.9676 H   0  0  0  0  0  0  0  0  0  0  0  0
   42.4339    4.5912    9.8878 H   0  0  0  0  0  0  0  0  0  0  0  0
   44.6885    3.5764    9.6762 H   0  0  0  0  0  0  0  0  0  0  0  0
   46.3102    3.7485   11.5302 H   0  0  0  0  0  0  0  0  0  0  0  0
   43.4163    5.9720   13.8320 H   0  0  0  0  0  0  0  0  0  0  0  0
   45.4223    5.1296   14.9000 H   0  0  0  0  0  0  0  0  0  0  0  0
   46.4918    4.0156   14.0710 H   0  0  0  0  0  0  0  0  0  0  0  0
   46.4366    7.0537   13.5787 H   0  0  0  0  0  0  0  0  0  0  0  0
   47.5374    5.9180   12.8142 H   0  0  0  0  0  0  0  0  0  0  0  0
   48.4692    5.3033   15.0898 H   0  0  0  0  0  0  0  0  0  0  0  0
   47.3698    6.4484   15.8380 H   0  0  0  0  0  0  0  0  0  0  0  0
   51.9479    7.2610   13.7295 H   0  0  0  0  0  0  0  0  0  0  0  0
   51.1056    8.5704   14.5566 H   0  0  0  0  0  0  0  0  0  0  0  0
   50.5980    7.8467   11.6064 H   0  0  0  0  0  0  0  0  0  0  0  0
   52.4644    9.9895   12.7773 H   0  0  0  0  0  0  0  0  0  0  0  0
   52.0072    9.9198   11.0940 H   0  0  0  0  0  0  0  0  0  0  0  0
   54.5591    6.5256    9.4163 H   0  0  0  0  0  0  0  0  0  0  0  0
   54.2247    5.9893   11.0679 H   0  0  0  0  0  0  0  0  0  0  0  0
   55.9455    8.4423   10.3735 H   0  0  0  0  0  0  0  0  0  0  0  0
   55.7640    7.7304   11.9675 H   0  0  0  0  0  0  0  0  0  0  0  0
   57.9355    7.1341   10.8879 H   0  0  0  0  0  0  0  0  0  0  0  0
   57.0966    6.4084    9.5326 H   0  0  0  0  0  0  0  0  0  0  0  0
   56.3748    1.9679   10.8880 H   0  0  0  0  0  0  0  0  0  0  0  0
   56.4556    4.0938    9.6388 H   0  0  0  0  0  0  0  0  0  0  0  0
   57.5136    6.1674   13.2758 H   0  0  0  0  0  0  0  0  0  0  0  0
   57.4229    4.0301   14.5063 H   0  0  0  0  0  0  0  0  0  0  0  0
   56.8584    1.9263   13.3199 H   0  0  0  0  0  0  0  0  0  0  0  0
   48.0163   11.0849   13.0706 H   0  0  0  0  0  0  0  0  0  0  0  0
   46.7025   10.0651   12.5247 H   0  0  0  0  0  0  0  0  0  0  0  0
   47.3263   10.6331   10.1003 H   0  0  0  0  0  0  0  0  0  0  0  0
   46.6796   11.9603   11.0632 H   0  0  0  0  0  0  0  0  0  0  0  0
   49.6649   11.4685   10.5000 H   0  0  0  0  0  0  0  0  0  0  0  0
   49.0456   12.7522   11.5234 H   0  0  0  0  0  0  0  0  0  0  0  0
   47.7077   14.6319   10.5467 H   0  0  0  0  0  0  0  0  0  0  0  0
   47.3785   16.0537    8.5525 H   0  0  0  0  0  0  0  0  0  0  0  0
   48.0814   15.2472    6.3132 H   0  0  0  0  0  0  0  0  0  0  0  0
   49.1140   13.0050    6.0718 H   0  0  0  0  0  0  0  0  0  0  0  0
   49.4458   11.5685    8.0520 H   0  0  0  0  0  0  0  0  0  0  0  0
  1  2  2  0
  1  6  1  0
  2  3  1  0
  3  4  2  0
  4  5  1  0
  5  6  2  0
  5  7  1  0
  7  8  1  0
  8  9  1  0
  9 10  1  0
 10 11  2  0
 10 12  1  0
 12 13  1  0
 13 14  1  0
 14 15  1  0
 15 16  1  0
 16 17  1  0
 17 18  2  0
 17 19  1  0
 19 20  1  0
 20 21  1  0
 21 22  1  0
 24 22  1  0
 22 25  2  0
 23 24  2  0
 23 27  1  0
 25 26  1  0
 26 27  2  0
 14 28  1  0
 28 29  1  0
 29 30  2  0
 29 31  1  0
 31 32  1  0
 32 33  1  0
 33 34  1  0
 39 34  1  0
 35 34  2  0
 35 36  1  0
 36 37  2  0
 37 38  1  0
 38 39  2  0
  1 40  1  0
  2 41  1  0
  3 42  1  0
  4 43  1  0
  6 44  1  0
  7 45  1  0
  7 46  1  0
  8 47  1  0
  8 48  1  0
  9 49  1  0
  9 50  1  0
 13 51  1  0
 13 52  1  0
 14 53  1  0
 15 54  1  0
 15 55  1  0
 19 56  1  0
 19 57  1  0
 20 58  1  0
 20 59  1  0
 21 60  1  0
 21 61  1  0
 23 62  1  0
 24 63  1  0
 25 64  1  0
 26 65  1  0
 27 66  1  0
 31 67  1  0
 31 68  1  0
 32 69  1  0
 32 70  1  0
 33 71  1  0
 33 72  1  0
 35 73  1  0
 36 74  1  0
 37 75  1  0
 38 76  1  0
 39 77  1  0
M  END
> <Uni-Dock RESULT> 
ENERGY=   -4.266  LOWER_BOUND=    3.258  UPPER_BOUND=    9.909
INTER + INTRA:          -4.266
INTER:                  -4.266
INTRA:                   0.000
UNBOUND:                 0.000

$$$$

     RDKit          3D

 77 79  0  0  0  0  0  0  0  0999 V2000
   47.9443    3.1397   16.5418 C   0  0  0  0  0  0  0  0  0  0  0  0
   49.1140    2.6038   17.0779 C   0  0  0  0  0  0  0  0  0  0  0  0
   50.0033    3.4272   17.7663 C   0  0  0  0  0  0  0  0  0  0  0  0
   49.7219    4.7859   17.9226 C   0  0  0  0  0  0  0  0  0  0  0  0
   48.5439    5.3322   17.3955 C   0  0  0  0  0  0  0  0  0  0  0  0
   47.6608    4.4980   16.6966 C   0  0  0  0  0  0  0  0  0  0  0  0
   48.2414    6.8006   17.5583 C   0  0  0  0  0  0  0  0  0  0  0  0
   48.9797    7.6542   16.5261 C   0  0  0  0  0  0  0  0  0  0  0  0
   48.6184    9.1258   16.6724 C   0  0  0  0  0  0  0  0  0  0  0  0
   49.3423    9.9663   15.6533 C   0  0  0  0  0  0  0  0  0  0  0  0
   48.8629   10.3061   14.5798 O   0  0  0  0  0  0  0  0  0  0  0  0
   50.5870   10.2850   16.1011 O   0  0  0  0  0  0  0  0  0  0  0  0
   51.3785   11.1498   15.2610 C   0  0  0  0  0  0  0  0  0  0  0  0
   52.3123   10.3456   14.3411 C   0  0  0  0  0  0  0  0  0  0  0  0
   53.3832   11.2567   13.7282 C   0  0  0  0  0  0  0  0  0  0  0  0
   54.2352   11.8282   14.7324 O   0  0  0  0  0  0  0  0  0  0  0  0
   55.3077   11.0696   15.0888 C   0  0  0  0  0  0  0  0  0  0  0  0
   55.5651    9.9624   14.6361 O   0  0  0  0  0  0  0  0  0  0  0  0
   56.1151   11.7476   16.1671 C   0  0  0  0  0  0  0  0  0  0  0  0
   56.5434   13.1582   15.7615 C   0  0  0  0  0  0  0  0  0  0  0  0
   57.5470   13.7829   16.7362 C   0  0  0  0  0  0  0  0  0  0  0  0
   56.9900   13.9777   18.1250 C   0  0  0  0  0  0  0  0  0  0  0  0
   56.8414   13.2937   20.4499 C   0  0  0  0  0  0  0  0  0  0  0  0
   57.3729   13.1261   19.1703 C   0  0  0  0  0  0  0  0  0  0  0  0
   56.0674   15.0009   18.3850 C   0  0  0  0  0  0  0  0  0  0  0  0
   55.5375   15.1657   19.6651 C   0  0  0  0  0  0  0  0  0  0  0  0
   55.9235   14.3126   20.6967 C   0  0  0  0  0  0  0  0  0  0  0  0
   51.5598    9.8029   13.2344 O   0  0  0  0  0  0  0  0  0  0  0  0
   51.1773    8.5014   13.3299 C   0  0  0  0  0  0  0  0  0  0  0  0
   51.4273    7.7541   14.2626 O   0  0  0  0  0  0  0  0  0  0  0  0
   50.4102    8.0890   12.1005 C   0  0  0  0  0  0  0  0  0  0  0  0
   51.3030    7.3690   11.0958 C   0  0  0  0  0  0  0  0  0  0  0  0
   52.2622    8.3263   10.3786 C   0  0  0  0  0  0  0  0  0  0  0  0
   53.0705    7.6152    9.3219 C   0  0  0  0  0  0  0  0  0  0  0  0
   52.5582    7.4518    8.0273 C   0  0  0  0  0  0  0  0  0  0  0  0
   53.2983    6.7785    7.0539 C   0  0  0  0  0  0  0  0  0  0  0  0
   54.5554    6.2614    7.3651 C   0  0  0  0  0  0  0  0  0  0  0  0
   55.0713    6.4142    8.6509 C   0  0  0  0  0  0  0  0  0  0  0  0
   54.3317    7.0853    9.6264 C   0  0  0  0  0  0  0  0  0  0  0  0
   47.2530    2.5001   16.0001 H   0  0  0  0  0  0  0  0  0  0  0  0
   49.3346    1.5461   16.9557 H   0  0  0  0  0  0  0  0  0  0  0  0
   50.9193    3.0128   18.1785 H   0  0  0  0  0  0  0  0  0  0  0  0
   50.4297    5.4169   18.4558 H   0  0  0  0  0  0  0  0  0  0  0  0
   46.7463    4.9013   16.2686 H   0  0  0  0  0  0  0  0  0  0  0  0
   47.1583    6.9623   17.4753 H   0  0  0  0  0  0  0  0  0  0  0  0
   48.5153    7.1145   18.5742 H   0  0  0  0  0  0  0  0  0  0  0  0
   48.7370    7.3133   15.5104 H   0  0  0  0  0  0  0  0  0  0  0  0
   50.0630    7.5245   16.6432 H   0  0  0  0  0  0  0  0  0  0  0  0
   48.8544    9.4986   17.6760 H   0  0  0  0  0  0  0  0  0  0  0  0
   47.5419    9.2806   16.5317 H   0  0  0  0  0  0  0  0  0  0  0  0
   51.9623   11.7680   15.9511 H   0  0  0  0  0  0  0  0  0  0  0  0
   50.7363   11.8277   14.6855 H   0  0  0  0  0  0  0  0  0  0  0  0
   52.7969    9.5510   14.9212 H   0  0  0  0  0  0  0  0  0  0  0  0
   52.9100   12.0887   13.1912 H   0  0  0  0  0  0  0  0  0  0  0  0
   53.9686   10.7184   12.9692 H   0  0  0  0  0  0  0  0  0  0  0  0
   57.0012   11.1299   16.3575 H   0  0  0  0  0  0  0  0  0  0  0  0
   55.5130   11.7530   17.0815 H   0  0  0  0  0  0  0  0  0  0  0  0
   57.0015   13.1241   14.7653 H   0  0  0  0  0  0  0  0  0  0  0  0
   55.6598   13.8023   15.6709 H   0  0  0  0  0  0  0  0  0  0  0  0
   57.8630   14.7621   16.3497 H   0  0  0  0  0  0  0  0  0  0  0  0
   58.4585   13.1713   16.7762 H   0  0  0  0  0  0  0  0  0  0  0  0
   57.1423   12.6275   21.2537 H   0  0  0  0  0  0  0  0  0  0  0  0
   58.0868   12.3237   18.9949 H   0  0  0  0  0  0  0  0  0  0  0  0
   55.7572   15.6777   17.5915 H   0  0  0  0  0  0  0  0  0  0  0  0
   54.8220   15.9607   19.8576 H   0  0  0  0  0  0  0  0  0  0  0  0
   55.5117   14.4432   21.6943 H   0  0  0  0  0  0  0  0  0  0  0  0
   49.9221    8.9618   11.6526 H   0  0  0  0  0  0  0  0  0  0  0  0
   49.6003    7.4266   12.4294 H   0  0  0  0  0  0  0  0  0  0  0  0
   51.8756    6.5777   11.5974 H   0  0  0  0  0  0  0  0  0  0  0  0
   50.6603    6.8747   10.3557 H   0  0  0  0  0  0  0  0  0  0  0  0
   52.9450    8.7987   11.0970 H   0  0  0  0  0  0  0  0  0  0  0  0
   51.7004    9.1454    9.9098 H   0  0  0  0  0  0  0  0  0  0  0  0
   51.5767    7.8457    7.7715 H   0  0  0  0  0  0  0  0  0  0  0  0
   52.8933    6.6539    6.0531 H   0  0  0  0  0  0  0  0  0  0  0  0
   55.1309    5.7351    6.6079 H   0  0  0  0  0  0  0  0  0  0  0  0
   56.0500    6.0085    8.8954 H   0  0  0  0  0  0  0  0  0  0  0  0
   54.7468    7.1914   10.6266 H   0  0  0  0  0  0  0  0  0  0  0  0
  1  2  2  0
  1  6  1  0
  2  3  1  0
  3  4  2  0
  4  5  1  0
  5  6  2  0
  5  7  1  0
  7  8  1  0
  8  9  1  0
  9 10  1  0
 10 11  2  0
 10 12  1  0
 12 13  1  0
 13 14  1  0
 14 15  1  0
 15 16  1  0
 16 17  1  0
 17 18  2  0
 17 19  1  0
 19 20  1  0
 20 21  1  0
 21 22  1  0
 24 22  1  0
 22 25  2  0
 23 24  2  0
 23 27  1  0
 25 26  1  0
 26 27  2  0
 14 28  1  0
 28 29  1  0
 29 30  2  0
 29 31  1  0
 31 32  1  0
 32 33  1  0
 33 34  1  0
 39 34  1  0
 35 34  2  0
 35 36  1  0
 36 37  2  0
 37 38  1  0
 38 39  2  0
  1 40  1  0
  2 41  1  0
  3 42  1  0
  4 43  1  0
  6 44  1  0
  7 45  1  0
  7 46  1  0
  8 47  1  0
  8 48  1  0
  9 49  1  0
  9 50  1  0
 13 51  1  0
 13 52  1  0
 14 53  1  0
 15 54  1  0
 15 55  1  0
 19 56  1  0
 19 57  1  0
 20 58  1  0
 20 59  1  0
 21 60  1  0
 21 61  1  0
 23 62  1  0
 24 63  1  0
 25 64  1  0
 26 65  1  0
 27 66  1  0
 31 67  1  0
 31 68  1  0
 32 69  1  0
 32 70  1  0
 33 71  1  0
 33 72  1  0
 35 73  1  0
 36 74  1  0
 37 75  1  0
 38 76  1  0
 39 77  1  0
M  END
> <Uni-Dock RESULT> 
ENERGY=   -4.148  LOWER_BOUND=    4.505  UPPER_BOUND=   11.635
INTER + INTRA:          -4.148
INTER:                  -4.148
INTRA:                   0.000
UNBOUND:                 0.000

$$$$
