
     RDKit          3D

 77 79  0  0  0  0  0  0  0  0999 V2000
   38.4932   16.8071   13.7357 C   0  0  0  0  0  0  0  0  0  0  0  0
   37.7980   16.7915   14.9434 C   0  0  0  0  0  0  0  0  0  0  0  0
   38.3707   16.2005   16.0686 C   0  0  0  0  0  0  0  0  0  0  0  0
   39.6394   15.6237   15.9871 C   0  0  0  0  0  0  0  0  0  0  0  0
   40.3441   15.6296   14.7767 C   0  0  0  0  0  0  0  0  0  0  0  0
   39.7614   16.2302   13.6522 C   0  0  0  0  0  0  0  0  0  0  0  0
   41.7259   15.0298   14.6874 C   0  0  0  0  0  0  0  0  0  0  0  0
   42.8065   16.0942   14.9057 C   0  0  0  0  0  0  0  0  0  0  0  0
   44.2217   15.5249   14.8192 C   0  0  0  0  0  0  0  0  0  0  0  0
   44.6681   15.2624   13.3986 C   0  0  0  0  0  0  0  0  0  0  0  0
   43.9437   15.2498   12.4155 O   0  0  0  0  0  0  0  0  0  0  0  0
   46.0081   15.0129   13.3835 O   0  0  0  0  0  0  0  0  0  0  0  0
   46.6005   14.7885   12.0943 C   0  0  0  0  0  0  0  0  0  0  0  0
   47.1089   13.3518   11.9615 C   0  0  0  0  0  0  0  0  0  0  0  0
   45.9678   12.3304   12.0288 C   0  0  0  0  0  0  0  0  0  0  0  0
   46.5339   11.0086   11.9691 O   0  0  0  0  0  0  0  0  0  0  0  0
   45.6483    9.9935   12.1617 C   0  0  0  0  0  0  0  0  0  0  0  0
   44.4569   10.1383   12.3913 O   0  0  0  0  0  0  0  0  0  0  0  0
   46.3769    8.6731   12.0687 C   0  0  0  0  0  0  0  0  0  0  0  0
   45.4125    7.4929   11.9801 C   0  0  0  0  0  0  0  0  0  0  0  0
   46.1724    6.1706   11.8672 C   0  0  0  0  0  0  0  0  0  0  0  0
   45.2358    4.9966   11.7359 C   0  0  0  0  0  0  0  0  0  0  0  0
   43.8603    3.2750   12.7531 C   0  0  0  0  0  0  0  0  0  0  0  0
   44.7411    4.3507   12.8763 C   0  0  0  0  0  0  0  0  0  0  0  0
   44.8247    4.5545   10.4713 C   0  0  0  0  0  0  0  0  0  0  0  0
   43.9433    3.4790   10.3499 C   0  0  0  0  0  0  0  0  0  0  0  0
   43.4622    2.8393   11.4903 C   0  0  0  0  0  0  0  0  0  0  0  0
   47.7542   13.2489   10.6709 O   0  0  0  0  0  0  0  0  0  0  0  0
   48.9164   12.5429   10.6173 C   0  0  0  0  0  0  0  0  0  0  0  0
   49.4662   12.0060   11.5681 O   0  0  0  0  0  0  0  0  0  0  0  0
   49.4171   12.5019    9.1941 C   0  0  0  0  0  0  0  0  0  0  0  0
   50.9382   12.3735    9.0972 C   0  0  0  0  0  0  0  0  0  0  0  0
   51.7297   13.4934    9.7875 C   0  0  0  0  0  0  0  0  0  0  0  0
   51.3580   14.8819    9.3312 C   0  0  0  0  0  0  0  0  0  0  0  0
   50.6936   15.7584   10.2003 C   0  0  0  0  0  0  0  0  0  0  0  0
   50.3317   17.0374    9.7759 C   0  0  0  0  0  0  0  0  0  0  0  0
   50.6351   17.4547    8.4814 C   0  0  0  0  0  0  0  0  0  0  0  0
   51.3008   16.5940    7.6113 C   0  0  0  0  0  0  0  0  0  0  0  0
   51.6613   15.3134    8.0331 C   0  0  0  0  0  0  0  0  0  0  0  0
   38.0494   17.2694   12.8579 H   0  0  0  0  0  0  0  0  0  0  0  0
   36.8102   17.2400   15.0087 H   0  0  0  0  0  0  0  0  0  0  0  0
   37.8286   16.1893   17.0104 H   0  0  0  0  0  0  0  0  0  0  0  0
   40.0742   15.1699   16.8742 H   0  0  0  0  0  0  0  0  0  0  0  0
   40.2964   16.2518   12.7044 H   0  0  0  0  0  0  0  0  0  0  0  0
   41.8292   14.2317   15.4333 H   0  0  0  0  0  0  0  0  0  0  0  0
   41.8387   14.5439   13.7120 H   0  0  0  0  0  0  0  0  0  0  0  0
   42.6721   16.5361   15.9011 H   0  0  0  0  0  0  0  0  0  0  0  0
   42.6867   16.9111   14.1830 H   0  0  0  0  0  0  0  0  0  0  0  0
   44.3037   14.5958   15.3933 H   0  0  0  0  0  0  0  0  0  0  0  0
   44.9106   16.2633   15.2466 H   0  0  0  0  0  0  0  0  0  0  0  0
   47.4486   15.4786   12.0075 H   0  0  0  0  0  0  0  0  0  0  0  0
   45.9336   15.0431   11.2616 H   0  0  0  0  0  0  0  0  0  0  0  0
   47.8165   13.1510   12.7754 H   0  0  0  0  0  0  0  0  0  0  0  0
   45.4096   12.4417   12.9645 H   0  0  0  0  0  0  0  0  0  0  0  0
   45.2950   12.4540   11.1727 H   0  0  0  0  0  0  0  0  0  0  0  0
   47.0169    8.5745   12.9529 H   0  0  0  0  0  0  0  0  0  0  0  0
   47.0085    8.6919   11.1722 H   0  0  0  0  0  0  0  0  0  0  0  0
   44.7619    7.4769   12.8641 H   0  0  0  0  0  0  0  0  0  0  0  0
   44.7507    7.6235   11.1144 H   0  0  0  0  0  0  0  0  0  0  0  0
   46.8470    6.1942   11.0021 H   0  0  0  0  0  0  0  0  0  0  0  0
   46.8144    6.0272   12.7455 H   0  0  0  0  0  0  0  0  0  0  0  0
   43.4811    2.7795   13.6427 H   0  0  0  0  0  0  0  0  0  0  0  0
   45.0370    4.6844   13.8682 H   0  0  0  0  0  0  0  0  0  0  0  0
   45.1868    5.0476    9.5725 H   0  0  0  0  0  0  0  0  0  0  0  0
   43.6293    3.1426    9.3653 H   0  0  0  0  0  0  0  0  0  0  0  0
   42.7745    2.0034   11.3957 H   0  0  0  0  0  0  0  0  0  0  0  0
   49.0877   13.4049    8.6677 H   0  0  0  0  0  0  0  0  0  0  0  0
   48.9432   11.6447    8.7032 H   0  0  0  0  0  0  0  0  0  0  0  0
   51.2106   12.3358    8.0352 H   0  0  0  0  0  0  0  0  0  0  0  0
   51.2509   11.4146    9.5299 H   0  0  0  0  0  0  0  0  0  0  0  0
   51.6180   13.4141   10.8748 H   0  0  0  0  0  0  0  0  0  0  0  0
   52.7994   13.3423    9.5959 H   0  0  0  0  0  0  0  0  0  0  0  0
   50.4542   15.4503   11.2158 H   0  0  0  0  0  0  0  0  0  0  0  0
   49.8177   17.7104   10.4567 H   0  0  0  0  0  0  0  0  0  0  0  0
   50.3565   18.4523    8.1525 H   0  0  0  0  0  0  0  0  0  0  0  0
   51.5427   16.9215    6.6036 H   0  0  0  0  0  0  0  0  0  0  0  0
   52.1820   14.6539    7.3428 H   0  0  0  0  0  0  0  0  0  0  0  0
  1  2  2  0
  1  6  1  0
  2  3  1  0
  3  4  2  0
  4  5  1  0
  5  6  2  0
  5  7  1  0
  7  8  1  0
  8  9  1  0
  9 10  1  0
 10 11  2  0
 10 12  1  0
 12 13  1  0
 13 14  1  0
 14 15  1  0
 15 16  1  0
 16 17  1  0
 17 18  2  0
 17 19  1  0
 19 20  1  0
 20 21  1  0
 21 22  1  0
 24 22  1  0
 22 25  2  0
 23 24  2  0
 23 27  1  0
 25 26  1  0
 26 27  2  0
 14 28  1  0
 28 29  1  0
 29 30  2  0
 29 31  1  0
 31 32  1  0
 32 33  1  0
 33 34  1  0
 39 34  1  0
 35 34  2  0
 35 36  1  0
 36 37  2  0
 37 38  1  0
 38 39  2  0
  1 40  1  0
  2 41  1  0
  3 42  1  0
  4 43  1  0
  6 44  1  0
  7 45  1  0
  7 46  1  0
  8 47  1  0
  8 48  1  0
  9 49  1  0
  9 50  1  0
 13 51  1  0
 13 52  1  0
 14 53  1  0
 15 54  1  0
 15 55  1  0
 19 56  1  0
 19 57  1  0
 20 58  1  0
 20 59  1  0
 21 60  1  0
 21 61  1  0
 23 62  1  0
 24 63  1  0
 25 64  1  0
 26 65  1  0
 27 66  1  0
 31 67  1  0
 31 68  1  0
 32 69  1  0
 32 70  1  0
 33 71  1  0
 33 72  1  0
 35 73  1  0
 36 74  1  0
 37 75  1  0
 38 76  1  0
 39 77  1  0
M  END
> <Uni-Dock RESULT> 
ENERGY=   -5.102  LOWER_BOUND=    0.000  UPPER_BOUND=    0.000
INTER + INTRA:          -5.102
INTER:                  -5.102
INTRA:                   0.000
UNBOUND:                 0.000

$$$$

     RDKit          3D

 77 79  0  0  0  0  0  0  0  0999 V2000
   57.0502    2.9900   17.2711 C   0  0  0  0  0  0  0  0  0  0  0  0
   57.9249    2.5105   16.2979 C   0  0  0  0  0  0  0  0  0  0  0  0
   57.9246    3.0743   15.0231 C   0  0  0  0  0  0  0  0  0  0  0  0
   57.0487    4.1182   14.7196 C   0  0  0  0  0  0  0  0  0  0  0  0
   56.1621    4.6038   15.6890 C   0  0  0  0  0  0  0  0  0  0  0  0
   56.1733    4.0330   16.9692 C   0  0  0  0  0  0  0  0  0  0  0  0
   55.2298    5.7482   15.3755 C   0  0  0  0  0  0  0  0  0  0  0  0
   55.8444    7.0910   15.7846 C   0  0  0  0  0  0  0  0  0  0  0  0
   54.9272    8.2756   15.4855 C   0  0  0  0  0  0  0  0  0  0  0  0
   53.7943    8.4121   16.4777 C   0  0  0  0  0  0  0  0  0  0  0  0
   53.4548    7.5669   17.2913 O   0  0  0  0  0  0  0  0  0  0  0  0
   53.1864    9.6202   16.3081 O   0  0  0  0  0  0  0  0  0  0  0  0
   52.1122    9.9261   17.2112 C   0  0  0  0  0  0  0  0  0  0  0  0
   50.7755   10.0118   16.4724 C   0  0  0  0  0  0  0  0  0  0  0  0
   50.3720    8.6669   15.8573 C   0  0  0  0  0  0  0  0  0  0  0  0
   49.1473    8.8490   15.1240 O   0  0  0  0  0  0  0  0  0  0  0  0
   48.7412    7.7685   14.4033 C   0  0  0  0  0  0  0  0  0  0  0  0
   49.3432    6.7074   14.3335 O   0  0  0  0  0  0  0  0  0  0  0  0
   47.4495    8.1007   13.6933 C   0  0  0  0  0  0  0  0  0  0  0  0
   46.7827    6.8581   13.1082 C   0  0  0  0  0  0  0  0  0  0  0  0
   45.4690    7.2165   12.4124 C   0  0  0  0  0  0  0  0  0  0  0  0
   44.7746    5.9955   11.8650 C   0  0  0  0  0  0  0  0  0  0  0  0
   44.4338    4.3900   10.0770 C   0  0  0  0  0  0  0  0  0  0  0  0
   45.0647    5.5309   10.5756 C   0  0  0  0  0  0  0  0  0  0  0  0
   43.8511    5.2923   12.6500 C   0  0  0  0  0  0  0  0  0  0  0  0
   43.2216    4.1513   12.1499 C   0  0  0  0  0  0  0  0  0  0  0  0
   43.5123    3.7011   10.8638 C   0  0  0  0  0  0  0  0  0  0  0  0
   49.7781   10.3998   17.4457 O   0  0  0  0  0  0  0  0  0  0  0  0
   48.8505   11.3125   17.0476 C   0  0  0  0  0  0  0  0  0  0  0  0
   48.8013   11.8420   15.9468 O   0  0  0  0  0  0  0  0  0  0  0  0
   47.8706   11.5587   18.1689 C   0  0  0  0  0  0  0  0  0  0  0  0
   47.2553   12.9584   18.1309 C   0  0  0  0  0  0  0  0  0  0  0  0
   48.2647   14.1135   18.1959 C   0  0  0  0  0  0  0  0  0  0  0  0
   49.1932   14.0542   19.3827 C   0  0  0  0  0  0  0  0  0  0  0  0
   50.5571   13.7863   19.2016 C   0  0  0  0  0  0  0  0  0  0  0  0
   51.4161   13.7125   20.2987 C   0  0  0  0  0  0  0  0  0  0  0  0
   50.9217   13.9111   21.5864 C   0  0  0  0  0  0  0  0  0  0  0  0
   49.5689   14.1842   21.7774 C   0  0  0  0  0  0  0  0  0  0  0  0
   48.7077   14.2558   20.6816 C   0  0  0  0  0  0  0  0  0  0  0  0
   57.0505    2.5532   18.2663 H   0  0  0  0  0  0  0  0  0  0  0  0
   58.6074    1.6978   16.5323 H   0  0  0  0  0  0  0  0  0  0  0  0
   58.6075    2.7007   14.2647 H   0  0  0  0  0  0  0  0  0  0  0  0
   57.0629    4.5501   13.7220 H   0  0  0  0  0  0  0  0  0  0  0  0
   55.4972    4.4017   17.7387 H   0  0  0  0  0  0  0  0  0  0  0  0
   55.0001    5.7519   14.3026 H   0  0  0  0  0  0  0  0  0  0  0  0
   54.2752    5.5770   15.8850 H   0  0  0  0  0  0  0  0  0  0  0  0
   56.7829    7.2330   15.2339 H   0  0  0  0  0  0  0  0  0  0  0  0
   56.1066    7.0800   16.8501 H   0  0  0  0  0  0  0  0  0  0  0  0
   54.5068    8.1980   14.4771 H   0  0  0  0  0  0  0  0  0  0  0  0
   55.5263    9.1919   15.5463 H   0  0  0  0  0  0  0  0  0  0  0  0
   52.3382   10.9018   17.6583 H   0  0  0  0  0  0  0  0  0  0  0  0
   52.0453    9.2292   18.0555 H   0  0  0  0  0  0  0  0  0  0  0  0
   50.8609   10.7587   15.6734 H   0  0  0  0  0  0  0  0  0  0  0  0
   51.1509    8.3092   15.1754 H   0  0  0  0  0  0  0  0  0  0  0  0
   50.1929    7.9263   16.6450 H   0  0  0  0  0  0  0  0  0  0  0  0
   47.6736    8.8209   12.8982 H   0  0  0  0  0  0  0  0  0  0  0  0
   46.7706    8.5686   14.4166 H   0  0  0  0  0  0  0  0  0  0  0  0
   47.4625    6.3710   12.3972 H   0  0  0  0  0  0  0  0  0  0  0  0
   46.6002    6.1284   13.9074 H   0  0  0  0  0  0  0  0  0  0  0  0
   44.7982    7.7315   13.1117 H   0  0  0  0  0  0  0  0  0  0  0  0
   45.6546    7.9260   11.5961 H   0  0  0  0  0  0  0  0  0  0  0  0
   44.6645    4.0362    9.0759 H   0  0  0  0  0  0  0  0  0  0  0  0
   45.7870    6.0537    9.9530 H   0  0  0  0  0  0  0  0  0  0  0  0
   43.6186    5.6279   13.6577 H   0  0  0  0  0  0  0  0  0  0  0  0
   42.5067    3.6115   12.7655 H   0  0  0  0  0  0  0  0  0  0  0  0
   43.0237    2.8117   10.4755 H   0  0  0  0  0  0  0  0  0  0  0  0
   48.3727   11.4011   19.1302 H   0  0  0  0  0  0  0  0  0  0  0  0
   47.0789   10.8060   18.0850 H   0  0  0  0  0  0  0  0  0  0  0  0
   46.5493   13.0438   18.9663 H   0  0  0  0  0  0  0  0  0  0  0  0
   46.6628   13.0709   17.2140 H   0  0  0  0  0  0  0  0  0  0  0  0
   48.8457   14.1543   17.2675 H   0  0  0  0  0  0  0  0  0  0  0  0
   47.7159   15.0629   18.2344 H   0  0  0  0  0  0  0  0  0  0  0  0
   50.9603   13.6342   18.2027 H   0  0  0  0  0  0  0  0  0  0  0  0
   52.4722   13.5052   20.1489 H   0  0  0  0  0  0  0  0  0  0  0  0
   51.5916   13.8573   22.4403 H   0  0  0  0  0  0  0  0  0  0  0  0
   49.1842   14.3449   22.7811 H   0  0  0  0  0  0  0  0  0  0  0  0
   47.6547   14.4715   20.8469 H   0  0  0  0  0  0  0  0  0  0  0  0
  1  2  2  0
  1  6  1  0
  2  3  1  0
  3  4  2  0
  4  5  1  0
  5  6  2  0
  5  7  1  0
  7  8  1  0
  8  9  1  0
  9 10  1  0
 10 11  2  0
 10 12  1  0
 12 13  1  0
 13 14  1  0
 14 15  1  0
 15 16  1  0
 16 17  1  0
 17 18  2  0
 17 19  1  0
 19 20  1  0
 20 21  1  0
 21 22  1  0
 24 22  1  0
 22 25  2  0
 23 24  2  0
 23 27  1  0
 25 26  1  0
 26 27  2  0
 14 28  1  0
 28 29  1  0
 29 30  2  0
 29 31  1  0
 31 32  1  0
 32 33  1  0
 33 34  1  0
 39 34  1  0
 35 34  2  0
 35 36  1  0
 36 37  2  0
 37 38  1  0
 38 39  2  0
  1 40  1  0
  2 41  1  0
  3 42  1  0
  4 43  1  0
  6 44  1  0
  7 45  1  0
  7 46  1  0
  8 47  1  0
  8 48  1  0
  9 49  1  0
  9 50  1  0
 13 51  1  0
 13 52  1  0
 14 53  1  0
 15 54  1  0
 15 55  1  0
 19 56  1  0
 19 57  1  0
 20 58  1  0
 20 59  1  0
 21 60  1  0
 21 61  1  0
 23 62  1  0
 24 63  1  0
 25 64  1  0
 26 65  1  0
 27 66  1  0
 31 67  1  0
 31 68  1  0
 32 69  1  0
 32 70  1  0
 33 71  1  0
 33 72  1  0
 35 73  1  0
 36 74  1  0
 37 75  1  0
 38 76  1  0
 39 77  1  0
M  END
> <Uni-Dock RESULT> 
ENERGY=   -5.089  LOWER_BOUND=    7.386  UPPER_BOUND=   11.978
INTER + INTRA:          -5.089
INTER:                  -5.089
INTRA:                   0.000
UNBOUND:                 0.000

$$$$

     RDKit          3D

 77 79  0  0  0  0  0  0  0  0999 V2000
   55.1002    1.5023   19.7284 C   0  0  0  0  0  0  0  0  0  0  0  0
   56.0168    0.7537   18.9925 C   0  0  0  0  0  0  0  0  0  0  0  0
   56.3807    1.1634   17.7108 C   0  0  0  0  0  0  0  0  0  0  0  0
   55.8278    2.3223   17.1630 C   0  0  0  0  0  0  0  0  0  0  0  0
   54.9018    3.0789   17.8923 C   0  0  0  0  0  0  0  0  0  0  0  0
   54.5458    2.6609   19.1820 C   0  0  0  0  0  0  0  0  0  0  0  0
   54.3187    4.3459   17.3164 C   0  0  0  0  0  0  0  0  0  0  0  0
   55.1233    5.5745   17.7539 C   0  0  0  0  0  0  0  0  0  0  0  0
   54.5607    6.8792   17.1924 C   0  0  0  0  0  0  0  0  0  0  0  0
   53.3185    7.3479   17.9160 C   0  0  0  0  0  0  0  0  0  0  0  0
   52.6549    6.6820   18.6957 O   0  0  0  0  0  0  0  0  0  0  0  0
   53.0326    8.6275   17.5436 O   0  0  0  0  0  0  0  0  0  0  0  0
   51.9004    9.2396   18.1813 C   0  0  0  0  0  0  0  0  0  0  0  0
   50.7791    9.5106   17.1766 C   0  0  0  0  0  0  0  0  0  0  0  0
   50.2152    8.2151   16.5821 C   0  0  0  0  0  0  0  0  0  0  0  0
   49.2211    8.5582   15.5997 O   0  0  0  0  0  0  0  0  0  0  0  0
   48.7324    7.5090   14.8840 C   0  0  0  0  0  0  0  0  0  0  0  0
   49.0900    6.3475   15.0117 O   0  0  0  0  0  0  0  0  0  0  0  0
   47.7026    8.0142   13.9004 C   0  0  0  0  0  0  0  0  0  0  0  0
   46.9033    6.8744   13.2736 C   0  0  0  0  0  0  0  0  0  0  0  0
   45.8555    7.4110   12.2975 C   0  0  0  0  0  0  0  0  0  0  0  0
   45.0273    6.3019   11.7003 C   0  0  0  0  0  0  0  0  0  0  0  0
   44.6881    4.6120    9.9916 C   0  0  0  0  0  0  0  0  0  0  0  0
   45.4472    5.6505   10.5333 C   0  0  0  0  0  0  0  0  0  0  0  0
   43.8411    5.8884   12.3212 C   0  0  0  0  0  0  0  0  0  0  0  0
   43.0835    4.8493   11.7784 C   0  0  0  0  0  0  0  0  0  0  0  0
   43.5066    4.2122   10.6137 C   0  0  0  0  0  0  0  0  0  0  0  0
   49.7251   10.1949   17.8933 O   0  0  0  0  0  0  0  0  0  0  0  0
   49.1119   11.2262   17.2511 C   0  0  0  0  0  0  0  0  0  0  0  0
   49.3886   11.6312   16.1314 O   0  0  0  0  0  0  0  0  0  0  0  0
   48.0157   11.7849   18.1252 C   0  0  0  0  0  0  0  0  0  0  0  0
   47.7397   13.2670   17.8669 C   0  0  0  0  0  0  0  0  0  0  0  0
   48.9463   14.1960   18.0633 C   0  0  0  0  0  0  0  0  0  0  0  0
   49.5979   14.0815   19.4185 C   0  0  0  0  0  0  0  0  0  0  0  0
   50.8793   13.5272   19.5432 C   0  0  0  0  0  0  0  0  0  0  0  0
   51.4781   13.4028   20.7973 C   0  0  0  0  0  0  0  0  0  0  0  0
   50.8047   13.8360   21.9379 C   0  0  0  0  0  0  0  0  0  0  0  0
   49.5332   14.3942   21.8249 C   0  0  0  0  0  0  0  0  0  0  0  0
   48.9316   14.5171   20.5716 C   0  0  0  0  0  0  0  0  0  0  0  0
   54.8169    1.1858   20.7288 H   0  0  0  0  0  0  0  0  0  0  0  0
   56.4482   -0.1489   19.4173 H   0  0  0  0  0  0  0  0  0  0  0  0
   57.0961    0.5798   17.1376 H   0  0  0  0  0  0  0  0  0  0  0  0
   56.1243    2.6310   16.1636 H   0  0  0  0  0  0  0  0  0  0  0  0
   53.8337    3.2395   19.7678 H   0  0  0  0  0  0  0  0  0  0  0  0
   54.3025    4.2785   16.2213 H   0  0  0  0  0  0  0  0  0  0  0  0
   53.2711    4.4266   17.6265 H   0  0  0  0  0  0  0  0  0  0  0  0
   56.1569    5.4643   17.4022 H   0  0  0  0  0  0  0  0  0  0  0  0
   55.1705    5.6276   18.8489 H   0  0  0  0  0  0  0  0  0  0  0  0
   54.3319    6.7779   16.1261 H   0  0  0  0  0  0  0  0  0  0  0  0
   55.3231    7.6577   17.3152 H   0  0  0  0  0  0  0  0  0  0  0  0
   52.2455   10.1929   18.5996 H   0  0  0  0  0  0  0  0  0  0  0  0
   51.5244    8.6667   19.0377 H   0  0  0  0  0  0  0  0  0  0  0  0
   51.1752   10.1333   16.3649 H   0  0  0  0  0  0  0  0  0  0  0  0
   51.0115    7.6360   16.1024 H   0  0  0  0  0  0  0  0  0  0  0  0
   49.7329    7.6161   17.3629 H   0  0  0  0  0  0  0  0  0  0  0  0
   48.2250    8.5835   13.1231 H   0  0  0  0  0  0  0  0  0  0  0  0
   47.0183    8.6849   14.4340 H   0  0  0  0  0  0  0  0  0  0  0  0
   47.5820    6.1861   12.7535 H   0  0  0  0  0  0  0  0  0  0  0  0
   46.4180    6.2880   14.0642 H   0  0  0  0  0  0  0  0  0  0  0  0
   45.1937    8.1234   12.8063 H   0  0  0  0  0  0  0  0  0  0  0  0
   46.3426    7.9753   11.4923 H   0  0  0  0  0  0  0  0  0  0  0  0
   45.0208    4.1118    9.0862 H   0  0  0  0  0  0  0  0  0  0  0  0
   46.3707    5.9465   10.0411 H   0  0  0  0  0  0  0  0  0  0  0  0
   43.5014    6.3718   13.2339 H   0  0  0  0  0  0  0  0  0  0  0  0
   42.1648    4.5346   12.2665 H   0  0  0  0  0  0  0  0  0  0  0  0
   42.9178    3.4020   10.1925 H   0  0  0  0  0  0  0  0  0  0  0  0
   48.2801   11.6358   19.1783 H   0  0  0  0  0  0  0  0  0  0  0  0
   47.1090   11.2019   17.9289 H   0  0  0  0  0  0  0  0  0  0  0  0
   46.9247   13.5831   18.5297 H   0  0  0  0  0  0  0  0  0  0  0  0
   47.3705   13.3953   16.8415 H   0  0  0  0  0  0  0  0  0  0  0  0
   49.6869   14.0178   17.2754 H   0  0  0  0  0  0  0  0  0  0  0  0
   48.6212   15.2346   17.9236 H   0  0  0  0  0  0  0  0  0  0  0  0
   51.4208   13.1891   18.6623 H   0  0  0  0  0  0  0  0  0  0  0  0
   52.4721   12.9726   20.8844 H   0  0  0  0  0  0  0  0  0  0  0  0
   51.2729   13.7424   22.9141 H   0  0  0  0  0  0  0  0  0  0  0  0
   49.0104   14.7376   22.7137 H   0  0  0  0  0  0  0  0  0  0  0  0
   47.9394   14.9566   20.4997 H   0  0  0  0  0  0  0  0  0  0  0  0
  1  2  2  0
  1  6  1  0
  2  3  1  0
  3  4  2  0
  4  5  1  0
  5  6  2  0
  5  7  1  0
  7  8  1  0
  8  9  1  0
  9 10  1  0
 10 11  2  0
 10 12  1  0
 12 13  1  0
 13 14  1  0
 14 15  1  0
 15 16  1  0
 16 17  1  0
 17 18  2  0
 17 19  1  0
 19 20  1  0
 20 21  1  0
 21 22  1  0
 24 22  1  0
 22 25  2  0
 23 24  2  0
 23 27  1  0
 25 26  1  0
 26 27  2  0
 14 28  1  0
 28 29  1  0
 29 30  2  0
 29 31  1  0
 31 32  1  0
 32 33  1  0
 33 34  1  0
 39 34  1  0
 35 34  2  0
 35 36  1  0
 36 37  2  0
 37 38  1  0
 38 39  2  0
  1 40  1  0
  2 41  1  0
  3 42  1  0
  4 43  1  0
  6 44  1  0
  7 45  1  0
  7 46  1  0
  8 47  1  0
  8 48  1  0
  9 49  1  0
  9 50  1  0
 13 51  1  0
 13 52  1  0
 14 53  1  0
 15 54  1  0
 15 55  1  0
 19 56  1  0
 19 57  1  0
 20 58  1  0
 20 59  1  0
 21 60  1  0
 21 61  1  0
 23 62  1  0
 24 63  1  0
 25 64  1  0
 26 65  1  0
 27 66  1  0
 31 67  1  0
 31 68  1  0
 32 69  1  0
 32 70  1  0
 33 71  1  0
 33 72  1  0
 35 73  1  0
 36 74  1  0
 37 75  1  0
 38 76  1  0
 39 77  1  0
M  END
> <Uni-Dock RESULT> 
ENERGY=   -4.864  LOWER_BOUND=    7.743  UPPER_BOUND=   12.169
INTER + INTRA:          -4.864
INTER:                  -4.864
INTRA:                   0.000
UNBOUND:                 0.000

$$$$

     RDKit          3D

 77 79  0  0  0  0  0  0  0  0999 V2000
   48.6915   12.7485    6.3346 C   0  0  0  0  0  0  0  0  0  0  0  0
   47.6026   12.4380    5.5222 C   0  0  0  0  0  0  0  0  0  0  0  0
   46.3519   12.2072    6.0928 C   0  0  0  0  0  0  0  0  0  0  0  0
   46.1888   12.2859    7.4771 C   0  0  0  0  0  0  0  0  0  0  0  0
   47.2779   12.5922    8.3027 C   0  0  0  0  0  0  0  0  0  0  0  0
   48.5304   12.8269    7.7188 C   0  0  0  0  0  0  0  0  0  0  0  0
   47.1038   12.7032    9.7975 C   0  0  0  0  0  0  0  0  0  0  0  0
   46.8398   14.1529   10.2180 C   0  0  0  0  0  0  0  0  0  0  0  0
   46.6610   14.3065   11.7274 C   0  0  0  0  0  0  0  0  0  0  0  0
   47.9674   14.2503   12.4868 C   0  0  0  0  0  0  0  0  0  0  0  0
   49.0390   13.8797   12.0333 O   0  0  0  0  0  0  0  0  0  0  0  0
   47.7619   14.6534   13.7726 O   0  0  0  0  0  0  0  0  0  0  0  0
   48.9215   14.7018   14.6188 C   0  0  0  0  0  0  0  0  0  0  0  0
   48.8322   13.6646   15.7397 C   0  0  0  0  0  0  0  0  0  0  0  0
   48.8283   12.2311   15.1968 C   0  0  0  0  0  0  0  0  0  0  0  0
   48.6704   11.3241   16.3028 O   0  0  0  0  0  0  0  0  0  0  0  0
   48.5065   10.0180   15.9579 C   0  0  0  0  0  0  0  0  0  0  0  0
   48.4687    9.5963   14.8116 O   0  0  0  0  0  0  0  0  0  0  0  0
   48.3578    9.1872   17.2112 C   0  0  0  0  0  0  0  0  0  0  0  0
   48.4654    7.6919   16.9220 C   0  0  0  0  0  0  0  0  0  0  0  0
   48.3315    6.8736   18.2069 C   0  0  0  0  0  0  0  0  0  0  0  0
   48.4779    5.3958   17.9468 C   0  0  0  0  0  0  0  0  0  0  0  0
   47.5021    3.2551   17.3504 C   0  0  0  0  0  0  0  0  0  0  0  0
   47.3619    4.6197   17.6081 C   0  0  0  0  0  0  0  0  0  0  0  0
   49.7373    4.7849   18.0119 C   0  0  0  0  0  0  0  0  0  0  0  0
   49.8757    3.4203   17.7534 C   0  0  0  0  0  0  0  0  0  0  0  0
   48.7585    2.6559   17.4236 C   0  0  0  0  0  0  0  0  0  0  0  0
   49.9979   13.8452   16.5772 O   0  0  0  0  0  0  0  0  0  0  0  0
   49.8097   13.7606   17.9223 C   0  0  0  0  0  0  0  0  0  0  0  0
   48.7394   13.5632   18.4791 O   0  0  0  0  0  0  0  0  0  0  0  0
   51.1333   13.9257   18.6287 C   0  0  0  0  0  0  0  0  0  0  0  0
   50.9941   14.5183   20.0319 C   0  0  0  0  0  0  0  0  0  0  0  0
   50.3134   15.8932   20.0916 C   0  0  0  0  0  0  0  0  0  0  0  0
   50.9576   16.9381   19.2156 C   0  0  0  0  0  0  0  0  0  0  0  0
   50.2882   17.4235   18.0838 C   0  0  0  0  0  0  0  0  0  0  0  0
   50.8884   18.3769   17.2606 C   0  0  0  0  0  0  0  0  0  0  0  0
   52.1606   18.8584   17.5635 C   0  0  0  0  0  0  0  0  0  0  0  0
   52.8325   18.3875   18.6895 C   0  0  0  0  0  0  0  0  0  0  0  0
   52.2348   17.4320   19.5125 C   0  0  0  0  0  0  0  0  0  0  0  0
   49.6669   12.9311    5.8914 H   0  0  0  0  0  0  0  0  0  0  0  0
   47.7278   12.3761    4.4444 H   0  0  0  0  0  0  0  0  0  0  0  0
   45.5028   11.9659    5.4589 H   0  0  0  0  0  0  0  0  0  0  0  0
   45.2063   12.1069    7.9069 H   0  0  0  0  0  0  0  0  0  0  0  0
   49.3875   13.0739    8.3428 H   0  0  0  0  0  0  0  0  0  0  0  0
   46.2736   12.0620   10.1195 H   0  0  0  0  0  0  0  0  0  0  0  0
   47.9978   12.3040   10.2889 H   0  0  0  0  0  0  0  0  0  0  0  0
   45.9247   14.5036    9.7242 H   0  0  0  0  0  0  0  0  0  0  0  0
   47.6515   14.8036    9.8688 H   0  0  0  0  0  0  0  0  0  0  0  0
   45.9896   13.5357   12.1208 H   0  0  0  0  0  0  0  0  0  0  0  0
   46.2152   15.2902   11.9175 H   0  0  0  0  0  0  0  0  0  0  0  0
   48.9536   15.7053   15.0603 H   0  0  0  0  0  0  0  0  0  0  0  0
   49.8639   14.5977   14.0675 H   0  0  0  0  0  0  0  0  0  0  0  0
   47.9078   13.8348   16.3055 H   0  0  0  0  0  0  0  0  0  0  0  0
   48.0000   12.0906   14.4941 H   0  0  0  0  0  0  0  0  0  0  0  0
   49.7813   12.0079   14.7040 H   0  0  0  0  0  0  0  0  0  0  0  0
   47.3844    9.4179   17.6589 H   0  0  0  0  0  0  0  0  0  0  0  0
   49.1500    9.4779   17.9118 H   0  0  0  0  0  0  0  0  0  0  0  0
   47.6886    7.3946   16.2058 H   0  0  0  0  0  0  0  0  0  0  0  0
   49.4271    7.4798   16.4374 H   0  0  0  0  0  0  0  0  0  0  0  0
   49.0871    7.1892   18.9374 H   0  0  0  0  0  0  0  0  0  0  0  0
   47.3592    7.0654   18.6779 H   0  0  0  0  0  0  0  0  0  0  0  0
   46.6315    2.6602   17.0883 H   0  0  0  0  0  0  0  0  0  0  0  0
   46.3766    5.0750   17.5399 H   0  0  0  0  0  0  0  0  0  0  0  0
   50.6192    5.3696   18.2618 H   0  0  0  0  0  0  0  0  0  0  0  0
   50.8562    2.9543   17.8058 H   0  0  0  0  0  0  0  0  0  0  0  0
   48.8668    1.5940   17.2204 H   0  0  0  0  0  0  0  0  0  0  0  0
   51.7910   14.5593   18.0230 H   0  0  0  0  0  0  0  0  0  0  0  0
   51.5983   12.9356   18.6916 H   0  0  0  0  0  0  0  0  0  0  0  0
   51.9958   14.5880   20.4739 H   0  0  0  0  0  0  0  0  0  0  0  0
   50.4254   13.8254   20.6650 H   0  0  0  0  0  0  0  0  0  0  0  0
   49.2515   15.7954   19.8387 H   0  0  0  0  0  0  0  0  0  0  0  0
   50.3309   16.2534   21.1278 H   0  0  0  0  0  0  0  0  0  0  0  0
   49.2923   17.0623   17.8362 H   0  0  0  0  0  0  0  0  0  0  0  0
   50.3617   18.7482   16.3857 H   0  0  0  0  0  0  0  0  0  0  0  0
   52.6262   19.6037   16.9243 H   0  0  0  0  0  0  0  0  0  0  0  0
   53.8222   18.7672   18.9291 H   0  0  0  0  0  0  0  0  0  0  0  0
   52.7714   17.0755   20.3888 H   0  0  0  0  0  0  0  0  0  0  0  0
  1  2  2  0
  1  6  1  0
  2  3  1  0
  3  4  2  0
  4  5  1  0
  5  6  2  0
  5  7  1  0
  7  8  1  0
  8  9  1  0
  9 10  1  0
 10 11  2  0
 10 12  1  0
 12 13  1  0
 13 14  1  0
 14 15  1  0
 15 16  1  0
 16 17  1  0
 17 18  2  0
 17 19  1  0
 19 20  1  0
 20 21  1  0
 21 22  1  0
 24 22  1  0
 22 25  2  0
 23 24  2  0
 23 27  1  0
 25 26  1  0
 26 27  2  0
 14 28  1  0
 28 29  1  0
 29 30  2  0
 29 31  1  0
 31 32  1  0
 32 33  1  0
 33 34  1  0
 39 34  1  0
 35 34  2  0
 35 36  1  0
 36 37  2  0
 37 38  1  0
 38 39  2  0
  1 40  1  0
  2 41  1  0
  3 42  1  0
  4 43  1  0
  6 44  1  0
  7 45  1  0
  7 46  1  0
  8 47  1  0
  8 48  1  0
  9 49  1  0
  9 50  1  0
 13 51  1  0
 13 52  1  0
 14 53  1  0
 15 54  1  0
 15 55  1  0
 19 56  1  0
 19 57  1  0
 20 58  1  0
 20 59  1  0
 21 60  1  0
 21 61  1  0
 23 62  1  0
 24 63  1  0
 25 64  1  0
 26 65  1  0
 27 66  1  0
 31 67  1  0
 31 68  1  0
 32 69  1  0
 32 70  1  0
 33 71  1  0
 33 72  1  0
 35 73  1  0
 36 74  1  0
 37 75  1  0
 38 76  1  0
 39 77  1  0
M  END
> <Uni-Dock RESULT> 
ENERGY=   -4.530  LOWER_BOUND=    5.665  UPPER_BOUND=    8.316
INTER + INTRA:          -4.530
INTER:                  -4.530
INTRA:                   0.000
UNBOUND:                 0.000

$$$$

     RDKit          3D

 77 79  0  0  0  0  0  0  0  0999 V2000
   38.9837   10.1882   10.7279 C   0  0  0  0  0  0  0  0  0  0  0  0
   37.9942   10.8498   11.4527 C   0  0  0  0  0  0  0  0  0  0  0  0
   38.3504   11.7534   12.4526 C   0  0  0  0  0  0  0  0  0  0  0  0
   39.6970   11.9960   12.7295 C   0  0  0  0  0  0  0  0  0  0  0  0
   40.6991   11.3323   12.0104 C   0  0  0  0  0  0  0  0  0  0  0  0
   40.3305   10.4289   11.0039 C   0  0  0  0  0  0  0  0  0  0  0  0
   42.1566   11.6079   12.2874 C   0  0  0  0  0  0  0  0  0  0  0  0
   42.7033   12.6900   11.3502 C   0  0  0  0  0  0  0  0  0  0  0  0
   44.1796   12.9950   11.5984 C   0  0  0  0  0  0  0  0  0  0  0  0
   45.1047   11.9402   11.0343 C   0  0  0  0  0  0  0  0  0  0  0  0
   44.7672   10.8347   10.6397 O   0  0  0  0  0  0  0  0  0  0  0  0
   46.3868   12.4024   11.0577 O   0  0  0  0  0  0  0  0  0  0  0  0
   47.3887   11.5317   10.5089 C   0  0  0  0  0  0  0  0  0  0  0  0
   48.3554   11.0489   11.5917 C   0  0  0  0  0  0  0  0  0  0  0  0
   47.6522   10.1873   12.6467 C   0  0  0  0  0  0  0  0  0  0  0  0
   48.6100    9.8355   13.6615 O   0  0  0  0  0  0  0  0  0  0  0  0
   48.0937    9.1872   14.7409 C   0  0  0  0  0  0  0  0  0  0  0  0
   46.9120    8.9175   14.8960 O   0  0  0  0  0  0  0  0  0  0  0  0
   49.2064    8.8795   15.7157 C   0  0  0  0  0  0  0  0  0  0  0  0
   48.7612    7.9033   16.8019 C   0  0  0  0  0  0  0  0  0  0  0  0
   49.9086    7.5924   17.7639 C   0  0  0  0  0  0  0  0  0  0  0  0
   49.4995    6.5965   18.8192 C   0  0  0  0  0  0  0  0  0  0  0  0
   48.5225    6.1049   20.9859 C   0  0  0  0  0  0  0  0  0  0  0  0
   48.9168    7.0294   20.0174 C   0  0  0  0  0  0  0  0  0  0  0  0
   49.6701    5.2226   18.6029 C   0  0  0  0  0  0  0  0  0  0  0  0
   49.2748    4.2994   19.5723 C   0  0  0  0  0  0  0  0  0  0  0  0
   48.7021    4.7407   20.7634 C   0  0  0  0  0  0  0  0  0  0  0  0
   49.3652   10.2502   10.9319 O   0  0  0  0  0  0  0  0  0  0  0  0
   50.6505   10.4156   11.3470 C   0  0  0  0  0  0  0  0  0  0  0  0
   51.0227   11.1921   12.2148 O   0  0  0  0  0  0  0  0  0  0  0  0
   51.5520    9.4740   10.5863 C   0  0  0  0  0  0  0  0  0  0  0  0
   52.9813    9.9990   10.4407 C   0  0  0  0  0  0  0  0  0  0  0  0
   53.1054   11.3577    9.7367 C   0  0  0  0  0  0  0  0  0  0  0  0
   52.4591   11.4075    8.3751 C   0  0  0  0  0  0  0  0  0  0  0  0
   51.3089   12.1808    8.1654 C   0  0  0  0  0  0  0  0  0  0  0  0
   50.6974   12.2149    6.9117 C   0  0  0  0  0  0  0  0  0  0  0  0
   51.2323   11.4814    5.8544 C   0  0  0  0  0  0  0  0  0  0  0  0
   52.3788   10.7143    6.0501 C   0  0  0  0  0  0  0  0  0  0  0  0
   52.9903   10.6768    7.3040 C   0  0  0  0  0  0  0  0  0  0  0  0
   38.7080    9.4851    9.9465 H   0  0  0  0  0  0  0  0  0  0  0  0
   36.9453   10.6621   11.2386 H   0  0  0  0  0  0  0  0  0  0  0  0
   37.5784   12.2697   13.0169 H   0  0  0  0  0  0  0  0  0  0  0  0
   39.9590   12.7063   13.5098 H   0  0  0  0  0  0  0  0  0  0  0  0
   41.0946    9.9090   10.4287 H   0  0  0  0  0  0  0  0  0  0  0  0
   42.2797   11.9193   13.3323 H   0  0  0  0  0  0  0  0  0  0  0  0
   42.7193   10.6735   12.1856 H   0  0  0  0  0  0  0  0  0  0  0  0
   42.1295   13.6130   11.5024 H   0  0  0  0  0  0  0  0  0  0  0  0
   42.5520   12.3979   10.3034 H   0  0  0  0  0  0  0  0  0  0  0  0
   44.3801   13.1052   12.6695 H   0  0  0  0  0  0  0  0  0  0  0  0
   44.4192   13.9406   11.0975 H   0  0  0  0  0  0  0  0  0  0  0  0
   47.9455   12.1139    9.7645 H   0  0  0  0  0  0  0  0  0  0  0  0
   46.9682   10.6823    9.9568 H   0  0  0  0  0  0  0  0  0  0  0  0
   48.8004   11.9229   12.0830 H   0  0  0  0  0  0  0  0  0  0  0  0
   46.8275   10.7426   13.1061 H   0  0  0  0  0  0  0  0  0  0  0  0
   47.2767    9.2623   12.1945 H   0  0  0  0  0  0  0  0  0  0  0  0
   49.5356    9.8232   16.1654 H   0  0  0  0  0  0  0  0  0  0  0  0
   50.0417    8.4412   15.1560 H   0  0  0  0  0  0  0  0  0  0  0  0
   47.9120    8.3246   17.3553 H   0  0  0  0  0  0  0  0  0  0  0  0
   48.3964    6.9783   16.3374 H   0  0  0  0  0  0  0  0  0  0  0  0
   50.7710    7.1997   17.2104 H   0  0  0  0  0  0  0  0  0  0  0  0
   50.2562    8.5136   18.2483 H   0  0  0  0  0  0  0  0  0  0  0  0
   48.0713    6.4489   21.9125 H   0  0  0  0  0  0  0  0  0  0  0  0
   48.7636    8.0902   20.2017 H   0  0  0  0  0  0  0  0  0  0  0  0
   50.1098    4.8628   17.6759 H   0  0  0  0  0  0  0  0  0  0  0  0
   49.4104    3.2355   19.3965 H   0  0  0  0  0  0  0  0  0  0  0  0
   48.3925    4.0217   21.5170 H   0  0  0  0  0  0  0  0  0  0  0  0
   51.1247    9.2845    9.5951 H   0  0  0  0  0  0  0  0  0  0  0  0
   51.5631    8.5208   11.1265 H   0  0  0  0  0  0  0  0  0  0  0  0
   53.5660    9.2497    9.8928 H   0  0  0  0  0  0  0  0  0  0  0  0
   53.4411   10.0830   11.4336 H   0  0  0  0  0  0  0  0  0  0  0  0
   52.6947   12.1481   10.3753 H   0  0  0  0  0  0  0  0  0  0  0  0
   54.1689   11.6028    9.6228 H   0  0  0  0  0  0  0  0  0  0  0  0
   50.8817   12.7636    8.9786 H   0  0  0  0  0  0  0  0  0  0  0  0
   49.8066   12.8178    6.7580 H   0  0  0  0  0  0  0  0  0  0  0  0
   50.7580   11.5112    4.8772 H   0  0  0  0  0  0  0  0  0  0  0  0
   52.7995   10.1468    5.2241 H   0  0  0  0  0  0  0  0  0  0  0  0
   53.8856   10.0747    7.4404 H   0  0  0  0  0  0  0  0  0  0  0  0
  1  2  2  0
  1  6  1  0
  2  3  1  0
  3  4  2  0
  4  5  1  0
  5  6  2  0
  5  7  1  0
  7  8  1  0
  8  9  1  0
  9 10  1  0
 10 11  2  0
 10 12  1  0
 12 13  1  0
 13 14  1  0
 14 15  1  0
 15 16  1  0
 16 17  1  0
 17 18  2  0
 17 19  1  0
 19 20  1  0
 20 21  1  0
 21 22  1  0
 24 22  1  0
 22 25  2  0
 23 24  2  0
 23 27  1  0
 25 26  1  0
 26 27  2  0
 14 28  1  0
 28 29  1  0
 29 30  2  0
 29 31  1  0
 31 32  1  0
 32 33  1  0
 33 34  1  0
 39 34  1  0
 35 34  2  0
 35 36  1  0
 36 37  2  0
 37 38  1  0
 38 39  2  0
  1 40  1  0
  2 41  1  0
  3 42  1  0
  4 43  1  0
  6 44  1  0
  7 45  1  0
  7 46  1  0
  8 47  1  0
  8 48  1  0
  9 49  1  0
  9 50  1  0
 13 51  1  0
 13 52  1  0
 14 53  1  0
 15 54  1  0
 15 55  1  0
 19 56  1  0
 19 57  1  0
 20 58  1  0
 20 59  1  0
 21 60  1  0
 21 61  1  0
 23 62  1  0
 24 63  1  0
 25 64  1  0
 26 65  1  0
 27 66  1  0
 31 67  1  0
 31 68  1  0
 32 69  1  0
 32 70  1  0
 33 71  1  0
 33 72  1  0
 35 73  1  0
 36 74  1  0
 37 75  1  0
 38 76  1  0
 39 77  1  0
M  END
> <Uni-Dock RESULT> 
ENERGY=   -4.305  LOWER_BOUND=    4.690  UPPER_BOUND=    5.767
INTER + INTRA:          -4.305
INTER:                  -4.305
INTRA:                   0.000
UNBOUND:                 0.000

$$$$

     RDKit          3D

 77 79  0  0  0  0  0  0  0  0999 V2000
   46.3567   12.3762    6.6147 C   0  0  0  0  0  0  0  0  0  0  0  0
   45.1390   11.9722    6.0704 C   0  0  0  0  0  0  0  0  0  0  0  0
   44.0704   11.6613    6.9097 C   0  0  0  0  0  0  0  0  0  0  0  0
   44.2185   11.7533    8.2949 C   0  0  0  0  0  0  0  0  0  0  0  0
   45.4397   12.1533    8.8520 C   0  0  0  0  0  0  0  0  0  0  0  0
   46.5068   12.4680    7.9993 C   0  0  0  0  0  0  0  0  0  0  0  0
   45.5996   12.2787   10.3472 C   0  0  0  0  0  0  0  0  0  0  0  0
   45.3291   13.7128   10.8146 C   0  0  0  0  0  0  0  0  0  0  0  0
   45.4846   13.8806   12.3251 C   0  0  0  0  0  0  0  0  0  0  0  0
   46.9291   13.9337   12.7690 C   0  0  0  0  0  0  0  0  0  0  0  0
   47.8955   13.6340   12.0850 O   0  0  0  0  0  0  0  0  0  0  0  0
   46.9895   14.3442   14.0674 O   0  0  0  0  0  0  0  0  0  0  0  0
   48.3032   14.4926   14.6289 C   0  0  0  0  0  0  0  0  0  0  0  0
   48.5474   13.4724   15.7424 C   0  0  0  0  0  0  0  0  0  0  0  0
   48.5288   12.0327   15.2163 C   0  0  0  0  0  0  0  0  0  0  0  0
   48.6933   11.1371   16.3306 O   0  0  0  0  0  0  0  0  0  0  0  0
   48.5545    9.8163   16.0335 C   0  0  0  0  0  0  0  0  0  0  0  0
   48.2908    9.3721   14.9262 O   0  0  0  0  0  0  0  0  0  0  0  0
   48.7554    9.0001   17.2890 C   0  0  0  0  0  0  0  0  0  0  0  0
   48.9071    7.5116   16.9850 C   0  0  0  0  0  0  0  0  0  0  0  0
   49.1286    6.7094   18.2680 C   0  0  0  0  0  0  0  0  0  0  0  0
   49.3231    5.2417   17.9835 C   0  0  0  0  0  0  0  0  0  0  0  0
   48.4017    3.0249   17.6265 C   0  0  0  0  0  0  0  0  0  0  0  0
   48.2211    4.3802   17.9074 C   0  0  0  0  0  0  0  0  0  0  0  0
   50.6070    4.7255   17.7625 C   0  0  0  0  0  0  0  0  0  0  0  0
   50.7857    3.3701   17.4812 C   0  0  0  0  0  0  0  0  0  0  0  0
   49.6836    2.5203   17.4141 C   0  0  0  0  0  0  0  0  0  0  0  0
   49.8551   13.7528   16.2938 O   0  0  0  0  0  0  0  0  0  0  0  0
   49.9823   13.6795   17.6467 C   0  0  0  0  0  0  0  0  0  0  0  0
   49.0833   13.4147   18.4317 O   0  0  0  0  0  0  0  0  0  0  0  0
   51.4149   13.9535   18.0348 C   0  0  0  0  0  0  0  0  0  0  0  0
   51.5519   14.5600   19.4322 C   0  0  0  0  0  0  0  0  0  0  0  0
   50.8009   15.8825   19.6426 C   0  0  0  0  0  0  0  0  0  0  0  0
   51.1503   16.9554   18.6421 C   0  0  0  0  0  0  0  0  0  0  0  0
   50.2081   17.3699   17.6907 C   0  0  0  0  0  0  0  0  0  0  0  0
   50.5336   18.3493   16.7517 C   0  0  0  0  0  0  0  0  0  0  0  0
   51.8015   18.9277   16.7579 C   0  0  0  0  0  0  0  0  0  0  0  0
   52.7436   18.5277   17.7031 C   0  0  0  0  0  0  0  0  0  0  0  0
   52.4207   17.5465   18.6414 C   0  0  0  0  0  0  0  0  0  0  0  0
   47.1903   12.6212    5.9619 H   0  0  0  0  0  0  0  0  0  0  0  0
   45.0220   11.8999    4.9923 H   0  0  0  0  0  0  0  0  0  0  0  0
   43.1208   11.3472    6.4849 H   0  0  0  0  0  0  0  0  0  0  0  0
   43.3747   11.5110    8.9362 H   0  0  0  0  0  0  0  0  0  0  0  0
   47.4616   12.7882    8.4127 H   0  0  0  0  0  0  0  0  0  0  0  0
   44.9142   11.5847   10.8497 H   0  0  0  0  0  0  0  0  0  0  0  0
   46.6089   11.9548   10.6239 H   0  0  0  0  0  0  0  0  0  0  0  0
   44.3025   13.9867   10.5404 H   0  0  0  0  0  0  0  0  0  0  0  0
   45.9898   14.4144   10.2898 H   0  0  0  0  0  0  0  0  0  0  0  0
   44.9793   13.0702   12.8613 H   0  0  0  0  0  0  0  0  0  0  0  0
   45.0206   14.8324   12.6099 H   0  0  0  0  0  0  0  0  0  0  0  0
   48.3586   15.5037   15.0503 H   0  0  0  0  0  0  0  0  0  0  0  0
   49.1019   14.4474   13.8787 H   0  0  0  0  0  0  0  0  0  0  0  0
   47.7645   13.5851   16.5025 H   0  0  0  0  0  0  0  0  0  0  0  0
   47.5763   11.8193   14.7196 H   0  0  0  0  0  0  0  0  0  0  0  0
   49.3601   11.8706   14.5208 H   0  0  0  0  0  0  0  0  0  0  0  0
   47.8937    9.1673   17.9453 H   0  0  0  0  0  0  0  0  0  0  0  0
   49.6612    9.3605   17.7916 H   0  0  0  0  0  0  0  0  0  0  0  0
   48.0133    7.1454   16.4637 H   0  0  0  0  0  0  0  0  0  0  0  0
   49.7477    7.3613   16.2956 H   0  0  0  0  0  0  0  0  0  0  0  0
   50.0037    7.0926   18.8080 H   0  0  0  0  0  0  0  0  0  0  0  0
   48.2761    6.8384   18.9467 H   0  0  0  0  0  0  0  0  0  0  0  0
   47.5417    2.3634   17.5692 H   0  0  0  0  0  0  0  0  0  0  0  0
   47.2145    4.7610   18.0634 H   0  0  0  0  0  0  0  0  0  0  0  0
   51.4761    5.3775   17.8054 H   0  0  0  0  0  0  0  0  0  0  0  0
   51.7850    2.9779   17.3108 H   0  0  0  0  0  0  0  0  0  0  0  0
   49.8227    1.4656   17.1931 H   0  0  0  0  0  0  0  0  0  0  0  0
   51.8694   14.6222   17.2950 H   0  0  0  0  0  0  0  0  0  0  0  0
   51.9552   13.0013   17.9921 H   0  0  0  0  0  0  0  0  0  0  0  0
   52.6194   14.7107   19.6358 H   0  0  0  0  0  0  0  0  0  0  0  0
   51.1945   13.8393   20.1786 H   0  0  0  0  0  0  0  0  0  0  0  0
   49.7197   15.7029   19.6369 H   0  0  0  0  0  0  0  0  0  0  0  0
   51.0247   16.2620   20.6475 H   0  0  0  0  0  0  0  0  0  0  0  0
   49.2121   16.9325   17.6755 H   0  0  0  0  0  0  0  0  0  0  0  0
   49.7966   18.6650   16.0183 H   0  0  0  0  0  0  0  0  0  0  0  0
   52.0534   19.6931   16.0288 H   0  0  0  0  0  0  0  0  0  0  0  0
   53.7305   18.9830   17.7118 H   0  0  0  0  0  0  0  0  0  0  0  0
   53.1665   17.2462   19.3739 H   0  0  0  0  0  0  0  0  0  0  0  0
  1  2  2  0
  1  6  1  0
  2  3  1  0
  3  4  2  0
  4  5  1  0
  5  6  2  0
  5  7  1  0
  7  8  1  0
  8  9  1  0
  9 10  1  0
 10 11  2  0
 10 12  1  0
 12 13  1  0
 13 14  1  0
 14 15  1  0
 15 16  1  0
 16 17  1  0
 17 18  2  0
 17 19  1  0
 19 20  1  0
 20 21  1  0
 21 22  1  0
 24 22  1  0
 22 25  2  0
 23 24  2  0
 23 27  1  0
 25 26  1  0
 26 27  2  0
 14 28  1  0
 28 29  1  0
 29 30  2  0
 29 31  1  0
 31 32  1  0
 32 33  1  0
 33 34  1  0
 39 34  1  0
 35 34  2  0
 35 36  1  0
 36 37  2  0
 37 38  1  0
 38 39  2  0
  1 40  1  0
  2 41  1  0
  3 42  1  0
  4 43  1  0
  6 44  1  0
  7 45  1  0
  7 46  1  0
  8 47  1  0
  8 48  1  0
  9 49  1  0
  9 50  1  0
 13 51  1  0
 13 52  1  0
 14 53  1  0
 15 54  1  0
 15 55  1  0
 19 56  1  0
 19 57  1  0
 20 58  1  0
 20 59  1  0
 21 60  1  0
 21 61  1  0
 23 62  1  0
 24 63  1  0
 25 64  1  0
 26 65  1  0
 27 66  1  0
 31 67  1  0
 31 68  1  0
 32 69  1  0
 32 70  1  0
 33 71  1  0
 33 72  1  0
 35 73  1  0
 36 74  1  0
 37 75  1  0
 38 76  1  0
 39 77  1  0
M  END
> <Uni-Dock RESULT> 
ENERGY=   -4.238  LOWER_BOUND=    5.753  UPPER_BOUND=    7.773
INTER + INTRA:          -4.238
INTER:                  -4.238
INTRA:                   0.000
UNBOUND:                 0.000

$$$$

     RDKit          3D

 77 79  0  0  0  0  0  0  0  0999 V2000
   56.2106    4.4734   12.7343 C   0  0  0  0  0  0  0  0  0  0  0  0
   57.2111    4.6045   11.7731 C   0  0  0  0  0  0  0  0  0  0  0  0
   57.4614    5.8476   11.1941 C   0  0  0  0  0  0  0  0  0  0  0  0
   56.7108    6.9613   11.5753 C   0  0  0  0  0  0  0  0  0  0  0  0
   55.6997    6.8390   12.5367 C   0  0  0  0  0  0  0  0  0  0  0  0
   55.4587    5.5856   13.1161 C   0  0  0  0  0  0  0  0  0  0  0  0
   54.9009    8.0431   12.9716 C   0  0  0  0  0  0  0  0  0  0  0  0
   55.5108    8.6909   14.2192 C   0  0  0  0  0  0  0  0  0  0  0  0
   54.7267    9.9136   14.6927 C   0  0  0  0  0  0  0  0  0  0  0  0
   53.4499    9.5532   15.4181 C   0  0  0  0  0  0  0  0  0  0  0  0
   52.9286    8.4489   15.4360 O   0  0  0  0  0  0  0  0  0  0  0  0
   52.9491   10.6623   16.0323 O   0  0  0  0  0  0  0  0  0  0  0  0
   51.7547   10.4771   16.8084 C   0  0  0  0  0  0  0  0  0  0  0  0
   50.5717   11.2244   16.1902 C   0  0  0  0  0  0  0  0  0  0  0  0
   50.2048   10.6749   14.8070 C   0  0  0  0  0  0  0  0  0  0  0  0
   49.1364   11.4735   14.2669 O   0  0  0  0  0  0  0  0  0  0  0  0
   48.7999   11.1905   12.9790 C   0  0  0  0  0  0  0  0  0  0  0  0
   49.3443   10.3467   12.2828 O   0  0  0  0  0  0  0  0  0  0  0  0
   47.6701   12.0970   12.5492 C   0  0  0  0  0  0  0  0  0  0  0  0
   47.0448   11.6457   11.2314 C   0  0  0  0  0  0  0  0  0  0  0  0
   45.8923   12.5661   10.8274 C   0  0  0  0  0  0  0  0  0  0  0  0
   45.2347   12.1111    9.5495 C   0  0  0  0  0  0  0  0  0  0  0  0
   45.1161   12.1114    7.1253 C   0  0  0  0  0  0  0  0  0  0  0  0
   45.7152   12.5476    8.3081 C   0  0  0  0  0  0  0  0  0  0  0  0
   44.1520   11.2222    9.5857 C   0  0  0  0  0  0  0  0  0  0  0  0
   43.5544   10.7866    8.4019 C   0  0  0  0  0  0  0  0  0  0  0  0
   44.0359   11.2318    7.1726 C   0  0  0  0  0  0  0  0  0  0  0  0
   49.4454   11.0436   17.0799 O   0  0  0  0  0  0  0  0  0  0  0  0
   48.6529   12.1279   17.2993 C   0  0  0  0  0  0  0  0  0  0  0  0
   48.8233   13.2408   16.8229 O   0  0  0  0  0  0  0  0  0  0  0  0
   47.5104   11.7429   18.2074 C   0  0  0  0  0  0  0  0  0  0  0  0
   46.9905   12.9120   19.0454 C   0  0  0  0  0  0  0  0  0  0  0  0
   48.0372   13.5791   19.9492 C   0  0  0  0  0  0  0  0  0  0  0  0
   48.7433   12.6267   20.8811 C   0  0  0  0  0  0  0  0  0  0  0  0
   50.1008   12.3307   20.6955 C   0  0  0  0  0  0  0  0  0  0  0  0
   50.7531   11.4360   21.5446 C   0  0  0  0  0  0  0  0  0  0  0  0
   50.0568   10.8329   22.5903 C   0  0  0  0  0  0  0  0  0  0  0  0
   48.7089   11.1247   22.7878 C   0  0  0  0  0  0  0  0  0  0  0  0
   48.0541   12.0173   21.9380 C   0  0  0  0  0  0  0  0  0  0  0  0
   56.0155    3.5055   13.1886 H   0  0  0  0  0  0  0  0  0  0  0  0
   57.7963    3.7386   11.4749 H   0  0  0  0  0  0  0  0  0  0  0  0
   58.2422    5.9496   10.4452 H   0  0  0  0  0  0  0  0  0  0  0  0
   56.9204    7.9248   11.1174 H   0  0  0  0  0  0  0  0  0  0  0  0
   54.6824    5.4716   13.8707 H   0  0  0  0  0  0  0  0  0  0  0  0
   54.8596    8.7722   12.1525 H   0  0  0  0  0  0  0  0  0  0  0  0
   53.8649    7.7352   13.1504 H   0  0  0  0  0  0  0  0  0  0  0  0
   56.5364    9.0060   13.9890 H   0  0  0  0  0  0  0  0  0  0  0  0
   55.5851    7.9562   15.0310 H   0  0  0  0  0  0  0  0  0  0  0  0
   54.4821   10.5697   13.8506 H   0  0  0  0  0  0  0  0  0  0  0  0
   55.3572   10.4682   15.3979 H   0  0  0  0  0  0  0  0  0  0  0  0
   51.9551   10.8855   17.8064 H   0  0  0  0  0  0  0  0  0  0  0  0
   51.5047    9.4218   16.9722 H   0  0  0  0  0  0  0  0  0  0  0  0
   50.8349   12.2850   16.0948 H   0  0  0  0  0  0  0  0  0  0  0  0
   51.0677   10.7247   14.1344 H   0  0  0  0  0  0  0  0  0  0  0  0
   49.8516    9.6407   14.8894 H   0  0  0  0  0  0  0  0  0  0  0  0
   48.0676   13.1137   12.4519 H   0  0  0  0  0  0  0  0  0  0  0  0
   46.9045   12.0875   13.3346 H   0  0  0  0  0  0  0  0  0  0  0  0
   47.8081   11.6327   10.4427 H   0  0  0  0  0  0  0  0  0  0  0  0
   46.6869   10.6129   11.3294 H   0  0  0  0  0  0  0  0  0  0  0  0
   45.1415   12.6061   11.6267 H   0  0  0  0  0  0  0  0  0  0  0  0
   46.2550   13.5944   10.7037 H   0  0  0  0  0  0  0  0  0  0  0  0
   45.4950   12.4547    6.1665 H   0  0  0  0  0  0  0  0  0  0  0  0
   46.5620   13.2280    8.2554 H   0  0  0  0  0  0  0  0  0  0  0  0
   43.7692   10.8613   10.5372 H   0  0  0  0  0  0  0  0  0  0  0  0
   42.7152   10.0969    8.4389 H   0  0  0  0  0  0  0  0  0  0  0  0
   43.5719   10.8909    6.2511 H   0  0  0  0  0  0  0  0  0  0  0  0
   47.8303   10.9282   18.8669 H   0  0  0  0  0  0  0  0  0  0  0  0
   46.7037   11.3557   17.5751 H   0  0  0  0  0  0  0  0  0  0  0  0
   46.1576   12.5480   19.6596 H   0  0  0  0  0  0  0  0  0  0  0  0
   46.5716   13.6784   18.3810 H   0  0  0  0  0  0  0  0  0  0  0  0
   48.7704   14.1170   19.3374 H   0  0  0  0  0  0  0  0  0  0  0  0
   47.5443   14.3511   20.5534 H   0  0  0  0  0  0  0  0  0  0  0  0
   50.6603   12.7970   19.8874 H   0  0  0  0  0  0  0  0  0  0  0  0
   51.8058   11.2131   21.3937 H   0  0  0  0  0  0  0  0  0  0  0  0
   50.5661   10.1390   23.2537 H   0  0  0  0  0  0  0  0  0  0  0  0
   48.1673   10.6589   23.6069 H   0  0  0  0  0  0  0  0  0  0  0  0
   47.0022   12.2361   22.1063 H   0  0  0  0  0  0  0  0  0  0  0  0
  1  2  2  0
  1  6  1  0
  2  3  1  0
  3  4  2  0
  4  5  1  0
  5  6  2  0
  5  7  1  0
  7  8  1  0
  8  9  1  0
  9 10  1  0
 10 11  2  0
 10 12  1  0
 12 13  1  0
 13 14  1  0
 14 15  1  0
 15 16  1  0
 16 17  1  0
 17 18  2  0
 17 19  1  0
 19 20  1  0
 20 21  1  0
 21 22  1  0
 24 22  1  0
 22 25  2  0
 23 24  2  0
 23 27  1  0
 25 26  1  0
 26 27  2  0
 14 28  1  0
 28 29  1  0
 29 30  2  0
 29 31  1  0
 31 32  1  0
 32 33  1  0
 33 34  1  0
 39 34  1  0
 35 34  2  0
 35 36  1  0
 36 37  2  0
 37 38  1  0
 38 39  2  0
  1 40  1  0
  2 41  1  0
  3 42  1  0
  4 43  1  0
  6 44  1  0
  7 45  1  0
  7 46  1  0
  8 47  1  0
  8 48  1  0
  9 49  1  0
  9 50  1  0
 13 51  1  0
 13 52  1  0
 14 53  1  0
 15 54  1  0
 15 55  1  0
 19 56  1  0
 19 57  1  0
 20 58  1  0
 20 59  1  0
 21 60  1  0
 21 61  1  0
 23 62  1  0
 24 63  1  0
 25 64  1  0
 26 65  1  0
 27 66  1  0
 31 67  1  0
 31 68  1  0
 32 69  1  0
 32 70  1  0
 33 71  1  0
 33 72  1  0
 35 73  1  0
 36 74  1  0
 37 75  1  0
 38 76  1  0
 39 77  1  0
M  END
> <Uni-Dock RESULT> 
ENERGY=   -4.154  LOWER_BOUND=    6.742  UPPER_BOUND=   12.172
INTER + INTRA:          -4.154
INTER:                  -4.154
INTRA:                   0.000
UNBOUND:                 0.000

$$$$

     RDKit          3D

 77 79  0  0  0  0  0  0  0  0999 V2000
   42.6832   15.3352   12.5649 C   0  0  0  0  0  0  0  0  0  0  0  0
   42.3732   16.3077   13.5137 C   0  0  0  0  0  0  0  0  0  0  0  0
   43.3126   16.6607   14.4812 C   0  0  0  0  0  0  0  0  0  0  0  0
   44.5633   16.0407   14.5015 C   0  0  0  0  0  0  0  0  0  0  0  0
   44.8827   15.0583   13.5556 C   0  0  0  0  0  0  0  0  0  0  0  0
   43.9328   14.7137   12.5842 C   0  0  0  0  0  0  0  0  0  0  0  0
   46.2413   14.4016   13.5563 C   0  0  0  0  0  0  0  0  0  0  0  0
   47.2035   15.1190   12.6036 C   0  0  0  0  0  0  0  0  0  0  0  0
   48.5909   14.4801   12.5743 C   0  0  0  0  0  0  0  0  0  0  0  0
   48.6364   13.2009   11.7693 C   0  0  0  0  0  0  0  0  0  0  0  0
   47.6659   12.5721   11.3765 O   0  0  0  0  0  0  0  0  0  0  0  0
   49.9348   12.8374   11.5690 O   0  0  0  0  0  0  0  0  0  0  0  0
   50.1522   11.6597   10.7759 C   0  0  0  0  0  0  0  0  0  0  0  0
   50.7687   10.5361   11.6112 C   0  0  0  0  0  0  0  0  0  0  0  0
   49.8264   10.0652   12.7248 C   0  0  0  0  0  0  0  0  0  0  0  0
   50.5049    9.0636   13.5042 O   0  0  0  0  0  0  0  0  0  0  0  0
   49.8408    8.6532   14.6188 C   0  0  0  0  0  0  0  0  0  0  0  0
   48.7579    9.0838   14.9865 O   0  0  0  0  0  0  0  0  0  0  0  0
   50.6640    7.6055   15.3312 C   0  0  0  0  0  0  0  0  0  0  0  0
   49.8634    6.8900   16.4166 C   0  0  0  0  0  0  0  0  0  0  0  0
   50.7109    5.8221   17.1094 C   0  0  0  0  0  0  0  0  0  0  0  0
   49.9237    5.0754   18.1561 C   0  0  0  0  0  0  0  0  0  0  0  0
   49.1166    4.8685   20.4357 C   0  0  0  0  0  0  0  0  0  0  0  0
   49.8603    5.5516   19.4720 C   0  0  0  0  0  0  0  0  0  0  0  0
   49.2211    3.9107   17.8193 C   0  0  0  0  0  0  0  0  0  0  0  0
   48.4775    3.2292   18.7840 C   0  0  0  0  0  0  0  0  0  0  0  0
   48.4261    3.7076   20.0916 C   0  0  0  0  0  0  0  0  0  0  0  0
   51.0215    9.4308   10.7128 O   0  0  0  0  0  0  0  0  0  0  0  0
   52.1944    8.7602   10.8753 C   0  0  0  0  0  0  0  0  0  0  0  0
   53.0554    9.0243   11.7020 O   0  0  0  0  0  0  0  0  0  0  0  0
   52.2643    7.6189    9.8901 C   0  0  0  0  0  0  0  0  0  0  0  0
   53.6965    7.2506    9.4998 C   0  0  0  0  0  0  0  0  0  0  0  0
   54.5137    8.3917    8.8772 C   0  0  0  0  0  0  0  0  0  0  0  0
   53.8628    9.0319    7.6770 C   0  0  0  0  0  0  0  0  0  0  0  0
   53.3777   10.3449    7.7511 C   0  0  0  0  0  0  0  0  0  0  0  0
   52.7585   10.9345    6.6485 C   0  0  0  0  0  0  0  0  0  0  0  0
   52.6231   10.2198    5.4598 C   0  0  0  0  0  0  0  0  0  0  0  0
   53.1073    8.9163    5.3730 C   0  0  0  0  0  0  0  0  0  0  0  0
   53.7246    8.3241    6.4756 C   0  0  0  0  0  0  0  0  0  0  0  0
   41.9529   15.0603   11.8084 H   0  0  0  0  0  0  0  0  0  0  0  0
   41.4000   16.7914   13.4995 H   0  0  0  0  0  0  0  0  0  0  0  0
   43.0709   17.4198   15.2203 H   0  0  0  0  0  0  0  0  0  0  0  0
   45.2867   16.3293   15.2600 H   0  0  0  0  0  0  0  0  0  0  0  0
   44.1648   13.9581   11.8357 H   0  0  0  0  0  0  0  0  0  0  0  0
   46.6502   14.4038   14.5745 H   0  0  0  0  0  0  0  0  0  0  0  0
   46.1250   13.3471   13.2831 H   0  0  0  0  0  0  0  0  0  0  0  0
   47.3102   16.1620   12.9276 H   0  0  0  0  0  0  0  0  0  0  0  0
   46.7833   15.1487   11.5904 H   0  0  0  0  0  0  0  0  0  0  0  0
   48.9457   14.2721   13.5894 H   0  0  0  0  0  0  0  0  0  0  0  0
   49.2804   15.1887   12.1001 H   0  0  0  0  0  0  0  0  0  0  0  0
   50.8502   11.9368    9.9765 H   0  0  0  0  0  0  0  0  0  0  0  0
   49.2479   11.3108   10.2627 H   0  0  0  0  0  0  0  0  0  0  0  0
   51.6998   10.9012   12.0619 H   0  0  0  0  0  0  0  0  0  0  0  0
   49.5529   10.9035   13.3744 H   0  0  0  0  0  0  0  0  0  0  0  0
   48.9253    9.6128   12.2953 H   0  0  0  0  0  0  0  0  0  0  0  0
   51.5390    8.0997   15.7687 H   0  0  0  0  0  0  0  0  0  0  0  0
   51.0030    6.8722   14.5893 H   0  0  0  0  0  0  0  0  0  0  0  0
   49.5025    7.6185   17.1540 H   0  0  0  0  0  0  0  0  0  0  0  0
   48.9693    6.4336   15.9729 H   0  0  0  0  0  0  0  0  0  0  0  0
   51.0992    5.1090   16.3713 H   0  0  0  0  0  0  0  0  0  0  0  0
   51.5915    6.2817   17.5757 H   0  0  0  0  0  0  0  0  0  0  0  0
   49.0725    5.2446   21.4541 H   0  0  0  0  0  0  0  0  0  0  0  0
   50.3877    6.4601   19.7533 H   0  0  0  0  0  0  0  0  0  0  0  0
   49.2466    3.5287   16.8017 H   0  0  0  0  0  0  0  0  0  0  0  0
   47.9352    2.3267   18.5143 H   0  0  0  0  0  0  0  0  0  0  0  0
   47.8455    3.1781   20.8420 H   0  0  0  0  0  0  0  0  0  0  0  0
   51.6914    7.8790    8.9928 H   0  0  0  0  0  0  0  0  0  0  0  0
   51.7749    6.7546   10.3527 H   0  0  0  0  0  0  0  0  0  0  0  0
   53.6533    6.4083    8.7982 H   0  0  0  0  0  0  0  0  0  0  0  0
   54.2332    6.8870   10.3853 H   0  0  0  0  0  0  0  0  0  0  0  0
   54.7309    9.1524    9.6357 H   0  0  0  0  0  0  0  0  0  0  0  0
   55.4927    8.0016    8.5716 H   0  0  0  0  0  0  0  0  0  0  0  0
   53.4802   10.9185    8.6698 H   0  0  0  0  0  0  0  0  0  0  0  0
   52.3861   11.9531    6.7147 H   0  0  0  0  0  0  0  0  0  0  0  0
   52.1442   10.6806    4.6000 H   0  0  0  0  0  0  0  0  0  0  0  0
   53.0071    8.3610    4.4441 H   0  0  0  0  0  0  0  0  0  0  0  0
   54.0989    7.3065    6.3916 H   0  0  0  0  0  0  0  0  0  0  0  0
  1  2  2  0
  1  6  1  0
  2  3  1  0
  3  4  2  0
  4  5  1  0
  5  6  2  0
  5  7  1  0
  7  8  1  0
  8  9  1  0
  9 10  1  0
 10 11  2  0
 10 12  1  0
 12 13  1  0
 13 14  1  0
 14 15  1  0
 15 16  1  0
 16 17  1  0
 17 18  2  0
 17 19  1  0
 19 20  1  0
 20 21  1  0
 21 22  1  0
 24 22  1  0
 22 25  2  0
 23 24  2  0
 23 27  1  0
 25 26  1  0
 26 27  2  0
 14 28  1  0
 28 29  1  0
 29 30  2  0
 29 31  1  0
 31 32  1  0
 32 33  1  0
 33 34  1  0
 39 34  1  0
 35 34  2  0
 35 36  1  0
 36 37  2  0
 37 38  1  0
 38 39  2  0
  1 40  1  0
  2 41  1  0
  3 42  1  0
  4 43  1  0
  6 44  1  0
  7 45  1  0
  7 46  1  0
  8 47  1  0
  8 48  1  0
  9 49  1  0
  9 50  1  0
 13 51  1  0
 13 52  1  0
 14 53  1  0
 15 54  1  0
 15 55  1  0
 19 56  1  0
 19 57  1  0
 20 58  1  0
 20 59  1  0
 21 60  1  0
 21 61  1  0
 23 62  1  0
 24 63  1  0
 25 64  1  0
 26 65  1  0
 27 66  1  0
 31 67  1  0
 31 68  1  0
 32 69  1  0
 32 70  1  0
 33 71  1  0
 33 72  1  0
 35 73  1  0
 36 74  1  0
 37 75  1  0
 38 76  1  0
 39 77  1  0
M  END
> <Uni-Dock RESULT> 
ENERGY=   -4.117  LOWER_BOUND=    4.621  UPPER_BOUND=    6.261
INTER + INTRA:          -4.117
INTER:                  -4.117
INTRA:                   0.000
UNBOUND:                 0.000

$$$$

     RDKit          3D

 77 79  0  0  0  0  0  0  0  0999 V2000
   42.9714   10.1690   10.9018 C   0  0  0  0  0  0  0  0  0  0  0  0
   42.2863   11.3360   10.5689 C   0  0  0  0  0  0  0  0  0  0  0  0
   42.9288   12.5699   10.6580 C   0  0  0  0  0  0  0  0  0  0  0  0
   44.2575   12.6382   11.0810 C   0  0  0  0  0  0  0  0  0  0  0  0
   44.9532   11.4717   11.4229 C   0  0  0  0  0  0  0  0  0  0  0  0
   44.2995   10.2355   11.3257 C   0  0  0  0  0  0  0  0  0  0  0  0
   46.3969   11.5356   11.8573 C   0  0  0  0  0  0  0  0  0  0  0  0
   47.3422   11.3199   10.6707 C   0  0  0  0  0  0  0  0  0  0  0  0
   48.8153   11.3743   11.0720 C   0  0  0  0  0  0  0  0  0  0  0  0
   49.2864   10.1163   11.7662 C   0  0  0  0  0  0  0  0  0  0  0  0
   48.5661    9.2330   12.2049 O   0  0  0  0  0  0  0  0  0  0  0  0
   50.6466   10.1292   11.8536 O   0  0  0  0  0  0  0  0  0  0  0  0
   51.2583    8.9744   12.4498 C   0  0  0  0  0  0  0  0  0  0  0  0
   51.9355    9.3291   13.7749 C   0  0  0  0  0  0  0  0  0  0  0  0
   50.9259    9.7998   14.8279 C   0  0  0  0  0  0  0  0  0  0  0  0
   51.6467   10.1801   16.0140 O   0  0  0  0  0  0  0  0  0  0  0  0
   50.8902   10.7546   16.9885 C   0  0  0  0  0  0  0  0  0  0  0  0
   49.6906   10.9723   16.9062 O   0  0  0  0  0  0  0  0  0  0  0  0
   51.7722   11.0959   18.1669 C   0  0  0  0  0  0  0  0  0  0  0  0
   50.9565   11.4683   19.4026 C   0  0  0  0  0  0  0  0  0  0  0  0
   51.8697   11.7903   20.5862 C   0  0  0  0  0  0  0  0  0  0  0  0
   51.0808   12.1193   21.8281 C   0  0  0  0  0  0  0  0  0  0  0  0
   49.9252   13.7342   23.2235 C   0  0  0  0  0  0  0  0  0  0  0  0
   50.6705   13.4344   22.0821 C   0  0  0  0  0  0  0  0  0  0  0  0
   50.7226   11.1085   22.7300 C   0  0  0  0  0  0  0  0  0  0  0  0
   49.9768   11.4099   23.8706 C   0  0  0  0  0  0  0  0  0  0  0  0
   49.5791   12.7223   24.1174 C   0  0  0  0  0  0  0  0  0  0  0  0
   52.5852    8.1281   14.2528 O   0  0  0  0  0  0  0  0  0  0  0  0
   53.8237    8.2724   14.7980 C   0  0  0  0  0  0  0  0  0  0  0  0
   54.4366    9.3251   14.9007 O   0  0  0  0  0  0  0  0  0  0  0  0
   54.3220    6.9321   15.2811 C   0  0  0  0  0  0  0  0  0  0  0  0
   55.8472    6.8182   15.2647 C   0  0  0  0  0  0  0  0  0  0  0  0
   56.5000    7.0377   13.8925 C   0  0  0  0  0  0  0  0  0  0  0  0
   55.9627    6.1425   12.8043 C   0  0  0  0  0  0  0  0  0  0  0  0
   55.2000    6.6796   11.7581 C   0  0  0  0  0  0  0  0  0  0  0  0
   54.6857    5.8520   10.7594 C   0  0  0  0  0  0  0  0  0  0  0  0
   54.9333    4.4810   10.7933 C   0  0  0  0  0  0  0  0  0  0  0  0
   55.6954    3.9374   11.8251 C   0  0  0  0  0  0  0  0  0  0  0  0
   56.2085    4.7632   12.8264 C   0  0  0  0  0  0  0  0  0  0  0  0
   42.4729    9.2059   10.8308 H   0  0  0  0  0  0  0  0  0  0  0  0
   41.2518   11.2848   10.2395 H   0  0  0  0  0  0  0  0  0  0  0  0
   42.3945   13.4796   10.3974 H   0  0  0  0  0  0  0  0  0  0  0  0
   44.7461   13.6075   11.1418 H   0  0  0  0  0  0  0  0  0  0  0  0
   44.8256    9.3169   11.5795 H   0  0  0  0  0  0  0  0  0  0  0  0
   46.5975   12.5078   12.3248 H   0  0  0  0  0  0  0  0  0  0  0  0
   46.5648   10.7873   12.6396 H   0  0  0  0  0  0  0  0  0  0  0  0
   47.1582   12.1032    9.9246 H   0  0  0  0  0  0  0  0  0  0  0  0
   47.1230   10.3635   10.1792 H   0  0  0  0  0  0  0  0  0  0  0  0
   49.0101   12.2324   11.7241 H   0  0  0  0  0  0  0  0  0  0  0  0
   49.4115   11.4856   10.1584 H   0  0  0  0  0  0  0  0  0  0  0  0
   52.0169    8.6142   11.7444 H   0  0  0  0  0  0  0  0  0  0  0  0
   50.5634    8.1361   12.5810 H   0  0  0  0  0  0  0  0  0  0  0  0
   52.6643   10.1292   13.5960 H   0  0  0  0  0  0  0  0  0  0  0  0
   50.3608   10.6618   14.4575 H   0  0  0  0  0  0  0  0  0  0  0  0
   50.2408    8.9854   15.0896 H   0  0  0  0  0  0  0  0  0  0  0  0
   52.4217   11.9293   17.8757 H   0  0  0  0  0  0  0  0  0  0  0  0
   52.3946   10.2219   18.3944 H   0  0  0  0  0  0  0  0  0  0  0  0
   50.3149   12.3304   19.1789 H   0  0  0  0  0  0  0  0  0  0  0  0
   50.2816   10.6420   19.6599 H   0  0  0  0  0  0  0  0  0  0  0  0
   52.5343   10.9421   20.7935 H   0  0  0  0  0  0  0  0  0  0  0  0
   52.5267   12.6337   20.3386 H   0  0  0  0  0  0  0  0  0  0  0  0
   49.6107   14.7568   23.4131 H   0  0  0  0  0  0  0  0  0  0  0  0
   50.9267   14.2330   21.3897 H   0  0  0  0  0  0  0  0  0  0  0  0
   51.0204   10.0788   22.5478 H   0  0  0  0  0  0  0  0  0  0  0  0
   49.7029   10.6199   24.5650 H   0  0  0  0  0  0  0  0  0  0  0  0
   48.9967   12.9564   25.0043 H   0  0  0  0  0  0  0  0  0  0  0  0
   53.8850    6.1389   14.6641 H   0  0  0  0  0  0  0  0  0  0  0  0
   53.9534    6.7932   16.3035 H   0  0  0  0  0  0  0  0  0  0  0  0
   56.1194    5.8251   15.6432 H   0  0  0  0  0  0  0  0  0  0  0  0
   56.2742    7.5439   15.9685 H   0  0  0  0  0  0  0  0  0  0  0  0
   56.4015    8.0882   13.5959 H   0  0  0  0  0  0  0  0  0  0  0  0
   57.5797    6.8632   13.9809 H   0  0  0  0  0  0  0  0  0  0  0  0
   55.0020    7.7484   11.7137 H   0  0  0  0  0  0  0  0  0  0  0  0
   54.0962    6.2772    9.9517 H   0  0  0  0  0  0  0  0  0  0  0  0
   54.5358    3.8373   10.0133 H   0  0  0  0  0  0  0  0  0  0  0  0
   55.8936    2.8690   11.8486 H   0  0  0  0  0  0  0  0  0  0  0  0
   56.8029    4.3240   13.6242 H   0  0  0  0  0  0  0  0  0  0  0  0
  1  2  2  0
  1  6  1  0
  2  3  1  0
  3  4  2  0
  4  5  1  0
  5  6  2  0
  5  7  1  0
  7  8  1  0
  8  9  1  0
  9 10  1  0
 10 11  2  0
 10 12  1  0
 12 13  1  0
 13 14  1  0
 14 15  1  0
 15 16  1  0
 16 17  1  0
 17 18  2  0
 17 19  1  0
 19 20  1  0
 20 21  1  0
 21 22  1  0
 24 22  1  0
 22 25  2  0
 23 24  2  0
 23 27  1  0
 25 26  1  0
 26 27  2  0
 14 28  1  0
 28 29  1  0
 29 30  2  0
 29 31  1  0
 31 32  1  0
 32 33  1  0
 33 34  1  0
 39 34  1  0
 35 34  2  0
 35 36  1  0
 36 37  2  0
 37 38  1  0
 38 39  2  0
  1 40  1  0
  2 41  1  0
  3 42  1  0
  4 43  1  0
  6 44  1  0
  7 45  1  0
  7 46  1  0
  8 47  1  0
  8 48  1  0
  9 49  1  0
  9 50  1  0
 13 51  1  0
 13 52  1  0
 14 53  1  0
 15 54  1  0
 15 55  1  0
 19 56  1  0
 19 57  1  0
 20 58  1  0
 20 59  1  0
 21 60  1  0
 21 61  1  0
 23 62  1  0
 24 63  1  0
 25 64  1  0
 26 65  1  0
 27 66  1  0
 31 67  1  0
 31 68  1  0
 32 69  1  0
 32 70  1  0
 33 71  1  0
 33 72  1  0
 35 73  1  0
 36 74  1  0
 37 75  1  0
 38 76  1  0
 39 77  1  0
M  END
> <Uni-Dock RESULT> 
ENERGY=   -4.108  LOWER_BOUND=    7.227  UPPER_BOUND=   10.205
INTER + INTRA:          -4.108
INTER:                  -4.108
INTRA:                   0.000
UNBOUND:                 0.000

$$$$
