
     RDKit          3D

 77 79  0  0  0  0  0  0  0  0999 V2000
   43.2214   12.5941    9.2052 C   0  0  0  0  0  0  0  0  0  0  0  0
   41.8834   12.6614    9.5880 C   0  0  0  0  0  0  0  0  0  0  0  0
   41.2914   11.5811   10.2410 C   0  0  0  0  0  0  0  0  0  0  0  0
   42.0371   10.4314   10.5072 C   0  0  0  0  0  0  0  0  0  0  0  0
   43.3811   10.3507   10.1193 C   0  0  0  0  0  0  0  0  0  0  0  0
   43.9690   11.4457    9.4721 C   0  0  0  0  0  0  0  0  0  0  0  0
   44.1908    9.1139   10.4164 C   0  0  0  0  0  0  0  0  0  0  0  0
   44.9114    9.2135   11.7609 C   0  0  0  0  0  0  0  0  0  0  0  0
   45.7171    7.9481   12.0458 C   0  0  0  0  0  0  0  0  0  0  0  0
   46.4889    8.0589   13.3376 C   0  0  0  0  0  0  0  0  0  0  0  0
   46.2521    8.8441   14.2454 O   0  0  0  0  0  0  0  0  0  0  0  0
   47.4810    7.1211   13.3619 O   0  0  0  0  0  0  0  0  0  0  0  0
   48.3540    7.2010   14.5025 C   0  0  0  0  0  0  0  0  0  0  0  0
   49.3772    8.3415   14.3483 C   0  0  0  0  0  0  0  0  0  0  0  0
   50.1237    8.5682   15.6677 C   0  0  0  0  0  0  0  0  0  0  0  0
   49.2309    9.0051   16.7036 O   0  0  0  0  0  0  0  0  0  0  0  0
   48.9715   10.3423   16.7214 C   0  0  0  0  0  0  0  0  0  0  0  0
   49.4687   11.1608   15.9591 O   0  0  0  0  0  0  0  0  0  0  0  0
   47.9389   10.6825   17.7658 C   0  0  0  0  0  0  0  0  0  0  0  0
   48.3132   10.1540   19.1479 C   0  0  0  0  0  0  0  0  0  0  0  0
   47.3200   10.6305   20.2081 C   0  0  0  0  0  0  0  0  0  0  0  0
   47.6497   10.0748   21.5710 C   0  0  0  0  0  0  0  0  0  0  0  0
   47.3341    8.3901   23.2907 C   0  0  0  0  0  0  0  0  0  0  0  0
   47.0202    8.9113   22.0343 C   0  0  0  0  0  0  0  0  0  0  0  0
   48.6061   10.7002   22.3829 C   0  0  0  0  0  0  0  0  0  0  0  0
   48.9188   10.1768   23.6389 C   0  0  0  0  0  0  0  0  0  0  0  0
   48.2819    9.0231   24.0929 C   0  0  0  0  0  0  0  0  0  0  0  0
   50.3615    7.9743   13.3527 O   0  0  0  0  0  0  0  0  0  0  0  0
   50.0814    8.3230   12.0659 C   0  0  0  0  0  0  0  0  0  0  0  0
   49.0772    8.9072   11.6854 O   0  0  0  0  0  0  0  0  0  0  0  0
   51.2058    7.8991   11.1573 C   0  0  0  0  0  0  0  0  0  0  0  0
   52.3705    8.8803   11.2532 C   0  0  0  0  0  0  0  0  0  0  0  0
   53.5648    8.4749   10.3845 C   0  0  0  0  0  0  0  0  0  0  0  0
   53.2847    8.5391    8.9031 C   0  0  0  0  0  0  0  0  0  0  0  0
   53.1003    9.7758    8.2682 C   0  0  0  0  0  0  0  0  0  0  0  0
   52.8327    9.8357    6.8991 C   0  0  0  0  0  0  0  0  0  0  0  0
   52.7492    8.6622    6.1514 C   0  0  0  0  0  0  0  0  0  0  0  0
   52.9351    7.4278    6.7712 C   0  0  0  0  0  0  0  0  0  0  0  0
   53.2031    7.3653    8.1406 C   0  0  0  0  0  0  0  0  0  0  0  0
   43.6854   13.4374    8.7005 H   0  0  0  0  0  0  0  0  0  0  0  0
   41.3038   13.5575    9.3826 H   0  0  0  0  0  0  0  0  0  0  0  0
   40.2493   11.6339   10.5440 H   0  0  0  0  0  0  0  0  0  0  0  0
   41.5630    9.5984   11.0219 H   0  0  0  0  0  0  0  0  0  0  0  0
   45.0147   11.4106    9.1741 H   0  0  0  0  0  0  0  0  0  0  0  0
   43.5321    8.2365   10.4048 H   0  0  0  0  0  0  0  0  0  0  0  0
   44.9168    8.9555    9.6087 H   0  0  0  0  0  0  0  0  0  0  0  0
   44.1846    9.3786   12.5672 H   0  0  0  0  0  0  0  0  0  0  0  0
   45.5787   10.0857   11.7661 H   0  0  0  0  0  0  0  0  0  0  0  0
   45.0546    7.0784   12.1187 H   0  0  0  0  0  0  0  0  0  0  0  0
   46.4293    7.7820   11.2284 H   0  0  0  0  0  0  0  0  0  0  0  0
   48.8741    6.2380   14.5538 H   0  0  0  0  0  0  0  0  0  0  0  0
   47.7565    7.2946   15.4165 H   0  0  0  0  0  0  0  0  0  0  0  0
   48.8777    9.2720   14.0554 H   0  0  0  0  0  0  0  0  0  0  0  0
   50.9559    9.2724   15.5374 H   0  0  0  0  0  0  0  0  0  0  0  0
   50.5862    7.6333   16.0065 H   0  0  0  0  0  0  0  0  0  0  0  0
   46.9718   10.2846   17.4372 H   0  0  0  0  0  0  0  0  0  0  0  0
   47.8524   11.7759   17.8008 H   0  0  0  0  0  0  0  0  0  0  0  0
   48.3406    9.0570   19.1324 H   0  0  0  0  0  0  0  0  0  0  0  0
   49.3281   10.4826   19.4061 H   0  0  0  0  0  0  0  0  0  0  0  0
   46.3012   10.3329   19.9295 H   0  0  0  0  0  0  0  0  0  0  0  0
   47.3128   11.7267   20.2577 H   0  0  0  0  0  0  0  0  0  0  0  0
   46.8376    7.4904   23.6445 H   0  0  0  0  0  0  0  0  0  0  0  0
   46.2797    8.4041   21.4197 H   0  0  0  0  0  0  0  0  0  0  0  0
   49.1128   11.6002   22.0416 H   0  0  0  0  0  0  0  0  0  0  0  0
   49.6595   10.6702   24.2629 H   0  0  0  0  0  0  0  0  0  0  0  0
   48.5227    8.6176   25.0721 H   0  0  0  0  0  0  0  0  0  0  0  0
   51.5126    6.8818   11.4248 H   0  0  0  0  0  0  0  0  0  0  0  0
   50.8076    7.8500   10.1381 H   0  0  0  0  0  0  0  0  0  0  0  0
   52.0251    9.8875   10.9887 H   0  0  0  0  0  0  0  0  0  0  0  0
   52.7074    8.9395   12.2960 H   0  0  0  0  0  0  0  0  0  0  0  0
   54.4101    9.1412   10.6005 H   0  0  0  0  0  0  0  0  0  0  0  0
   53.8985    7.4671   10.6642 H   0  0  0  0  0  0  0  0  0  0  0  0
   53.1616   10.7017    8.8371 H   0  0  0  0  0  0  0  0  0  0  0  0
   52.6884   10.7992    6.4170 H   0  0  0  0  0  0  0  0  0  0  0  0
   52.5397    8.7110    5.0858 H   0  0  0  0  0  0  0  0  0  0  0  0
   52.8710    6.5126    6.1880 H   0  0  0  0  0  0  0  0  0  0  0  0
   53.3452    6.3931    8.6073 H   0  0  0  0  0  0  0  0  0  0  0  0
  1  2  2  0
  1  6  1  0
  2  3  1  0
  3  4  2  0
  4  5  1  0
  5  6  2  0
  5  7  1  0
  7  8  1  0
  8  9  1  0
  9 10  1  0
 10 11  2  0
 10 12  1  0
 12 13  1  0
 13 14  1  0
 14 15  1  0
 15 16  1  0
 16 17  1  0
 17 18  2  0
 17 19  1  0
 19 20  1  0
 20 21  1  0
 21 22  1  0
 24 22  1  0
 22 25  2  0
 23 24  2  0
 23 27  1  0
 25 26  1  0
 26 27  2  0
 14 28  1  0
 28 29  1  0
 29 30  2  0
 29 31  1  0
 31 32  1  0
 32 33  1  0
 33 34  1  0
 39 34  1  0
 35 34  2  0
 35 36  1  0
 36 37  2  0
 37 38  1  0
 38 39  2  0
  1 40  1  0
  2 41  1  0
  3 42  1  0
  4 43  1  0
  6 44  1  0
  7 45  1  0
  7 46  1  0
  8 47  1  0
  8 48  1  0
  9 49  1  0
  9 50  1  0
 13 51  1  0
 13 52  1  0
 14 53  1  0
 15 54  1  0
 15 55  1  0
 19 56  1  0
 19 57  1  0
 20 58  1  0
 20 59  1  0
 21 60  1  0
 21 61  1  0
 23 62  1  0
 24 63  1  0
 25 64  1  0
 26 65  1  0
 27 66  1  0
 31 67  1  0
 31 68  1  0
 32 69  1  0
 32 70  1  0
 33 71  1  0
 33 72  1  0
 35 73  1  0
 36 74  1  0
 37 75  1  0
 38 76  1  0
 39 77  1  0
M  END
> <Uni-Dock RESULT> 
ENERGY=   -5.930  LOWER_BOUND=    0.000  UPPER_BOUND=    0.000
INTER + INTRA:          -5.930
INTER:                  -5.930
INTRA:                   0.000
UNBOUND:                 0.000

$$$$

     RDKit          3D

 77 79  0  0  0  0  0  0  0  0999 V2000
   42.9260   15.5638   13.2235 C   0  0  0  0  0  0  0  0  0  0  0  0
   42.6079   16.1166   11.9849 C   0  0  0  0  0  0  0  0  0  0  0  0
   43.5461   16.0997   10.9538 C   0  0  0  0  0  0  0  0  0  0  0  0
   44.8048   15.5335   11.1634 C   0  0  0  0  0  0  0  0  0  0  0  0
   45.1374   14.9821   12.4078 C   0  0  0  0  0  0  0  0  0  0  0  0
   44.1837   14.9957   13.4344 C   0  0  0  0  0  0  0  0  0  0  0  0
   46.4924   14.3598   12.6321 C   0  0  0  0  0  0  0  0  0  0  0  0
   46.4909   12.8629   12.3220 C   0  0  0  0  0  0  0  0  0  0  0  0
   47.8737   12.2554   12.5467 C   0  0  0  0  0  0  0  0  0  0  0  0
   47.8718   10.7651   12.3105 C   0  0  0  0  0  0  0  0  0  0  0  0
   47.0339   10.1451   11.6700 O   0  0  0  0  0  0  0  0  0  0  0  0
   48.9728   10.2063   12.8933 O   0  0  0  0  0  0  0  0  0  0  0  0
   49.0234    8.7702   12.8256 C   0  0  0  0  0  0  0  0  0  0  0  0
   48.0914    8.1252   13.8680 C   0  0  0  0  0  0  0  0  0  0  0  0
   47.9703    6.6186   13.6131 C   0  0  0  0  0  0  0  0  0  0  0  0
   47.3528    6.3523   12.3447 O   0  0  0  0  0  0  0  0  0  0  0  0
   45.9907    6.3734   12.3456 C   0  0  0  0  0  0  0  0  0  0  0  0
   45.2954    6.5599   13.3355 O   0  0  0  0  0  0  0  0  0  0  0  0
   45.4428    6.1990   10.9520 C   0  0  0  0  0  0  0  0  0  0  0  0
   45.9952    4.9553   10.2610 C   0  0  0  0  0  0  0  0  0  0  0  0
   45.3199    4.7305    8.9078 C   0  0  0  0  0  0  0  0  0  0  0  0
   45.8915    3.5324    8.1916 C   0  0  0  0  0  0  0  0  0  0  0  0
   47.4470    2.5827    6.5874 C   0  0  0  0  0  0  0  0  0  0  0  0
   46.9096    3.6926    7.2416 C   0  0  0  0  0  0  0  0  0  0  0  0
   45.4292    2.2414    8.4823 C   0  0  0  0  0  0  0  0  0  0  0  0
   45.9686    1.1328    7.8271 C   0  0  0  0  0  0  0  0  0  0  0  0
   46.9760    1.3038    6.8791 C   0  0  0  0  0  0  0  0  0  0  0  0
   48.6559    8.2956   15.1898 O   0  0  0  0  0  0  0  0  0  0  0  0
   48.2949    9.4240   15.8622 C   0  0  0  0  0  0  0  0  0  0  0  0
   47.5484   10.2976   15.4451 O   0  0  0  0  0  0  0  0  0  0  0  0
   48.9384    9.4442   17.2243 C   0  0  0  0  0  0  0  0  0  0  0  0
   48.1823    8.5333   18.1871 C   0  0  0  0  0  0  0  0  0  0  0  0
   48.8191    8.4767   19.5788 C   0  0  0  0  0  0  0  0  0  0  0  0
   48.7428    9.7817   20.3325 C   0  0  0  0  0  0  0  0  0  0  0  0
   47.5096   10.2640   20.7943 C   0  0  0  0  0  0  0  0  0  0  0  0
   47.4370   11.4757   21.4844 C   0  0  0  0  0  0  0  0  0  0  0  0
   48.5945   12.2152   21.7217 C   0  0  0  0  0  0  0  0  0  0  0  0
   49.8260   11.7433   21.2711 C   0  0  0  0  0  0  0  0  0  0  0  0
   49.9013   10.5314   20.5807 C   0  0  0  0  0  0  0  0  0  0  0  0
   42.1938   15.5720   14.0266 H   0  0  0  0  0  0  0  0  0  0  0  0
   41.6271   16.5554   11.8212 H   0  0  0  0  0  0  0  0  0  0  0  0
   43.2979   16.5265    9.9858 H   0  0  0  0  0  0  0  0  0  0  0  0
   45.5248   15.5230   10.3479 H   0  0  0  0  0  0  0  0  0  0  0  0
   44.4152   14.5610   14.4044 H   0  0  0  0  0  0  0  0  0  0  0  0
   47.2360   14.8738   12.0102 H   0  0  0  0  0  0  0  0  0  0  0  0
   46.8001   14.5307   13.6717 H   0  0  0  0  0  0  0  0  0  0  0  0
   46.1765   12.6931   11.2837 H   0  0  0  0  0  0  0  0  0  0  0  0
   45.7542   12.3489   12.9535 H   0  0  0  0  0  0  0  0  0  0  0  0
   48.6069   12.7065   11.8687 H   0  0  0  0  0  0  0  0  0  0  0  0
   48.1867   12.4432   13.5810 H   0  0  0  0  0  0  0  0  0  0  0  0
   50.0631    8.4937   13.0334 H   0  0  0  0  0  0  0  0  0  0  0  0
   48.8001    8.4426   11.8038 H   0  0  0  0  0  0  0  0  0  0  0  0
   47.0935    8.5765   13.8262 H   0  0  0  0  0  0  0  0  0  0  0  0
   47.4320    6.1195   14.4296 H   0  0  0  0  0  0  0  0  0  0  0  0
   48.9646    6.1562   13.5970 H   0  0  0  0  0  0  0  0  0  0  0  0
   45.6672    7.1052   10.3773 H   0  0  0  0  0  0  0  0  0  0  0  0
   44.3513    6.1206   11.0337 H   0  0  0  0  0  0  0  0  0  0  0  0
   47.0790    5.0568   10.1219 H   0  0  0  0  0  0  0  0  0  0  0  0
   45.8494    4.0794   10.9062 H   0  0  0  0  0  0  0  0  0  0  0  0
   45.4351    5.6214    8.2777 H   0  0  0  0  0  0  0  0  0  0  0  0
   44.2397    4.5902    9.0399 H   0  0  0  0  0  0  0  0  0  0  0  0
   48.2326    2.7161    5.8484 H   0  0  0  0  0  0  0  0  0  0  0  0
   47.2897    4.6837    7.0039 H   0  0  0  0  0  0  0  0  0  0  0  0
   44.6448    2.0919    9.2209 H   0  0  0  0  0  0  0  0  0  0  0  0
   45.6019    0.1357    8.0567 H   0  0  0  0  0  0  0  0  0  0  0  0
   47.3934    0.4411    6.3665 H   0  0  0  0  0  0  0  0  0  0  0  0
   49.9873    9.1435   17.1247 H   0  0  0  0  0  0  0  0  0  0  0  0
   48.9403   10.4821   17.5745 H   0  0  0  0  0  0  0  0  0  0  0  0
   47.1362    8.8573   18.2543 H   0  0  0  0  0  0  0  0  0  0  0  0
   48.1586    7.5155   17.7774 H   0  0  0  0  0  0  0  0  0  0  0  0
   48.3116    7.7081   20.1762 H   0  0  0  0  0  0  0  0  0  0  0  0
   49.8632    8.1486   19.4929 H   0  0  0  0  0  0  0  0  0  0  0  0
   46.5961    9.6995   20.6171 H   0  0  0  0  0  0  0  0  0  0  0  0
   46.4758   11.8423   21.8356 H   0  0  0  0  0  0  0  0  0  0  0  0
   48.5356   13.1588   22.2583 H   0  0  0  0  0  0  0  0  0  0  0  0
   50.7290   12.3195   21.4570 H   0  0  0  0  0  0  0  0  0  0  0  0
   50.8711   10.1788   20.2364 H   0  0  0  0  0  0  0  0  0  0  0  0
  1  2  2  0
  1  6  1  0
  2  3  1  0
  3  4  2  0
  4  5  1  0
  5  6  2  0
  5  7  1  0
  7  8  1  0
  8  9  1  0
  9 10  1  0
 10 11  2  0
 10 12  1  0
 12 13  1  0
 13 14  1  0
 14 15  1  0
 15 16  1  0
 16 17  1  0
 17 18  2  0
 17 19  1  0
 19 20  1  0
 20 21  1  0
 21 22  1  0
 24 22  1  0
 22 25  2  0
 23 24  2  0
 23 27  1  0
 25 26  1  0
 26 27  2  0
 14 28  1  0
 28 29  1  0
 29 30  2  0
 29 31  1  0
 31 32  1  0
 32 33  1  0
 33 34  1  0
 39 34  1  0
 35 34  2  0
 35 36  1  0
 36 37  2  0
 37 38  1  0
 38 39  2  0
  1 40  1  0
  2 41  1  0
  3 42  1  0
  4 43  1  0
  6 44  1  0
  7 45  1  0
  7 46  1  0
  8 47  1  0
  8 48  1  0
  9 49  1  0
  9 50  1  0
 13 51  1  0
 13 52  1  0
 14 53  1  0
 15 54  1  0
 15 55  1  0
 19 56  1  0
 19 57  1  0
 20 58  1  0
 20 59  1  0
 21 60  1  0
 21 61  1  0
 23 62  1  0
 24 63  1  0
 25 64  1  0
 26 65  1  0
 27 66  1  0
 31 67  1  0
 31 68  1  0
 32 69  1  0
 32 70  1  0
 33 71  1  0
 33 72  1  0
 35 73  1  0
 36 74  1  0
 37 75  1  0
 38 76  1  0
 39 77  1  0
M  END
> <Uni-Dock RESULT> 
ENERGY=   -5.770  LOWER_BOUND=    3.893  UPPER_BOUND=   10.190
INTER + INTRA:          -5.770
INTER:                  -5.770
INTRA:                   0.000
UNBOUND:                 0.000

$$$$

     RDKit          3D

 77 79  0  0  0  0  0  0  0  0999 V2000
   43.3239   15.6511   13.4722 C   0  0  0  0  0  0  0  0  0  0  0  0
   43.0626   16.2493   12.2413 C   0  0  0  0  0  0  0  0  0  0  0  0
   44.0273   16.2209   11.2352 C   0  0  0  0  0  0  0  0  0  0  0  0
   45.2556   15.5976   11.4620 C   0  0  0  0  0  0  0  0  0  0  0  0
   45.5312   15.0000   12.6991 C   0  0  0  0  0  0  0  0  0  0  0  0
   44.5511   15.0259   13.7002 C   0  0  0  0  0  0  0  0  0  0  0  0
   46.8531   14.3163   12.9416 C   0  0  0  0  0  0  0  0  0  0  0  0
   46.7990   12.8295   12.5902 C   0  0  0  0  0  0  0  0  0  0  0  0
   48.1493   12.1594   12.8343 C   0  0  0  0  0  0  0  0  0  0  0  0
   48.0931   10.6773   12.5570 C   0  0  0  0  0  0  0  0  0  0  0  0
   47.2484   10.1098   11.8778 O   0  0  0  0  0  0  0  0  0  0  0  0
   49.1540   10.0579   13.1528 O   0  0  0  0  0  0  0  0  0  0  0  0
   49.1479    8.6233   13.0468 C   0  0  0  0  0  0  0  0  0  0  0  0
   48.1621    7.9901   14.0461 C   0  0  0  0  0  0  0  0  0  0  0  0
   47.9867    6.4971   13.7465 C   0  0  0  0  0  0  0  0  0  0  0  0
   47.3939    6.2904   12.4554 O   0  0  0  0  0  0  0  0  0  0  0  0
   46.0342    6.3680   12.4211 C   0  0  0  0  0  0  0  0  0  0  0  0
   45.3203    6.5568   13.3972 O   0  0  0  0  0  0  0  0  0  0  0  0
   45.5180    6.2536   11.0093 C   0  0  0  0  0  0  0  0  0  0  0  0
   46.0380    5.0068   10.2989 C   0  0  0  0  0  0  0  0  0  0  0  0
   45.3915    4.8463    8.9227 C   0  0  0  0  0  0  0  0  0  0  0  0
   45.9331    3.6450    8.1889 C   0  0  0  0  0  0  0  0  0  0  0  0
   47.4920    2.6744    6.6005 C   0  0  0  0  0  0  0  0  0  0  0  0
   46.9825    3.7879    7.2707 C   0  0  0  0  0  0  0  0  0  0  0  0
   45.4108    2.3670    8.4315 C   0  0  0  0  0  0  0  0  0  0  0  0
   45.9222    1.2547    7.7603 C   0  0  0  0  0  0  0  0  0  0  0  0
   46.9614    1.4089    6.8442 C   0  0  0  0  0  0  0  0  0  0  0  0
   48.6966    8.1017   15.3865 O   0  0  0  0  0  0  0  0  0  0  0  0
   48.3637    9.2259   16.0802 C   0  0  0  0  0  0  0  0  0  0  0  0
   47.6651   10.1404   15.6678 O   0  0  0  0  0  0  0  0  0  0  0  0
   48.9699    9.1831   17.4587 C   0  0  0  0  0  0  0  0  0  0  0  0
   48.1512    8.2792   18.3758 C   0  0  0  0  0  0  0  0  0  0  0  0
   48.7468    8.1592   19.7815 C   0  0  0  0  0  0  0  0  0  0  0  0
   48.7032    9.4458   20.5689 C   0  0  0  0  0  0  0  0  0  0  0  0
   47.4785    9.9664   21.0112 C   0  0  0  0  0  0  0  0  0  0  0  0
   47.4364   11.1613   21.7325 C   0  0  0  0  0  0  0  0  0  0  0  0
   48.6161   11.8455   22.0205 C   0  0  0  0  0  0  0  0  0  0  0  0
   49.8393   11.3351   21.5895 C   0  0  0  0  0  0  0  0  0  0  0  0
   49.8840   10.1398   20.8680 C   0  0  0  0  0  0  0  0  0  0  0  0
   42.5708   15.6683   14.2557 H   0  0  0  0  0  0  0  0  0  0  0  0
   42.1054   16.7326   12.0642 H   0  0  0  0  0  0  0  0  0  0  0  0
   43.8233   16.6832   10.2732 H   0  0  0  0  0  0  0  0  0  0  0  0
   45.9966   15.5789   10.6658 H   0  0  0  0  0  0  0  0  0  0  0  0
   44.7380   14.5564   14.6636 H   0  0  0  0  0  0  0  0  0  0  0  0
   47.6338   14.8153   12.3539 H   0  0  0  0  0  0  0  0  0  0  0  0
   47.1389   14.4465   13.9932 H   0  0  0  0  0  0  0  0  0  0  0  0
   46.5066   12.7005   11.5397 H   0  0  0  0  0  0  0  0  0  0  0  0
   46.0249   12.3299   13.1877 H   0  0  0  0  0  0  0  0  0  0  0  0
   48.9185   12.5975   12.1886 H   0  0  0  0  0  0  0  0  0  0  0  0
   48.4412   12.3065   13.8812 H   0  0  0  0  0  0  0  0  0  0  0  0
   50.1693    8.2984   13.2741 H   0  0  0  0  0  0  0  0  0  0  0  0
   48.9394    8.3325   12.0108 H   0  0  0  0  0  0  0  0  0  0  0  0
   47.1850    8.4833   13.9905 H   0  0  0  0  0  0  0  0  0  0  0  0
   47.4063    5.9993   14.5344 H   0  0  0  0  0  0  0  0  0  0  0  0
   48.9614    5.9944   13.7437 H   0  0  0  0  0  0  0  0  0  0  0  0
   45.7948    7.1646   10.4660 H   0  0  0  0  0  0  0  0  0  0  0  0
   44.4224    6.2184   11.0601 H   0  0  0  0  0  0  0  0  0  0  0  0
   47.1284    5.0669   10.1911 H   0  0  0  0  0  0  0  0  0  0  0  0
   45.8390    4.1209   10.9155 H   0  0  0  0  0  0  0  0  0  0  0  0
   45.5601    5.7481    8.3207 H   0  0  0  0  0  0  0  0  0  0  0  0
   44.3032    4.7474    9.0225 H   0  0  0  0  0  0  0  0  0  0  0  0
   48.3023    2.7947    5.8863 H   0  0  0  0  0  0  0  0  0  0  0  0
   47.4091    4.7683    7.0706 H   0  0  0  0  0  0  0  0  0  0  0  0
   44.6010    2.2305    9.1448 H   0  0  0  0  0  0  0  0  0  0  0  0
   45.5090    0.2679    7.9524 H   0  0  0  0  0  0  0  0  0  0  0  0
   47.3572    0.5435    6.3190 H   0  0  0  0  0  0  0  0  0  0  0  0
   50.0080    8.8419   17.3784 H   0  0  0  0  0  0  0  0  0  0  0  0
   49.0045   10.2103   17.8374 H   0  0  0  0  0  0  0  0  0  0  0  0
   47.1177    8.6444   18.4243 H   0  0  0  0  0  0  0  0  0  0  0  0
   48.0972    7.2744   17.9376 H   0  0  0  0  0  0  0  0  0  0  0  0
   48.1922    7.3968   20.3440 H   0  0  0  0  0  0  0  0  0  0  0  0
   49.7786    7.7905   19.7141 H   0  0  0  0  0  0  0  0  0  0  0  0
   46.5479    9.4452   20.7946 H   0  0  0  0  0  0  0  0  0  0  0  0
   46.4817   11.5580   22.0683 H   0  0  0  0  0  0  0  0  0  0  0  0
   48.5811   12.7762   22.5812 H   0  0  0  0  0  0  0  0  0  0  0  0
   50.7596   11.8682   21.8150 H   0  0  0  0  0  0  0  0  0  0  0  0
   50.8477    9.7567   20.5397 H   0  0  0  0  0  0  0  0  0  0  0  0
  1  2  2  0
  1  6  1  0
  2  3  1  0
  3  4  2  0
  4  5  1  0
  5  6  2  0
  5  7  1  0
  7  8  1  0
  8  9  1  0
  9 10  1  0
 10 11  2  0
 10 12  1  0
 12 13  1  0
 13 14  1  0
 14 15  1  0
 15 16  1  0
 16 17  1  0
 17 18  2  0
 17 19  1  0
 19 20  1  0
 20 21  1  0
 21 22  1  0
 24 22  1  0
 22 25  2  0
 23 24  2  0
 23 27  1  0
 25 26  1  0
 26 27  2  0
 14 28  1  0
 28 29  1  0
 29 30  2  0
 29 31  1  0
 31 32  1  0
 32 33  1  0
 33 34  1  0
 39 34  1  0
 35 34  2  0
 35 36  1  0
 36 37  2  0
 37 38  1  0
 38 39  2  0
  1 40  1  0
  2 41  1  0
  3 42  1  0
  4 43  1  0
  6 44  1  0
  7 45  1  0
  7 46  1  0
  8 47  1  0
  8 48  1  0
  9 49  1  0
  9 50  1  0
 13 51  1  0
 13 52  1  0
 14 53  1  0
 15 54  1  0
 15 55  1  0
 19 56  1  0
 19 57  1  0
 20 58  1  0
 20 59  1  0
 21 60  1  0
 21 61  1  0
 23 62  1  0
 24 63  1  0
 25 64  1  0
 26 65  1  0
 27 66  1  0
 31 67  1  0
 31 68  1  0
 32 69  1  0
 32 70  1  0
 33 71  1  0
 33 72  1  0
 35 73  1  0
 36 74  1  0
 37 75  1  0
 38 76  1  0
 39 77  1  0
M  END
> <Uni-Dock RESULT> 
ENERGY=   -5.639  LOWER_BOUND=    3.935  UPPER_BOUND=   10.260
INTER + INTRA:          -5.639
INTER:                  -5.639
INTRA:                   0.000
UNBOUND:                 0.000

$$$$

     RDKit          3D

 77 79  0  0  0  0  0  0  0  0999 V2000
   43.1555    6.3209   11.2519 C   0  0  0  0  0  0  0  0  0  0  0  0
   42.5283    5.4443   12.1347 C   0  0  0  0  0  0  0  0  0  0  0  0
   43.2899    4.6991   13.0338 C   0  0  0  0  0  0  0  0  0  0  0  0
   44.6799    4.8276   13.0467 C   0  0  0  0  0  0  0  0  0  0  0  0
   45.3209    5.7005   12.1576 C   0  0  0  0  0  0  0  0  0  0  0  0
   44.5454    6.4519   11.2645 C   0  0  0  0  0  0  0  0  0  0  0  0
   46.8212    5.8490   12.1782 C   0  0  0  0  0  0  0  0  0  0  0  0
   47.2703    6.9731   13.1119 C   0  0  0  0  0  0  0  0  0  0  0  0
   48.7920    7.0997   13.1247 C   0  0  0  0  0  0  0  0  0  0  0  0
   49.2474    8.2497   13.9890 C   0  0  0  0  0  0  0  0  0  0  0  0
   48.5866    8.7881   14.8667 O   0  0  0  0  0  0  0  0  0  0  0  0
   50.5319    8.5841   13.6692 O   0  0  0  0  0  0  0  0  0  0  0  0
   51.0391    9.7416   14.3564 C   0  0  0  0  0  0  0  0  0  0  0  0
   50.5003   11.0442   13.7365 C   0  0  0  0  0  0  0  0  0  0  0  0
   50.8470   12.2411   14.6292 C   0  0  0  0  0  0  0  0  0  0  0  0
   50.2024   12.1417   15.9081 O   0  0  0  0  0  0  0  0  0  0  0  0
   48.9183   12.5948   15.9484 C   0  0  0  0  0  0  0  0  0  0  0  0
   48.3244   13.0966   15.0031 O   0  0  0  0  0  0  0  0  0  0  0  0
   48.2939   12.3415   17.2970 C   0  0  0  0  0  0  0  0  0  0  0  0
   49.1341   12.9013   18.4416 C   0  0  0  0  0  0  0  0  0  0  0  0
   48.4117   12.7513   19.7807 C   0  0  0  0  0  0  0  0  0  0  0  0
   49.2520   13.2556   20.9272 C   0  0  0  0  0  0  0  0  0  0  0  0
   50.8275   12.8371   22.7266 C   0  0  0  0  0  0  0  0  0  0  0  0
   50.0405   12.3687   21.6731 C   0  0  0  0  0  0  0  0  0  0  0  0
   49.2739   14.6201   21.2480 C   0  0  0  0  0  0  0  0  0  0  0  0
   50.0623   15.0863   22.3018 C   0  0  0  0  0  0  0  0  0  0  0  0
   50.8375   14.1948   23.0414 C   0  0  0  0  0  0  0  0  0  0  0  0
   51.1329   11.2648   12.4535 O   0  0  0  0  0  0  0  0  0  0  0  0
   50.5075   10.7276   11.3690 C   0  0  0  0  0  0  0  0  0  0  0  0
   49.4727   10.0770   11.3892 O   0  0  0  0  0  0  0  0  0  0  0  0
   51.2679   11.0638   10.1127 C   0  0  0  0  0  0  0  0  0  0  0  0
   50.9712   12.4949    9.6741 C   0  0  0  0  0  0  0  0  0  0  0  0
   51.7540   12.9102    8.4250 C   0  0  0  0  0  0  0  0  0  0  0  0
   51.3478   12.1612    7.1796 C   0  0  0  0  0  0  0  0  0  0  0  0
   50.0896   12.3777    6.5993 C   0  0  0  0  0  0  0  0  0  0  0  0
   49.7096   11.6788    5.4518 C   0  0  0  0  0  0  0  0  0  0  0  0
   50.5827   10.7596    4.8723 C   0  0  0  0  0  0  0  0  0  0  0  0
   51.8372   10.5396    5.4381 C   0  0  0  0  0  0  0  0  0  0  0  0
   52.2198   11.2377    6.5859 C   0  0  0  0  0  0  0  0  0  0  0  0
   42.5626    6.9061   10.5538 H   0  0  0  0  0  0  0  0  0  0  0  0
   41.4460    5.3460   12.1260 H   0  0  0  0  0  0  0  0  0  0  0  0
   42.8019    4.0183   13.7259 H   0  0  0  0  0  0  0  0  0  0  0  0
   45.2606    4.2434   13.7573 H   0  0  0  0  0  0  0  0  0  0  0  0
   45.0205    7.1460   10.5746 H   0  0  0  0  0  0  0  0  0  0  0  0
   47.2765    4.8988   12.4846 H   0  0  0  0  0  0  0  0  0  0  0  0
   47.1790    6.0386   11.1581 H   0  0  0  0  0  0  0  0  0  0  0  0
   46.9061    6.7854   14.1307 H   0  0  0  0  0  0  0  0  0  0  0  0
   46.8227    7.9250   12.7966 H   0  0  0  0  0  0  0  0  0  0  0  0
   49.2511    6.1822   13.5093 H   0  0  0  0  0  0  0  0  0  0  0  0
   49.1485    7.2711   12.1017 H   0  0  0  0  0  0  0  0  0  0  0  0
   52.1292    9.7022   14.2523 H   0  0  0  0  0  0  0  0  0  0  0  0
   50.8137    9.6617   15.4260 H   0  0  0  0  0  0  0  0  0  0  0  0
   49.4125   10.9928   13.6135 H   0  0  0  0  0  0  0  0  0  0  0  0
   50.6028   13.1900   14.1339 H   0  0  0  0  0  0  0  0  0  0  0  0
   51.9282   12.2786   14.8092 H   0  0  0  0  0  0  0  0  0  0  0  0
   48.1401   11.2618   17.4086 H   0  0  0  0  0  0  0  0  0  0  0  0
   47.3057   12.8185   17.2982 H   0  0  0  0  0  0  0  0  0  0  0  0
   50.1008   12.3833   18.4821 H   0  0  0  0  0  0  0  0  0  0  0  0
   49.3602   13.9582   18.2506 H   0  0  0  0  0  0  0  0  0  0  0  0
   48.1538   11.6987   19.9528 H   0  0  0  0  0  0  0  0  0  0  0  0
   47.4602   13.2977   19.7633 H   0  0  0  0  0  0  0  0  0  0  0  0
   51.4321   12.1420   23.3032 H   0  0  0  0  0  0  0  0  0  0  0  0
   50.0455   11.3064   21.4390 H   0  0  0  0  0  0  0  0  0  0  0  0
   48.6758   15.3281   20.6788 H   0  0  0  0  0  0  0  0  0  0  0  0
   50.0708   16.1455   22.5453 H   0  0  0  0  0  0  0  0  0  0  0  0
   51.4484   14.5572   23.8640 H   0  0  0  0  0  0  0  0  0  0  0  0
   52.3376   10.9117   10.2949 H   0  0  0  0  0  0  0  0  0  0  0  0
   50.9737   10.3412    9.3438 H   0  0  0  0  0  0  0  0  0  0  0  0
   49.8927   12.6129    9.5106 H   0  0  0  0  0  0  0  0  0  0  0  0
   51.2314   13.1831   10.4884 H   0  0  0  0  0  0  0  0  0  0  0  0
   51.6002   13.9820    8.2432 H   0  0  0  0  0  0  0  0  0  0  0  0
   52.8297   12.7885    8.6071 H   0  0  0  0  0  0  0  0  0  0  0  0
   49.3956   13.0914    7.0392 H   0  0  0  0  0  0  0  0  0  0  0  0
   48.7310   11.8517    5.0114 H   0  0  0  0  0  0  0  0  0  0  0  0
   50.2845   10.2157    3.9795 H   0  0  0  0  0  0  0  0  0  0  0  0
   52.5187    9.8234    4.9856 H   0  0  0  0  0  0  0  0  0  0  0  0
   53.2028   11.0530    7.0136 H   0  0  0  0  0  0  0  0  0  0  0  0
  1  2  2  0
  1  6  1  0
  2  3  1  0
  3  4  2  0
  4  5  1  0
  5  6  2  0
  5  7  1  0
  7  8  1  0
  8  9  1  0
  9 10  1  0
 10 11  2  0
 10 12  1  0
 12 13  1  0
 13 14  1  0
 14 15  1  0
 15 16  1  0
 16 17  1  0
 17 18  2  0
 17 19  1  0
 19 20  1  0
 20 21  1  0
 21 22  1  0
 24 22  1  0
 22 25  2  0
 23 24  2  0
 23 27  1  0
 25 26  1  0
 26 27  2  0
 14 28  1  0
 28 29  1  0
 29 30  2  0
 29 31  1  0
 31 32  1  0
 32 33  1  0
 33 34  1  0
 39 34  1  0
 35 34  2  0
 35 36  1  0
 36 37  2  0
 37 38  1  0
 38 39  2  0
  1 40  1  0
  2 41  1  0
  3 42  1  0
  4 43  1  0
  6 44  1  0
  7 45  1  0
  7 46  1  0
  8 47  1  0
  8 48  1  0
  9 49  1  0
  9 50  1  0
 13 51  1  0
 13 52  1  0
 14 53  1  0
 15 54  1  0
 15 55  1  0
 19 56  1  0
 19 57  1  0
 20 58  1  0
 20 59  1  0
 21 60  1  0
 21 61  1  0
 23 62  1  0
 24 63  1  0
 25 64  1  0
 26 65  1  0
 27 66  1  0
 31 67  1  0
 31 68  1  0
 32 69  1  0
 32 70  1  0
 33 71  1  0
 33 72  1  0
 35 73  1  0
 36 74  1  0
 37 75  1  0
 38 76  1  0
 39 77  1  0
M  END
> <Uni-Dock RESULT> 
ENERGY=   -5.338  LOWER_BOUND=    3.338  UPPER_BOUND=    4.325
INTER + INTRA:          -5.338
INTER:                  -5.338
INTRA:                   0.000
UNBOUND:                 0.000

$$$$

     RDKit          3D

 77 79  0  0  0  0  0  0  0  0999 V2000
   44.4878    3.3959   12.5918 C   0  0  0  0  0  0  0  0  0  0  0  0
   43.5545    3.5124   11.5640 C   0  0  0  0  0  0  0  0  0  0  0  0
   43.3034    4.7580   10.9901 C   0  0  0  0  0  0  0  0  0  0  0  0
   43.9832    5.8882   11.4477 C   0  0  0  0  0  0  0  0  0  0  0  0
   44.9179    5.7829   12.4862 C   0  0  0  0  0  0  0  0  0  0  0  0
   45.1698    4.5248   13.0495 C   0  0  0  0  0  0  0  0  0  0  0  0
   45.6613    7.0009   12.9736 C   0  0  0  0  0  0  0  0  0  0  0  0
   46.9812    7.1995   12.2283 C   0  0  0  0  0  0  0  0  0  0  0  0
   47.7124    8.4423   12.7307 C   0  0  0  0  0  0  0  0  0  0  0  0
   49.0493    8.6136   12.0524 C   0  0  0  0  0  0  0  0  0  0  0  0
   49.3832    8.1003   10.9932 O   0  0  0  0  0  0  0  0  0  0  0  0
   49.8300    9.4623   12.7834 O   0  0  0  0  0  0  0  0  0  0  0  0
   51.1718    9.6187   12.2891 C   0  0  0  0  0  0  0  0  0  0  0  0
   52.0537    8.4140   12.6663 C   0  0  0  0  0  0  0  0  0  0  0  0
   53.3928    8.4820   11.9236 C   0  0  0  0  0  0  0  0  0  0  0  0
   53.2074    8.3789   10.5037 O   0  0  0  0  0  0  0  0  0  0  0  0
   53.1039    7.1088   10.0218 C   0  0  0  0  0  0  0  0  0  0  0  0
   53.1964    6.0944   10.7004 O   0  0  0  0  0  0  0  0  0  0  0  0
   52.7963    7.1101    8.5460 C   0  0  0  0  0  0  0  0  0  0  0  0
   53.7905    7.9465    7.7451 C   0  0  0  0  0  0  0  0  0  0  0  0
   53.5355    7.8176    6.2431 C   0  0  0  0  0  0  0  0  0  0  0  0
   54.4797    8.6783    5.4413 C   0  0  0  0  0  0  0  0  0  0  0  0
   54.9695   10.7599    4.2915 C   0  0  0  0  0  0  0  0  0  0  0  0
   54.0913    9.9585    5.0232 C   0  0  0  0  0  0  0  0  0  0  0  0
   55.7655    8.2195    5.1233 C   0  0  0  0  0  0  0  0  0  0  0  0
   56.6422    9.0230    4.3918 C   0  0  0  0  0  0  0  0  0  0  0  0
   56.2436   10.2919    3.9750 C   0  0  0  0  0  0  0  0  0  0  0  0
   52.3435    8.4543   14.0838 O   0  0  0  0  0  0  0  0  0  0  0  0
   51.4644    7.8096   14.9008 C   0  0  0  0  0  0  0  0  0  0  0  0
   50.4598    7.2128   14.5418 O   0  0  0  0  0  0  0  0  0  0  0  0
   51.9141    7.9178   16.3345 C   0  0  0  0  0  0  0  0  0  0  0  0
   53.0335    6.9213   16.6212 C   0  0  0  0  0  0  0  0  0  0  0  0
   53.5648    7.0172   18.0544 C   0  0  0  0  0  0  0  0  0  0  0  0
   52.5616    6.5980   19.1008 C   0  0  0  0  0  0  0  0  0  0  0  0
   52.1744    5.2550   19.2155 C   0  0  0  0  0  0  0  0  0  0  0  0
   51.2399    4.8675   20.1779 C   0  0  0  0  0  0  0  0  0  0  0  0
   50.6855    5.8164   21.0354 C   0  0  0  0  0  0  0  0  0  0  0  0
   51.0662    7.1531   20.9332 C   0  0  0  0  0  0  0  0  0  0  0  0
   52.0011    7.5432   19.9714 C   0  0  0  0  0  0  0  0  0  0  0  0
   44.6881    2.4247   13.0367 H   0  0  0  0  0  0  0  0  0  0  0  0
   43.0270    2.6320   11.2064 H   0  0  0  0  0  0  0  0  0  0  0  0
   42.5790    4.8497   10.1854 H   0  0  0  0  0  0  0  0  0  0  0  0
   43.7804    6.8525   10.9868 H   0  0  0  0  0  0  0  0  0  0  0  0
   45.9013    4.4173   13.8475 H   0  0  0  0  0  0  0  0  0  0  0  0
   45.0243    7.8866   12.8566 H   0  0  0  0  0  0  0  0  0  0  0  0
   45.8459    6.9035   14.0511 H   0  0  0  0  0  0  0  0  0  0  0  0
   46.7955    7.2902   11.1499 H   0  0  0  0  0  0  0  0  0  0  0  0
   47.6216    6.3167   12.3562 H   0  0  0  0  0  0  0  0  0  0  0  0
   47.1167    9.3422   12.5410 H   0  0  0  0  0  0  0  0  0  0  0  0
   47.8797    8.3507   13.8108 H   0  0  0  0  0  0  0  0  0  0  0  0
   51.5632   10.5285   12.7578 H   0  0  0  0  0  0  0  0  0  0  0  0
   51.1464    9.7975   11.2081 H   0  0  0  0  0  0  0  0  0  0  0  0
   51.5517    7.4731   12.4135 H   0  0  0  0  0  0  0  0  0  0  0  0
   54.0896    7.7166   12.2898 H   0  0  0  0  0  0  0  0  0  0  0  0
   53.8869    9.4410   12.1207 H   0  0  0  0  0  0  0  0  0  0  0  0
   51.7708    7.4722    8.4077 H   0  0  0  0  0  0  0  0  0  0  0  0
   52.8291    6.0689    8.2010 H   0  0  0  0  0  0  0  0  0  0  0  0
   53.7172    8.9998    8.0443 H   0  0  0  0  0  0  0  0  0  0  0  0
   54.8143    7.6305    7.9830 H   0  0  0  0  0  0  0  0  0  0  0  0
   52.5003    8.0988    6.0122 H   0  0  0  0  0  0  0  0  0  0  0  0
   53.6435    6.7724    5.9268 H   0  0  0  0  0  0  0  0  0  0  0  0
   54.6587   11.7493    3.9667 H   0  0  0  0  0  0  0  0  0  0  0  0
   53.1012   10.3394    5.2637 H   0  0  0  0  0  0  0  0  0  0  0  0
   56.0915    7.2323    5.4431 H   0  0  0  0  0  0  0  0  0  0  0  0
   57.6363    8.6579    4.1471 H   0  0  0  0  0  0  0  0  0  0  0  0
   56.9248   10.9160    3.4025 H   0  0  0  0  0  0  0  0  0  0  0  0
   52.2321    8.9482   16.5290 H   0  0  0  0  0  0  0  0  0  0  0  0
   51.0416    7.7323   16.9703 H   0  0  0  0  0  0  0  0  0  0  0  0
   52.6835    5.9038   16.4067 H   0  0  0  0  0  0  0  0  0  0  0  0
   53.8670    7.1067   15.9317 H   0  0  0  0  0  0  0  0  0  0  0  0
   54.4497    6.3752   18.1544 H   0  0  0  0  0  0  0  0  0  0  0  0
   53.9127    8.0398   18.2505 H   0  0  0  0  0  0  0  0  0  0  0  0
   52.5970    4.5014   18.5537 H   0  0  0  0  0  0  0  0  0  0  0  0
   50.9442    3.8245   20.2568 H   0  0  0  0  0  0  0  0  0  0  0  0
   49.9572    5.5128   21.7833 H   0  0  0  0  0  0  0  0  0  0  0  0
   50.6347    7.8931   21.6026 H   0  0  0  0  0  0  0  0  0  0  0  0
   52.2862    8.5910   19.9062 H   0  0  0  0  0  0  0  0  0  0  0  0
  1  2  2  0
  1  6  1  0
  2  3  1  0
  3  4  2  0
  4  5  1  0
  5  6  2  0
  5  7  1  0
  7  8  1  0
  8  9  1  0
  9 10  1  0
 10 11  2  0
 10 12  1  0
 12 13  1  0
 13 14  1  0
 14 15  1  0
 15 16  1  0
 16 17  1  0
 17 18  2  0
 17 19  1  0
 19 20  1  0
 20 21  1  0
 21 22  1  0
 24 22  1  0
 22 25  2  0
 23 24  2  0
 23 27  1  0
 25 26  1  0
 26 27  2  0
 14 28  1  0
 28 29  1  0
 29 30  2  0
 29 31  1  0
 31 32  1  0
 32 33  1  0
 33 34  1  0
 39 34  1  0
 35 34  2  0
 35 36  1  0
 36 37  2  0
 37 38  1  0
 38 39  2  0
  1 40  1  0
  2 41  1  0
  3 42  1  0
  4 43  1  0
  6 44  1  0
  7 45  1  0
  7 46  1  0
  8 47  1  0
  8 48  1  0
  9 49  1  0
  9 50  1  0
 13 51  1  0
 13 52  1  0
 14 53  1  0
 15 54  1  0
 15 55  1  0
 19 56  1  0
 19 57  1  0
 20 58  1  0
 20 59  1  0
 21 60  1  0
 21 61  1  0
 23 62  1  0
 24 63  1  0
 25 64  1  0
 26 65  1  0
 27 66  1  0
 31 67  1  0
 31 68  1  0
 32 69  1  0
 32 70  1  0
 33 71  1  0
 33 72  1  0
 35 73  1  0
 36 74  1  0
 37 75  1  0
 38 76  1  0
 39 77  1  0
M  END
> <Uni-Dock RESULT> 
ENERGY=   -5.168  LOWER_BOUND=    3.741  UPPER_BOUND=   10.990
INTER + INTRA:          -5.168
INTER:                  -5.168
INTRA:                   0.000
UNBOUND:                 0.000

$$$$

     RDKit          3D

 77 79  0  0  0  0  0  0  0  0999 V2000
   43.2210    5.3463   12.7042 C   0  0  0  0  0  0  0  0  0  0  0  0
   43.2362    3.9812   12.4258 C   0  0  0  0  0  0  0  0  0  0  0  0
   44.4262    3.3619   12.0459 C   0  0  0  0  0  0  0  0  0  0  0  0
   45.6004    4.1094   11.9403 C   0  0  0  0  0  0  0  0  0  0  0  0
   45.5940    5.4843   12.2104 C   0  0  0  0  0  0  0  0  0  0  0  0
   44.3947    6.0951   12.6007 C   0  0  0  0  0  0  0  0  0  0  0  0
   46.8639    6.2908   12.1078 C   0  0  0  0  0  0  0  0  0  0  0  0
   47.6100    6.3516   13.4408 C   0  0  0  0  0  0  0  0  0  0  0  0
   48.8962    7.1644   13.3121 C   0  0  0  0  0  0  0  0  0  0  0  0
   49.6091    7.2911   14.6359 C   0  0  0  0  0  0  0  0  0  0  0  0
   49.4448    6.5658   15.6073 O   0  0  0  0  0  0  0  0  0  0  0  0
   50.5002    8.3241   14.5808 O   0  0  0  0  0  0  0  0  0  0  0  0
   51.1649    8.6099   15.8242 C   0  0  0  0  0  0  0  0  0  0  0  0
   50.2501    9.3939   16.7832 C   0  0  0  0  0  0  0  0  0  0  0  0
   50.8804    9.4669   18.1785 C   0  0  0  0  0  0  0  0  0  0  0  0
   51.0040    8.1618   18.7638 O   0  0  0  0  0  0  0  0  0  0  0  0
   49.8862    7.6968   19.3884 C   0  0  0  0  0  0  0  0  0  0  0  0
   48.8404    8.3218   19.5062 O   0  0  0  0  0  0  0  0  0  0  0  0
   50.0791    6.2799   19.8658 C   0  0  0  0  0  0  0  0  0  0  0  0
   51.3258    6.1225   20.7321 C   0  0  0  0  0  0  0  0  0  0  0  0
   51.4196    4.7110   21.3121 C   0  0  0  0  0  0  0  0  0  0  0  0
   52.6732    4.5265   22.1304 C   0  0  0  0  0  0  0  0  0  0  0  0
   54.9856    3.8078   22.3071 C   0  0  0  0  0  0  0  0  0  0  0  0
   53.8216    3.9675   21.5532 C   0  0  0  0  0  0  0  0  0  0  0  0
   52.7144    4.9323   23.4715 C   0  0  0  0  0  0  0  0  0  0  0  0
   53.8799    4.7721   24.2234 C   0  0  0  0  0  0  0  0  0  0  0  0
   55.0143    4.2088   23.6416 C   0  0  0  0  0  0  0  0  0  0  0  0
   50.1014   10.7518   16.3048 O   0  0  0  0  0  0  0  0  0  0  0  0
   49.0660   10.9836   15.4505 C   0  0  0  0  0  0  0  0  0  0  0  0
   48.2655   10.1493   15.0535 O   0  0  0  0  0  0  0  0  0  0  0  0
   49.0276   12.4395   15.0652 C   0  0  0  0  0  0  0  0  0  0  0  0
   48.3987   13.2716   16.1789 C   0  0  0  0  0  0  0  0  0  0  0  0
   48.3748   14.7699   15.8630 C   0  0  0  0  0  0  0  0  0  0  0  0
   47.4647   15.1317   14.7149 C   0  0  0  0  0  0  0  0  0  0  0  0
   46.0730   15.0246   14.8510 C   0  0  0  0  0  0  0  0  0  0  0  0
   45.2305   15.3510   13.7865 C   0  0  0  0  0  0  0  0  0  0  0  0
   45.7693   15.7892   12.5779 C   0  0  0  0  0  0  0  0  0  0  0  0
   47.1507   15.9034   12.4328 C   0  0  0  0  0  0  0  0  0  0  0  0
   47.9956   15.5778   13.4964 C   0  0  0  0  0  0  0  0  0  0  0  0
   42.2951    5.8293   13.0052 H   0  0  0  0  0  0  0  0  0  0  0  0
   42.3224    3.3990   12.5103 H   0  0  0  0  0  0  0  0  0  0  0  0
   44.4405    2.2965   11.8327 H   0  0  0  0  0  0  0  0  0  0  0  0
   46.5223    3.6115   11.6476 H   0  0  0  0  0  0  0  0  0  0  0  0
   44.3691    7.1585   12.8286 H   0  0  0  0  0  0  0  0  0  0  0  0
   47.5087    5.8568   11.3334 H   0  0  0  0  0  0  0  0  0  0  0  0
   46.6208    7.3041   11.7635 H   0  0  0  0  0  0  0  0  0  0  0  0
   47.8467    5.3369   13.7873 H   0  0  0  0  0  0  0  0  0  0  0  0
   46.9668    6.7967   14.2115 H   0  0  0  0  0  0  0  0  0  0  0  0
   49.5814    6.6902   12.6006 H   0  0  0  0  0  0  0  0  0  0  0  0
   48.6525    8.1709   12.9506 H   0  0  0  0  0  0  0  0  0  0  0  0
   52.0414    9.2150   15.5669 H   0  0  0  0  0  0  0  0  0  0  0  0
   51.5344    7.6773   16.2657 H   0  0  0  0  0  0  0  0  0  0  0  0
   49.2676    8.9141   16.8590 H   0  0  0  0  0  0  0  0  0  0  0  0
   50.3173   10.1445   18.8338 H   0  0  0  0  0  0  0  0  0  0  0  0
   51.8881    9.8951   18.1169 H   0  0  0  0  0  0  0  0  0  0  0  0
   50.1194    5.6230   18.9891 H   0  0  0  0  0  0  0  0  0  0  0  0
   49.1900    6.0031   20.4463 H   0  0  0  0  0  0  0  0  0  0  0  0
   52.2224    6.3390   20.1375 H   0  0  0  0  0  0  0  0  0  0  0  0
   51.3083    6.8633   21.5418 H   0  0  0  0  0  0  0  0  0  0  0  0
   51.3998    3.9701   20.5030 H   0  0  0  0  0  0  0  0  0  0  0  0
   50.5448    4.4982   21.9395 H   0  0  0  0  0  0  0  0  0  0  0  0
   55.8702    3.3687   21.8533 H   0  0  0  0  0  0  0  0  0  0  0  0
   53.8164    3.6513   20.5124 H   0  0  0  0  0  0  0  0  0  0  0  0
   51.8378    5.3751   23.9389 H   0  0  0  0  0  0  0  0  0  0  0  0
   53.9018    5.0868   25.2635 H   0  0  0  0  0  0  0  0  0  0  0  0
   55.9205    4.0808   24.2279 H   0  0  0  0  0  0  0  0  0  0  0  0
   50.0466   12.7728   14.8393 H   0  0  0  0  0  0  0  0  0  0  0  0
   48.4561   12.5210   14.1343 H   0  0  0  0  0  0  0  0  0  0  0  0
   47.3855   12.9043   16.3845 H   0  0  0  0  0  0  0  0  0  0  0  0
   48.9683   13.1239   17.1052 H   0  0  0  0  0  0  0  0  0  0  0  0
   48.0377   15.3202   16.7512 H   0  0  0  0  0  0  0  0  0  0  0  0
   49.3957   15.1205   15.6628 H   0  0  0  0  0  0  0  0  0  0  0  0
   45.6357   14.6836   15.7876 H   0  0  0  0  0  0  0  0  0  0  0  0
   44.1533   15.2618   13.9012 H   0  0  0  0  0  0  0  0  0  0  0  0
   45.1116   16.0418   11.7499 H   0  0  0  0  0  0  0  0  0  0  0  0
   47.5710   16.2461   11.4906 H   0  0  0  0  0  0  0  0  0  0  0  0
   49.0712   15.6730   13.3650 H   0  0  0  0  0  0  0  0  0  0  0  0
  1  2  2  0
  1  6  1  0
  2  3  1  0
  3  4  2  0
  4  5  1  0
  5  6  2  0
  5  7  1  0
  7  8  1  0
  8  9  1  0
  9 10  1  0
 10 11  2  0
 10 12  1  0
 12 13  1  0
 13 14  1  0
 14 15  1  0
 15 16  1  0
 16 17  1  0
 17 18  2  0
 17 19  1  0
 19 20  1  0
 20 21  1  0
 21 22  1  0
 24 22  1  0
 22 25  2  0
 23 24  2  0
 23 27  1  0
 25 26  1  0
 26 27  2  0
 14 28  1  0
 28 29  1  0
 29 30  2  0
 29 31  1  0
 31 32  1  0
 32 33  1  0
 33 34  1  0
 39 34  1  0
 35 34  2  0
 35 36  1  0
 36 37  2  0
 37 38  1  0
 38 39  2  0
  1 40  1  0
  2 41  1  0
  3 42  1  0
  4 43  1  0
  6 44  1  0
  7 45  1  0
  7 46  1  0
  8 47  1  0
  8 48  1  0
  9 49  1  0
  9 50  1  0
 13 51  1  0
 13 52  1  0
 14 53  1  0
 15 54  1  0
 15 55  1  0
 19 56  1  0
 19 57  1  0
 20 58  1  0
 20 59  1  0
 21 60  1  0
 21 61  1  0
 23 62  1  0
 24 63  1  0
 25 64  1  0
 26 65  1  0
 27 66  1  0
 31 67  1  0
 31 68  1  0
 32 69  1  0
 32 70  1  0
 33 71  1  0
 33 72  1  0
 35 73  1  0
 36 74  1  0
 37 75  1  0
 38 76  1  0
 39 77  1  0
M  END
> <Uni-Dock RESULT> 
ENERGY=   -5.059  LOWER_BOUND=    4.560  UPPER_BOUND=    7.204
INTER + INTRA:          -5.059
INTER:                  -5.059
INTRA:                   0.000
UNBOUND:                 0.000

$$$$

     RDKit          3D

 77 79  0  0  0  0  0  0  0  0999 V2000
   47.5203    5.5072   22.1307 C   0  0  0  0  0  0  0  0  0  0  0  0
   48.3736    5.5433   23.2314 C   0  0  0  0  0  0  0  0  0  0  0  0
   49.7489    5.4032   23.0504 C   0  0  0  0  0  0  0  0  0  0  0  0
   50.2703    5.2225   21.7681 C   0  0  0  0  0  0  0  0  0  0  0  0
   49.4199    5.1768   20.6554 C   0  0  0  0  0  0  0  0  0  0  0  0
   48.0401    5.3282   20.8474 C   0  0  0  0  0  0  0  0  0  0  0  0
   49.9826    4.9932   19.2686 C   0  0  0  0  0  0  0  0  0  0  0  0
   50.2799    6.3314   18.5920 C   0  0  0  0  0  0  0  0  0  0  0  0
   50.8570    6.1222   17.1939 C   0  0  0  0  0  0  0  0  0  0  0  0
   51.0917    7.4343   16.4868 C   0  0  0  0  0  0  0  0  0  0  0  0
   51.1902    8.5281   17.0261 O   0  0  0  0  0  0  0  0  0  0  0  0
   51.2140    7.2173   15.1444 O   0  0  0  0  0  0  0  0  0  0  0  0
   51.3344    8.4121   14.3521 C   0  0  0  0  0  0  0  0  0  0  0  0
   49.9697    9.0990   14.1601 C   0  0  0  0  0  0  0  0  0  0  0  0
   50.1559   10.4863   13.5355 C   0  0  0  0  0  0  0  0  0  0  0  0
   50.8923   11.3565   14.4082 O   0  0  0  0  0  0  0  0  0  0  0  0
   50.1518   11.9825   15.3650 C   0  0  0  0  0  0  0  0  0  0  0  0
   48.9387   11.8776   15.4895 O   0  0  0  0  0  0  0  0  0  0  0  0
   51.0288   12.7781   16.2981 C   0  0  0  0  0  0  0  0  0  0  0  0
   51.9400   13.7498   15.5532 C   0  0  0  0  0  0  0  0  0  0  0  0
   52.7152   14.6364   16.5281 C   0  0  0  0  0  0  0  0  0  0  0  0
   53.6569   15.5680   15.8067 C   0  0  0  0  0  0  0  0  0  0  0  0
   55.8718   16.0762   14.9516 C   0  0  0  0  0  0  0  0  0  0  0  0
   55.0030   15.2195   15.6298 C   0  0  0  0  0  0  0  0  0  0  0  0
   53.1944   16.7835   15.2835 C   0  0  0  0  0  0  0  0  0  0  0  0
   54.0651   17.6385   14.6051 C   0  0  0  0  0  0  0  0  0  0  0  0
   55.4034   17.2854   14.4407 C   0  0  0  0  0  0  0  0  0  0  0  0
   49.1620    8.3190   13.2467 O   0  0  0  0  0  0  0  0  0  0  0  0
   48.3732    7.3583   13.8041 C   0  0  0  0  0  0  0  0  0  0  0  0
   48.2963    7.0985   14.9962 O   0  0  0  0  0  0  0  0  0  0  0  0
   47.5784    6.6552   12.7347 C   0  0  0  0  0  0  0  0  0  0  0  0
   46.3826    7.5035   12.3116 C   0  0  0  0  0  0  0  0  0  0  0  0
   45.5613    6.8593   11.1908 C   0  0  0  0  0  0  0  0  0  0  0  0
   44.8543    5.5937   11.6097 C   0  0  0  0  0  0  0  0  0  0  0  0
   43.7852    5.6442   12.5159 C   0  0  0  0  0  0  0  0  0  0  0  0
   43.1359    4.4728   12.9105 C   0  0  0  0  0  0  0  0  0  0  0  0
   43.5462    3.2413   12.4025 C   0  0  0  0  0  0  0  0  0  0  0  0
   44.6048    3.1797   11.4980 C   0  0  0  0  0  0  0  0  0  0  0  0
   45.2558    4.3503   11.1015 C   0  0  0  0  0  0  0  0  0  0  0  0
   46.4484    5.6213   22.2699 H   0  0  0  0  0  0  0  0  0  0  0  0
   47.9677    5.6863   24.2293 H   0  0  0  0  0  0  0  0  0  0  0  0
   50.4161    5.4355   23.9074 H   0  0  0  0  0  0  0  0  0  0  0  0
   51.3459    5.1196   21.6419 H   0  0  0  0  0  0  0  0  0  0  0  0
   47.3623    5.3098   19.9967 H   0  0  0  0  0  0  0  0  0  0  0  0
   50.8953    4.3868   19.3239 H   0  0  0  0  0  0  0  0  0  0  0  0
   49.2726    4.4134   18.6651 H   0  0  0  0  0  0  0  0  0  0  0  0
   50.9852    6.9131   19.2001 H   0  0  0  0  0  0  0  0  0  0  0  0
   49.3627    6.9319   18.5275 H   0  0  0  0  0  0  0  0  0  0  0  0
   51.8127    5.5890   17.2480 H   0  0  0  0  0  0  0  0  0  0  0  0
   50.1537    5.5273   16.5985 H   0  0  0  0  0  0  0  0  0  0  0  0
   51.7312    8.0933   13.3818 H   0  0  0  0  0  0  0  0  0  0  0  0
   52.0793    9.0779   14.8027 H   0  0  0  0  0  0  0  0  0  0  0  0
   49.4519    9.2054   15.1202 H   0  0  0  0  0  0  0  0  0  0  0  0
   49.1908   10.9287   13.2554 H   0  0  0  0  0  0  0  0  0  0  0  0
   50.7206   10.4072   12.5988 H   0  0  0  0  0  0  0  0  0  0  0  0
   51.6103   12.0763   16.9072 H   0  0  0  0  0  0  0  0  0  0  0  0
   50.3698   13.3366   16.9748 H   0  0  0  0  0  0  0  0  0  0  0  0
   52.6425   13.1918   14.9211 H   0  0  0  0  0  0  0  0  0  0  0  0
   51.3413   14.3695   14.8733 H   0  0  0  0  0  0  0  0  0  0  0  0
   53.2844   14.0144   17.2305 H   0  0  0  0  0  0  0  0  0  0  0  0
   52.0216   15.2272   17.1396 H   0  0  0  0  0  0  0  0  0  0  0  0
   56.9152   15.8007   14.8232 H   0  0  0  0  0  0  0  0  0  0  0  0
   55.3839   14.2786   16.0207 H   0  0  0  0  0  0  0  0  0  0  0  0
   52.1524   17.0720   15.4023 H   0  0  0  0  0  0  0  0  0  0  0  0
   53.6984   18.5804   14.2054 H   0  0  0  0  0  0  0  0  0  0  0  0
   56.0820   17.9525   13.9157 H   0  0  0  0  0  0  0  0  0  0  0  0
   48.2388    6.4386   11.8877 H   0  0  0  0  0  0  0  0  0  0  0  0
   47.2593    5.6890   13.1403 H   0  0  0  0  0  0  0  0  0  0  0  0
   45.7503    7.7085   13.1845 H   0  0  0  0  0  0  0  0  0  0  0  0
   46.7393    8.4799   11.9597 H   0  0  0  0  0  0  0  0  0  0  0  0
   44.8036    7.5737   10.8432 H   0  0  0  0  0  0  0  0  0  0  0  0
   46.2083    6.6640   10.3257 H   0  0  0  0  0  0  0  0  0  0  0  0
   43.4524    6.5973   12.9226 H   0  0  0  0  0  0  0  0  0  0  0  0
   42.3102    4.5223   13.6157 H   0  0  0  0  0  0  0  0  0  0  0  0
   43.0401    2.3303   12.7119 H   0  0  0  0  0  0  0  0  0  0  0  0
   44.9243    2.2194   11.1009 H   0  0  0  0  0  0  0  0  0  0  0  0
   46.0800    4.2829   10.3948 H   0  0  0  0  0  0  0  0  0  0  0  0
  1  2  2  0
  1  6  1  0
  2  3  1  0
  3  4  2  0
  4  5  1  0
  5  6  2  0
  5  7  1  0
  7  8  1  0
  8  9  1  0
  9 10  1  0
 10 11  2  0
 10 12  1  0
 12 13  1  0
 13 14  1  0
 14 15  1  0
 15 16  1  0
 16 17  1  0
 17 18  2  0
 17 19  1  0
 19 20  1  0
 20 21  1  0
 21 22  1  0
 24 22  1  0
 22 25  2  0
 23 24  2  0
 23 27  1  0
 25 26  1  0
 26 27  2  0
 14 28  1  0
 28 29  1  0
 29 30  2  0
 29 31  1  0
 31 32  1  0
 32 33  1  0
 33 34  1  0
 39 34  1  0
 35 34  2  0
 35 36  1  0
 36 37  2  0
 37 38  1  0
 38 39  2  0
  1 40  1  0
  2 41  1  0
  3 42  1  0
  4 43  1  0
  6 44  1  0
  7 45  1  0
  7 46  1  0
  8 47  1  0
  8 48  1  0
  9 49  1  0
  9 50  1  0
 13 51  1  0
 13 52  1  0
 14 53  1  0
 15 54  1  0
 15 55  1  0
 19 56  1  0
 19 57  1  0
 20 58  1  0
 20 59  1  0
 21 60  1  0
 21 61  1  0
 23 62  1  0
 24 63  1  0
 25 64  1  0
 26 65  1  0
 27 66  1  0
 31 67  1  0
 31 68  1  0
 32 69  1  0
 32 70  1  0
 33 71  1  0
 33 72  1  0
 35 73  1  0
 36 74  1  0
 37 75  1  0
 38 76  1  0
 39 77  1  0
M  END
> <Uni-Dock RESULT> 
ENERGY=   -4.937  LOWER_BOUND=    4.454  UPPER_BOUND=    9.687
INTER + INTRA:          -4.937
INTER:                  -4.937
INTRA:                   0.000
UNBOUND:                 0.000

$$$$

     RDKit          3D

 77 79  0  0  0  0  0  0  0  0999 V2000
   53.0148    5.7360    7.3093 C   0  0  0  0  0  0  0  0  0  0  0  0
   54.3274    5.2881    7.4421 C   0  0  0  0  0  0  0  0  0  0  0  0
   55.2289    6.0001    8.2322 C   0  0  0  0  0  0  0  0  0  0  0  0
   54.8182    7.1631    8.8861 C   0  0  0  0  0  0  0  0  0  0  0  0
   53.5026    7.6262    8.7526 C   0  0  0  0  0  0  0  0  0  0  0  0
   52.6019    6.8979    7.9638 C   0  0  0  0  0  0  0  0  0  0  0  0
   53.0544    8.8759    9.4675 C   0  0  0  0  0  0  0  0  0  0  0  0
   52.4719    8.5661   10.8465 C   0  0  0  0  0  0  0  0  0  0  0  0
   52.0335    9.8452   11.5560 C   0  0  0  0  0  0  0  0  0  0  0  0
   51.3934    9.5500   12.8902 C   0  0  0  0  0  0  0  0  0  0  0  0
   51.5220    8.5152   13.5301 O   0  0  0  0  0  0  0  0  0  0  0  0
   50.6687   10.6316   13.3014 O   0  0  0  0  0  0  0  0  0  0  0  0
   49.9232   10.4279   14.5148 C   0  0  0  0  0  0  0  0  0  0  0  0
   48.6420    9.6135   14.2571 C   0  0  0  0  0  0  0  0  0  0  0  0
   48.0008    9.1967   15.5856 C   0  0  0  0  0  0  0  0  0  0  0  0
   48.8601    8.3166   16.3259 O   0  0  0  0  0  0  0  0  0  0  0  0
   48.7849    7.0018   15.9772 C   0  0  0  0  0  0  0  0  0  0  0  0
   48.0278    6.5457   15.1305 O   0  0  0  0  0  0  0  0  0  0  0  0
   49.8035    6.1810   16.7265 C   0  0  0  0  0  0  0  0  0  0  0  0
   49.7123    6.3782   18.2372 C   0  0  0  0  0  0  0  0  0  0  0  0
   50.6612    5.4333   18.9749 C   0  0  0  0  0  0  0  0  0  0  0  0
   50.6177    5.6520   20.4667 C   0  0  0  0  0  0  0  0  0  0  0  0
   51.5090    6.6980   22.4683 C   0  0  0  0  0  0  0  0  0  0  0  0
   51.5565    6.4860   21.0894 C   0  0  0  0  0  0  0  0  0  0  0  0
   49.6251    5.0432   21.2471 C   0  0  0  0  0  0  0  0  0  0  0  0
   49.5792    5.2572   22.6260 C   0  0  0  0  0  0  0  0  0  0  0  0
   50.5217    6.0831   23.2362 C   0  0  0  0  0  0  0  0  0  0  0  0
   47.6814   10.4362   13.5533 O   0  0  0  0  0  0  0  0  0  0  0  0
   47.7355   10.4015   12.1925 C   0  0  0  0  0  0  0  0  0  0  0  0
   48.5222    9.7467   11.5242 O   0  0  0  0  0  0  0  0  0  0  0  0
   46.6626   11.2832   11.6084 C   0  0  0  0  0  0  0  0  0  0  0  0
   45.3092   10.5797   11.6516 C   0  0  0  0  0  0  0  0  0  0  0  0
   44.1685   11.4476   11.1124 C   0  0  0  0  0  0  0  0  0  0  0  0
   44.2722   11.7332    9.6343 C   0  0  0  0  0  0  0  0  0  0  0  0
   44.0831   10.7068    8.6977 C   0  0  0  0  0  0  0  0  0  0  0  0
   44.1873   10.9684    7.3301 C   0  0  0  0  0  0  0  0  0  0  0  0
   44.4789   12.2569    6.8854 C   0  0  0  0  0  0  0  0  0  0  0  0
   44.6646   13.2855    7.8072 C   0  0  0  0  0  0  0  0  0  0  0  0
   44.5606   13.0264    9.1758 C   0  0  0  0  0  0  0  0  0  0  0  0
   52.3098    5.1792    6.6977 H   0  0  0  0  0  0  0  0  0  0  0  0
   54.6463    4.3815    6.9347 H   0  0  0  0  0  0  0  0  0  0  0  0
   56.2517    5.6496    8.3403 H   0  0  0  0  0  0  0  0  0  0  0  0
   55.5314    7.7053    9.5032 H   0  0  0  0  0  0  0  0  0  0  0  0
   51.5720    7.2313    7.8570 H   0  0  0  0  0  0  0  0  0  0  0  0
   53.9031    9.5649    9.5620 H   0  0  0  0  0  0  0  0  0  0  0  0
   52.3111    9.3973    8.8510 H   0  0  0  0  0  0  0  0  0  0  0  0
   53.2143    8.0387   11.4600 H   0  0  0  0  0  0  0  0  0  0  0  0
   51.6157    7.8855   10.7486 H   0  0  0  0  0  0  0  0  0  0  0  0
   52.8925   10.5031   11.7288 H   0  0  0  0  0  0  0  0  0  0  0  0
   51.3043   10.3735   10.9298 H   0  0  0  0  0  0  0  0  0  0  0  0
   49.6625   11.4270   14.8813 H   0  0  0  0  0  0  0  0  0  0  0  0
   50.5694    9.9654   15.2695 H   0  0  0  0  0  0  0  0  0  0  0  0
   48.8662    8.7152   13.6707 H   0  0  0  0  0  0  0  0  0  0  0  0
   47.0127    8.7453   15.4254 H   0  0  0  0  0  0  0  0  0  0  0  0
   47.8179   10.0788   16.2110 H   0  0  0  0  0  0  0  0  0  0  0  0
   50.8000    6.4418   16.3515 H   0  0  0  0  0  0  0  0  0  0  0  0
   49.6230    5.1267   16.4813 H   0  0  0  0  0  0  0  0  0  0  0  0
   49.9527    7.4182   18.4923 H   0  0  0  0  0  0  0  0  0  0  0  0
   48.6796    6.2117   18.5693 H   0  0  0  0  0  0  0  0  0  0  0  0
   51.6881    5.5755   18.6152 H   0  0  0  0  0  0  0  0  0  0  0  0
   50.4051    4.3890   18.7559 H   0  0  0  0  0  0  0  0  0  0  0  0
   52.2438    7.3421   22.9440 H   0  0  0  0  0  0  0  0  0  0  0  0
   52.3321    6.9750   20.5041 H   0  0  0  0  0  0  0  0  0  0  0  0
   48.8816    4.3976   20.7850 H   0  0  0  0  0  0  0  0  0  0  0  0
   48.8078    4.7786   23.2237 H   0  0  0  0  0  0  0  0  0  0  0  0
   50.4882    6.2468   24.3102 H   0  0  0  0  0  0  0  0  0  0  0  0
   46.6427   12.2295   12.1603 H   0  0  0  0  0  0  0  0  0  0  0  0
   46.9549   11.5242   10.5806 H   0  0  0  0  0  0  0  0  0  0  0  0
   45.3690    9.6338   11.0988 H   0  0  0  0  0  0  0  0  0  0  0  0
   45.0758   10.3098   12.6894 H   0  0  0  0  0  0  0  0  0  0  0  0
   43.2123   10.9400   11.2949 H   0  0  0  0  0  0  0  0  0  0  0  0
   44.1216   12.3873   11.6781 H   0  0  0  0  0  0  0  0  0  0  0  0
   43.8553    9.6950    9.0278 H   0  0  0  0  0  0  0  0  0  0  0  0
   44.0418   10.1652    6.6123 H   0  0  0  0  0  0  0  0  0  0  0  0
   44.5607   12.4582    5.8202 H   0  0  0  0  0  0  0  0  0  0  0  0
   44.8910   14.2907    7.4604 H   0  0  0  0  0  0  0  0  0  0  0  0
   44.7088   13.8416    9.8806 H   0  0  0  0  0  0  0  0  0  0  0  0
  1  2  2  0
  1  6  1  0
  2  3  1  0
  3  4  2  0
  4  5  1  0
  5  6  2  0
  5  7  1  0
  7  8  1  0
  8  9  1  0
  9 10  1  0
 10 11  2  0
 10 12  1  0
 12 13  1  0
 13 14  1  0
 14 15  1  0
 15 16  1  0
 16 17  1  0
 17 18  2  0
 17 19  1  0
 19 20  1  0
 20 21  1  0
 21 22  1  0
 24 22  1  0
 22 25  2  0
 23 24  2  0
 23 27  1  0
 25 26  1  0
 26 27  2  0
 14 28  1  0
 28 29  1  0
 29 30  2  0
 29 31  1  0
 31 32  1  0
 32 33  1  0
 33 34  1  0
 39 34  1  0
 35 34  2  0
 35 36  1  0
 36 37  2  0
 37 38  1  0
 38 39  2  0
  1 40  1  0
  2 41  1  0
  3 42  1  0
  4 43  1  0
  6 44  1  0
  7 45  1  0
  7 46  1  0
  8 47  1  0
  8 48  1  0
  9 49  1  0
  9 50  1  0
 13 51  1  0
 13 52  1  0
 14 53  1  0
 15 54  1  0
 15 55  1  0
 19 56  1  0
 19 57  1  0
 20 58  1  0
 20 59  1  0
 21 60  1  0
 21 61  1  0
 23 62  1  0
 24 63  1  0
 25 64  1  0
 26 65  1  0
 27 66  1  0
 31 67  1  0
 31 68  1  0
 32 69  1  0
 32 70  1  0
 33 71  1  0
 33 72  1  0
 35 73  1  0
 36 74  1  0
 37 75  1  0
 38 76  1  0
 39 77  1  0
M  END
> <Uni-Dock RESULT> 
ENERGY=   -4.895  LOWER_BOUND=    2.650  UPPER_BOUND=    7.639
INTER + INTRA:          -4.895
INTER:                  -4.895
INTRA:                   0.000
UNBOUND:                 0.000

$$$$

     RDKit          3D

 77 79  0  0  0  0  0  0  0  0999 V2000
   44.9464    2.9640   11.7308 C   0  0  0  0  0  0  0  0  0  0  0  0
   44.3504    3.0036   10.4720 C   0  0  0  0  0  0  0  0  0  0  0  0
   43.9316    4.2216    9.9385 C   0  0  0  0  0  0  0  0  0  0  0  0
   44.1050    5.4001   10.6665 C   0  0  0  0  0  0  0  0  0  0  0  0
   44.6960    5.3700   11.9366 C   0  0  0  0  0  0  0  0  0  0  0  0
   45.1221    4.1417   12.4595 C   0  0  0  0  0  0  0  0  0  0  0  0
   44.8944    6.6435   12.7192 C   0  0  0  0  0  0  0  0  0  0  0  0
   46.2593    7.2748   12.4446 C   0  0  0  0  0  0  0  0  0  0  0  0
   46.4353    8.5668   13.2392 C   0  0  0  0  0  0  0  0  0  0  0  0
   47.8045    9.1657   13.0314 C   0  0  0  0  0  0  0  0  0  0  0  0
   48.5565    8.9208   12.0979 O   0  0  0  0  0  0  0  0  0  0  0  0
   48.0722   10.0576   14.0299 O   0  0  0  0  0  0  0  0  0  0  0  0
   49.3979   10.6152   13.9966 C   0  0  0  0  0  0  0  0  0  0  0  0
   50.4390    9.6224   14.5459 C   0  0  0  0  0  0  0  0  0  0  0  0
   51.8578   10.1331   14.2704 C   0  0  0  0  0  0  0  0  0  0  0  0
   52.1206   10.2079   12.8610 O   0  0  0  0  0  0  0  0  0  0  0  0
   52.5216    9.0419   12.2819 C   0  0  0  0  0  0  0  0  0  0  0  0
   52.7001    7.9895   12.8809 O   0  0  0  0  0  0  0  0  0  0  0  0
   52.6588    9.1950   10.7885 C   0  0  0  0  0  0  0  0  0  0  0  0
   53.5609   10.3645   10.4039 C   0  0  0  0  0  0  0  0  0  0  0  0
   53.7906   10.4102    8.8930 C   0  0  0  0  0  0  0  0  0  0  0  0
   54.6403   11.5906    8.4936 C   0  0  0  0  0  0  0  0  0  0  0  0
   54.8277   13.8805    7.7084 C   0  0  0  0  0  0  0  0  0  0  0  0
   54.0416   12.7839    8.0666 C   0  0  0  0  0  0  0  0  0  0  0  0
   56.0384   11.5187    8.5656 C   0  0  0  0  0  0  0  0  0  0  0  0
   56.8225   12.6169    8.2073 C   0  0  0  0  0  0  0  0  0  0  0  0
   56.2172   13.7966    7.7776 C   0  0  0  0  0  0  0  0  0  0  0  0
   50.2904    9.5136   15.9816 O   0  0  0  0  0  0  0  0  0  0  0  0
   49.4350    8.5535   16.4313 C   0  0  0  0  0  0  0  0  0  0  0  0
   48.7851    7.7898   15.7321 O   0  0  0  0  0  0  0  0  0  0  0  0
   49.4089    8.5467   17.9376 C   0  0  0  0  0  0  0  0  0  0  0  0
   50.6346    7.8258   18.4910 C   0  0  0  0  0  0  0  0  0  0  0  0
   50.6869    7.8275   20.0216 C   0  0  0  0  0  0  0  0  0  0  0  0
   49.5889    7.0169   20.6653 C   0  0  0  0  0  0  0  0  0  0  0  0
   49.5810    5.6188   20.5560 C   0  0  0  0  0  0  0  0  0  0  0  0
   48.5608    4.8686   21.1442 C   0  0  0  0  0  0  0  0  0  0  0  0
   47.5411    5.5068   21.8484 C   0  0  0  0  0  0  0  0  0  0  0  0
   47.5412    6.8954   21.9670 C   0  0  0  0  0  0  0  0  0  0  0  0
   48.5609    7.6481   21.3797 C   0  0  0  0  0  0  0  0  0  0  0  0
   45.2778    2.0157   12.1457 H   0  0  0  0  0  0  0  0  0  0  0  0
   44.2175    2.0863    9.9045 H   0  0  0  0  0  0  0  0  0  0  0  0
   43.4706    4.2546    8.9551 H   0  0  0  0  0  0  0  0  0  0  0  0
   43.7777    6.3437   10.2352 H   0  0  0  0  0  0  0  0  0  0  0  0
   45.5959    4.0964   13.4377 H   0  0  0  0  0  0  0  0  0  0  0  0
   44.0938    7.3515   12.4707 H   0  0  0  0  0  0  0  0  0  0  0  0
   44.7849    6.4296   13.7900 H   0  0  0  0  0  0  0  0  0  0  0  0
   46.3701    7.4822   11.3720 H   0  0  0  0  0  0  0  0  0  0  0  0
   47.0592    6.5688   12.7047 H   0  0  0  0  0  0  0  0  0  0  0  0
   45.6892    9.3097   12.9359 H   0  0  0  0  0  0  0  0  0  0  0  0
   46.3075    8.3536   14.3075 H   0  0  0  0  0  0  0  0  0  0  0  0
   49.3662   11.5098   14.6285 H   0  0  0  0  0  0  0  0  0  0  0  0
   49.6313   10.9469   12.9785 H   0  0  0  0  0  0  0  0  0  0  0  0
   50.3168    8.6374   14.0813 H   0  0  0  0  0  0  0  0  0  0  0  0
   52.6084    9.5165   14.7823 H   0  0  0  0  0  0  0  0  0  0  0  0
   51.9835   11.1422   14.6812 H   0  0  0  0  0  0  0  0  0  0  0  0
   51.6562    9.3093   10.3599 H   0  0  0  0  0  0  0  0  0  0  0  0
   53.0811    8.2604   10.3981 H   0  0  0  0  0  0  0  0  0  0  0  0
   53.1112   11.3078   10.7389 H   0  0  0  0  0  0  0  0  0  0  0  0
   54.5206   10.2784   10.9295 H   0  0  0  0  0  0  0  0  0  0  0  0
   52.8283   10.4590    8.3679 H   0  0  0  0  0  0  0  0  0  0  0  0
   54.2748    9.4859    8.5533 H   0  0  0  0  0  0  0  0  0  0  0  0
   54.3556   14.8004    7.3736 H   0  0  0  0  0  0  0  0  0  0  0  0
   52.9585   12.8664    8.0090 H   0  0  0  0  0  0  0  0  0  0  0  0
   56.5251   10.6055    8.9007 H   0  0  0  0  0  0  0  0  0  0  0  0
   57.9060   12.5510    8.2633 H   0  0  0  0  0  0  0  0  0  0  0  0
   56.8277   14.6503    7.4953 H   0  0  0  0  0  0  0  0  0  0  0  0
   49.3538    9.5809   18.2953 H   0  0  0  0  0  0  0  0  0  0  0  0
   48.4812    8.0554   18.2507 H   0  0  0  0  0  0  0  0  0  0  0  0
   50.6624    6.7991   18.1050 H   0  0  0  0  0  0  0  0  0  0  0  0
   51.5417    8.3156   18.1147 H   0  0  0  0  0  0  0  0  0  0  0  0
   51.6507    7.4165   20.3496 H   0  0  0  0  0  0  0  0  0  0  0  0
   50.6610    8.8613   20.3898 H   0  0  0  0  0  0  0  0  0  0  0  0
   50.3693    5.1045   20.0093 H   0  0  0  0  0  0  0  0  0  0  0  0
   48.5622    3.7856   21.0512 H   0  0  0  0  0  0  0  0  0  0  0  0
   46.7471    4.9209   22.3046 H   0  0  0  0  0  0  0  0  0  0  0  0
   46.7465    7.3933   22.5170 H   0  0  0  0  0  0  0  0  0  0  0  0
   48.5446    8.7309   21.4826 H   0  0  0  0  0  0  0  0  0  0  0  0
  1  2  2  0
  1  6  1  0
  2  3  1  0
  3  4  2  0
  4  5  1  0
  5  6  2  0
  5  7  1  0
  7  8  1  0
  8  9  1  0
  9 10  1  0
 10 11  2  0
 10 12  1  0
 12 13  1  0
 13 14  1  0
 14 15  1  0
 15 16  1  0
 16 17  1  0
 17 18  2  0
 17 19  1  0
 19 20  1  0
 20 21  1  0
 21 22  1  0
 24 22  1  0
 22 25  2  0
 23 24  2  0
 23 27  1  0
 25 26  1  0
 26 27  2  0
 14 28  1  0
 28 29  1  0
 29 30  2  0
 29 31  1  0
 31 32  1  0
 32 33  1  0
 33 34  1  0
 39 34  1  0
 35 34  2  0
 35 36  1  0
 36 37  2  0
 37 38  1  0
 38 39  2  0
  1 40  1  0
  2 41  1  0
  3 42  1  0
  4 43  1  0
  6 44  1  0
  7 45  1  0
  7 46  1  0
  8 47  1  0
  8 48  1  0
  9 49  1  0
  9 50  1  0
 13 51  1  0
 13 52  1  0
 14 53  1  0
 15 54  1  0
 15 55  1  0
 19 56  1  0
 19 57  1  0
 20 58  1  0
 20 59  1  0
 21 60  1  0
 21 61  1  0
 23 62  1  0
 24 63  1  0
 25 64  1  0
 26 65  1  0
 27 66  1  0
 31 67  1  0
 31 68  1  0
 32 69  1  0
 32 70  1  0
 33 71  1  0
 33 72  1  0
 35 73  1  0
 36 74  1  0
 37 75  1  0
 38 76  1  0
 39 77  1  0
M  END
> <Uni-Dock RESULT> 
ENERGY=   -4.736  LOWER_BOUND=    3.194  UPPER_BOUND=   10.353
INTER + INTRA:          -4.736
INTER:                  -4.736
INTRA:                   0.000
UNBOUND:                 0.000

$$$$
