
     RDKit          3D

 77 79  0  0  0  0  0  0  0  0999 V2000
   48.3057   10.9259   23.0971 C   0  0  0  0  0  0  0  0  0  0  0  0
   48.2076    9.8707   24.0027 C   0  0  0  0  0  0  0  0  0  0  0  0
   47.7726    8.6195   23.5697 C   0  0  0  0  0  0  0  0  0  0  0  0
   47.4327    8.4226   22.2306 C   0  0  0  0  0  0  0  0  0  0  0  0
   47.5212    9.4788   21.3135 C   0  0  0  0  0  0  0  0  0  0  0  0
   47.9671   10.7310   21.7575 C   0  0  0  0  0  0  0  0  0  0  0  0
   47.1696    9.2652   19.8633 C   0  0  0  0  0  0  0  0  0  0  0  0
   48.3826    8.8248   19.0429 C   0  0  0  0  0  0  0  0  0  0  0  0
   48.0153    8.6451   17.5710 C   0  0  0  0  0  0  0  0  0  0  0  0
   49.2020    8.2190   16.7407 C   0  0  0  0  0  0  0  0  0  0  0  0
   50.2993    7.8984   17.1730 O   0  0  0  0  0  0  0  0  0  0  0  0
   48.8596    8.2352   15.4240 O   0  0  0  0  0  0  0  0  0  0  0  0
   49.9180    7.8648   14.5250 C   0  0  0  0  0  0  0  0  0  0  0  0
   49.4182    7.9698   13.0768 C   0  0  0  0  0  0  0  0  0  0  0  0
   50.5688    7.7364   12.0915 C   0  0  0  0  0  0  0  0  0  0  0  0
   51.6128    8.7102   12.2440 O   0  0  0  0  0  0  0  0  0  0  0  0
   51.4287    9.8805   11.5757 C   0  0  0  0  0  0  0  0  0  0  0  0
   50.4391   10.1472   10.9058 O   0  0  0  0  0  0  0  0  0  0  0  0
   52.5486   10.8617   11.8317 C   0  0  0  0  0  0  0  0  0  0  0  0
   53.9112   10.2040   12.0635 C   0  0  0  0  0  0  0  0  0  0  0  0
   55.0326   11.2230   12.2889 C   0  0  0  0  0  0  0  0  0  0  0  0
   55.3896   12.0113   11.0534 C   0  0  0  0  0  0  0  0  0  0  0  0
   55.3506   14.0836    9.7879 C   0  0  0  0  0  0  0  0  0  0  0  0
   55.0229   13.3584   10.9353 C   0  0  0  0  0  0  0  0  0  0  0  0
   56.0926   11.4052   10.0029 C   0  0  0  0  0  0  0  0  0  0  0  0
   56.4201   12.1318    8.8571 C   0  0  0  0  0  0  0  0  0  0  0  0
   56.0486   13.4701    8.7495 C   0  0  0  0  0  0  0  0  0  0  0  0
   48.4367    6.9351   12.8332 O   0  0  0  0  0  0  0  0  0  0  0  0
   47.1279    7.2831   12.9835 C   0  0  0  0  0  0  0  0  0  0  0  0
   46.7189    8.3860   13.3106 O   0  0  0  0  0  0  0  0  0  0  0  0
   46.2585    6.0768   12.7158 C   0  0  0  0  0  0  0  0  0  0  0  0
   44.7972    6.4720   12.4950 C   0  0  0  0  0  0  0  0  0  0  0  0
   43.8701    5.2646   12.3239 C   0  0  0  0  0  0  0  0  0  0  0  0
   44.1688    4.4319   11.1012 C   0  0  0  0  0  0  0  0  0  0  0  0
   44.6791    3.1330   11.2323 C   0  0  0  0  0  0  0  0  0  0  0  0
   44.9587    2.3647   10.1006 C   0  0  0  0  0  0  0  0  0  0  0  0
   44.7301    2.8867    8.8280 C   0  0  0  0  0  0  0  0  0  0  0  0
   44.2206    4.1755    8.6855 C   0  0  0  0  0  0  0  0  0  0  0  0
   43.9390    4.9448    9.8162 C   0  0  0  0  0  0  0  0  0  0  0  0
   48.6492   11.9000   23.4335 H   0  0  0  0  0  0  0  0  0  0  0  0
   48.4732   10.0227   25.0447 H   0  0  0  0  0  0  0  0  0  0  0  0
   47.7011    7.7949   24.2745 H   0  0  0  0  0  0  0  0  0  0  0  0
   47.0990    7.4390   21.9068 H   0  0  0  0  0  0  0  0  0  0  0  0
   48.0550   11.5619   21.0610 H   0  0  0  0  0  0  0  0  0  0  0  0
   46.7490   10.1919   19.4525 H   0  0  0  0  0  0  0  0  0  0  0  0
   46.3718    8.5156   19.7888 H   0  0  0  0  0  0  0  0  0  0  0  0
   49.1879    9.5654   19.1329 H   0  0  0  0  0  0  0  0  0  0  0  0
   48.7837    7.8840   19.4416 H   0  0  0  0  0  0  0  0  0  0  0  0
   47.2347    7.8829   17.4675 H   0  0  0  0  0  0  0  0  0  0  0  0
   47.6408    9.5944   17.1708 H   0  0  0  0  0  0  0  0  0  0  0  0
   50.7673    8.5384   14.6861 H   0  0  0  0  0  0  0  0  0  0  0  0
   50.2137    6.8319   14.7452 H   0  0  0  0  0  0  0  0  0  0  0  0
   48.9860    8.9638   12.9093 H   0  0  0  0  0  0  0  0  0  0  0  0
   50.2021    7.7080   11.0572 H   0  0  0  0  0  0  0  0  0  0  0  0
   51.0178    6.7507   12.2655 H   0  0  0  0  0  0  0  0  0  0  0  0
   52.2668   11.4672   12.7001 H   0  0  0  0  0  0  0  0  0  0  0  0
   52.5988   11.5186   10.9571 H   0  0  0  0  0  0  0  0  0  0  0  0
   54.1510    9.5411   11.2228 H   0  0  0  0  0  0  0  0  0  0  0  0
   53.8566    9.5659   12.9548 H   0  0  0  0  0  0  0  0  0  0  0  0
   55.9341   10.6966   12.6296 H   0  0  0  0  0  0  0  0  0  0  0  0
   54.7580   11.9013   13.1069 H   0  0  0  0  0  0  0  0  0  0  0  0
   55.0603   15.1273    9.7040 H   0  0  0  0  0  0  0  0  0  0  0  0
   54.4771   13.8534   11.7354 H   0  0  0  0  0  0  0  0  0  0  0  0
   56.3922   10.3615   10.0731 H   0  0  0  0  0  0  0  0  0  0  0  0
   56.9654   11.6525    8.0484 H   0  0  0  0  0  0  0  0  0  0  0  0
   56.3030   14.0350    7.8567 H   0  0  0  0  0  0  0  0  0  0  0  0
   46.6450    5.5710   11.8238 H   0  0  0  0  0  0  0  0  0  0  0  0
   46.3463    5.4022   13.5746 H   0  0  0  0  0  0  0  0  0  0  0  0
   44.7239    7.1379   11.6260 H   0  0  0  0  0  0  0  0  0  0  0  0
   44.4436    7.0531   13.3563 H   0  0  0  0  0  0  0  0  0  0  0  0
   42.8313    5.6143   12.2550 H   0  0  0  0  0  0  0  0  0  0  0  0
   43.9162    4.6405   13.2254 H   0  0  0  0  0  0  0  0  0  0  0  0
   44.8611    2.7091   12.2179 H   0  0  0  0  0  0  0  0  0  0  0  0
   45.3508    1.3568   10.2111 H   0  0  0  0  0  0  0  0  0  0  0  0
   44.9474    2.2876    7.9474 H   0  0  0  0  0  0  0  0  0  0  0  0
   44.0398    4.5827    7.6931 H   0  0  0  0  0  0  0  0  0  0  0  0
   43.5372    5.9476    9.6878 H   0  0  0  0  0  0  0  0  0  0  0  0
  1  2  2  0
  1  6  1  0
  2  3  1  0
  3  4  2  0
  4  5  1  0
  5  6  2  0
  5  7  1  0
  7  8  1  0
  8  9  1  0
  9 10  1  0
 10 11  2  0
 10 12  1  0
 12 13  1  0
 13 14  1  0
 14 15  1  0
 15 16  1  0
 16 17  1  0
 17 18  2  0
 17 19  1  0
 19 20  1  0
 20 21  1  0
 21 22  1  0
 24 22  1  0
 22 25  2  0
 23 24  2  0
 23 27  1  0
 25 26  1  0
 26 27  2  0
 14 28  1  0
 28 29  1  0
 29 30  2  0
 29 31  1  0
 31 32  1  0
 32 33  1  0
 33 34  1  0
 39 34  1  0
 35 34  2  0
 35 36  1  0
 36 37  2  0
 37 38  1  0
 38 39  2  0
  1 40  1  0
  2 41  1  0
  3 42  1  0
  4 43  1  0
  6 44  1  0
  7 45  1  0
  7 46  1  0
  8 47  1  0
  8 48  1  0
  9 49  1  0
  9 50  1  0
 13 51  1  0
 13 52  1  0
 14 53  1  0
 15 54  1  0
 15 55  1  0
 19 56  1  0
 19 57  1  0
 20 58  1  0
 20 59  1  0
 21 60  1  0
 21 61  1  0
 23 62  1  0
 24 63  1  0
 25 64  1  0
 26 65  1  0
 27 66  1  0
 31 67  1  0
 31 68  1  0
 32 69  1  0
 32 70  1  0
 33 71  1  0
 33 72  1  0
 35 73  1  0
 36 74  1  0
 37 75  1  0
 38 76  1  0
 39 77  1  0
M  END
> <Uni-Dock RESULT> 
ENERGY=   -5.597  LOWER_BOUND=    0.000  UPPER_BOUND=    0.000
INTER + INTRA:          -5.597
INTER:                  -5.597
INTRA:                   0.000
UNBOUND:                 0.000

$$$$

     RDKit          3D

 77 79  0  0  0  0  0  0  0  0999 V2000
   40.8408   13.3319   11.3452 C   0  0  0  0  0  0  0  0  0  0  0  0
   40.1913   12.8617   10.2050 C   0  0  0  0  0  0  0  0  0  0  0  0
   40.8791   12.0676    9.2892 C   0  0  0  0  0  0  0  0  0  0  0  0
   42.2185   11.7450    9.5113 C   0  0  0  0  0  0  0  0  0  0  0  0
   42.8827   12.2185   10.6510 C   0  0  0  0  0  0  0  0  0  0  0  0
   42.1799   13.0098   11.5696 C   0  0  0  0  0  0  0  0  0  0  0  0
   44.3250   11.8588   10.9016 C   0  0  0  0  0  0  0  0  0  0  0  0
   44.4570   10.5662   11.7079 C   0  0  0  0  0  0  0  0  0  0  0  0
   45.9233   10.2352   11.9803 C   0  0  0  0  0  0  0  0  0  0  0  0
   46.0759    8.9662   12.7839 C   0  0  0  0  0  0  0  0  0  0  0  0
   45.1776    8.1888   13.0707 O   0  0  0  0  0  0  0  0  0  0  0  0
   47.3808    8.8104   13.1361 O   0  0  0  0  0  0  0  0  0  0  0  0
   47.6527    7.6408   13.9259 C   0  0  0  0  0  0  0  0  0  0  0  0
   49.1432    7.6086   14.2945 C   0  0  0  0  0  0  0  0  0  0  0  0
   49.4325    6.4610   15.2685 C   0  0  0  0  0  0  0  0  0  0  0  0
   48.7022    6.6014   16.4966 O   0  0  0  0  0  0  0  0  0  0  0  0
   49.2800    7.3950   17.4380 C   0  0  0  0  0  0  0  0  0  0  0  0
   50.3332    7.9998   17.2823 O   0  0  0  0  0  0  0  0  0  0  0  0
   48.4218    7.5246   18.6746 C   0  0  0  0  0  0  0  0  0  0  0  0
   47.5890    6.2789   18.9873 C   0  0  0  0  0  0  0  0  0  0  0  0
   46.7535    6.4271   20.2627 C   0  0  0  0  0  0  0  0  0  0  0  0
   47.5779    6.4486   21.5256 C   0  0  0  0  0  0  0  0  0  0  0  0
   48.5280    7.6576   23.4053 C   0  0  0  0  0  0  0  0  0  0  0  0
   47.7598    7.6405   22.2394 C   0  0  0  0  0  0  0  0  0  0  0  0
   48.1769    5.2743   22.0027 C   0  0  0  0  0  0  0  0  0  0  0  0
   48.9436    5.2931   23.1687 C   0  0  0  0  0  0  0  0  0  0  0  0
   49.1196    6.4843   23.8693 C   0  0  0  0  0  0  0  0  0  0  0  0
   49.9253    7.3592   13.1031 O   0  0  0  0  0  0  0  0  0  0  0  0
   50.4259    8.4501   12.4581 C   0  0  0  0  0  0  0  0  0  0  0  0
   50.2642    9.6119   12.7967 O   0  0  0  0  0  0  0  0  0  0  0  0
   51.1857    7.9984   11.2330 C   0  0  0  0  0  0  0  0  0  0  0  0
   52.0789    9.1109   10.6806 C   0  0  0  0  0  0  0  0  0  0  0  0
   52.7846    8.7206    9.3783 C   0  0  0  0  0  0  0  0  0  0  0  0
   53.7524    7.5721    9.5269 C   0  0  0  0  0  0  0  0  0  0  0  0
   53.4834    6.3332    8.9287 C   0  0  0  0  0  0  0  0  0  0  0  0
   54.3773    5.2701    9.0698 C   0  0  0  0  0  0  0  0  0  0  0  0
   55.5482    5.4354    9.8088 C   0  0  0  0  0  0  0  0  0  0  0  0
   55.8272    6.6630   10.4056 C   0  0  0  0  0  0  0  0  0  0  0  0
   54.9352    7.7277   10.2643 C   0  0  0  0  0  0  0  0  0  0  0  0
   40.3036   13.9469   12.0616 H   0  0  0  0  0  0  0  0  0  0  0  0
   39.1485   13.1111   10.0320 H   0  0  0  0  0  0  0  0  0  0  0  0
   40.3714   11.6962    8.4026 H   0  0  0  0  0  0  0  0  0  0  0  0
   42.7408   11.1206    8.7895 H   0  0  0  0  0  0  0  0  0  0  0  0
   42.6718   13.3784   12.4671 H   0  0  0  0  0  0  0  0  0  0  0  0
   44.8185   12.6865   11.4267 H   0  0  0  0  0  0  0  0  0  0  0  0
   44.8474   11.7594    9.9418 H   0  0  0  0  0  0  0  0  0  0  0  0
   43.9182   10.6588   12.6599 H   0  0  0  0  0  0  0  0  0  0  0  0
   43.9848    9.7364   11.1664 H   0  0  0  0  0  0  0  0  0  0  0  0
   46.4629   10.1078   11.0350 H   0  0  0  0  0  0  0  0  0  0  0  0
   46.3828   11.0550   12.5445 H   0  0  0  0  0  0  0  0  0  0  0  0
   47.0358    7.6771   14.8309 H   0  0  0  0  0  0  0  0  0  0  0  0
   47.3943    6.7550   13.3331 H   0  0  0  0  0  0  0  0  0  0  0  0
   49.4277    8.5625   14.7546 H   0  0  0  0  0  0  0  0  0  0  0  0
   50.5099    6.3668   15.4572 H   0  0  0  0  0  0  0  0  0  0  0  0
   49.1333    5.5049   14.8215 H   0  0  0  0  0  0  0  0  0  0  0  0
   47.7684    8.3928   18.5352 H   0  0  0  0  0  0  0  0  0  0  0  0
   49.0994    7.7356   19.5084 H   0  0  0  0  0  0  0  0  0  0  0  0
   48.2440    5.4011   19.0510 H   0  0  0  0  0  0  0  0  0  0  0  0
   46.8978    6.0894   18.1562 H   0  0  0  0  0  0  0  0  0  0  0  0
   46.0482    5.5882   20.3304 H   0  0  0  0  0  0  0  0  0  0  0  0
   46.1343    7.3309   20.1971 H   0  0  0  0  0  0  0  0  0  0  0  0
   48.6655    8.5869   23.9513 H   0  0  0  0  0  0  0  0  0  0  0  0
   47.3063    8.5660   21.8917 H   0  0  0  0  0  0  0  0  0  0  0  0
   48.0466    4.3355   21.4683 H   0  0  0  0  0  0  0  0  0  0  0  0
   49.4036    4.3771   23.5302 H   0  0  0  0  0  0  0  0  0  0  0  0
   49.7175    6.4985   24.7766 H   0  0  0  0  0  0  0  0  0  0  0  0
   51.7993    7.1347   11.5132 H   0  0  0  0  0  0  0  0  0  0  0  0
   50.4539    7.6866   10.4797 H   0  0  0  0  0  0  0  0  0  0  0  0
   52.8130    9.4046   11.4415 H   0  0  0  0  0  0  0  0  0  0  0  0
   51.4695   10.0022   10.4835 H   0  0  0  0  0  0  0  0  0  0  0  0
   53.3383    9.5878    8.9941 H   0  0  0  0  0  0  0  0  0  0  0  0
   52.0330    8.4837    8.6146 H   0  0  0  0  0  0  0  0  0  0  0  0
   52.5757    6.1877    8.3465 H   0  0  0  0  0  0  0  0  0  0  0  0
   54.1630    4.3137    8.5996 H   0  0  0  0  0  0  0  0  0  0  0  0
   56.2439    4.6074    9.9176 H   0  0  0  0  0  0  0  0  0  0  0  0
   56.7416    6.7934   10.9804 H   0  0  0  0  0  0  0  0  0  0  0  0
   55.1700    8.6811   10.7327 H   0  0  0  0  0  0  0  0  0  0  0  0
  1  2  2  0
  1  6  1  0
  2  3  1  0
  3  4  2  0
  4  5  1  0
  5  6  2  0
  5  7  1  0
  7  8  1  0
  8  9  1  0
  9 10  1  0
 10 11  2  0
 10 12  1  0
 12 13  1  0
 13 14  1  0
 14 15  1  0
 15 16  1  0
 16 17  1  0
 17 18  2  0
 17 19  1  0
 19 20  1  0
 20 21  1  0
 21 22  1  0
 24 22  1  0
 22 25  2  0
 23 24  2  0
 23 27  1  0
 25 26  1  0
 26 27  2  0
 14 28  1  0
 28 29  1  0
 29 30  2  0
 29 31  1  0
 31 32  1  0
 32 33  1  0
 33 34  1  0
 39 34  1  0
 35 34  2  0
 35 36  1  0
 36 37  2  0
 37 38  1  0
 38 39  2  0
  1 40  1  0
  2 41  1  0
  3 42  1  0
  4 43  1  0
  6 44  1  0
  7 45  1  0
  7 46  1  0
  8 47  1  0
  8 48  1  0
  9 49  1  0
  9 50  1  0
 13 51  1  0
 13 52  1  0
 14 53  1  0
 15 54  1  0
 15 55  1  0
 19 56  1  0
 19 57  1  0
 20 58  1  0
 20 59  1  0
 21 60  1  0
 21 61  1  0
 23 62  1  0
 24 63  1  0
 25 64  1  0
 26 65  1  0
 27 66  1  0
 31 67  1  0
 31 68  1  0
 32 69  1  0
 32 70  1  0
 33 71  1  0
 33 72  1  0
 35 73  1  0
 36 74  1  0
 37 75  1  0
 38 76  1  0
 39 77  1  0
M  END
> <Uni-Dock RESULT> 
ENERGY=   -4.781  LOWER_BOUND=    3.901  UPPER_BOUND=   10.682
INTER + INTRA:          -4.781
INTER:                  -4.781
INTRA:                   0.000
UNBOUND:                 0.000

$$$$

     RDKit          3D

 77 79  0  0  0  0  0  0  0  0999 V2000
   50.8932   18.8903   20.1563 C   0  0  0  0  0  0  0  0  0  0  0  0
   52.1106   18.8609   20.8346 C   0  0  0  0  0  0  0  0  0  0  0  0
   52.7041   17.6394   21.1477 C   0  0  0  0  0  0  0  0  0  0  0  0
   52.0793   16.4454   20.7851 C   0  0  0  0  0  0  0  0  0  0  0  0
   50.8517   16.4640   20.1091 C   0  0  0  0  0  0  0  0  0  0  0  0
   50.2671   17.6975   19.7921 C   0  0  0  0  0  0  0  0  0  0  0  0
   50.1820   15.1762   19.7023 C   0  0  0  0  0  0  0  0  0  0  0  0
   50.6206   14.7222   18.3096 C   0  0  0  0  0  0  0  0  0  0  0  0
   49.9077   13.4344   17.9008 C   0  0  0  0  0  0  0  0  0  0  0  0
   50.3199   12.9734   16.5236 C   0  0  0  0  0  0  0  0  0  0  0  0
   51.2187   13.4525   15.8481 O   0  0  0  0  0  0  0  0  0  0  0  0
   49.5386   11.9251   16.1470 O   0  0  0  0  0  0  0  0  0  0  0  0
   49.8227   11.4062   14.8372 C   0  0  0  0  0  0  0  0  0  0  0  0
   48.8458   10.2655   14.5167 C   0  0  0  0  0  0  0  0  0  0  0  0
   49.0189    9.7994   13.0668 C   0  0  0  0  0  0  0  0  0  0  0  0
   48.7525   10.8526   12.1282 O   0  0  0  0  0  0  0  0  0  0  0  0
   47.4454   11.0287   11.7959 C   0  0  0  0  0  0  0  0  0  0  0  0
   46.5181   10.3820   12.2662 O   0  0  0  0  0  0  0  0  0  0  0  0
   47.2533   12.1860   10.8440 C   0  0  0  0  0  0  0  0  0  0  0  0
   48.4258   12.4033    9.8842 C   0  0  0  0  0  0  0  0  0  0  0  0
   48.1903   13.5623    8.9107 C   0  0  0  0  0  0  0  0  0  0  0  0
   47.1271   13.2780    7.8792 C   0  0  0  0  0  0  0  0  0  0  0  0
   44.8886   13.6263    7.0045 C   0  0  0  0  0  0  0  0  0  0  0  0
   45.8721   13.8960    7.9583 C   0  0  0  0  0  0  0  0  0  0  0  0
   47.3795   12.3877    6.8261 C   0  0  0  0  0  0  0  0  0  0  0  0
   46.3955   12.1200    5.8731 C   0  0  0  0  0  0  0  0  0  0  0  0
   45.1505   12.7386    5.9627 C   0  0  0  0  0  0  0  0  0  0  0  0
   49.1413    9.1304   15.3638 O   0  0  0  0  0  0  0  0  0  0  0  0
   48.4151    9.0153   16.5110 C   0  0  0  0  0  0  0  0  0  0  0  0
   47.5469    9.7890   16.8830 O   0  0  0  0  0  0  0  0  0  0  0  0
   48.8779    7.7953   17.2724 C   0  0  0  0  0  0  0  0  0  0  0  0
   47.8757    7.3922   18.3557 C   0  0  0  0  0  0  0  0  0  0  0  0
   48.3624    6.2215   19.2154 C   0  0  0  0  0  0  0  0  0  0  0  0
   48.5463    4.9344   18.4492 C   0  0  0  0  0  0  0  0  0  0  0  0
   49.8278    4.4031   18.2480 C   0  0  0  0  0  0  0  0  0  0  0  0
   49.9974    3.2142   17.5358 C   0  0  0  0  0  0  0  0  0  0  0  0
   48.8885    2.5452   17.0192 C   0  0  0  0  0  0  0  0  0  0  0  0
   47.6098    3.0625   17.2153 C   0  0  0  0  0  0  0  0  0  0  0  0
   47.4382    4.2504   17.9285 C   0  0  0  0  0  0  0  0  0  0  0  0
   50.4327   19.8423   19.9080 H   0  0  0  0  0  0  0  0  0  0  0  0
   52.5983   19.7896   21.1159 H   0  0  0  0  0  0  0  0  0  0  0  0
   53.6562   17.6161   21.6718 H   0  0  0  0  0  0  0  0  0  0  0  0
   52.5571   15.4999   21.0326 H   0  0  0  0  0  0  0  0  0  0  0  0
   49.3206   17.7361   19.2573 H   0  0  0  0  0  0  0  0  0  0  0  0
   49.0930   15.3089   19.7334 H   0  0  0  0  0  0  0  0  0  0  0  0
   50.4099   14.3981   20.4416 H   0  0  0  0  0  0  0  0  0  0  0  0
   50.4102   15.5085   17.5728 H   0  0  0  0  0  0  0  0  0  0  0  0
   51.7069   14.5657   18.2908 H   0  0  0  0  0  0  0  0  0  0  0  0
   50.1386   12.6336   18.6124 H   0  0  0  0  0  0  0  0  0  0  0  0
   48.8247   13.6040   17.8951 H   0  0  0  0  0  0  0  0  0  0  0  0
   49.7163   12.2170   14.1076 H   0  0  0  0  0  0  0  0  0  0  0  0
   50.8529   11.0301   14.8297 H   0  0  0  0  0  0  0  0  0  0  0  0
   47.8163   10.6101   14.6721 H   0  0  0  0  0  0  0  0  0  0  0  0
   48.3979    8.9181   12.8597 H   0  0  0  0  0  0  0  0  0  0  0  0
   50.0519    9.4701   12.8993 H   0  0  0  0  0  0  0  0  0  0  0  0
   47.0837   13.0855   11.4457 H   0  0  0  0  0  0  0  0  0  0  0  0
   46.3421   11.9778   10.2737 H   0  0  0  0  0  0  0  0  0  0  0  0
   48.6367   11.4745    9.3397 H   0  0  0  0  0  0  0  0  0  0  0  0
   49.3286   12.6336   10.4643 H   0  0  0  0  0  0  0  0  0  0  0  0
   49.1269   13.7846    8.3824 H   0  0  0  0  0  0  0  0  0  0  0  0
   47.9425   14.4728    9.4714 H   0  0  0  0  0  0  0  0  0  0  0  0
   43.9174   14.1085    7.0748 H   0  0  0  0  0  0  0  0  0  0  0  0
   45.6496   14.5909    8.7648 H   0  0  0  0  0  0  0  0  0  0  0  0
   48.3478   11.8988    6.7408 H   0  0  0  0  0  0  0  0  0  0  0  0
   46.6014   11.4283    5.0606 H   0  0  0  0  0  0  0  0  0  0  0  0
   44.3845   12.5290    5.2210 H   0  0  0  0  0  0  0  0  0  0  0  0
   49.0006    6.9747   16.5566 H   0  0  0  0  0  0  0  0  0  0  0  0
   49.8509    8.0273   17.7193 H   0  0  0  0  0  0  0  0  0  0  0  0
   46.9104    7.1524   17.8924 H   0  0  0  0  0  0  0  0  0  0  0  0
   47.6927    8.2478   19.0183 H   0  0  0  0  0  0  0  0  0  0  0  0
   47.6386    6.0402   20.0213 H   0  0  0  0  0  0  0  0  0  0  0  0
   49.2997    6.5012   19.7130 H   0  0  0  0  0  0  0  0  0  0  0  0
   50.7040    4.9109   18.6464 H   0  0  0  0  0  0  0  0  0  0  0  0
   50.9944    2.8071   17.3875 H   0  0  0  0  0  0  0  0  0  0  0  0
   49.0213    1.6193   16.4655 H   0  0  0  0  0  0  0  0  0  0  0  0
   46.7439    2.5399   16.8145 H   0  0  0  0  0  0  0  0  0  0  0  0
   46.4327    4.6386   18.0768 H   0  0  0  0  0  0  0  0  0  0  0  0
  1  2  2  0
  1  6  1  0
  2  3  1  0
  3  4  2  0
  4  5  1  0
  5  6  2  0
  5  7  1  0
  7  8  1  0
  8  9  1  0
  9 10  1  0
 10 11  2  0
 10 12  1  0
 12 13  1  0
 13 14  1  0
 14 15  1  0
 15 16  1  0
 16 17  1  0
 17 18  2  0
 17 19  1  0
 19 20  1  0
 20 21  1  0
 21 22  1  0
 24 22  1  0
 22 25  2  0
 23 24  2  0
 23 27  1  0
 25 26  1  0
 26 27  2  0
 14 28  1  0
 28 29  1  0
 29 30  2  0
 29 31  1  0
 31 32  1  0
 32 33  1  0
 33 34  1  0
 39 34  1  0
 35 34  2  0
 35 36  1  0
 36 37  2  0
 37 38  1  0
 38 39  2  0
  1 40  1  0
  2 41  1  0
  3 42  1  0
  4 43  1  0
  6 44  1  0
  7 45  1  0
  7 46  1  0
  8 47  1  0
  8 48  1  0
  9 49  1  0
  9 50  1  0
 13 51  1  0
 13 52  1  0
 14 53  1  0
 15 54  1  0
 15 55  1  0
 19 56  1  0
 19 57  1  0
 20 58  1  0
 20 59  1  0
 21 60  1  0
 21 61  1  0
 23 62  1  0
 24 63  1  0
 25 64  1  0
 26 65  1  0
 27 66  1  0
 31 67  1  0
 31 68  1  0
 32 69  1  0
 32 70  1  0
 33 71  1  0
 33 72  1  0
 35 73  1  0
 36 74  1  0
 37 75  1  0
 38 76  1  0
 39 77  1  0
M  END
> <Uni-Dock RESULT> 
ENERGY=   -4.766  LOWER_BOUND=    5.511  UPPER_BOUND=    7.473
INTER + INTRA:          -4.766
INTER:                  -4.766
INTRA:                   0.000
UNBOUND:                 0.000

$$$$

     RDKit          3D

 77 79  0  0  0  0  0  0  0  0999 V2000
   43.7624    3.3179   12.5809 C   0  0  0  0  0  0  0  0  0  0  0  0
   44.0462    2.6461   11.3930 C   0  0  0  0  0  0  0  0  0  0  0  0
   44.1169    3.3520   10.1935 C   0  0  0  0  0  0  0  0  0  0  0  0
   43.9011    4.7307   10.1801 C   0  0  0  0  0  0  0  0  0  0  0  0
   43.6081    5.4144   11.3679 C   0  0  0  0  0  0  0  0  0  0  0  0
   43.5470    4.6966   12.5699 C   0  0  0  0  0  0  0  0  0  0  0  0
   43.3899    6.9060   11.3590 C   0  0  0  0  0  0  0  0  0  0  0  0
   44.6955    7.6731   11.5716 C   0  0  0  0  0  0  0  0  0  0  0  0
   44.4505    9.1808   11.5926 C   0  0  0  0  0  0  0  0  0  0  0  0
   45.7266    9.9574   11.8109 C   0  0  0  0  0  0  0  0  0  0  0  0
   46.8557    9.4896   11.8216 O   0  0  0  0  0  0  0  0  0  0  0  0
   45.4287   11.2735   11.9853 O   0  0  0  0  0  0  0  0  0  0  0  0
   46.5664   12.1190   12.2228 C   0  0  0  0  0  0  0  0  0  0  0  0
   46.0920   13.5618   12.4495 C   0  0  0  0  0  0  0  0  0  0  0  0
   47.2660   14.4562   12.8631 C   0  0  0  0  0  0  0  0  0  0  0  0
   47.8692   14.0180   14.0901 O   0  0  0  0  0  0  0  0  0  0  0  0
   47.2759   14.4635   15.2300 C   0  0  0  0  0  0  0  0  0  0  0  0
   46.2715   15.1632   15.2601 O   0  0  0  0  0  0  0  0  0  0  0  0
   47.9448   13.9153   16.4688 C   0  0  0  0  0  0  0  0  0  0  0  0
   49.4495   13.6822   16.3119 C   0  0  0  0  0  0  0  0  0  0  0  0
   50.1063   13.1565   17.5921 C   0  0  0  0  0  0  0  0  0  0  0  0
   50.1684   14.1764   18.7016 C   0  0  0  0  0  0  0  0  0  0  0  0
   49.3857   15.0176   20.8411 C   0  0  0  0  0  0  0  0  0  0  0  0
   49.3290   14.0687   19.8183 C   0  0  0  0  0  0  0  0  0  0  0  0
   51.0670   15.2500   18.6298 C   0  0  0  0  0  0  0  0  0  0  0  0
   51.1230   16.1971   19.6535 C   0  0  0  0  0  0  0  0  0  0  0  0
   50.2822   16.0812   20.7582 C   0  0  0  0  0  0  0  0  0  0  0  0
   45.5712   14.0946   11.2092 O   0  0  0  0  0  0  0  0  0  0  0  0
   44.2242   14.0090   11.0221 C   0  0  0  0  0  0  0  0  0  0  0  0
   43.4278   13.5176   11.8062 O   0  0  0  0  0  0  0  0  0  0  0  0
   43.8718   14.5873    9.6716 C   0  0  0  0  0  0  0  0  0  0  0  0
   42.3731   14.8699    9.5522 C   0  0  0  0  0  0  0  0  0  0  0  0
   41.9656   15.3598    8.1592 C   0  0  0  0  0  0  0  0  0  0  0  0
   42.5767   16.6846    7.7732 C   0  0  0  0  0  0  0  0  0  0  0  0
   43.5312   16.7564    6.7492 C   0  0  0  0  0  0  0  0  0  0  0  0
   44.0989   17.9818    6.3952 C   0  0  0  0  0  0  0  0  0  0  0  0
   43.7175   19.1464    7.0604 C   0  0  0  0  0  0  0  0  0  0  0  0
   42.7677   19.0876    8.0780 C   0  0  0  0  0  0  0  0  0  0  0  0
   42.1979   17.8632    8.4323 C   0  0  0  0  0  0  0  0  0  0  0  0
   43.7118    2.7686   13.5168 H   0  0  0  0  0  0  0  0  0  0  0  0
   44.2157    1.5734   11.4027 H   0  0  0  0  0  0  0  0  0  0  0  0
   44.3436    2.8294    9.2676 H   0  0  0  0  0  0  0  0  0  0  0  0
   43.9639    5.2686    9.2365 H   0  0  0  0  0  0  0  0  0  0  0  0
   43.3330    5.2083   13.5056 H   0  0  0  0  0  0  0  0  0  0  0  0
   42.6627    7.1701   12.1374 H   0  0  0  0  0  0  0  0  0  0  0  0
   42.9301    7.2009   10.4074 H   0  0  0  0  0  0  0  0  0  0  0  0
   45.1654    7.3640   12.5145 H   0  0  0  0  0  0  0  0  0  0  0  0
   45.4100    7.4254   10.7760 H   0  0  0  0  0  0  0  0  0  0  0  0
   44.0119    9.5047   10.6420 H   0  0  0  0  0  0  0  0  0  0  0  0
   43.7575    9.4257   12.4058 H   0  0  0  0  0  0  0  0  0  0  0  0
   47.1006   11.7491   13.1053 H   0  0  0  0  0  0  0  0  0  0  0  0
   47.2209   12.0737   11.3440 H   0  0  0  0  0  0  0  0  0  0  0  0
   45.3243   13.5766   13.2325 H   0  0  0  0  0  0  0  0  0  0  0  0
   46.9566   15.5075   12.9275 H   0  0  0  0  0  0  0  0  0  0  0  0
   48.0461   14.4319   12.0921 H   0  0  0  0  0  0  0  0  0  0  0  0
   47.4409   12.9786   16.7306 H   0  0  0  0  0  0  0  0  0  0  0  0
   47.7641   14.6382   17.2712 H   0  0  0  0  0  0  0  0  0  0  0  0
   49.9353   14.6071   15.9768 H   0  0  0  0  0  0  0  0  0  0  0  0
   49.6188   12.9400   15.5214 H   0  0  0  0  0  0  0  0  0  0  0  0
   51.1321   12.8369   17.3652 H   0  0  0  0  0  0  0  0  0  0  0  0
   49.5829   12.2542   17.9335 H   0  0  0  0  0  0  0  0  0  0  0  0
   48.7295   14.9273   21.7025 H   0  0  0  0  0  0  0  0  0  0  0  0
   48.6226   13.2457   19.8996 H   0  0  0  0  0  0  0  0  0  0  0  0
   51.7321   15.3529   17.7749 H   0  0  0  0  0  0  0  0  0  0  0  0
   51.8233   17.0256   19.5882 H   0  0  0  0  0  0  0  0  0  0  0  0
   50.3255   16.8195   21.5545 H   0  0  0  0  0  0  0  0  0  0  0  0
   44.4362   15.5178    9.5429 H   0  0  0  0  0  0  0  0  0  0  0  0
   44.1875   13.8699    8.9062 H   0  0  0  0  0  0  0  0  0  0  0  0
   42.0742   15.5976   10.3173 H   0  0  0  0  0  0  0  0  0  0  0  0
   41.8117   13.9518    9.7677 H   0  0  0  0  0  0  0  0  0  0  0  0
   40.8728   15.4614    8.1178 H   0  0  0  0  0  0  0  0  0  0  0  0
   42.2229   14.5950    7.4155 H   0  0  0  0  0  0  0  0  0  0  0  0
   43.8385   15.8577    6.2180 H   0  0  0  0  0  0  0  0  0  0  0  0
   44.8357   18.0292    5.5974 H   0  0  0  0  0  0  0  0  0  0  0  0
   44.1594   20.1002    6.7837 H   0  0  0  0  0  0  0  0  0  0  0  0
   42.4679   19.9961    8.5959 H   0  0  0  0  0  0  0  0  0  0  0  0
   41.4542   17.8350    9.2259 H   0  0  0  0  0  0  0  0  0  0  0  0
  1  2  2  0
  1  6  1  0
  2  3  1  0
  3  4  2  0
  4  5  1  0
  5  6  2  0
  5  7  1  0
  7  8  1  0
  8  9  1  0
  9 10  1  0
 10 11  2  0
 10 12  1  0
 12 13  1  0
 13 14  1  0
 14 15  1  0
 15 16  1  0
 16 17  1  0
 17 18  2  0
 17 19  1  0
 19 20  1  0
 20 21  1  0
 21 22  1  0
 24 22  1  0
 22 25  2  0
 23 24  2  0
 23 27  1  0
 25 26  1  0
 26 27  2  0
 14 28  1  0
 28 29  1  0
 29 30  2  0
 29 31  1  0
 31 32  1  0
 32 33  1  0
 33 34  1  0
 39 34  1  0
 35 34  2  0
 35 36  1  0
 36 37  2  0
 37 38  1  0
 38 39  2  0
  1 40  1  0
  2 41  1  0
  3 42  1  0
  4 43  1  0
  6 44  1  0
  7 45  1  0
  7 46  1  0
  8 47  1  0
  8 48  1  0
  9 49  1  0
  9 50  1  0
 13 51  1  0
 13 52  1  0
 14 53  1  0
 15 54  1  0
 15 55  1  0
 19 56  1  0
 19 57  1  0
 20 58  1  0
 20 59  1  0
 21 60  1  0
 21 61  1  0
 23 62  1  0
 24 63  1  0
 25 64  1  0
 26 65  1  0
 27 66  1  0
 31 67  1  0
 31 68  1  0
 32 69  1  0
 32 70  1  0
 33 71  1  0
 33 72  1  0
 35 73  1  0
 36 74  1  0
 37 75  1  0
 38 76  1  0
 39 77  1  0
M  END
> <Uni-Dock RESULT> 
ENERGY=   -4.707  LOWER_BOUND=    6.869  UPPER_BOUND=   10.655
INTER + INTRA:          -4.707
INTER:                  -4.707
INTRA:                   0.000
UNBOUND:                 0.000

$$$$

     RDKit          3D

 77 79  0  0  0  0  0  0  0  0999 V2000
   42.3101   14.7616    9.0591 C   0  0  0  0  0  0  0  0  0  0  0  0
   41.6532   14.0606    8.0491 C   0  0  0  0  0  0  0  0  0  0  0  0
   42.2560   12.9457    7.4696 C   0  0  0  0  0  0  0  0  0  0  0  0
   43.5182   12.5319    7.8977 C   0  0  0  0  0  0  0  0  0  0  0  0
   44.1901   13.2340    8.9077 C   0  0  0  0  0  0  0  0  0  0  0  0
   43.5719   14.3490    9.4893 C   0  0  0  0  0  0  0  0  0  0  0  0
   45.5468   12.7803    9.3831 C   0  0  0  0  0  0  0  0  0  0  0  0
   45.4408   11.7831   10.5375 C   0  0  0  0  0  0  0  0  0  0  0  0
   46.8243   11.3599   11.0276 C   0  0  0  0  0  0  0  0  0  0  0  0
   46.7424   10.3816   12.1746 C   0  0  0  0  0  0  0  0  0  0  0  0
   45.7231    9.8505   12.5903 O   0  0  0  0  0  0  0  0  0  0  0  0
   47.9895   10.1690   12.6752 O   0  0  0  0  0  0  0  0  0  0  0  0
   48.0411    9.2648   13.7912 C   0  0  0  0  0  0  0  0  0  0  0  0
   49.4894    9.1497   14.2887 C   0  0  0  0  0  0  0  0  0  0  0  0
   49.5525    8.3192   15.5754 C   0  0  0  0  0  0  0  0  0  0  0  0
   48.7928    8.9156   16.6378 O   0  0  0  0  0  0  0  0  0  0  0  0
   49.4379    9.8720   17.3582 C   0  0  0  0  0  0  0  0  0  0  0  0
   50.5773   10.2589   17.1316 O   0  0  0  0  0  0  0  0  0  0  0  0
   48.5499   10.4775   18.4200 C   0  0  0  0  0  0  0  0  0  0  0  0
   47.5229    9.5030   19.0019 C   0  0  0  0  0  0  0  0  0  0  0  0
   46.6582   10.1347   20.0974 C   0  0  0  0  0  0  0  0  0  0  0  0
   47.4135   10.4255   21.3702 C   0  0  0  0  0  0  0  0  0  0  0  0
   48.4434   12.0069   22.8986 C   0  0  0  0  0  0  0  0  0  0  0  0
   47.7396   11.7419   21.7221 C   0  0  0  0  0  0  0  0  0  0  0  0
   47.8025    9.3803   22.2197 C   0  0  0  0  0  0  0  0  0  0  0  0
   48.5051    9.6471   23.3957 C   0  0  0  0  0  0  0  0  0  0  0  0
   48.8259   10.9597   23.7346 C   0  0  0  0  0  0  0  0  0  0  0  0
   50.2818    8.4545   13.2977 O   0  0  0  0  0  0  0  0  0  0  0  0
   50.9736    9.2266   12.4134 C   0  0  0  0  0  0  0  0  0  0  0  0
   50.9745   10.4472   12.3849 O   0  0  0  0  0  0  0  0  0  0  0  0
   51.7149    8.3331   11.4467 C   0  0  0  0  0  0  0  0  0  0  0  0
   52.7930    9.1019   10.6806 C   0  0  0  0  0  0  0  0  0  0  0  0
   53.4940    8.2504    9.6176 C   0  0  0  0  0  0  0  0  0  0  0  0
   54.2671    7.0829   10.1805 C   0  0  0  0  0  0  0  0  0  0  0  0
   53.8422    5.7681    9.9444 C   0  0  0  0  0  0  0  0  0  0  0  0
   54.5558    4.6886   10.4687 C   0  0  0  0  0  0  0  0  0  0  0  0
   55.7005    4.9130   11.2326 C   0  0  0  0  0  0  0  0  0  0  0  0
   56.1337    6.2154   11.4716 C   0  0  0  0  0  0  0  0  0  0  0  0
   55.4222    7.2960   10.9468 C   0  0  0  0  0  0  0  0  0  0  0  0
   41.8384   15.6278    9.5143 H   0  0  0  0  0  0  0  0  0  0  0  0
   40.6703   14.3810    7.7163 H   0  0  0  0  0  0  0  0  0  0  0  0
   41.7417   12.3955    6.6857 H   0  0  0  0  0  0  0  0  0  0  0  0
   43.9739   11.6572    7.4387 H   0  0  0  0  0  0  0  0  0  0  0  0
   44.0696   14.9019   10.2829 H   0  0  0  0  0  0  0  0  0  0  0  0
   46.1343   13.6552    9.6893 H   0  0  0  0  0  0  0  0  0  0  0  0
   46.0943   12.3303    8.5454 H   0  0  0  0  0  0  0  0  0  0  0  0
   44.8763   12.2265   11.3682 H   0  0  0  0  0  0  0  0  0  0  0  0
   44.8747   10.8985   10.2183 H   0  0  0  0  0  0  0  0  0  0  0  0
   47.3839   10.8856   10.2135 H   0  0  0  0  0  0  0  0  0  0  0  0
   47.3752   12.2436   11.3703 H   0  0  0  0  0  0  0  0  0  0  0  0
   47.3933    9.6511   14.5863 H   0  0  0  0  0  0  0  0  0  0  0  0
   47.6801    8.2839   13.4590 H   0  0  0  0  0  0  0  0  0  0  0  0
   49.8930   10.1518   14.4772 H   0  0  0  0  0  0  0  0  0  0  0  0
   50.5924    8.1456   15.8816 H   0  0  0  0  0  0  0  0  0  0  0  0
   49.1334    7.3209   15.3988 H   0  0  0  0  0  0  0  0  0  0  0  0
   48.0441   11.3416   17.9758 H   0  0  0  0  0  0  0  0  0  0  0  0
   49.2102   10.8379   19.2157 H   0  0  0  0  0  0  0  0  0  0  0  0
   48.0327    8.6068   19.3769 H   0  0  0  0  0  0  0  0  0  0  0  0
   46.8524    9.1653   18.2013 H   0  0  0  0  0  0  0  0  0  0  0  0
   45.8309    9.4545   20.3398 H   0  0  0  0  0  0  0  0  0  0  0  0
   46.1879   11.0502   19.7164 H   0  0  0  0  0  0  0  0  0  0  0  0
   48.6939   13.0307   23.1625 H   0  0  0  0  0  0  0  0  0  0  0  0
   47.4499   12.5717   21.0813 H   0  0  0  0  0  0  0  0  0  0  0  0
   47.5571    8.3501   21.9703 H   0  0  0  0  0  0  0  0  0  0  0  0
   48.8020    8.8296   24.0475 H   0  0  0  0  0  0  0  0  0  0  0  0
   49.3739   11.1667   24.6499 H   0  0  0  0  0  0  0  0  0  0  0  0
   52.1753    7.5206   12.0201 H   0  0  0  0  0  0  0  0  0  0  0  0
   50.9819    7.9085   10.7520 H   0  0  0  0  0  0  0  0  0  0  0  0
   53.5252    9.5114   11.3880 H   0  0  0  0  0  0  0  0  0  0  0  0
   52.3370    9.9649   10.1788 H   0  0  0  0  0  0  0  0  0  0  0  0
   54.1915    8.8822    9.0514 H   0  0  0  0  0  0  0  0  0  0  0  0
   52.7534    7.8961    8.8894 H   0  0  0  0  0  0  0  0  0  0  0  0
   52.9525    5.5749    9.3483 H   0  0  0  0  0  0  0  0  0  0  0  0
   54.2216    3.6720   10.2778 H   0  0  0  0  0  0  0  0  0  0  0  0
   56.2559    4.0720   11.6398 H   0  0  0  0  0  0  0  0  0  0  0  0
   57.0280    6.3911   12.0656 H   0  0  0  0  0  0  0  0  0  0  0  0
   55.7764    8.3066   11.1387 H   0  0  0  0  0  0  0  0  0  0  0  0
  1  2  2  0
  1  6  1  0
  2  3  1  0
  3  4  2  0
  4  5  1  0
  5  6  2  0
  5  7  1  0
  7  8  1  0
  8  9  1  0
  9 10  1  0
 10 11  2  0
 10 12  1  0
 12 13  1  0
 13 14  1  0
 14 15  1  0
 15 16  1  0
 16 17  1  0
 17 18  2  0
 17 19  1  0
 19 20  1  0
 20 21  1  0
 21 22  1  0
 24 22  1  0
 22 25  2  0
 23 24  2  0
 23 27  1  0
 25 26  1  0
 26 27  2  0
 14 28  1  0
 28 29  1  0
 29 30  2  0
 29 31  1  0
 31 32  1  0
 32 33  1  0
 33 34  1  0
 39 34  1  0
 35 34  2  0
 35 36  1  0
 36 37  2  0
 37 38  1  0
 38 39  2  0
  1 40  1  0
  2 41  1  0
  3 42  1  0
  4 43  1  0
  6 44  1  0
  7 45  1  0
  7 46  1  0
  8 47  1  0
  8 48  1  0
  9 49  1  0
  9 50  1  0
 13 51  1  0
 13 52  1  0
 14 53  1  0
 15 54  1  0
 15 55  1  0
 19 56  1  0
 19 57  1  0
 20 58  1  0
 20 59  1  0
 21 60  1  0
 21 61  1  0
 23 62  1  0
 24 63  1  0
 25 64  1  0
 26 65  1  0
 27 66  1  0
 31 67  1  0
 31 68  1  0
 32 69  1  0
 32 70  1  0
 33 71  1  0
 33 72  1  0
 35 73  1  0
 36 74  1  0
 37 75  1  0
 38 76  1  0
 39 77  1  0
M  END
> <Uni-Dock RESULT> 
ENERGY=   -4.579  LOWER_BOUND=    4.320  UPPER_BOUND=   10.834
INTER + INTRA:          -4.579
INTER:                  -4.579
INTRA:                   0.000
UNBOUND:                 0.000

$$$$

     RDKit          3D

 77 79  0  0  0  0  0  0  0  0999 V2000
   44.2761    3.1739   11.1842 C   0  0  0  0  0  0  0  0  0  0  0  0
   44.4231    3.2551    9.8004 C   0  0  0  0  0  0  0  0  0  0  0  0
   44.9396    4.4130    9.2218 C   0  0  0  0  0  0  0  0  0  0  0  0
   45.3073    5.4923   10.0263 C   0  0  0  0  0  0  0  0  0  0  0  0
   45.1571    5.4234   11.4180 C   0  0  0  0  0  0  0  0  0  0  0  0
   44.6440    4.2517   11.9906 C   0  0  0  0  0  0  0  0  0  0  0  0
   45.5679    6.5816   12.2910 C   0  0  0  0  0  0  0  0  0  0  0  0
   47.0296    6.4747   12.7270 C   0  0  0  0  0  0  0  0  0  0  0  0
   47.4188    7.6385   13.6369 C   0  0  0  0  0  0  0  0  0  0  0  0
   48.8570    7.5471   14.0870 C   0  0  0  0  0  0  0  0  0  0  0  0
   49.6848    6.7462   13.6783 O   0  0  0  0  0  0  0  0  0  0  0  0
   49.0992    8.5083   15.0189 O   0  0  0  0  0  0  0  0  0  0  0  0
   50.4378    8.5117   15.5422 C   0  0  0  0  0  0  0  0  0  0  0  0
   50.5650    9.6057   16.6124 C   0  0  0  0  0  0  0  0  0  0  0  0
   51.9319    9.5289   17.3015 C   0  0  0  0  0  0  0  0  0  0  0  0
   52.1291    8.2712   17.9654 O   0  0  0  0  0  0  0  0  0  0  0  0
   51.6174    8.1822   19.2224 C   0  0  0  0  0  0  0  0  0  0  0  0
   50.9907    9.0743   19.7798 O   0  0  0  0  0  0  0  0  0  0  0  0
   51.8275    6.8125   19.8244 C   0  0  0  0  0  0  0  0  0  0  0  0
   53.1131    6.1211   19.3638 C   0  0  0  0  0  0  0  0  0  0  0  0
   53.3158    4.7489   20.0138 C   0  0  0  0  0  0  0  0  0  0  0  0
   53.6337    4.8193   21.4866 C   0  0  0  0  0  0  0  0  0  0  0  0
   52.9738    4.5207   23.8045 C   0  0  0  0  0  0  0  0  0  0  0  0
   52.6777    4.4492   22.4418 C   0  0  0  0  0  0  0  0  0  0  0  0
   54.8918    5.2591   21.9212 C   0  0  0  0  0  0  0  0  0  0  0  0
   55.1863    5.3290   23.2837 C   0  0  0  0  0  0  0  0  0  0  0  0
   54.2275    4.9606   24.2248 C   0  0  0  0  0  0  0  0  0  0  0  0
   50.4825   10.9048   15.9806 O   0  0  0  0  0  0  0  0  0  0  0  0
   49.2571   11.5003   15.9596 C   0  0  0  0  0  0  0  0  0  0  0  0
   48.2298   11.0284   16.4207 O   0  0  0  0  0  0  0  0  0  0  0  0
   49.3605   12.8258   15.2422 C   0  0  0  0  0  0  0  0  0  0  0  0
   48.1384   13.7074   15.5063 C   0  0  0  0  0  0  0  0  0  0  0  0
   48.1619   15.0165   14.7113 C   0  0  0  0  0  0  0  0  0  0  0  0
   49.3059   15.9319   15.0730 C   0  0  0  0  0  0  0  0  0  0  0  0
   50.3383   16.1765   14.1569 C   0  0  0  0  0  0  0  0  0  0  0  0
   51.3983   17.0205   14.4937 C   0  0  0  0  0  0  0  0  0  0  0  0
   51.4358   17.6284   15.7480 C   0  0  0  0  0  0  0  0  0  0  0  0
   50.4138   17.3948   16.6656 C   0  0  0  0  0  0  0  0  0  0  0  0
   49.3523   16.5522   16.3300 C   0  0  0  0  0  0  0  0  0  0  0  0
   43.8780    2.2697   11.6359 H   0  0  0  0  0  0  0  0  0  0  0  0
   44.1385    2.4152    9.1736 H   0  0  0  0  0  0  0  0  0  0  0  0
   45.0595    4.4748    8.1430 H   0  0  0  0  0  0  0  0  0  0  0  0
   45.7131    6.3878    9.5602 H   0  0  0  0  0  0  0  0  0  0  0  0
   44.5298    4.1714   13.0694 H   0  0  0  0  0  0  0  0  0  0  0  0
   44.9113    6.6237   13.1693 H   0  0  0  0  0  0  0  0  0  0  0  0
   45.4039    7.5217   11.7493 H   0  0  0  0  0  0  0  0  0  0  0  0
   47.1981    5.5254   13.2521 H   0  0  0  0  0  0  0  0  0  0  0  0
   47.6839    6.4593   11.8458 H   0  0  0  0  0  0  0  0  0  0  0  0
   47.2857    8.5900   13.1098 H   0  0  0  0  0  0  0  0  0  0  0  0
   46.7804    7.6331   14.5280 H   0  0  0  0  0  0  0  0  0  0  0  0
   50.6480    7.5272   15.9752 H   0  0  0  0  0  0  0  0  0  0  0  0
   51.1317    8.7126   14.7170 H   0  0  0  0  0  0  0  0  0  0  0  0
   49.7697    9.4838   17.3576 H   0  0  0  0  0  0  0  0  0  0  0  0
   52.0713   10.3686   17.9948 H   0  0  0  0  0  0  0  0  0  0  0  0
   52.7329    9.6320   16.5590 H   0  0  0  0  0  0  0  0  0  0  0  0
   50.9552    6.2009   19.5692 H   0  0  0  0  0  0  0  0  0  0  0  0
   51.8476    6.9451   20.9111 H   0  0  0  0  0  0  0  0  0  0  0  0
   53.9743    6.7734   19.5553 H   0  0  0  0  0  0  0  0  0  0  0  0
   53.0732    5.9725   18.2771 H   0  0  0  0  0  0  0  0  0  0  0  0
   54.1434    4.2311   19.5109 H   0  0  0  0  0  0  0  0  0  0  0  0
   52.4290    4.1244   19.8454 H   0  0  0  0  0  0  0  0  0  0  0  0
   52.2257    4.2337   24.5384 H   0  0  0  0  0  0  0  0  0  0  0  0
   51.6938    4.1043   22.1322 H   0  0  0  0  0  0  0  0  0  0  0  0
   55.6522    5.5478   21.1985 H   0  0  0  0  0  0  0  0  0  0  0  0
   56.1648    5.6713   23.6102 H   0  0  0  0  0  0  0  0  0  0  0  0
   54.4571    5.0162   25.2855 H   0  0  0  0  0  0  0  0  0  0  0  0
   50.2664   13.3324   15.5936 H   0  0  0  0  0  0  0  0  0  0  0  0
   49.4593   12.6209   14.1705 H   0  0  0  0  0  0  0  0  0  0  0  0
   48.0590   13.9129   16.5813 H   0  0  0  0  0  0  0  0  0  0  0  0
   47.2282   13.1589   15.2318 H   0  0  0  0  0  0  0  0  0  0  0  0
   47.2221   15.5588   14.8813 H   0  0  0  0  0  0  0  0  0  0  0  0
   48.1858   14.7894   13.6379 H   0  0  0  0  0  0  0  0  0  0  0  0
   50.3236   15.7123   13.1727 H   0  0  0  0  0  0  0  0  0  0  0  0
   52.1931   17.2078   13.7761 H   0  0  0  0  0  0  0  0  0  0  0  0
   52.2610   18.2859   16.0091 H   0  0  0  0  0  0  0  0  0  0  0  0
   50.4412   17.8704   17.6436 H   0  0  0  0  0  0  0  0  0  0  0  0
   48.5598   16.3838   17.0561 H   0  0  0  0  0  0  0  0  0  0  0  0
  1  2  2  0
  1  6  1  0
  2  3  1  0
  3  4  2  0
  4  5  1  0
  5  6  2  0
  5  7  1  0
  7  8  1  0
  8  9  1  0
  9 10  1  0
 10 11  2  0
 10 12  1  0
 12 13  1  0
 13 14  1  0
 14 15  1  0
 15 16  1  0
 16 17  1  0
 17 18  2  0
 17 19  1  0
 19 20  1  0
 20 21  1  0
 21 22  1  0
 24 22  1  0
 22 25  2  0
 23 24  2  0
 23 27  1  0
 25 26  1  0
 26 27  2  0
 14 28  1  0
 28 29  1  0
 29 30  2  0
 29 31  1  0
 31 32  1  0
 32 33  1  0
 33 34  1  0
 39 34  1  0
 35 34  2  0
 35 36  1  0
 36 37  2  0
 37 38  1  0
 38 39  2  0
  1 40  1  0
  2 41  1  0
  3 42  1  0
  4 43  1  0
  6 44  1  0
  7 45  1  0
  7 46  1  0
  8 47  1  0
  8 48  1  0
  9 49  1  0
  9 50  1  0
 13 51  1  0
 13 52  1  0
 14 53  1  0
 15 54  1  0
 15 55  1  0
 19 56  1  0
 19 57  1  0
 20 58  1  0
 20 59  1  0
 21 60  1  0
 21 61  1  0
 23 62  1  0
 24 63  1  0
 25 64  1  0
 26 65  1  0
 27 66  1  0
 31 67  1  0
 31 68  1  0
 32 69  1  0
 32 70  1  0
 33 71  1  0
 33 72  1  0
 35 73  1  0
 36 74  1  0
 37 75  1  0
 38 76  1  0
 39 77  1  0
M  END
> <Uni-Dock RESULT> 
ENERGY=   -4.548  LOWER_BOUND=    4.795  UPPER_BOUND=   11.310
INTER + INTRA:          -4.548
INTER:                  -4.548
INTRA:                   0.000
UNBOUND:                 0.000

$$$$

     RDKit          3D

 77 79  0  0  0  0  0  0  0  0999 V2000
   43.3507    3.6077   12.1302 C   0  0  0  0  0  0  0  0  0  0  0  0
   43.8385    2.8872   11.0412 C   0  0  0  0  0  0  0  0  0  0  0  0
   44.6129    3.5257   10.0743 C   0  0  0  0  0  0  0  0  0  0  0  0
   44.8982    4.8865   10.1939 C   0  0  0  0  0  0  0  0  0  0  0  0
   44.4066    5.6215   11.2813 C   0  0  0  0  0  0  0  0  0  0  0  0
   43.6354    4.9684   12.2522 C   0  0  0  0  0  0  0  0  0  0  0  0
   44.7261    7.0880   11.4215 C   0  0  0  0  0  0  0  0  0  0  0  0
   46.0146    7.3163   12.2125 C   0  0  0  0  0  0  0  0  0  0  0  0
   46.3048    8.8076   12.3727 C   0  0  0  0  0  0  0  0  0  0  0  0
   47.5692    9.0556   13.1596 C   0  0  0  0  0  0  0  0  0  0  0  0
   48.3714    8.2034   13.5115 O   0  0  0  0  0  0  0  0  0  0  0  0
   47.6887   10.3872   13.4119 O   0  0  0  0  0  0  0  0  0  0  0  0
   48.8505   10.7503   14.1761 C   0  0  0  0  0  0  0  0  0  0  0  0
   48.8413   12.2646   14.4312 C   0  0  0  0  0  0  0  0  0  0  0  0
   49.9806   12.6584   15.3779 C   0  0  0  0  0  0  0  0  0  0  0  0
   49.8608   12.0193   16.6579 O   0  0  0  0  0  0  0  0  0  0  0  0
   49.0517   12.6443   17.5549 C   0  0  0  0  0  0  0  0  0  0  0  0
   48.4178   13.6656   17.3215 O   0  0  0  0  0  0  0  0  0  0  0  0
   48.9463   11.8786   18.8530 C   0  0  0  0  0  0  0  0  0  0  0  0
   50.2148   11.1067   19.2248 C   0  0  0  0  0  0  0  0  0  0  0  0
   50.0902   10.3661   20.5599 C   0  0  0  0  0  0  0  0  0  0  0  0
   50.0461   11.2826   21.7571 C   0  0  0  0  0  0  0  0  0  0  0  0
   48.8115   12.3380   23.5625 C   0  0  0  0  0  0  0  0  0  0  0  0
   48.8497   11.4848   22.4578 C   0  0  0  0  0  0  0  0  0  0  0  0
   51.2033   11.9483   22.1848 C   0  0  0  0  0  0  0  0  0  0  0  0
   51.1635   12.8001   23.2897 C   0  0  0  0  0  0  0  0  0  0  0  0
   49.9680   12.9953   23.9778 C   0  0  0  0  0  0  0  0  0  0  0  0
   49.0686   12.9612   13.1835 O   0  0  0  0  0  0  0  0  0  0  0  0
   47.9640   13.3812   12.5052 C   0  0  0  0  0  0  0  0  0  0  0  0
   46.8072   13.2134   12.8577 O   0  0  0  0  0  0  0  0  0  0  0  0
   48.3941   14.0586   11.2251 C   0  0  0  0  0  0  0  0  0  0  0  0
   47.2570   14.8763   10.6096 C   0  0  0  0  0  0  0  0  0  0  0  0
   47.6272   15.4922    9.2568 C   0  0  0  0  0  0  0  0  0  0  0  0
   48.7484   16.4999    9.3292 C   0  0  0  0  0  0  0  0  0  0  0  0
   49.9941   16.2211    8.7502 C   0  0  0  0  0  0  0  0  0  0  0  0
   51.0320   17.1522    8.8209 C   0  0  0  0  0  0  0  0  0  0  0  0
   50.8344   18.3705    9.4698 C   0  0  0  0  0  0  0  0  0  0  0  0
   49.5996   18.6596   10.0467 C   0  0  0  0  0  0  0  0  0  0  0  0
   48.5601   17.7303    9.9756 C   0  0  0  0  0  0  0  0  0  0  0  0
   42.7510    3.1093   12.8865 H   0  0  0  0  0  0  0  0  0  0  0  0
   43.6181    1.8279   10.9480 H   0  0  0  0  0  0  0  0  0  0  0  0
   44.9981    2.9630    9.2276 H   0  0  0  0  0  0  0  0  0  0  0  0
   45.5076    5.3699    9.4332 H   0  0  0  0  0  0  0  0  0  0  0  0
   43.2535    5.5162   13.1108 H   0  0  0  0  0  0  0  0  0  0  0  0
   43.8851    7.5966   11.9098 H   0  0  0  0  0  0  0  0  0  0  0  0
   44.8107    7.5389   10.4247 H   0  0  0  0  0  0  0  0  0  0  0  0
   45.9374    6.8486   13.2027 H   0  0  0  0  0  0  0  0  0  0  0  0
   46.8572    6.8277   11.7062 H   0  0  0  0  0  0  0  0  0  0  0  0
   46.4170    9.2776   11.3891 H   0  0  0  0  0  0  0  0  0  0  0  0
   45.4727    9.2855   12.9026 H   0  0  0  0  0  0  0  0  0  0  0  0
   48.8316   10.2027   15.1252 H   0  0  0  0  0  0  0  0  0  0  0  0
   49.7430   10.4726   13.6025 H   0  0  0  0  0  0  0  0  0  0  0  0
   47.8799   12.5565   14.8707 H   0  0  0  0  0  0  0  0  0  0  0  0
   50.0448   13.7491   15.4845 H   0  0  0  0  0  0  0  0  0  0  0  0
   50.9446   12.3530   14.9525 H   0  0  0  0  0  0  0  0  0  0  0  0
   48.0966   11.1928   18.7653 H   0  0  0  0  0  0  0  0  0  0  0  0
   48.7168   12.6112   19.6338 H   0  0  0  0  0  0  0  0  0  0  0  0
   51.0740   11.7888   19.2368 H   0  0  0  0  0  0  0  0  0  0  0  0
   50.4233   10.3602   18.4478 H   0  0  0  0  0  0  0  0  0  0  0  0
   50.9484    9.6915   20.6787 H   0  0  0  0  0  0  0  0  0  0  0  0
   49.2039    9.7189   20.5434 H   0  0  0  0  0  0  0  0  0  0  0  0
   47.8788   12.4905   24.0987 H   0  0  0  0  0  0  0  0  0  0  0  0
   47.9371   10.9808   22.1476 H   0  0  0  0  0  0  0  0  0  0  0  0
   52.1452   11.8041   21.6596 H   0  0  0  0  0  0  0  0  0  0  0  0
   52.0663   13.3113   23.6133 H   0  0  0  0  0  0  0  0  0  0  0  0
   49.9374   13.6594   24.8374 H   0  0  0  0  0  0  0  0  0  0  0  0
   49.2404   14.7153   11.4563 H   0  0  0  0  0  0  0  0  0  0  0  0
   48.7260   13.2809   10.5285 H   0  0  0  0  0  0  0  0  0  0  0  0
   46.9432   15.6573   11.3135 H   0  0  0  0  0  0  0  0  0  0  0  0
   46.3830   14.2293   10.4610 H   0  0  0  0  0  0  0  0  0  0  0  0
   46.7449   15.9911    8.8338 H   0  0  0  0  0  0  0  0  0  0  0  0
   47.8847   14.6919    8.5514 H   0  0  0  0  0  0  0  0  0  0  0  0
   50.1648   15.2763    8.2377 H   0  0  0  0  0  0  0  0  0  0  0  0
   51.9939   16.9296    8.3660 H   0  0  0  0  0  0  0  0  0  0  0  0
   51.6427   19.0952    9.5238 H   0  0  0  0  0  0  0  0  0  0  0  0
   49.4439   19.6108   10.5512 H   0  0  0  0  0  0  0  0  0  0  0  0
   47.6006   17.9733   10.4271 H   0  0  0  0  0  0  0  0  0  0  0  0
  1  2  2  0
  1  6  1  0
  2  3  1  0
  3  4  2  0
  4  5  1  0
  5  6  2  0
  5  7  1  0
  7  8  1  0
  8  9  1  0
  9 10  1  0
 10 11  2  0
 10 12  1  0
 12 13  1  0
 13 14  1  0
 14 15  1  0
 15 16  1  0
 16 17  1  0
 17 18  2  0
 17 19  1  0
 19 20  1  0
 20 21  1  0
 21 22  1  0
 24 22  1  0
 22 25  2  0
 23 24  2  0
 23 27  1  0
 25 26  1  0
 26 27  2  0
 14 28  1  0
 28 29  1  0
 29 30  2  0
 29 31  1  0
 31 32  1  0
 32 33  1  0
 33 34  1  0
 39 34  1  0
 35 34  2  0
 35 36  1  0
 36 37  2  0
 37 38  1  0
 38 39  2  0
  1 40  1  0
  2 41  1  0
  3 42  1  0
  4 43  1  0
  6 44  1  0
  7 45  1  0
  7 46  1  0
  8 47  1  0
  8 48  1  0
  9 49  1  0
  9 50  1  0
 13 51  1  0
 13 52  1  0
 14 53  1  0
 15 54  1  0
 15 55  1  0
 19 56  1  0
 19 57  1  0
 20 58  1  0
 20 59  1  0
 21 60  1  0
 21 61  1  0
 23 62  1  0
 24 63  1  0
 25 64  1  0
 26 65  1  0
 27 66  1  0
 31 67  1  0
 31 68  1  0
 32 69  1  0
 32 70  1  0
 33 71  1  0
 33 72  1  0
 35 73  1  0
 36 74  1  0
 37 75  1  0
 38 76  1  0
 39 77  1  0
M  END
> <Uni-Dock RESULT> 
ENERGY=   -4.333  LOWER_BOUND=    4.102  UPPER_BOUND=   10.939
INTER + INTRA:          -4.333
INTER:                  -4.333
INTRA:                   0.000
UNBOUND:                 0.000

$$$$

     RDKit          3D

 77 79  0  0  0  0  0  0  0  0999 V2000
   43.5923   10.8657    7.7965 C   0  0  0  0  0  0  0  0  0  0  0  0
   44.2251   11.1402    6.5852 C   0  0  0  0  0  0  0  0  0  0  0  0
   45.2985   12.0281    6.5457 C   0  0  0  0  0  0  0  0  0  0  0  0
   45.7387   12.6450    7.7175 C   0  0  0  0  0  0  0  0  0  0  0  0
   45.1048   12.3812    8.9394 C   0  0  0  0  0  0  0  0  0  0  0  0
   44.0314   11.4808    8.9696 C   0  0  0  0  0  0  0  0  0  0  0  0
   45.5880   13.0340   10.2094 C   0  0  0  0  0  0  0  0  0  0  0  0
   46.6598   12.1960   10.9074 C   0  0  0  0  0  0  0  0  0  0  0  0
   47.1135   12.8562   12.2082 C   0  0  0  0  0  0  0  0  0  0  0  0
   48.1660   12.0397   12.9188 C   0  0  0  0  0  0  0  0  0  0  0  0
   48.7244   11.0484   12.4724 O   0  0  0  0  0  0  0  0  0  0  0  0
   48.4104   12.5855   14.1409 O   0  0  0  0  0  0  0  0  0  0  0  0
   49.3867   11.8822   14.9268 C   0  0  0  0  0  0  0  0  0  0  0  0
   49.5335   12.5685   16.2927 C   0  0  0  0  0  0  0  0  0  0  0  0
   50.4476   11.7502   17.2114 C   0  0  0  0  0  0  0  0  0  0  0  0
   49.9238   10.4365   17.4590 O   0  0  0  0  0  0  0  0  0  0  0  0
   49.0169   10.3447   18.4684 C   0  0  0  0  0  0  0  0  0  0  0  0
   48.6148   11.2956   19.1268 O   0  0  0  0  0  0  0  0  0  0  0  0
   48.4841    8.9398   18.6259 C   0  0  0  0  0  0  0  0  0  0  0  0
   49.4959    7.8473   18.2712 C   0  0  0  0  0  0  0  0  0  0  0  0
   48.9392    6.4341   18.4702 C   0  0  0  0  0  0  0  0  0  0  0  0
   48.7330    6.0646   19.9180 C   0  0  0  0  0  0  0  0  0  0  0  0
   47.2559    5.6501   21.8005 C   0  0  0  0  0  0  0  0  0  0  0  0
   47.4426    5.9874   20.4584 C   0  0  0  0  0  0  0  0  0  0  0  0
   49.8320    5.7949   20.7455 C   0  0  0  0  0  0  0  0  0  0  0  0
   49.6435    5.4570   22.0864 C   0  0  0  0  0  0  0  0  0  0  0  0
   48.3560    5.3853   22.6137 C   0  0  0  0  0  0  0  0  0  0  0  0
   50.1605   13.8602   16.1141 O   0  0  0  0  0  0  0  0  0  0  0  0
   49.3308   14.9359   16.0091 C   0  0  0  0  0  0  0  0  0  0  0  0
   48.1110   14.8987   16.0464 O   0  0  0  0  0  0  0  0  0  0  0  0
   50.1575   16.1834   15.8025 C   0  0  0  0  0  0  0  0  0  0  0  0
   49.3385   17.4511   16.0527 C   0  0  0  0  0  0  0  0  0  0  0  0
   50.1169   18.7356   15.7515 C   0  0  0  0  0  0  0  0  0  0  0  0
   51.3186   18.9457   16.6399 C   0  0  0  0  0  0  0  0  0  0  0  0
   52.6151   18.8715   16.1123 C   0  0  0  0  0  0  0  0  0  0  0  0
   53.7265   19.0622   16.9356 C   0  0  0  0  0  0  0  0  0  0  0  0
   53.5525   19.3298   18.2929 C   0  0  0  0  0  0  0  0  0  0  0  0
   52.2685   19.4086   18.8279 C   0  0  0  0  0  0  0  0  0  0  0  0
   51.1559   19.2196   18.0058 C   0  0  0  0  0  0  0  0  0  0  0  0
   42.7586   10.1700    7.8283 H   0  0  0  0  0  0  0  0  0  0  0  0
   43.8841   10.6595    5.6730 H   0  0  0  0  0  0  0  0  0  0  0  0
   45.7958   12.2383    5.6022 H   0  0  0  0  0  0  0  0  0  0  0  0
   46.5807   13.3325    7.6714 H   0  0  0  0  0  0  0  0  0  0  0  0
   43.5321   11.2519    9.9085 H   0  0  0  0  0  0  0  0  0  0  0  0
   44.7349   13.1956   10.8805 H   0  0  0  0  0  0  0  0  0  0  0  0
   45.9808   14.0323    9.9788 H   0  0  0  0  0  0  0  0  0  0  0  0
   46.2731   11.1909   11.1208 H   0  0  0  0  0  0  0  0  0  0  0  0
   47.5217   12.0592   10.2417 H   0  0  0  0  0  0  0  0  0  0  0  0
   47.5322   13.8477   12.0017 H   0  0  0  0  0  0  0  0  0  0  0  0
   46.2542   12.9658   12.8799 H   0  0  0  0  0  0  0  0  0  0  0  0
   49.0547   10.8455   15.0537 H   0  0  0  0  0  0  0  0  0  0  0  0
   50.3436   11.9049   14.3916 H   0  0  0  0  0  0  0  0  0  0  0  0
   48.5457   12.6759   16.7570 H   0  0  0  0  0  0  0  0  0  0  0  0
   50.6403   12.2832   18.1516 H   0  0  0  0  0  0  0  0  0  0  0  0
   51.4323   11.6233   16.7448 H   0  0  0  0  0  0  0  0  0  0  0  0
   47.5927    8.8507   17.9954 H   0  0  0  0  0  0  0  0  0  0  0  0
   48.1767    8.8341   19.6715 H   0  0  0  0  0  0  0  0  0  0  0  0
   50.4147    7.9892   18.8539 H   0  0  0  0  0  0  0  0  0  0  0  0
   49.7802    7.9480   17.2160 H   0  0  0  0  0  0  0  0  0  0  0  0
   49.6346    5.7079   18.0288 H   0  0  0  0  0  0  0  0  0  0  0  0
   48.0007    6.3235   17.9119 H   0  0  0  0  0  0  0  0  0  0  0  0
   46.2516    5.5947   22.2117 H   0  0  0  0  0  0  0  0  0  0  0  0
   46.5723    6.1916   19.8388 H   0  0  0  0  0  0  0  0  0  0  0  0
   50.8436    5.8441   20.3478 H   0  0  0  0  0  0  0  0  0  0  0  0
   50.5022    5.2496   22.7194 H   0  0  0  0  0  0  0  0  0  0  0  0
   48.2099    5.1231   23.6582 H   0  0  0  0  0  0  0  0  0  0  0  0
   51.0059   16.1471   16.4951 H   0  0  0  0  0  0  0  0  0  0  0  0
   50.5355   16.1695   14.7744 H   0  0  0  0  0  0  0  0  0  0  0  0
   48.9764   17.4562   17.0886 H   0  0  0  0  0  0  0  0  0  0  0  0
   48.4444   17.4379   15.4163 H   0  0  0  0  0  0  0  0  0  0  0  0
   49.4482   19.5988   15.8696 H   0  0  0  0  0  0  0  0  0  0  0  0
   50.4225   18.7364   14.6975 H   0  0  0  0  0  0  0  0  0  0  0  0
   52.7690   18.6660   15.0547 H   0  0  0  0  0  0  0  0  0  0  0  0
   54.7284   19.0066   16.5176 H   0  0  0  0  0  0  0  0  0  0  0  0
   54.4182   19.4790   18.9330 H   0  0  0  0  0  0  0  0  0  0  0  0
   52.1318   19.6196   19.8863 H   0  0  0  0  0  0  0  0  0  0  0  0
   50.1600   19.2890   18.4381 H   0  0  0  0  0  0  0  0  0  0  0  0
  1  2  2  0
  1  6  1  0
  2  3  1  0
  3  4  2  0
  4  5  1  0
  5  6  2  0
  5  7  1  0
  7  8  1  0
  8  9  1  0
  9 10  1  0
 10 11  2  0
 10 12  1  0
 12 13  1  0
 13 14  1  0
 14 15  1  0
 15 16  1  0
 16 17  1  0
 17 18  2  0
 17 19  1  0
 19 20  1  0
 20 21  1  0
 21 22  1  0
 24 22  1  0
 22 25  2  0
 23 24  2  0
 23 27  1  0
 25 26  1  0
 26 27  2  0
 14 28  1  0
 28 29  1  0
 29 30  2  0
 29 31  1  0
 31 32  1  0
 32 33  1  0
 33 34  1  0
 39 34  1  0
 35 34  2  0
 35 36  1  0
 36 37  2  0
 37 38  1  0
 38 39  2  0
  1 40  1  0
  2 41  1  0
  3 42  1  0
  4 43  1  0
  6 44  1  0
  7 45  1  0
  7 46  1  0
  8 47  1  0
  8 48  1  0
  9 49  1  0
  9 50  1  0
 13 51  1  0
 13 52  1  0
 14 53  1  0
 15 54  1  0
 15 55  1  0
 19 56  1  0
 19 57  1  0
 20 58  1  0
 20 59  1  0
 21 60  1  0
 21 61  1  0
 23 62  1  0
 24 63  1  0
 25 64  1  0
 26 65  1  0
 27 66  1  0
 31 67  1  0
 31 68  1  0
 32 69  1  0
 32 70  1  0
 33 71  1  0
 33 72  1  0
 35 73  1  0
 36 74  1  0
 37 75  1  0
 38 76  1  0
 39 77  1  0
M  END
> <Uni-Dock RESULT> 
ENERGY=   -4.304  LOWER_BOUND=    6.004  UPPER_BOUND=   12.972
INTER + INTRA:          -4.304
INTER:                  -4.304
INTRA:                   0.000
UNBOUND:                 0.000

$$$$

     RDKit          3D

 77 79  0  0  0  0  0  0  0  0999 V2000
   38.4437   11.6019   12.3336 C   0  0  0  0  0  0  0  0  0  0  0  0
   37.8663   11.2131   11.1259 C   0  0  0  0  0  0  0  0  0  0  0  0
   38.6661   11.0257   10.0000 C   0  0  0  0  0  0  0  0  0  0  0  0
   40.0443   11.2295   10.0799 C   0  0  0  0  0  0  0  0  0  0  0  0
   40.6338   11.6272   11.2876 C   0  0  0  0  0  0  0  0  0  0  0  0
   39.8218   11.8054   12.4159 C   0  0  0  0  0  0  0  0  0  0  0  0
   42.1242   11.8331   11.3811 C   0  0  0  0  0  0  0  0  0  0  0  0
   42.8522   10.5476   11.7757 C   0  0  0  0  0  0  0  0  0  0  0  0
   44.3567   10.7828   11.8976 C   0  0  0  0  0  0  0  0  0  0  0  0
   45.0942    9.5271   12.2960 C   0  0  0  0  0  0  0  0  0  0  0  0
   44.6105    8.4074   12.3726 O   0  0  0  0  0  0  0  0  0  0  0  0
   46.3960    9.8307   12.5495 O   0  0  0  0  0  0  0  0  0  0  0  0
   47.2027    8.7141   12.9598 C   0  0  0  0  0  0  0  0  0  0  0  0
   48.6293    9.1973   13.2593 C   0  0  0  0  0  0  0  0  0  0  0  0
   49.4698    8.0608   13.8517 C   0  0  0  0  0  0  0  0  0  0  0  0
   48.9248    7.5779   15.0890 O   0  0  0  0  0  0  0  0  0  0  0  0
   49.2851    8.2718   16.2019 C   0  0  0  0  0  0  0  0  0  0  0  0
   49.9947    9.2696   16.1964 O   0  0  0  0  0  0  0  0  0  0  0  0
   48.6285    7.7254   17.4481 C   0  0  0  0  0  0  0  0  0  0  0  0
   48.3868    6.2143   17.4124 C   0  0  0  0  0  0  0  0  0  0  0  0
   47.7494    5.6837   18.7004 C   0  0  0  0  0  0  0  0  0  0  0  0
   48.6750    5.7182   19.8909 C   0  0  0  0  0  0  0  0  0  0  0  0
   49.3514    6.6912   22.0106 C   0  0  0  0  0  0  0  0  0  0  0  0
   48.4895    6.6589   20.9125 C   0  0  0  0  0  0  0  0  0  0  0  0
   49.7375    4.8092   19.9908 C   0  0  0  0  0  0  0  0  0  0  0  0
   50.5976    4.8424   21.0895 C   0  0  0  0  0  0  0  0  0  0  0  0
   50.4049    5.7834   22.0985 C   0  0  0  0  0  0  0  0  0  0  0  0
   49.2684    9.5962   12.0240 O   0  0  0  0  0  0  0  0  0  0  0  0
   49.2181   10.9204   11.7068 C   0  0  0  0  0  0  0  0  0  0  0  0
   48.6765   11.7901   12.3709 O   0  0  0  0  0  0  0  0  0  0  0  0
   49.9091   11.1411   10.3816 C   0  0  0  0  0  0  0  0  0  0  0  0
   50.2224   12.6201   10.1477 C   0  0  0  0  0  0  0  0  0  0  0  0
   50.8296   12.8922    8.7679 C   0  0  0  0  0  0  0  0  0  0  0  0
   52.1722   12.2384    8.5501 C   0  0  0  0  0  0  0  0  0  0  0  0
   52.3126   11.1919    7.6281 C   0  0  0  0  0  0  0  0  0  0  0  0
   53.5542   10.5849    7.4299 C   0  0  0  0  0  0  0  0  0  0  0  0
   54.6666   11.0185    8.1502 C   0  0  0  0  0  0  0  0  0  0  0  0
   54.5395   12.0595    9.0674 C   0  0  0  0  0  0  0  0  0  0  0  0
   53.2989   12.6687    9.2658 C   0  0  0  0  0  0  0  0  0  0  0  0
   37.8212   11.7434   13.2125 H   0  0  0  0  0  0  0  0  0  0  0  0
   36.7940   11.0529   11.0631 H   0  0  0  0  0  0  0  0  0  0  0  0
   38.2169   10.7173    9.0593 H   0  0  0  0  0  0  0  0  0  0  0  0
   40.6559   11.0750    9.1935 H   0  0  0  0  0  0  0  0  0  0  0  0
   40.2592   12.1022   13.3666 H   0  0  0  0  0  0  0  0  0  0  0  0
   42.3350   12.6278   12.1079 H   0  0  0  0  0  0  0  0  0  0  0  0
   42.5020   12.1999   10.4184 H   0  0  0  0  0  0  0  0  0  0  0  0
   42.4609   10.1701   12.7294 H   0  0  0  0  0  0  0  0  0  0  0  0
   42.6593    9.7637   11.0320 H   0  0  0  0  0  0  0  0  0  0  0  0
   44.7630   11.1283   10.9403 H   0  0  0  0  0  0  0  0  0  0  0  0
   44.5451   11.5469   12.6606 H   0  0  0  0  0  0  0  0  0  0  0  0
   46.7547    8.2673   13.8546 H   0  0  0  0  0  0  0  0  0  0  0  0
   47.2191    7.9807   12.1445 H   0  0  0  0  0  0  0  0  0  0  0  0
   48.5918   10.0347   13.9665 H   0  0  0  0  0  0  0  0  0  0  0  0
   50.5169    8.3674   13.9733 H   0  0  0  0  0  0  0  0  0  0  0  0
   49.4966    7.2123   13.1568 H   0  0  0  0  0  0  0  0  0  0  0  0
   47.6812    8.2582   17.5845 H   0  0  0  0  0  0  0  0  0  0  0  0
   49.2865    7.9752   18.2869 H   0  0  0  0  0  0  0  0  0  0  0  0
   49.3285    5.6928   17.2007 H   0  0  0  0  0  0  0  0  0  0  0  0
   47.7086    5.9772   16.5827 H   0  0  0  0  0  0  0  0  0  0  0  0
   47.4342    4.6435   18.5439 H   0  0  0  0  0  0  0  0  0  0  0  0
   46.8302    6.2431   18.9168 H   0  0  0  0  0  0  0  0  0  0  0  0
   49.2013    7.4256   22.7972 H   0  0  0  0  0  0  0  0  0  0  0  0
   47.6731    7.3757   20.8603 H   0  0  0  0  0  0  0  0  0  0  0  0
   49.8995    4.0665   19.2124 H   0  0  0  0  0  0  0  0  0  0  0  0
   51.4182    4.1331   21.1575 H   0  0  0  0  0  0  0  0  0  0  0  0
   51.0755    5.8094   22.9533 H   0  0  0  0  0  0  0  0  0  0  0  0
   50.8385   10.5605   10.3824 H   0  0  0  0  0  0  0  0  0  0  0  0
   49.2515   10.7604    9.5923 H   0  0  0  0  0  0  0  0  0  0  0  0
   50.8900   12.9839   10.9389 H   0  0  0  0  0  0  0  0  0  0  0  0
   49.2982   13.2057   10.2342 H   0  0  0  0  0  0  0  0  0  0  0  0
   50.9503   13.9757    8.6341 H   0  0  0  0  0  0  0  0  0  0  0  0
   50.1239   12.5720    7.9909 H   0  0  0  0  0  0  0  0  0  0  0  0
   51.4555   10.8428    7.0556 H   0  0  0  0  0  0  0  0  0  0  0  0
   53.6553    9.7765    6.7102 H   0  0  0  0  0  0  0  0  0  0  0  0
   55.6330   10.5459    7.9948 H   0  0  0  0  0  0  0  0  0  0  0  0
   55.4073   12.3999    9.6281 H   0  0  0  0  0  0  0  0  0  0  0  0
   53.2175   13.4834    9.9822 H   0  0  0  0  0  0  0  0  0  0  0  0
  1  2  2  0
  1  6  1  0
  2  3  1  0
  3  4  2  0
  4  5  1  0
  5  6  2  0
  5  7  1  0
  7  8  1  0
  8  9  1  0
  9 10  1  0
 10 11  2  0
 10 12  1  0
 12 13  1  0
 13 14  1  0
 14 15  1  0
 15 16  1  0
 16 17  1  0
 17 18  2  0
 17 19  1  0
 19 20  1  0
 20 21  1  0
 21 22  1  0
 24 22  1  0
 22 25  2  0
 23 24  2  0
 23 27  1  0
 25 26  1  0
 26 27  2  0
 14 28  1  0
 28 29  1  0
 29 30  2  0
 29 31  1  0
 31 32  1  0
 32 33  1  0
 33 34  1  0
 39 34  1  0
 35 34  2  0
 35 36  1  0
 36 37  2  0
 37 38  1  0
 38 39  2  0
  1 40  1  0
  2 41  1  0
  3 42  1  0
  4 43  1  0
  6 44  1  0
  7 45  1  0
  7 46  1  0
  8 47  1  0
  8 48  1  0
  9 49  1  0
  9 50  1  0
 13 51  1  0
 13 52  1  0
 14 53  1  0
 15 54  1  0
 15 55  1  0
 19 56  1  0
 19 57  1  0
 20 58  1  0
 20 59  1  0
 21 60  1  0
 21 61  1  0
 23 62  1  0
 24 63  1  0
 25 64  1  0
 26 65  1  0
 27 66  1  0
 31 67  1  0
 31 68  1  0
 32 69  1  0
 32 70  1  0
 33 71  1  0
 33 72  1  0
 35 73  1  0
 36 74  1  0
 37 75  1  0
 38 76  1  0
 39 77  1  0
M  END
> <Uni-Dock RESULT> 
ENERGY=   -4.248  LOWER_BOUND=    4.121  UPPER_BOUND=   10.664
INTER + INTRA:          -4.248
INTER:                  -4.248
INTRA:                   0.000
UNBOUND:                 0.000

$$$$
