
     RDKit          3D

 77 79  0  0  0  0  0  0  0  0999 V2000
   40.5963   10.7771   11.4733 C   0  0  0  0  0  0  0  0  0  0  0  0
   40.0889   11.9670   10.9555 C   0  0  0  0  0  0  0  0  0  0  0  0
   40.8256   12.6861   10.0166 C   0  0  0  0  0  0  0  0  0  0  0  0
   42.0693   12.2128    9.5937 C   0  0  0  0  0  0  0  0  0  0  0  0
   42.5883   11.0160   10.1069 C   0  0  0  0  0  0  0  0  0  0  0  0
   41.8404   10.3033   11.0531 C   0  0  0  0  0  0  0  0  0  0  0  0
   43.9362   10.5112    9.6569 C   0  0  0  0  0  0  0  0  0  0  0  0
   45.1135   11.2897   10.2583 C   0  0  0  0  0  0  0  0  0  0  0  0
   45.2581   11.1388   11.7721 C   0  0  0  0  0  0  0  0  0  0  0  0
   45.5461    9.7185   12.1860 C   0  0  0  0  0  0  0  0  0  0  0  0
   44.7802    9.0191   12.8332 O   0  0  0  0  0  0  0  0  0  0  0  0
   46.7811    9.3368   11.7629 O   0  0  0  0  0  0  0  0  0  0  0  0
   47.1817    7.9887   12.0821 C   0  0  0  0  0  0  0  0  0  0  0  0
   48.1762    7.9629   13.2498 C   0  0  0  0  0  0  0  0  0  0  0  0
   47.6222    8.6250   14.5140 C   0  0  0  0  0  0  0  0  0  0  0  0
   48.5490    8.3806   15.5901 O   0  0  0  0  0  0  0  0  0  0  0  0
   48.2526    9.0246   16.7512 C   0  0  0  0  0  0  0  0  0  0  0  0
   47.2938    9.7647   16.9186 O   0  0  0  0  0  0  0  0  0  0  0  0
   49.3064    8.7211   17.7879 C   0  0  0  0  0  0  0  0  0  0  0  0
   48.7713    8.7898   19.2201 C   0  0  0  0  0  0  0  0  0  0  0  0
   47.6234    7.8178   19.5262 C   0  0  0  0  0  0  0  0  0  0  0  0
   47.9620    6.3704   19.2699 C   0  0  0  0  0  0  0  0  0  0  0  0
   47.6886    4.3478   17.9546 C   0  0  0  0  0  0  0  0  0  0  0  0
   47.3663    5.6823   18.2035 C   0  0  0  0  0  0  0  0  0  0  0  0
   48.8806    5.6956   20.0857 C   0  0  0  0  0  0  0  0  0  0  0  0
   49.2005    4.3602   19.8360 C   0  0  0  0  0  0  0  0  0  0  0  0
   48.6057    3.6875   18.7703 C   0  0  0  0  0  0  0  0  0  0  0  0
   49.3787    8.6865   12.8821 O   0  0  0  0  0  0  0  0  0  0  0  0
   50.2973    7.9850   12.1625 C   0  0  0  0  0  0  0  0  0  0  0  0
   50.1545    6.8315   11.7831 O   0  0  0  0  0  0  0  0  0  0  0  0
   51.5063    8.8548   11.9073 C   0  0  0  0  0  0  0  0  0  0  0  0
   52.6557    8.1046   11.2371 C   0  0  0  0  0  0  0  0  0  0  0  0
   52.4029    7.8457    9.7481 C   0  0  0  0  0  0  0  0  0  0  0  0
   53.5610    7.1135    9.1163 C   0  0  0  0  0  0  0  0  0  0  0  0
   54.6386    7.8208    8.5684 C   0  0  0  0  0  0  0  0  0  0  0  0
   55.7197    7.1374    8.0091 C   0  0  0  0  0  0  0  0  0  0  0  0
   55.7349    5.7436    7.9962 C   0  0  0  0  0  0  0  0  0  0  0  0
   54.6700    5.0315    8.5431 C   0  0  0  0  0  0  0  0  0  0  0  0
   53.5885    5.7128    9.1033 C   0  0  0  0  0  0  0  0  0  0  0  0
   40.0247   10.2167   12.2084 H   0  0  0  0  0  0  0  0  0  0  0  0
   39.1203   12.3337   11.2849 H   0  0  0  0  0  0  0  0  0  0  0  0
   40.4316   13.6150    9.6127 H   0  0  0  0  0  0  0  0  0  0  0  0
   42.6321   12.7839    8.8588 H   0  0  0  0  0  0  0  0  0  0  0  0
   42.2229    9.3761   11.4749 H   0  0  0  0  0  0  0  0  0  0  0  0
   44.0317    9.4409    9.8773 H   0  0  0  0  0  0  0  0  0  0  0  0
   43.9830   10.5896    8.5626 H   0  0  0  0  0  0  0  0  0  0  0  0
   45.0138   12.3563   10.0219 H   0  0  0  0  0  0  0  0  0  0  0  0
   46.0353   10.9500    9.7692 H   0  0  0  0  0  0  0  0  0  0  0  0
   44.3567   11.4779   12.2942 H   0  0  0  0  0  0  0  0  0  0  0  0
   46.0774   11.7696   12.1385 H   0  0  0  0  0  0  0  0  0  0  0  0
   47.6536    7.5979   11.1754 H   0  0  0  0  0  0  0  0  0  0  0  0
   46.3201    7.3463   12.2924 H   0  0  0  0  0  0  0  0  0  0  0  0
   48.4420    6.9255   13.4915 H   0  0  0  0  0  0  0  0  0  0  0  0
   47.5275    9.7073   14.3706 H   0  0  0  0  0  0  0  0  0  0  0  0
   46.6541    8.1890   14.7823 H   0  0  0  0  0  0  0  0  0  0  0  0
   50.1104    9.4539   17.6616 H   0  0  0  0  0  0  0  0  0  0  0  0
   49.7319    7.7308   17.5967 H   0  0  0  0  0  0  0  0  0  0  0  0
   49.6050    8.6019   19.9083 H   0  0  0  0  0  0  0  0  0  0  0  0
   48.4224    9.8090   19.4294 H   0  0  0  0  0  0  0  0  0  0  0  0
   47.3390    7.9236   20.5812 H   0  0  0  0  0  0  0  0  0  0  0  0
   46.7307    8.0997   18.9553 H   0  0  0  0  0  0  0  0  0  0  0  0
   47.2214    3.8216   17.1260 H   0  0  0  0  0  0  0  0  0  0  0  0
   46.6447    6.1805   17.5589 H   0  0  0  0  0  0  0  0  0  0  0  0
   49.3504    6.2058   20.9236 H   0  0  0  0  0  0  0  0  0  0  0  0
   49.9125    3.8438   20.4743 H   0  0  0  0  0  0  0  0  0  0  0  0
   48.8545    2.6474   18.5775 H   0  0  0  0  0  0  0  0  0  0  0  0
   51.8561    9.2178   12.8810 H   0  0  0  0  0  0  0  0  0  0  0  0
   51.2017    9.7137   11.3014 H   0  0  0  0  0  0  0  0  0  0  0  0
   53.5688    8.7053   11.3437 H   0  0  0  0  0  0  0  0  0  0  0  0
   52.8424    7.1579   11.7606 H   0  0  0  0  0  0  0  0  0  0  0  0
   52.2438    8.7955    9.2215 H   0  0  0  0  0  0  0  0  0  0  0  0
   51.4860    7.2637    9.5993 H   0  0  0  0  0  0  0  0  0  0  0  0
   54.6435    8.9081    8.5765 H   0  0  0  0  0  0  0  0  0  0  0  0
   56.5525    7.6923    7.5865 H   0  0  0  0  0  0  0  0  0  0  0  0
   56.5779    5.2126    7.5617 H   0  0  0  0  0  0  0  0  0  0  0  0
   54.6814    3.9451    8.5368 H   0  0  0  0  0  0  0  0  0  0  0  0
   52.7666    5.1458    9.5341 H   0  0  0  0  0  0  0  0  0  0  0  0
  1  2  2  0
  1  6  1  0
  2  3  1  0
  3  4  2  0
  4  5  1  0
  5  6  2  0
  5  7  1  0
  7  8  1  0
  8  9  1  0
  9 10  1  0
 10 11  2  0
 10 12  1  0
 12 13  1  0
 13 14  1  0
 14 15  1  0
 15 16  1  0
 16 17  1  0
 17 18  2  0
 17 19  1  0
 19 20  1  0
 20 21  1  0
 21 22  1  0
 24 22  1  0
 22 25  2  0
 23 24  2  0
 23 27  1  0
 25 26  1  0
 26 27  2  0
 14 28  1  0
 28 29  1  0
 29 30  2  0
 29 31  1  0
 31 32  1  0
 32 33  1  0
 33 34  1  0
 39 34  1  0
 35 34  2  0
 35 36  1  0
 36 37  2  0
 37 38  1  0
 38 39  2  0
  1 40  1  0
  2 41  1  0
  3 42  1  0
  4 43  1  0
  6 44  1  0
  7 45  1  0
  7 46  1  0
  8 47  1  0
  8 48  1  0
  9 49  1  0
  9 50  1  0
 13 51  1  0
 13 52  1  0
 14 53  1  0
 15 54  1  0
 15 55  1  0
 19 56  1  0
 19 57  1  0
 20 58  1  0
 20 59  1  0
 21 60  1  0
 21 61  1  0
 23 62  1  0
 24 63  1  0
 25 64  1  0
 26 65  1  0
 27 66  1  0
 31 67  1  0
 31 68  1  0
 32 69  1  0
 32 70  1  0
 33 71  1  0
 33 72  1  0
 35 73  1  0
 36 74  1  0
 37 75  1  0
 38 76  1  0
 39 77  1  0
M  END
> <Uni-Dock RESULT> 
ENERGY=   -5.846  LOWER_BOUND=    0.000  UPPER_BOUND=    0.000
INTER + INTRA:          -5.846
INTER:                  -5.846
INTRA:                   0.000
UNBOUND:                 0.000

$$$$

     RDKit          3D

 77 79  0  0  0  0  0  0  0  0999 V2000
   50.7524   12.8854   22.6018 C   0  0  0  0  0  0  0  0  0  0  0  0
   50.5700   14.2656   22.6584 C   0  0  0  0  0  0  0  0  0  0  0  0
   49.6484   14.8798   21.8131 C   0  0  0  0  0  0  0  0  0  0  0  0
   48.9070   14.1123   20.9127 C   0  0  0  0  0  0  0  0  0  0  0  0
   49.0814   12.7229   20.8486 C   0  0  0  0  0  0  0  0  0  0  0  0
   50.0135   12.1166   21.7008 C   0  0  0  0  0  0  0  0  0  0  0  0
   48.2875   11.8962   19.8685 C   0  0  0  0  0  0  0  0  0  0  0  0
   48.7718   12.0326   18.4191 C   0  0  0  0  0  0  0  0  0  0  0  0
   50.1735   11.4770   18.1708 C   0  0  0  0  0  0  0  0  0  0  0  0
   50.2582    9.9924   18.4166 C   0  0  0  0  0  0  0  0  0  0  0  0
   50.9084    9.4772   19.3147 O   0  0  0  0  0  0  0  0  0  0  0  0
   49.5350    9.3106   17.4881 O   0  0  0  0  0  0  0  0  0  0  0  0
   49.5190    7.8741   17.6139 C   0  0  0  0  0  0  0  0  0  0  0  0
   50.4400    7.2124   16.5809 C   0  0  0  0  0  0  0  0  0  0  0  0
   51.8877    7.6998   16.6804 C   0  0  0  0  0  0  0  0  0  0  0  0
   52.6946    6.8873   15.8055 O   0  0  0  0  0  0  0  0  0  0  0  0
   53.9884    7.2917   15.6889 C   0  0  0  0  0  0  0  0  0  0  0  0
   54.4749    8.2605   16.2545 O   0  0  0  0  0  0  0  0  0  0  0  0
   54.7213    6.3901   14.7260 C   0  0  0  0  0  0  0  0  0  0  0  0
   56.2199    6.2948   15.0213 C   0  0  0  0  0  0  0  0  0  0  0  0
   56.5688    5.7528   16.4143 C   0  0  0  0  0  0  0  0  0  0  0  0
   55.9930    4.3887   16.7024 C   0  0  0  0  0  0  0  0  0  0  0  0
   54.4159    2.9813   17.8972 C   0  0  0  0  0  0  0  0  0  0  0  0
   54.9609    4.2395   17.6395 C   0  0  0  0  0  0  0  0  0  0  0  0
   56.4732    3.2541   16.0339 C   0  0  0  0  0  0  0  0  0  0  0  0
   55.9277    1.9961   16.2943 C   0  0  0  0  0  0  0  0  0  0  0  0
   54.8989    1.8604   17.2245 C   0  0  0  0  0  0  0  0  0  0  0  0
   49.9761    7.5257   15.2426 O   0  0  0  0  0  0  0  0  0  0  0  0
   48.9728    6.7404   14.7626 C   0  0  0  0  0  0  0  0  0  0  0  0
   48.4278    5.8429   15.3891 O   0  0  0  0  0  0  0  0  0  0  0  0
   48.6424    7.1560   13.3479 C   0  0  0  0  0  0  0  0  0  0  0  0
   47.6317    6.2323   12.6707 C   0  0  0  0  0  0  0  0  0  0  0  0
   46.2015    6.4508   13.1756 C   0  0  0  0  0  0  0  0  0  0  0  0
   45.2295    5.5310   12.4790 C   0  0  0  0  0  0  0  0  0  0  0  0
   44.6140    5.9181   11.2818 C   0  0  0  0  0  0  0  0  0  0  0  0
   43.7359    5.0521   10.6280 C   0  0  0  0  0  0  0  0  0  0  0  0
   43.4688    3.7924   11.1619 C   0  0  0  0  0  0  0  0  0  0  0  0
   44.0799    3.3968   12.3494 C   0  0  0  0  0  0  0  0  0  0  0  0
   44.9586    4.2608   13.0044 C   0  0  0  0  0  0  0  0  0  0  0  0
   51.4735   12.4050   23.2577 H   0  0  0  0  0  0  0  0  0  0  0  0
   51.1471   14.8616   23.3604 H   0  0  0  0  0  0  0  0  0  0  0  0
   49.5058   15.9566   21.8555 H   0  0  0  0  0  0  0  0  0  0  0  0
   48.1898   14.6054   20.2604 H   0  0  0  0  0  0  0  0  0  0  0  0
   50.1760   11.0412   21.6661 H   0  0  0  0  0  0  0  0  0  0  0  0
   48.2875   10.8431   20.1752 H   0  0  0  0  0  0  0  0  0  0  0  0
   47.2384   12.2163   19.9220 H   0  0  0  0  0  0  0  0  0  0  0  0
   48.7566   13.0879   18.1195 H   0  0  0  0  0  0  0  0  0  0  0  0
   48.0552   11.5165   17.7678 H   0  0  0  0  0  0  0  0  0  0  0  0
   50.9178   11.9773   18.7999 H   0  0  0  0  0  0  0  0  0  0  0  0
   50.4765   11.6649   17.1333 H   0  0  0  0  0  0  0  0  0  0  0  0
   48.4809    7.5736   17.4416 H   0  0  0  0  0  0  0  0  0  0  0  0
   49.7778    7.5506   18.6277 H   0  0  0  0  0  0  0  0  0  0  0  0
   50.4324    6.1229   16.7169 H   0  0  0  0  0  0  0  0  0  0  0  0
   51.9639    8.7448   16.3593 H   0  0  0  0  0  0  0  0  0  0  0  0
   52.2609    7.5864   17.7037 H   0  0  0  0  0  0  0  0  0  0  0  0
   54.5712    6.7952   13.7196 H   0  0  0  0  0  0  0  0  0  0  0  0
   54.2734    5.3916   14.7479 H   0  0  0  0  0  0  0  0  0  0  0  0
   56.6821    5.6608   14.2542 H   0  0  0  0  0  0  0  0  0  0  0  0
   56.6752    7.2877   14.9159 H   0  0  0  0  0  0  0  0  0  0  0  0
   57.6607    5.6932   16.5101 H   0  0  0  0  0  0  0  0  0  0  0  0
   56.2483    6.4642   17.1848 H   0  0  0  0  0  0  0  0  0  0  0  0
   53.6163    2.8746   18.6260 H   0  0  0  0  0  0  0  0  0  0  0  0
   54.5743    5.1029   18.1775 H   0  0  0  0  0  0  0  0  0  0  0  0
   57.2783    3.3431   15.3080 H   0  0  0  0  0  0  0  0  0  0  0  0
   56.3069    1.1212   15.7729 H   0  0  0  0  0  0  0  0  0  0  0  0
   54.4758    0.8803   17.4274 H   0  0  0  0  0  0  0  0  0  0  0  0
   49.5756    7.1220   12.7734 H   0  0  0  0  0  0  0  0  0  0  0  0
   48.2748    8.1867   13.3595 H   0  0  0  0  0  0  0  0  0  0  0  0
   47.6603    6.4227   11.5895 H   0  0  0  0  0  0  0  0  0  0  0  0
   47.9277    5.1845   12.8107 H   0  0  0  0  0  0  0  0  0  0  0  0
   45.8977    7.4924   13.0096 H   0  0  0  0  0  0  0  0  0  0  0  0
   46.1365    6.2889   14.2578 H   0  0  0  0  0  0  0  0  0  0  0  0
   44.8170    6.8952   10.8502 H   0  0  0  0  0  0  0  0  0  0  0  0
   43.2625    5.3584    9.6994 H   0  0  0  0  0  0  0  0  0  0  0  0
   42.7861    3.1185   10.6511 H   0  0  0  0  0  0  0  0  0  0  0  0
   43.8754    2.4142   12.7655 H   0  0  0  0  0  0  0  0  0  0  0  0
   45.4354    3.9376   13.9268 H   0  0  0  0  0  0  0  0  0  0  0  0
  1  2  2  0
  1  6  1  0
  2  3  1  0
  3  4  2  0
  4  5  1  0
  5  6  2  0
  5  7  1  0
  7  8  1  0
  8  9  1  0
  9 10  1  0
 10 11  2  0
 10 12  1  0
 12 13  1  0
 13 14  1  0
 14 15  1  0
 15 16  1  0
 16 17  1  0
 17 18  2  0
 17 19  1  0
 19 20  1  0
 20 21  1  0
 21 22  1  0
 24 22  1  0
 22 25  2  0
 23 24  2  0
 23 27  1  0
 25 26  1  0
 26 27  2  0
 14 28  1  0
 28 29  1  0
 29 30  2  0
 29 31  1  0
 31 32  1  0
 32 33  1  0
 33 34  1  0
 39 34  1  0
 35 34  2  0
 35 36  1  0
 36 37  2  0
 37 38  1  0
 38 39  2  0
  1 40  1  0
  2 41  1  0
  3 42  1  0
  4 43  1  0
  6 44  1  0
  7 45  1  0
  7 46  1  0
  8 47  1  0
  8 48  1  0
  9 49  1  0
  9 50  1  0
 13 51  1  0
 13 52  1  0
 14 53  1  0
 15 54  1  0
 15 55  1  0
 19 56  1  0
 19 57  1  0
 20 58  1  0
 20 59  1  0
 21 60  1  0
 21 61  1  0
 23 62  1  0
 24 63  1  0
 25 64  1  0
 26 65  1  0
 27 66  1  0
 31 67  1  0
 31 68  1  0
 32 69  1  0
 32 70  1  0
 33 71  1  0
 33 72  1  0
 35 73  1  0
 36 74  1  0
 37 75  1  0
 38 76  1  0
 39 77  1  0
M  END
> <Uni-Dock RESULT> 
ENERGY=   -4.995  LOWER_BOUND=    4.753  UPPER_BOUND=    9.228
INTER + INTRA:          -4.995
INTER:                  -4.995
INTRA:                   0.000
UNBOUND:                 0.000

$$$$

     RDKit          3D

 77 79  0  0  0  0  0  0  0  0999 V2000
   50.9283   13.6105   21.9252 C   0  0  0  0  0  0  0  0  0  0  0  0
   50.7674   14.9937   21.8769 C   0  0  0  0  0  0  0  0  0  0  0  0
   49.8486   15.5558   20.9932 C   0  0  0  0  0  0  0  0  0  0  0  0
   49.0885   14.7333   20.1594 C   0  0  0  0  0  0  0  0  0  0  0  0
   49.2412   13.3405   20.2010 C   0  0  0  0  0  0  0  0  0  0  0  0
   50.1707   12.7866   21.0909 C   0  0  0  0  0  0  0  0  0  0  0  0
   48.4270   12.4538   19.2926 C   0  0  0  0  0  0  0  0  0  0  0  0
   48.9018   12.4709   17.8338 C   0  0  0  0  0  0  0  0  0  0  0  0
   50.2928   11.8758   17.6194 C   0  0  0  0  0  0  0  0  0  0  0  0
   50.3569   10.4133   17.9779 C   0  0  0  0  0  0  0  0  0  0  0  0
   51.0062    9.9583   18.9085 O   0  0  0  0  0  0  0  0  0  0  0  0
   49.6159    9.6739   17.1095 O   0  0  0  0  0  0  0  0  0  0  0  0
   49.5790    8.2516   17.3453 C   0  0  0  0  0  0  0  0  0  0  0  0
   50.4816    7.4982   16.3600 C   0  0  0  0  0  0  0  0  0  0  0  0
   51.9373    7.9688   16.4120 C   0  0  0  0  0  0  0  0  0  0  0  0
   52.7248    7.0790   15.5967 O   0  0  0  0  0  0  0  0  0  0  0  0
   54.0236    7.4527   15.4406 C   0  0  0  0  0  0  0  0  0  0  0  0
   54.5293    8.4542   15.9268 O   0  0  0  0  0  0  0  0  0  0  0  0
   54.7351    6.4685   14.5448 C   0  0  0  0  0  0  0  0  0  0  0  0
   56.2343    6.3724   14.8365 C   0  0  0  0  0  0  0  0  0  0  0  0
   56.5859    5.9333   16.2646 C   0  0  0  0  0  0  0  0  0  0  0  0
   55.9917    4.6046   16.6604 C   0  0  0  0  0  0  0  0  0  0  0  0
   54.4028    3.3181   17.9704 C   0  0  0  0  0  0  0  0  0  0  0  0
   54.9649    4.5441   17.6132 C   0  0  0  0  0  0  0  0  0  0  0  0
   56.4492    3.4147   16.0778 C   0  0  0  0  0  0  0  0  0  0  0  0
   55.8867    2.1891   16.4377 C   0  0  0  0  0  0  0  0  0  0  0  0
   54.8633    2.1414   17.3825 C   0  0  0  0  0  0  0  0  0  0  0  0
   50.0119    7.7153   15.0047 O   0  0  0  0  0  0  0  0  0  0  0  0
   48.9930    6.9114   14.5932 C   0  0  0  0  0  0  0  0  0  0  0  0
   48.4394    6.0733   15.2904 O   0  0  0  0  0  0  0  0  0  0  0  0
   48.6577    7.2225   13.1530 C   0  0  0  0  0  0  0  0  0  0  0  0
   47.6278    6.2658   12.5556 C   0  0  0  0  0  0  0  0  0  0  0  0
   46.2052    6.5449   13.0518 C   0  0  0  0  0  0  0  0  0  0  0  0
   45.2136    5.5899   12.4344 C   0  0  0  0  0  0  0  0  0  0  0  0
   44.5947    5.8937   11.2153 C   0  0  0  0  0  0  0  0  0  0  0  0
   43.6983    4.9941   10.6358 C   0  0  0  0  0  0  0  0  0  0  0  0
   43.4163    3.7835   11.2666 C   0  0  0  0  0  0  0  0  0  0  0  0
   44.0307    3.4705   12.4769 C   0  0  0  0  0  0  0  0  0  0  0  0
   44.9276    4.3681   13.0577 C   0  0  0  0  0  0  0  0  0  0  0  0
   51.6472   13.1704   22.6112 H   0  0  0  0  0  0  0  0  0  0  0  0
   51.3591   15.6326   22.5272 H   0  0  0  0  0  0  0  0  0  0  0  0
   49.7228   16.6347   20.9537 H   0  0  0  0  0  0  0  0  0  0  0  0
   48.3737   15.1863   19.4760 H   0  0  0  0  0  0  0  0  0  0  0  0
   50.3164   11.7093   21.1378 H   0  0  0  0  0  0  0  0  0  0  0  0
   48.4133   11.4274   19.6793 H   0  0  0  0  0  0  0  0  0  0  0  0
   47.3834   12.7935   19.3284 H   0  0  0  0  0  0  0  0  0  0  0  0
   48.9003   13.5002   17.4541 H   0  0  0  0  0  0  0  0  0  0  0  0
   48.1723   11.9178   17.2288 H   0  0  0  0  0  0  0  0  0  0  0  0
   51.0496   12.4111   18.2032 H   0  0  0  0  0  0  0  0  0  0  0  0
   50.5904   11.9788   16.5685 H   0  0  0  0  0  0  0  0  0  0  0  0
   48.5351    7.9553   17.2035 H   0  0  0  0  0  0  0  0  0  0  0  0
   49.8409    8.0027   18.3791 H   0  0  0  0  0  0  0  0  0  0  0  0
   50.4585    6.4226   16.5793 H   0  0  0  0  0  0  0  0  0  0  0  0
   52.0269    8.9848   16.0110 H   0  0  0  0  0  0  0  0  0  0  0  0
   52.3169    7.9284   17.4384 H   0  0  0  0  0  0  0  0  0  0  0  0
   54.5832    6.7976   13.5113 H   0  0  0  0  0  0  0  0  0  0  0  0
   54.2721    5.4818   14.6464 H   0  0  0  0  0  0  0  0  0  0  0  0
   56.6807    5.6742   14.1172 H   0  0  0  0  0  0  0  0  0  0  0  0
   56.7038    7.3470   14.6521 H   0  0  0  0  0  0  0  0  0  0  0  0
   57.6775    5.8640   16.3573 H   0  0  0  0  0  0  0  0  0  0  0  0
   56.2824    6.7067   16.9804 H   0  0  0  0  0  0  0  0  0  0  0  0
   53.6075    3.2803   18.7106 H   0  0  0  0  0  0  0  0  0  0  0  0
   54.5958    5.4522   18.0859 H   0  0  0  0  0  0  0  0  0  0  0  0
   57.2498    3.4350   15.3418 H   0  0  0  0  0  0  0  0  0  0  0  0
   56.2483    1.2710   15.9825 H   0  0  0  0  0  0  0  0  0  0  0  0
   54.4269    1.1866   17.6629 H   0  0  0  0  0  0  0  0  0  0  0  0
   49.5858    7.1298   12.5766 H   0  0  0  0  0  0  0  0  0  0  0  0
   48.3060    8.2568   13.0879 H   0  0  0  0  0  0  0  0  0  0  0  0
   47.6507    6.3722   11.4628 H   0  0  0  0  0  0  0  0  0  0  0  0
   47.9088    5.2272   12.7736 H   0  0  0  0  0  0  0  0  0  0  0  0
   45.9159    7.5754   12.8084 H   0  0  0  0  0  0  0  0  0  0  0  0
   46.1462    6.4675   14.1436 H   0  0  0  0  0  0  0  0  0  0  0  0
   44.8092    6.8315   10.7085 H   0  0  0  0  0  0  0  0  0  0  0  0
   43.2223    5.2359    9.6897 H   0  0  0  0  0  0  0  0  0  0  0  0
   42.7193    3.0833   10.8137 H   0  0  0  0  0  0  0  0  0  0  0  0
   43.8145    2.5261   12.9686 H   0  0  0  0  0  0  0  0  0  0  0  0
   45.4068    4.1092   13.9989 H   0  0  0  0  0  0  0  0  0  0  0  0
  1  2  2  0
  1  6  1  0
  2  3  1  0
  3  4  2  0
  4  5  1  0
  5  6  2  0
  5  7  1  0
  7  8  1  0
  8  9  1  0
  9 10  1  0
 10 11  2  0
 10 12  1  0
 12 13  1  0
 13 14  1  0
 14 15  1  0
 15 16  1  0
 16 17  1  0
 17 18  2  0
 17 19  1  0
 19 20  1  0
 20 21  1  0
 21 22  1  0
 24 22  1  0
 22 25  2  0
 23 24  2  0
 23 27  1  0
 25 26  1  0
 26 27  2  0
 14 28  1  0
 28 29  1  0
 29 30  2  0
 29 31  1  0
 31 32  1  0
 32 33  1  0
 33 34  1  0
 39 34  1  0
 35 34  2  0
 35 36  1  0
 36 37  2  0
 37 38  1  0
 38 39  2  0
  1 40  1  0
  2 41  1  0
  3 42  1  0
  4 43  1  0
  6 44  1  0
  7 45  1  0
  7 46  1  0
  8 47  1  0
  8 48  1  0
  9 49  1  0
  9 50  1  0
 13 51  1  0
 13 52  1  0
 14 53  1  0
 15 54  1  0
 15 55  1  0
 19 56  1  0
 19 57  1  0
 20 58  1  0
 20 59  1  0
 21 60  1  0
 21 61  1  0
 23 62  1  0
 24 63  1  0
 25 64  1  0
 26 65  1  0
 27 66  1  0
 31 67  1  0
 31 68  1  0
 32 69  1  0
 32 70  1  0
 33 71  1  0
 33 72  1  0
 35 73  1  0
 36 74  1  0
 37 75  1  0
 38 76  1  0
 39 77  1  0
M  END
> <Uni-Dock RESULT> 
ENERGY=   -4.818  LOWER_BOUND=    4.789  UPPER_BOUND=    9.091
INTER + INTRA:          -4.818
INTER:                  -4.818
INTRA:                   0.000
UNBOUND:                 0.000

$$$$

     RDKit          3D

 77 79  0  0  0  0  0  0  0  0999 V2000
   44.8659    4.5597    9.1787 C   0  0  0  0  0  0  0  0  0  0  0  0
   44.4802    3.2217    9.1291 C   0  0  0  0  0  0  0  0  0  0  0  0
   44.2472    2.5216   10.3109 C   0  0  0  0  0  0  0  0  0  0  0  0
   44.3975    3.1614   11.5428 C   0  0  0  0  0  0  0  0  0  0  0  0
   44.7834    4.5076   11.6042 C   0  0  0  0  0  0  0  0  0  0  0  0
   45.0185    5.2005   10.4095 C   0  0  0  0  0  0  0  0  0  0  0  0
   44.9552    5.1947   12.9356 C   0  0  0  0  0  0  0  0  0  0  0  0
   46.2356    4.7851   13.6751 C   0  0  0  0  0  0  0  0  0  0  0  0
   47.5268    5.2135   12.9793 C   0  0  0  0  0  0  0  0  0  0  0  0
   47.6594    6.7115   12.8794 C   0  0  0  0  0  0  0  0  0  0  0  0
   47.6406    7.3379   11.8297 O   0  0  0  0  0  0  0  0  0  0  0  0
   47.8281    7.2612   14.1120 O   0  0  0  0  0  0  0  0  0  0  0  0
   47.9561    8.6967   14.1636 C   0  0  0  0  0  0  0  0  0  0  0  0
   49.4147    9.1203   14.3788 C   0  0  0  0  0  0  0  0  0  0  0  0
   50.3537    8.5801   13.2971 C   0  0  0  0  0  0  0  0  0  0  0  0
   51.6480    9.1853   13.4850 O   0  0  0  0  0  0  0  0  0  0  0  0
   52.6253    8.6980   12.6736 C   0  0  0  0  0  0  0  0  0  0  0  0
   52.4713    7.8162   11.8406 O   0  0  0  0  0  0  0  0  0  0  0  0
   53.9353    9.3796   12.9843 C   0  0  0  0  0  0  0  0  0  0  0  0
   54.8750    9.4437   11.7781 C   0  0  0  0  0  0  0  0  0  0  0  0
   54.3147   10.1978   10.5643 C   0  0  0  0  0  0  0  0  0  0  0  0
   53.9091   11.6201   10.8610 C   0  0  0  0  0  0  0  0  0  0  0  0
   52.1758   13.2949   11.1552 C   0  0  0  0  0  0  0  0  0  0  0  0
   52.5551   11.9836   10.8665 C   0  0  0  0  0  0  0  0  0  0  0  0
   54.8757   12.5952   11.1432 C   0  0  0  0  0  0  0  0  0  0  0  0
   54.4944   13.9067   11.4303 C   0  0  0  0  0  0  0  0  0  0  0  0
   53.1451   14.2557   11.4374 C   0  0  0  0  0  0  0  0  0  0  0  0
   49.8891    8.6066   15.6499 O   0  0  0  0  0  0  0  0  0  0  0  0
   49.5741    9.3504   16.7459 C   0  0  0  0  0  0  0  0  0  0  0  0
   48.9000   10.3703   16.7276 O   0  0  0  0  0  0  0  0  0  0  0  0
   50.1818    8.7159   17.9753 C   0  0  0  0  0  0  0  0  0  0  0  0
   50.0106    9.5621   19.2353 C   0  0  0  0  0  0  0  0  0  0  0  0
   48.5836    9.5110   19.7914 C   0  0  0  0  0  0  0  0  0  0  0  0
   48.4532   10.3480   21.0399 C   0  0  0  0  0  0  0  0  0  0  0  0
   48.7117    9.7944   22.3002 C   0  0  0  0  0  0  0  0  0  0  0  0
   48.6152   10.5808   23.4495 C   0  0  0  0  0  0  0  0  0  0  0  0
   48.2641   11.9260   23.3489 C   0  0  0  0  0  0  0  0  0  0  0  0
   48.0099   12.4868   22.0994 C   0  0  0  0  0  0  0  0  0  0  0  0
   48.1064   11.7025   20.9491 C   0  0  0  0  0  0  0  0  0  0  0  0
   45.0516    5.1064    8.2580 H   0  0  0  0  0  0  0  0  0  0  0  0
   44.3628    2.7252    8.1695 H   0  0  0  0  0  0  0  0  0  0  0  0
   43.9474    1.4774   10.2738 H   0  0  0  0  0  0  0  0  0  0  0  0
   44.2103    2.6026   12.4571 H   0  0  0  0  0  0  0  0  0  0  0  0
   45.3279    6.2436   10.4276 H   0  0  0  0  0  0  0  0  0  0  0  0
   44.9186    6.2834   12.8066 H   0  0  0  0  0  0  0  0  0  0  0  0
   44.0895    4.9455   13.5634 H   0  0  0  0  0  0  0  0  0  0  0  0
   46.2558    3.6963   13.8088 H   0  0  0  0  0  0  0  0  0  0  0  0
   46.2038    5.2191   14.6825 H   0  0  0  0  0  0  0  0  0  0  0  0
   47.5960    4.7896   11.9715 H   0  0  0  0  0  0  0  0  0  0  0  0
   48.3967    4.8338   13.5294 H   0  0  0  0  0  0  0  0  0  0  0  0
   47.3408    9.0183   15.0095 H   0  0  0  0  0  0  0  0  0  0  0  0
   47.5411    9.1754   13.2704 H   0  0  0  0  0  0  0  0  0  0  0  0
   49.4889   10.2156   14.3847 H   0  0  0  0  0  0  0  0  0  0  0  0
   50.4577    7.4929   13.3869 H   0  0  0  0  0  0  0  0  0  0  0  0
   49.9853    8.8477   12.3011 H   0  0  0  0  0  0  0  0  0  0  0  0
   54.4139    8.8160   13.7922 H   0  0  0  0  0  0  0  0  0  0  0  0
   53.7413   10.3897   13.3591 H   0  0  0  0  0  0  0  0  0  0  0  0
   55.8149    9.9104   12.0986 H   0  0  0  0  0  0  0  0  0  0  0  0
   55.1294    8.4244   11.4609 H   0  0  0  0  0  0  0  0  0  0  0  0
   55.0753   10.2143    9.7731 H   0  0  0  0  0  0  0  0  0  0  0  0
   53.4662    9.6479   10.1399 H   0  0  0  0  0  0  0  0  0  0  0  0
   51.1237   13.5682   11.1565 H   0  0  0  0  0  0  0  0  0  0  0  0
   51.7848   11.2477   10.6440 H   0  0  0  0  0  0  0  0  0  0  0  0
   55.9329   12.3394   11.1377 H   0  0  0  0  0  0  0  0  0  0  0  0
   55.2502   14.6571   11.6463 H   0  0  0  0  0  0  0  0  0  0  0  0
   52.8494   15.2773   11.6598 H   0  0  0  0  0  0  0  0  0  0  0  0
   51.2551    8.6003   17.7839 H   0  0  0  0  0  0  0  0  0  0  0  0
   49.7413    7.7238   18.1148 H   0  0  0  0  0  0  0  0  0  0  0  0
   50.7040    9.1872   19.9999 H   0  0  0  0  0  0  0  0  0  0  0  0
   50.3019   10.6010   19.0327 H   0  0  0  0  0  0  0  0  0  0  0  0
   48.3042    8.4742   20.0192 H   0  0  0  0  0  0  0  0  0  0  0  0
   47.8580    9.8600   19.0477 H   0  0  0  0  0  0  0  0  0  0  0  0
   48.9923    8.7480   22.3939 H   0  0  0  0  0  0  0  0  0  0  0  0
   48.8178   10.1451   24.4237 H   0  0  0  0  0  0  0  0  0  0  0  0
   48.1908   12.5377   24.2443 H   0  0  0  0  0  0  0  0  0  0  0  0
   47.7391   13.5358   22.0187 H   0  0  0  0  0  0  0  0  0  0  0  0
   47.9130   12.1534   19.9786 H   0  0  0  0  0  0  0  0  0  0  0  0
  1  2  2  0
  1  6  1  0
  2  3  1  0
  3  4  2  0
  4  5  1  0
  5  6  2  0
  5  7  1  0
  7  8  1  0
  8  9  1  0
  9 10  1  0
 10 11  2  0
 10 12  1  0
 12 13  1  0
 13 14  1  0
 14 15  1  0
 15 16  1  0
 16 17  1  0
 17 18  2  0
 17 19  1  0
 19 20  1  0
 20 21  1  0
 21 22  1  0
 24 22  1  0
 22 25  2  0
 23 24  2  0
 23 27  1  0
 25 26  1  0
 26 27  2  0
 14 28  1  0
 28 29  1  0
 29 30  2  0
 29 31  1  0
 31 32  1  0
 32 33  1  0
 33 34  1  0
 39 34  1  0
 35 34  2  0
 35 36  1  0
 36 37  2  0
 37 38  1  0
 38 39  2  0
  1 40  1  0
  2 41  1  0
  3 42  1  0
  4 43  1  0
  6 44  1  0
  7 45  1  0
  7 46  1  0
  8 47  1  0
  8 48  1  0
  9 49  1  0
  9 50  1  0
 13 51  1  0
 13 52  1  0
 14 53  1  0
 15 54  1  0
 15 55  1  0
 19 56  1  0
 19 57  1  0
 20 58  1  0
 20 59  1  0
 21 60  1  0
 21 61  1  0
 23 62  1  0
 24 63  1  0
 25 64  1  0
 26 65  1  0
 27 66  1  0
 31 67  1  0
 31 68  1  0
 32 69  1  0
 32 70  1  0
 33 71  1  0
 33 72  1  0
 35 73  1  0
 36 74  1  0
 37 75  1  0
 38 76  1  0
 39 77  1  0
M  END
> <Uni-Dock RESULT> 
ENERGY=   -4.550  LOWER_BOUND=    4.287  UPPER_BOUND=    9.855
INTER + INTRA:          -4.550
INTER:                  -4.550
INTRA:                   0.000
UNBOUND:                 0.000

$$$$

     RDKit          3D

 77 79  0  0  0  0  0  0  0  0999 V2000
   50.8946   16.3341   18.8184 C   0  0  0  0  0  0  0  0  0  0  0  0
   50.9825   17.5897   18.2207 C   0  0  0  0  0  0  0  0  0  0  0  0
   50.2990   17.8434   17.0334 C   0  0  0  0  0  0  0  0  0  0  0  0
   49.5249   16.8411   16.4455 C   0  0  0  0  0  0  0  0  0  0  0  0
   49.4281   15.5750   17.0392 C   0  0  0  0  0  0  0  0  0  0  0  0
   50.1226   15.3302   18.2309 C   0  0  0  0  0  0  0  0  0  0  0  0
   48.5999   14.4901   16.3978 C   0  0  0  0  0  0  0  0  0  0  0  0
   49.2585   13.8685   15.1593 C   0  0  0  0  0  0  0  0  0  0  0  0
   50.5418   13.0930   15.4534 C   0  0  0  0  0  0  0  0  0  0  0  0
   50.3047   11.9004   16.3439 C   0  0  0  0  0  0  0  0  0  0  0  0
   50.7375   11.7916   17.4821 O   0  0  0  0  0  0  0  0  0  0  0  0
   49.5682   10.9576   15.6968 O   0  0  0  0  0  0  0  0  0  0  0  0
   49.2557    9.7630   16.4418 C   0  0  0  0  0  0  0  0  0  0  0  0
   50.1365    8.5855   16.0049 C   0  0  0  0  0  0  0  0  0  0  0  0
   51.6319    8.8794   16.1492 C   0  0  0  0  0  0  0  0  0  0  0  0
   52.3544    7.6584   15.8962 O   0  0  0  0  0  0  0  0  0  0  0  0
   53.7073    7.7972   15.8590 C   0  0  0  0  0  0  0  0  0  0  0  0
   54.3097    8.8496   16.0161 O   0  0  0  0  0  0  0  0  0  0  0  0
   54.3499    6.4662   15.5544 C   0  0  0  0  0  0  0  0  0  0  0  0
   55.7584    6.3364   16.1386 C   0  0  0  0  0  0  0  0  0  0  0  0
   55.8378    6.4739   17.6653 C   0  0  0  0  0  0  0  0  0  0  0  0
   54.9763    5.4881   18.4145 C   0  0  0  0  0  0  0  0  0  0  0  0
   53.0308    5.0141   19.7879 C   0  0  0  0  0  0  0  0  0  0  0  0
   53.8380    5.9255   19.1064 C   0  0  0  0  0  0  0  0  0  0  0  0
   55.2942    4.1230   18.4235 C   0  0  0  0  0  0  0  0  0  0  0  0
   54.4863    3.2131   19.1071 C   0  0  0  0  0  0  0  0  0  0  0  0
   53.3546    3.6586   19.7877 C   0  0  0  0  0  0  0  0  0  0  0  0
   49.8939    8.2880   14.6059 O   0  0  0  0  0  0  0  0  0  0  0  0
   48.8147    7.5001   14.3446 C   0  0  0  0  0  0  0  0  0  0  0  0
   48.0379    7.0773   15.1888 O   0  0  0  0  0  0  0  0  0  0  0  0
   48.7308    7.2395   12.8585 C   0  0  0  0  0  0  0  0  0  0  0  0
   47.6390    6.2390   12.4845 C   0  0  0  0  0  0  0  0  0  0  0  0
   46.2331    6.8440   12.5594 C   0  0  0  0  0  0  0  0  0  0  0  0
   45.1817    5.8329   12.1740 C   0  0  0  0  0  0  0  0  0  0  0  0
   44.7905    5.6848   10.8373 C   0  0  0  0  0  0  0  0  0  0  0  0
   43.8365    4.7292   10.4831 C   0  0  0  0  0  0  0  0  0  0  0  0
   43.2693    3.9120   11.4596 C   0  0  0  0  0  0  0  0  0  0  0  0
   43.6557    4.0486   12.7909 C   0  0  0  0  0  0  0  0  0  0  0  0
   44.6096    5.0029   13.1470 C   0  0  0  0  0  0  0  0  0  0  0  0
   51.4299   16.1332   19.7425 H   0  0  0  0  0  0  0  0  0  0  0  0
   51.5847   18.3692   18.6799 H   0  0  0  0  0  0  0  0  0  0  0  0
   50.3676   18.8221   16.5654 H   0  0  0  0  0  0  0  0  0  0  0  0
   48.9953   17.0544   15.5196 H   0  0  0  0  0  0  0  0  0  0  0  0
   50.0728   14.3539   18.7088 H   0  0  0  0  0  0  0  0  0  0  0  0
   48.3585   13.7137   17.1341 H   0  0  0  0  0  0  0  0  0  0  0  0
   47.6351   14.9247   16.1042 H   0  0  0  0  0  0  0  0  0  0  0  0
   49.4846   14.6520   14.4254 H   0  0  0  0  0  0  0  0  0  0  0  0
   48.5305   13.2000   14.6826 H   0  0  0  0  0  0  0  0  0  0  0  0
   51.2961   13.7339   15.9229 H   0  0  0  0  0  0  0  0  0  0  0  0
   50.9884   12.7323   14.5185 H   0  0  0  0  0  0  0  0  0  0  0  0
   48.2042    9.5478   16.2280 H   0  0  0  0  0  0  0  0  0  0  0  0
   49.3323    9.9245   17.5222 H   0  0  0  0  0  0  0  0  0  0  0  0
   49.8994    7.6981   16.6063 H   0  0  0  0  0  0  0  0  0  0  0  0
   51.9474    9.6325   15.4183 H   0  0  0  0  0  0  0  0  0  0  0  0
   51.8602    9.2149   17.1663 H   0  0  0  0  0  0  0  0  0  0  0  0
   54.3945    6.3660   14.4647 H   0  0  0  0  0  0  0  0  0  0  0  0
   53.7143    5.6590   15.9324 H   0  0  0  0  0  0  0  0  0  0  0  0
   56.1683    5.3647   15.8356 H   0  0  0  0  0  0  0  0  0  0  0  0
   56.4092    7.0985   15.6915 H   0  0  0  0  0  0  0  0  0  0  0  0
   56.8791    6.3318   17.9820 H   0  0  0  0  0  0  0  0  0  0  0  0
   55.5807    7.4973   17.9637 H   0  0  0  0  0  0  0  0  0  0  0  0
   52.1505    5.3621   20.3224 H   0  0  0  0  0  0  0  0  0  0  0  0
   53.5723    6.9808   19.1212 H   0  0  0  0  0  0  0  0  0  0  0  0
   56.1762    3.7602   17.9003 H   0  0  0  0  0  0  0  0  0  0  0  0
   54.7408    2.1566   19.1105 H   0  0  0  0  0  0  0  0  0  0  0  0
   52.7270    2.9496   20.3206 H   0  0  0  0  0  0  0  0  0  0  0  0
   49.6966    6.8246   12.5468 H   0  0  0  0  0  0  0  0  0  0  0  0
   48.5745    8.1914   12.3416 H   0  0  0  0  0  0  0  0  0  0  0  0
   47.8236    5.8940   11.4584 H   0  0  0  0  0  0  0  0  0  0  0  0
   47.7054    5.3523   13.1283 H   0  0  0  0  0  0  0  0  0  0  0  0
   46.1606    7.7140   11.8941 H   0  0  0  0  0  0  0  0  0  0  0  0
   46.0184    7.2189   13.5668 H   0  0  0  0  0  0  0  0  0  0  0  0
   45.2284    6.3110   10.0637 H   0  0  0  0  0  0  0  0  0  0  0  0
   43.5382    4.6193    9.4444 H   0  0  0  0  0  0  0  0  0  0  0  0
   42.5277    3.1673   11.1825 H   0  0  0  0  0  0  0  0  0  0  0  0
   43.2169    3.4105   13.5530 H   0  0  0  0  0  0  0  0  0  0  0  0
   44.9087    5.0948   14.1885 H   0  0  0  0  0  0  0  0  0  0  0  0
  1  2  2  0
  1  6  1  0
  2  3  1  0
  3  4  2  0
  4  5  1  0
  5  6  2  0
  5  7  1  0
  7  8  1  0
  8  9  1  0
  9 10  1  0
 10 11  2  0
 10 12  1  0
 12 13  1  0
 13 14  1  0
 14 15  1  0
 15 16  1  0
 16 17  1  0
 17 18  2  0
 17 19  1  0
 19 20  1  0
 20 21  1  0
 21 22  1  0
 24 22  1  0
 22 25  2  0
 23 24  2  0
 23 27  1  0
 25 26  1  0
 26 27  2  0
 14 28  1  0
 28 29  1  0
 29 30  2  0
 29 31  1  0
 31 32  1  0
 32 33  1  0
 33 34  1  0
 39 34  1  0
 35 34  2  0
 35 36  1  0
 36 37  2  0
 37 38  1  0
 38 39  2  0
  1 40  1  0
  2 41  1  0
  3 42  1  0
  4 43  1  0
  6 44  1  0
  7 45  1  0
  7 46  1  0
  8 47  1  0
  8 48  1  0
  9 49  1  0
  9 50  1  0
 13 51  1  0
 13 52  1  0
 14 53  1  0
 15 54  1  0
 15 55  1  0
 19 56  1  0
 19 57  1  0
 20 58  1  0
 20 59  1  0
 21 60  1  0
 21 61  1  0
 23 62  1  0
 24 63  1  0
 25 64  1  0
 26 65  1  0
 27 66  1  0
 31 67  1  0
 31 68  1  0
 32 69  1  0
 32 70  1  0
 33 71  1  0
 33 72  1  0
 35 73  1  0
 36 74  1  0
 37 75  1  0
 38 76  1  0
 39 77  1  0
M  END
> <Uni-Dock RESULT> 
ENERGY=   -4.463  LOWER_BOUND=    5.029  UPPER_BOUND=    8.280
INTER + INTRA:          -4.463
INTER:                  -4.463
INTRA:                   0.000
UNBOUND:                 0.000

$$$$

     RDKit          3D

 77 79  0  0  0  0  0  0  0  0999 V2000
   54.3429   18.0838   12.9178 C   0  0  0  0  0  0  0  0  0  0  0  0
   55.1146   19.1407   13.3965 C   0  0  0  0  0  0  0  0  0  0  0  0
   55.4188   19.2196   14.7538 C   0  0  0  0  0  0  0  0  0  0  0  0
   54.9530   18.2392   15.6321 C   0  0  0  0  0  0  0  0  0  0  0  0
   54.1774   17.1708   15.1608 C   0  0  0  0  0  0  0  0  0  0  0  0
   53.8747   17.1037   13.7946 C   0  0  0  0  0  0  0  0  0  0  0  0
   53.6663   16.1181   16.1120 C   0  0  0  0  0  0  0  0  0  0  0  0
   52.4960   16.5952   16.9820 C   0  0  0  0  0  0  0  0  0  0  0  0
   51.2179   16.9008   16.2022 C   0  0  0  0  0  0  0  0  0  0  0  0
   50.6542   15.6825   15.5170 C   0  0  0  0  0  0  0  0  0  0  0  0
   50.5967   15.5368   14.3045 O   0  0  0  0  0  0  0  0  0  0  0  0
   50.1978   14.7858   16.4322 O   0  0  0  0  0  0  0  0  0  0  0  0
   49.6410   13.5620   15.9107 C   0  0  0  0  0  0  0  0  0  0  0  0
   48.1082   13.5748   15.9720 C   0  0  0  0  0  0  0  0  0  0  0  0
   47.4954   14.7566   15.2162 C   0  0  0  0  0  0  0  0  0  0  0  0
   46.0670   14.5702   15.1765 O   0  0  0  0  0  0  0  0  0  0  0  0
   45.3732   15.6146   14.6484 C   0  0  0  0  0  0  0  0  0  0  0  0
   45.8723   16.6504   14.2321 O   0  0  0  0  0  0  0  0  0  0  0  0
   43.8938   15.3198   14.6912 C   0  0  0  0  0  0  0  0  0  0  0  0
   43.1127   16.0259   13.5806 C   0  0  0  0  0  0  0  0  0  0  0  0
   43.5478   15.6607   12.1547 C   0  0  0  0  0  0  0  0  0  0  0  0
   43.4746   14.1849   11.8512 C   0  0  0  0  0  0  0  0  0  0  0  0
   44.5848   12.0699   11.4153 C   0  0  0  0  0  0  0  0  0  0  0  0
   44.6489   13.4381   11.6812 C   0  0  0  0  0  0  0  0  0  0  0  0
   42.2359   13.5377   11.7434 C   0  0  0  0  0  0  0  0  0  0  0  0
   42.1740   12.1693   11.4758 C   0  0  0  0  0  0  0  0  0  0  0  0
   43.3479   11.4360   11.3132 C   0  0  0  0  0  0  0  0  0  0  0  0
   47.6764   13.6822   17.3528 O   0  0  0  0  0  0  0  0  0  0  0  0
   47.6350   12.5162   18.0547 C   0  0  0  0  0  0  0  0  0  0  0  0
   47.9707   11.4251   17.6167 O   0  0  0  0  0  0  0  0  0  0  0  0
   47.1176   12.7867   19.4483 C   0  0  0  0  0  0  0  0  0  0  0  0
   46.8917   11.5146   20.2629 C   0  0  0  0  0  0  0  0  0  0  0  0
   48.2004   10.8926   20.7613 C   0  0  0  0  0  0  0  0  0  0  0  0
   47.9398    9.6457   21.5699 C   0  0  0  0  0  0  0  0  0  0  0  0
   47.7258    9.7235   22.9519 C   0  0  0  0  0  0  0  0  0  0  0  0
   47.4589    8.5694   23.6905 C   0  0  0  0  0  0  0  0  0  0  0  0
   47.3996    7.3303   23.0547 C   0  0  0  0  0  0  0  0  0  0  0  0
   47.6062    7.2437   21.6799 C   0  0  0  0  0  0  0  0  0  0  0  0
   47.8727    8.3963   20.9395 C   0  0  0  0  0  0  0  0  0  0  0  0
   54.1015   18.0225   11.8599 H   0  0  0  0  0  0  0  0  0  0  0  0
   55.4772   19.9025   12.7116 H   0  0  0  0  0  0  0  0  0  0  0  0
   56.0197   20.0441   15.1289 H   0  0  0  0  0  0  0  0  0  0  0  0
   55.2001   18.3130   16.6888 H   0  0  0  0  0  0  0  0  0  0  0  0
   53.2670   16.2906   13.4028 H   0  0  0  0  0  0  0  0  0  0  0  0
   53.3887   15.2122   15.5594 H   0  0  0  0  0  0  0  0  0  0  0  0
   54.4945   15.8183   16.7676 H   0  0  0  0  0  0  0  0  0  0  0  0
   52.7886   17.4942   17.5386 H   0  0  0  0  0  0  0  0  0  0  0  0
   52.2884   15.8218   17.7322 H   0  0  0  0  0  0  0  0  0  0  0  0
   51.3870   17.6775   15.4484 H   0  0  0  0  0  0  0  0  0  0  0  0
   50.4481   17.2946   16.8773 H   0  0  0  0  0  0  0  0  0  0  0  0
   50.0375   12.7629   16.5446 H   0  0  0  0  0  0  0  0  0  0  0  0
   49.9865   13.3584   14.8917 H   0  0  0  0  0  0  0  0  0  0  0  0
   47.7092   12.6463   15.5429 H   0  0  0  0  0  0  0  0  0  0  0  0
   47.7129   15.6977   15.7339 H   0  0  0  0  0  0  0  0  0  0  0  0
   47.8711   14.7904   14.1881 H   0  0  0  0  0  0  0  0  0  0  0  0
   43.5224   15.6499   15.6672 H   0  0  0  0  0  0  0  0  0  0  0  0
   43.7351   14.2386   14.6283 H   0  0  0  0  0  0  0  0  0  0  0  0
   42.0475   15.7962   13.7097 H   0  0  0  0  0  0  0  0  0  0  0  0
   43.2106   17.1122   13.7013 H   0  0  0  0  0  0  0  0  0  0  0  0
   42.9063   16.1918   11.4395 H   0  0  0  0  0  0  0  0  0  0  0  0
   44.5623   16.0314   11.9654 H   0  0  0  0  0  0  0  0  0  0  0  0
   45.5003   11.4987   11.2841 H   0  0  0  0  0  0  0  0  0  0  0  0
   45.6234   13.9172   11.7530 H   0  0  0  0  0  0  0  0  0  0  0  0
   41.3108   14.0969   11.8638 H   0  0  0  0  0  0  0  0  0  0  0  0
   41.2095   11.6754   11.3920 H   0  0  0  0  0  0  0  0  0  0  0  0
   43.2985   10.3709   11.1037 H   0  0  0  0  0  0  0  0  0  0  0  0
   46.1550   13.3010   19.3428 H   0  0  0  0  0  0  0  0  0  0  0  0
   47.8174   13.4536   19.9614 H   0  0  0  0  0  0  0  0  0  0  0  0
   46.2648   11.7658   21.1289 H   0  0  0  0  0  0  0  0  0  0  0  0
   46.3260   10.7842   19.6699 H   0  0  0  0  0  0  0  0  0  0  0  0
   48.7514   11.6153   21.3768 H   0  0  0  0  0  0  0  0  0  0  0  0
   48.8634   10.6455   19.9241 H   0  0  0  0  0  0  0  0  0  0  0  0
   47.7632   10.6837   23.4608 H   0  0  0  0  0  0  0  0  0  0  0  0
   47.2932    8.6371   24.7619 H   0  0  0  0  0  0  0  0  0  0  0  0
   47.1901    6.4327   23.6305 H   0  0  0  0  0  0  0  0  0  0  0  0
   47.5574    6.2792   21.1820 H   0  0  0  0  0  0  0  0  0  0  0  0
   48.0247    8.3168   19.8657 H   0  0  0  0  0  0  0  0  0  0  0  0
  1  2  2  0
  1  6  1  0
  2  3  1  0
  3  4  2  0
  4  5  1  0
  5  6  2  0
  5  7  1  0
  7  8  1  0
  8  9  1  0
  9 10  1  0
 10 11  2  0
 10 12  1  0
 12 13  1  0
 13 14  1  0
 14 15  1  0
 15 16  1  0
 16 17  1  0
 17 18  2  0
 17 19  1  0
 19 20  1  0
 20 21  1  0
 21 22  1  0
 24 22  1  0
 22 25  2  0
 23 24  2  0
 23 27  1  0
 25 26  1  0
 26 27  2  0
 14 28  1  0
 28 29  1  0
 29 30  2  0
 29 31  1  0
 31 32  1  0
 32 33  1  0
 33 34  1  0
 39 34  1  0
 35 34  2  0
 35 36  1  0
 36 37  2  0
 37 38  1  0
 38 39  2  0
  1 40  1  0
  2 41  1  0
  3 42  1  0
  4 43  1  0
  6 44  1  0
  7 45  1  0
  7 46  1  0
  8 47  1  0
  8 48  1  0
  9 49  1  0
  9 50  1  0
 13 51  1  0
 13 52  1  0
 14 53  1  0
 15 54  1  0
 15 55  1  0
 19 56  1  0
 19 57  1  0
 20 58  1  0
 20 59  1  0
 21 60  1  0
 21 61  1  0
 23 62  1  0
 24 63  1  0
 25 64  1  0
 26 65  1  0
 27 66  1  0
 31 67  1  0
 31 68  1  0
 32 69  1  0
 32 70  1  0
 33 71  1  0
 33 72  1  0
 35 73  1  0
 36 74  1  0
 37 75  1  0
 38 76  1  0
 39 77  1  0
M  END
> <Uni-Dock RESULT> 
ENERGY=   -4.458  LOWER_BOUND=    6.079  UPPER_BOUND=   11.901
INTER + INTRA:          -4.458
INTER:                  -4.458
INTRA:                   0.000
UNBOUND:                 0.000

$$$$

     RDKit          3D

 77 79  0  0  0  0  0  0  0  0999 V2000
   48.7203   16.7204    4.5508 C   0  0  0  0  0  0  0  0  0  0  0  0
   50.0558   16.9128    4.2030 C   0  0  0  0  0  0  0  0  0  0  0  0
   50.9789   15.8873    4.3967 C   0  0  0  0  0  0  0  0  0  0  0  0
   50.5649   14.6678    4.9361 C   0  0  0  0  0  0  0  0  0  0  0  0
   49.2235   14.4630    5.2878 C   0  0  0  0  0  0  0  0  0  0  0  0
   48.3050   15.5025    5.0920 C   0  0  0  0  0  0  0  0  0  0  0  0
   48.7796   13.1490    5.8798 C   0  0  0  0  0  0  0  0  0  0  0  0
   49.2007   12.9634    7.3434 C   0  0  0  0  0  0  0  0  0  0  0  0
   48.5373   13.9377    8.3158 C   0  0  0  0  0  0  0  0  0  0  0  0
   47.0407   13.7690    8.3714 C   0  0  0  0  0  0  0  0  0  0  0  0
   46.2367   14.6059    7.9866 O   0  0  0  0  0  0  0  0  0  0  0  0
   46.7134   12.5731    8.9305 O   0  0  0  0  0  0  0  0  0  0  0  0
   45.3061   12.2757    9.0341 C   0  0  0  0  0  0  0  0  0  0  0  0
   44.7994   12.4633   10.4698 C   0  0  0  0  0  0  0  0  0  0  0  0
   45.0451   13.8766   11.0042 C   0  0  0  0  0  0  0  0  0  0  0  0
   44.3704   13.9995   12.2717 O   0  0  0  0  0  0  0  0  0  0  0  0
   44.6106   15.1647   12.9316 C   0  0  0  0  0  0  0  0  0  0  0  0
   45.3349   16.0636   12.5283 O   0  0  0  0  0  0  0  0  0  0  0  0
   43.8822   15.1636   14.2532 C   0  0  0  0  0  0  0  0  0  0  0  0
   43.5136   16.5696   14.7321 C   0  0  0  0  0  0  0  0  0  0  0  0
   42.6033   17.3567   13.7793 C   0  0  0  0  0  0  0  0  0  0  0  0
   41.3020   16.6626   13.4628 C   0  0  0  0  0  0  0  0  0  0  0  0
   39.8728   15.4894   11.8891 C   0  0  0  0  0  0  0  0  0  0  0  0
   41.0693   16.1452   12.1807 C   0  0  0  0  0  0  0  0  0  0  0  0
   40.3121   16.5171   14.4445 C   0  0  0  0  0  0  0  0  0  0  0  0
   39.1152   15.8621   14.1502 C   0  0  0  0  0  0  0  0  0  0  0  0
   38.8966   15.3477   12.8736 C   0  0  0  0  0  0  0  0  0  0  0  0
   45.4925   11.5467   11.3552 O   0  0  0  0  0  0  0  0  0  0  0  0
   44.9938   10.2809   11.4084 C   0  0  0  0  0  0  0  0  0  0  0  0
   44.0528    9.8724   10.7429 O   0  0  0  0  0  0  0  0  0  0  0  0
   45.7855    9.4704   12.4081 C   0  0  0  0  0  0  0  0  0  0  0  0
   45.2036    8.0790   12.6493 C   0  0  0  0  0  0  0  0  0  0  0  0
   45.4843    7.1132   11.4931 C   0  0  0  0  0  0  0  0  0  0  0  0
   44.9056    5.7475   11.7690 C   0  0  0  0  0  0  0  0  0  0  0  0
   45.6553    4.7790   12.4484 C   0  0  0  0  0  0  0  0  0  0  0  0
   45.1049    3.5261   12.7242 C   0  0  0  0  0  0  0  0  0  0  0  0
   43.8013    3.2323   12.3276 C   0  0  0  0  0  0  0  0  0  0  0  0
   43.0462    4.1909   11.6558 C   0  0  0  0  0  0  0  0  0  0  0  0
   43.5944    5.4442   11.3795 C   0  0  0  0  0  0  0  0  0  0  0  0
   47.9996   17.5204    4.4038 H   0  0  0  0  0  0  0  0  0  0  0  0
   50.3764   17.8623    3.7824 H   0  0  0  0  0  0  0  0  0  0  0  0
   52.0212   16.0364    4.1268 H   0  0  0  0  0  0  0  0  0  0  0  0
   51.2964   13.8758    5.0797 H   0  0  0  0  0  0  0  0  0  0  0  0
   47.2593   15.3743    5.3645 H   0  0  0  0  0  0  0  0  0  0  0  0
   47.6935   13.0354    5.7760 H   0  0  0  0  0  0  0  0  0  0  0  0
   49.2167   12.3389    5.2810 H   0  0  0  0  0  0  0  0  0  0  0  0
   50.2892   13.0674    7.4334 H   0  0  0  0  0  0  0  0  0  0  0  0
   48.9634   11.9342    7.6410 H   0  0  0  0  0  0  0  0  0  0  0  0
   48.7612   14.9774    8.0531 H   0  0  0  0  0  0  0  0  0  0  0  0
   48.9314   13.7883    9.3287 H   0  0  0  0  0  0  0  0  0  0  0  0
   45.2018   11.2294    8.7306 H   0  0  0  0  0  0  0  0  0  0  0  0
   44.7110   12.8694    8.3322 H   0  0  0  0  0  0  0  0  0  0  0  0
   43.7215   12.2596   10.5154 H   0  0  0  0  0  0  0  0  0  0  0  0
   46.1165   14.0480   11.1583 H   0  0  0  0  0  0  0  0  0  0  0  0
   44.6338   14.6234   10.3168 H   0  0  0  0  0  0  0  0  0  0  0  0
   44.5389   14.6865   14.9884 H   0  0  0  0  0  0  0  0  0  0  0  0
   42.9797   14.5495   14.1721 H   0  0  0  0  0  0  0  0  0  0  0  0
   43.0307   16.4833   15.7136 H   0  0  0  0  0  0  0  0  0  0  0  0
   44.4302   17.1521   14.8897 H   0  0  0  0  0  0  0  0  0  0  0  0
   42.3735   18.3310   14.2298 H   0  0  0  0  0  0  0  0  0  0  0  0
   43.1403   17.5857   12.8510 H   0  0  0  0  0  0  0  0  0  0  0  0
   39.7004   15.0919   10.8921 H   0  0  0  0  0  0  0  0  0  0  0  0
   41.8183   16.2505   11.3983 H   0  0  0  0  0  0  0  0  0  0  0  0
   40.4661   16.9165   15.4443 H   0  0  0  0  0  0  0  0  0  0  0  0
   38.3521   15.7550   14.9165 H   0  0  0  0  0  0  0  0  0  0  0  0
   37.9640   14.8390   12.6452 H   0  0  0  0  0  0  0  0  0  0  0  0
   45.7668   10.0185   13.3576 H   0  0  0  0  0  0  0  0  0  0  0  0
   46.8220    9.4002   12.0638 H   0  0  0  0  0  0  0  0  0  0  0  0
   45.6483    7.6731   13.5677 H   0  0  0  0  0  0  0  0  0  0  0  0
   44.1232    8.1498   12.8308 H   0  0  0  0  0  0  0  0  0  0  0  0
   46.5661    7.0226   11.3312 H   0  0  0  0  0  0  0  0  0  0  0  0
   45.0717    7.4945   10.5519 H   0  0  0  0  0  0  0  0  0  0  0  0
   46.6715    4.9956   12.7692 H   0  0  0  0  0  0  0  0  0  0  0  0
   45.6919    2.7799   13.2522 H   0  0  0  0  0  0  0  0  0  0  0  0
   43.3733    2.2571   12.5443 H   0  0  0  0  0  0  0  0  0  0  0  0
   42.0289    3.9648   11.3486 H   0  0  0  0  0  0  0  0  0  0  0  0
   42.9924    6.1868   10.8612 H   0  0  0  0  0  0  0  0  0  0  0  0
  1  2  2  0
  1  6  1  0
  2  3  1  0
  3  4  2  0
  4  5  1  0
  5  6  2  0
  5  7  1  0
  7  8  1  0
  8  9  1  0
  9 10  1  0
 10 11  2  0
 10 12  1  0
 12 13  1  0
 13 14  1  0
 14 15  1  0
 15 16  1  0
 16 17  1  0
 17 18  2  0
 17 19  1  0
 19 20  1  0
 20 21  1  0
 21 22  1  0
 24 22  1  0
 22 25  2  0
 23 24  2  0
 23 27  1  0
 25 26  1  0
 26 27  2  0
 14 28  1  0
 28 29  1  0
 29 30  2  0
 29 31  1  0
 31 32  1  0
 32 33  1  0
 33 34  1  0
 39 34  1  0
 35 34  2  0
 35 36  1  0
 36 37  2  0
 37 38  1  0
 38 39  2  0
  1 40  1  0
  2 41  1  0
  3 42  1  0
  4 43  1  0
  6 44  1  0
  7 45  1  0
  7 46  1  0
  8 47  1  0
  8 48  1  0
  9 49  1  0
  9 50  1  0
 13 51  1  0
 13 52  1  0
 14 53  1  0
 15 54  1  0
 15 55  1  0
 19 56  1  0
 19 57  1  0
 20 58  1  0
 20 59  1  0
 21 60  1  0
 21 61  1  0
 23 62  1  0
 24 63  1  0
 25 64  1  0
 26 65  1  0
 27 66  1  0
 31 67  1  0
 31 68  1  0
 32 69  1  0
 32 70  1  0
 33 71  1  0
 33 72  1  0
 35 73  1  0
 36 74  1  0
 37 75  1  0
 38 76  1  0
 39 77  1  0
M  END
> <Uni-Dock RESULT> 
ENERGY=   -4.376  LOWER_BOUND=    5.874  UPPER_BOUND=   10.070
INTER + INTRA:          -4.376
INTER:                  -4.376
INTRA:                   0.000
UNBOUND:                 0.000

$$$$

     RDKit          3D

 77 79  0  0  0  0  0  0  0  0999 V2000
   49.7816    4.8101   20.8741 C   0  0  0  0  0  0  0  0  0  0  0  0
   49.5853    5.2301   22.1881 C   0  0  0  0  0  0  0  0  0  0  0  0
   48.6536    6.2279   22.4666 C   0  0  0  0  0  0  0  0  0  0  0  0
   47.9162    6.8037   21.4302 C   0  0  0  0  0  0  0  0  0  0  0  0
   48.1045    6.3874   20.1050 C   0  0  0  0  0  0  0  0  0  0  0  0
   49.0466    5.3860   19.8364 C   0  0  0  0  0  0  0  0  0  0  0  0
   47.3147    7.0173   18.9853 C   0  0  0  0  0  0  0  0  0  0  0  0
   47.7911    8.4289   18.6187 C   0  0  0  0  0  0  0  0  0  0  0  0
   49.1973    8.4819   18.0230 C   0  0  0  0  0  0  0  0  0  0  0  0
   49.2983    7.7412   16.7143 C   0  0  0  0  0  0  0  0  0  0  0  0
   49.9578    6.7257   16.5447 O   0  0  0  0  0  0  0  0  0  0  0  0
   48.5780    8.3729   15.7489 O   0  0  0  0  0  0  0  0  0  0  0  0
   48.5772    7.7606   14.4432 C   0  0  0  0  0  0  0  0  0  0  0  0
   49.5003    8.5102   13.4740 C   0  0  0  0  0  0  0  0  0  0  0  0
   50.9434    8.5956   13.9776 C   0  0  0  0  0  0  0  0  0  0  0  0
   51.7547    9.1439   12.9203 O   0  0  0  0  0  0  0  0  0  0  0  0
   53.0437    9.4025   13.2704 C   0  0  0  0  0  0  0  0  0  0  0  0
   53.5228    9.2083   14.3785 O   0  0  0  0  0  0  0  0  0  0  0  0
   53.7816   10.0023   12.0986 C   0  0  0  0  0  0  0  0  0  0  0  0
   55.2823    9.7038   12.1228 C   0  0  0  0  0  0  0  0  0  0  0  0
   55.6430    8.2121   12.0958 C   0  0  0  0  0  0  0  0  0  0  0  0
   55.0825    7.4681   10.9094 C   0  0  0  0  0  0  0  0  0  0  0  0
   53.5253    5.8499    9.9861 C   0  0  0  0  0  0  0  0  0  0  0  0
   54.0562    6.5289   11.0833 C   0  0  0  0  0  0  0  0  0  0  0  0
   55.5713    7.7093    9.6180 C   0  0  0  0  0  0  0  0  0  0  0  0
   55.0399    7.0280    8.5220 C   0  0  0  0  0  0  0  0  0  0  0  0
   54.0167    6.0999    8.7061 C   0  0  0  0  0  0  0  0  0  0  0  0
   49.0273    9.8710   13.3042 O   0  0  0  0  0  0  0  0  0  0  0  0
   48.0299   10.0439   12.3936 C   0  0  0  0  0  0  0  0  0  0  0  0
   47.4970    9.1428   11.7619 O   0  0  0  0  0  0  0  0  0  0  0  0
   47.6889   11.5126   12.2945 C   0  0  0  0  0  0  0  0  0  0  0  0
   46.6848   11.8230   11.1862 C   0  0  0  0  0  0  0  0  0  0  0  0
   45.2547   11.4130   11.5535 C   0  0  0  0  0  0  0  0  0  0  0  0
   44.2890   11.7433   10.4423 C   0  0  0  0  0  0  0  0  0  0  0  0
   43.6643   12.9958   10.3890 C   0  0  0  0  0  0  0  0  0  0  0  0
   42.7921   13.3051    9.3439 C   0  0  0  0  0  0  0  0  0  0  0  0
   42.5404   12.3686    8.3426 C   0  0  0  0  0  0  0  0  0  0  0  0
   43.1609   11.1221    8.3845 C   0  0  0  0  0  0  0  0  0  0  0  0
   44.0335   10.8110    9.4282 C   0  0  0  0  0  0  0  0  0  0  0  0
   50.5105    4.0345   20.6544 H   0  0  0  0  0  0  0  0  0  0  0  0
   50.1594    4.7803   22.9938 H   0  0  0  0  0  0  0  0  0  0  0  0
   48.5002    6.5573   23.4910 H   0  0  0  0  0  0  0  0  0  0  0  0
   47.1910    7.5802   21.6631 H   0  0  0  0  0  0  0  0  0  0  0  0
   49.2199    5.0500   18.8160 H   0  0  0  0  0  0  0  0  0  0  0  0
   47.3269    6.3671   18.1019 H   0  0  0  0  0  0  0  0  0  0  0  0
   46.2627    7.0691   19.2957 H   0  0  0  0  0  0  0  0  0  0  0  0
   47.7637    9.0730   19.5064 H   0  0  0  0  0  0  0  0  0  0  0  0
   47.0769    8.8575   17.9043 H   0  0  0  0  0  0  0  0  0  0  0  0
   49.9392    8.0690   18.7151 H   0  0  0  0  0  0  0  0  0  0  0  0
   49.4937    9.5230   17.8450 H   0  0  0  0  0  0  0  0  0  0  0  0
   47.5415    7.8111   14.0934 H   0  0  0  0  0  0  0  0  0  0  0  0
   48.8439    6.6995   14.4902 H   0  0  0  0  0  0  0  0  0  0  0  0
   49.5045    8.0078   12.4978 H   0  0  0  0  0  0  0  0  0  0  0  0
   51.0075    9.2571   14.8490 H   0  0  0  0  0  0  0  0  0  0  0  0
   51.3224    7.5986   14.2262 H   0  0  0  0  0  0  0  0  0  0  0  0
   53.6228   11.0854   12.1316 H   0  0  0  0  0  0  0  0  0  0  0  0
   53.3440    9.6349   11.1649 H   0  0  0  0  0  0  0  0  0  0  0  0
   55.7476   10.2096   11.2674 H   0  0  0  0  0  0  0  0  0  0  0  0
   55.7270   10.1478   13.0225 H   0  0  0  0  0  0  0  0  0  0  0  0
   56.7359    8.1101   12.0816 H   0  0  0  0  0  0  0  0  0  0  0  0
   55.3187    7.7308   13.0262 H   0  0  0  0  0  0  0  0  0  0  0  0
   52.7302    5.1228   10.1302 H   0  0  0  0  0  0  0  0  0  0  0  0
   53.6632    6.3176   12.0759 H   0  0  0  0  0  0  0  0  0  0  0  0
   56.3722    8.4278    9.4585 H   0  0  0  0  0  0  0  0  0  0  0  0
   55.4258    7.2196    7.5242 H   0  0  0  0  0  0  0  0  0  0  0  0
   53.6046    5.5691    7.8523 H   0  0  0  0  0  0  0  0  0  0  0  0
   48.6199   12.0476   12.0726 H   0  0  0  0  0  0  0  0  0  0  0  0
   47.3109   11.8533   13.2634 H   0  0  0  0  0  0  0  0  0  0  0  0
   46.7066   12.9039   10.9933 H   0  0  0  0  0  0  0  0  0  0  0  0
   46.9921   11.3336   10.2528 H   0  0  0  0  0  0  0  0  0  0  0  0
   44.9394   11.9247   12.4719 H   0  0  0  0  0  0  0  0  0  0  0  0
   45.1962   10.3407   11.7731 H   0  0  0  0  0  0  0  0  0  0  0  0
   43.8553   13.7387   11.1597 H   0  0  0  0  0  0  0  0  0  0  0  0
   42.3115   14.2787    9.3084 H   0  0  0  0  0  0  0  0  0  0  0  0
   41.8623   12.6111    7.5286 H   0  0  0  0  0  0  0  0  0  0  0  0
   42.9683   10.3920    7.6034 H   0  0  0  0  0  0  0  0  0  0  0  0
   44.5178    9.8375    9.4458 H   0  0  0  0  0  0  0  0  0  0  0  0
  1  2  2  0
  1  6  1  0
  2  3  1  0
  3  4  2  0
  4  5  1  0
  5  6  2  0
  5  7  1  0
  7  8  1  0
  8  9  1  0
  9 10  1  0
 10 11  2  0
 10 12  1  0
 12 13  1  0
 13 14  1  0
 14 15  1  0
 15 16  1  0
 16 17  1  0
 17 18  2  0
 17 19  1  0
 19 20  1  0
 20 21  1  0
 21 22  1  0
 24 22  1  0
 22 25  2  0
 23 24  2  0
 23 27  1  0
 25 26  1  0
 26 27  2  0
 14 28  1  0
 28 29  1  0
 29 30  2  0
 29 31  1  0
 31 32  1  0
 32 33  1  0
 33 34  1  0
 39 34  1  0
 35 34  2  0
 35 36  1  0
 36 37  2  0
 37 38  1  0
 38 39  2  0
  1 40  1  0
  2 41  1  0
  3 42  1  0
  4 43  1  0
  6 44  1  0
  7 45  1  0
  7 46  1  0
  8 47  1  0
  8 48  1  0
  9 49  1  0
  9 50  1  0
 13 51  1  0
 13 52  1  0
 14 53  1  0
 15 54  1  0
 15 55  1  0
 19 56  1  0
 19 57  1  0
 20 58  1  0
 20 59  1  0
 21 60  1  0
 21 61  1  0
 23 62  1  0
 24 63  1  0
 25 64  1  0
 26 65  1  0
 27 66  1  0
 31 67  1  0
 31 68  1  0
 32 69  1  0
 32 70  1  0
 33 71  1  0
 33 72  1  0
 35 73  1  0
 36 74  1  0
 37 75  1  0
 38 76  1  0
 39 77  1  0
M  END
> <Uni-Dock RESULT> 
ENERGY=   -4.229  LOWER_BOUND=    1.845  UPPER_BOUND=   10.001
INTER + INTRA:          -4.229
INTER:                  -4.229
INTRA:                   0.000
UNBOUND:                 0.000

$$$$

     RDKit          3D

 77 79  0  0  0  0  0  0  0  0999 V2000
   53.6354    6.1136    7.7062 C   0  0  0  0  0  0  0  0  0  0  0  0
   54.9783    6.3127    7.3924 C   0  0  0  0  0  0  0  0  0  0  0  0
   55.8816    6.6610    8.3943 C   0  0  0  0  0  0  0  0  0  0  0  0
   55.4414    6.8074    9.7113 C   0  0  0  0  0  0  0  0  0  0  0  0
   54.0931    6.6078   10.0382 C   0  0  0  0  0  0  0  0  0  0  0  0
   53.1932    6.2614    9.0220 C   0  0  0  0  0  0  0  0  0  0  0  0
   53.6170    6.7763   11.4592 C   0  0  0  0  0  0  0  0  0  0  0  0
   53.5162    8.2419   11.9015 C   0  0  0  0  0  0  0  0  0  0  0  0
   52.4513    9.0494   11.1604 C   0  0  0  0  0  0  0  0  0  0  0  0
   51.0583    8.5273   11.4023 C   0  0  0  0  0  0  0  0  0  0  0  0
   50.3535    8.0167   10.5438 O   0  0  0  0  0  0  0  0  0  0  0  0
   50.6893    8.7273   12.6961 O   0  0  0  0  0  0  0  0  0  0  0  0
   49.3767    8.2610   13.0695 C   0  0  0  0  0  0  0  0  0  0  0  0
   48.3817    9.4232   13.1813 C   0  0  0  0  0  0  0  0  0  0  0  0
   48.2677   10.2314   11.8862 C   0  0  0  0  0  0  0  0  0  0  0  0
   47.1825   11.1675   12.0369 O   0  0  0  0  0  0  0  0  0  0  0  0
   47.0467   12.0487   11.0093 C   0  0  0  0  0  0  0  0  0  0  0  0
   47.7629   12.0884   10.0191 O   0  0  0  0  0  0  0  0  0  0  0  0
   45.9061   12.9949   11.2942 C   0  0  0  0  0  0  0  0  0  0  0  0
   45.2410   13.5271   10.0228 C   0  0  0  0  0  0  0  0  0  0  0  0
   44.6418   12.4487    9.1094 C   0  0  0  0  0  0  0  0  0  0  0  0
   43.6186   11.5718    9.7872 C   0  0  0  0  0  0  0  0  0  0  0  0
   42.9696    9.4178   10.7009 C   0  0  0  0  0  0  0  0  0  0  0  0
   43.9083   10.2276   10.0607 C   0  0  0  0  0  0  0  0  0  0  0  0
   42.3698   12.0875   10.1605 C   0  0  0  0  0  0  0  0  0  0  0  0
   41.4316   11.2753   10.7995 C   0  0  0  0  0  0  0  0  0  0  0  0
   41.7322    9.9417   11.0704 C   0  0  0  0  0  0  0  0  0  0  0  0
   48.8168   10.3395   14.2183 O   0  0  0  0  0  0  0  0  0  0  0  0
   48.4733   10.0017   15.4918 C   0  0  0  0  0  0  0  0  0  0  0  0
   47.8762    8.9824   15.8071 O   0  0  0  0  0  0  0  0  0  0  0  0
   48.9484   11.0761   16.4422 C   0  0  0  0  0  0  0  0  0  0  0  0
   48.4754   10.8600   17.8784 C   0  0  0  0  0  0  0  0  0  0  0  0
   49.2478    9.7460   18.5929 C   0  0  0  0  0  0  0  0  0  0  0  0
   48.7629    9.5670   20.0103 C   0  0  0  0  0  0  0  0  0  0  0  0
   49.3285   10.3068   21.0565 C   0  0  0  0  0  0  0  0  0  0  0  0
   48.8575   10.1563   22.3620 C   0  0  0  0  0  0  0  0  0  0  0  0
   47.8162    9.2698   22.6320 C   0  0  0  0  0  0  0  0  0  0  0  0
   47.2441    8.5334   21.5972 C   0  0  0  0  0  0  0  0  0  0  0  0
   47.7131    8.6827   20.2913 C   0  0  0  0  0  0  0  0  0  0  0  0
   52.9287    5.8454    6.9254 H   0  0  0  0  0  0  0  0  0  0  0  0
   55.3196    6.1975    6.3670 H   0  0  0  0  0  0  0  0  0  0  0  0
   56.9293    6.8178    8.1508 H   0  0  0  0  0  0  0  0  0  0  0  0
   56.1585    7.0778   10.4832 H   0  0  0  0  0  0  0  0  0  0  0  0
   52.1392    6.1093    9.2456 H   0  0  0  0  0  0  0  0  0  0  0  0
   52.6557    6.2667   11.5987 H   0  0  0  0  0  0  0  0  0  0  0  0
   54.3224    6.2556   12.1203 H   0  0  0  0  0  0  0  0  0  0  0  0
   54.4856    8.7381   11.7687 H   0  0  0  0  0  0  0  0  0  0  0  0
   53.3042    8.2618   12.9780 H   0  0  0  0  0  0  0  0  0  0  0  0
   52.6375    9.0583   10.0809 H   0  0  0  0  0  0  0  0  0  0  0  0
   52.4793   10.0977   11.4825 H   0  0  0  0  0  0  0  0  0  0  0  0
   49.5010    7.7755   14.0424 H   0  0  0  0  0  0  0  0  0  0  0  0
   49.0041    7.4964   12.3797 H   0  0  0  0  0  0  0  0  0  0  0  0
   47.3856    9.0390   13.4372 H   0  0  0  0  0  0  0  0  0  0  0  0
   49.1914   10.7910   11.7003 H   0  0  0  0  0  0  0  0  0  0  0  0
   48.0440    9.5719   11.0411 H   0  0  0  0  0  0  0  0  0  0  0  0
   46.3117   13.8314   11.8732 H   0  0  0  0  0  0  0  0  0  0  0  0
   45.1625   12.4921   11.9207 H   0  0  0  0  0  0  0  0  0  0  0  0
   44.4573   14.2371   10.3157 H   0  0  0  0  0  0  0  0  0  0  0  0
   45.9744   14.1000    9.4412 H   0  0  0  0  0  0  0  0  0  0  0  0
   44.1632   12.9357    8.2500 H   0  0  0  0  0  0  0  0  0  0  0  0
   45.4414   11.8303    8.6844 H   0  0  0  0  0  0  0  0  0  0  0  0
   43.2023    8.3764   10.9084 H   0  0  0  0  0  0  0  0  0  0  0  0
   44.8676    9.8002    9.7753 H   0  0  0  0  0  0  0  0  0  0  0  0
   42.1188   13.1251    9.9524 H   0  0  0  0  0  0  0  0  0  0  0  0
   40.4651   11.6825   11.0841 H   0  0  0  0  0  0  0  0  0  0  0  0
   41.0006    9.3100   11.5668 H   0  0  0  0  0  0  0  0  0  0  0  0
   48.5380   12.0285   16.0864 H   0  0  0  0  0  0  0  0  0  0  0  0
   50.0408   11.1269   16.3999 H   0  0  0  0  0  0  0  0  0  0  0  0
   48.6117   11.7987   18.4318 H   0  0  0  0  0  0  0  0  0  0  0  0
   47.3992   10.6440   17.8911 H   0  0  0  0  0  0  0  0  0  0  0  0
   50.3207    9.9773   18.6033 H   0  0  0  0  0  0  0  0  0  0  0  0
   49.1520    8.7941   18.0578 H   0  0  0  0  0  0  0  0  0  0  0  0
   50.1374   11.0064   20.8604 H   0  0  0  0  0  0  0  0  0  0  0  0
   49.3004   10.7337   23.1685 H   0  0  0  0  0  0  0  0  0  0  0  0
   47.4493    9.1547   23.6485 H   0  0  0  0  0  0  0  0  0  0  0  0
   46.4303    7.8442   21.8052 H   0  0  0  0  0  0  0  0  0  0  0  0
   47.2532    8.1080   19.4908 H   0  0  0  0  0  0  0  0  0  0  0  0
  1  2  2  0
  1  6  1  0
  2  3  1  0
  3  4  2  0
  4  5  1  0
  5  6  2  0
  5  7  1  0
  7  8  1  0
  8  9  1  0
  9 10  1  0
 10 11  2  0
 10 12  1  0
 12 13  1  0
 13 14  1  0
 14 15  1  0
 15 16  1  0
 16 17  1  0
 17 18  2  0
 17 19  1  0
 19 20  1  0
 20 21  1  0
 21 22  1  0
 24 22  1  0
 22 25  2  0
 23 24  2  0
 23 27  1  0
 25 26  1  0
 26 27  2  0
 14 28  1  0
 28 29  1  0
 29 30  2  0
 29 31  1  0
 31 32  1  0
 32 33  1  0
 33 34  1  0
 39 34  1  0
 35 34  2  0
 35 36  1  0
 36 37  2  0
 37 38  1  0
 38 39  2  0
  1 40  1  0
  2 41  1  0
  3 42  1  0
  4 43  1  0
  6 44  1  0
  7 45  1  0
  7 46  1  0
  8 47  1  0
  8 48  1  0
  9 49  1  0
  9 50  1  0
 13 51  1  0
 13 52  1  0
 14 53  1  0
 15 54  1  0
 15 55  1  0
 19 56  1  0
 19 57  1  0
 20 58  1  0
 20 59  1  0
 21 60  1  0
 21 61  1  0
 23 62  1  0
 24 63  1  0
 25 64  1  0
 26 65  1  0
 27 66  1  0
 31 67  1  0
 31 68  1  0
 32 69  1  0
 32 70  1  0
 33 71  1  0
 33 72  1  0
 35 73  1  0
 36 74  1  0
 37 75  1  0
 38 76  1  0
 39 77  1  0
M  END
> <Uni-Dock RESULT> 
ENERGY=   -4.228  LOWER_BOUND=    2.147  UPPER_BOUND=   10.672
INTER + INTRA:          -4.228
INTER:                  -4.228
INTRA:                   0.000
UNBOUND:                 0.000

$$$$
