
     RDKit          3D

 77 79  0  0  0  0  0  0  0  0999 V2000
   53.9202    6.3345    7.2891 C   0  0  0  0  0  0  0  0  0  0  0  0
   55.2999    6.1724    7.1812 C   0  0  0  0  0  0  0  0  0  0  0  0
   56.1571    7.0465    7.8466 C   0  0  0  0  0  0  0  0  0  0  0  0
   55.6347    8.0835    8.6208 C   0  0  0  0  0  0  0  0  0  0  0  0
   54.2484    8.2569    8.7345 C   0  0  0  0  0  0  0  0  0  0  0  0
   53.3954    7.3716    8.0618 C   0  0  0  0  0  0  0  0  0  0  0  0
   53.6858    9.3702    9.5818 C   0  0  0  0  0  0  0  0  0  0  0  0
   53.7532    9.0870   11.0876 C   0  0  0  0  0  0  0  0  0  0  0  0
   52.8803    7.9197   11.5513 C   0  0  0  0  0  0  0  0  0  0  0  0
   51.4156    8.1063   11.2446 C   0  0  0  0  0  0  0  0  0  0  0  0
   50.7204    7.2777   10.6721 O   0  0  0  0  0  0  0  0  0  0  0  0
   50.9655    9.3013   11.7213 O   0  0  0  0  0  0  0  0  0  0  0  0
   49.5602    9.5362   11.5519 C   0  0  0  0  0  0  0  0  0  0  0  0
   48.7434    8.8837   12.6725 C   0  0  0  0  0  0  0  0  0  0  0  0
   49.0984    9.5190   14.0293 C   0  0  0  0  0  0  0  0  0  0  0  0
   48.5281    8.7785   15.1219 O   0  0  0  0  0  0  0  0  0  0  0  0
   49.1974    7.6321   15.4422 C   0  0  0  0  0  0  0  0  0  0  0  0
   50.2576    7.2841   14.9405 O   0  0  0  0  0  0  0  0  0  0  0  0
   48.4534    6.8902   16.5250 C   0  0  0  0  0  0  0  0  0  0  0  0
   48.8275    5.4075   16.5374 C   0  0  0  0  0  0  0  0  0  0  0  0
   47.9806    4.5871   17.5138 C   0  0  0  0  0  0  0  0  0  0  0  0
   48.2037    4.9526   18.9606 C   0  0  0  0  0  0  0  0  0  0  0  0
   49.6073    4.9456   20.9427 C   0  0  0  0  0  0  0  0  0  0  0  0
   49.3961    4.5997   19.6073 C   0  0  0  0  0  0  0  0  0  0  0  0
   47.2266    5.6570   19.6766 C   0  0  0  0  0  0  0  0  0  0  0  0
   47.4395    6.0024   21.0124 C   0  0  0  0  0  0  0  0  0  0  0  0
   48.6293    5.6474   21.6449 C   0  0  0  0  0  0  0  0  0  0  0  0
   47.3474    9.1260   12.3764 O   0  0  0  0  0  0  0  0  0  0  0  0
   46.4530    8.2098   12.8300 C   0  0  0  0  0  0  0  0  0  0  0  0
   46.7379    7.1937   13.4504 O   0  0  0  0  0  0  0  0  0  0  0  0
   45.0345    8.5534   12.4282 C   0  0  0  0  0  0  0  0  0  0  0  0
   44.7458   10.0473   12.2719 C   0  0  0  0  0  0  0  0  0  0  0  0
   45.0561   10.5600   10.8611 C   0  0  0  0  0  0  0  0  0  0  0  0
   44.8242   12.0464   10.7513 C   0  0  0  0  0  0  0  0  0  0  0  0
   45.8473   12.9478   11.0752 C   0  0  0  0  0  0  0  0  0  0  0  0
   45.6292   14.3239   10.9935 C   0  0  0  0  0  0  0  0  0  0  0  0
   44.3869   14.8105   10.5917 C   0  0  0  0  0  0  0  0  0  0  0  0
   43.3611   13.9225   10.2724 C   0  0  0  0  0  0  0  0  0  0  0  0
   43.5773   12.5460   10.3537 C   0  0  0  0  0  0  0  0  0  0  0  0
   53.2503    5.6505    6.7744 H   0  0  0  0  0  0  0  0  0  0  0  0
   55.7065    5.3633    6.5805 H   0  0  0  0  0  0  0  0  0  0  0  0
   57.2332    6.9196    7.7638 H   0  0  0  0  0  0  0  0  0  0  0  0
   56.3166    8.7570    9.1351 H   0  0  0  0  0  0  0  0  0  0  0  0
   52.3149    7.4765    8.1401 H   0  0  0  0  0  0  0  0  0  0  0  0
   54.2536   10.2853    9.3673 H   0  0  0  0  0  0  0  0  0  0  0  0
   52.6553    9.5910    9.2779 H   0  0  0  0  0  0  0  0  0  0  0  0
   54.7902    8.8847   11.3825 H   0  0  0  0  0  0  0  0  0  0  0  0
   53.4546    9.9983   11.6207 H   0  0  0  0  0  0  0  0  0  0  0  0
   53.2133    6.9851   11.0860 H   0  0  0  0  0  0  0  0  0  0  0  0
   52.9774    7.7847   12.6350 H   0  0  0  0  0  0  0  0  0  0  0  0
   49.4070   10.6222   11.5567 H   0  0  0  0  0  0  0  0  0  0  0  0
   49.2189    9.2006   10.5640 H   0  0  0  0  0  0  0  0  0  0  0  0
   48.9419    7.8062   12.6833 H   0  0  0  0  0  0  0  0  0  0  0  0
   50.1805    9.6151   14.1772 H   0  0  0  0  0  0  0  0  0  0  0  0
   48.6730   10.5272   14.0907 H   0  0  0  0  0  0  0  0  0  0  0  0
   48.6926    7.3667   17.4811 H   0  0  0  0  0  0  0  0  0  0  0  0
   47.3774    6.9890   16.3402 H   0  0  0  0  0  0  0  0  0  0  0  0
   48.6889    4.9944   15.5298 H   0  0  0  0  0  0  0  0  0  0  0  0
   49.8941    5.2972   16.7704 H   0  0  0  0  0  0  0  0  0  0  0  0
   48.2155    3.5224   17.3875 H   0  0  0  0  0  0  0  0  0  0  0  0
   46.9183    4.6888   17.2580 H   0  0  0  0  0  0  0  0  0  0  0  0
   50.5353    4.6669   21.4349 H   0  0  0  0  0  0  0  0  0  0  0  0
   50.1682    4.0516   19.0720 H   0  0  0  0  0  0  0  0  0  0  0  0
   46.2927    5.9431   19.1981 H   0  0  0  0  0  0  0  0  0  0  0  0
   46.6762    6.5486   21.5599 H   0  0  0  0  0  0  0  0  0  0  0  0
   48.7930    5.9162   22.6850 H   0  0  0  0  0  0  0  0  0  0  0  0
   44.3926    8.1745   13.2332 H   0  0  0  0  0  0  0  0  0  0  0  0
   44.7893    8.0023   11.5142 H   0  0  0  0  0  0  0  0  0  0  0  0
   43.6805   10.2176   12.4753 H   0  0  0  0  0  0  0  0  0  0  0  0
   45.2993   10.6241   13.0234 H   0  0  0  0  0  0  0  0  0  0  0  0
   44.4283   10.0381   10.1278 H   0  0  0  0  0  0  0  0  0  0  0  0
   46.0901   10.3392   10.5744 H   0  0  0  0  0  0  0  0  0  0  0  0
   46.8205   12.5820   11.3935 H   0  0  0  0  0  0  0  0  0  0  0  0
   46.4277   15.0168   11.2447 H   0  0  0  0  0  0  0  0  0  0  0  0
   44.2173   15.8822   10.5284 H   0  0  0  0  0  0  0  0  0  0  0  0
   42.3913   14.3023    9.9617 H   0  0  0  0  0  0  0  0  0  0  0  0
   42.7662   11.8653   10.1057 H   0  0  0  0  0  0  0  0  0  0  0  0
  1  2  2  0
  1  6  1  0
  2  3  1  0
  3  4  2  0
  4  5  1  0
  5  6  2  0
  5  7  1  0
  7  8  1  0
  8  9  1  0
  9 10  1  0
 10 11  2  0
 10 12  1  0
 12 13  1  0
 13 14  1  0
 14 15  1  0
 15 16  1  0
 16 17  1  0
 17 18  2  0
 17 19  1  0
 19 20  1  0
 20 21  1  0
 21 22  1  0
 24 22  1  0
 22 25  2  0
 23 24  2  0
 23 27  1  0
 25 26  1  0
 26 27  2  0
 14 28  1  0
 28 29  1  0
 29 30  2  0
 29 31  1  0
 31 32  1  0
 32 33  1  0
 33 34  1  0
 39 34  1  0
 35 34  2  0
 35 36  1  0
 36 37  2  0
 37 38  1  0
 38 39  2  0
  1 40  1  0
  2 41  1  0
  3 42  1  0
  4 43  1  0
  6 44  1  0
  7 45  1  0
  7 46  1  0
  8 47  1  0
  8 48  1  0
  9 49  1  0
  9 50  1  0
 13 51  1  0
 13 52  1  0
 14 53  1  0
 15 54  1  0
 15 55  1  0
 19 56  1  0
 19 57  1  0
 20 58  1  0
 20 59  1  0
 21 60  1  0
 21 61  1  0
 23 62  1  0
 24 63  1  0
 25 64  1  0
 26 65  1  0
 27 66  1  0
 31 67  1  0
 31 68  1  0
 32 69  1  0
 32 70  1  0
 33 71  1  0
 33 72  1  0
 35 73  1  0
 36 74  1  0
 37 75  1  0
 38 76  1  0
 39 77  1  0
M  END
> <Uni-Dock RESULT> 
ENERGY=   -4.852  LOWER_BOUND=    0.000  UPPER_BOUND=    0.000
INTER + INTRA:          -4.852
INTER:                  -4.852
INTRA:                   0.000
UNBOUND:                 0.000

$$$$

     RDKit          3D

 77 79  0  0  0  0  0  0  0  0999 V2000
   54.5417    7.1254    7.3990 C   0  0  0  0  0  0  0  0  0  0  0  0
   55.8744    7.4856    7.2103 C   0  0  0  0  0  0  0  0  0  0  0  0
   56.3637    8.6617    7.7752 C   0  0  0  0  0  0  0  0  0  0  0  0
   55.5202    9.4783    8.5297 C   0  0  0  0  0  0  0  0  0  0  0  0
   54.1774    9.1264    8.7240 C   0  0  0  0  0  0  0  0  0  0  0  0
   53.6958    7.9411    8.1521 C   0  0  0  0  0  0  0  0  0  0  0  0
   53.2708   10.0037    9.5501 C   0  0  0  0  0  0  0  0  0  0  0  0
   53.5024    9.8723   11.0605 C   0  0  0  0  0  0  0  0  0  0  0  0
   53.1560    8.4983   11.6364 C   0  0  0  0  0  0  0  0  0  0  0  0
   51.7184    8.0998   11.4161 C   0  0  0  0  0  0  0  0  0  0  0  0
   51.3654    7.0332   10.9311 O   0  0  0  0  0  0  0  0  0  0  0  0
   50.8696    9.0689   11.8616 O   0  0  0  0  0  0  0  0  0  0  0  0
   49.4743    8.7470   11.7719 C   0  0  0  0  0  0  0  0  0  0  0  0
   49.0121    7.9158   12.9736 C   0  0  0  0  0  0  0  0  0  0  0  0
   49.1559    8.7309   14.2719 C   0  0  0  0  0  0  0  0  0  0  0  0
   48.9539    7.9089   15.4341 O   0  0  0  0  0  0  0  0  0  0  0  0
   50.0198    7.1227   15.7665 C   0  0  0  0  0  0  0  0  0  0  0  0
   51.1112    7.1636   15.2150 O   0  0  0  0  0  0  0  0  0  0  0  0
   49.6572    6.2335   16.9301 C   0  0  0  0  0  0  0  0  0  0  0  0
   50.5648    5.0042   16.9911 C   0  0  0  0  0  0  0  0  0  0  0  0
   50.1323    3.9963   18.0593 C   0  0  0  0  0  0  0  0  0  0  0  0
   50.2600    4.5189   19.4690 C   0  0  0  0  0  0  0  0  0  0  0  0
   51.6424    5.1775   21.3543 C   0  0  0  0  0  0  0  0  0  0  0  0
   51.5229    4.6852   20.0539 C   0  0  0  0  0  0  0  0  0  0  0  0
   49.1195    4.8535   20.2111 C   0  0  0  0  0  0  0  0  0  0  0  0
   49.2407    5.3459   21.5118 C   0  0  0  0  0  0  0  0  0  0  0  0
   50.5014    5.5083   22.0828 C   0  0  0  0  0  0  0  0  0  0  0  0
   47.6172    7.5953   12.7568 O   0  0  0  0  0  0  0  0  0  0  0  0
   47.1556    6.4446   13.3116 C   0  0  0  0  0  0  0  0  0  0  0  0
   47.8292    5.6556   13.9615 O   0  0  0  0  0  0  0  0  0  0  0  0
   45.6974    6.2020   12.9858 C   0  0  0  0  0  0  0  0  0  0  0  0
   44.8586    7.4637   12.7754 C   0  0  0  0  0  0  0  0  0  0  0  0
   44.8932    7.9554   11.3239 C   0  0  0  0  0  0  0  0  0  0  0  0
   44.1119    9.2347   11.1565 C   0  0  0  0  0  0  0  0  0  0  0  0
   44.7302   10.4744   11.3690 C   0  0  0  0  0  0  0  0  0  0  0  0
   44.0044   11.6587   11.2341 C   0  0  0  0  0  0  0  0  0  0  0  0
   42.6549   11.6145   10.8899 C   0  0  0  0  0  0  0  0  0  0  0  0
   42.0292   10.3865   10.6815 C   0  0  0  0  0  0  0  0  0  0  0  0
   42.7534    9.2010   10.8162 C   0  0  0  0  0  0  0  0  0  0  0  0
   54.1599    6.2060    6.9628 H   0  0  0  0  0  0  0  0  0  0  0  0
   56.5318    6.8484    6.6251 H   0  0  0  0  0  0  0  0  0  0  0  0
   57.4034    8.9423    7.6294 H   0  0  0  0  0  0  0  0  0  0  0  0
   55.9172   10.3925    8.9652 H   0  0  0  0  0  0  0  0  0  0  0  0
   52.6602    7.6383    8.2947 H   0  0  0  0  0  0  0  0  0  0  0  0
   53.4407   11.0475    9.2547 H   0  0  0  0  0  0  0  0  0  0  0  0
   52.2218    9.7999    9.3029 H   0  0  0  0  0  0  0  0  0  0  0  0
   54.5500   10.0949   11.2974 H   0  0  0  0  0  0  0  0  0  0  0  0
   52.9034   10.6399   11.5663 H   0  0  0  0  0  0  0  0  0  0  0  0
   53.7985    7.7269   11.1971 H   0  0  0  0  0  0  0  0  0  0  0  0
   53.3417    8.4857   12.7168 H   0  0  0  0  0  0  0  0  0  0  0  0
   48.9218    9.6937   11.7333 H   0  0  0  0  0  0  0  0  0  0  0  0
   49.2448    8.2398   10.8259 H   0  0  0  0  0  0  0  0  0  0  0  0
   49.6038    6.9950   13.0245 H   0  0  0  0  0  0  0  0  0  0  0  0
   50.1263    9.2360   14.3447 H   0  0  0  0  0  0  0  0  0  0  0  0
   48.3836    9.5075   14.3110 H   0  0  0  0  0  0  0  0  0  0  0  0
   49.7376    6.8305   17.8442 H   0  0  0  0  0  0  0  0  0  0  0  0
   48.6173    5.9082   16.8105 H   0  0  0  0  0  0  0  0  0  0  0  0
   50.5513    4.4999   16.0161 H   0  0  0  0  0  0  0  0  0  0  0  0
   51.6024    5.3186   17.1599 H   0  0  0  0  0  0  0  0  0  0  0  0
   50.7472    3.0915   17.9706 H   0  0  0  0  0  0  0  0  0  0  0  0
   49.1010    3.6740   17.8680 H   0  0  0  0  0  0  0  0  0  0  0  0
   52.6263    5.3023   21.7986 H   0  0  0  0  0  0  0  0  0  0  0  0
   52.4222    4.4308   19.4974 H   0  0  0  0  0  0  0  0  0  0  0  0
   48.1279    4.7342   19.7805 H   0  0  0  0  0  0  0  0  0  0  0  0
   48.3509    5.6027   22.0800 H   0  0  0  0  0  0  0  0  0  0  0  0
   50.5940    5.8908   23.0957 H   0  0  0  0  0  0  0  0  0  0  0  0
   45.2803    5.6673   13.8483 H   0  0  0  0  0  0  0  0  0  0  0  0
   45.6414    5.5368   12.1178 H   0  0  0  0  0  0  0  0  0  0  0  0
   43.8174    7.2357   13.0385 H   0  0  0  0  0  0  0  0  0  0  0  0
   45.1832    8.2570   13.4603 H   0  0  0  0  0  0  0  0  0  0  0  0
   44.4800    7.1863   10.6593 H   0  0  0  0  0  0  0  0  0  0  0  0
   45.9212    8.1192   10.9823 H   0  0  0  0  0  0  0  0  0  0  0  0
   45.7817   10.5235   11.6414 H   0  0  0  0  0  0  0  0  0  0  0  0
   44.4910   12.6164   11.3989 H   0  0  0  0  0  0  0  0  0  0  0  0
   42.0900   12.5370   10.7852 H   0  0  0  0  0  0  0  0  0  0  0  0
   40.9759   10.3520   10.4158 H   0  0  0  0  0  0  0  0  0  0  0  0
   42.2507    8.2501   10.6548 H   0  0  0  0  0  0  0  0  0  0  0  0
  1  2  2  0
  1  6  1  0
  2  3  1  0
  3  4  2  0
  4  5  1  0
  5  6  2  0
  5  7  1  0
  7  8  1  0
  8  9  1  0
  9 10  1  0
 10 11  2  0
 10 12  1  0
 12 13  1  0
 13 14  1  0
 14 15  1  0
 15 16  1  0
 16 17  1  0
 17 18  2  0
 17 19  1  0
 19 20  1  0
 20 21  1  0
 21 22  1  0
 24 22  1  0
 22 25  2  0
 23 24  2  0
 23 27  1  0
 25 26  1  0
 26 27  2  0
 14 28  1  0
 28 29  1  0
 29 30  2  0
 29 31  1  0
 31 32  1  0
 32 33  1  0
 33 34  1  0
 39 34  1  0
 35 34  2  0
 35 36  1  0
 36 37  2  0
 37 38  1  0
 38 39  2  0
  1 40  1  0
  2 41  1  0
  3 42  1  0
  4 43  1  0
  6 44  1  0
  7 45  1  0
  7 46  1  0
  8 47  1  0
  8 48  1  0
  9 49  1  0
  9 50  1  0
 13 51  1  0
 13 52  1  0
 14 53  1  0
 15 54  1  0
 15 55  1  0
 19 56  1  0
 19 57  1  0
 20 58  1  0
 20 59  1  0
 21 60  1  0
 21 61  1  0
 23 62  1  0
 24 63  1  0
 25 64  1  0
 26 65  1  0
 27 66  1  0
 31 67  1  0
 31 68  1  0
 32 69  1  0
 32 70  1  0
 33 71  1  0
 33 72  1  0
 35 73  1  0
 36 74  1  0
 37 75  1  0
 38 76  1  0
 39 77  1  0
M  END
> <Uni-Dock RESULT> 
ENERGY=   -4.846  LOWER_BOUND=    1.425  UPPER_BOUND=    1.957
INTER + INTRA:          -4.846
INTER:                  -4.846
INTRA:                   0.000
UNBOUND:                 0.000

$$$$

     RDKit          3D

 77 79  0  0  0  0  0  0  0  0999 V2000
   49.2184   11.0088   20.8270 C   0  0  0  0  0  0  0  0  0  0  0  0
   49.5485   10.3104   21.9865 C   0  0  0  0  0  0  0  0  0  0  0  0
   49.1603    8.9799   22.1315 C   0  0  0  0  0  0  0  0  0  0  0  0
   48.4418    8.3470   21.1162 C   0  0  0  0  0  0  0  0  0  0  0  0
   48.1026    9.0409   19.9465 C   0  0  0  0  0  0  0  0  0  0  0  0
   48.4986   10.3783   19.8108 C   0  0  0  0  0  0  0  0  0  0  0  0
   47.3371    8.3515   18.8453 C   0  0  0  0  0  0  0  0  0  0  0  0
   48.1974    7.3986   18.0061 C   0  0  0  0  0  0  0  0  0  0  0  0
   49.2927    8.0877   17.1907 C   0  0  0  0  0  0  0  0  0  0  0  0
   48.7633    9.1107   16.2174 C   0  0  0  0  0  0  0  0  0  0  0  0
   49.1734   10.2607   16.1353 O   0  0  0  0  0  0  0  0  0  0  0  0
   47.7965    8.5725   15.4215 O   0  0  0  0  0  0  0  0  0  0  0  0
   47.2871    9.4459   14.4036 C   0  0  0  0  0  0  0  0  0  0  0  0
   48.1847    9.4433   13.1615 C   0  0  0  0  0  0  0  0  0  0  0  0
   48.2027    8.0435   12.5205 C   0  0  0  0  0  0  0  0  0  0  0  0
   49.2093    7.9459   11.4985 O   0  0  0  0  0  0  0  0  0  0  0  0
   50.4820    7.7875   11.9675 C   0  0  0  0  0  0  0  0  0  0  0  0
   50.7728    7.6275   13.1451 O   0  0  0  0  0  0  0  0  0  0  0  0
   51.4575    7.8028   10.8167 C   0  0  0  0  0  0  0  0  0  0  0  0
   52.8647    8.1706   11.2889 C   0  0  0  0  0  0  0  0  0  0  0  0
   53.8526    8.3529   10.1336 C   0  0  0  0  0  0  0  0  0  0  0  0
   54.1284    7.0816    9.3691 C   0  0  0  0  0  0  0  0  0  0  0  0
   55.1452    4.8797    9.2399 C   0  0  0  0  0  0  0  0  0  0  0  0
   54.8976    6.0598    9.9426 C   0  0  0  0  0  0  0  0  0  0  0  0
   53.6131    6.9000    8.0788 C   0  0  0  0  0  0  0  0  0  0  0  0
   53.8617    5.7189    7.3773 C   0  0  0  0  0  0  0  0  0  0  0  0
   54.6268    4.7091    7.9577 C   0  0  0  0  0  0  0  0  0  0  0  0
   47.6203   10.3946   12.2279 O   0  0  0  0  0  0  0  0  0  0  0  0
   48.4811   11.0014   11.3700 C   0  0  0  0  0  0  0  0  0  0  0  0
   49.6912   10.8187   11.3387 O   0  0  0  0  0  0  0  0  0  0  0  0
   47.7798   11.9972   10.4712 C   0  0  0  0  0  0  0  0  0  0  0  0
   46.3197   11.6711   10.1526 C   0  0  0  0  0  0  0  0  0  0  0  0
   45.3512   12.2364   11.1976 C   0  0  0  0  0  0  0  0  0  0  0  0
   43.9256   11.8470   10.8955 C   0  0  0  0  0  0  0  0  0  0  0  0
   43.4054   10.6377   11.3763 C   0  0  0  0  0  0  0  0  0  0  0  0
   42.0929   10.2659   11.0817 C   0  0  0  0  0  0  0  0  0  0  0  0
   41.2910   11.0965   10.3016 C   0  0  0  0  0  0  0  0  0  0  0  0
   41.8004   12.2988    9.8142 C   0  0  0  0  0  0  0  0  0  0  0  0
   43.1128   12.6723   10.1075 C   0  0  0  0  0  0  0  0  0  0  0  0
   49.5245   12.0452   20.7105 H   0  0  0  0  0  0  0  0  0  0  0  0
   50.1103   10.8024   22.7758 H   0  0  0  0  0  0  0  0  0  0  0  0
   49.4187    8.4345   23.0351 H   0  0  0  0  0  0  0  0  0  0  0  0
   48.1469    7.3078   21.2436 H   0  0  0  0  0  0  0  0  0  0  0  0
   48.2576   10.9385   18.9093 H   0  0  0  0  0  0  0  0  0  0  0  0
   46.5180    7.7804   19.3022 H   0  0  0  0  0  0  0  0  0  0  0  0
   46.8490    9.0949   18.2034 H   0  0  0  0  0  0  0  0  0  0  0  0
   48.6664    6.6499   18.6563 H   0  0  0  0  0  0  0  0  0  0  0  0
   47.5341    6.8454   17.3294 H   0  0  0  0  0  0  0  0  0  0  0  0
   50.0094    8.5832   17.8554 H   0  0  0  0  0  0  0  0  0  0  0  0
   49.8575    7.3444   16.6158 H   0  0  0  0  0  0  0  0  0  0  0  0
   46.2817    9.0937   14.1431 H   0  0  0  0  0  0  0  0  0  0  0  0
   47.1456   10.4638   14.7896 H   0  0  0  0  0  0  0  0  0  0  0  0
   49.1961    9.7539   13.4464 H   0  0  0  0  0  0  0  0  0  0  0  0
   48.3513    7.2461   13.2583 H   0  0  0  0  0  0  0  0  0  0  0  0
   47.2453    7.8496   12.0236 H   0  0  0  0  0  0  0  0  0  0  0  0
   51.4423    6.8112   10.3529 H   0  0  0  0  0  0  0  0  0  0  0  0
   51.1191    8.5422   10.0817 H   0  0  0  0  0  0  0  0  0  0  0  0
   52.8189    9.1103   11.8545 H   0  0  0  0  0  0  0  0  0  0  0  0
   53.2310    7.4087   11.9885 H   0  0  0  0  0  0  0  0  0  0  0  0
   54.8043    8.7297   10.5297 H   0  0  0  0  0  0  0  0  0  0  0  0
   53.4858    9.1312    9.4525 H   0  0  0  0  0  0  0  0  0  0  0  0
   55.7432    4.0938    9.6936 H   0  0  0  0  0  0  0  0  0  0  0  0
   55.3089    6.1791   10.9423 H   0  0  0  0  0  0  0  0  0  0  0  0
   53.0130    7.6772    7.6111 H   0  0  0  0  0  0  0  0  0  0  0  0
   53.4583    5.5866    6.3770 H   0  0  0  0  0  0  0  0  0  0  0  0
   54.8201    3.7908    7.4099 H   0  0  0  0  0  0  0  0  0  0  0  0
   48.3343   11.9922    9.5245 H   0  0  0  0  0  0  0  0  0  0  0  0
   47.8780   12.9940   10.9138 H   0  0  0  0  0  0  0  0  0  0  0  0
   46.0713   12.1101    9.1775 H   0  0  0  0  0  0  0  0  0  0  0  0
   46.1846   10.5874   10.0463 H   0  0  0  0  0  0  0  0  0  0  0  0
   45.4316   13.3303   11.2279 H   0  0  0  0  0  0  0  0  0  0  0  0
   45.6074   11.8938   12.2061 H   0  0  0  0  0  0  0  0  0  0  0  0
   44.0211    9.9783   11.9833 H   0  0  0  0  0  0  0  0  0  0  0  0
   41.6959    9.3274   11.4593 H   0  0  0  0  0  0  0  0  0  0  0  0
   40.2690   10.8064   10.0721 H   0  0  0  0  0  0  0  0  0  0  0  0
   41.1757   12.9452    9.2033 H   0  0  0  0  0  0  0  0  0  0  0  0
   43.4980   13.6113    9.7166 H   0  0  0  0  0  0  0  0  0  0  0  0
  1  2  2  0
  1  6  1  0
  2  3  1  0
  3  4  2  0
  4  5  1  0
  5  6  2  0
  5  7  1  0
  7  8  1  0
  8  9  1  0
  9 10  1  0
 10 11  2  0
 10 12  1  0
 12 13  1  0
 13 14  1  0
 14 15  1  0
 15 16  1  0
 16 17  1  0
 17 18  2  0
 17 19  1  0
 19 20  1  0
 20 21  1  0
 21 22  1  0
 24 22  1  0
 22 25  2  0
 23 24  2  0
 23 27  1  0
 25 26  1  0
 26 27  2  0
 14 28  1  0
 28 29  1  0
 29 30  2  0
 29 31  1  0
 31 32  1  0
 32 33  1  0
 33 34  1  0
 39 34  1  0
 35 34  2  0
 35 36  1  0
 36 37  2  0
 37 38  1  0
 38 39  2  0
  1 40  1  0
  2 41  1  0
  3 42  1  0
  4 43  1  0
  6 44  1  0
  7 45  1  0
  7 46  1  0
  8 47  1  0
  8 48  1  0
  9 49  1  0
  9 50  1  0
 13 51  1  0
 13 52  1  0
 14 53  1  0
 15 54  1  0
 15 55  1  0
 19 56  1  0
 19 57  1  0
 20 58  1  0
 20 59  1  0
 21 60  1  0
 21 61  1  0
 23 62  1  0
 24 63  1  0
 25 64  1  0
 26 65  1  0
 27 66  1  0
 31 67  1  0
 31 68  1  0
 32 69  1  0
 32 70  1  0
 33 71  1  0
 33 72  1  0
 35 73  1  0
 36 74  1  0
 37 75  1  0
 38 76  1  0
 39 77  1  0
M  END
> <Uni-Dock RESULT> 
ENERGY=   -4.664  LOWER_BOUND=    2.241  UPPER_BOUND=    8.912
INTER + INTRA:          -4.664
INTER:                  -4.664
INTRA:                   0.000
UNBOUND:                 0.000

$$$$

     RDKit          3D

 77 79  0  0  0  0  0  0  0  0999 V2000
   53.5984    5.4538    8.2076 C   0  0  0  0  0  0  0  0  0  0  0  0
   54.9734    5.2358    8.1492 C   0  0  0  0  0  0  0  0  0  0  0  0
   55.8552    6.2707    8.4541 C   0  0  0  0  0  0  0  0  0  0  0  0
   55.3623    7.5246    8.8180 C   0  0  0  0  0  0  0  0  0  0  0  0
   53.9810    7.7553    8.8779 C   0  0  0  0  0  0  0  0  0  0  0  0
   53.1030    6.7074    8.5700 C   0  0  0  0  0  0  0  0  0  0  0  0
   53.4503    9.1073    9.2835 C   0  0  0  0  0  0  0  0  0  0  0  0
   53.5392    9.3720   10.7916 C   0  0  0  0  0  0  0  0  0  0  0  0
   52.6564    8.4615   11.6466 C   0  0  0  0  0  0  0  0  0  0  0  0
   51.1897    8.5578   11.3094 C   0  0  0  0  0  0  0  0  0  0  0  0
   50.4721    7.5951   11.0737 O   0  0  0  0  0  0  0  0  0  0  0  0
   50.7664    9.8532   11.3384 O   0  0  0  0  0  0  0  0  0  0  0  0
   49.3622   10.0420   11.1119 C   0  0  0  0  0  0  0  0  0  0  0  0
   48.5548    9.8437   12.3992 C   0  0  0  0  0  0  0  0  0  0  0  0
   48.9427   10.9092   13.4407 C   0  0  0  0  0  0  0  0  0  0  0  0
   48.3800   10.6135   14.7303 O   0  0  0  0  0  0  0  0  0  0  0  0
   49.0368    9.6403   15.4275 C   0  0  0  0  0  0  0  0  0  0  0  0
   50.0827    9.1160   15.0697 O   0  0  0  0  0  0  0  0  0  0  0  0
   48.3001    9.3435   16.7103 C   0  0  0  0  0  0  0  0  0  0  0  0
   48.6515    7.9531   17.2412 C   0  0  0  0  0  0  0  0  0  0  0  0
   47.8088    7.5473   18.4533 C   0  0  0  0  0  0  0  0  0  0  0  0
   48.0624    8.3949   19.6755 C   0  0  0  0  0  0  0  0  0  0  0  0
   49.4995    9.0588   21.5176 C   0  0  0  0  0  0  0  0  0  0  0  0
   49.2601    8.2684   20.3925 C   0  0  0  0  0  0  0  0  0  0  0  0
   47.1088    9.3265   20.1071 C   0  0  0  0  0  0  0  0  0  0  0  0
   47.3498   10.1164   21.2327 C   0  0  0  0  0  0  0  0  0  0  0  0
   48.5447    9.9830   21.9371 C   0  0  0  0  0  0  0  0  0  0  0  0
   47.1578    9.9945   12.0515 O   0  0  0  0  0  0  0  0  0  0  0  0
   46.2572    9.3158   12.8087 C   0  0  0  0  0  0  0  0  0  0  0  0
   46.5370    8.5781   13.7448 O   0  0  0  0  0  0  0  0  0  0  0  0
   44.8376    9.5245   12.3266 C   0  0  0  0  0  0  0  0  0  0  0  0
   44.5694   10.8730   11.6562 C   0  0  0  0  0  0  0  0  0  0  0  0
   44.8632   10.8486   10.1519 C   0  0  0  0  0  0  0  0  0  0  0  0
   44.6526   12.2052    9.5271 C   0  0  0  0  0  0  0  0  0  0  0  0
   45.6949   13.1417    9.5011 C   0  0  0  0  0  0  0  0  0  0  0  0
   45.4966   14.4047    8.9413 C   0  0  0  0  0  0  0  0  0  0  0  0
   44.2554   14.7437    8.4067 C   0  0  0  0  0  0  0  0  0  0  0  0
   43.2106   13.8214    8.4323 C   0  0  0  0  0  0  0  0  0  0  0  0
   43.4069   12.5580    8.9920 C   0  0  0  0  0  0  0  0  0  0  0  0
   52.9093    4.6462    7.9745 H   0  0  0  0  0  0  0  0  0  0  0  0
   55.3571    4.2587    7.8685 H   0  0  0  0  0  0  0  0  0  0  0  0
   56.9276    6.1007    8.4100 H   0  0  0  0  0  0  0  0  0  0  0  0
   56.0633    8.3220    9.0542 H   0  0  0  0  0  0  0  0  0  0  0  0
   52.0258    6.8553    8.6177 H   0  0  0  0  0  0  0  0  0  0  0  0
   54.0284    9.8760    8.7539 H   0  0  0  0  0  0  0  0  0  0  0  0
   52.4183    9.2277    8.9322 H   0  0  0  0  0  0  0  0  0  0  0  0
   54.5778    9.2655   11.1279 H   0  0  0  0  0  0  0  0  0  0  0  0
   53.2639   10.4187   10.9718 H   0  0  0  0  0  0  0  0  0  0  0  0
   52.9669    7.4162   11.5377 H   0  0  0  0  0  0  0  0  0  0  0  0
   52.7700    8.7154   12.7071 H   0  0  0  0  0  0  0  0  0  0  0  0
   49.2259   11.0628   10.7347 H   0  0  0  0  0  0  0  0  0  0  0  0
   48.9988    9.3867   10.3097 H   0  0  0  0  0  0  0  0  0  0  0  0
   48.7367    8.8354   12.7876 H   0  0  0  0  0  0  0  0  0  0  0  0
   50.0286   11.0291   13.5337 H   0  0  0  0  0  0  0  0  0  0  0  0
   48.5342   11.8827   13.1467 H   0  0  0  0  0  0  0  0  0  0  0  0
   48.5631   10.1216   17.4341 H   0  0  0  0  0  0  0  0  0  0  0  0
   47.2228    9.3928   16.5139 H   0  0  0  0  0  0  0  0  0  0  0  0
   48.4892    7.2141   16.4459 H   0  0  0  0  0  0  0  0  0  0  0  0
   49.7201    7.9102   17.4868 H   0  0  0  0  0  0  0  0  0  0  0  0
   48.0251    6.5019   18.7085 H   0  0  0  0  0  0  0  0  0  0  0  0
   46.7440    7.5741   18.1894 H   0  0  0  0  0  0  0  0  0  0  0  0
   50.4314    8.9525   22.0665 H   0  0  0  0  0  0  0  0  0  0  0  0
   50.0143    7.5511   20.0769 H   0  0  0  0  0  0  0  0  0  0  0  0
   46.1713    9.4446   19.5684 H   0  0  0  0  0  0  0  0  0  0  0  0
   46.6046   10.8362   21.5603 H   0  0  0  0  0  0  0  0  0  0  0  0
   48.7304   10.5979   22.8136 H   0  0  0  0  0  0  0  0  0  0  0  0
   44.2038    9.4672   13.2203 H   0  0  0  0  0  0  0  0  0  0  0  0
   44.5682    8.6917   11.6686 H   0  0  0  0  0  0  0  0  0  0  0  0
   43.5105   11.1258   11.7976 H   0  0  0  0  0  0  0  0  0  0  0  0
   45.1446   11.6662   12.1498 H   0  0  0  0  0  0  0  0  0  0  0  0
   44.2150   10.1146    9.6568 H   0  0  0  0  0  0  0  0  0  0  0  0
   45.8887   10.5196    9.9507 H   0  0  0  0  0  0  0  0  0  0  0  0
   46.6676   12.8918    9.9177 H   0  0  0  0  0  0  0  0  0  0  0  0
   46.3100   15.1252    8.9233 H   0  0  0  0  0  0  0  0  0  0  0  0
   44.1013   15.7274    7.9711 H   0  0  0  0  0  0  0  0  0  0  0  0
   42.2416   14.0870    8.0179 H   0  0  0  0  0  0  0  0  0  0  0  0
   42.5812   11.8502    9.0088 H   0  0  0  0  0  0  0  0  0  0  0  0
  1  2  2  0
  1  6  1  0
  2  3  1  0
  3  4  2  0
  4  5  1  0
  5  6  2  0
  5  7  1  0
  7  8  1  0
  8  9  1  0
  9 10  1  0
 10 11  2  0
 10 12  1  0
 12 13  1  0
 13 14  1  0
 14 15  1  0
 15 16  1  0
 16 17  1  0
 17 18  2  0
 17 19  1  0
 19 20  1  0
 20 21  1  0
 21 22  1  0
 24 22  1  0
 22 25  2  0
 23 24  2  0
 23 27  1  0
 25 26  1  0
 26 27  2  0
 14 28  1  0
 28 29  1  0
 29 30  2  0
 29 31  1  0
 31 32  1  0
 32 33  1  0
 33 34  1  0
 39 34  1  0
 35 34  2  0
 35 36  1  0
 36 37  2  0
 37 38  1  0
 38 39  2  0
  1 40  1  0
  2 41  1  0
  3 42  1  0
  4 43  1  0
  6 44  1  0
  7 45  1  0
  7 46  1  0
  8 47  1  0
  8 48  1  0
  9 49  1  0
  9 50  1  0
 13 51  1  0
 13 52  1  0
 14 53  1  0
 15 54  1  0
 15 55  1  0
 19 56  1  0
 19 57  1  0
 20 58  1  0
 20 59  1  0
 21 60  1  0
 21 61  1  0
 23 62  1  0
 24 63  1  0
 25 64  1  0
 26 65  1  0
 27 66  1  0
 31 67  1  0
 31 68  1  0
 32 69  1  0
 32 70  1  0
 33 71  1  0
 33 72  1  0
 35 73  1  0
 36 74  1  0
 37 75  1  0
 38 76  1  0
 39 77  1  0
M  END
> <Uni-Dock RESULT> 
ENERGY=   -4.454  LOWER_BOUND=    1.840  UPPER_BOUND=    2.053
INTER + INTRA:          -4.454
INTER:                  -4.454
INTRA:                   0.000
UNBOUND:                 0.000

$$$$

     RDKit          3D

 77 79  0  0  0  0  0  0  0  0999 V2000
   44.9364    3.0411   11.5859 C   0  0  0  0  0  0  0  0  0  0  0  0
   44.3069    3.2240   10.3564 C   0  0  0  0  0  0  0  0  0  0  0  0
   43.9158    4.5008    9.9583 C   0  0  0  0  0  0  0  0  0  0  0  0
   44.1545    5.5959   10.7898 C   0  0  0  0  0  0  0  0  0  0  0  0
   44.7851    5.4229   12.0296 C   0  0  0  0  0  0  0  0  0  0  0  0
   45.1750    4.1346   12.4198 C   0  0  0  0  0  0  0  0  0  0  0  0
   45.0534    6.6091   12.9211 C   0  0  0  0  0  0  0  0  0  0  0  0
   46.2398    7.4649   12.4602 C   0  0  0  0  0  0  0  0  0  0  0  0
   47.5941    6.7573   12.5279 C   0  0  0  0  0  0  0  0  0  0  0  0
   47.9562    6.2847   13.9135 C   0  0  0  0  0  0  0  0  0  0  0  0
   48.3139    5.1455   14.1815 O   0  0  0  0  0  0  0  0  0  0  0  0
   47.8664    7.3028   14.8153 O   0  0  0  0  0  0  0  0  0  0  0  0
   48.2726    6.9729   16.1513 C   0  0  0  0  0  0  0  0  0  0  0  0
   49.7923    7.0792   16.3180 C   0  0  0  0  0  0  0  0  0  0  0  0
   50.2509    8.5333   16.1039 C   0  0  0  0  0  0  0  0  0  0  0  0
   51.6834    8.6263   16.0225 O   0  0  0  0  0  0  0  0  0  0  0  0
   52.2105    8.2448   14.8219 C   0  0  0  0  0  0  0  0  0  0  0  0
   51.5490    7.9470   13.8367 O   0  0  0  0  0  0  0  0  0  0  0  0
   53.7172    8.2840   14.8884 C   0  0  0  0  0  0  0  0  0  0  0  0
   54.3418    7.3849   13.8207 C   0  0  0  0  0  0  0  0  0  0  0  0
   55.8628    7.2705   13.9529 C   0  0  0  0  0  0  0  0  0  0  0  0
   56.5899    8.5679   13.6984 C   0  0  0  0  0  0  0  0  0  0  0  0
   57.3475   10.2924   12.1650 C   0  0  0  0  0  0  0  0  0  0  0  0
   56.6834    9.0877   12.4000 C   0  0  0  0  0  0  0  0  0  0  0  0
   57.1749    9.2764   14.7563 C   0  0  0  0  0  0  0  0  0  0  0  0
   57.8388   10.4815   14.5196 C   0  0  0  0  0  0  0  0  0  0  0  0
   57.9246   10.9894   13.2248 C   0  0  0  0  0  0  0  0  0  0  0  0
   50.1005    6.6701   17.6718 O   0  0  0  0  0  0  0  0  0  0  0  0
   51.3239    6.1204   17.8863 C   0  0  0  0  0  0  0  0  0  0  0  0
   52.1724    5.9305   17.0245 O   0  0  0  0  0  0  0  0  0  0  0  0
   51.5137    5.7017   19.3285 C   0  0  0  0  0  0  0  0  0  0  0  0
   50.7416    6.5327   20.3547 C   0  0  0  0  0  0  0  0  0  0  0  0
   49.3253    5.9982   20.5959 C   0  0  0  0  0  0  0  0  0  0  0  0
   48.5638    6.8710   21.5621 C   0  0  0  0  0  0  0  0  0  0  0  0
   47.8394    7.9767   21.0967 C   0  0  0  0  0  0  0  0  0  0  0  0
   47.1501    8.7974   21.9906 C   0  0  0  0  0  0  0  0  0  0  0  0
   47.1820    8.5227   23.3563 C   0  0  0  0  0  0  0  0  0  0  0  0
   47.9038    7.4285   23.8300 C   0  0  0  0  0  0  0  0  0  0  0  0
   48.5940    6.6068   22.9375 C   0  0  0  0  0  0  0  0  0  0  0  0
   45.2462    2.0464   11.8957 H   0  0  0  0  0  0  0  0  0  0  0  0
   44.1236    2.3716    9.7078 H   0  0  0  0  0  0  0  0  0  0  0  0
   43.4260    4.6440    8.9988 H   0  0  0  0  0  0  0  0  0  0  0  0
   43.8443    6.5864   10.4646 H   0  0  0  0  0  0  0  0  0  0  0  0
   45.6753    3.9722   13.3727 H   0  0  0  0  0  0  0  0  0  0  0  0
   44.1513    7.2348   12.9408 H   0  0  0  0  0  0  0  0  0  0  0  0
   45.1981    6.2772   13.9564 H   0  0  0  0  0  0  0  0  0  0  0  0
   46.0759    7.8049   11.4303 H   0  0  0  0  0  0  0  0  0  0  0  0
   46.2707    8.3691   13.0809 H   0  0  0  0  0  0  0  0  0  0  0  0
   47.6077    5.8927   11.8546 H   0  0  0  0  0  0  0  0  0  0  0  0
   48.3887    7.4328   12.1899 H   0  0  0  0  0  0  0  0  0  0  0  0
   47.7690    7.6730   16.8288 H   0  0  0  0  0  0  0  0  0  0  0  0
   47.9095    5.9784   16.4414 H   0  0  0  0  0  0  0  0  0  0  0  0
   50.2816    6.4076   15.6038 H   0  0  0  0  0  0  0  0  0  0  0  0
   49.8031    8.9875   15.2121 H   0  0  0  0  0  0  0  0  0  0  0  0
   49.9548    9.1469   16.9623 H   0  0  0  0  0  0  0  0  0  0  0  0
   54.0301    9.3253   14.7613 H   0  0  0  0  0  0  0  0  0  0  0  0
   54.0323    7.9385   15.8798 H   0  0  0  0  0  0  0  0  0  0  0  0
   53.9122    6.3781   13.9036 H   0  0  0  0  0  0  0  0  0  0  0  0
   54.0714    7.7529   12.8229 H   0  0  0  0  0  0  0  0  0  0  0  0
   56.2312    6.5235   13.2381 H   0  0  0  0  0  0  0  0  0  0  0  0
   56.1197    6.8822   14.9466 H   0  0  0  0  0  0  0  0  0  0  0  0
   57.4145   10.6865   11.1544 H   0  0  0  0  0  0  0  0  0  0  0  0
   56.2381    8.5545   11.5631 H   0  0  0  0  0  0  0  0  0  0  0  0
   57.1165    8.8951   15.7733 H   0  0  0  0  0  0  0  0  0  0  0  0
   58.2897   11.0241   15.3459 H   0  0  0  0  0  0  0  0  0  0  0  0
   58.4425   11.9271   13.0421 H   0  0  0  0  0  0  0  0  0  0  0  0
   52.5832    5.8246   19.5403 H   0  0  0  0  0  0  0  0  0  0  0  0
   51.2731    4.6370   19.4157 H   0  0  0  0  0  0  0  0  0  0  0  0
   51.2886    6.5043   21.3061 H   0  0  0  0  0  0  0  0  0  0  0  0
   50.7104    7.5857   20.0481 H   0  0  0  0  0  0  0  0  0  0  0  0
   49.3745    4.9752   20.9898 H   0  0  0  0  0  0  0  0  0  0  0  0
   48.7606    5.9269   19.6598 H   0  0  0  0  0  0  0  0  0  0  0  0
   47.8086    8.2048   20.0339 H   0  0  0  0  0  0  0  0  0  0  0  0
   46.5892    9.6522   21.6223 H   0  0  0  0  0  0  0  0  0  0  0  0
   46.6454    9.1622   24.0522 H   0  0  0  0  0  0  0  0  0  0  0  0
   47.9310    7.2161   24.8955 H   0  0  0  0  0  0  0  0  0  0  0  0
   49.1564    5.7591   23.3221 H   0  0  0  0  0  0  0  0  0  0  0  0
  1  2  2  0
  1  6  1  0
  2  3  1  0
  3  4  2  0
  4  5  1  0
  5  6  2  0
  5  7  1  0
  7  8  1  0
  8  9  1  0
  9 10  1  0
 10 11  2  0
 10 12  1  0
 12 13  1  0
 13 14  1  0
 14 15  1  0
 15 16  1  0
 16 17  1  0
 17 18  2  0
 17 19  1  0
 19 20  1  0
 20 21  1  0
 21 22  1  0
 24 22  1  0
 22 25  2  0
 23 24  2  0
 23 27  1  0
 25 26  1  0
 26 27  2  0
 14 28  1  0
 28 29  1  0
 29 30  2  0
 29 31  1  0
 31 32  1  0
 32 33  1  0
 33 34  1  0
 39 34  1  0
 35 34  2  0
 35 36  1  0
 36 37  2  0
 37 38  1  0
 38 39  2  0
  1 40  1  0
  2 41  1  0
  3 42  1  0
  4 43  1  0
  6 44  1  0
  7 45  1  0
  7 46  1  0
  8 47  1  0
  8 48  1  0
  9 49  1  0
  9 50  1  0
 13 51  1  0
 13 52  1  0
 14 53  1  0
 15 54  1  0
 15 55  1  0
 19 56  1  0
 19 57  1  0
 20 58  1  0
 20 59  1  0
 21 60  1  0
 21 61  1  0
 23 62  1  0
 24 63  1  0
 25 64  1  0
 26 65  1  0
 27 66  1  0
 31 67  1  0
 31 68  1  0
 32 69  1  0
 32 70  1  0
 33 71  1  0
 33 72  1  0
 35 73  1  0
 36 74  1  0
 37 75  1  0
 38 76  1  0
 39 77  1  0
M  END
> <Uni-Dock RESULT> 
ENERGY=   -4.405  LOWER_BOUND=    3.923  UPPER_BOUND=    9.793
INTER + INTRA:          -4.405
INTER:                  -4.405
INTRA:                   0.000
UNBOUND:                 0.000

$$$$

     RDKit          3D

 77 79  0  0  0  0  0  0  0  0999 V2000
   44.6404    3.2452   12.6254 C   0  0  0  0  0  0  0  0  0  0  0  0
   43.9980    2.9414   11.4269 C   0  0  0  0  0  0  0  0  0  0  0  0
   43.6456    3.9637   10.5480 C   0  0  0  0  0  0  0  0  0  0  0  0
   43.9359    5.2909   10.8673 C   0  0  0  0  0  0  0  0  0  0  0  0
   44.5800    5.6078   12.0713 C   0  0  0  0  0  0  0  0  0  0  0  0
   44.9307    4.5719   12.9475 C   0  0  0  0  0  0  0  0  0  0  0  0
   44.9042    7.0413   12.4087 C   0  0  0  0  0  0  0  0  0  0  0  0
   46.1122    7.5923   11.6410 C   0  0  0  0  0  0  0  0  0  0  0  0
   47.4418    6.9202   11.9874 C   0  0  0  0  0  0  0  0  0  0  0  0
   47.8095    7.0323   13.4457 C   0  0  0  0  0  0  0  0  0  0  0  0
   48.1312    6.0847   14.1501 O   0  0  0  0  0  0  0  0  0  0  0  0
   47.7700    8.3301   13.8606 O   0  0  0  0  0  0  0  0  0  0  0  0
   48.1859    8.5509   15.2159 C   0  0  0  0  0  0  0  0  0  0  0  0
   49.7109    8.6566   15.3246 C   0  0  0  0  0  0  0  0  0  0  0  0
   50.2168    9.8823   14.5421 C   0  0  0  0  0  0  0  0  0  0  0  0
   51.6501    9.8793   14.4292 O   0  0  0  0  0  0  0  0  0  0  0  0
   52.1440    9.0264   13.4840 C   0  0  0  0  0  0  0  0  0  0  0  0
   51.4566    8.3827   12.7029 O   0  0  0  0  0  0  0  0  0  0  0  0
   53.6521    9.0308   13.5281 C   0  0  0  0  0  0  0  0  0  0  0  0
   54.2274    7.7543   12.9131 C   0  0  0  0  0  0  0  0  0  0  0  0
   55.7454    7.6442   13.0792 C   0  0  0  0  0  0  0  0  0  0  0  0
   56.5133    8.7000   12.3227 C   0  0  0  0  0  0  0  0  0  0  0  0
   57.3061    9.6300   10.2238 C   0  0  0  0  0  0  0  0  0  0  0  0
   56.6040    8.6487   10.9250 C   0  0  0  0  0  0  0  0  0  0  0  0
   57.1399    9.7515   13.0048 C   0  0  0  0  0  0  0  0  0  0  0  0
   57.8417   10.7325   12.3019 C   0  0  0  0  0  0  0  0  0  0  0  0
   57.9243   10.6721   10.9122 C   0  0  0  0  0  0  0  0  0  0  0  0
   50.0263    8.8160   16.7283 O   0  0  0  0  0  0  0  0  0  0  0  0
   51.2331    8.3525   17.1454 C   0  0  0  0  0  0  0  0  0  0  0  0
   52.0603    7.7988   16.4327 O   0  0  0  0  0  0  0  0  0  0  0  0
   51.4313    8.5433   18.6339 C   0  0  0  0  0  0  0  0  0  0  0  0
   50.7055    9.7464   19.2384 C   0  0  0  0  0  0  0  0  0  0  0  0
   49.2755    9.4095   19.6756 C   0  0  0  0  0  0  0  0  0  0  0  0
   48.5608   10.6262   20.2083 C   0  0  0  0  0  0  0  0  0  0  0  0
   47.8682   11.4779   19.3370 C   0  0  0  0  0  0  0  0  0  0  0  0
   47.2227   12.6151   19.8247 C   0  0  0  0  0  0  0  0  0  0  0  0
   47.2670   12.9129   21.1852 C   0  0  0  0  0  0  0  0  0  0  0  0
   47.9575   12.0752   22.0594 C   0  0  0  0  0  0  0  0  0  0  0  0
   48.6039   10.9376   21.5735 C   0  0  0  0  0  0  0  0  0  0  0  0
   44.9201    2.4484   13.3097 H   0  0  0  0  0  0  0  0  0  0  0  0
   43.7744    1.9078   11.1771 H   0  0  0  0  0  0  0  0  0  0  0  0
   43.1457    3.7271    9.6126 H   0  0  0  0  0  0  0  0  0  0  0  0
   43.6555    6.0776   10.1706 H   0  0  0  0  0  0  0  0  0  0  0  0
   45.4403    4.7879   13.8846 H   0  0  0  0  0  0  0  0  0  0  0  0
   44.0250    7.6562   12.1749 H   0  0  0  0  0  0  0  0  0  0  0  0
   45.0539    7.1493   13.4898 H   0  0  0  0  0  0  0  0  0  0  0  0
   45.9437    7.4947   10.5616 H   0  0  0  0  0  0  0  0  0  0  0  0
   46.1849    8.6681   11.8445 H   0  0  0  0  0  0  0  0  0  0  0  0
   47.4141    5.8579   11.7198 H   0  0  0  0  0  0  0  0  0  0  0  0
   48.2540    7.3711   11.4052 H   0  0  0  0  0  0  0  0  0  0  0  0
   47.7182    9.4835   15.5540 H   0  0  0  0  0  0  0  0  0  0  0  0
   47.7929    7.7724   15.8826 H   0  0  0  0  0  0  0  0  0  0  0  0
   50.1647    7.7358   14.9415 H   0  0  0  0  0  0  0  0  0  0  0  0
   49.7708    9.9557   13.5432 H   0  0  0  0  0  0  0  0  0  0  0  0
   49.9563   10.8007   15.0805 H   0  0  0  0  0  0  0  0  0  0  0  0
   53.9992    9.9198   12.9918 H   0  0  0  0  0  0  0  0  0  0  0  0
   53.9708    9.1021   14.5744 H   0  0  0  0  0  0  0  0  0  0  0  0
   53.7641    6.8837   13.3951 H   0  0  0  0  0  0  0  0  0  0  0  0
   53.9540    7.6994   11.8518 H   0  0  0  0  0  0  0  0  0  0  0  0
   56.0757    6.6590   12.7260 H   0  0  0  0  0  0  0  0  0  0  0  0
   56.0045    7.6796   14.1449 H   0  0  0  0  0  0  0  0  0  0  0  0
   57.3705    9.5807    9.1400 H   0  0  0  0  0  0  0  0  0  0  0  0
   56.1268    7.8411   10.3743 H   0  0  0  0  0  0  0  0  0  0  0  0
   57.0845    9.8148   14.0893 H   0  0  0  0  0  0  0  0  0  0  0  0
   58.3247   11.5442   12.8391 H   0  0  0  0  0  0  0  0  0  0  0  0
   58.4718   11.4359   10.3666 H   0  0  0  0  0  0  0  0  0  0  0  0
   52.5077    8.6996   18.7774 H   0  0  0  0  0  0  0  0  0  0  0  0
   51.1550    7.6141   19.1431 H   0  0  0  0  0  0  0  0  0  0  0  0
   51.2666   10.0825   20.1201 H   0  0  0  0  0  0  0  0  0  0  0  0
   50.7064   10.5870   18.5333 H   0  0  0  0  0  0  0  0  0  0  0  0
   49.2951    8.6308   20.4485 H   0  0  0  0  0  0  0  0  0  0  0  0
   48.6936    8.9890   18.8480 H   0  0  0  0  0  0  0  0  0  0  0  0
   47.8283   11.2595   18.2726 H   0  0  0  0  0  0  0  0  0  0  0  0
   46.6862   13.2701   19.1434 H   0  0  0  0  0  0  0  0  0  0  0  0
   46.7644   13.7987   21.5645 H   0  0  0  0  0  0  0  0  0  0  0  0
   47.9944   12.3091   23.1201 H   0  0  0  0  0  0  0  0  0  0  0  0
   49.1424   10.2956   22.2668 H   0  0  0  0  0  0  0  0  0  0  0  0
  1  2  2  0
  1  6  1  0
  2  3  1  0
  3  4  2  0
  4  5  1  0
  5  6  2  0
  5  7  1  0
  7  8  1  0
  8  9  1  0
  9 10  1  0
 10 11  2  0
 10 12  1  0
 12 13  1  0
 13 14  1  0
 14 15  1  0
 15 16  1  0
 16 17  1  0
 17 18  2  0
 17 19  1  0
 19 20  1  0
 20 21  1  0
 21 22  1  0
 24 22  1  0
 22 25  2  0
 23 24  2  0
 23 27  1  0
 25 26  1  0
 26 27  2  0
 14 28  1  0
 28 29  1  0
 29 30  2  0
 29 31  1  0
 31 32  1  0
 32 33  1  0
 33 34  1  0
 39 34  1  0
 35 34  2  0
 35 36  1  0
 36 37  2  0
 37 38  1  0
 38 39  2  0
  1 40  1  0
  2 41  1  0
  3 42  1  0
  4 43  1  0
  6 44  1  0
  7 45  1  0
  7 46  1  0
  8 47  1  0
  8 48  1  0
  9 49  1  0
  9 50  1  0
 13 51  1  0
 13 52  1  0
 14 53  1  0
 15 54  1  0
 15 55  1  0
 19 56  1  0
 19 57  1  0
 20 58  1  0
 20 59  1  0
 21 60  1  0
 21 61  1  0
 23 62  1  0
 24 63  1  0
 25 64  1  0
 26 65  1  0
 27 66  1  0
 31 67  1  0
 31 68  1  0
 32 69  1  0
 32 70  1  0
 33 71  1  0
 33 72  1  0
 35 73  1  0
 36 74  1  0
 37 75  1  0
 38 76  1  0
 39 77  1  0
M  END
> <Uni-Dock RESULT> 
ENERGY=   -4.365  LOWER_BOUND=    3.842  UPPER_BOUND=    9.368
INTER + INTRA:          -4.365
INTER:                  -4.365
INTRA:                   0.000
UNBOUND:                 0.000

$$$$

     RDKit          3D

 77 79  0  0  0  0  0  0  0  0999 V2000
   50.1433    7.6713   22.1928 C   0  0  0  0  0  0  0  0  0  0  0  0
   49.8893    6.4711   22.8535 C   0  0  0  0  0  0  0  0  0  0  0  0
   48.8511    5.6469   22.4238 C   0  0  0  0  0  0  0  0  0  0  0  0
   48.0664    6.0225   21.3326 C   0  0  0  0  0  0  0  0  0  0  0  0
   48.3120    7.2287   20.6621 C   0  0  0  0  0  0  0  0  0  0  0  0
   49.3591    8.0498   21.1020 C   0  0  0  0  0  0  0  0  0  0  0  0
   47.4711    7.6269   19.4754 C   0  0  0  0  0  0  0  0  0  0  0  0
   47.8246    6.8652   18.1920 C   0  0  0  0  0  0  0  0  0  0  0  0
   49.2242    7.1573   17.6484 C   0  0  0  0  0  0  0  0  0  0  0  0
   49.4514    8.6127   17.3253 C   0  0  0  0  0  0  0  0  0  0  0  0
   50.4053    9.2667   17.7252 O   0  0  0  0  0  0  0  0  0  0  0  0
   48.4745    9.0881   16.5022 O   0  0  0  0  0  0  0  0  0  0  0  0
   48.6475   10.4449   16.0690 C   0  0  0  0  0  0  0  0  0  0  0  0
   49.5844   10.5324   14.8593 C   0  0  0  0  0  0  0  0  0  0  0  0
   48.9676    9.7993   13.6541 C   0  0  0  0  0  0  0  0  0  0  0  0
   49.9147    9.6619   12.5811 O   0  0  0  0  0  0  0  0  0  0  0  0
   50.8359    8.6698   12.7596 C   0  0  0  0  0  0  0  0  0  0  0  0
   50.8253    7.8714   13.6866 O   0  0  0  0  0  0  0  0  0  0  0  0
   51.8343    8.6883   11.6286 C   0  0  0  0  0  0  0  0  0  0  0  0
   53.1412    8.0049   12.0328 C   0  0  0  0  0  0  0  0  0  0  0  0
   54.2373    8.1398   10.9725 C   0  0  0  0  0  0  0  0  0  0  0  0
   53.9224    7.4203    9.6841 C   0  0  0  0  0  0  0  0  0  0  0  0
   53.6560    5.3537    8.4363 C   0  0  0  0  0  0  0  0  0  0  0  0
   53.9564    6.0203    9.6250 C   0  0  0  0  0  0  0  0  0  0  0  0
   53.5833    8.1398    8.5305 C   0  0  0  0  0  0  0  0  0  0  0  0
   53.2830    7.4714    7.3422 C   0  0  0  0  0  0  0  0  0  0  0  0
   53.3188    6.0792    7.2953 C   0  0  0  0  0  0  0  0  0  0  0  0
   49.7391   11.9364   14.5429 O   0  0  0  0  0  0  0  0  0  0  0  0
   50.9046   12.3109   13.9544 C   0  0  0  0  0  0  0  0  0  0  0  0
   51.8338   11.5592   13.6892 O   0  0  0  0  0  0  0  0  0  0  0  0
   50.9620   13.8030   13.7064 C   0  0  0  0  0  0  0  0  0  0  0  0
   49.6096   14.4751   13.4632 C   0  0  0  0  0  0  0  0  0  0  0  0
   48.9337   14.9205   14.7650 C   0  0  0  0  0  0  0  0  0  0  0  0
   47.5752   15.5213   14.5031 C   0  0  0  0  0  0  0  0  0  0  0  0
   46.4395   14.7025   14.4414 C   0  0  0  0  0  0  0  0  0  0  0  0
   45.1842   15.2535   14.1796 C   0  0  0  0  0  0  0  0  0  0  0  0
   45.0538   16.6254   13.9737 C   0  0  0  0  0  0  0  0  0  0  0  0
   46.1778   17.4477   14.0278 C   0  0  0  0  0  0  0  0  0  0  0  0
   47.4340   16.8985   14.2892 C   0  0  0  0  0  0  0  0  0  0  0  0
   50.9558    8.3130   22.5240 H   0  0  0  0  0  0  0  0  0  0  0  0
   50.5020    6.1774   23.7014 H   0  0  0  0  0  0  0  0  0  0  0  0
   48.6535    4.7101   22.9379 H   0  0  0  0  0  0  0  0  0  0  0  0
   47.2605    5.3680   21.0084 H   0  0  0  0  0  0  0  0  0  0  0  0
   49.5787    8.9871   20.5943 H   0  0  0  0  0  0  0  0  0  0  0  0
   46.4180    7.4370   19.7218 H   0  0  0  0  0  0  0  0  0  0  0  0
   47.5395    8.7092   19.3114 H   0  0  0  0  0  0  0  0  0  0  0  0
   47.7362    5.7854   18.3633 H   0  0  0  0  0  0  0  0  0  0  0  0
   47.0782    7.1172   17.4283 H   0  0  0  0  0  0  0  0  0  0  0  0
   49.9874    6.8411   18.3684 H   0  0  0  0  0  0  0  0  0  0  0  0
   49.3988    6.5829   16.7310 H   0  0  0  0  0  0  0  0  0  0  0  0
   47.6561   10.8339   15.8071 H   0  0  0  0  0  0  0  0  0  0  0  0
   48.9996   11.0812   16.8913 H   0  0  0  0  0  0  0  0  0  0  0  0
   50.5556   10.0992   15.1230 H   0  0  0  0  0  0  0  0  0  0  0  0
   48.5711    8.8126   13.9212 H   0  0  0  0  0  0  0  0  0  0  0  0
   48.1334   10.3841   13.2501 H   0  0  0  0  0  0  0  0  0  0  0  0
   51.3752    8.1881   10.7698 H   0  0  0  0  0  0  0  0  0  0  0  0
   52.0404    9.7313   11.3616 H   0  0  0  0  0  0  0  0  0  0  0  0
   53.5070    8.4538   12.9654 H   0  0  0  0  0  0  0  0  0  0  0  0
   52.9521    6.9471   12.2547 H   0  0  0  0  0  0  0  0  0  0  0  0
   55.1763    7.7356   11.3718 H   0  0  0  0  0  0  0  0  0  0  0  0
   54.4318    9.2015   10.7743 H   0  0  0  0  0  0  0  0  0  0  0  0
   53.6857    4.2678    8.4012 H   0  0  0  0  0  0  0  0  0  0  0  0
   54.2183    5.4410   10.5075 H   0  0  0  0  0  0  0  0  0  0  0  0
   53.5493    9.2268    8.5496 H   0  0  0  0  0  0  0  0  0  0  0  0
   53.0212    8.0374    6.4524 H   0  0  0  0  0  0  0  0  0  0  0  0
   53.0857    5.5604    6.3693 H   0  0  0  0  0  0  0  0  0  0  0  0
   51.5653   13.9354   12.7996 H   0  0  0  0  0  0  0  0  0  0  0  0
   51.4968   14.2731   14.5384 H   0  0  0  0  0  0  0  0  0  0  0  0
   49.7710   15.3618   12.8364 H   0  0  0  0  0  0  0  0  0  0  0  0
   48.9495   13.8100   12.8926 H   0  0  0  0  0  0  0  0  0  0  0  0
   49.5643   15.6559   15.2804 H   0  0  0  0  0  0  0  0  0  0  0  0
   48.8241   14.0843   15.4643 H   0  0  0  0  0  0  0  0  0  0  0  0
   46.5272   13.6299   14.5967 H   0  0  0  0  0  0  0  0  0  0  0  0
   44.3077   14.6126   14.1348 H   0  0  0  0  0  0  0  0  0  0  0  0
   44.0761   17.0540   13.7696 H   0  0  0  0  0  0  0  0  0  0  0  0
   46.0763   18.5174   13.8643 H   0  0  0  0  0  0  0  0  0  0  0  0
   48.3027   17.5520   14.3241 H   0  0  0  0  0  0  0  0  0  0  0  0
  1  2  2  0
  1  6  1  0
  2  3  1  0
  3  4  2  0
  4  5  1  0
  5  6  2  0
  5  7  1  0
  7  8  1  0
  8  9  1  0
  9 10  1  0
 10 11  2  0
 10 12  1  0
 12 13  1  0
 13 14  1  0
 14 15  1  0
 15 16  1  0
 16 17  1  0
 17 18  2  0
 17 19  1  0
 19 20  1  0
 20 21  1  0
 21 22  1  0
 24 22  1  0
 22 25  2  0
 23 24  2  0
 23 27  1  0
 25 26  1  0
 26 27  2  0
 14 28  1  0
 28 29  1  0
 29 30  2  0
 29 31  1  0
 31 32  1  0
 32 33  1  0
 33 34  1  0
 39 34  1  0
 35 34  2  0
 35 36  1  0
 36 37  2  0
 37 38  1  0
 38 39  2  0
  1 40  1  0
  2 41  1  0
  3 42  1  0
  4 43  1  0
  6 44  1  0
  7 45  1  0
  7 46  1  0
  8 47  1  0
  8 48  1  0
  9 49  1  0
  9 50  1  0
 13 51  1  0
 13 52  1  0
 14 53  1  0
 15 54  1  0
 15 55  1  0
 19 56  1  0
 19 57  1  0
 20 58  1  0
 20 59  1  0
 21 60  1  0
 21 61  1  0
 23 62  1  0
 24 63  1  0
 25 64  1  0
 26 65  1  0
 27 66  1  0
 31 67  1  0
 31 68  1  0
 32 69  1  0
 32 70  1  0
 33 71  1  0
 33 72  1  0
 35 73  1  0
 36 74  1  0
 37 75  1  0
 38 76  1  0
 39 77  1  0
M  END
> <Uni-Dock RESULT> 
ENERGY=   -4.281  LOWER_BOUND=    2.685  UPPER_BOUND=    9.429
INTER + INTRA:          -4.281
INTER:                  -4.281
INTRA:                   0.000
UNBOUND:                 0.000

$$$$
