
     RDKit          3D

 77 79  0  0  0  0  0  0  0  0999 V2000
   52.5055    2.7164   18.3135 C   0  0  0  0  0  0  0  0  0  0  0  0
   53.3368    3.2890   19.2743 C   0  0  0  0  0  0  0  0  0  0  0  0
   53.3518    4.6714   19.4461 C   0  0  0  0  0  0  0  0  0  0  0  0
   52.5351    5.4826   18.6569 C   0  0  0  0  0  0  0  0  0  0  0  0
   51.6970    4.9176   17.6854 C   0  0  0  0  0  0  0  0  0  0  0  0
   51.6888    3.5260   17.5223 C   0  0  0  0  0  0  0  0  0  0  0  0
   50.8097    5.7949   16.8400 C   0  0  0  0  0  0  0  0  0  0  0  0
   49.5605    6.2927   17.5769 C   0  0  0  0  0  0  0  0  0  0  0  0
   48.5609    5.1930   17.9384 C   0  0  0  0  0  0  0  0  0  0  0  0
   48.0144    4.4806   16.7262 C   0  0  0  0  0  0  0  0  0  0  0  0
   48.1498    3.2853   16.5074 O   0  0  0  0  0  0  0  0  0  0  0  0
   47.3524    5.3524   15.9222 O   0  0  0  0  0  0  0  0  0  0  0  0
   46.8088    4.8054   14.7126 C   0  0  0  0  0  0  0  0  0  0  0  0
   46.7196    5.9116   13.6570 C   0  0  0  0  0  0  0  0  0  0  0  0
   48.1324    6.3510   13.2311 C   0  0  0  0  0  0  0  0  0  0  0  0
   48.1036    7.5368   12.4173 O   0  0  0  0  0  0  0  0  0  0  0  0
   47.9258    8.7011   13.1072 C   0  0  0  0  0  0  0  0  0  0  0  0
   47.8251    8.7775   14.3243 O   0  0  0  0  0  0  0  0  0  0  0  0
   47.8796    9.8608   12.1413 C   0  0  0  0  0  0  0  0  0  0  0  0
   47.6275   11.2102   12.8190 C   0  0  0  0  0  0  0  0  0  0  0  0
   48.7643   11.7091   13.7215 C   0  0  0  0  0  0  0  0  0  0  0  0
   50.0762   11.9076   13.0040 C   0  0  0  0  0  0  0  0  0  0  0  0
   51.4522   13.1361   11.4253 C   0  0  0  0  0  0  0  0  0  0  0  0
   50.2389   12.9592   12.0921 C   0  0  0  0  0  0  0  0  0  0  0  0
   51.1509   11.0388   13.2386 C   0  0  0  0  0  0  0  0  0  0  0  0
   52.3633   11.2169   12.5706 C   0  0  0  0  0  0  0  0  0  0  0  0
   52.5136   12.2651   11.6643 C   0  0  0  0  0  0  0  0  0  0  0  0
   46.0211    5.3624   12.5155 O   0  0  0  0  0  0  0  0  0  0  0  0
   45.3178    6.2387   11.7494 C   0  0  0  0  0  0  0  0  0  0  0  0
   45.1887    7.4341   11.9756 O   0  0  0  0  0  0  0  0  0  0  0  0
   44.6447    5.5289   10.5997 C   0  0  0  0  0  0  0  0  0  0  0  0
   45.6092    4.6450    9.8136 C   0  0  0  0  0  0  0  0  0  0  0  0
   44.9309    4.0422    8.5826 C   0  0  0  0  0  0  0  0  0  0  0  0
   45.8575    3.1115    7.8422 C   0  0  0  0  0  0  0  0  0  0  0  0
   46.7233    3.6043    6.8569 C   0  0  0  0  0  0  0  0  0  0  0  0
   47.5951    2.7436    6.1879 C   0  0  0  0  0  0  0  0  0  0  0  0
   47.6130    1.3854    6.5002 C   0  0  0  0  0  0  0  0  0  0  0  0
   46.7600    0.8864    7.4830 C   0  0  0  0  0  0  0  0  0  0  0  0
   45.8870    1.7451    8.1526 C   0  0  0  0  0  0  0  0  0  0  0  0
   52.4905    1.6375   18.1803 H   0  0  0  0  0  0  0  0  0  0  0  0
   53.9731    2.6575   19.8888 H   0  0  0  0  0  0  0  0  0  0  0  0
   54.0000    5.1186   20.1952 H   0  0  0  0  0  0  0  0  0  0  0  0
   52.5579    6.5601   18.8029 H   0  0  0  0  0  0  0  0  0  0  0  0
   51.0417    3.0595   16.7815 H   0  0  0  0  0  0  0  0  0  0  0  0
   51.3973    6.6622   16.5114 H   0  0  0  0  0  0  0  0  0  0  0  0
   50.5295    5.2707   15.9182 H   0  0  0  0  0  0  0  0  0  0  0  0
   49.0666    7.0375   16.9417 H   0  0  0  0  0  0  0  0  0  0  0  0
   49.8529    6.8154   18.4958 H   0  0  0  0  0  0  0  0  0  0  0  0
   49.0159    4.4512   18.6029 H   0  0  0  0  0  0  0  0  0  0  0  0
   47.7132    5.6196   18.4867 H   0  0  0  0  0  0  0  0  0  0  0  0
   45.8077    4.4152   14.9295 H   0  0  0  0  0  0  0  0  0  0  0  0
   47.4126    3.9739   14.3282 H   0  0  0  0  0  0  0  0  0  0  0  0
   46.1573    6.7540   14.0765 H   0  0  0  0  0  0  0  0  0  0  0  0
   48.7950    6.5150   14.0890 H   0  0  0  0  0  0  0  0  0  0  0  0
   48.5925    5.5716   12.6130 H   0  0  0  0  0  0  0  0  0  0  0  0
   47.0559    9.6706   11.4426 H   0  0  0  0  0  0  0  0  0  0  0  0
   48.8131    9.8798   11.5693 H   0  0  0  0  0  0  0  0  0  0  0  0
   47.4337   11.9552   12.0374 H   0  0  0  0  0  0  0  0  0  0  0  0
   46.7123   11.1471   13.4212 H   0  0  0  0  0  0  0  0  0  0  0  0
   48.9034   11.0342   14.5729 H   0  0  0  0  0  0  0  0  0  0  0  0
   48.4689   12.6697   14.1635 H   0  0  0  0  0  0  0  0  0  0  0  0
   51.5699   13.9560   10.7214 H   0  0  0  0  0  0  0  0  0  0  0  0
   49.4207   13.6496   11.8991 H   0  0  0  0  0  0  0  0  0  0  0  0
   51.0495   10.2176   13.9453 H   0  0  0  0  0  0  0  0  0  0  0  0
   53.1917   10.5393   12.7602 H   0  0  0  0  0  0  0  0  0  0  0  0
   53.4583   12.4048   11.1459 H   0  0  0  0  0  0  0  0  0  0  0  0
   43.8092    4.9441   10.9996 H   0  0  0  0  0  0  0  0  0  0  0  0
   44.2264    6.2954    9.9366 H   0  0  0  0  0  0  0  0  0  0  0  0
   45.9860    3.8409   10.4581 H   0  0  0  0  0  0  0  0  0  0  0  0
   46.4862    5.2320    9.5121 H   0  0  0  0  0  0  0  0  0  0  0  0
   44.0263    3.4953    8.8777 H   0  0  0  0  0  0  0  0  0  0  0  0
   44.5955    4.8380    7.9057 H   0  0  0  0  0  0  0  0  0  0  0  0
   46.7239    4.6622    6.6042 H   0  0  0  0  0  0  0  0  0  0  0  0
   48.2624    3.1335    5.4233 H   0  0  0  0  0  0  0  0  0  0  0  0
   48.2929    0.7167    5.9789 H   0  0  0  0  0  0  0  0  0  0  0  0
   46.7753   -0.1719    7.7296 H   0  0  0  0  0  0  0  0  0  0  0  0
   45.2303    1.3410    8.9197 H   0  0  0  0  0  0  0  0  0  0  0  0
  1  2  2  0
  1  6  1  0
  2  3  1  0
  3  4  2  0
  4  5  1  0
  5  6  2  0
  5  7  1  0
  7  8  1  0
  8  9  1  0
  9 10  1  0
 10 11  2  0
 10 12  1  0
 12 13  1  0
 13 14  1  0
 14 15  1  0
 15 16  1  0
 16 17  1  0
 17 18  2  0
 17 19  1  0
 19 20  1  0
 20 21  1  0
 21 22  1  0
 24 22  1  0
 22 25  2  0
 23 24  2  0
 23 27  1  0
 25 26  1  0
 26 27  2  0
 14 28  1  0
 28 29  1  0
 29 30  2  0
 29 31  1  0
 31 32  1  0
 32 33  1  0
 33 34  1  0
 39 34  1  0
 35 34  2  0
 35 36  1  0
 36 37  2  0
 37 38  1  0
 38 39  2  0
  1 40  1  0
  2 41  1  0
  3 42  1  0
  4 43  1  0
  6 44  1  0
  7 45  1  0
  7 46  1  0
  8 47  1  0
  8 48  1  0
  9 49  1  0
  9 50  1  0
 13 51  1  0
 13 52  1  0
 14 53  1  0
 15 54  1  0
 15 55  1  0
 19 56  1  0
 19 57  1  0
 20 58  1  0
 20 59  1  0
 21 60  1  0
 21 61  1  0
 23 62  1  0
 24 63  1  0
 25 64  1  0
 26 65  1  0
 27 66  1  0
 31 67  1  0
 31 68  1  0
 32 69  1  0
 32 70  1  0
 33 71  1  0
 33 72  1  0
 35 73  1  0
 36 74  1  0
 37 75  1  0
 38 76  1  0
 39 77  1  0
M  END
> <Uni-Dock RESULT> 
ENERGY=   -8.304  LOWER_BOUND=    0.000  UPPER_BOUND=    0.000
INTER + INTRA:          -8.304
INTER:                  -8.304
INTRA:                   0.000
UNBOUND:                 0.000

$$$$

     RDKit          3D

 77 79  0  0  0  0  0  0  0  0999 V2000
   52.5096    2.6607   18.3144 C   0  0  0  0  0  0  0  0  0  0  0  0
   53.3435    3.2274   19.2766 C   0  0  0  0  0  0  0  0  0  0  0  0
   53.3620    4.6091   19.4540 C   0  0  0  0  0  0  0  0  0  0  0  0
   52.5465    5.4255   18.6689 C   0  0  0  0  0  0  0  0  0  0  0  0
   51.7060    4.8665   17.6961 C   0  0  0  0  0  0  0  0  0  0  0  0
   51.6941    3.4756   17.5273 C   0  0  0  0  0  0  0  0  0  0  0  0
   50.8200    5.7494   16.8551 C   0  0  0  0  0  0  0  0  0  0  0  0
   49.5729    6.2473   17.5954 C   0  0  0  0  0  0  0  0  0  0  0  0
   48.5709    5.1486   17.9535 C   0  0  0  0  0  0  0  0  0  0  0  0
   48.0213    4.4425   16.7390 C   0  0  0  0  0  0  0  0  0  0  0  0
   48.1535    3.2477   16.5153 O   0  0  0  0  0  0  0  0  0  0  0  0
   47.3606    5.3192   15.9393 O   0  0  0  0  0  0  0  0  0  0  0  0
   46.8144    4.7784   14.7281 C   0  0  0  0  0  0  0  0  0  0  0  0
   46.7268    5.8891   13.6771 C   0  0  0  0  0  0  0  0  0  0  0  0
   48.1402    6.3267   13.2514 C   0  0  0  0  0  0  0  0  0  0  0  0
   48.1135    7.5158   12.4424 O   0  0  0  0  0  0  0  0  0  0  0  0
   47.9394    8.6778   13.1372 C   0  0  0  0  0  0  0  0  0  0  0  0
   47.8401    8.7495   14.3547 O   0  0  0  0  0  0  0  0  0  0  0  0
   47.8950    9.8415   12.1760 C   0  0  0  0  0  0  0  0  0  0  0  0
   47.6470   11.1887   12.8595 C   0  0  0  0  0  0  0  0  0  0  0  0
   48.7860   11.6812   13.7628 C   0  0  0  0  0  0  0  0  0  0  0  0
   50.0976   11.8793   13.0446 C   0  0  0  0  0  0  0  0  0  0  0  0
   51.4750   13.1108   11.4694 C   0  0  0  0  0  0  0  0  0  0  0  0
   50.2620   12.9342   12.1368 C   0  0  0  0  0  0  0  0  0  0  0  0
   51.1704   11.0069   13.2746 C   0  0  0  0  0  0  0  0  0  0  0  0
   52.3825   11.1847   12.6060 C   0  0  0  0  0  0  0  0  0  0  0  0
   52.5345   12.2362   11.7038 C   0  0  0  0  0  0  0  0  0  0  0  0
   46.0257    5.3462   12.5341 O   0  0  0  0  0  0  0  0  0  0  0  0
   45.3238    6.2274   11.7722 C   0  0  0  0  0  0  0  0  0  0  0  0
   45.1979    7.4222   12.0034 O   0  0  0  0  0  0  0  0  0  0  0  0
   44.6477    5.5239   10.6205 C   0  0  0  0  0  0  0  0  0  0  0  0
   45.6092    4.6408    9.8297 C   0  0  0  0  0  0  0  0  0  0  0  0
   44.9280    4.0447    8.5971 C   0  0  0  0  0  0  0  0  0  0  0  0
   45.8516    3.1146    7.8519 C   0  0  0  0  0  0  0  0  0  0  0  0
   46.7176    3.6093    6.8676 C   0  0  0  0  0  0  0  0  0  0  0  0
   47.5865    2.7491    6.1943 C   0  0  0  0  0  0  0  0  0  0  0  0
   47.6013    1.3897    6.5010 C   0  0  0  0  0  0  0  0  0  0  0  0
   46.7481    0.8888    7.4827 C   0  0  0  0  0  0  0  0  0  0  0  0
   45.8780    1.7470    8.1568 C   0  0  0  0  0  0  0  0  0  0  0  0
   52.4918    1.5825   18.1768 H   0  0  0  0  0  0  0  0  0  0  0  0
   53.9788    2.5918   19.8879 H   0  0  0  0  0  0  0  0  0  0  0  0
   54.0121    5.0516   20.2042 H   0  0  0  0  0  0  0  0  0  0  0  0
   52.5722    6.5022   18.8193 H   0  0  0  0  0  0  0  0  0  0  0  0
   51.0451    3.0136   16.7854 H   0  0  0  0  0  0  0  0  0  0  0  0
   51.4094    6.6165   16.5294 H   0  0  0  0  0  0  0  0  0  0  0  0
   50.5376    5.2296   15.9315 H   0  0  0  0  0  0  0  0  0  0  0  0
   49.0801    6.9959   16.9637 H   0  0  0  0  0  0  0  0  0  0  0  0
   49.8675    6.7655   18.5160 H   0  0  0  0  0  0  0  0  0  0  0  0
   49.0247    4.4031   18.6145 H   0  0  0  0  0  0  0  0  0  0  0  0
   47.7248    5.5751   18.5044 H   0  0  0  0  0  0  0  0  0  0  0  0
   45.8125    4.3899   14.9445 H   0  0  0  0  0  0  0  0  0  0  0  0
   47.4157    3.9470   14.3397 H   0  0  0  0  0  0  0  0  0  0  0  0
   46.1670    6.7312   14.1005 H   0  0  0  0  0  0  0  0  0  0  0  0
   48.8042    6.4856   14.1092 H   0  0  0  0  0  0  0  0  0  0  0  0
   48.5977    5.5486   12.6297 H   0  0  0  0  0  0  0  0  0  0  0  0
   47.0701    9.6561   11.4775 H   0  0  0  0  0  0  0  0  0  0  0  0
   48.8280    9.8605   11.6031 H   0  0  0  0  0  0  0  0  0  0  0  0
   47.4543   11.9374   12.0810 H   0  0  0  0  0  0  0  0  0  0  0  0
   46.7323   11.1255   13.4624 H   0  0  0  0  0  0  0  0  0  0  0  0
   48.9243   11.0025   14.6112 H   0  0  0  0  0  0  0  0  0  0  0  0
   48.4935   12.6407   14.2090 H   0  0  0  0  0  0  0  0  0  0  0  0
   51.5940   13.9333   10.7687 H   0  0  0  0  0  0  0  0  0  0  0  0
   49.4453   13.6274   11.9475 H   0  0  0  0  0  0  0  0  0  0  0  0
   51.0677   10.1831   13.9780 H   0  0  0  0  0  0  0  0  0  0  0  0
   53.2094   10.5042   12.7919 H   0  0  0  0  0  0  0  0  0  0  0  0
   53.4790   12.3757   11.1849 H   0  0  0  0  0  0  0  0  0  0  0  0
   43.8111    4.9396   11.0189 H   0  0  0  0  0  0  0  0  0  0  0  0
   44.2306    6.2941    9.9609 H   0  0  0  0  0  0  0  0  0  0  0  0
   45.9846    3.8331   10.4706 H   0  0  0  0  0  0  0  0  0  0  0  0
   46.4873    5.2268    9.5297 H   0  0  0  0  0  0  0  0  0  0  0  0
   44.0224    3.4988    8.8909 H   0  0  0  0  0  0  0  0  0  0  0  0
   44.5939    4.8440    7.9237 H   0  0  0  0  0  0  0  0  0  0  0  0
   46.7205    4.6682    6.6192 H   0  0  0  0  0  0  0  0  0  0  0  0
   48.2539    3.1404    5.4305 H   0  0  0  0  0  0  0  0  0  0  0  0
   48.2790    0.7214    5.9763 H   0  0  0  0  0  0  0  0  0  0  0  0
   46.7611   -0.1705    7.7251 H   0  0  0  0  0  0  0  0  0  0  0  0
   45.2211    1.3414    8.9229 H   0  0  0  0  0  0  0  0  0  0  0  0
  1  2  2  0
  1  6  1  0
  2  3  1  0
  3  4  2  0
  4  5  1  0
  5  6  2  0
  5  7  1  0
  7  8  1  0
  8  9  1  0
  9 10  1  0
 10 11  2  0
 10 12  1  0
 12 13  1  0
 13 14  1  0
 14 15  1  0
 15 16  1  0
 16 17  1  0
 17 18  2  0
 17 19  1  0
 19 20  1  0
 20 21  1  0
 21 22  1  0
 24 22  1  0
 22 25  2  0
 23 24  2  0
 23 27  1  0
 25 26  1  0
 26 27  2  0
 14 28  1  0
 28 29  1  0
 29 30  2  0
 29 31  1  0
 31 32  1  0
 32 33  1  0
 33 34  1  0
 39 34  1  0
 35 34  2  0
 35 36  1  0
 36 37  2  0
 37 38  1  0
 38 39  2  0
  1 40  1  0
  2 41  1  0
  3 42  1  0
  4 43  1  0
  6 44  1  0
  7 45  1  0
  7 46  1  0
  8 47  1  0
  8 48  1  0
  9 49  1  0
  9 50  1  0
 13 51  1  0
 13 52  1  0
 14 53  1  0
 15 54  1  0
 15 55  1  0
 19 56  1  0
 19 57  1  0
 20 58  1  0
 20 59  1  0
 21 60  1  0
 21 61  1  0
 23 62  1  0
 24 63  1  0
 25 64  1  0
 26 65  1  0
 27 66  1  0
 31 67  1  0
 31 68  1  0
 32 69  1  0
 32 70  1  0
 33 71  1  0
 33 72  1  0
 35 73  1  0
 36 74  1  0
 37 75  1  0
 38 76  1  0
 39 77  1  0
M  END
> <Uni-Dock RESULT> 
ENERGY=   -8.295  LOWER_BOUND=    0.042  UPPER_BOUND=    0.042
INTER + INTRA:          -8.295
INTER:                  -8.295
INTRA:                   0.000
UNBOUND:                 0.000

$$$$

     RDKit          3D

 77 79  0  0  0  0  0  0  0  0999 V2000
   53.1098    4.0558   17.9025 C   0  0  0  0  0  0  0  0  0  0  0  0
   53.9419    4.7732   18.7599 C   0  0  0  0  0  0  0  0  0  0  0  0
   53.8294    6.1596   18.8393 C   0  0  0  0  0  0  0  0  0  0  0  0
   52.8844    6.8297   18.0610 C   0  0  0  0  0  0  0  0  0  0  0  0
   52.0443    6.1185   17.1929 C   0  0  0  0  0  0  0  0  0  0  0  0
   52.1649    4.7243   17.1222 C   0  0  0  0  0  0  0  0  0  0  0  0
   51.0188    6.8434   16.3595 C   0  0  0  0  0  0  0  0  0  0  0  0
   49.7781    7.2717   17.1523 C   0  0  0  0  0  0  0  0  0  0  0  0
   48.9203    6.1105   17.6576 C   0  0  0  0  0  0  0  0  0  0  0  0
   48.3683    5.2633   16.5381 C   0  0  0  0  0  0  0  0  0  0  0  0
   48.6081    4.0737   16.3887 O   0  0  0  0  0  0  0  0  0  0  0  0
   47.5698    6.0074   15.7297 O   0  0  0  0  0  0  0  0  0  0  0  0
   47.0043    5.3249   14.6019 C   0  0  0  0  0  0  0  0  0  0  0  0
   46.7341    6.3382   13.4856 C   0  0  0  0  0  0  0  0  0  0  0  0
   48.0640    6.8786   12.9290 C   0  0  0  0  0  0  0  0  0  0  0  0
   47.8619    7.9942   12.0436 O   0  0  0  0  0  0  0  0  0  0  0  0
   47.6146    9.1831   12.6671 C   0  0  0  0  0  0  0  0  0  0  0  0
   47.5883    9.3373   13.8806 O   0  0  0  0  0  0  0  0  0  0  0  0
   47.3878   10.2601   11.6333 C   0  0  0  0  0  0  0  0  0  0  0  0
   47.0473   11.6247   12.2381 C   0  0  0  0  0  0  0  0  0  0  0  0
   48.1860   12.2940   13.0198 C   0  0  0  0  0  0  0  0  0  0  0  0
   49.4204   12.5644   12.1962 C   0  0  0  0  0  0  0  0  0  0  0  0
   50.5575   13.8014   10.4434 C   0  0  0  0  0  0  0  0  0  0  0  0
   49.4154   13.5581   11.2079 C   0  0  0  0  0  0  0  0  0  0  0  0
   50.5902   11.8216   12.4074 C   0  0  0  0  0  0  0  0  0  0  0  0
   51.7312   12.0659   11.6417 C   0  0  0  0  0  0  0  0  0  0  0  0
   51.7146   13.0553   10.6601 C   0  0  0  0  0  0  0  0  0  0  0  0
   46.0196    5.6436   12.4370 O   0  0  0  0  0  0  0  0  0  0  0  0
   45.1822    6.3910   11.6690 C   0  0  0  0  0  0  0  0  0  0  0  0
   44.9491    7.5818   11.8254 O   0  0  0  0  0  0  0  0  0  0  0  0
   44.5084    5.5388   10.6209 C   0  0  0  0  0  0  0  0  0  0  0  0
   45.5021    4.6965    9.8254 C   0  0  0  0  0  0  0  0  0  0  0  0
   44.8069    3.9442    8.6899 C   0  0  0  0  0  0  0  0  0  0  0  0
   45.7708    3.0551    7.9457 C   0  0  0  0  0  0  0  0  0  0  0  0
   46.5149    3.5558    6.8692 C   0  0  0  0  0  0  0  0  0  0  0  0
   47.4221    2.7362    6.1956 C   0  0  0  0  0  0  0  0  0  0  0  0
   47.5971    1.4122    6.5939 C   0  0  0  0  0  0  0  0  0  0  0  0
   46.8661    0.9064    7.6674 C   0  0  0  0  0  0  0  0  0  0  0  0
   45.9581    1.7239    8.3419 C   0  0  0  0  0  0  0  0  0  0  0  0
   53.1944    2.9737   17.8416 H   0  0  0  0  0  0  0  0  0  0  0  0
   54.6780    4.2515   19.3659 H   0  0  0  0  0  0  0  0  0  0  0  0
   54.4780    6.7196   19.5078 H   0  0  0  0  0  0  0  0  0  0  0  0
   52.8087    7.9122   18.1341 H   0  0  0  0  0  0  0  0  0  0  0  0
   51.5199    4.1457   16.4632 H   0  0  0  0  0  0  0  0  0  0  0  0
   51.4931    7.7369   15.9325 H   0  0  0  0  0  0  0  0  0  0  0  0
   50.7317    6.2296   15.4971 H   0  0  0  0  0  0  0  0  0  0  0  0
   49.1704    7.9179   16.5077 H   0  0  0  0  0  0  0  0  0  0  0  0
   50.0773    7.8850   18.0109 H   0  0  0  0  0  0  0  0  0  0  0  0
   49.4909    5.4656   18.3339 H   0  0  0  0  0  0  0  0  0  0  0  0
   48.0726    6.4927   18.2377 H   0  0  0  0  0  0  0  0  0  0  0  0
   46.0641    4.8575   14.9169 H   0  0  0  0  0  0  0  0  0  0  0  0
   47.6615    4.5292   14.2293 H   0  0  0  0  0  0  0  0  0  0  0  0
   46.1194    7.1512   13.8892 H   0  0  0  0  0  0  0  0  0  0  0  0
   48.7626    7.1668   13.7231 H   0  0  0  0  0  0  0  0  0  0  0  0
   48.5577    6.1040   12.3310 H   0  0  0  0  0  0  0  0  0  0  0  0
   46.5425    9.9419   11.0112 H   0  0  0  0  0  0  0  0  0  0  0  0
   48.2743   10.3268   10.9941 H   0  0  0  0  0  0  0  0  0  0  0  0
   46.7279   12.2893   11.4257 H   0  0  0  0  0  0  0  0  0  0  0  0
   46.1854   11.5182   12.9088 H   0  0  0  0  0  0  0  0  0  0  0  0
   48.4488   11.6988   13.9009 H   0  0  0  0  0  0  0  0  0  0  0  0
   47.8259   13.2513   13.4185 H   0  0  0  0  0  0  0  0  0  0  0  0
   50.5449   14.5757    9.6806 H   0  0  0  0  0  0  0  0  0  0  0  0
   48.5210   14.1513   11.0309 H   0  0  0  0  0  0  0  0  0  0  0  0
   50.6193   11.0477   13.1718 H   0  0  0  0  0  0  0  0  0  0  0  0
   52.6343   11.4860   11.8137 H   0  0  0  0  0  0  0  0  0  0  0  0
   52.6038   13.2468   10.0655 H   0  0  0  0  0  0  0  0  0  0  0  0
   43.7644    4.9073   11.1187 H   0  0  0  0  0  0  0  0  0  0  0  0
   43.9718    6.2118    9.9417 H   0  0  0  0  0  0  0  0  0  0  0  0
   45.9999    3.9808   10.4917 H   0  0  0  0  0  0  0  0  0  0  0  0
   46.2936    5.3413    9.4224 H   0  0  0  0  0  0  0  0  0  0  0  0
   43.9837    3.3361    9.0859 H   0  0  0  0  0  0  0  0  0  0  0  0
   44.3488    4.6532    7.9889 H   0  0  0  0  0  0  0  0  0  0  0  0
   46.3924    4.5879    6.5485 H   0  0  0  0  0  0  0  0  0  0  0  0
   47.9942    3.1317    5.3601 H   0  0  0  0  0  0  0  0  0  0  0  0
   48.3043    0.7755    6.0688 H   0  0  0  0  0  0  0  0  0  0  0  0
   47.0041   -0.1250    7.9810 H   0  0  0  0  0  0  0  0  0  0  0  0
   45.3979    1.3155    9.1801 H   0  0  0  0  0  0  0  0  0  0  0  0
  1  2  2  0
  1  6  1  0
  2  3  1  0
  3  4  2  0
  4  5  1  0
  5  6  2  0
  5  7  1  0
  7  8  1  0
  8  9  1  0
  9 10  1  0
 10 11  2  0
 10 12  1  0
 12 13  1  0
 13 14  1  0
 14 15  1  0
 15 16  1  0
 16 17  1  0
 17 18  2  0
 17 19  1  0
 19 20  1  0
 20 21  1  0
 21 22  1  0
 24 22  1  0
 22 25  2  0
 23 24  2  0
 23 27  1  0
 25 26  1  0
 26 27  2  0
 14 28  1  0
 28 29  1  0
 29 30  2  0
 29 31  1  0
 31 32  1  0
 32 33  1  0
 33 34  1  0
 39 34  1  0
 35 34  2  0
 35 36  1  0
 36 37  2  0
 37 38  1  0
 38 39  2  0
  1 40  1  0
  2 41  1  0
  3 42  1  0
  4 43  1  0
  6 44  1  0
  7 45  1  0
  7 46  1  0
  8 47  1  0
  8 48  1  0
  9 49  1  0
  9 50  1  0
 13 51  1  0
 13 52  1  0
 14 53  1  0
 15 54  1  0
 15 55  1  0
 19 56  1  0
 19 57  1  0
 20 58  1  0
 20 59  1  0
 21 60  1  0
 21 61  1  0
 23 62  1  0
 24 63  1  0
 25 64  1  0
 26 65  1  0
 27 66  1  0
 31 67  1  0
 31 68  1  0
 32 69  1  0
 32 70  1  0
 33 71  1  0
 33 72  1  0
 35 73  1  0
 36 74  1  0
 37 75  1  0
 38 76  1  0
 39 77  1  0
M  END
> <Uni-Dock RESULT> 
ENERGY=   -7.260  LOWER_BOUND=    0.839  UPPER_BOUND=    0.969
INTER + INTRA:          -7.260
INTER:                  -7.260
INTRA:                   0.000
UNBOUND:                 0.000

$$$$

     RDKit          3D

 77 79  0  0  0  0  0  0  0  0999 V2000
   53.4621    2.9213   18.7128 C   0  0  0  0  0  0  0  0  0  0  0  0
   54.7299    3.1449   19.2464 C   0  0  0  0  0  0  0  0  0  0  0  0
   55.3985    4.3366   18.9747 C   0  0  0  0  0  0  0  0  0  0  0  0
   54.7995    5.3059   18.1687 C   0  0  0  0  0  0  0  0  0  0  0  0
   53.5258    5.0903   17.6242 C   0  0  0  0  0  0  0  0  0  0  0  0
   52.8618    3.8890   17.9054 C   0  0  0  0  0  0  0  0  0  0  0  0
   52.8774    6.1420   16.7609 C   0  0  0  0  0  0  0  0  0  0  0  0
   52.2986    7.3167   17.5586 C   0  0  0  0  0  0  0  0  0  0  0  0
   51.1101    6.9503   18.4490 C   0  0  0  0  0  0  0  0  0  0  0  0
   49.9347    6.4227   17.6643 C   0  0  0  0  0  0  0  0  0  0  0  0
   49.4568    5.3059   17.8022 O   0  0  0  0  0  0  0  0  0  0  0  0
   49.4862    7.3628   16.7925 O   0  0  0  0  0  0  0  0  0  0  0  0
   48.3857    6.9743   15.9585 C   0  0  0  0  0  0  0  0  0  0  0  0
   48.4320    7.7818   14.6578 C   0  0  0  0  0  0  0  0  0  0  0  0
   49.6582    7.3695   13.8230 C   0  0  0  0  0  0  0  0  0  0  0  0
   49.8712    8.2538   12.7086 O   0  0  0  0  0  0  0  0  0  0  0  0
   50.4600    9.4438   13.0258 C   0  0  0  0  0  0  0  0  0  0  0  0
   50.8212    9.7605   14.1511 O   0  0  0  0  0  0  0  0  0  0  0  0
   50.5957   10.2896   11.7823 C   0  0  0  0  0  0  0  0  0  0  0  0
   51.1983   11.6718   12.0470 C   0  0  0  0  0  0  0  0  0  0  0  0
   52.6697   11.6691   12.4837 C   0  0  0  0  0  0  0  0  0  0  0  0
   53.6086   11.0555   11.4751 C   0  0  0  0  0  0  0  0  0  0  0  0
   54.7548   11.1396    9.3364 C   0  0  0  0  0  0  0  0  0  0  0  0
   53.8905   11.7132   10.2701 C   0  0  0  0  0  0  0  0  0  0  0  0
   54.2104    9.8154   11.7296 C   0  0  0  0  0  0  0  0  0  0  0  0
   55.0741    9.2431   10.7946 C   0  0  0  0  0  0  0  0  0  0  0  0
   55.3460    9.9050    9.5985 C   0  0  0  0  0  0  0  0  0  0  0  0
   47.2241    7.4809   13.9209 O   0  0  0  0  0  0  0  0  0  0  0  0
   46.7559    8.4519   13.0916 C   0  0  0  0  0  0  0  0  0  0  0  0
   47.2416    9.5669   12.9592 O   0  0  0  0  0  0  0  0  0  0  0  0
   45.4970    8.0008   12.3914 C   0  0  0  0  0  0  0  0  0  0  0  0
   45.6543    6.6349   11.7288 C   0  0  0  0  0  0  0  0  0  0  0  0
   44.4097    6.2637   10.9213 C   0  0  0  0  0  0  0  0  0  0  0  0
   44.5307    4.8847   10.3238 C   0  0  0  0  0  0  0  0  0  0  0  0
   45.1335    4.7017    9.0722 C   0  0  0  0  0  0  0  0  0  0  0  0
   45.2630    3.4216    8.5310 C   0  0  0  0  0  0  0  0  0  0  0  0
   44.7963    2.3139    9.2365 C   0  0  0  0  0  0  0  0  0  0  0  0
   44.2007    2.4849   10.4849 C   0  0  0  0  0  0  0  0  0  0  0  0
   44.0696    3.7640   11.0276 C   0  0  0  0  0  0  0  0  0  0  0  0
   52.9379    1.9932   18.9263 H   0  0  0  0  0  0  0  0  0  0  0  0
   55.1966    2.3901   19.8739 H   0  0  0  0  0  0  0  0  0  0  0  0
   56.3873    4.5115   19.3906 H   0  0  0  0  0  0  0  0  0  0  0  0
   55.3341    6.2310   17.9658 H   0  0  0  0  0  0  0  0  0  0  0  0
   51.8684    3.6984   17.5029 H   0  0  0  0  0  0  0  0  0  0  0  0
   53.6322    6.5252   16.0617 H   0  0  0  0  0  0  0  0  0  0  0  0
   52.1043    5.6873   16.1296 H   0  0  0  0  0  0  0  0  0  0  0  0
   51.9927    8.0921   16.8462 H   0  0  0  0  0  0  0  0  0  0  0  0
   53.0802    7.7635   18.1850 H   0  0  0  0  0  0  0  0  0  0  0  0
   51.3946    6.2020   19.1959 H   0  0  0  0  0  0  0  0  0  0  0  0
   50.7721    7.8306   19.0074 H   0  0  0  0  0  0  0  0  0  0  0  0
   47.4539    7.1857   16.4957 H   0  0  0  0  0  0  0  0  0  0  0  0
   48.4003    5.9014   15.7296 H   0  0  0  0  0  0  0  0  0  0  0  0
   48.4686    8.8487   14.9068 H   0  0  0  0  0  0  0  0  0  0  0  0
   50.5734    7.3153   14.4241 H   0  0  0  0  0  0  0  0  0  0  0  0
   49.4962    6.3747   13.3925 H   0  0  0  0  0  0  0  0  0  0  0  0
   49.5885   10.4292   11.3715 H   0  0  0  0  0  0  0  0  0  0  0  0
   51.1902    9.7393   11.0455 H   0  0  0  0  0  0  0  0  0  0  0  0
   51.0938   12.2715   11.1343 H   0  0  0  0  0  0  0  0  0  0  0  0
   50.6103   12.1805   12.8214 H   0  0  0  0  0  0  0  0  0  0  0  0
   52.7824   11.1679   13.4510 H   0  0  0  0  0  0  0  0  0  0  0  0
   52.9880   12.7049   12.6596 H   0  0  0  0  0  0  0  0  0  0  0  0
   54.9693   11.6582    8.4054 H   0  0  0  0  0  0  0  0  0  0  0  0
   53.4400   12.6794   10.0540 H   0  0  0  0  0  0  0  0  0  0  0  0
   54.0099    9.2879   12.6600 H   0  0  0  0  0  0  0  0  0  0  0  0
   55.5374    8.2818   11.0013 H   0  0  0  0  0  0  0  0  0  0  0  0
   56.0202    9.4602    8.8716 H   0  0  0  0  0  0  0  0  0  0  0  0
   44.6814    7.9940   13.1227 H   0  0  0  0  0  0  0  0  0  0  0  0
   45.2543    8.7518   11.6302 H   0  0  0  0  0  0  0  0  0  0  0  0
   45.8397    5.8700   12.4934 H   0  0  0  0  0  0  0  0  0  0  0  0
   46.5388    6.6389   11.0791 H   0  0  0  0  0  0  0  0  0  0  0  0
   43.5174    6.3064   11.5586 H   0  0  0  0  0  0  0  0  0  0  0  0
   44.2444    6.9953   10.1204 H   0  0  0  0  0  0  0  0  0  0  0  0
   45.5059    5.5555    8.5108 H   0  0  0  0  0  0  0  0  0  0  0  0
   45.7302    3.2881    7.5584 H   0  0  0  0  0  0  0  0  0  0  0  0
   44.8986    1.3178    8.8140 H   0  0  0  0  0  0  0  0  0  0  0  0
   43.8394    1.6216   11.0374 H   0  0  0  0  0  0  0  0  0  0  0  0
   43.6059    3.8804   12.0046 H   0  0  0  0  0  0  0  0  0  0  0  0
  1  2  2  0
  1  6  1  0
  2  3  1  0
  3  4  2  0
  4  5  1  0
  5  6  2  0
  5  7  1  0
  7  8  1  0
  8  9  1  0
  9 10  1  0
 10 11  2  0
 10 12  1  0
 12 13  1  0
 13 14  1  0
 14 15  1  0
 15 16  1  0
 16 17  1  0
 17 18  2  0
 17 19  1  0
 19 20  1  0
 20 21  1  0
 21 22  1  0
 24 22  1  0
 22 25  2  0
 23 24  2  0
 23 27  1  0
 25 26  1  0
 26 27  2  0
 14 28  1  0
 28 29  1  0
 29 30  2  0
 29 31  1  0
 31 32  1  0
 32 33  1  0
 33 34  1  0
 39 34  1  0
 35 34  2  0
 35 36  1  0
 36 37  2  0
 37 38  1  0
 38 39  2  0
  1 40  1  0
  2 41  1  0
  3 42  1  0
  4 43  1  0
  6 44  1  0
  7 45  1  0
  7 46  1  0
  8 47  1  0
  8 48  1  0
  9 49  1  0
  9 50  1  0
 13 51  1  0
 13 52  1  0
 14 53  1  0
 15 54  1  0
 15 55  1  0
 19 56  1  0
 19 57  1  0
 20 58  1  0
 20 59  1  0
 21 60  1  0
 21 61  1  0
 23 62  1  0
 24 63  1  0
 25 64  1  0
 26 65  1  0
 27 66  1  0
 31 67  1  0
 31 68  1  0
 32 69  1  0
 32 70  1  0
 33 71  1  0
 33 72  1  0
 35 73  1  0
 36 74  1  0
 37 75  1  0
 38 76  1  0
 39 77  1  0
M  END
> <Uni-Dock RESULT> 
ENERGY=   -5.354  LOWER_BOUND=    2.025  UPPER_BOUND=    3.117
INTER + INTRA:          -5.354
INTER:                  -5.354
INTRA:                   0.000
UNBOUND:                 0.000

$$$$
