
     RDKit          3D

 77 79  0  0  0  0  0  0  0  0999 V2000
   51.4290    6.9286   19.4100 C   0  0  0  0  0  0  0  0  0  0  0  0
   51.9274    7.3560   20.6383 C   0  0  0  0  0  0  0  0  0  0  0  0
   51.0840    7.9956   21.5445 C   0  0  0  0  0  0  0  0  0  0  0  0
   49.7425    8.2107   21.2221 C   0  0  0  0  0  0  0  0  0  0  0  0
   49.2337    7.7991   19.9826 C   0  0  0  0  0  0  0  0  0  0  0  0
   50.0905    7.1504   19.0822 C   0  0  0  0  0  0  0  0  0  0  0  0
   47.7842    8.0156   19.6236 C   0  0  0  0  0  0  0  0  0  0  0  0
   47.3217    9.4804   19.6488 C   0  0  0  0  0  0  0  0  0  0  0  0
   48.1535   10.4401   18.7951 C   0  0  0  0  0  0  0  0  0  0  0  0
   48.1759   10.0721   17.3322 C   0  0  0  0  0  0  0  0  0  0  0  0
   47.3489    9.3753   16.7618 O   0  0  0  0  0  0  0  0  0  0  0  0
   49.2511   10.6554   16.7296 O   0  0  0  0  0  0  0  0  0  0  0  0
   49.4401   10.2992   15.3457 C   0  0  0  0  0  0  0  0  0  0  0  0
   50.2267    8.9822   15.2483 C   0  0  0  0  0  0  0  0  0  0  0  0
   50.2032    8.4324   13.8156 C   0  0  0  0  0  0  0  0  0  0  0  0
   48.8648    8.2796   13.3128 O   0  0  0  0  0  0  0  0  0  0  0  0
   48.1678    7.2195   13.8107 C   0  0  0  0  0  0  0  0  0  0  0  0
   48.6067    6.3946   14.5983 O   0  0  0  0  0  0  0  0  0  0  0  0
   46.7748    7.1879   13.2409 C   0  0  0  0  0  0  0  0  0  0  0  0
   46.6536    6.0789   12.2042 C   0  0  0  0  0  0  0  0  0  0  0  0
   45.2449    6.0255   11.6133 C   0  0  0  0  0  0  0  0  0  0  0  0
   45.1115    4.9193   10.5974 C   0  0  0  0  0  0  0  0  0  0  0  0
   45.3561    4.1054    8.3238 C   0  0  0  0  0  0  0  0  0  0  0  0
   45.4594    5.1376    9.2578 C   0  0  0  0  0  0  0  0  0  0  0  0
   44.6682    3.6481   10.9867 C   0  0  0  0  0  0  0  0  0  0  0  0
   44.5646    2.6178   10.0513 C   0  0  0  0  0  0  0  0  0  0  0  0
   44.9095    2.8463    8.7203 C   0  0  0  0  0  0  0  0  0  0  0  0
   51.5826    9.2819   15.6615 O   0  0  0  0  0  0  0  0  0  0  0  0
   52.3573    8.2274   16.0244 C   0  0  0  0  0  0  0  0  0  0  0  0
   52.0279    7.0525   15.9555 O   0  0  0  0  0  0  0  0  0  0  0  0
   53.6817    8.6969   16.5696 C   0  0  0  0  0  0  0  0  0  0  0  0
   54.4421    9.5551   15.5637 C   0  0  0  0  0  0  0  0  0  0  0  0
   55.8416    9.8962   16.0778 C   0  0  0  0  0  0  0  0  0  0  0  0
   56.5772   10.8096   15.1294 C   0  0  0  0  0  0  0  0  0  0  0  0
   56.5888   12.1945   15.3428 C   0  0  0  0  0  0  0  0  0  0  0  0
   57.2624   13.0405   14.4604 C   0  0  0  0  0  0  0  0  0  0  0  0
   57.9246   12.5114   13.3541 C   0  0  0  0  0  0  0  0  0  0  0  0
   57.9128   11.1361   13.1284 C   0  0  0  0  0  0  0  0  0  0  0  0
   57.2411   10.2883   14.0105 C   0  0  0  0  0  0  0  0  0  0  0  0
   52.0756    6.4118   18.7047 H   0  0  0  0  0  0  0  0  0  0  0  0
   52.9681    7.1785   20.8940 H   0  0  0  0  0  0  0  0  0  0  0  0
   51.4685    8.3186   22.5086 H   0  0  0  0  0  0  0  0  0  0  0  0
   49.0964    8.6962   21.9494 H   0  0  0  0  0  0  0  0  0  0  0  0
   49.7221    6.8003   18.1181 H   0  0  0  0  0  0  0  0  0  0  0  0
   47.1713    7.4376   20.3275 H   0  0  0  0  0  0  0  0  0  0  0  0
   47.5768    7.5849   18.6367 H   0  0  0  0  0  0  0  0  0  0  0  0
   47.3277    9.8492   20.6820 H   0  0  0  0  0  0  0  0  0  0  0  0
   46.2757    9.5130   19.3182 H   0  0  0  0  0  0  0  0  0  0  0  0
   49.1822   10.4736   19.1694 H   0  0  0  0  0  0  0  0  0  0  0  0
   47.7363   11.4501   18.8746 H   0  0  0  0  0  0  0  0  0  0  0  0
   48.4726   10.2603   14.8335 H   0  0  0  0  0  0  0  0  0  0  0  0
   50.0132   11.1170   14.8947 H   0  0  0  0  0  0  0  0  0  0  0  0
   49.7946    8.2620   15.9521 H   0  0  0  0  0  0  0  0  0  0  0  0
   50.7224    9.1282   13.1456 H   0  0  0  0  0  0  0  0  0  0  0  0
   50.7477    7.4847   13.7291 H   0  0  0  0  0  0  0  0  0  0  0  0
   46.0753    7.0389   14.0711 H   0  0  0  0  0  0  0  0  0  0  0  0
   46.5348    8.1624   12.7997 H   0  0  0  0  0  0  0  0  0  0  0  0
   47.3917    6.2375   11.4070 H   0  0  0  0  0  0  0  0  0  0  0  0
   46.9052    5.1146   12.6644 H   0  0  0  0  0  0  0  0  0  0  0  0
   44.5065    5.8794   12.4117 H   0  0  0  0  0  0  0  0  0  0  0  0
   44.9940    6.9838   11.1415 H   0  0  0  0  0  0  0  0  0  0  0  0
   45.6270    4.2829    7.2868 H   0  0  0  0  0  0  0  0  0  0  0  0
   45.8134    6.1134    8.9347 H   0  0  0  0  0  0  0  0  0  0  0  0
   44.4008    3.4534   12.0238 H   0  0  0  0  0  0  0  0  0  0  0  0
   44.2187    1.6353   10.3625 H   0  0  0  0  0  0  0  0  0  0  0  0
   44.8305    2.0430    7.9933 H   0  0  0  0  0  0  0  0  0  0  0  0
   54.2707    7.8075   16.8235 H   0  0  0  0  0  0  0  0  0  0  0  0
   53.4984    9.2428   17.5015 H   0  0  0  0  0  0  0  0  0  0  0  0
   54.5103    9.0267   14.6041 H   0  0  0  0  0  0  0  0  0  0  0  0
   53.8831   10.4787   15.3648 H   0  0  0  0  0  0  0  0  0  0  0  0
   55.7751   10.3701   17.0653 H   0  0  0  0  0  0  0  0  0  0  0  0
   56.4277    8.9795   16.2219 H   0  0  0  0  0  0  0  0  0  0  0  0
   56.0757   12.6230   16.2011 H   0  0  0  0  0  0  0  0  0  0  0  0
   57.2719   14.1125   14.6376 H   0  0  0  0  0  0  0  0  0  0  0  0
   58.4530   13.1691   12.6702 H   0  0  0  0  0  0  0  0  0  0  0  0
   58.4289   10.7221   12.2661 H   0  0  0  0  0  0  0  0  0  0  0  0
   57.2411    9.2168   13.8217 H   0  0  0  0  0  0  0  0  0  0  0  0
  1  2  2  0
  1  6  1  0
  2  3  1  0
  3  4  2  0
  4  5  1  0
  5  6  2  0
  5  7  1  0
  7  8  1  0
  8  9  1  0
  9 10  1  0
 10 11  2  0
 10 12  1  0
 12 13  1  0
 13 14  1  0
 14 15  1  0
 15 16  1  0
 16 17  1  0
 17 18  2  0
 17 19  1  0
 19 20  1  0
 20 21  1  0
 21 22  1  0
 24 22  1  0
 22 25  2  0
 23 24  2  0
 23 27  1  0
 25 26  1  0
 26 27  2  0
 14 28  1  0
 28 29  1  0
 29 30  2  0
 29 31  1  0
 31 32  1  0
 32 33  1  0
 33 34  1  0
 39 34  1  0
 35 34  2  0
 35 36  1  0
 36 37  2  0
 37 38  1  0
 38 39  2  0
  1 40  1  0
  2 41  1  0
  3 42  1  0
  4 43  1  0
  6 44  1  0
  7 45  1  0
  7 46  1  0
  8 47  1  0
  8 48  1  0
  9 49  1  0
  9 50  1  0
 13 51  1  0
 13 52  1  0
 14 53  1  0
 15 54  1  0
 15 55  1  0
 19 56  1  0
 19 57  1  0
 20 58  1  0
 20 59  1  0
 21 60  1  0
 21 61  1  0
 23 62  1  0
 24 63  1  0
 25 64  1  0
 26 65  1  0
 27 66  1  0
 31 67  1  0
 31 68  1  0
 32 69  1  0
 32 70  1  0
 33 71  1  0
 33 72  1  0
 35 73  1  0
 36 74  1  0
 37 75  1  0
 38 76  1  0
 39 77  1  0
M  END
> <Uni-Dock RESULT> 
ENERGY=   -5.122  LOWER_BOUND=    0.000  UPPER_BOUND=    0.000
INTER + INTRA:          -5.122
INTER:                  -5.122
INTRA:                   0.000
UNBOUND:                 0.000

$$$$

     RDKit          3D

 77 79  0  0  0  0  0  0  0  0999 V2000
   47.0684   11.5562   18.8381 C   0  0  0  0  0  0  0  0  0  0  0  0
   47.1753   11.6159   20.2255 C   0  0  0  0  0  0  0  0  0  0  0  0
   47.8824   12.6577   20.8225 C   0  0  0  0  0  0  0  0  0  0  0  0
   48.4851   13.6388   20.0326 C   0  0  0  0  0  0  0  0  0  0  0  0
   48.3976   13.5803   18.6349 C   0  0  0  0  0  0  0  0  0  0  0  0
   47.6776   12.5310   18.0464 C   0  0  0  0  0  0  0  0  0  0  0  0
   49.0351   14.6382   17.7683 C   0  0  0  0  0  0  0  0  0  0  0  0
   50.5519   14.7994   17.9519 C   0  0  0  0  0  0  0  0  0  0  0  0
   51.3677   13.5157   17.7830 C   0  0  0  0  0  0  0  0  0  0  0  0
   51.2130   12.8843   16.4216 C   0  0  0  0  0  0  0  0  0  0  0  0
   50.8441   13.4607   15.4084 O   0  0  0  0  0  0  0  0  0  0  0  0
   51.5706   11.5699   16.4831 O   0  0  0  0  0  0  0  0  0  0  0  0
   51.3725   10.8279   15.2632 C   0  0  0  0  0  0  0  0  0  0  0  0
   49.9216   10.3259   15.1874 C   0  0  0  0  0  0  0  0  0  0  0  0
   49.6013    9.7797   13.7894 C   0  0  0  0  0  0  0  0  0  0  0  0
   49.8770   10.7384   12.7537 O   0  0  0  0  0  0  0  0  0  0  0  0
   48.9791   11.7577   12.6429 C   0  0  0  0  0  0  0  0  0  0  0  0
   47.9670   11.8820   13.3164 O   0  0  0  0  0  0  0  0  0  0  0  0
   49.3941   12.7120   11.5551 C   0  0  0  0  0  0  0  0  0  0  0  0
   48.5107   12.5302   10.3281 C   0  0  0  0  0  0  0  0  0  0  0  0
   48.9119   13.4922    9.2100 C   0  0  0  0  0  0  0  0  0  0  0  0
   48.0314   13.3302    7.9968 C   0  0  0  0  0  0  0  0  0  0  0  0
   47.5048   12.2080    5.9099 C   0  0  0  0  0  0  0  0  0  0  0  0
   48.3339   12.3712    7.0209 C   0  0  0  0  0  0  0  0  0  0  0  0
   46.8803   14.1151    7.8455 C   0  0  0  0  0  0  0  0  0  0  0  0
   46.0533   13.9511    6.7335 C   0  0  0  0  0  0  0  0  0  0  0  0
   46.3651   12.9971    5.7665 C   0  0  0  0  0  0  0  0  0  0  0  0
   49.7941    9.2853   16.1873 O   0  0  0  0  0  0  0  0  0  0  0  0
   48.5332    8.9609   16.5731 C   0  0  0  0  0  0  0  0  0  0  0  0
   47.5076    9.4185   16.0913 O   0  0  0  0  0  0  0  0  0  0  0  0
   48.5578    7.9793   17.7167 C   0  0  0  0  0  0  0  0  0  0  0  0
   49.3165    6.7051   17.3601 C   0  0  0  0  0  0  0  0  0  0  0  0
   49.2030    5.6660   18.4766 C   0  0  0  0  0  0  0  0  0  0  0  0
   50.0131    4.4304   18.1733 C   0  0  0  0  0  0  0  0  0  0  0  0
   51.3028    4.2797   18.7002 C   0  0  0  0  0  0  0  0  0  0  0  0
   52.0556    3.1401   18.4126 C   0  0  0  0  0  0  0  0  0  0  0  0
   51.5295    2.1445   17.5915 C   0  0  0  0  0  0  0  0  0  0  0  0
   50.2507    2.2880   17.0562 C   0  0  0  0  0  0  0  0  0  0  0  0
   49.4957    3.4260   17.3437 C   0  0  0  0  0  0  0  0  0  0  0  0
   46.5026   10.7571   18.3648 H   0  0  0  0  0  0  0  0  0  0  0  0
   46.6968   10.8591   20.8405 H   0  0  0  0  0  0  0  0  0  0  0  0
   47.9561   12.7126   21.9056 H   0  0  0  0  0  0  0  0  0  0  0  0
   49.0179   14.4530   20.5178 H   0  0  0  0  0  0  0  0  0  0  0  0
   47.5737   12.4668   16.9635 H   0  0  0  0  0  0  0  0  0  0  0  0
   48.5470   15.5962   17.9897 H   0  0  0  0  0  0  0  0  0  0  0  0
   48.8151   14.4373   16.7130 H   0  0  0  0  0  0  0  0  0  0  0  0
   50.7594   15.2076   18.9489 H   0  0  0  0  0  0  0  0  0  0  0  0
   50.9038   15.5511   17.2339 H   0  0  0  0  0  0  0  0  0  0  0  0
   51.0773   12.7878   18.5479 H   0  0  0  0  0  0  0  0  0  0  0  0
   52.4307   13.7411   17.9230 H   0  0  0  0  0  0  0  0  0  0  0  0
   51.6607   11.4399   14.4016 H   0  0  0  0  0  0  0  0  0  0  0  0
   52.0652    9.9798   15.3049 H   0  0  0  0  0  0  0  0  0  0  0  0
   49.2502   11.1512   15.4495 H   0  0  0  0  0  0  0  0  0  0  0  0
   50.2219    8.8985   13.5871 H   0  0  0  0  0  0  0  0  0  0  0  0
   48.5652    9.4296   13.7113 H   0  0  0  0  0  0  0  0  0  0  0  0
   49.3207   13.7297   11.9548 H   0  0  0  0  0  0  0  0  0  0  0  0
   50.4488   12.5488   11.3043 H   0  0  0  0  0  0  0  0  0  0  0  0
   48.5784   11.4925    9.9758 H   0  0  0  0  0  0  0  0  0  0  0  0
   47.4600   12.6903   10.6029 H   0  0  0  0  0  0  0  0  0  0  0  0
   48.8560   14.5286    9.5663 H   0  0  0  0  0  0  0  0  0  0  0  0
   49.9582   13.3272    8.9239 H   0  0  0  0  0  0  0  0  0  0  0  0
   47.7467   11.4628    5.1572 H   0  0  0  0  0  0  0  0  0  0  0  0
   49.2173   11.7456    7.1215 H   0  0  0  0  0  0  0  0  0  0  0  0
   46.6211   14.8602    8.5955 H   0  0  0  0  0  0  0  0  0  0  0  0
   45.1631   14.5654    6.6243 H   0  0  0  0  0  0  0  0  0  0  0  0
   45.7196   12.8687    4.9023 H   0  0  0  0  0  0  0  0  0  0  0  0
   47.5185    7.7376   17.9696 H   0  0  0  0  0  0  0  0  0  0  0  0
   48.9981    8.4748   18.5888 H   0  0  0  0  0  0  0  0  0  0  0  0
   48.9269    6.2939   16.4199 H   0  0  0  0  0  0  0  0  0  0  0  0
   50.3730    6.9401   17.1762 H   0  0  0  0  0  0  0  0  0  0  0  0
   49.5363    6.0980   19.4287 H   0  0  0  0  0  0  0  0  0  0  0  0
   48.1537    5.3808   18.6255 H   0  0  0  0  0  0  0  0  0  0  0  0
   51.7281    5.0485   19.3419 H   0  0  0  0  0  0  0  0  0  0  0  0
   53.0522    3.0286   18.8311 H   0  0  0  0  0  0  0  0  0  0  0  0
   52.1132    1.2554   17.3717 H   0  0  0  0  0  0  0  0  0  0  0  0
   49.8391    1.5123   16.4157 H   0  0  0  0  0  0  0  0  0  0  0  0
   48.4988    3.5238   16.9192 H   0  0  0  0  0  0  0  0  0  0  0  0
  1  2  2  0
  1  6  1  0
  2  3  1  0
  3  4  2  0
  4  5  1  0
  5  6  2  0
  5  7  1  0
  7  8  1  0
  8  9  1  0
  9 10  1  0
 10 11  2  0
 10 12  1  0
 12 13  1  0
 13 14  1  0
 14 15  1  0
 15 16  1  0
 16 17  1  0
 17 18  2  0
 17 19  1  0
 19 20  1  0
 20 21  1  0
 21 22  1  0
 24 22  1  0
 22 25  2  0
 23 24  2  0
 23 27  1  0
 25 26  1  0
 26 27  2  0
 14 28  1  0
 28 29  1  0
 29 30  2  0
 29 31  1  0
 31 32  1  0
 32 33  1  0
 33 34  1  0
 39 34  1  0
 35 34  2  0
 35 36  1  0
 36 37  2  0
 37 38  1  0
 38 39  2  0
  1 40  1  0
  2 41  1  0
  3 42  1  0
  4 43  1  0
  6 44  1  0
  7 45  1  0
  7 46  1  0
  8 47  1  0
  8 48  1  0
  9 49  1  0
  9 50  1  0
 13 51  1  0
 13 52  1  0
 14 53  1  0
 15 54  1  0
 15 55  1  0
 19 56  1  0
 19 57  1  0
 20 58  1  0
 20 59  1  0
 21 60  1  0
 21 61  1  0
 23 62  1  0
 24 63  1  0
 25 64  1  0
 26 65  1  0
 27 66  1  0
 31 67  1  0
 31 68  1  0
 32 69  1  0
 32 70  1  0
 33 71  1  0
 33 72  1  0
 35 73  1  0
 36 74  1  0
 37 75  1  0
 38 76  1  0
 39 77  1  0
M  END
> <Uni-Dock RESULT> 
ENERGY=   -5.063  LOWER_BOUND=    4.834  UPPER_BOUND=    7.472
INTER + INTRA:          -5.063
INTER:                  -5.063
INTRA:                   0.000
UNBOUND:                 0.000

$$$$

     RDKit          3D

 77 79  0  0  0  0  0  0  0  0999 V2000
   47.0672   11.5467   18.8454 C   0  0  0  0  0  0  0  0  0  0  0  0
   47.1731   11.6051   20.2329 C   0  0  0  0  0  0  0  0  0  0  0  0
   47.8788   12.6470   20.8314 C   0  0  0  0  0  0  0  0  0  0  0  0
   48.4811   13.6294   20.0429 C   0  0  0  0  0  0  0  0  0  0  0  0
   48.3946   13.5722   18.6451 C   0  0  0  0  0  0  0  0  0  0  0  0
   47.6759   12.5229   18.0551 C   0  0  0  0  0  0  0  0  0  0  0  0
   49.0317   14.6316   17.7800 C   0  0  0  0  0  0  0  0  0  0  0  0
   50.5483   14.7939   17.9647 C   0  0  0  0  0  0  0  0  0  0  0  0
   51.3653   13.5112   17.7950 C   0  0  0  0  0  0  0  0  0  0  0  0
   51.2122   12.8810   16.4330 C   0  0  0  0  0  0  0  0  0  0  0  0
   50.8434   13.4580   15.4201 O   0  0  0  0  0  0  0  0  0  0  0  0
   51.5709   11.5668   16.4934 O   0  0  0  0  0  0  0  0  0  0  0  0
   51.3742   10.8259   15.2727 C   0  0  0  0  0  0  0  0  0  0  0  0
   49.9239   10.3226   15.1954 C   0  0  0  0  0  0  0  0  0  0  0  0
   49.6050    9.7775   13.7966 C   0  0  0  0  0  0  0  0  0  0  0  0
   49.8805   10.7375   12.7621 O   0  0  0  0  0  0  0  0  0  0  0  0
   48.9817   11.7561   12.6516 C   0  0  0  0  0  0  0  0  0  0  0  0
   47.9691   11.8788   13.3246 O   0  0  0  0  0  0  0  0  0  0  0  0
   49.3966   12.7119   11.5651 C   0  0  0  0  0  0  0  0  0  0  0  0
   48.5141   12.5305   10.3373 C   0  0  0  0  0  0  0  0  0  0  0  0
   48.9153   13.4940    9.2205 C   0  0  0  0  0  0  0  0  0  0  0  0
   48.0357   13.3324    8.0064 C   0  0  0  0  0  0  0  0  0  0  0  0
   47.5115   12.2117    5.9182 C   0  0  0  0  0  0  0  0  0  0  0  0
   48.3397   12.3746    7.0299 C   0  0  0  0  0  0  0  0  0  0  0  0
   46.8841   14.1164    7.8552 C   0  0  0  0  0  0  0  0  0  0  0  0
   46.0579   13.9527    6.7425 C   0  0  0  0  0  0  0  0  0  0  0  0
   46.3712   12.9999    5.7747 C   0  0  0  0  0  0  0  0  0  0  0  0
   49.7966    9.2809   16.1941 O   0  0  0  0  0  0  0  0  0  0  0  0
   48.5358    8.9550   16.5788 C   0  0  0  0  0  0  0  0  0  0  0  0
   47.5101    9.4121   16.0968 O   0  0  0  0  0  0  0  0  0  0  0  0
   48.5605    7.9723   17.7214 C   0  0  0  0  0  0  0  0  0  0  0  0
   49.3206    6.6991   17.3640 C   0  0  0  0  0  0  0  0  0  0  0  0
   49.2073    5.6588   18.4794 C   0  0  0  0  0  0  0  0  0  0  0  0
   50.0187    4.4242   18.1755 C   0  0  0  0  0  0  0  0  0  0  0  0
   51.3082    4.2742   18.7031 C   0  0  0  0  0  0  0  0  0  0  0  0
   52.0622    3.1356   18.4149 C   0  0  0  0  0  0  0  0  0  0  0  0
   51.5375    2.1403   17.5924 C   0  0  0  0  0  0  0  0  0  0  0  0
   50.2590    2.2832   17.0564 C   0  0  0  0  0  0  0  0  0  0  0  0
   49.5028    3.4203   17.3446 C   0  0  0  0  0  0  0  0  0  0  0  0
   46.5023   10.7476   18.3709 H   0  0  0  0  0  0  0  0  0  0  0  0
   46.6949   10.8473   20.8469 H   0  0  0  0  0  0  0  0  0  0  0  0
   47.9517   12.7009   21.9146 H   0  0  0  0  0  0  0  0  0  0  0  0
   49.0128   14.4436   20.5293 H   0  0  0  0  0  0  0  0  0  0  0  0
   47.5728   12.4597   16.9720 H   0  0  0  0  0  0  0  0  0  0  0  0
   48.5426   15.5889   18.0019 H   0  0  0  0  0  0  0  0  0  0  0  0
   48.8126   14.4315   16.7243 H   0  0  0  0  0  0  0  0  0  0  0  0
   50.7547   15.2014   18.9622 H   0  0  0  0  0  0  0  0  0  0  0  0
   50.9000   15.5467   17.2477 H   0  0  0  0  0  0  0  0  0  0  0  0
   51.0751   12.7823   18.5591 H   0  0  0  0  0  0  0  0  0  0  0  0
   52.4281   13.7374   17.9360 H   0  0  0  0  0  0  0  0  0  0  0  0
   51.6625   11.4390   14.4119 H   0  0  0  0  0  0  0  0  0  0  0  0
   52.0676    9.9784   15.3140 H   0  0  0  0  0  0  0  0  0  0  0  0
   49.2515   11.1470   15.4579 H   0  0  0  0  0  0  0  0  0  0  0  0
   50.2265    8.8971   13.5938 H   0  0  0  0  0  0  0  0  0  0  0  0
   48.5692    9.4266   13.7175 H   0  0  0  0  0  0  0  0  0  0  0  0
   49.3221   13.7291   11.9658 H   0  0  0  0  0  0  0  0  0  0  0  0
   50.4516   12.5499   11.3148 H   0  0  0  0  0  0  0  0  0  0  0  0
   48.5831   11.4932    9.9840 H   0  0  0  0  0  0  0  0  0  0  0  0
   47.4631   12.6894   10.6116 H   0  0  0  0  0  0  0  0  0  0  0  0
   48.8582   14.5300    9.5777 H   0  0  0  0  0  0  0  0  0  0  0  0
   49.9619   13.3302    8.9348 H   0  0  0  0  0  0  0  0  0  0  0  0
   47.7546   11.4675    5.1649 H   0  0  0  0  0  0  0  0  0  0  0  0
   49.2236   11.7497    7.1304 H   0  0  0  0  0  0  0  0  0  0  0  0
   46.6236   14.8605    8.6058 H   0  0  0  0  0  0  0  0  0  0  0  0
   45.1672   14.5663    6.6333 H   0  0  0  0  0  0  0  0  0  0  0  0
   45.7264   12.8718    4.9100 H   0  0  0  0  0  0  0  0  0  0  0  0
   47.5213    7.7294   17.9733 H   0  0  0  0  0  0  0  0  0  0  0  0
   48.9998    8.4674   18.5943 H   0  0  0  0  0  0  0  0  0  0  0  0
   48.9320    6.2885   16.4232 H   0  0  0  0  0  0  0  0  0  0  0  0
   50.3769    6.9353   17.1811 H   0  0  0  0  0  0  0  0  0  0  0  0
   49.5395    6.0902   19.4322 H   0  0  0  0  0  0  0  0  0  0  0  0
   48.1581    5.3726   18.6273 H   0  0  0  0  0  0  0  0  0  0  0  0
   51.7323    5.0427   19.3458 H   0  0  0  0  0  0  0  0  0  0  0  0
   53.0586    3.0245   18.8339 H   0  0  0  0  0  0  0  0  0  0  0  0
   52.1222    1.2520   17.3721 H   0  0  0  0  0  0  0  0  0  0  0  0
   49.8485    1.5077   16.4149 H   0  0  0  0  0  0  0  0  0  0  0  0
   48.5060    3.5176   16.9195 H   0  0  0  0  0  0  0  0  0  0  0  0
  1  2  2  0
  1  6  1  0
  2  3  1  0
  3  4  2  0
  4  5  1  0
  5  6  2  0
  5  7  1  0
  7  8  1  0
  8  9  1  0
  9 10  1  0
 10 11  2  0
 10 12  1  0
 12 13  1  0
 13 14  1  0
 14 15  1  0
 15 16  1  0
 16 17  1  0
 17 18  2  0
 17 19  1  0
 19 20  1  0
 20 21  1  0
 21 22  1  0
 24 22  1  0
 22 25  2  0
 23 24  2  0
 23 27  1  0
 25 26  1  0
 26 27  2  0
 14 28  1  0
 28 29  1  0
 29 30  2  0
 29 31  1  0
 31 32  1  0
 32 33  1  0
 33 34  1  0
 39 34  1  0
 35 34  2  0
 35 36  1  0
 36 37  2  0
 37 38  1  0
 38 39  2  0
  1 40  1  0
  2 41  1  0
  3 42  1  0
  4 43  1  0
  6 44  1  0
  7 45  1  0
  7 46  1  0
  8 47  1  0
  8 48  1  0
  9 49  1  0
  9 50  1  0
 13 51  1  0
 13 52  1  0
 14 53  1  0
 15 54  1  0
 15 55  1  0
 19 56  1  0
 19 57  1  0
 20 58  1  0
 20 59  1  0
 21 60  1  0
 21 61  1  0
 23 62  1  0
 24 63  1  0
 25 64  1  0
 26 65  1  0
 27 66  1  0
 31 67  1  0
 31 68  1  0
 32 69  1  0
 32 70  1  0
 33 71  1  0
 33 72  1  0
 35 73  1  0
 36 74  1  0
 37 75  1  0
 38 76  1  0
 39 77  1  0
M  END
> <Uni-Dock RESULT> 
ENERGY=   -5.062  LOWER_BOUND=    4.835  UPPER_BOUND=    7.470
INTER + INTRA:          -5.062
INTER:                  -5.062
INTRA:                   0.000
UNBOUND:                 0.000

$$$$

     RDKit          3D

 77 79  0  0  0  0  0  0  0  0999 V2000
   51.5588    4.7589   20.0734 C   0  0  0  0  0  0  0  0  0  0  0  0
   52.0786    4.9045   21.3573 C   0  0  0  0  0  0  0  0  0  0  0  0
   51.2501    5.3189   22.3982 C   0  0  0  0  0  0  0  0  0  0  0  0
   49.9021    5.5904   22.1555 C   0  0  0  0  0  0  0  0  0  0  0  0
   49.3715    5.4627   20.8644 C   0  0  0  0  0  0  0  0  0  0  0  0
   50.2136    5.0383   19.8269 C   0  0  0  0  0  0  0  0  0  0  0  0
   47.9149    5.7430   20.5883 C   0  0  0  0  0  0  0  0  0  0  0  0
   47.4479    7.1616   20.9486 C   0  0  0  0  0  0  0  0  0  0  0  0
   48.2603    8.2941   20.3169 C   0  0  0  0  0  0  0  0  0  0  0  0
   48.2566    8.2628   18.8087 C   0  0  0  0  0  0  0  0  0  0  0  0
   47.4215    7.7049   18.1112 O   0  0  0  0  0  0  0  0  0  0  0  0
   49.3183    8.9741   18.3331 O   0  0  0  0  0  0  0  0  0  0  0  0
   49.4826    8.9379   16.9015 C   0  0  0  0  0  0  0  0  0  0  0  0
   50.2719    7.6820   16.4983 C   0  0  0  0  0  0  0  0  0  0  0  0
   50.2235    7.4664   14.9795 C   0  0  0  0  0  0  0  0  0  0  0  0
   48.8764    7.4198   14.4786 O   0  0  0  0  0  0  0  0  0  0  0  0
   48.1926    6.2699   14.7388 C   0  0  0  0  0  0  0  0  0  0  0  0
   48.6489    5.2931   15.3142 O   0  0  0  0  0  0  0  0  0  0  0  0
   46.7892    6.3560   14.2008 C   0  0  0  0  0  0  0  0  0  0  0  0
   46.6526    5.5061   12.9445 C   0  0  0  0  0  0  0  0  0  0  0  0
   45.2332    5.5755   12.3814 C   0  0  0  0  0  0  0  0  0  0  0  0
   45.0847    4.7235   11.1462 C   0  0  0  0  0  0  0  0  0  0  0  0
   45.2896    4.4406    8.7442 C   0  0  0  0  0  0  0  0  0  0  0  0
   45.4068    5.2385    9.8835 C   0  0  0  0  0  0  0  0  0  0  0  0
   44.6531    3.3942   11.2489 C   0  0  0  0  0  0  0  0  0  0  0  0
   44.5357    2.5984   10.1086 C   0  0  0  0  0  0  0  0  0  0  0  0
   44.8548    3.1214    8.8567 C   0  0  0  0  0  0  0  0  0  0  0  0
   51.6341    7.8920   16.9443 O   0  0  0  0  0  0  0  0  0  0  0  0
   52.4191    6.7888   17.0485 C   0  0  0  0  0  0  0  0  0  0  0  0
   52.0926    5.6567   16.7243 O   0  0  0  0  0  0  0  0  0  0  0  0
   53.7519    7.1346   17.6617 C   0  0  0  0  0  0  0  0  0  0  0  0
   54.4904    8.2017   16.8603 C   0  0  0  0  0  0  0  0  0  0  0  0
   55.8981    8.4298   17.4131 C   0  0  0  0  0  0  0  0  0  0  0  0
   56.6126    9.5377   16.6805 C   0  0  0  0  0  0  0  0  0  0  0  0
   56.6234   10.8398   17.1981 C   0  0  0  0  0  0  0  0  0  0  0  0
   57.2775   11.8668   16.5157 C   0  0  0  0  0  0  0  0  0  0  0  0
   57.9207   11.6035   15.3077 C   0  0  0  0  0  0  0  0  0  0  0  0
   57.9095   10.3134   14.7803 C   0  0  0  0  0  0  0  0  0  0  0  0
   57.2573    9.2848   15.4619 C   0  0  0  0  0  0  0  0  0  0  0  0
   52.1939    4.4177   19.2592 H   0  0  0  0  0  0  0  0  0  0  0  0
   53.1245    4.6822   21.5486 H   0  0  0  0  0  0  0  0  0  0  0  0
   51.6513    5.4209   23.4033 H   0  0  0  0  0  0  0  0  0  0  0  0
   49.2679    5.8961   22.9841 H   0  0  0  0  0  0  0  0  0  0  0  0
   49.8285    4.9098   18.8155 H   0  0  0  0  0  0  0  0  0  0  0  0
   47.3173    5.0177   21.1556 H   0  0  0  0  0  0  0  0  0  0  0  0
   47.6906    5.5423   19.5338 H   0  0  0  0  0  0  0  0  0  0  0  0
   47.4718    7.2900   22.0379 H   0  0  0  0  0  0  0  0  0  0  0  0
   46.3958    7.2593   20.6520 H   0  0  0  0  0  0  0  0  0  0  0  0
   49.2956    8.2508   20.6712 H   0  0  0  0  0  0  0  0  0  0  0  0
   47.8411    9.2575   20.6277 H   0  0  0  0  0  0  0  0  0  0  0  0
   48.5058    9.0072   16.4106 H   0  0  0  0  0  0  0  0  0  0  0  0
   50.0443    9.8402   16.6350 H   0  0  0  0  0  0  0  0  0  0  0  0
   49.8554    6.8194   17.0305 H   0  0  0  0  0  0  0  0  0  0  0  0
   50.7276    8.2983   14.4732 H   0  0  0  0  0  0  0  0  0  0  0  0
   50.7695    6.5661   14.6736 H   0  0  0  0  0  0  0  0  0  0  0  0
   46.1059    6.0198   14.9887 H   0  0  0  0  0  0  0  0  0  0  0  0
   46.5377    7.4027   13.9930 H   0  0  0  0  0  0  0  0  0  0  0  0
   47.3751    5.8445   12.1903 H   0  0  0  0  0  0  0  0  0  0  0  0
   46.9160    4.4652   13.1729 H   0  0  0  0  0  0  0  0  0  0  0  0
   44.5104    5.2490   13.1396 H   0  0  0  0  0  0  0  0  0  0  0  0
   44.9703    6.6132   12.1403 H   0  0  0  0  0  0  0  0  0  0  0  0
   45.5405    4.8476    7.7686 H   0  0  0  0  0  0  0  0  0  0  0  0
   45.7512    6.2645    9.7808 H   0  0  0  0  0  0  0  0  0  0  0  0
   44.4059    2.9704   12.2206 H   0  0  0  0  0  0  0  0  0  0  0  0
   44.1991    1.5686   10.1981 H   0  0  0  0  0  0  0  0  0  0  0  0
   44.7651    2.5005    7.9699 H   0  0  0  0  0  0  0  0  0  0  0  0
   54.3486    6.2154   17.6999 H   0  0  0  0  0  0  0  0  0  0  0  0
   53.5842    7.4568   18.6952 H   0  0  0  0  0  0  0  0  0  0  0  0
   54.5424    7.9018   15.8057 H   0  0  0  0  0  0  0  0  0  0  0  0
   53.9246    9.1421   16.8829 H   0  0  0  0  0  0  0  0  0  0  0  0
   55.8484    8.6703   18.4827 H   0  0  0  0  0  0  0  0  0  0  0  0
   56.4899    7.5085   17.3383 H   0  0  0  0  0  0  0  0  0  0  0  0
   56.1249   11.0616   18.1393 H   0  0  0  0  0  0  0  0  0  0  0  0
   57.2866   12.8721   16.9280 H   0  0  0  0  0  0  0  0  0  0  0  0
   58.4339   12.4014   14.7791 H   0  0  0  0  0  0  0  0  0  0  0  0
   58.4108   10.1066   13.8384 H   0  0  0  0  0  0  0  0  0  0  0  0
   57.2575    8.2827   15.0382 H   0  0  0  0  0  0  0  0  0  0  0  0
  1  2  2  0
  1  6  1  0
  2  3  1  0
  3  4  2  0
  4  5  1  0
  5  6  2  0
  5  7  1  0
  7  8  1  0
  8  9  1  0
  9 10  1  0
 10 11  2  0
 10 12  1  0
 12 13  1  0
 13 14  1  0
 14 15  1  0
 15 16  1  0
 16 17  1  0
 17 18  2  0
 17 19  1  0
 19 20  1  0
 20 21  1  0
 21 22  1  0
 24 22  1  0
 22 25  2  0
 23 24  2  0
 23 27  1  0
 25 26  1  0
 26 27  2  0
 14 28  1  0
 28 29  1  0
 29 30  2  0
 29 31  1  0
 31 32  1  0
 32 33  1  0
 33 34  1  0
 39 34  1  0
 35 34  2  0
 35 36  1  0
 36 37  2  0
 37 38  1  0
 38 39  2  0
  1 40  1  0
  2 41  1  0
  3 42  1  0
  4 43  1  0
  6 44  1  0
  7 45  1  0
  7 46  1  0
  8 47  1  0
  8 48  1  0
  9 49  1  0
  9 50  1  0
 13 51  1  0
 13 52  1  0
 14 53  1  0
 15 54  1  0
 15 55  1  0
 19 56  1  0
 19 57  1  0
 20 58  1  0
 20 59  1  0
 21 60  1  0
 21 61  1  0
 23 62  1  0
 24 63  1  0
 25 64  1  0
 26 65  1  0
 27 66  1  0
 31 67  1  0
 31 68  1  0
 32 69  1  0
 32 70  1  0
 33 71  1  0
 33 72  1  0
 35 73  1  0
 36 74  1  0
 37 75  1  0
 38 76  1  0
 39 77  1  0
M  END
> <Uni-Dock RESULT> 
ENERGY=   -4.770  LOWER_BOUND=    1.636  UPPER_BOUND=    1.899
INTER + INTRA:          -4.770
INTER:                  -4.770
INTRA:                   0.000
UNBOUND:                 0.000

$$$$

     RDKit          3D

 77 79  0  0  0  0  0  0  0  0999 V2000
   48.0277   11.8517   22.3017 C   0  0  0  0  0  0  0  0  0  0  0  0
   48.5408   11.3729   23.5047 C   0  0  0  0  0  0  0  0  0  0  0  0
   49.6848   11.9519   24.0501 C   0  0  0  0  0  0  0  0  0  0  0  0
   50.3179   13.0082   23.3919 C   0  0  0  0  0  0  0  0  0  0  0  0
   49.8197   13.4879   22.1727 C   0  0  0  0  0  0  0  0  0  0  0  0
   48.6640   12.9016   21.6376 C   0  0  0  0  0  0  0  0  0  0  0  0
   50.4868   14.6348   21.4545 C   0  0  0  0  0  0  0  0  0  0  0  0
   51.9602   14.4009   21.0873 C   0  0  0  0  0  0  0  0  0  0  0  0
   52.2355   13.1314   20.2785 C   0  0  0  0  0  0  0  0  0  0  0  0
   51.5030   13.0922   18.9603 C   0  0  0  0  0  0  0  0  0  0  0  0
   51.0650   14.0638   18.3612 O   0  0  0  0  0  0  0  0  0  0  0  0
   51.4209   11.8042   18.5201 O   0  0  0  0  0  0  0  0  0  0  0  0
   50.6541   11.6216   17.3133 C   0  0  0  0  0  0  0  0  0  0  0  0
   49.1615   11.4932   17.6575 C   0  0  0  0  0  0  0  0  0  0  0  0
   48.2963   11.5788   16.3928 C   0  0  0  0  0  0  0  0  0  0  0  0
   48.5566   12.7726   15.6346 O   0  0  0  0  0  0  0  0  0  0  0  0
   48.0420   13.9225   16.1548 C   0  0  0  0  0  0  0  0  0  0  0  0
   47.3615   13.9956   17.1672 O   0  0  0  0  0  0  0  0  0  0  0  0
   48.4117   15.1029   15.2967 C   0  0  0  0  0  0  0  0  0  0  0  0
   47.2044   15.5718   14.4957 C   0  0  0  0  0  0  0  0  0  0  0  0
   47.5554   16.7732   13.6182 C   0  0  0  0  0  0  0  0  0  0  0  0
   46.3610   17.2544   12.8337 C   0  0  0  0  0  0  0  0  0  0  0  0
   44.9272   17.1140   10.8803 C   0  0  0  0  0  0  0  0  0  0  0  0
   46.0462   16.6821   11.5940 C   0  0  0  0  0  0  0  0  0  0  0  0
   45.5311   18.2588   13.3497 C   0  0  0  0  0  0  0  0  0  0  0  0
   44.4134   18.6900   12.6341 C   0  0  0  0  0  0  0  0  0  0  0  0
   44.1111   18.1170   11.4000 C   0  0  0  0  0  0  0  0  0  0  0  0
   48.9984   10.2078   18.3056 O   0  0  0  0  0  0  0  0  0  0  0  0
   47.8667   10.0313   19.0349 C   0  0  0  0  0  0  0  0  0  0  0  0
   46.9500   10.8348   19.1217 O   0  0  0  0  0  0  0  0  0  0  0  0
   47.9009    8.7151   19.7687 C   0  0  0  0  0  0  0  0  0  0  0  0
   48.0740    7.5350   18.8181 C   0  0  0  0  0  0  0  0  0  0  0  0
   47.9575    6.2051   19.5644 C   0  0  0  0  0  0  0  0  0  0  0  0
   48.2046    5.0297   18.6521 C   0  0  0  0  0  0  0  0  0  0  0  0
   49.4711    4.4335   18.5892 C   0  0  0  0  0  0  0  0  0  0  0  0
   49.7020    3.3512   17.7387 C   0  0  0  0  0  0  0  0  0  0  0  0
   48.6718    2.8592   16.9391 C   0  0  0  0  0  0  0  0  0  0  0  0
   47.4104    3.4499   16.9884 C   0  0  0  0  0  0  0  0  0  0  0  0
   47.1771    4.5313   17.8394 C   0  0  0  0  0  0  0  0  0  0  0  0
   47.1245   11.4181   21.8785 H   0  0  0  0  0  0  0  0  0  0  0  0
   48.0419   10.5588   24.0226 H   0  0  0  0  0  0  0  0  0  0  0  0
   50.0794   11.5876   24.9953 H   0  0  0  0  0  0  0  0  0  0  0  0
   51.1994   13.4579   23.8422 H   0  0  0  0  0  0  0  0  0  0  0  0
   48.2393   13.2637   20.7015 H   0  0  0  0  0  0  0  0  0  0  0  0
   50.4176   15.5224   22.0967 H   0  0  0  0  0  0  0  0  0  0  0  0
   49.9213   14.8867   20.5493 H   0  0  0  0  0  0  0  0  0  0  0  0
   52.5643   14.3612   22.0023 H   0  0  0  0  0  0  0  0  0  0  0  0
   52.3138   15.2744   20.5248 H   0  0  0  0  0  0  0  0  0  0  0  0
   51.9587   12.2495   20.8659 H   0  0  0  0  0  0  0  0  0  0  0  0
   53.3075   13.0652   20.0621 H   0  0  0  0  0  0  0  0  0  0  0  0
   50.8641   12.4344   16.6095 H   0  0  0  0  0  0  0  0  0  0  0  0
   51.0186   10.6947   16.8564 H   0  0  0  0  0  0  0  0  0  0  0  0
   48.8958   12.2831   18.3689 H   0  0  0  0  0  0  0  0  0  0  0  0
   48.5153   10.7266   15.7383 H   0  0  0  0  0  0  0  0  0  0  0  0
   47.2263   11.5036   16.6198 H   0  0  0  0  0  0  0  0  0  0  0  0
   48.7871   15.8934   15.9562 H   0  0  0  0  0  0  0  0  0  0  0  0
   49.2393   14.8301   14.6314 H   0  0  0  0  0  0  0  0  0  0  0  0
   46.8311   14.7469   13.8749 H   0  0  0  0  0  0  0  0  0  0  0  0
   46.3863   15.8322   15.1799 H   0  0  0  0  0  0  0  0  0  0  0  0
   47.9401   17.5931   14.2377 H   0  0  0  0  0  0  0  0  0  0  0  0
   48.3647   16.5134   12.9243 H   0  0  0  0  0  0  0  0  0  0  0  0
   44.6903   16.6658    9.9193 H   0  0  0  0  0  0  0  0  0  0  0  0
   46.6713   15.8959   11.1780 H   0  0  0  0  0  0  0  0  0  0  0  0
   45.7515   18.7115   14.3148 H   0  0  0  0  0  0  0  0  0  0  0  0
   43.7760   19.4705   13.0420 H   0  0  0  0  0  0  0  0  0  0  0  0
   43.2396   18.4518   10.8446 H   0  0  0  0  0  0  0  0  0  0  0  0
   46.9577    8.6169   20.3193 H   0  0  0  0  0  0  0  0  0  0  0  0
   48.7075    8.7525   20.5091 H   0  0  0  0  0  0  0  0  0  0  0  0
   47.3209    7.5886   18.0214 H   0  0  0  0  0  0  0  0  0  0  0  0
   49.0504    7.5982   18.3202 H   0  0  0  0  0  0  0  0  0  0  0  0
   48.6699    6.1775   20.3986 H   0  0  0  0  0  0  0  0  0  0  0  0
   46.9614    6.1079   20.0149 H   0  0  0  0  0  0  0  0  0  0  0  0
   50.2859    4.8066   19.2062 H   0  0  0  0  0  0  0  0  0  0  0  0
   50.6855    2.8907   17.7015 H   0  0  0  0  0  0  0  0  0  0  0  0
   48.8499    2.0140   16.2810 H   0  0  0  0  0  0  0  0  0  0  0  0
   46.6061    3.0672   16.3655 H   0  0  0  0  0  0  0  0  0  0  0  0
   46.1872    4.9816   17.8676 H   0  0  0  0  0  0  0  0  0  0  0  0
  1  2  2  0
  1  6  1  0
  2  3  1  0
  3  4  2  0
  4  5  1  0
  5  6  2  0
  5  7  1  0
  7  8  1  0
  8  9  1  0
  9 10  1  0
 10 11  2  0
 10 12  1  0
 12 13  1  0
 13 14  1  0
 14 15  1  0
 15 16  1  0
 16 17  1  0
 17 18  2  0
 17 19  1  0
 19 20  1  0
 20 21  1  0
 21 22  1  0
 24 22  1  0
 22 25  2  0
 23 24  2  0
 23 27  1  0
 25 26  1  0
 26 27  2  0
 14 28  1  0
 28 29  1  0
 29 30  2  0
 29 31  1  0
 31 32  1  0
 32 33  1  0
 33 34  1  0
 39 34  1  0
 35 34  2  0
 35 36  1  0
 36 37  2  0
 37 38  1  0
 38 39  2  0
  1 40  1  0
  2 41  1  0
  3 42  1  0
  4 43  1  0
  6 44  1  0
  7 45  1  0
  7 46  1  0
  8 47  1  0
  8 48  1  0
  9 49  1  0
  9 50  1  0
 13 51  1  0
 13 52  1  0
 14 53  1  0
 15 54  1  0
 15 55  1  0
 19 56  1  0
 19 57  1  0
 20 58  1  0
 20 59  1  0
 21 60  1  0
 21 61  1  0
 23 62  1  0
 24 63  1  0
 25 64  1  0
 26 65  1  0
 27 66  1  0
 31 67  1  0
 31 68  1  0
 32 69  1  0
 32 70  1  0
 33 71  1  0
 33 72  1  0
 35 73  1  0
 36 74  1  0
 37 75  1  0
 38 76  1  0
 39 77  1  0
M  END
> <Uni-Dock RESULT> 
ENERGY=   -4.721  LOWER_BOUND=    5.329  UPPER_BOUND=    9.185
INTER + INTRA:          -4.721
INTER:                  -4.721
INTRA:                   0.000
UNBOUND:                 0.000

$$$$

     RDKit          3D

 77 79  0  0  0  0  0  0  0  0999 V2000
   48.0081    9.3677   17.2251 C   0  0  0  0  0  0  0  0  0  0  0  0
   47.5594    9.5090   18.5361 C   0  0  0  0  0  0  0  0  0  0  0  0
   47.7217   10.7247   19.1974 C   0  0  0  0  0  0  0  0  0  0  0  0
   48.3350   11.7989   18.5494 C   0  0  0  0  0  0  0  0  0  0  0  0
   48.8047   11.6634   17.2358 C   0  0  0  0  0  0  0  0  0  0  0  0
   48.6292   10.4375   16.5786 C   0  0  0  0  0  0  0  0  0  0  0  0
   49.4606   12.8177   16.5189 C   0  0  0  0  0  0  0  0  0  0  0  0
   50.7096   13.3851   17.2105 C   0  0  0  0  0  0  0  0  0  0  0  0
   51.8018   12.3602   17.5241 C   0  0  0  0  0  0  0  0  0  0  0  0
   52.3305   11.6567   16.2988 C   0  0  0  0  0  0  0  0  0  0  0  0
   52.2542   12.0728   15.1517 O   0  0  0  0  0  0  0  0  0  0  0  0
   52.9320   10.4889   16.6649 O   0  0  0  0  0  0  0  0  0  0  0  0
   53.3934    9.6730   15.5698 C   0  0  0  0  0  0  0  0  0  0  0  0
   52.2413    8.7993   15.0483 C   0  0  0  0  0  0  0  0  0  0  0  0
   52.6161    8.1321   13.7179 C   0  0  0  0  0  0  0  0  0  0  0  0
   53.0361    9.0875   12.7287 O   0  0  0  0  0  0  0  0  0  0  0  0
   52.0387    9.8249   12.1638 C   0  0  0  0  0  0  0  0  0  0  0  0
   50.8472    9.7012   12.4053 O   0  0  0  0  0  0  0  0  0  0  0  0
   52.6043   10.8113   11.1771 C   0  0  0  0  0  0  0  0  0  0  0  0
   52.3255   10.3514    9.7524 C   0  0  0  0  0  0  0  0  0  0  0  0
   52.8885   11.3403    8.7318 C   0  0  0  0  0  0  0  0  0  0  0  0
   52.6024   10.9009    7.3180 C   0  0  0  0  0  0  0  0  0  0  0  0
   53.1898    9.5966    5.3571 C   0  0  0  0  0  0  0  0  0  0  0  0
   53.4687   10.0193    6.6578 C   0  0  0  0  0  0  0  0  0  0  0  0
   51.4486   11.3434    6.6571 C   0  0  0  0  0  0  0  0  0  0  0  0
   51.1721   10.9204    5.3564 C   0  0  0  0  0  0  0  0  0  0  0  0
   52.0422   10.0464    4.7070 C   0  0  0  0  0  0  0  0  0  0  0  0
   51.9865    7.8031   16.0689 O   0  0  0  0  0  0  0  0  0  0  0  0
   50.7866    7.1696   16.0172 C   0  0  0  0  0  0  0  0  0  0  0  0
   49.9473    7.3171   15.1413 O   0  0  0  0  0  0  0  0  0  0  0  0
   50.5992    6.2765   17.2169 C   0  0  0  0  0  0  0  0  0  0  0  0
   51.7100    5.2379   17.3355 C   0  0  0  0  0  0  0  0  0  0  0  0
   51.4228    4.2516   18.4685 C   0  0  0  0  0  0  0  0  0  0  0  0
   52.5501    3.2660   18.6495 C   0  0  0  0  0  0  0  0  0  0  0  0
   53.5371    3.4862   19.6194 C   0  0  0  0  0  0  0  0  0  0  0  0
   54.5849    2.5784   19.7811 C   0  0  0  0  0  0  0  0  0  0  0  0
   54.6594    1.4465   18.9713 C   0  0  0  0  0  0  0  0  0  0  0  0
   53.6871    1.2220   17.9984 C   0  0  0  0  0  0  0  0  0  0  0  0
   52.6377    2.1278   17.8362 C   0  0  0  0  0  0  0  0  0  0  0  0
   47.8684    8.4284   16.6951 H   0  0  0  0  0  0  0  0  0  0  0  0
   47.0720    8.6772   19.0363 H   0  0  0  0  0  0  0  0  0  0  0  0
   47.3608   10.8405   20.2162 H   0  0  0  0  0  0  0  0  0  0  0  0
   48.4370   12.7444   19.0765 H   0  0  0  0  0  0  0  0  0  0  0  0
   48.9653   10.3048   15.5504 H   0  0  0  0  0  0  0  0  0  0  0  0
   48.7170   13.6187   16.4161 H   0  0  0  0  0  0  0  0  0  0  0  0
   49.7139   12.5235   15.4933 H   0  0  0  0  0  0  0  0  0  0  0  0
   50.4193   13.8734   18.1491 H   0  0  0  0  0  0  0  0  0  0  0  0
   51.1244   14.1743   16.5705 H   0  0  0  0  0  0  0  0  0  0  0  0
   51.4186   11.6123   18.2263 H   0  0  0  0  0  0  0  0  0  0  0  0
   52.6467   12.8666   18.0039 H   0  0  0  0  0  0  0  0  0  0  0  0
   53.8385   10.3049   14.7936 H   0  0  0  0  0  0  0  0  0  0  0  0
   54.1938    9.0430   15.9737 H   0  0  0  0  0  0  0  0  0  0  0  0
   51.3490    9.4251   14.9356 H   0  0  0  0  0  0  0  0  0  0  0  0
   53.4531    7.4412   13.8753 H   0  0  0  0  0  0  0  0  0  0  0  0
   51.8005    7.5153   13.3222 H   0  0  0  0  0  0  0  0  0  0  0  0
   52.1496   11.7875   11.3797 H   0  0  0  0  0  0  0  0  0  0  0  0
   53.6814   10.9257   11.3465 H   0  0  0  0  0  0  0  0  0  0  0  0
   52.7616    9.3563    9.5944 H   0  0  0  0  0  0  0  0  0  0  0  0
   51.2435   10.2361    9.6070 H   0  0  0  0  0  0  0  0  0  0  0  0
   52.4617   12.3375    8.8979 H   0  0  0  0  0  0  0  0  0  0  0  0
   53.9720   11.4493    8.8658 H   0  0  0  0  0  0  0  0  0  0  0  0
   53.8669    8.9136    4.8516 H   0  0  0  0  0  0  0  0  0  0  0  0
   54.3655    9.6568    7.1538 H   0  0  0  0  0  0  0  0  0  0  0  0
   50.7570   12.0215    7.1539 H   0  0  0  0  0  0  0  0  0  0  0  0
   50.2751   11.2698    4.8515 H   0  0  0  0  0  0  0  0  0  0  0  0
   51.8250    9.7161    3.6952 H   0  0  0  0  0  0  0  0  0  0  0  0
   49.6291    5.7765   17.1106 H   0  0  0  0  0  0  0  0  0  0  0  0
   50.5446    6.9060   18.1118 H   0  0  0  0  0  0  0  0  0  0  0  0
   51.8164    4.7005   16.3844 H   0  0  0  0  0  0  0  0  0  0  0  0
   52.6706    5.7389   17.5125 H   0  0  0  0  0  0  0  0  0  0  0  0
   51.2565    4.7945   19.4076 H   0  0  0  0  0  0  0  0  0  0  0  0
   50.4936    3.7028   18.2687 H   0  0  0  0  0  0  0  0  0  0  0  0
   53.4937    4.3656   20.2586 H   0  0  0  0  0  0  0  0  0  0  0  0
   55.3422    2.7538   20.5404 H   0  0  0  0  0  0  0  0  0  0  0  0
   55.4719    0.7376   19.1003 H   0  0  0  0  0  0  0  0  0  0  0  0
   53.7438    0.3397   17.3663 H   0  0  0  0  0  0  0  0  0  0  0  0
   51.8856    1.9389   17.0731 H   0  0  0  0  0  0  0  0  0  0  0  0
  1  2  2  0
  1  6  1  0
  2  3  1  0
  3  4  2  0
  4  5  1  0
  5  6  2  0
  5  7  1  0
  7  8  1  0
  8  9  1  0
  9 10  1  0
 10 11  2  0
 10 12  1  0
 12 13  1  0
 13 14  1  0
 14 15  1  0
 15 16  1  0
 16 17  1  0
 17 18  2  0
 17 19  1  0
 19 20  1  0
 20 21  1  0
 21 22  1  0
 24 22  1  0
 22 25  2  0
 23 24  2  0
 23 27  1  0
 25 26  1  0
 26 27  2  0
 14 28  1  0
 28 29  1  0
 29 30  2  0
 29 31  1  0
 31 32  1  0
 32 33  1  0
 33 34  1  0
 39 34  1  0
 35 34  2  0
 35 36  1  0
 36 37  2  0
 37 38  1  0
 38 39  2  0
  1 40  1  0
  2 41  1  0
  3 42  1  0
  4 43  1  0
  6 44  1  0
  7 45  1  0
  7 46  1  0
  8 47  1  0
  8 48  1  0
  9 49  1  0
  9 50  1  0
 13 51  1  0
 13 52  1  0
 14 53  1  0
 15 54  1  0
 15 55  1  0
 19 56  1  0
 19 57  1  0
 20 58  1  0
 20 59  1  0
 21 60  1  0
 21 61  1  0
 23 62  1  0
 24 63  1  0
 25 64  1  0
 26 65  1  0
 27 66  1  0
 31 67  1  0
 31 68  1  0
 32 69  1  0
 32 70  1  0
 33 71  1  0
 33 72  1  0
 35 73  1  0
 36 74  1  0
 37 75  1  0
 38 76  1  0
 39 77  1  0
M  END
> <Uni-Dock RESULT> 
ENERGY=   -4.579  LOWER_BOUND=    4.788  UPPER_BOUND=    7.365
INTER + INTRA:          -4.579
INTER:                  -4.579
INTRA:                   0.000
UNBOUND:                 0.000

$$$$

     RDKit          3D

 77 79  0  0  0  0  0  0  0  0999 V2000
   48.5530   12.4860   10.4197 C   0  0  0  0  0  0  0  0  0  0  0  0
   48.2623   12.7029    9.0749 C   0  0  0  0  0  0  0  0  0  0  0  0
   46.9550   12.5563    8.6155 C   0  0  0  0  0  0  0  0  0  0  0  0
   45.9382   12.1903    9.4997 C   0  0  0  0  0  0  0  0  0  0  0  0
   46.2216   11.9540   10.8519 C   0  0  0  0  0  0  0  0  0  0  0  0
   47.5395   12.1116   11.3034 C   0  0  0  0  0  0  0  0  0  0  0  0
   45.1321   11.5676   11.8214 C   0  0  0  0  0  0  0  0  0  0  0  0
   44.3698   10.2830   11.4619 C   0  0  0  0  0  0  0  0  0  0  0  0
   45.2452    9.0476   11.2400 C   0  0  0  0  0  0  0  0  0  0  0  0
   46.0713    8.6761   12.4463 C   0  0  0  0  0  0  0  0  0  0  0  0
   45.8321    9.0033   13.5999 O   0  0  0  0  0  0  0  0  0  0  0  0
   47.1205    7.8955   12.0602 O   0  0  0  0  0  0  0  0  0  0  0  0
   48.0444    7.5541   13.1128 C   0  0  0  0  0  0  0  0  0  0  0  0
   49.0762    8.6800   13.2872 C   0  0  0  0  0  0  0  0  0  0  0  0
   49.8943    8.4819   14.5705 C   0  0  0  0  0  0  0  0  0  0  0  0
   49.0595    8.3538   15.7343 O   0  0  0  0  0  0  0  0  0  0  0  0
   48.4960    9.5108   16.1831 C   0  0  0  0  0  0  0  0  0  0  0  0
   48.6818   10.6185   15.7016 O   0  0  0  0  0  0  0  0  0  0  0  0
   47.6183    9.2432   17.3765 C   0  0  0  0  0  0  0  0  0  0  0  0
   48.2995    9.7236   18.6510 C   0  0  0  0  0  0  0  0  0  0  0  0
   47.4244    9.4649   19.8773 C   0  0  0  0  0  0  0  0  0  0  0  0
   48.0846    9.9526   21.1422 C   0  0  0  0  0  0  0  0  0  0  0  0
   49.6040    9.5918   23.0003 C   0  0  0  0  0  0  0  0  0  0  0  0
   48.9771    9.1297   21.8419 C   0  0  0  0  0  0  0  0  0  0  0  0
   47.8386   11.2480   21.6170 C   0  0  0  0  0  0  0  0  0  0  0  0
   48.4655   11.7077   22.7758 C   0  0  0  0  0  0  0  0  0  0  0  0
   49.3487   10.8799   23.4667 C   0  0  0  0  0  0  0  0  0  0  0  0
   49.9330    8.6366   12.1198 O   0  0  0  0  0  0  0  0  0  0  0  0
   50.6645    9.7503   11.8578 C   0  0  0  0  0  0  0  0  0  0  0  0
   50.7142   10.7451   12.5658 O   0  0  0  0  0  0  0  0  0  0  0  0
   51.3883    9.6197   10.5422 C   0  0  0  0  0  0  0  0  0  0  0  0
   52.3036    8.4000   10.5118 C   0  0  0  0  0  0  0  0  0  0  0  0
   53.1373    8.3689    9.2299 C   0  0  0  0  0  0  0  0  0  0  0  0
   53.9900    7.1275    9.1488 C   0  0  0  0  0  0  0  0  0  0  0  0
   53.5518    6.0111    8.4241 C   0  0  0  0  0  0  0  0  0  0  0  0
   54.3371    4.8592    8.3561 C   0  0  0  0  0  0  0  0  0  0  0  0
   55.5636    4.8102    9.0163 C   0  0  0  0  0  0  0  0  0  0  0  0
   56.0052    5.9124    9.7462 C   0  0  0  0  0  0  0  0  0  0  0  0
   55.2220    7.0657    9.8142 C   0  0  0  0  0  0  0  0  0  0  0  0
   49.5670   12.6166   10.7904 H   0  0  0  0  0  0  0  0  0  0  0  0
   49.0511   12.9987    8.3893 H   0  0  0  0  0  0  0  0  0  0  0  0
   46.7243   12.7374    7.5688 H   0  0  0  0  0  0  0  0  0  0  0  0
   44.9215   12.0977    9.1253 H   0  0  0  0  0  0  0  0  0  0  0  0
   47.7904   11.9547   12.3523 H   0  0  0  0  0  0  0  0  0  0  0  0
   44.4184   12.3998   11.8778 H   0  0  0  0  0  0  0  0  0  0  0  0
   45.5486   11.4735   12.8314 H   0  0  0  0  0  0  0  0  0  0  0  0
   43.7775   10.4500   10.5537 H   0  0  0  0  0  0  0  0  0  0  0  0
   43.6492   10.0788   12.2641 H   0  0  0  0  0  0  0  0  0  0  0  0
   45.9135    9.2142   10.3886 H   0  0  0  0  0  0  0  0  0  0  0  0
   44.6070    8.1898   11.0006 H   0  0  0  0  0  0  0  0  0  0  0  0
   47.4960    7.3278   14.0336 H   0  0  0  0  0  0  0  0  0  0  0  0
   48.5415    6.6304   12.7960 H   0  0  0  0  0  0  0  0  0  0  0  0
   48.5490    9.6404   13.3023 H   0  0  0  0  0  0  0  0  0  0  0  0
   50.4838    7.5605   14.4930 H   0  0  0  0  0  0  0  0  0  0  0  0
   50.6269    9.2840   14.7200 H   0  0  0  0  0  0  0  0  0  0  0  0
   46.6640    9.7568   17.2138 H   0  0  0  0  0  0  0  0  0  0  0  0
   47.3920    8.1721   17.4349 H   0  0  0  0  0  0  0  0  0  0  0  0
   49.2675    9.2180   18.7644 H   0  0  0  0  0  0  0  0  0  0  0  0
   48.5237   10.7951   18.5682 H   0  0  0  0  0  0  0  0  0  0  0  0
   46.4525    9.9601   19.7581 H   0  0  0  0  0  0  0  0  0  0  0  0
   47.2081    8.3933   19.9707 H   0  0  0  0  0  0  0  0  0  0  0  0
   50.2942    8.9473   23.5377 H   0  0  0  0  0  0  0  0  0  0  0  0
   49.1892    8.1241   21.4877 H   0  0  0  0  0  0  0  0  0  0  0  0
   47.1556   11.9077   21.0846 H   0  0  0  0  0  0  0  0  0  0  0  0
   48.2676   12.7137   23.1370 H   0  0  0  0  0  0  0  0  0  0  0  0
   49.8378   11.2394   24.3676 H   0  0  0  0  0  0  0  0  0  0  0  0
   51.9769   10.5330   10.3947 H   0  0  0  0  0  0  0  0  0  0  0  0
   50.6435    9.5795    9.7399 H   0  0  0  0  0  0  0  0  0  0  0  0
   52.9615    8.4097   11.3904 H   0  0  0  0  0  0  0  0  0  0  0  0
   51.7047    7.4832   10.5888 H   0  0  0  0  0  0  0  0  0  0  0  0
   52.4807    8.4204    8.3522 H   0  0  0  0  0  0  0  0  0  0  0  0
   53.7840    9.2540    9.1753 H   0  0  0  0  0  0  0  0  0  0  0  0
   52.5964    6.0332    7.9042 H   0  0  0  0  0  0  0  0  0  0  0  0
   53.9925    4.0007    7.7861 H   0  0  0  0  0  0  0  0  0  0  0  0
   56.1770    3.9159    8.9594 H   0  0  0  0  0  0  0  0  0  0  0  0
   56.9614    5.8756   10.2615 H   0  0  0  0  0  0  0  0  0  0  0  0
   55.5802    7.9183   10.3871 H   0  0  0  0  0  0  0  0  0  0  0  0
  1  2  2  0
  1  6  1  0
  2  3  1  0
  3  4  2  0
  4  5  1  0
  5  6  2  0
  5  7  1  0
  7  8  1  0
  8  9  1  0
  9 10  1  0
 10 11  2  0
 10 12  1  0
 12 13  1  0
 13 14  1  0
 14 15  1  0
 15 16  1  0
 16 17  1  0
 17 18  2  0
 17 19  1  0
 19 20  1  0
 20 21  1  0
 21 22  1  0
 24 22  1  0
 22 25  2  0
 23 24  2  0
 23 27  1  0
 25 26  1  0
 26 27  2  0
 14 28  1  0
 28 29  1  0
 29 30  2  0
 29 31  1  0
 31 32  1  0
 32 33  1  0
 33 34  1  0
 39 34  1  0
 35 34  2  0
 35 36  1  0
 36 37  2  0
 37 38  1  0
 38 39  2  0
  1 40  1  0
  2 41  1  0
  3 42  1  0
  4 43  1  0
  6 44  1  0
  7 45  1  0
  7 46  1  0
  8 47  1  0
  8 48  1  0
  9 49  1  0
  9 50  1  0
 13 51  1  0
 13 52  1  0
 14 53  1  0
 15 54  1  0
 15 55  1  0
 19 56  1  0
 19 57  1  0
 20 58  1  0
 20 59  1  0
 21 60  1  0
 21 61  1  0
 23 62  1  0
 24 63  1  0
 25 64  1  0
 26 65  1  0
 27 66  1  0
 31 67  1  0
 31 68  1  0
 32 69  1  0
 32 70  1  0
 33 71  1  0
 33 72  1  0
 35 73  1  0
 36 74  1  0
 37 75  1  0
 38 76  1  0
 39 77  1  0
M  END
> <Uni-Dock RESULT> 
ENERGY=   -4.540  LOWER_BOUND=    4.217  UPPER_BOUND=    9.264
INTER + INTRA:          -4.540
INTER:                  -4.540
INTRA:                   0.000
UNBOUND:                 0.000

$$$$

     RDKit          3D

 77 79  0  0  0  0  0  0  0  0999 V2000
   47.8288    5.6508   20.4062 C   0  0  0  0  0  0  0  0  0  0  0  0
   47.8178    5.1092   21.6894 C   0  0  0  0  0  0  0  0  0  0  0  0
   47.7025    5.9487   22.7955 C   0  0  0  0  0  0  0  0  0  0  0  0
   47.6007    7.3302   22.6196 C   0  0  0  0  0  0  0  0  0  0  0  0
   47.6266    7.8877   21.3339 C   0  0  0  0  0  0  0  0  0  0  0  0
   47.7360    7.0322   20.2286 C   0  0  0  0  0  0  0  0  0  0  0  0
   47.5077    9.3776   21.1271 C   0  0  0  0  0  0  0  0  0  0  0  0
   48.5899   10.2172   21.8230 C   0  0  0  0  0  0  0  0  0  0  0  0
   50.0313    9.8224   21.4942 C   0  0  0  0  0  0  0  0  0  0  0  0
   50.3576    9.9218   20.0247 C   0  0  0  0  0  0  0  0  0  0  0  0
   49.7537   10.6008   19.2067 O   0  0  0  0  0  0  0  0  0  0  0  0
   51.4492    9.1539   19.7450 O   0  0  0  0  0  0  0  0  0  0  0  0
   51.8040    9.0864   18.3495 C   0  0  0  0  0  0  0  0  0  0  0  0
   50.9800    7.9909   17.6538 C   0  0  0  0  0  0  0  0  0  0  0  0
   51.1252    8.0790   16.1285 C   0  0  0  0  0  0  0  0  0  0  0  0
   50.7911    9.3834   15.6240 O   0  0  0  0  0  0  0  0  0  0  0  0
   49.4605    9.6765   15.5892 C   0  0  0  0  0  0  0  0  0  0  0  0
   48.5618    8.9126   15.9088 O   0  0  0  0  0  0  0  0  0  0  0  0
   49.2405   11.0764   15.0810 C   0  0  0  0  0  0  0  0  0  0  0  0
   48.7114   11.0425   13.6534 C   0  0  0  0  0  0  0  0  0  0  0  0
   48.4770   12.4545   13.1167 C   0  0  0  0  0  0  0  0  0  0  0  0
   47.9374   12.4299   11.7089 C   0  0  0  0  0  0  0  0  0  0  0  0
   48.3060   12.3182    9.3125 C   0  0  0  0  0  0  0  0  0  0  0  0
   48.8089   12.3634   10.6138 C   0  0  0  0  0  0  0  0  0  0  0  0
   46.5550   12.4405   11.4787 C   0  0  0  0  0  0  0  0  0  0  0  0
   46.0543   12.3963   10.1769 C   0  0  0  0  0  0  0  0  0  0  0  0
   46.9297   12.3342    9.0942 C   0  0  0  0  0  0  0  0  0  0  0  0
   51.4826    6.7242   18.1455 O   0  0  0  0  0  0  0  0  0  0  0  0
   50.6785    5.6427   17.9792 C   0  0  0  0  0  0  0  0  0  0  0  0
   49.6109    5.6412   17.3844 O   0  0  0  0  0  0  0  0  0  0  0  0
   51.2578    4.4326   18.6662 C   0  0  0  0  0  0  0  0  0  0  0  0
   52.6565    4.1007   18.1564 C   0  0  0  0  0  0  0  0  0  0  0  0
   53.1643    2.7886   18.7563 C   0  0  0  0  0  0  0  0  0  0  0  0
   54.5771    2.4868   18.3231 C   0  0  0  0  0  0  0  0  0  0  0  0
   55.6598    2.8258   19.1455 C   0  0  0  0  0  0  0  0  0  0  0  0
   56.9677    2.5541   18.7407 C   0  0  0  0  0  0  0  0  0  0  0  0
   57.2056    1.9476   17.5086 C   0  0  0  0  0  0  0  0  0  0  0  0
   56.1362    1.6133   16.6798 C   0  0  0  0  0  0  0  0  0  0  0  0
   54.8276    1.8827   17.0834 C   0  0  0  0  0  0  0  0  0  0  0  0
   47.8994    5.0015   19.5367 H   0  0  0  0  0  0  0  0  0  0  0  0
   47.8855    4.0338   21.8259 H   0  0  0  0  0  0  0  0  0  0  0  0
   47.6812    5.5266   23.7970 H   0  0  0  0  0  0  0  0  0  0  0  0
   47.4943    7.9670   23.4944 H   0  0  0  0  0  0  0  0  0  0  0  0
   47.7393    7.4315   19.2146 H   0  0  0  0  0  0  0  0  0  0  0  0
   46.5226    9.6927   21.4949 H   0  0  0  0  0  0  0  0  0  0  0  0
   47.5035    9.6054   20.0544 H   0  0  0  0  0  0  0  0  0  0  0  0
   48.4583   10.1565   22.9105 H   0  0  0  0  0  0  0  0  0  0  0  0
   48.4304   11.2691   21.5537 H   0  0  0  0  0  0  0  0  0  0  0  0
   50.2224    8.7986   21.8328 H   0  0  0  0  0  0  0  0  0  0  0  0
   50.7196   10.4852   22.0303 H   0  0  0  0  0  0  0  0  0  0  0  0
   51.6870   10.0716   17.8852 H   0  0  0  0  0  0  0  0  0  0  0  0
   52.8704    8.8368   18.3165 H   0  0  0  0  0  0  0  0  0  0  0  0
   49.9317    8.0953   17.9549 H   0  0  0  0  0  0  0  0  0  0  0  0
   52.1659    7.8802   15.8455 H   0  0  0  0  0  0  0  0  0  0  0  0
   50.5326    7.3137   15.6134 H   0  0  0  0  0  0  0  0  0  0  0  0
   48.5363   11.5729   15.7580 H   0  0  0  0  0  0  0  0  0  0  0  0
   50.1791   11.6402   15.1360 H   0  0  0  0  0  0  0  0  0  0  0  0
   49.4215   10.5069   13.0098 H   0  0  0  0  0  0  0  0  0  0  0  0
   47.7768   10.4676   13.6199 H   0  0  0  0  0  0  0  0  0  0  0  0
   47.7768   12.9937   13.7671 H   0  0  0  0  0  0  0  0  0  0  0  0
   49.4117   13.0288   13.1371 H   0  0  0  0  0  0  0  0  0  0  0  0
   48.9884   12.2677    8.4685 H   0  0  0  0  0  0  0  0  0  0  0  0
   49.8848   12.3461   10.7689 H   0  0  0  0  0  0  0  0  0  0  0  0
   45.8592   12.4829   12.3148 H   0  0  0  0  0  0  0  0  0  0  0  0
   44.9805   12.4060   10.0082 H   0  0  0  0  0  0  0  0  0  0  0  0
   46.5389   12.2978    8.0813 H   0  0  0  0  0  0  0  0  0  0  0  0
   50.5818    3.5894   18.4802 H   0  0  0  0  0  0  0  0  0  0  0  0
   51.2600    4.6157   19.7463 H   0  0  0  0  0  0  0  0  0  0  0  0
   52.6447    4.0358   17.0608 H   0  0  0  0  0  0  0  0  0  0  0  0
   53.3471    4.9164   18.4067 H   0  0  0  0  0  0  0  0  0  0  0  0
   53.1184    2.8326   19.8519 H   0  0  0  0  0  0  0  0  0  0  0  0
   52.5116    1.9574   18.4602 H   0  0  0  0  0  0  0  0  0  0  0  0
   55.4907    3.3008   20.1095 H   0  0  0  0  0  0  0  0  0  0  0  0
   57.8008    2.8143   19.3879 H   0  0  0  0  0  0  0  0  0  0  0  0
   58.2229    1.7316   17.1958 H   0  0  0  0  0  0  0  0  0  0  0  0
   56.3203    1.1401   15.7188 H   0  0  0  0  0  0  0  0  0  0  0  0
   54.0029    1.6154   16.4260 H   0  0  0  0  0  0  0  0  0  0  0  0
  1  2  2  0
  1  6  1  0
  2  3  1  0
  3  4  2  0
  4  5  1  0
  5  6  2  0
  5  7  1  0
  7  8  1  0
  8  9  1  0
  9 10  1  0
 10 11  2  0
 10 12  1  0
 12 13  1  0
 13 14  1  0
 14 15  1  0
 15 16  1  0
 16 17  1  0
 17 18  2  0
 17 19  1  0
 19 20  1  0
 20 21  1  0
 21 22  1  0
 24 22  1  0
 22 25  2  0
 23 24  2  0
 23 27  1  0
 25 26  1  0
 26 27  2  0
 14 28  1  0
 28 29  1  0
 29 30  2  0
 29 31  1  0
 31 32  1  0
 32 33  1  0
 33 34  1  0
 39 34  1  0
 35 34  2  0
 35 36  1  0
 36 37  2  0
 37 38  1  0
 38 39  2  0
  1 40  1  0
  2 41  1  0
  3 42  1  0
  4 43  1  0
  6 44  1  0
  7 45  1  0
  7 46  1  0
  8 47  1  0
  8 48  1  0
  9 49  1  0
  9 50  1  0
 13 51  1  0
 13 52  1  0
 14 53  1  0
 15 54  1  0
 15 55  1  0
 19 56  1  0
 19 57  1  0
 20 58  1  0
 20 59  1  0
 21 60  1  0
 21 61  1  0
 23 62  1  0
 24 63  1  0
 25 64  1  0
 26 65  1  0
 27 66  1  0
 31 67  1  0
 31 68  1  0
 32 69  1  0
 32 70  1  0
 33 71  1  0
 33 72  1  0
 35 73  1  0
 36 74  1  0
 37 75  1  0
 38 76  1  0
 39 77  1  0
M  END
> <Uni-Dock RESULT> 
ENERGY=   -4.520  LOWER_BOUND=    5.055  UPPER_BOUND=    6.392
INTER + INTRA:          -4.520
INTER:                  -4.520
INTRA:                   0.000
UNBOUND:                 0.000

$$$$

     RDKit          3D

 77 79  0  0  0  0  0  0  0  0999 V2000
   47.8974    8.6035   18.6987 C   0  0  0  0  0  0  0  0  0  0  0  0
   47.2056    9.0812   19.8092 C   0  0  0  0  0  0  0  0  0  0  0  0
   46.9818   10.4491   19.9512 C   0  0  0  0  0  0  0  0  0  0  0  0
   47.4518   11.3405   18.9846 C   0  0  0  0  0  0  0  0  0  0  0  0
   48.1631   10.8728   17.8711 C   0  0  0  0  0  0  0  0  0  0  0  0
   48.3758    9.4936   17.7358 C   0  0  0  0  0  0  0  0  0  0  0  0
   48.6687   11.8224   16.8132 C   0  0  0  0  0  0  0  0  0  0  0  0
   49.6237   12.9125   17.3234 C   0  0  0  0  0  0  0  0  0  0  0  0
   50.8395   12.4011   18.0993 C   0  0  0  0  0  0  0  0  0  0  0  0
   51.7150   11.4731   17.2942 C   0  0  0  0  0  0  0  0  0  0  0  0
   51.7531   11.4123   16.0737 O   0  0  0  0  0  0  0  0  0  0  0  0
   52.4813   10.7217   18.1354 O   0  0  0  0  0  0  0  0  0  0  0  0
   53.2937    9.7220   17.4884 C   0  0  0  0  0  0  0  0  0  0  0  0
   52.4683    8.4453   17.2619 C   0  0  0  0  0  0  0  0  0  0  0  0
   53.2065    7.4708   16.3341 C   0  0  0  0  0  0  0  0  0  0  0  0
   53.5766    8.0816   15.0861 O   0  0  0  0  0  0  0  0  0  0  0  0
   52.5583    8.2709   14.2001 C   0  0  0  0  0  0  0  0  0  0  0  0
   51.3985    7.9284   14.3756 O   0  0  0  0  0  0  0  0  0  0  0  0
   53.0611    8.9493   12.9538 C   0  0  0  0  0  0  0  0  0  0  0  0
   53.1434    7.9513   11.8064 C   0  0  0  0  0  0  0  0  0  0  0  0
   53.6491    8.6191   10.5277 C   0  0  0  0  0  0  0  0  0  0  0  0
   53.7180    7.6414    9.3818 C   0  0  0  0  0  0  0  0  0  0  0  0
   54.9093    5.9276    8.1429 C   0  0  0  0  0  0  0  0  0  0  0  0
   54.8569    6.8477    9.1911 C   0  0  0  0  0  0  0  0  0  0  0  0
   52.6302    7.4907    8.5112 C   0  0  0  0  0  0  0  0  0  0  0  0
   52.6850    6.5710    7.4632 C   0  0  0  0  0  0  0  0  0  0  0  0
   53.8240    5.7890    7.2797 C   0  0  0  0  0  0  0  0  0  0  0  0
   52.2601    7.8535   18.5678 O   0  0  0  0  0  0  0  0  0  0  0  0
   51.2542    6.9475   18.6740 C   0  0  0  0  0  0  0  0  0  0  0  0
   50.5702    6.5400   17.7469 O   0  0  0  0  0  0  0  0  0  0  0  0
   51.0570    6.5303   20.1089 C   0  0  0  0  0  0  0  0  0  0  0  0
   52.3279    5.9416   20.7129 C   0  0  0  0  0  0  0  0  0  0  0  0
   52.0668    5.3904   22.1155 C   0  0  0  0  0  0  0  0  0  0  0  0
   53.3311    4.8760   22.7571 C   0  0  0  0  0  0  0  0  0  0  0  0
   54.0608    5.6856   23.6378 C   0  0  0  0  0  0  0  0  0  0  0  0
   55.2353    5.2125   24.2250 C   0  0  0  0  0  0  0  0  0  0  0  0
   55.6944    3.9294   23.9328 C   0  0  0  0  0  0  0  0  0  0  0  0
   54.9802    3.1188   23.0523 C   0  0  0  0  0  0  0  0  0  0  0  0
   53.8047    3.5895   22.4652 C   0  0  0  0  0  0  0  0  0  0  0  0
   48.0600    7.5359   18.5704 H   0  0  0  0  0  0  0  0  0  0  0  0
   46.8299    8.3869   20.5553 H   0  0  0  0  0  0  0  0  0  0  0  0
   46.4311   10.8224   20.8109 H   0  0  0  0  0  0  0  0  0  0  0  0
   47.2523   12.4025   19.1048 H   0  0  0  0  0  0  0  0  0  0  0  0
   48.9078    9.0952   16.8722 H   0  0  0  0  0  0  0  0  0  0  0  0
   47.7992   12.3026   16.3460 H   0  0  0  0  0  0  0  0  0  0  0  0
   49.1560   11.2584   16.0089 H   0  0  0  0  0  0  0  0  0  0  0  0
   49.0741   13.6087   17.9691 H   0  0  0  0  0  0  0  0  0  0  0  0
   49.9634   13.4988   16.4601 H   0  0  0  0  0  0  0  0  0  0  0  0
   50.5103   11.8825   19.0059 H   0  0  0  0  0  0  0  0  0  0  0  0
   51.4569   13.2523   18.4073 H   0  0  0  0  0  0  0  0  0  0  0  0
   53.7206   10.1269   16.5644 H   0  0  0  0  0  0  0  0  0  0  0  0
   54.1279    9.5181   18.1690 H   0  0  0  0  0  0  0  0  0  0  0  0
   51.4956    8.7255   16.8426 H   0  0  0  0  0  0  0  0  0  0  0  0
   54.1324    7.1337   16.8156 H   0  0  0  0  0  0  0  0  0  0  0  0
   52.6265    6.5590   16.1488 H   0  0  0  0  0  0  0  0  0  0  0  0
   52.3773    9.7732   12.7205 H   0  0  0  0  0  0  0  0  0  0  0  0
   54.0408    9.4006   13.1494 H   0  0  0  0  0  0  0  0  0  0  0  0
   53.8056    7.1216   12.0864 H   0  0  0  0  0  0  0  0  0  0  0  0
   52.1549    7.5065   11.6327 H   0  0  0  0  0  0  0  0  0  0  0  0
   52.9939    9.4561   10.2550 H   0  0  0  0  0  0  0  0  0  0  0  0
   54.6424    9.0546   10.6936 H   0  0  0  0  0  0  0  0  0  0  0  0
   55.7963    5.3164    8.0012 H   0  0  0  0  0  0  0  0  0  0  0  0
   55.7096    6.9419    9.8590 H   0  0  0  0  0  0  0  0  0  0  0  0
   51.7318    8.0905    8.6457 H   0  0  0  0  0  0  0  0  0  0  0  0
   51.8365    6.4619    6.7924 H   0  0  0  0  0  0  0  0  0  0  0  0
   53.8649    5.0718    6.4649 H   0  0  0  0  0  0  0  0  0  0  0  0
   50.2525    5.7856   20.1309 H   0  0  0  0  0  0  0  0  0  0  0  0
   50.7109    7.4002   20.6778 H   0  0  0  0  0  0  0  0  0  0  0  0
   52.7137    5.1477   20.0605 H   0  0  0  0  0  0  0  0  0  0  0  0
   53.1107    6.7101   20.7546 H   0  0  0  0  0  0  0  0  0  0  0  0
   51.6244    6.1689   22.7499 H   0  0  0  0  0  0  0  0  0  0  0  0
   51.3284    4.5794   22.0740 H   0  0  0  0  0  0  0  0  0  0  0  0
   53.7162    6.6899   23.8752 H   0  0  0  0  0  0  0  0  0  0  0  0
   55.7910    5.8448   24.9121 H   0  0  0  0  0  0  0  0  0  0  0  0
   56.6056    3.5594   24.3934 H   0  0  0  0  0  0  0  0  0  0  0  0
   55.3370    2.1180   22.8236 H   0  0  0  0  0  0  0  0  0  0  0  0
   53.2576    2.9451   21.7804 H   0  0  0  0  0  0  0  0  0  0  0  0
  1  2  2  0
  1  6  1  0
  2  3  1  0
  3  4  2  0
  4  5  1  0
  5  6  2  0
  5  7  1  0
  7  8  1  0
  8  9  1  0
  9 10  1  0
 10 11  2  0
 10 12  1  0
 12 13  1  0
 13 14  1  0
 14 15  1  0
 15 16  1  0
 16 17  1  0
 17 18  2  0
 17 19  1  0
 19 20  1  0
 20 21  1  0
 21 22  1  0
 24 22  1  0
 22 25  2  0
 23 24  2  0
 23 27  1  0
 25 26  1  0
 26 27  2  0
 14 28  1  0
 28 29  1  0
 29 30  2  0
 29 31  1  0
 31 32  1  0
 32 33  1  0
 33 34  1  0
 39 34  1  0
 35 34  2  0
 35 36  1  0
 36 37  2  0
 37 38  1  0
 38 39  2  0
  1 40  1  0
  2 41  1  0
  3 42  1  0
  4 43  1  0
  6 44  1  0
  7 45  1  0
  7 46  1  0
  8 47  1  0
  8 48  1  0
  9 49  1  0
  9 50  1  0
 13 51  1  0
 13 52  1  0
 14 53  1  0
 15 54  1  0
 15 55  1  0
 19 56  1  0
 19 57  1  0
 20 58  1  0
 20 59  1  0
 21 60  1  0
 21 61  1  0
 23 62  1  0
 24 63  1  0
 25 64  1  0
 26 65  1  0
 27 66  1  0
 31 67  1  0
 31 68  1  0
 32 69  1  0
 32 70  1  0
 33 71  1  0
 33 72  1  0
 35 73  1  0
 36 74  1  0
 37 75  1  0
 38 76  1  0
 39 77  1  0
M  END
> <Uni-Dock RESULT> 
ENERGY=   -4.294  LOWER_BOUND=    4.677  UPPER_BOUND=    7.265
INTER + INTRA:          -4.294
INTER:                  -4.294
INTRA:                   0.000
UNBOUND:                 0.000

$$$$
