
     RDKit          3D

 39 41  0  0  0  0  0  0  0  0999 V2000
   43.7865    4.8863   11.6524 C   0  0  0  0  0  0  0  0  0  0  0  0
   45.0617    5.2353   12.1129 N   0  0  0  0  0  0  0  0  0  0  0  0
   45.4686    6.5861   12.4072 C   0  0  0  0  0  0  0  0  0  0  0  0
   43.6902    3.8732   10.6910 O   0  0  0  0  0  0  0  0  0  0  0  0
   42.3080    5.4225   12.2292 S   0  0  0  0  0  0  0  0  0  0  0  0
   44.6451    3.7032    9.6607 C   0  0  0  0  0  0  0  0  0  0  0  0
   45.8902    2.1439    8.2900 C   0  0  0  0  0  0  0  0  0  0  0  0
   44.7945    7.6880   11.8540 C   0  0  0  0  0  0  0  0  0  0  0  0
   44.9631    2.3912    9.3127 C   0  0  0  0  0  0  0  0  0  0  0  0
   46.4805    3.2367    7.6097 C   0  0  0  0  0  0  0  0  0  0  0  0
   46.1208    4.5485    7.9648 C   0  0  0  0  0  0  0  0  0  0  0  0
   45.1972    4.7853    8.9834 C   0  0  0  0  0  0  0  0  0  0  0  0
   45.1938    9.0110   12.1130 C   0  0  0  0  0  0  0  0  0  0  0  0
   46.6007    6.8546   13.1926 C   0  0  0  0  0  0  0  0  0  0  0  0
   45.9765    4.1456   12.4447 C   0  0  0  0  0  0  0  0  0  0  0  0
   47.0170    8.1661   13.4458 C   0  0  0  0  0  0  0  0  0  0  0  0
   46.2443    0.8350    7.9261 C   0  0  0  0  0  0  0  0  0  0  0  0
   46.3164    9.2406   12.9084 C   0  0  0  0  0  0  0  0  0  0  0  0
   47.4098    2.9858    6.5878 C   0  0  0  0  0  0  0  0  0  0  0  0
   44.4575   10.1580   11.4852 C   0  0  0  0  0  0  0  0  0  0  0  0
   47.1704    0.6045    6.9078 C   0  0  0  0  0  0  0  0  0  0  0  0
   47.7527    1.6781    6.2402 C   0  0  0  0  0  0  0  0  0  0  0  0
   43.9543    7.5446   11.1803 H   0  0  0  0  0  0  0  0  0  0  0  0
   44.4896    1.5696    9.8433 H   0  0  0  0  0  0  0  0  0  0  0  0
   46.5563    5.3979    7.4428 H   0  0  0  0  0  0  0  0  0  0  0  0
   44.9201    5.8051    9.2293 H   0  0  0  0  0  0  0  0  0  0  0  0
   47.1876    6.0597   13.6411 H   0  0  0  0  0  0  0  0  0  0  0  0
   46.1597    4.1384   13.5239 H   0  0  0  0  0  0  0  0  0  0  0  0
   45.5481    3.1688   12.2038 H   0  0  0  0  0  0  0  0  0  0  0  0
   46.9145    4.2709   11.8952 H   0  0  0  0  0  0  0  0  0  0  0  0
   47.8930    8.3458   14.0643 H   0  0  0  0  0  0  0  0  0  0  0  0
   45.7990   -0.0176    8.4343 H   0  0  0  0  0  0  0  0  0  0  0  0
   46.6541   10.2547   13.1090 H   0  0  0  0  0  0  0  0  0  0  0  0
   47.8738    3.8106    6.0515 H   0  0  0  0  0  0  0  0  0  0  0  0
   44.5540   11.0650   12.0913 H   0  0  0  0  0  0  0  0  0  0  0  0
   44.8575   10.3572   10.4863 H   0  0  0  0  0  0  0  0  0  0  0  0
   43.3885    9.9356   11.4027 H   0  0  0  0  0  0  0  0  0  0  0  0
   47.4353   -0.4139    6.6352 H   0  0  0  0  0  0  0  0  0  0  0  0
   48.4728    1.4989    5.4460 H   0  0  0  0  0  0  0  0  0  0  0  0
  2  1  1  0
  3  2  1  0
  4  1  1  0
  5  1  2  0
  6  4  1  0
  7  9  2  0
  8  3  2  0
  9  6  1  0
 10 11  2  0
 11 12  1  0
 12  6  2  0
 13  8  1  0
 14  3  1  0
 15  2  1  0
 16 14  2  0
 17  7  1  0
 18 16  1  0
 19 10  1  0
 20 13  1  0
 21 17  2  0
 22 19  2  0
 10  7  1  0
 13 18  2  0
 22 21  1  0
  8 23  1  0
  9 24  1  0
 11 25  1  0
 12 26  1  0
 14 27  1  0
 15 28  1  0
 15 29  1  0
 15 30  1  0
 16 31  1  0
 17 32  1  0
 18 33  1  0
 19 34  1  0
 20 35  1  0
 20 36  1  0
 20 37  1  0
 21 38  1  0
 22 39  1  0
M  END
> <Uni-Dock RESULT> 
ENERGY=   -7.697  LOWER_BOUND=    0.000  UPPER_BOUND=    0.000
INTER + INTRA:          -7.697
INTER:                  -7.697
INTRA:                   0.000
UNBOUND:                 0.000

$$$$
