
     RDKit          3D

 39 41  0  0  0  0  0  0  0  0999 V2000
   48.9278    6.1713   17.2081 C   0  0  0  0  0  0  0  0  0  0  0  0
   50.0732    5.6430   17.8154 N   0  0  0  0  0  0  0  0  0  0  0  0
   50.5033    4.2752   17.6682 C   0  0  0  0  0  0  0  0  0  0  0  0
   48.1592    7.0852   17.9389 O   0  0  0  0  0  0  0  0  0  0  0  0
   48.4275    5.9738   15.6217 S   0  0  0  0  0  0  0  0  0  0  0  0
   47.9654    6.9777   19.3364 C   0  0  0  0  0  0  0  0  0  0  0  0
   47.7425    8.1437   21.4462 C   0  0  0  0  0  0  0  0  0  0  0  0
   51.8162    3.8811   17.9835 C   0  0  0  0  0  0  0  0  0  0  0  0
   47.9448    8.1699   20.0588 C   0  0  0  0  0  0  0  0  0  0  0  0
   47.5435    6.9008   22.0950 C   0  0  0  0  0  0  0  0  0  0  0  0
   47.5433    5.7170   21.3367 C   0  0  0  0  0  0  0  0  0  0  0  0
   47.7450    5.7523   19.9565 C   0  0  0  0  0  0  0  0  0  0  0  0
   52.2340    2.5419   17.8826 C   0  0  0  0  0  0  0  0  0  0  0  0
   49.6085    3.2687   17.2760 C   0  0  0  0  0  0  0  0  0  0  0  0
   50.9475    6.5751   18.5232 C   0  0  0  0  0  0  0  0  0  0  0  0
   50.0157    1.9359   17.1576 C   0  0  0  0  0  0  0  0  0  0  0  0
   47.7323    9.3249   22.2051 C   0  0  0  0  0  0  0  0  0  0  0  0
   51.3263    1.5750   17.4497 C   0  0  0  0  0  0  0  0  0  0  0  0
   47.3434    6.8778   23.4843 C   0  0  0  0  0  0  0  0  0  0  0  0
   53.6572    2.1689   18.1785 C   0  0  0  0  0  0  0  0  0  0  0  0
   47.5321    9.2829   23.5857 C   0  0  0  0  0  0  0  0  0  0  0  0
   47.3386    8.0614   24.2243 C   0  0  0  0  0  0  0  0  0  0  0  0
   52.5567    4.6080   18.3033 H   0  0  0  0  0  0  0  0  0  0  0  0
   48.0907    9.1117   19.5367 H   0  0  0  0  0  0  0  0  0  0  0  0
   47.3791    4.7557   21.8189 H   0  0  0  0  0  0  0  0  0  0  0  0
   47.7230    4.8287   19.3876 H   0  0  0  0  0  0  0  0  0  0  0  0
   48.5632    3.4830   17.0751 H   0  0  0  0  0  0  0  0  0  0  0  0
   50.5283    7.5849   18.5487 H   0  0  0  0  0  0  0  0  0  0  0  0
   51.9009    6.6568   17.9915 H   0  0  0  0  0  0  0  0  0  0  0  0
   51.1060    6.2270   19.5483 H   0  0  0  0  0  0  0  0  0  0  0  0
   49.3021    1.1801   16.8390 H   0  0  0  0  0  0  0  0  0  0  0  0
   47.8797   10.2897   21.7246 H   0  0  0  0  0  0  0  0  0  0  0  0
   51.6311    0.5363   17.3448 H   0  0  0  0  0  0  0  0  0  0  0  0
   47.1869    5.9340   24.0020 H   0  0  0  0  0  0  0  0  0  0  0  0
   53.7301    1.1257   18.5035 H   0  0  0  0  0  0  0  0  0  0  0  0
   54.2726    2.3034   17.2837 H   0  0  0  0  0  0  0  0  0  0  0  0
   54.0623    2.7886   18.9854 H   0  0  0  0  0  0  0  0  0  0  0  0
   47.5257   10.2049   24.1616 H   0  0  0  0  0  0  0  0  0  0  0  0
   47.1811    8.0285   25.2993 H   0  0  0  0  0  0  0  0  0  0  0  0
  2  1  1  0
  3  2  1  0
  4  1  1  0
  5  1  2  0
  6  4  1  0
  7  9  2  0
  8  3  2  0
  9  6  1  0
 10 11  2  0
 11 12  1  0
 12  6  2  0
 13  8  1  0
 14  3  1  0
 15  2  1  0
 16 14  2  0
 17  7  1  0
 18 16  1  0
 19 10  1  0
 20 13  1  0
 21 17  2  0
 22 19  2  0
 10  7  1  0
 13 18  2  0
 22 21  1  0
  8 23  1  0
  9 24  1  0
 11 25  1  0
 12 26  1  0
 14 27  1  0
 15 28  1  0
 15 29  1  0
 15 30  1  0
 16 31  1  0
 17 32  1  0
 18 33  1  0
 19 34  1  0
 20 35  1  0
 20 36  1  0
 20 37  1  0
 21 38  1  0
 22 39  1  0
M  END
> <Uni-Dock RESULT> 
ENERGY=   -4.956  LOWER_BOUND=    0.000  UPPER_BOUND=    0.000
INTER + INTRA:          -4.956
INTER:                  -4.956
INTRA:                   0.000
UNBOUND:                 0.000

$$$$

     RDKit          3D

 39 41  0  0  0  0  0  0  0  0999 V2000
   49.1124    7.9468   21.2835 C   0  0  0  0  0  0  0  0  0  0  0  0
   49.1010    8.7393   20.1295 N   0  0  0  0  0  0  0  0  0  0  0  0
   48.1993    9.8444   19.9217 C   0  0  0  0  0  0  0  0  0  0  0  0
   49.3348    6.5726   21.1344 O   0  0  0  0  0  0  0  0  0  0  0  0
   49.0534    8.4594   22.8772 S   0  0  0  0  0  0  0  0  0  0  0  0
   48.8359    5.8308   20.0375 C   0  0  0  0  0  0  0  0  0  0  0  0
   49.2321    4.0449   18.4520 C   0  0  0  0  0  0  0  0  0  0  0  0
   48.4488   10.8200   18.9399 C   0  0  0  0  0  0  0  0  0  0  0  0
   49.6646    4.8315   19.5292 C   0  0  0  0  0  0  0  0  0  0  0  0
   47.9453    4.2663   17.9039 C   0  0  0  0  0  0  0  0  0  0  0  0
   47.1213    5.2637   18.4542 C   0  0  0  0  0  0  0  0  0  0  0  0
   47.5596    6.0415   19.5264 C   0  0  0  0  0  0  0  0  0  0  0  0
   47.5546   11.8792   18.7013 C   0  0  0  0  0  0  0  0  0  0  0  0
   46.9988    9.9495   20.6396 C   0  0  0  0  0  0  0  0  0  0  0  0
   50.1583    8.5097   19.1479 C   0  0  0  0  0  0  0  0  0  0  0  0
   46.1086   11.0061   20.4220 C   0  0  0  0  0  0  0  0  0  0  0  0
   50.0485    3.0414   17.9063 C   0  0  0  0  0  0  0  0  0  0  0  0
   46.3901   11.9736   19.4637 C   0  0  0  0  0  0  0  0  0  0  0  0
   47.5160    3.4785   16.8241 C   0  0  0  0  0  0  0  0  0  0  0  0
   47.8809   12.9297   17.6804 C   0  0  0  0  0  0  0  0  0  0  0  0
   49.6052    2.2680   16.8324 C   0  0  0  0  0  0  0  0  0  0  0  0
   48.3413    2.4865   16.2919 C   0  0  0  0  0  0  0  0  0  0  0  0
   49.3544   10.7923   18.3413 H   0  0  0  0  0  0  0  0  0  0  0  0
   50.6441    4.6749   19.9731 H   0  0  0  0  0  0  0  0  0  0  0  0
   46.1253    5.4371   18.0522 H   0  0  0  0  0  0  0  0  0  0  0  0
   46.9009    6.7937   19.9477 H   0  0  0  0  0  0  0  0  0  0  0  0
   46.7054    9.2023   21.3706 H   0  0  0  0  0  0  0  0  0  0  0  0
   50.7921    7.6626   19.4249 H   0  0  0  0  0  0  0  0  0  0  0  0
   50.8183    9.3822   19.1115 H   0  0  0  0  0  0  0  0  0  0  0  0
   49.7154    8.3196   18.1656 H   0  0  0  0  0  0  0  0  0  0  0  0
   45.1918   11.0676   21.0032 H   0  0  0  0  0  0  0  0  0  0  0  0
   51.0386    2.8536   18.3158 H   0  0  0  0  0  0  0  0  0  0  0  0
   45.6930   12.7943   19.3114 H   0  0  0  0  0  0  0  0  0  0  0  0
   46.5306    3.6310   16.3893 H   0  0  0  0  0  0  0  0  0  0  0  0
   46.9689   13.3869   17.2824 H   0  0  0  0  0  0  0  0  0  0  0  0
   48.4990   13.7113   18.1326 H   0  0  0  0  0  0  0  0  0  0  0  0
   48.4213   12.4944   16.8332 H   0  0  0  0  0  0  0  0  0  0  0  0
   50.2469    1.4936   16.4198 H   0  0  0  0  0  0  0  0  0  0  0  0
   47.9952    1.8833   15.4566 H   0  0  0  0  0  0  0  0  0  0  0  0
  2  1  1  0
  3  2  1  0
  4  1  1  0
  5  1  2  0
  6  4  1  0
  7  9  2  0
  8  3  2  0
  9  6  1  0
 10 11  2  0
 11 12  1  0
 12  6  2  0
 13  8  1  0
 14  3  1  0
 15  2  1  0
 16 14  2  0
 17  7  1  0
 18 16  1  0
 19 10  1  0
 20 13  1  0
 21 17  2  0
 22 19  2  0
 10  7  1  0
 13 18  2  0
 22 21  1  0
  8 23  1  0
  9 24  1  0
 11 25  1  0
 12 26  1  0
 14 27  1  0
 15 28  1  0
 15 29  1  0
 15 30  1  0
 16 31  1  0
 17 32  1  0
 18 33  1  0
 19 34  1  0
 20 35  1  0
 20 36  1  0
 20 37  1  0
 21 38  1  0
 22 39  1  0
M  END
> <Uni-Dock RESULT> 
ENERGY=   -4.686  LOWER_BOUND=    3.026  UPPER_BOUND=    7.299
INTER + INTRA:          -4.686
INTER:                  -4.686
INTRA:                   0.000
UNBOUND:                 0.000

$$$$

     RDKit          3D

 39 41  0  0  0  0  0  0  0  0999 V2000
   48.7176    4.9955   17.3820 C   0  0  0  0  0  0  0  0  0  0  0  0
   50.0522    4.9865   17.8049 N   0  0  0  0  0  0  0  0  0  0  0  0
   50.8988    3.8205   17.7706 C   0  0  0  0  0  0  0  0  0  0  0  0
   47.8007    5.7561   18.1176 O   0  0  0  0  0  0  0  0  0  0  0  0
   48.0835    4.3286   15.9823 S   0  0  0  0  0  0  0  0  0  0  0  0
   47.8679    5.8853   19.5250 C   0  0  0  0  0  0  0  0  0  0  0  0
   47.5774    7.3346   21.4422 C   0  0  0  0  0  0  0  0  0  0  0  0
   52.2986    3.9277   17.8565 C   0  0  0  0  0  0  0  0  0  0  0  0
   47.5476    7.1346   20.0546 C   0  0  0  0  0  0  0  0  0  0  0  0
   47.9174    6.2539   22.2918 C   0  0  0  0  0  0  0  0  0  0  0  0
   48.2101    4.9985   21.7307 C   0  0  0  0  0  0  0  0  0  0  0  0
   48.1777    4.8083   20.3488 C   0  0  0  0  0  0  0  0  0  0  0  0
   53.1310    2.7939   17.8655 C   0  0  0  0  0  0  0  0  0  0  0  0
   50.3562    2.5278   17.7260 C   0  0  0  0  0  0  0  0  0  0  0  0
   50.6486    6.2692   18.1698 C   0  0  0  0  0  0  0  0  0  0  0  0
   51.1739    1.3931   17.7194 C   0  0  0  0  0  0  0  0  0  0  0  0
   47.2760    8.5844   22.0065 C   0  0  0  0  0  0  0  0  0  0  0  0
   52.5568    1.5254   17.7784 C   0  0  0  0  0  0  0  0  0  0  0  0
   47.9484    6.4579   23.6804 C   0  0  0  0  0  0  0  0  0  0  0  0
   54.6229    2.9508   17.9062 C   0  0  0  0  0  0  0  0  0  0  0  0
   47.3122    8.7690   23.3895 C   0  0  0  0  0  0  0  0  0  0  0  0
   47.6484    7.7077   24.2250 C   0  0  0  0  0  0  0  0  0  0  0  0
   52.7833    4.8981   17.9043 H   0  0  0  0  0  0  0  0  0  0  0  0
   47.2808    7.9456   19.3824 H   0  0  0  0  0  0  0  0  0  0  0  0
   48.4607    4.1554   22.3710 H   0  0  0  0  0  0  0  0  0  0  0  0
   48.3894    3.8268   19.9376 H   0  0  0  0  0  0  0  0  0  0  0  0
   49.2834    2.3606   17.7206 H   0  0  0  0  0  0  0  0  0  0  0  0
   49.9168    7.0812   18.1360 H   0  0  0  0  0  0  0  0  0  0  0  0
   51.4245    6.5309   17.4433 H   0  0  0  0  0  0  0  0  0  0  0  0
   51.0691    6.2075   19.1780 H   0  0  0  0  0  0  0  0  0  0  0  0
   50.7242    0.4044   17.6712 H   0  0  0  0  0  0  0  0  0  0  0  0
   47.0089    9.4258   21.3709 H   0  0  0  0  0  0  0  0  0  0  0  0
   53.1805    0.6347   17.7637 H   0  0  0  0  0  0  0  0  0  0  0  0
   48.2054    5.6408   24.3509 H   0  0  0  0  0  0  0  0  0  0  0  0
   55.0978    2.0728   18.3566 H   0  0  0  0  0  0  0  0  0  0  0  0
   55.0129    3.0815   16.8921 H   0  0  0  0  0  0  0  0  0  0  0  0
   54.9066    3.8185   18.5111 H   0  0  0  0  0  0  0  0  0  0  0  0
   47.0758    9.7415   23.8137 H   0  0  0  0  0  0  0  0  0  0  0  0
   47.6751    7.8507   25.3022 H   0  0  0  0  0  0  0  0  0  0  0  0
  2  1  1  0
  3  2  1  0
  4  1  1  0
  5  1  2  0
  6  4  1  0
  7  9  2  0
  8  3  2  0
  9  6  1  0
 10 11  2  0
 11 12  1  0
 12  6  2  0
 13  8  1  0
 14  3  1  0
 15  2  1  0
 16 14  2  0
 17  7  1  0
 18 16  1  0
 19 10  1  0
 20 13  1  0
 21 17  2  0
 22 19  2  0
 10  7  1  0
 13 18  2  0
 22 21  1  0
  8 23  1  0
  9 24  1  0
 11 25  1  0
 12 26  1  0
 14 27  1  0
 15 28  1  0
 15 29  1  0
 15 30  1  0
 16 31  1  0
 17 32  1  0
 18 33  1  0
 19 34  1  0
 20 35  1  0
 20 36  1  0
 20 37  1  0
 21 38  1  0
 22 39  1  0
M  END
> <Uni-Dock RESULT> 
ENERGY=   -4.609  LOWER_BOUND=    0.918  UPPER_BOUND=    1.025
INTER + INTRA:          -4.609
INTER:                  -4.609
INTRA:                   0.000
UNBOUND:                 0.000

$$$$

     RDKit          3D

 39 41  0  0  0  0  0  0  0  0999 V2000
   48.8729    7.6126   15.7055 C   0  0  0  0  0  0  0  0  0  0  0  0
   49.9830    7.3284   16.5099 N   0  0  0  0  0  0  0  0  0  0  0  0
   50.3202    6.0073   16.9774 C   0  0  0  0  0  0  0  0  0  0  0  0
   48.1700    8.7980   15.9515 O   0  0  0  0  0  0  0  0  0  0  0  0
   48.3543    6.7809   14.3471 S   0  0  0  0  0  0  0  0  0  0  0  0
   47.9749    9.3166   17.2535 C   0  0  0  0  0  0  0  0  0  0  0  0
   47.8388   11.2904   18.6484 C   0  0  0  0  0  0  0  0  0  0  0  0
   51.6050    5.7075   17.4648 C   0  0  0  0  0  0  0  0  0  0  0  0
   48.0369   10.7025   17.3908 C   0  0  0  0  0  0  0  0  0  0  0  0
   47.5598   10.4643   19.7642 C   0  0  0  0  0  0  0  0  0  0  0  0
   47.4776    9.0716   19.5904 C   0  0  0  0  0  0  0  0  0  0  0  0
   47.6757    8.4952   18.3354 C   0  0  0  0  0  0  0  0  0  0  0  0
   51.9321    4.4328   17.9616 C   0  0  0  0  0  0  0  0  0  0  0  0
   49.3586    4.9877   17.0349 C   0  0  0  0  0  0  0  0  0  0  0  0
   50.9203    8.4186   16.7687 C   0  0  0  0  0  0  0  0  0  0  0  0
   49.6754    3.7120   17.5127 C   0  0  0  0  0  0  0  0  0  0  0  0
   47.9105   12.6816   18.8236 C   0  0  0  0  0  0  0  0  0  0  0  0
   50.9602    3.4320   17.9648 C   0  0  0  0  0  0  0  0  0  0  0  0
   47.3641   11.0557   21.0223 C   0  0  0  0  0  0  0  0  0  0  0  0
   53.3284    4.1368   18.4251 C   0  0  0  0  0  0  0  0  0  0  0  0
   47.7135   13.2522   20.0821 C   0  0  0  0  0  0  0  0  0  0  0  0
   47.4413   12.4406   21.1796 C   0  0  0  0  0  0  0  0  0  0  0  0
   52.3937    6.4538   17.4587 H   0  0  0  0  0  0  0  0  0  0  0  0
   48.2433   11.3156   16.5176 H   0  0  0  0  0  0  0  0  0  0  0  0
   47.2515    8.4249   20.4355 H   0  0  0  0  0  0  0  0  0  0  0  0
   47.5899    7.4198   18.2197 H   0  0  0  0  0  0  0  0  0  0  0  0
   48.3292    5.1585   16.7349 H   0  0  0  0  0  0  0  0  0  0  0  0
   50.5695    9.3642   16.3460 H   0  0  0  0  0  0  0  0  0  0  0  0
   51.8749    8.2034   16.2780 H   0  0  0  0  0  0  0  0  0  0  0  0
   51.0593    8.5379   17.8474 H   0  0  0  0  0  0  0  0  0  0  0  0
   48.9117    2.9384   17.5330 H   0  0  0  0  0  0  0  0  0  0  0  0
   48.1200   13.3332   17.9782 H   0  0  0  0  0  0  0  0  0  0  0  0
   51.1946    2.4332   18.3255 H   0  0  0  0  0  0  0  0  0  0  0  0
   47.1471   10.4396   21.8921 H   0  0  0  0  0  0  0  0  0  0  0  0
   53.3328    3.3338   19.1697 H   0  0  0  0  0  0  0  0  0  0  0  0
   53.9479    3.8334   17.5756 H   0  0  0  0  0  0  0  0  0  0  0  0
   53.7771    5.0177   18.8961 H   0  0  0  0  0  0  0  0  0  0  0  0
   47.7709   14.3308   20.2040 H   0  0  0  0  0  0  0  0  0  0  0  0
   47.2862   12.8848   22.1595 H   0  0  0  0  0  0  0  0  0  0  0  0
  2  1  1  0
  3  2  1  0
  4  1  1  0
  5  1  2  0
  6  4  1  0
  7  9  2  0
  8  3  2  0
  9  6  1  0
 10 11  2  0
 11 12  1  0
 12  6  2  0
 13  8  1  0
 14  3  1  0
 15  2  1  0
 16 14  2  0
 17  7  1  0
 18 16  1  0
 19 10  1  0
 20 13  1  0
 21 17  2  0
 22 19  2  0
 10  7  1  0
 13 18  2  0
 22 21  1  0
  8 23  1  0
  9 24  1  0
 11 25  1  0
 12 26  1  0
 14 27  1  0
 15 28  1  0
 15 29  1  0
 15 30  1  0
 16 31  1  0
 17 32  1  0
 18 33  1  0
 19 34  1  0
 20 35  1  0
 20 36  1  0
 20 37  1  0
 21 38  1  0
 22 39  1  0
M  END
> <Uni-Dock RESULT> 
ENERGY=   -4.398  LOWER_BOUND=    2.487  UPPER_BOUND=    3.277
INTER + INTRA:          -4.398
INTER:                  -4.398
INTRA:                   0.000
UNBOUND:                 0.000

$$$$

     RDKit          3D

 39 41  0  0  0  0  0  0  0  0999 V2000
   48.2533    3.9478   17.3713 C   0  0  0  0  0  0  0  0  0  0  0  0
   48.3276    4.2869   18.7276 N   0  0  0  0  0  0  0  0  0  0  0  0
   48.1143    5.6185   19.2364 C   0  0  0  0  0  0  0  0  0  0  0  0
   49.1741    3.0168   16.8758 O   0  0  0  0  0  0  0  0  0  0  0  0
   47.0767    4.3979   16.2673 S   0  0  0  0  0  0  0  0  0  0  0  0
   50.5155    2.9546   17.3219 C   0  0  0  0  0  0  0  0  0  0  0  0
   52.4032    1.5431   17.8738 C   0  0  0  0  0  0  0  0  0  0  0  0
   47.8429    5.8490   20.5971 C   0  0  0  0  0  0  0  0  0  0  0  0
   51.0737    1.6836   17.4509 C   0  0  0  0  0  0  0  0  0  0  0  0
   53.1699    2.7015   18.1487 C   0  0  0  0  0  0  0  0  0  0  0  0
   52.5883    3.9709   17.9845 C   0  0  0  0  0  0  0  0  0  0  0  0
   51.2647    4.1014   17.5629 C   0  0  0  0  0  0  0  0  0  0  0  0
   47.6741    7.1474   21.1111 C   0  0  0  0  0  0  0  0  0  0  0  0
   48.2432    6.7436   18.4088 C   0  0  0  0  0  0  0  0  0  0  0  0
   48.4954    3.1951   19.6836 C   0  0  0  0  0  0  0  0  0  0  0  0
   48.0630    8.0389   18.9048 C   0  0  0  0  0  0  0  0  0  0  0  0
   52.9902    0.2772   18.0292 C   0  0  0  0  0  0  0  0  0  0  0  0
   47.7692    8.2400   20.2489 C   0  0  0  0  0  0  0  0  0  0  0  0
   54.5000    2.5575   18.5739 C   0  0  0  0  0  0  0  0  0  0  0  0
   47.3346    7.3499   22.5588 C   0  0  0  0  0  0  0  0  0  0  0  0
   54.3141    0.1530   18.4533 C   0  0  0  0  0  0  0  0  0  0  0  0
   55.0676    1.2912   18.7257 C   0  0  0  0  0  0  0  0  0  0  0  0
   47.7405    5.0232   21.2947 H   0  0  0  0  0  0  0  0  0  0  0  0
   50.4677    0.8102   17.2250 H   0  0  0  0  0  0  0  0  0  0  0  0
   53.1684    4.8704   18.1796 H   0  0  0  0  0  0  0  0  0  0  0  0
   50.8409    5.0907   17.4253 H   0  0  0  0  0  0  0  0  0  0  0  0
   48.5120    6.6516   17.3608 H   0  0  0  0  0  0  0  0  0  0  0  0
   48.6239    2.2322   19.1814 H   0  0  0  0  0  0  0  0  0  0  0  0
   47.5904    3.1005   20.2922 H   0  0  0  0  0  0  0  0  0  0  0  0
   49.3670    3.3886   20.3160 H   0  0  0  0  0  0  0  0  0  0  0  0
   48.1568    8.8907   18.2357 H   0  0  0  0  0  0  0  0  0  0  0  0
   52.4189   -0.6245   17.8195 H   0  0  0  0  0  0  0  0  0  0  0  0
   47.6231    9.2521   20.6188 H   0  0  0  0  0  0  0  0  0  0  0  0
   55.1069    3.4343   18.7888 H   0  0  0  0  0  0  0  0  0  0  0  0
   47.6755    8.3300   22.9085 H   0  0  0  0  0  0  0  0  0  0  0  0
   46.2519    7.2813   22.7020 H   0  0  0  0  0  0  0  0  0  0  0  0
   47.8245    6.5950   23.1828 H   0  0  0  0  0  0  0  0  0  0  0  0
   54.7569   -0.8330   18.5689 H   0  0  0  0  0  0  0  0  0  0  0  0
   56.0991    1.1949   19.0545 H   0  0  0  0  0  0  0  0  0  0  0  0
  2  1  1  0
  3  2  1  0
  4  1  1  0
  5  1  2  0
  6  4  1  0
  7  9  2  0
  8  3  2  0
  9  6  1  0
 10 11  2  0
 11 12  1  0
 12  6  2  0
 13  8  1  0
 14  3  1  0
 15  2  1  0
 16 14  2  0
 17  7  1  0
 18 16  1  0
 19 10  1  0
 20 13  1  0
 21 17  2  0
 22 19  2  0
 10  7  1  0
 13 18  2  0
 22 21  1  0
  8 23  1  0
  9 24  1  0
 11 25  1  0
 12 26  1  0
 14 27  1  0
 15 28  1  0
 15 29  1  0
 15 30  1  0
 16 31  1  0
 17 32  1  0
 18 33  1  0
 19 34  1  0
 20 35  1  0
 20 36  1  0
 20 37  1  0
 21 38  1  0
 22 39  1  0
M  END
> <Uni-Dock RESULT> 
ENERGY=   -4.251  LOWER_BOUND=    1.659  UPPER_BOUND=    7.242
INTER + INTRA:          -4.251
INTER:                  -4.251
INTRA:                   0.000
UNBOUND:                 0.000

$$$$

     RDKit          3D

 39 41  0  0  0  0  0  0  0  0999 V2000
   48.1313    6.4725   18.6770 C   0  0  0  0  0  0  0  0  0  0  0  0
   49.0250    6.7361   19.7219 N   0  0  0  0  0  0  0  0  0  0  0  0
   48.8620    6.2376   21.0645 C   0  0  0  0  0  0  0  0  0  0  0  0
   47.8599    7.5033   17.7693 O   0  0  0  0  0  0  0  0  0  0  0  0
   47.4476    5.0006   18.2624 S   0  0  0  0  0  0  0  0  0  0  0  0
   47.7710    8.8613   18.1569 C   0  0  0  0  0  0  0  0  0  0  0  0
   48.2271   11.1671   17.5777 C   0  0  0  0  0  0  0  0  0  0  0  0
   49.9344    6.2164   21.9743 C   0  0  0  0  0  0  0  0  0  0  0  0
   48.2923    9.8009   17.2687 C   0  0  0  0  0  0  0  0  0  0  0  0
   47.6134   11.5764   18.7865 C   0  0  0  0  0  0  0  0  0  0  0  0
   47.0731   10.6078   19.6505 C   0  0  0  0  0  0  0  0  0  0  0  0
   47.1422    9.2505   19.3349 C   0  0  0  0  0  0  0  0  0  0  0  0
   49.7759    5.7706   23.2989 C   0  0  0  0  0  0  0  0  0  0  0  0
   47.6092    5.8236   21.5404 C   0  0  0  0  0  0  0  0  0  0  0  0
   50.2591    7.4423   19.3868 C   0  0  0  0  0  0  0  0  0  0  0  0
   47.4418    5.3642   22.8508 C   0  0  0  0  0  0  0  0  0  0  0  0
   48.7568   12.1377   16.7125 C   0  0  0  0  0  0  0  0  0  0  0  0
   48.5231    5.3278   23.7242 C   0  0  0  0  0  0  0  0  0  0  0  0
   47.5515   12.9448   19.0940 C   0  0  0  0  0  0  0  0  0  0  0  0
   50.9557    5.7144   24.2247 C   0  0  0  0  0  0  0  0  0  0  0  0
   48.6866   13.4938   17.0347 C   0  0  0  0  0  0  0  0  0  0  0  0
   48.0855   13.8967   18.2238 C   0  0  0  0  0  0  0  0  0  0  0  0
   50.9288    6.5330   21.6742 H   0  0  0  0  0  0  0  0  0  0  0  0
   48.7499    9.4623   16.3430 H   0  0  0  0  0  0  0  0  0  0  0  0
   46.5874   10.9075   20.5767 H   0  0  0  0  0  0  0  0  0  0  0  0
   46.7029    8.5208   20.0070 H   0  0  0  0  0  0  0  0  0  0  0  0
   46.7206    5.8686   20.9181 H   0  0  0  0  0  0  0  0  0  0  0  0
   50.2788    7.7493   18.3373 H   0  0  0  0  0  0  0  0  0  0  0  0
   51.1125    6.7700   19.5213 H   0  0  0  0  0  0  0  0  0  0  0  0
   50.3618    8.3279   20.0211 H   0  0  0  0  0  0  0  0  0  0  0  0
   46.4607    5.0379   23.1869 H   0  0  0  0  0  0  0  0  0  0  0  0
   49.2288   11.8435   15.7776 H   0  0  0  0  0  0  0  0  0  0  0  0
   48.3801    4.9600   24.7375 H   0  0  0  0  0  0  0  0  0  0  0  0
   47.0831   13.2807   20.0165 H   0  0  0  0  0  0  0  0  0  0  0  0
   50.6393    5.8022   25.2694 H   0  0  0  0  0  0  0  0  0  0  0  0
   51.4873    4.7667   24.0956 H   0  0  0  0  0  0  0  0  0  0  0  0
   51.6467    6.5401   24.0251 H   0  0  0  0  0  0  0  0  0  0  0  0
   49.0999   14.2352   16.3557 H   0  0  0  0  0  0  0  0  0  0  0  0
   48.0292   14.9529   18.4743 H   0  0  0  0  0  0  0  0  0  0  0  0
  2  1  1  0
  3  2  1  0
  4  1  1  0
  5  1  2  0
  6  4  1  0
  7  9  2  0
  8  3  2  0
  9  6  1  0
 10 11  2  0
 11 12  1  0
 12  6  2  0
 13  8  1  0
 14  3  1  0
 15  2  1  0
 16 14  2  0
 17  7  1  0
 18 16  1  0
 19 10  1  0
 20 13  1  0
 21 17  2  0
 22 19  2  0
 10  7  1  0
 13 18  2  0
 22 21  1  0
  8 23  1  0
  9 24  1  0
 11 25  1  0
 12 26  1  0
 14 27  1  0
 15 28  1  0
 15 29  1  0
 15 30  1  0
 16 31  1  0
 17 32  1  0
 18 33  1  0
 19 34  1  0
 20 35  1  0
 20 36  1  0
 20 37  1  0
 21 38  1  0
 22 39  1  0
M  END
> <Uni-Dock RESULT> 
ENERGY=   -4.220  LOWER_BOUND=    3.332  UPPER_BOUND=    5.421
INTER + INTRA:          -4.220
INTER:                  -4.220
INTRA:                   0.000
UNBOUND:                 0.000

$$$$

     RDKit          3D

 39 41  0  0  0  0  0  0  0  0999 V2000
   49.4170    7.8622   13.9835 C   0  0  0  0  0  0  0  0  0  0  0  0
   48.5135    8.3944   14.9110 N   0  0  0  0  0  0  0  0  0  0  0  0
   48.7187    8.3721   16.3375 C   0  0  0  0  0  0  0  0  0  0  0  0
   48.8965    7.2010   12.8646 O   0  0  0  0  0  0  0  0  0  0  0  0
   51.0807    8.0549   13.9495 S   0  0  0  0  0  0  0  0  0  0  0  0
   47.7283    6.4045   12.9206 C   0  0  0  0  0  0  0  0  0  0  0  0
   45.7043    5.6956   11.7977 C   0  0  0  0  0  0  0  0  0  0  0  0
   47.9900    9.2142   17.1967 C   0  0  0  0  0  0  0  0  0  0  0  0
   46.8742    6.4683   11.8206 C   0  0  0  0  0  0  0  0  0  0  0  0
   45.4141    4.8435   12.8909 C   0  0  0  0  0  0  0  0  0  0  0  0
   46.3073    4.7804   13.9748 C   0  0  0  0  0  0  0  0  0  0  0  0
   47.4694    5.5525   13.9890 C   0  0  0  0  0  0  0  0  0  0  0  0
   48.1532    9.1711   18.5931 C   0  0  0  0  0  0  0  0  0  0  0  0
   49.5995    7.4567   16.9323 C   0  0  0  0  0  0  0  0  0  0  0  0
   47.3686    9.1332   14.3841 C   0  0  0  0  0  0  0  0  0  0  0  0
   49.7815    7.4142   18.3184 C   0  0  0  0  0  0  0  0  0  0  0  0
   44.8150    5.7489   10.7125 C   0  0  0  0  0  0  0  0  0  0  0  0
   49.0688    8.2752   19.1455 C   0  0  0  0  0  0  0  0  0  0  0  0
   44.2409    4.0729   12.8660 C   0  0  0  0  0  0  0  0  0  0  0  0
   47.3952   10.1215   19.4732 C   0  0  0  0  0  0  0  0  0  0  0  0
   43.6531    4.9757   10.7050 C   0  0  0  0  0  0  0  0  0  0  0  0
   43.3662    4.1395   11.7801 C   0  0  0  0  0  0  0  0  0  0  0  0
   47.2840    9.9392   16.8029 H   0  0  0  0  0  0  0  0  0  0  0  0
   47.1236    7.1229   10.9898 H   0  0  0  0  0  0  0  0  0  0  0  0
   46.1045    4.1211   14.8161 H   0  0  0  0  0  0  0  0  0  0  0  0
   48.1542    5.4751   14.8270 H   0  0  0  0  0  0  0  0  0  0  0  0
   50.1518    6.7321   16.3416 H   0  0  0  0  0  0  0  0  0  0  0  0
   47.3320    9.0995   13.2916 H   0  0  0  0  0  0  0  0  0  0  0  0
   47.4622   10.1906   14.6512 H   0  0  0  0  0  0  0  0  0  0  0  0
   46.4416    8.7141   14.7867 H   0  0  0  0  0  0  0  0  0  0  0  0
   50.4810    6.7019   18.7491 H   0  0  0  0  0  0  0  0  0  0  0  0
   45.0222    6.3944    9.8618 H   0  0  0  0  0  0  0  0  0  0  0  0
   49.2269    8.2370   20.2207 H   0  0  0  0  0  0  0  0  0  0  0  0
   44.0000    3.4106   13.6946 H   0  0  0  0  0  0  0  0  0  0  0  0
   47.2563    9.7024   20.4753 H   0  0  0  0  0  0  0  0  0  0  0  0
   47.9396   11.0669   19.5586 H   0  0  0  0  0  0  0  0  0  0  0  0
   46.3990   10.3202   19.0642 H   0  0  0  0  0  0  0  0  0  0  0  0
   42.9734    5.0255    9.8581 H   0  0  0  0  0  0  0  0  0  0  0  0
   42.4622    3.5360   11.7739 H   0  0  0  0  0  0  0  0  0  0  0  0
  2  1  1  0
  3  2  1  0
  4  1  1  0
  5  1  2  0
  6  4  1  0
  7  9  2  0
  8  3  2  0
  9  6  1  0
 10 11  2  0
 11 12  1  0
 12  6  2  0
 13  8  1  0
 14  3  1  0
 15  2  1  0
 16 14  2  0
 17  7  1  0
 18 16  1  0
 19 10  1  0
 20 13  1  0
 21 17  2  0
 22 19  2  0
 10  7  1  0
 13 18  2  0
 22 21  1  0
  8 23  1  0
  9 24  1  0
 11 25  1  0
 12 26  1  0
 14 27  1  0
 15 28  1  0
 15 29  1  0
 15 30  1  0
 16 31  1  0
 17 32  1  0
 18 33  1  0
 19 34  1  0
 20 35  1  0
 20 36  1  0
 20 37  1  0
 21 38  1  0
 22 39  1  0
M  END
> <Uni-Dock RESULT> 
ENERGY=   -4.178  LOWER_BOUND=    4.858  UPPER_BOUND=    8.293
INTER + INTRA:          -4.178
INTER:                  -4.178
INTRA:                   0.000
UNBOUND:                 0.000

$$$$

     RDKit          3D

 39 41  0  0  0  0  0  0  0  0999 V2000
   48.9571    7.6054   13.0323 C   0  0  0  0  0  0  0  0  0  0  0  0
   47.5765    7.8372   13.0216 N   0  0  0  0  0  0  0  0  0  0  0  0
   46.9652    9.0291   12.4894 C   0  0  0  0  0  0  0  0  0  0  0  0
   49.5080    6.9717   14.1526 O   0  0  0  0  0  0  0  0  0  0  0  0
   50.0446    7.8467   11.7812 S   0  0  0  0  0  0  0  0  0  0  0  0
   49.0411    7.2007   15.4686 C   0  0  0  0  0  0  0  0  0  0  0  0
   48.5678    6.2502   17.6440 C   0  0  0  0  0  0  0  0  0  0  0  0
   45.5961    9.0714   12.1701 C   0  0  0  0  0  0  0  0  0  0  0  0
   49.0049    6.0977   16.3204 C   0  0  0  0  0  0  0  0  0  0  0  0
   48.1838    7.5331   18.1044 C   0  0  0  0  0  0  0  0  0  0  0  0
   48.2557    8.6318   17.2302 C   0  0  0  0  0  0  0  0  0  0  0  0
   48.6922    8.4711   15.9148 C   0  0  0  0  0  0  0  0  0  0  0  0
   44.9815   10.2417   11.6892 C   0  0  0  0  0  0  0  0  0  0  0  0
   47.6956   10.2172   12.3393 C   0  0  0  0  0  0  0  0  0  0  0  0
   46.7094    6.7427   13.4512 C   0  0  0  0  0  0  0  0  0  0  0  0
   47.0994   11.3832   11.8481 C   0  0  0  0  0  0  0  0  0  0  0  0
   48.5041    5.1569   18.5226 C   0  0  0  0  0  0  0  0  0  0  0  0
   45.7497   11.3930   11.5143 C   0  0  0  0  0  0  0  0  0  0  0  0
   47.7446    7.6821   19.4295 C   0  0  0  0  0  0  0  0  0  0  0  0
   43.5294   10.2329   11.3106 C   0  0  0  0  0  0  0  0  0  0  0  0
   48.0646    5.3237   19.8368 C   0  0  0  0  0  0  0  0  0  0  0  0
   47.6849    6.5841   20.2892 C   0  0  0  0  0  0  0  0  0  0  0  0
   44.9704    8.1899   12.2727 H   0  0  0  0  0  0  0  0  0  0  0  0
   49.3136    5.1253   15.9462 H   0  0  0  0  0  0  0  0  0  0  0  0
   47.9761    9.6258   17.5729 H   0  0  0  0  0  0  0  0  0  0  0  0
   48.7573    9.3353   15.2621 H   0  0  0  0  0  0  0  0  0  0  0  0
   48.7419   10.2818   12.6223 H   0  0  0  0  0  0  0  0  0  0  0  0
   47.2858    5.8858   13.8111 H   0  0  0  0  0  0  0  0  0  0  0  0
   46.1293    6.3798   12.5968 H   0  0  0  0  0  0  0  0  0  0  0  0
   46.0457    7.0888   14.2492 H   0  0  0  0  0  0  0  0  0  0  0  0
   47.6948   12.2853   11.7308 H   0  0  0  0  0  0  0  0  0  0  0  0
   48.7983    4.1642   18.1889 H   0  0  0  0  0  0  0  0  0  0  0  0
   45.3015   12.3043   11.1253 H   0  0  0  0  0  0  0  0  0  0  0  0
   47.4466    8.6591   19.8037 H   0  0  0  0  0  0  0  0  0  0  0  0
   43.0940   11.2336   11.4017 H   0  0  0  0  0  0  0  0  0  0  0  0
   43.4144    9.8910   10.2775 H   0  0  0  0  0  0  0  0  0  0  0  0
   42.9592    9.5704   11.9703 H   0  0  0  0  0  0  0  0  0  0  0  0
   48.0208    4.4691   20.5071 H   0  0  0  0  0  0  0  0  0  0  0  0
   47.3441    6.7146   21.3131 H   0  0  0  0  0  0  0  0  0  0  0  0
  2  1  1  0
  3  2  1  0
  4  1  1  0
  5  1  2  0
  6  4  1  0
  7  9  2  0
  8  3  2  0
  9  6  1  0
 10 11  2  0
 11 12  1  0
 12  6  2  0
 13  8  1  0
 14  3  1  0
 15  2  1  0
 16 14  2  0
 17  7  1  0
 18 16  1  0
 19 10  1  0
 20 13  1  0
 21 17  2  0
 22 19  2  0
 10  7  1  0
 13 18  2  0
 22 21  1  0
  8 23  1  0
  9 24  1  0
 11 25  1  0
 12 26  1  0
 14 27  1  0
 15 28  1  0
 15 29  1  0
 15 30  1  0
 16 31  1  0
 17 32  1  0
 18 33  1  0
 19 34  1  0
 20 35  1  0
 20 36  1  0
 20 37  1  0
 21 38  1  0
 22 39  1  0
M  END
> <Uni-Dock RESULT> 
ENERGY=   -4.162  LOWER_BOUND=    4.899  UPPER_BOUND=    7.519
INTER + INTRA:          -4.162
INTER:                  -4.162
INTRA:                   0.000
UNBOUND:                 0.000

$$$$

     RDKit          3D

 39 41  0  0  0  0  0  0  0  0999 V2000
   49.5597    7.9691   13.6661 C   0  0  0  0  0  0  0  0  0  0  0  0
   48.9933    8.1607   14.9320 N   0  0  0  0  0  0  0  0  0  0  0  0
   49.6061    7.7246   16.1616 C   0  0  0  0  0  0  0  0  0  0  0  0
   48.7041    7.6478   12.6056 O   0  0  0  0  0  0  0  0  0  0  0  0
   51.1476    8.2372   13.2047 S   0  0  0  0  0  0  0  0  0  0  0  0
   47.5677    6.8194   12.7626 C   0  0  0  0  0  0  0  0  0  0  0  0
   45.2728    6.3867   12.1251 C   0  0  0  0  0  0  0  0  0  0  0  0
   49.2010    8.2399   17.4060 C   0  0  0  0  0  0  0  0  0  0  0  0
   46.4328    7.1690   12.0322 C   0  0  0  0  0  0  0  0  0  0  0  0
   45.2761    5.2362   12.9506 C   0  0  0  0  0  0  0  0  0  0  0  0
   46.4437    4.8936   13.6550 C   0  0  0  0  0  0  0  0  0  0  0  0
   47.5936    5.6776   13.5564 C   0  0  0  0  0  0  0  0  0  0  0  0
   49.7638    7.7910   18.6144 C   0  0  0  0  0  0  0  0  0  0  0  0
   50.5787    6.7140   16.1720 C   0  0  0  0  0  0  0  0  0  0  0  0
   47.7800    8.9709   15.0081 C   0  0  0  0  0  0  0  0  0  0  0  0
   51.1565    6.2696   17.3657 C   0  0  0  0  0  0  0  0  0  0  0  0
   44.1082    6.7204   11.4153 C   0  0  0  0  0  0  0  0  0  0  0  0
   50.7583    6.8132   18.5819 C   0  0  0  0  0  0  0  0  0  0  0  0
   44.1125    4.4562   13.0431 C   0  0  0  0  0  0  0  0  0  0  0  0
   49.3420    8.4021   19.9186 C   0  0  0  0  0  0  0  0  0  0  0  0
   42.9603    5.9333   11.5196 C   0  0  0  0  0  0  0  0  0  0  0  0
   42.9623    4.8035   12.3326 C   0  0  0  0  0  0  0  0  0  0  0  0
   48.4453    9.0169   17.4704 H   0  0  0  0  0  0  0  0  0  0  0  0
   46.4582    8.0514   11.3984 H   0  0  0  0  0  0  0  0  0  0  0  0
   46.4657    4.0057   14.2833 H   0  0  0  0  0  0  0  0  0  0  0  0
   48.4895    5.3853   14.0942 H   0  0  0  0  0  0  0  0  0  0  0  0
   50.8994    6.2231   15.2581 H   0  0  0  0  0  0  0  0  0  0  0  0
   47.4236    9.2618   14.0161 H   0  0  0  0  0  0  0  0  0  0  0  0
   47.9970    9.9042   15.5374 H   0  0  0  0  0  0  0  0  0  0  0  0
   46.9931    8.4101   15.5214 H   0  0  0  0  0  0  0  0  0  0  0  0
   51.9175    5.4935   17.3405 H   0  0  0  0  0  0  0  0  0  0  0  0
   44.0870    7.5981   10.7731 H   0  0  0  0  0  0  0  0  0  0  0  0
   51.2224    6.4642   19.5014 H   0  0  0  0  0  0  0  0  0  0  0  0
   44.0943    3.5676   13.6702 H   0  0  0  0  0  0  0  0  0  0  0  0
   49.4833    7.6983   20.7457 H   0  0  0  0  0  0  0  0  0  0  0  0
   49.9310    9.3027   20.1173 H   0  0  0  0  0  0  0  0  0  0  0  0
   48.2801    8.6688   19.8981 H   0  0  0  0  0  0  0  0  0  0  0  0
   42.0654    6.2023   10.9642 H   0  0  0  0  0  0  0  0  0  0  0  0
   42.0690    4.1895   12.4128 H   0  0  0  0  0  0  0  0  0  0  0  0
  2  1  1  0
  3  2  1  0
  4  1  1  0
  5  1  2  0
  6  4  1  0
  7  9  2  0
  8  3  2  0
  9  6  1  0
 10 11  2  0
 11 12  1  0
 12  6  2  0
 13  8  1  0
 14  3  1  0
 15  2  1  0
 16 14  2  0
 17  7  1  0
 18 16  1  0
 19 10  1  0
 20 13  1  0
 21 17  2  0
 22 19  2  0
 10  7  1  0
 13 18  2  0
 22 21  1  0
  8 23  1  0
  9 24  1  0
 11 25  1  0
 12 26  1  0
 14 27  1  0
 15 28  1  0
 15 29  1  0
 15 30  1  0
 16 31  1  0
 17 32  1  0
 18 33  1  0
 19 34  1  0
 20 35  1  0
 20 36  1  0
 20 37  1  0
 21 38  1  0
 22 39  1  0
M  END
> <Uni-Dock RESULT> 
ENERGY=   -3.998  LOWER_BOUND=    4.794  UPPER_BOUND=    7.739
INTER + INTRA:          -3.998
INTER:                  -3.998
INTRA:                   0.000
UNBOUND:                 0.000

$$$$
