
     RDKit          3D

 39 41  0  0  0  0  0  0  0  0999 V2000
   43.6606    5.0598   11.5486 C   0  0  0  0  0  0  0  0  0  0  0  0
   44.9255    5.4000   12.0429 N   0  0  0  0  0  0  0  0  0  0  0  0
   45.3469    6.7517   12.3123 C   0  0  0  0  0  0  0  0  0  0  0  0
   43.5789    4.0230   10.6114 O   0  0  0  0  0  0  0  0  0  0  0  0
   42.1731    5.6349   12.0615 S   0  0  0  0  0  0  0  0  0  0  0  0
   44.5660    3.8071    9.6207 C   0  0  0  0  0  0  0  0  0  0  0  0
   45.8296    2.1884    8.3390 C   0  0  0  0  0  0  0  0  0  0  0  0
   46.4617    7.0245   13.1253 C   0  0  0  0  0  0  0  0  0  0  0  0
   44.8719    2.4805    9.3208 C   0  0  0  0  0  0  0  0  0  0  0  0
   46.4631    3.2510    7.6498 C   0  0  0  0  0  0  0  0  0  0  0  0
   46.1151    4.5784    7.9553 C   0  0  0  0  0  0  0  0  0  0  0  0
   45.1610    4.8599    8.9336 C   0  0  0  0  0  0  0  0  0  0  0  0
   46.8954    8.3393   13.3742 C   0  0  0  0  0  0  0  0  0  0  0  0
   44.7098    7.8466   11.7097 C   0  0  0  0  0  0  0  0  0  0  0  0
   45.8079    4.3042   12.4361 C   0  0  0  0  0  0  0  0  0  0  0  0
   45.1408    9.1577   11.9371 C   0  0  0  0  0  0  0  0  0  0  0  0
   46.1723    0.8637    8.0244 C   0  0  0  0  0  0  0  0  0  0  0  0
   46.2296    9.4038   12.7661 C   0  0  0  0  0  0  0  0  0  0  0  0
   47.4228    2.9552    6.6689 C   0  0  0  0  0  0  0  0  0  0  0  0
   48.0981    8.5889   14.2364 C   0  0  0  0  0  0  0  0  0  0  0  0
   47.1291    0.5884    7.0463 C   0  0  0  0  0  0  0  0  0  0  0  0
   47.7538    1.6324    6.3702 C   0  0  0  0  0  0  0  0  0  0  0  0
   47.0167    6.2220   13.6015 H   0  0  0  0  0  0  0  0  0  0  0  0
   44.3653    1.6826    9.8569 H   0  0  0  0  0  0  0  0  0  0  0  0
   46.5840    5.4050    7.4257 H   0  0  0  0  0  0  0  0  0  0  0  0
   44.8939    5.8909    9.1412 H   0  0  0  0  0  0  0  0  0  0  0  0
   43.8818    7.7144   11.0201 H   0  0  0  0  0  0  0  0  0  0  0  0
   46.7661    4.3968   11.9159 H   0  0  0  0  0  0  0  0  0  0  0  0
   45.3696    3.3286   12.2081 H   0  0  0  0  0  0  0  0  0  0  0  0
   45.9540    4.3243   13.5208 H   0  0  0  0  0  0  0  0  0  0  0  0
   44.6263    9.9859   11.4558 H   0  0  0  0  0  0  0  0  0  0  0  0
   45.6940    0.0337    8.5399 H   0  0  0  0  0  0  0  0  0  0  0  0
   46.5570   10.4279   12.9292 H   0  0  0  0  0  0  0  0  0  0  0  0
   47.9202    3.7563    6.1266 H   0  0  0  0  0  0  0  0  0  0  0  0
   49.0093    8.5290   13.6334 H   0  0  0  0  0  0  0  0  0  0  0  0
   48.1572    7.8524   15.0446 H   0  0  0  0  0  0  0  0  0  0  0  0
   48.0481    9.5784   14.7030 H   0  0  0  0  0  0  0  0  0  0  0  0
   47.3847   -0.4417    6.8117 H   0  0  0  0  0  0  0  0  0  0  0  0
   48.4978    1.4184    5.6072 H   0  0  0  0  0  0  0  0  0  0  0  0
  2  1  1  0
  3  2  1  0
  4  1  1  0
  5  1  2  0
  6  4  1  0
  7  9  2  0
  8  3  2  0
  9  6  1  0
 10 11  2  0
 11 12  1  0
 12  6  2  0
 13  8  1  0
 14  3  1  0
 15  2  1  0
 16 14  2  0
 17  7  1  0
 18 16  1  0
 19 10  1  0
 20 13  1  0
 21 17  2  0
 22 19  2  0
 10  7  1  0
 13 18  2  0
 22 21  1  0
  8 23  1  0
  9 24  1  0
 11 25  1  0
 12 26  1  0
 14 27  1  0
 15 28  1  0
 15 29  1  0
 15 30  1  0
 16 31  1  0
 17 32  1  0
 18 33  1  0
 19 34  1  0
 20 35  1  0
 20 36  1  0
 20 37  1  0
 21 38  1  0
 22 39  1  0
M  END
> <Uni-Dock RESULT> 
ENERGY=   -7.636  LOWER_BOUND=    0.000  UPPER_BOUND=    0.000
INTER + INTRA:          -7.636
INTER:                  -7.636
INTRA:                   0.000
UNBOUND:                 0.000

$$$$

     RDKit          3D

 39 41  0  0  0  0  0  0  0  0999 V2000
   48.9012    6.1489   17.2116 C   0  0  0  0  0  0  0  0  0  0  0  0
   50.0570    5.6398   17.8157 N   0  0  0  0  0  0  0  0  0  0  0  0
   50.5043    4.2769   17.6751 C   0  0  0  0  0  0  0  0  0  0  0  0
   48.1252    7.0579   17.9407 O   0  0  0  0  0  0  0  0  0  0  0  0
   48.3940    5.9337   15.6296 S   0  0  0  0  0  0  0  0  0  0  0  0
   47.9428    6.9584   19.3404 C   0  0  0  0  0  0  0  0  0  0  0  0
   47.7212    8.1370   21.4432 C   0  0  0  0  0  0  0  0  0  0  0  0
   51.8229    3.9013   17.9889 C   0  0  0  0  0  0  0  0  0  0  0  0
   47.9132    8.1556   20.0542 C   0  0  0  0  0  0  0  0  0  0  0  0
   47.5417    6.8966   22.1023 C   0  0  0  0  0  0  0  0  0  0  0  0
   47.5502    5.7074   21.3526 C   0  0  0  0  0  0  0  0  0  0  0  0
   47.7416    5.7351   19.9708 C   0  0  0  0  0  0  0  0  0  0  0  0
   52.2620    2.5696   17.8785 C   0  0  0  0  0  0  0  0  0  0  0  0
   49.6202    3.2560   17.2959 C   0  0  0  0  0  0  0  0  0  0  0  0
   50.9242    6.5892   18.5091 C   0  0  0  0  0  0  0  0  0  0  0  0
   50.0406    1.9256   17.1969 C   0  0  0  0  0  0  0  0  0  0  0  0
   47.7023    9.3235   22.1936 C   0  0  0  0  0  0  0  0  0  0  0  0
   51.3566    1.5830   17.4872 C   0  0  0  0  0  0  0  0  0  0  0  0
   47.3518    6.8814   23.4931 C   0  0  0  0  0  0  0  0  0  0  0  0
   53.6736    2.2061   18.2360 C   0  0  0  0  0  0  0  0  0  0  0  0
   47.5125    9.2893   23.5759 C   0  0  0  0  0  0  0  0  0  0  0  0
   47.3382    8.0702   24.2247 C   0  0  0  0  0  0  0  0  0  0  0  0
   52.5519    4.6373   18.3143 H   0  0  0  0  0  0  0  0  0  0  0  0
   48.0440    9.0952   19.5244 H   0  0  0  0  0  0  0  0  0  0  0  0
   47.4010    4.7478   21.8430 H   0  0  0  0  0  0  0  0  0  0  0  0
   47.7265    4.8071   19.4087 H   0  0  0  0  0  0  0  0  0  0  0  0
   48.5715    3.4557   17.0980 H   0  0  0  0  0  0  0  0  0  0  0  0
   51.0924    6.2532   19.5367 H   0  0  0  0  0  0  0  0  0  0  0  0
   50.4931    7.5940   18.5271 H   0  0  0  0  0  0  0  0  0  0  0  0
   51.8735    6.6766   17.9712 H   0  0  0  0  0  0  0  0  0  0  0  0
   49.3318    1.1564   16.9000 H   0  0  0  0  0  0  0  0  0  0  0  0
   47.8346   10.2865   21.7051 H   0  0  0  0  0  0  0  0  0  0  0  0
   51.6679    0.5438   17.4114 H   0  0  0  0  0  0  0  0  0  0  0  0
   47.2104    5.9396   24.0188 H   0  0  0  0  0  0  0  0  0  0  0  0
   53.7500    2.0172   19.3111 H   0  0  0  0  0  0  0  0  0  0  0  0
   54.3633    3.0127   17.9664 H   0  0  0  0  0  0  0  0  0  0  0  0
   53.9968    1.3096   17.6963 H   0  0  0  0  0  0  0  0  0  0  0  0
   47.4991   10.2152   24.1451 H   0  0  0  0  0  0  0  0  0  0  0  0
   47.1887    8.0432   25.3010 H   0  0  0  0  0  0  0  0  0  0  0  0
  2  1  1  0
  3  2  1  0
  4  1  1  0
  5  1  2  0
  6  4  1  0
  7  9  2  0
  8  3  2  0
  9  6  1  0
 10 11  2  0
 11 12  1  0
 12  6  2  0
 13  8  1  0
 14  3  1  0
 15  2  1  0
 16 14  2  0
 17  7  1  0
 18 16  1  0
 19 10  1  0
 20 13  1  0
 21 17  2  0
 22 19  2  0
 10  7  1  0
 13 18  2  0
 22 21  1  0
  8 23  1  0
  9 24  1  0
 11 25  1  0
 12 26  1  0
 14 27  1  0
 15 28  1  0
 15 29  1  0
 15 30  1  0
 16 31  1  0
 17 32  1  0
 18 33  1  0
 19 34  1  0
 20 35  1  0
 20 36  1  0
 20 37  1  0
 21 38  1  0
 22 39  1  0
M  END
> <Uni-Dock RESULT> 
ENERGY=   -4.953  LOWER_BOUND=    8.343  UPPER_BOUND=   12.077
INTER + INTRA:          -4.953
INTER:                  -4.953
INTRA:                   0.000
UNBOUND:                 0.000

$$$$

     RDKit          3D

 39 41  0  0  0  0  0  0  0  0999 V2000
   48.6019    5.4398   17.2741 C   0  0  0  0  0  0  0  0  0  0  0  0
   49.9024    5.2524   17.7574 N   0  0  0  0  0  0  0  0  0  0  0  0
   50.6150    4.0017   17.6846 C   0  0  0  0  0  0  0  0  0  0  0  0
   47.7369    6.2538   18.0152 O   0  0  0  0  0  0  0  0  0  0  0  0
   47.9741    4.9367   15.8047 S   0  0  0  0  0  0  0  0  0  0  0  0
   47.7433    6.2893   19.4298 C   0  0  0  0  0  0  0  0  0  0  0  0
   47.5161    7.6438   21.4232 C   0  0  0  0  0  0  0  0  0  0  0  0
   52.0108    3.9421   17.8467 C   0  0  0  0  0  0  0  0  0  0  0  0
   47.5377    7.5329   20.0254 C   0  0  0  0  0  0  0  0  0  0  0  0
   47.6869    6.4816   22.2141 C   0  0  0  0  0  0  0  0  0  0  0  0
   47.8661    5.2372   21.5852 C   0  0  0  0  0  0  0  0  0  0  0  0
   47.8861    5.1359   20.1938 C   0  0  0  0  0  0  0  0  0  0  0  0
   52.7122    2.7236   17.8018 C   0  0  0  0  0  0  0  0  0  0  0  0
   49.9352    2.7845   17.5287 C   0  0  0  0  0  0  0  0  0  0  0  0
   50.6174    6.4345   18.2320 C   0  0  0  0  0  0  0  0  0  0  0  0
   50.6196    1.5651   17.4976 C   0  0  0  0  0  0  0  0  0  0  0  0
   47.3274    8.8836   22.0545 C   0  0  0  0  0  0  0  0  0  0  0  0
   52.0030    1.5341   17.6337 C   0  0  0  0  0  0  0  0  0  0  0  0
   47.6667    6.5964   23.6131 C   0  0  0  0  0  0  0  0  0  0  0  0
   54.2006    2.6998   17.9929 C   0  0  0  0  0  0  0  0  0  0  0  0
   47.3105    8.9788   23.4468 C   0  0  0  0  0  0  0  0  0  0  0  0
   47.4806    7.8373   24.2248 C   0  0  0  0  0  0  0  0  0  0  0  0
   52.5956    4.8443   17.9976 H   0  0  0  0  0  0  0  0  0  0  0  0
   47.3997    8.4085   19.3969 H   0  0  0  0  0  0  0  0  0  0  0  0
   47.9860    4.3337   22.1793 H   0  0  0  0  0  0  0  0  0  0  0  0
   48.0076    4.1632   19.7286 H   0  0  0  0  0  0  0  0  0  0  0  0
   48.8526    2.7421   17.4600 H   0  0  0  0  0  0  0  0  0  0  0  0
   50.9720    6.2663   19.2534 H   0  0  0  0  0  0  0  0  0  0  0  0
   49.9839    7.3258   18.2153 H   0  0  0  0  0  0  0  0  0  0  0  0
   51.4566    6.6471   17.5621 H   0  0  0  0  0  0  0  0  0  0  0  0
   50.0648    0.6380   17.3751 H   0  0  0  0  0  0  0  0  0  0  0  0
   47.1906    9.7871   21.4643 H   0  0  0  0  0  0  0  0  0  0  0  0
   52.5212    0.5782   17.6133 H   0  0  0  0  0  0  0  0  0  0  0  0
   47.7944    5.7161   24.2392 H   0  0  0  0  0  0  0  0  0  0  0  0
   54.4398    2.6617   19.0600 H   0  0  0  0  0  0  0  0  0  0  0  0
   54.6634    3.5909   17.5560 H   0  0  0  0  0  0  0  0  0  0  0  0
   54.6458    1.8289   17.5001 H   0  0  0  0  0  0  0  0  0  0  0  0
   47.1627    9.9447   23.9231 H   0  0  0  0  0  0  0  0  0  0  0  0
   47.4658    7.9108   25.3092 H   0  0  0  0  0  0  0  0  0  0  0  0
  2  1  1  0
  3  2  1  0
  4  1  1  0
  5  1  2  0
  6  4  1  0
  7  9  2  0
  8  3  2  0
  9  6  1  0
 10 11  2  0
 11 12  1  0
 12  6  2  0
 13  8  1  0
 14  3  1  0
 15  2  1  0
 16 14  2  0
 17  7  1  0
 18 16  1  0
 19 10  1  0
 20 13  1  0
 21 17  2  0
 22 19  2  0
 10  7  1  0
 13 18  2  0
 22 21  1  0
  8 23  1  0
  9 24  1  0
 11 25  1  0
 12 26  1  0
 14 27  1  0
 15 28  1  0
 15 29  1  0
 15 30  1  0
 16 31  1  0
 17 32  1  0
 18 33  1  0
 19 34  1  0
 20 35  1  0
 20 36  1  0
 20 37  1  0
 21 38  1  0
 22 39  1  0
M  END
> <Uni-Dock RESULT> 
ENERGY=   -4.743  LOWER_BOUND=    8.388  UPPER_BOUND=   12.050
INTER + INTRA:          -4.743
INTER:                  -4.743
INTRA:                   0.000
UNBOUND:                 0.000

$$$$

     RDKit          3D

 39 41  0  0  0  0  0  0  0  0999 V2000
   49.1049    7.9331   21.2993 C   0  0  0  0  0  0  0  0  0  0  0  0
   49.0999    8.7284   20.1471 N   0  0  0  0  0  0  0  0  0  0  0  0
   48.2029    9.8372   19.9391 C   0  0  0  0  0  0  0  0  0  0  0  0
   49.3233    6.5586   21.1474 O   0  0  0  0  0  0  0  0  0  0  0  0
   49.0423    8.4420   22.8941 S   0  0  0  0  0  0  0  0  0  0  0  0
   48.8271    5.8217   20.0460 C   0  0  0  0  0  0  0  0  0  0  0  0
   49.2253    4.0408   18.4555 C   0  0  0  0  0  0  0  0  0  0  0  0
   48.4569   10.8123   18.9578 C   0  0  0  0  0  0  0  0  0  0  0  0
   49.6557    4.8226   19.5372 C   0  0  0  0  0  0  0  0  0  0  0  0
   47.9410    4.2669   17.9036 C   0  0  0  0  0  0  0  0  0  0  0  0
   47.1172    5.2640   18.4544 C   0  0  0  0  0  0  0  0  0  0  0  0
   47.5532    6.0371   19.5309 C   0  0  0  0  0  0  0  0  0  0  0  0
   47.5751   11.8844   18.7307 C   0  0  0  0  0  0  0  0  0  0  0  0
   47.0000    9.9442   20.6528 C   0  0  0  0  0  0  0  0  0  0  0  0
   50.1617    8.4990   19.1703 C   0  0  0  0  0  0  0  0  0  0  0  0
   46.1077   10.9972   20.4257 C   0  0  0  0  0  0  0  0  0  0  0  0
   50.0416    3.0375   17.9093 C   0  0  0  0  0  0  0  0  0  0  0  0
   46.3936   11.9640   19.4682 C   0  0  0  0  0  0  0  0  0  0  0  0
   47.5141    3.4839   16.8194 C   0  0  0  0  0  0  0  0  0  0  0  0
   47.8745   12.8976   17.6646 C   0  0  0  0  0  0  0  0  0  0  0  0
   49.6007    2.2688   16.8310 C   0  0  0  0  0  0  0  0  0  0  0  0
   48.3393    2.4921   16.2866 C   0  0  0  0  0  0  0  0  0  0  0  0
   49.3567   10.7747   18.3513 H   0  0  0  0  0  0  0  0  0  0  0  0
   50.6331    4.6621   19.9841 H   0  0  0  0  0  0  0  0  0  0  0  0
   46.1231    5.4410   18.0494 H   0  0  0  0  0  0  0  0  0  0  0  0
   46.8945    6.7891   19.9527 H   0  0  0  0  0  0  0  0  0  0  0  0
   46.7028    9.1973   21.3824 H   0  0  0  0  0  0  0  0  0  0  0  0
   49.7232    8.3102   18.1858 H   0  0  0  0  0  0  0  0  0  0  0  0
   50.7935    7.6512   19.4494 H   0  0  0  0  0  0  0  0  0  0  0  0
   50.8224    9.3711   19.1377 H   0  0  0  0  0  0  0  0  0  0  0  0
   45.1832   11.0532   20.9952 H   0  0  0  0  0  0  0  0  0  0  0  0
   51.0298    2.8460   18.3218 H   0  0  0  0  0  0  0  0  0  0  0  0
   45.6879   12.7738   19.2984 H   0  0  0  0  0  0  0  0  0  0  0  0
   46.5306    3.6400   16.3815 H   0  0  0  0  0  0  0  0  0  0  0  0
   47.5042   12.5432   16.6978 H   0  0  0  0  0  0  0  0  0  0  0  0
   48.9522   13.0762   17.5892 H   0  0  0  0  0  0  0  0  0  0  0  0
   47.4020   13.8588   17.8928 H   0  0  0  0  0  0  0  0  0  0  0  0
   50.2422    1.4946   16.4180 H   0  0  0  0  0  0  0  0  0  0  0  0
   47.9948    1.8925   15.4479 H   0  0  0  0  0  0  0  0  0  0  0  0
  2  1  1  0
  3  2  1  0
  4  1  1  0
  5  1  2  0
  6  4  1  0
  7  9  2  0
  8  3  2  0
  9  6  1  0
 10 11  2  0
 11 12  1  0
 12  6  2  0
 13  8  1  0
 14  3  1  0
 15  2  1  0
 16 14  2  0
 17  7  1  0
 18 16  1  0
 19 10  1  0
 20 13  1  0
 21 17  2  0
 22 19  2  0
 10  7  1  0
 13 18  2  0
 22 21  1  0
  8 23  1  0
  9 24  1  0
 11 25  1  0
 12 26  1  0
 14 27  1  0
 15 28  1  0
 15 29  1  0
 15 30  1  0
 16 31  1  0
 17 32  1  0
 18 33  1  0
 19 34  1  0
 20 35  1  0
 20 36  1  0
 20 37  1  0
 21 38  1  0
 22 39  1  0
M  END
> <Uni-Dock RESULT> 
ENERGY=   -4.685  LOWER_BOUND=    8.349  UPPER_BOUND=    9.988
INTER + INTRA:          -4.685
INTER:                  -4.685
INTRA:                   0.000
UNBOUND:                 0.000

$$$$
