
     RDKit          3D

 39 41  0  0  0  0  0  0  0  0999 V2000
   43.6774    4.7249   11.6461 C   0  0  0  0  0  0  0  0  0  0  0  0
   44.9920    4.8260   12.1161 N   0  0  0  0  0  0  0  0  0  0  0  0
   45.6920    6.0746   12.2845 C   0  0  0  0  0  0  0  0  0  0  0  0
   43.3686    3.6694   10.7791 O   0  0  0  0  0  0  0  0  0  0  0  0
   42.3500    5.6302   12.1196 S   0  0  0  0  0  0  0  0  0  0  0  0
   44.2745    3.1705    9.8127 C   0  0  0  0  0  0  0  0  0  0  0  0
   45.9761    3.4681    8.1188 C   0  0  0  0  0  0  0  0  0  0  0  0
   46.8542    6.1636   13.0713 C   0  0  0  0  0  0  0  0  0  0  0  0
   45.1047    4.0121    9.0741 C   0  0  0  0  0  0  0  0  0  0  0  0
   45.9836    2.0685    7.9000 C   0  0  0  0  0  0  0  0  0  0  0  0
   45.1146    1.2481    8.6397 C   0  0  0  0  0  0  0  0  0  0  0  0
   44.2554    1.7973    9.5909 C   0  0  0  0  0  0  0  0  0  0  0  0
   47.5589    7.3716   13.2210 C   0  0  0  0  0  0  0  0  0  0  0  0
   45.2874    7.2335   11.6053 C   0  0  0  0  0  0  0  0  0  0  0  0
   45.6316    3.5998   12.5864 C   0  0  0  0  0  0  0  0  0  0  0  0
   45.9880    8.4371   11.7340 C   0  0  0  0  0  0  0  0  0  0  0  0
   46.8409    4.2848    7.3732 C   0  0  0  0  0  0  0  0  0  0  0  0
   47.1199    8.5066   12.5386 C   0  0  0  0  0  0  0  0  0  0  0  0
   46.8572    1.5299    6.9421 C   0  0  0  0  0  0  0  0  0  0  0  0
   48.8037    7.4231   14.0577 C   0  0  0  0  0  0  0  0  0  0  0  0
   47.7034    3.7316    6.4257 C   0  0  0  0  0  0  0  0  0  0  0  0
   47.7116    2.3566    6.2105 C   0  0  0  0  0  0  0  0  0  0  0  0
   47.2376    5.2979   13.6030 H   0  0  0  0  0  0  0  0  0  0  0  0
   45.0766    5.0855    9.2342 H   0  0  0  0  0  0  0  0  0  0  0  0
   45.0996    0.1731    8.4747 H   0  0  0  0  0  0  0  0  0  0  0  0
   43.5805    1.1590   10.1535 H   0  0  0  0  0  0  0  0  0  0  0  0
   44.4368    7.2301   10.9305 H   0  0  0  0  0  0  0  0  0  0  0  0
   45.7960    3.6651   13.6667 H   0  0  0  0  0  0  0  0  0  0  0  0
   46.5796    3.4522   12.0603 H   0  0  0  0  0  0  0  0  0  0  0  0
   44.9949    2.7246   12.4290 H   0  0  0  0  0  0  0  0  0  0  0  0
   45.6496    9.3187   11.1950 H   0  0  0  0  0  0  0  0  0  0  0  0
   46.8499    5.3619    7.5271 H   0  0  0  0  0  0  0  0  0  0  0  0
   47.6580    9.4476   12.6246 H   0  0  0  0  0  0  0  0  0  0  0  0
   46.8775    0.4582    6.7566 H   0  0  0  0  0  0  0  0  0  0  0  0
   49.6701    7.1297   13.4572 H   0  0  0  0  0  0  0  0  0  0  0  0
   48.9715    8.4315   14.4504 H   0  0  0  0  0  0  0  0  0  0  0  0
   48.7225    6.7500   14.9178 H   0  0  0  0  0  0  0  0  0  0  0  0
   48.3679    4.3758    5.8556 H   0  0  0  0  0  0  0  0  0  0  0  0
   48.3822    1.9258    5.4715 H   0  0  0  0  0  0  0  0  0  0  0  0
  2  1  1  0
  3  2  1  0
  4  1  1  0
  5  1  2  0
  6  4  1  0
  7  9  2  0
  8  3  2  0
  9  6  1  0
 10 11  2  0
 11 12  1  0
 12  6  2  0
 13  8  1  0
 14  3  1  0
 15  2  1  0
 16 14  2  0
 17  7  1  0
 18 16  1  0
 19 10  1  0
 20 13  1  0
 21 17  2  0
 22 19  2  0
 10  7  1  0
 13 18  2  0
 22 21  1  0
  8 23  1  0
  9 24  1  0
 11 25  1  0
 12 26  1  0
 14 27  1  0
 15 28  1  0
 15 29  1  0
 15 30  1  0
 16 31  1  0
 17 32  1  0
 18 33  1  0
 19 34  1  0
 20 35  1  0
 20 36  1  0
 20 37  1  0
 21 38  1  0
 22 39  1  0
M  END
> <Uni-Dock RESULT> 
ENERGY=   -5.888  LOWER_BOUND=    0.000  UPPER_BOUND=    0.000
INTER + INTRA:          -5.888
INTER:                  -5.888
INTRA:                   0.000
UNBOUND:                 0.000

$$$$

     RDKit          3D

 39 41  0  0  0  0  0  0  0  0999 V2000
   48.8280    6.5116   16.9898 C   0  0  0  0  0  0  0  0  0  0  0  0
   49.9986    6.0605   17.6105 N   0  0  0  0  0  0  0  0  0  0  0  0
   50.4401    4.6885   17.5942 C   0  0  0  0  0  0  0  0  0  0  0  0
   48.0659    7.4831   17.6506 O   0  0  0  0  0  0  0  0  0  0  0  0
   48.2845    6.1504   15.4470 S   0  0  0  0  0  0  0  0  0  0  0  0
   47.9243    7.5311   19.0581 C   0  0  0  0  0  0  0  0  0  0  0  0
   47.6306    6.4797   21.2171 C   0  0  0  0  0  0  0  0  0  0  0  0
   51.7642    4.3402   17.9156 C   0  0  0  0  0  0  0  0  0  0  0  0
   47.7806    6.3768   19.8261 C   0  0  0  0  0  0  0  0  0  0  0  0
   47.6033    7.7605   21.8218 C   0  0  0  0  0  0  0  0  0  0  0  0
   47.7217    8.9074   21.0181 C   0  0  0  0  0  0  0  0  0  0  0  0
   47.8755    8.7952   19.6367 C   0  0  0  0  0  0  0  0  0  0  0  0
   52.1980    3.0023   17.9275 C   0  0  0  0  0  0  0  0  0  0  0  0
   49.5460    3.6390   17.3352 C   0  0  0  0  0  0  0  0  0  0  0  0
   50.8823    7.0699   18.1884 C   0  0  0  0  0  0  0  0  0  0  0  0
   49.9614    2.3037   17.3585 C   0  0  0  0  0  0  0  0  0  0  0  0
   47.5054    5.3368   22.0226 C   0  0  0  0  0  0  0  0  0  0  0  0
   51.2825    1.9858   17.6537 C   0  0  0  0  0  0  0  0  0  0  0  0
   47.4521    7.8573   23.2142 C   0  0  0  0  0  0  0  0  0  0  0  0
   53.6159    2.6696   18.2900 C   0  0  0  0  0  0  0  0  0  0  0  0
   47.3569    5.4521   23.4055 C   0  0  0  0  0  0  0  0  0  0  0  0
   47.3304    6.7102   24.0003 C   0  0  0  0  0  0  0  0  0  0  0  0
   52.5013    5.1016   18.1522 H   0  0  0  0  0  0  0  0  0  0  0  0
   47.7817    5.4006   19.3511 H   0  0  0  0  0  0  0  0  0  0  0  0
   47.6902    9.8983   21.4658 H   0  0  0  0  0  0  0  0  0  0  0  0
   47.9584    9.6855   19.0202 H   0  0  0  0  0  0  0  0  0  0  0  0
   48.4938    3.8226   17.1401 H   0  0  0  0  0  0  0  0  0  0  0  0
   51.8189    7.1021   17.6224 H   0  0  0  0  0  0  0  0  0  0  0  0
   51.0749    6.8344   19.2395 H   0  0  0  0  0  0  0  0  0  0  0  0
   50.4518    8.0728   18.1193 H   0  0  0  0  0  0  0  0  0  0  0  0
   49.2449    1.5121   17.1532 H   0  0  0  0  0  0  0  0  0  0  0  0
   47.5243    4.3444   21.5768 H   0  0  0  0  0  0  0  0  0  0  0  0
   51.5900    0.9429   17.6740 H   0  0  0  0  0  0  0  0  0  0  0  0
   47.4262    8.8309   23.6986 H   0  0  0  0  0  0  0  0  0  0  0  0
   53.7142    2.5869   19.3766 H   0  0  0  0  0  0  0  0  0  0  0  0
   53.9259    1.7232   17.8344 H   0  0  0  0  0  0  0  0  0  0  0  0
   54.3016    3.4431   17.9283 H   0  0  0  0  0  0  0  0  0  0  0  0
   47.2612    4.5587   24.0172 H   0  0  0  0  0  0  0  0  0  0  0  0
   47.2132    6.8002   25.0771 H   0  0  0  0  0  0  0  0  0  0  0  0
  2  1  1  0
  3  2  1  0
  4  1  1  0
  5  1  2  0
  6  4  1  0
  7  9  2  0
  8  3  2  0
  9  6  1  0
 10 11  2  0
 11 12  1  0
 12  6  2  0
 13  8  1  0
 14  3  1  0
 15  2  1  0
 16 14  2  0
 17  7  1  0
 18 16  1  0
 19 10  1  0
 20 13  1  0
 21 17  2  0
 22 19  2  0
 10  7  1  0
 13 18  2  0
 22 21  1  0
  8 23  1  0
  9 24  1  0
 11 25  1  0
 12 26  1  0
 14 27  1  0
 15 28  1  0
 15 29  1  0
 15 30  1  0
 16 31  1  0
 17 32  1  0
 18 33  1  0
 19 34  1  0
 20 35  1  0
 20 36  1  0
 20 37  1  0
 21 38  1  0
 22 39  1  0
M  END
> <Uni-Dock RESULT> 
ENERGY=   -5.111  LOWER_BOUND=    8.249  UPPER_BOUND=   11.618
INTER + INTRA:          -5.111
INTER:                  -5.111
INTRA:                   0.000
UNBOUND:                 0.000

$$$$

     RDKit          3D

 39 41  0  0  0  0  0  0  0  0999 V2000
   48.8433    6.7613   17.1267 C   0  0  0  0  0  0  0  0  0  0  0  0
   50.0455    6.4118   17.7527 N   0  0  0  0  0  0  0  0  0  0  0  0
   50.6095    5.0856   17.7271 C   0  0  0  0  0  0  0  0  0  0  0  0
   47.9916    7.6531   17.7903 O   0  0  0  0  0  0  0  0  0  0  0  0
   48.3460    6.3680   15.5763 S   0  0  0  0  0  0  0  0  0  0  0  0
   47.8360    7.6740   19.1971 C   0  0  0  0  0  0  0  0  0  0  0  0
   47.6231    6.5786   21.3436 C   0  0  0  0  0  0  0  0  0  0  0  0
   51.9573    4.8553   18.0560 C   0  0  0  0  0  0  0  0  0  0  0  0
   47.7919    6.5037   19.9530 C   0  0  0  0  0  0  0  0  0  0  0  0
   47.4754    7.8455   21.9601 C   0  0  0  0  0  0  0  0  0  0  0  0
   47.4953    9.0065   21.1682 C   0  0  0  0  0  0  0  0  0  0  0  0
   47.6687    8.9226   19.7870 C   0  0  0  0  0  0  0  0  0  0  0  0
   52.5104    3.5622   18.0589 C   0  0  0  0  0  0  0  0  0  0  0  0
   49.8160    3.9622   17.4510 C   0  0  0  0  0  0  0  0  0  0  0  0
   50.8299    7.4911   18.3472 C   0  0  0  0  0  0  0  0  0  0  0  0
   50.3505    2.6698   17.4652 C   0  0  0  0  0  0  0  0  0  0  0  0
   47.5960    5.4210   22.1373 C   0  0  0  0  0  0  0  0  0  0  0  0
   51.6928    2.4697   17.7682 C   0  0  0  0  0  0  0  0  0  0  0  0
   47.3060    7.9142   23.3520 C   0  0  0  0  0  0  0  0  0  0  0  0
   53.9499    3.3555   18.4298 C   0  0  0  0  0  0  0  0  0  0  0  0
   47.4276    5.5085   23.5199 C   0  0  0  0  0  0  0  0  0  0  0  0
   47.2830    6.7529   24.1263 C   0  0  0  0  0  0  0  0  0  0  0  0
   52.6207    5.6779   18.3058 H   0  0  0  0  0  0  0  0  0  0  0  0
   47.8848    5.5364   19.4689 H   0  0  0  0  0  0  0  0  0  0  0  0
   47.3709    9.9859   21.6249 H   0  0  0  0  0  0  0  0  0  0  0  0
   47.6751    9.8229   19.1797 H   0  0  0  0  0  0  0  0  0  0  0  0
   48.7530    4.0518   17.2491 H   0  0  0  0  0  0  0  0  0  0  0  0
   51.7638    7.6137   17.7892 H   0  0  0  0  0  0  0  0  0  0  0  0
   51.0353    7.2635   19.3976 H   0  0  0  0  0  0  0  0  0  0  0  0
   50.3108    8.4516   18.2840 H   0  0  0  0  0  0  0  0  0  0  0  0
   49.7102    1.8187   17.2466 H   0  0  0  0  0  0  0  0  0  0  0  0
   47.7079    4.4389   21.6824 H   0  0  0  0  0  0  0  0  0  0  0  0
   52.0933    1.4589   17.7812 H   0  0  0  0  0  0  0  0  0  0  0  0
   47.1885    8.8765   23.8453 H   0  0  0  0  0  0  0  0  0  0  0  0
   54.0475    3.2711   19.5164 H   0  0  0  0  0  0  0  0  0  0  0  0
   54.3477    2.4457   17.9679 H   0  0  0  0  0  0  0  0  0  0  0  0
   54.5654    4.1914   18.0810 H   0  0  0  0  0  0  0  0  0  0  0  0
   47.4088    4.6039   24.1224 H   0  0  0  0  0  0  0  0  0  0  0  0
   47.1502    6.8211   25.2029 H   0  0  0  0  0  0  0  0  0  0  0  0
  2  1  1  0
  3  2  1  0
  4  1  1  0
  5  1  2  0
  6  4  1  0
  7  9  2  0
  8  3  2  0
  9  6  1  0
 10 11  2  0
 11 12  1  0
 12  6  2  0
 13  8  1  0
 14  3  1  0
 15  2  1  0
 16 14  2  0
 17  7  1  0
 18 16  1  0
 19 10  1  0
 20 13  1  0
 21 17  2  0
 22 19  2  0
 10  7  1  0
 13 18  2  0
 22 21  1  0
  8 23  1  0
  9 24  1  0
 11 25  1  0
 12 26  1  0
 14 27  1  0
 15 28  1  0
 15 29  1  0
 15 30  1  0
 16 31  1  0
 17 32  1  0
 18 33  1  0
 19 34  1  0
 20 35  1  0
 20 36  1  0
 20 37  1  0
 21 38  1  0
 22 39  1  0
M  END
> <Uni-Dock RESULT> 
ENERGY=   -4.886  LOWER_BOUND=    8.433  UPPER_BOUND=   11.729
INTER + INTRA:          -4.886
INTER:                  -4.886
INTRA:                   0.000
UNBOUND:                 0.000

$$$$

     RDKit          3D

 39 41  0  0  0  0  0  0  0  0999 V2000
   48.1343    6.3451   18.5759 C   0  0  0  0  0  0  0  0  0  0  0  0
   49.0294    6.5911   19.6235 N   0  0  0  0  0  0  0  0  0  0  0  0
   48.8081    6.1730   20.9851 C   0  0  0  0  0  0  0  0  0  0  0  0
   47.9475    7.3521   17.6207 O   0  0  0  0  0  0  0  0  0  0  0  0
   47.3542    4.9077   18.2140 S   0  0  0  0  0  0  0  0  0  0  0  0
   47.9659    8.7319   17.9362 C   0  0  0  0  0  0  0  0  0  0  0  0
   47.4235   10.6090   19.3628 C   0  0  0  0  0  0  0  0  0  0  0  0
   49.8596    6.1256   21.9178 C   0  0  0  0  0  0  0  0  0  0  0  0
   47.3894    9.2309   19.1031 C   0  0  0  0  0  0  0  0  0  0  0  0
   48.0241   11.4805   18.4213 C   0  0  0  0  0  0  0  0  0  0  0  0
   48.5717   10.9512   17.2400 C   0  0  0  0  0  0  0  0  0  0  0  0
   48.5377    9.5792   16.9927 C   0  0  0  0  0  0  0  0  0  0  0  0
   49.6492    5.7437   23.2551 C   0  0  0  0  0  0  0  0  0  0  0  0
   47.5205    5.8738   21.4547 C   0  0  0  0  0  0  0  0  0  0  0  0
   50.3176    7.1868   19.2783 C   0  0  0  0  0  0  0  0  0  0  0  0
   47.2960    5.5072   22.7856 C   0  0  0  0  0  0  0  0  0  0  0  0
   46.8718   11.1424   20.5383 C   0  0  0  0  0  0  0  0  0  0  0  0
   48.3560    5.4424   23.6832 C   0  0  0  0  0  0  0  0  0  0  0  0
   48.0544   12.8589   18.6862 C   0  0  0  0  0  0  0  0  0  0  0  0
   50.7947    5.7195   24.2244 C   0  0  0  0  0  0  0  0  0  0  0  0
   46.9119   12.5153   20.7855 C   0  0  0  0  0  0  0  0  0  0  0  0
   47.5023   13.3721   19.8611 C   0  0  0  0  0  0  0  0  0  0  0  0
   50.8767    6.3707   21.6273 H   0  0  0  0  0  0  0  0  0  0  0  0
   46.9128    8.5572   19.8086 H   0  0  0  0  0  0  0  0  0  0  0  0
   49.0254   11.6085   16.5015 H   0  0  0  0  0  0  0  0  0  0  0  0
   48.9554    9.1772   16.0743 H   0  0  0  0  0  0  0  0  0  0  0  0
   46.6487    5.9478   20.8119 H   0  0  0  0  0  0  0  0  0  0  0  0
   51.1165    6.4615   19.4634 H   0  0  0  0  0  0  0  0  0  0  0  0
   50.4758    8.0938   19.8696 H   0  0  0  0  0  0  0  0  0  0  0  0
   50.3763    7.4376   18.2155 H   0  0  0  0  0  0  0  0  0  0  0  0
   46.2864    5.2808   23.1199 H   0  0  0  0  0  0  0  0  0  0  0  0
   46.4063   10.4892   21.2736 H   0  0  0  0  0  0  0  0  0  0  0  0
   48.1657    5.1615   24.7163 H   0  0  0  0  0  0  0  0  0  0  0  0
   48.5087   13.5460   17.9757 H   0  0  0  0  0  0  0  0  0  0  0  0
   50.9403    6.7145   24.6558 H   0  0  0  0  0  0  0  0  0  0  0  0
   50.6081    5.0072   25.0350 H   0  0  0  0  0  0  0  0  0  0  0  0
   51.7192    5.4086   23.7265 H   0  0  0  0  0  0  0  0  0  0  0  0
   46.4810   12.9147   21.7000 H   0  0  0  0  0  0  0  0  0  0  0  0
   47.5323   14.4416   20.0527 H   0  0  0  0  0  0  0  0  0  0  0  0
  2  1  1  0
  3  2  1  0
  4  1  1  0
  5  1  2  0
  6  4  1  0
  7  9  2  0
  8  3  2  0
  9  6  1  0
 10 11  2  0
 11 12  1  0
 12  6  2  0
 13  8  1  0
 14  3  1  0
 15  2  1  0
 16 14  2  0
 17  7  1  0
 18 16  1  0
 19 10  1  0
 20 13  1  0
 21 17  2  0
 22 19  2  0
 10  7  1  0
 13 18  2  0
 22 21  1  0
  8 23  1  0
  9 24  1  0
 11 25  1  0
 12 26  1  0
 14 27  1  0
 15 28  1  0
 15 29  1  0
 15 30  1  0
 16 31  1  0
 17 32  1  0
 18 33  1  0
 19 34  1  0
 20 35  1  0
 20 36  1  0
 20 37  1  0
 21 38  1  0
 22 39  1  0
M  END
> <Uni-Dock RESULT> 
ENERGY=   -4.648  LOWER_BOUND=    9.206  UPPER_BOUND=   11.970
INTER + INTRA:          -4.648
INTER:                  -4.648
INTRA:                   0.000
UNBOUND:                 0.000

$$$$

     RDKit          3D

 39 41  0  0  0  0  0  0  0  0999 V2000
   48.9843    7.6372   12.9938 C   0  0  0  0  0  0  0  0  0  0  0  0
   47.6118    7.9117   13.0032 N   0  0  0  0  0  0  0  0  0  0  0  0
   47.0296    9.1192   12.4735 C   0  0  0  0  0  0  0  0  0  0  0  0
   49.5356    7.0031   14.1141 O   0  0  0  0  0  0  0  0  0  0  0  0
   50.0563    7.8282   11.7209 S   0  0  0  0  0  0  0  0  0  0  0  0
   49.0930    7.2445   15.4367 C   0  0  0  0  0  0  0  0  0  0  0  0
   48.3265    8.7083   17.2039 C   0  0  0  0  0  0  0  0  0  0  0  0
   45.6558    9.2059   12.1855 C   0  0  0  0  0  0  0  0  0  0  0  0
   48.7471    8.5204   15.8789 C   0  0  0  0  0  0  0  0  0  0  0  0
   48.2815    7.5994   18.0842 C   0  0  0  0  0  0  0  0  0  0  0  0
   48.6638    6.3299   17.6176 C   0  0  0  0  0  0  0  0  0  0  0  0
   49.0758    6.1517   16.2973 C   0  0  0  0  0  0  0  0  0  0  0  0
   45.0736   10.3876   11.6926 C   0  0  0  0  0  0  0  0  0  0  0  0
   47.7957   10.2814   12.2997 C   0  0  0  0  0  0  0  0  0  0  0  0
   46.7188    6.8479   13.4556 C   0  0  0  0  0  0  0  0  0  0  0  0
   47.2258   11.4669   11.8244 C   0  0  0  0  0  0  0  0  0  0  0  0
   47.9501    9.9758   17.6756 C   0  0  0  0  0  0  0  0  0  0  0  0
   45.8697   11.5206   11.5220 C   0  0  0  0  0  0  0  0  0  0  0  0
   47.8605    7.7937   19.4094 C   0  0  0  0  0  0  0  0  0  0  0  0
   43.6006   10.4454   11.4110 C   0  0  0  0  0  0  0  0  0  0  0  0
   47.5332   10.1500   18.9961 C   0  0  0  0  0  0  0  0  0  0  0  0
   47.4884    9.0609   19.8614 C   0  0  0  0  0  0  0  0  0  0  0  0
   45.0003    8.3513   12.3228 H   0  0  0  0  0  0  0  0  0  0  0  0
   48.8049    9.3676   15.2025 H   0  0  0  0  0  0  0  0  0  0  0  0
   48.6466    5.4708   18.2845 H   0  0  0  0  0  0  0  0  0  0  0  0
   49.3777    5.1698   15.9450 H   0  0  0  0  0  0  0  0  0  0  0  0
   48.8497   10.3124   12.5584 H   0  0  0  0  0  0  0  0  0  0  0  0
   46.1110    6.4993   12.6145 H   0  0  0  0  0  0  0  0  0  0  0  0
   46.0816    7.2191   14.2641 H   0  0  0  0  0  0  0  0  0  0  0  0
   47.2748    5.9755   13.8099 H   0  0  0  0  0  0  0  0  0  0  0  0
   47.8457   12.3515   11.6998 H   0  0  0  0  0  0  0  0  0  0  0  0
   47.9777   10.8397   17.0147 H   0  0  0  0  0  0  0  0  0  0  0  0
   45.4391   12.4508   11.1588 H   0  0  0  0  0  0  0  0  0  0  0  0
   47.8208    6.9563   20.1026 H   0  0  0  0  0  0  0  0  0  0  0  0
   43.0550   10.6986   12.3251 H   0  0  0  0  0  0  0  0  0  0  0  0
   43.3761   11.1966   10.6464 H   0  0  0  0  0  0  0  0  0  0  0  0
   43.2383    9.4826   11.0354 H   0  0  0  0  0  0  0  0  0  0  0  0
   47.2445   11.1371   19.3480 H   0  0  0  0  0  0  0  0  0  0  0  0
   47.1653    9.1967   20.8903 H   0  0  0  0  0  0  0  0  0  0  0  0
  2  1  1  0
  3  2  1  0
  4  1  1  0
  5  1  2  0
  6  4  1  0
  7  9  2  0
  8  3  2  0
  9  6  1  0
 10 11  2  0
 11 12  1  0
 12  6  2  0
 13  8  1  0
 14  3  1  0
 15  2  1  0
 16 14  2  0
 17  7  1  0
 18 16  1  0
 19 10  1  0
 20 13  1  0
 21 17  2  0
 22 19  2  0
 10  7  1  0
 13 18  2  0
 22 21  1  0
  8 23  1  0
  9 24  1  0
 11 25  1  0
 12 26  1  0
 14 27  1  0
 15 28  1  0
 15 29  1  0
 15 30  1  0
 16 31  1  0
 17 32  1  0
 18 33  1  0
 19 34  1  0
 20 35  1  0
 20 36  1  0
 20 37  1  0
 21 38  1  0
 22 39  1  0
M  END
> <Uni-Dock RESULT> 
ENERGY=   -4.351  LOWER_BOUND=    5.608  UPPER_BOUND=    8.773
INTER + INTRA:          -4.351
INTER:                  -4.351
INTRA:                   0.000
UNBOUND:                 0.000

$$$$

     RDKit          3D

 39 41  0  0  0  0  0  0  0  0999 V2000
   50.2587    7.4120   15.7341 C   0  0  0  0  0  0  0  0  0  0  0  0
   49.2666    7.4002   16.7213 N   0  0  0  0  0  0  0  0  0  0  0  0
   49.1310    6.3629   17.7128 C   0  0  0  0  0  0  0  0  0  0  0  0
   49.9058    7.8529   14.4525 O   0  0  0  0  0  0  0  0  0  0  0  0
   51.8953    7.1108   15.9257 S   0  0  0  0  0  0  0  0  0  0  0  0
   48.6385    7.6087   13.8712 C   0  0  0  0  0  0  0  0  0  0  0  0
   46.7257    6.1974   13.4217 C   0  0  0  0  0  0  0  0  0  0  0  0
   48.3645    6.5557   18.8761 C   0  0  0  0  0  0  0  0  0  0  0  0
   47.9747    6.3933   14.0295 C   0  0  0  0  0  0  0  0  0  0  0  0
   46.1649    7.2319   12.6331 C   0  0  0  0  0  0  0  0  0  0  0  0
   46.8710    8.4359   12.4681 C   0  0  0  0  0  0  0  0  0  0  0  0
   48.1098    8.6237   13.0803 C   0  0  0  0  0  0  0  0  0  0  0  0
   48.2052    5.5411   19.8369 C   0  0  0  0  0  0  0  0  0  0  0  0
   49.6926    5.0921   17.5185 C   0  0  0  0  0  0  0  0  0  0  0  0
   48.4105    8.5793   16.8250 C   0  0  0  0  0  0  0  0  0  0  0  0
   49.5290    4.0702   18.4593 C   0  0  0  0  0  0  0  0  0  0  0  0
   46.0203    4.9938   13.5786 C   0  0  0  0  0  0  0  0  0  0  0  0
   48.7879    4.2931   19.6145 C   0  0  0  0  0  0  0  0  0  0  0  0
   44.9150    7.0297   12.0266 C   0  0  0  0  0  0  0  0  0  0  0  0
   47.3670    5.7806   21.0587 C   0  0  0  0  0  0  0  0  0  0  0  0
   44.7783    4.8108   12.9689 C   0  0  0  0  0  0  0  0  0  0  0  0
   44.2265    5.8270   12.1943 C   0  0  0  0  0  0  0  0  0  0  0  0
   47.8803    7.5069   19.0757 H   0  0  0  0  0  0  0  0  0  0  0  0
   48.4223    5.5987   14.6186 H   0  0  0  0  0  0  0  0  0  0  0  0
   46.4596    9.2352   11.8556 H   0  0  0  0  0  0  0  0  0  0  0  0
   48.6541    9.5532   12.9424 H   0  0  0  0  0  0  0  0  0  0  0  0
   50.2456    4.8460   16.6172 H   0  0  0  0  0  0  0  0  0  0  0  0
   48.6096    9.0927   17.7712 H   0  0  0  0  0  0  0  0  0  0  0  0
   47.3599    8.2799   16.7624 H   0  0  0  0  0  0  0  0  0  0  0  0
   48.6234    9.3054   16.0355 H   0  0  0  0  0  0  0  0  0  0  0  0
   49.9767    3.0956   18.2806 H   0  0  0  0  0  0  0  0  0  0  0  0
   46.4343    4.1875   14.1806 H   0  0  0  0  0  0  0  0  0  0  0  0
   48.6643    3.4876   20.3344 H   0  0  0  0  0  0  0  0  0  0  0  0
   44.4674    7.8100   11.4150 H   0  0  0  0  0  0  0  0  0  0  0  0
   46.3158    5.5723   20.8374 H   0  0  0  0  0  0  0  0  0  0  0  0
   47.6873    5.1391   21.8865 H   0  0  0  0  0  0  0  0  0  0  0  0
   47.4607    6.8177   21.3976 H   0  0  0  0  0  0  0  0  0  0  0  0
   44.2429    3.8738   13.0990 H   0  0  0  0  0  0  0  0  0  0  0  0
   43.2600    5.6841   11.7182 H   0  0  0  0  0  0  0  0  0  0  0  0
  2  1  1  0
  3  2  1  0
  4  1  1  0
  5  1  2  0
  6  4  1  0
  7  9  2  0
  8  3  2  0
  9  6  1  0
 10 11  2  0
 11 12  1  0
 12  6  2  0
 13  8  1  0
 14  3  1  0
 15  2  1  0
 16 14  2  0
 17  7  1  0
 18 16  1  0
 19 10  1  0
 20 13  1  0
 21 17  2  0
 22 19  2  0
 10  7  1  0
 13 18  2  0
 22 21  1  0
  8 23  1  0
  9 24  1  0
 11 25  1  0
 12 26  1  0
 14 27  1  0
 15 28  1  0
 15 29  1  0
 15 30  1  0
 16 31  1  0
 17 32  1  0
 18 33  1  0
 19 34  1  0
 20 35  1  0
 20 36  1  0
 20 37  1  0
 21 38  1  0
 22 39  1  0
M  END
> <Uni-Dock RESULT> 
ENERGY=   -4.291  LOWER_BOUND=    5.087  UPPER_BOUND=    7.582
INTER + INTRA:          -4.291
INTER:                  -4.291
INTRA:                   0.000
UNBOUND:                 0.000

$$$$

     RDKit          3D

 39 41  0  0  0  0  0  0  0  0999 V2000
   50.8959    7.2156   21.4210 C   0  0  0  0  0  0  0  0  0  0  0  0
   50.4015    8.0068   20.3775 N   0  0  0  0  0  0  0  0  0  0  0  0
   49.1889    8.7815   20.4608 C   0  0  0  0  0  0  0  0  0  0  0  0
   51.4701    5.9807   21.0945 O   0  0  0  0  0  0  0  0  0  0  0  0
   51.0395    7.6291   23.0379 S   0  0  0  0  0  0  0  0  0  0  0  0
   51.0000    5.1627   20.0394 C   0  0  0  0  0  0  0  0  0  0  0  0
   49.2260    4.1766   18.7227 C   0  0  0  0  0  0  0  0  0  0  0  0
   48.9145    9.8147   19.5470 C   0  0  0  0  0  0  0  0  0  0  0  0
   49.6404    5.0095   19.7727 C   0  0  0  0  0  0  0  0  0  0  0  0
   50.1967    3.4815   17.9604 C   0  0  0  0  0  0  0  0  0  0  0  0
   51.5590    3.6335   18.2713 C   0  0  0  0  0  0  0  0  0  0  0  0
   51.9619    4.4676   19.3137 C   0  0  0  0  0  0  0  0  0  0  0  0
   47.7226   10.5592   19.6041 C   0  0  0  0  0  0  0  0  0  0  0  0
   48.1977    8.4827   21.4074 C   0  0  0  0  0  0  0  0  0  0  0  0
   51.2417    8.1530   19.1916 C   0  0  0  0  0  0  0  0  0  0  0  0
   47.0019    9.2059   21.4650 C   0  0  0  0  0  0  0  0  0  0  0  0
   47.8660    4.0169   18.4132 C   0  0  0  0  0  0  0  0  0  0  0  0
   46.7644   10.2404   20.5668 C   0  0  0  0  0  0  0  0  0  0  0  0
   49.7760    2.6487   16.9114 C   0  0  0  0  0  0  0  0  0  0  0  0
   47.4595   11.6447   18.6017 C   0  0  0  0  0  0  0  0  0  0  0  0
   47.4661    3.1855   17.3661 C   0  0  0  0  0  0  0  0  0  0  0  0
   48.4194    2.5026   16.6164 C   0  0  0  0  0  0  0  0  0  0  0  0
   49.6272   10.0802   18.7721 H   0  0  0  0  0  0  0  0  0  0  0  0
   48.9030    5.5300   20.3760 H   0  0  0  0  0  0  0  0  0  0  0  0
   52.3159    3.0970   17.7034 H   0  0  0  0  0  0  0  0  0  0  0  0
   53.0156    4.5746   19.5542 H   0  0  0  0  0  0  0  0  0  0  0  0
   48.3081    7.6597   22.1069 H   0  0  0  0  0  0  0  0  0  0  0  0
   51.5863    9.1892   19.1139 H   0  0  0  0  0  0  0  0  0  0  0  0
   50.6755    7.8671   18.3000 H   0  0  0  0  0  0  0  0  0  0  0  0
   52.1435    7.5377   19.2555 H   0  0  0  0  0  0  0  0  0  0  0  0
   46.2525    8.9508   22.2104 H   0  0  0  0  0  0  0  0  0  0  0  0
   47.1055    4.5425   18.9871 H   0  0  0  0  0  0  0  0  0  0  0  0
   45.8277   10.7902   20.6196 H   0  0  0  0  0  0  0  0  0  0  0  0
   50.5046    2.1040   16.3150 H   0  0  0  0  0  0  0  0  0  0  0  0
   47.0109   11.2191   17.6989 H   0  0  0  0  0  0  0  0  0  0  0  0
   46.7807   12.4007   19.0105 H   0  0  0  0  0  0  0  0  0  0  0  0
   48.3886   12.1568   18.3299 H   0  0  0  0  0  0  0  0  0  0  0  0
   46.4096    3.0712   17.1373 H   0  0  0  0  0  0  0  0  0  0  0  0
   48.1081    1.8538   15.8019 H   0  0  0  0  0  0  0  0  0  0  0  0
  2  1  1  0
  3  2  1  0
  4  1  1  0
  5  1  2  0
  6  4  1  0
  7  9  2  0
  8  3  2  0
  9  6  1  0
 10 11  2  0
 11 12  1  0
 12  6  2  0
 13  8  1  0
 14  3  1  0
 15  2  1  0
 16 14  2  0
 17  7  1  0
 18 16  1  0
 19 10  1  0
 20 13  1  0
 21 17  2  0
 22 19  2  0
 10  7  1  0
 13 18  2  0
 22 21  1  0
  8 23  1  0
  9 24  1  0
 11 25  1  0
 12 26  1  0
 14 27  1  0
 15 28  1  0
 15 29  1  0
 15 30  1  0
 16 31  1  0
 17 32  1  0
 18 33  1  0
 19 34  1  0
 20 35  1  0
 20 36  1  0
 20 37  1  0
 21 38  1  0
 22 39  1  0
M  END
> <Uni-Dock RESULT> 
ENERGY=   -4.195  LOWER_BOUND=    8.767  UPPER_BOUND=   10.738
INTER + INTRA:          -4.195
INTER:                  -4.195
INTRA:                   0.000
UNBOUND:                 0.000

$$$$

     RDKit          3D

 39 41  0  0  0  0  0  0  0  0999 V2000
   48.7308    7.4040   15.5917 C   0  0  0  0  0  0  0  0  0  0  0  0
   49.7901    6.9355   16.3774 N   0  0  0  0  0  0  0  0  0  0  0  0
   49.9011    5.5788   16.8514 C   0  0  0  0  0  0  0  0  0  0  0  0
   48.2425    8.6916   15.8466 O   0  0  0  0  0  0  0  0  0  0  0  0
   48.0544    6.6715   14.2456 S   0  0  0  0  0  0  0  0  0  0  0  0
   48.1748    9.2513   17.1450 C   0  0  0  0  0  0  0  0  0  0  0  0
   47.7364    9.1033   19.5196 C   0  0  0  0  0  0  0  0  0  0  0  0
   51.1208    5.0655   17.3273 C   0  0  0  0  0  0  0  0  0  0  0  0
   47.8002    8.4974   18.2560 C   0  0  0  0  0  0  0  0  0  0  0  0
   48.0315   10.4830   19.6462 C   0  0  0  0  0  0  0  0  0  0  0  0
   48.3784   11.2237   18.5032 C   0  0  0  0  0  0  0  0  0  0  0  0
   48.4441   10.6118   17.2519 C   0  0  0  0  0  0  0  0  0  0  0  0
   51.2334    3.7514   17.8157 C   0  0  0  0  0  0  0  0  0  0  0  0
   48.7783    4.7416   16.9316 C   0  0  0  0  0  0  0  0  0  0  0  0
   50.9068    7.8481   16.6096 C   0  0  0  0  0  0  0  0  0  0  0  0
   48.8740    3.4379   17.4292 C   0  0  0  0  0  0  0  0  0  0  0  0
   47.3839    8.3684   20.6626 C   0  0  0  0  0  0  0  0  0  0  0  0
   50.0968    2.9440   17.8700 C   0  0  0  0  0  0  0  0  0  0  0  0
   47.9652   11.0840   20.9132 C   0  0  0  0  0  0  0  0  0  0  0  0
   52.5496    3.2447   18.3287 C   0  0  0  0  0  0  0  0  0  0  0  0
   47.3240    8.9824   21.9144 C   0  0  0  0  0  0  0  0  0  0  0  0
   47.6143   10.3379   22.0396 C   0  0  0  0  0  0  0  0  0  0  0  0
   52.0233    5.6692   17.3185 H   0  0  0  0  0  0  0  0  0  0  0  0
   47.5555    7.4454   18.1455 H   0  0  0  0  0  0  0  0  0  0  0  0
   48.5958   12.2867   18.5819 H   0  0  0  0  0  0  0  0  0  0  0  0
   48.7050   11.1914   16.3712 H   0  0  0  0  0  0  0  0  0  0  0  0
   47.7900    5.0853   16.6420 H   0  0  0  0  0  0  0  0  0  0  0  0
   51.8009    7.4663   16.1063 H   0  0  0  0  0  0  0  0  0  0  0  0
   51.0834    7.9500   17.6847 H   0  0  0  0  0  0  0  0  0  0  0  0
   50.7176    8.8369   16.1827 H   0  0  0  0  0  0  0  0  0  0  0  0
   47.9859    2.8127   17.4786 H   0  0  0  0  0  0  0  0  0  0  0  0
   47.1539    7.3077   20.5858 H   0  0  0  0  0  0  0  0  0  0  0  0
   50.1552    1.9305   18.2597 H   0  0  0  0  0  0  0  0  0  0  0  0
   48.1856   12.1426   21.0324 H   0  0  0  0  0  0  0  0  0  0  0  0
   52.6715    3.5197   19.3808 H   0  0  0  0  0  0  0  0  0  0  0  0
   52.6129    2.1551   18.2390 H   0  0  0  0  0  0  0  0  0  0  0  0
   53.3800    3.6659   17.7522 H   0  0  0  0  0  0  0  0  0  0  0  0
   47.0498    8.4013   22.7911 H   0  0  0  0  0  0  0  0  0  0  0  0
   47.5662   10.8166   23.0142 H   0  0  0  0  0  0  0  0  0  0  0  0
  2  1  1  0
  3  2  1  0
  4  1  1  0
  5  1  2  0
  6  4  1  0
  7  9  2  0
  8  3  2  0
  9  6  1  0
 10 11  2  0
 11 12  1  0
 12  6  2  0
 13  8  1  0
 14  3  1  0
 15  2  1  0
 16 14  2  0
 17  7  1  0
 18 16  1  0
 19 10  1  0
 20 13  1  0
 21 17  2  0
 22 19  2  0
 10  7  1  0
 13 18  2  0
 22 21  1  0
  8 23  1  0
  9 24  1  0
 11 25  1  0
 12 26  1  0
 14 27  1  0
 15 28  1  0
 15 29  1  0
 15 30  1  0
 16 31  1  0
 17 32  1  0
 18 33  1  0
 19 34  1  0
 20 35  1  0
 20 36  1  0
 20 37  1  0
 21 38  1  0
 22 39  1  0
M  END
> <Uni-Dock RESULT> 
ENERGY=   -4.150  LOWER_BOUND=    7.509  UPPER_BOUND=   10.961
INTER + INTRA:          -4.150
INTER:                  -4.150
INTRA:                   0.000
UNBOUND:                 0.000

$$$$

     RDKit          3D

 39 41  0  0  0  0  0  0  0  0999 V2000
   50.4784    7.4534   21.4564 C   0  0  0  0  0  0  0  0  0  0  0  0
   50.1190    8.2381   20.3545 N   0  0  0  0  0  0  0  0  0  0  0  0
   48.9433    9.0708   20.3094 C   0  0  0  0  0  0  0  0  0  0  0  0
   51.0181    6.1845   21.2119 O   0  0  0  0  0  0  0  0  0  0  0  0
   50.4967    7.9038   23.0697 S   0  0  0  0  0  0  0  0  0  0  0  0
   50.6048    5.3609   20.1375 C   0  0  0  0  0  0  0  0  0  0  0  0
   48.9095    4.4234   18.6883 C   0  0  0  0  0  0  0  0  0  0  0  0
   48.8029   10.0903   19.3510 C   0  0  0  0  0  0  0  0  0  0  0  0
   49.2686    5.2644   19.7520 C   0  0  0  0  0  0  0  0  0  0  0  0
   49.9093    3.6631   18.0334 C   0  0  0  0  0  0  0  0  0  0  0  0
   51.2441    3.7594   18.4631 C   0  0  0  0  0  0  0  0  0  0  0  0
   51.5925    4.6020   19.5183 C   0  0  0  0  0  0  0  0  0  0  0  0
   47.6488   10.8912   19.2825 C   0  0  0  0  0  0  0  0  0  0  0  0
   47.8577    8.8448   21.1687 C   0  0  0  0  0  0  0  0  0  0  0  0
   51.0681    8.3123   19.2467 C   0  0  0  0  0  0  0  0  0  0  0  0
   46.6986    9.6245   21.1009 C   0  0  0  0  0  0  0  0  0  0  0  0
   47.5765    4.3193   18.2603 C   0  0  0  0  0  0  0  0  0  0  0  0
   46.5937   10.6441   20.1613 C   0  0  0  0  0  0  0  0  0  0  0  0
   49.5438    2.8225   16.9700 C   0  0  0  0  0  0  0  0  0  0  0  0
   47.5303   11.9601   18.2356 C   0  0  0  0  0  0  0  0  0  0  0  0
   47.2317    3.4792   17.2006 C   0  0  0  0  0  0  0  0  0  0  0  0
   48.2136    2.7322   16.5564 C   0  0  0  0  0  0  0  0  0  0  0  0
   49.5944   10.3009   18.6381 H   0  0  0  0  0  0  0  0  0  0  0  0
   48.5067    5.8352   20.2738 H   0  0  0  0  0  0  0  0  0  0  0  0
   52.0215    3.1728   17.9787 H   0  0  0  0  0  0  0  0  0  0  0  0
   52.6244    4.6660   19.8509 H   0  0  0  0  0  0  0  0  0  0  0  0
   47.8645    8.0370   21.8941 H   0  0  0  0  0  0  0  0  0  0  0  0
   51.4688    9.3288   19.1768 H   0  0  0  0  0  0  0  0  0  0  0  0
   50.5707    8.0290   18.3141 H   0  0  0  0  0  0  0  0  0  0  0  0
   51.9293    7.6574   19.4063 H   0  0  0  0  0  0  0  0  0  0  0  0
   45.8738    9.4253   21.7809 H   0  0  0  0  0  0  0  0  0  0  0  0
   46.7944    4.8954   18.7505 H   0  0  0  0  0  0  0  0  0  0  0  0
   45.6842   11.2384   20.1162 H   0  0  0  0  0  0  0  0  0  0  0  0
   50.2953    2.2282   16.4549 H   0  0  0  0  0  0  0  0  0  0  0  0
   47.1439   11.5314   17.3059 H   0  0  0  0  0  0  0  0  0  0  0  0
   46.8555   12.7579   18.5636 H   0  0  0  0  0  0  0  0  0  0  0  0
   48.5040   12.4204   18.0377 H   0  0  0  0  0  0  0  0  0  0  0  0
   46.1956    3.4084   16.8795 H   0  0  0  0  0  0  0  0  0  0  0  0
   47.9450    2.0767   15.7321 H   0  0  0  0  0  0  0  0  0  0  0  0
  2  1  1  0
  3  2  1  0
  4  1  1  0
  5  1  2  0
  6  4  1  0
  7  9  2  0
  8  3  2  0
  9  6  1  0
 10 11  2  0
 11 12  1  0
 12  6  2  0
 13  8  1  0
 14  3  1  0
 15  2  1  0
 16 14  2  0
 17  7  1  0
 18 16  1  0
 19 10  1  0
 20 13  1  0
 21 17  2  0
 22 19  2  0
 10  7  1  0
 13 18  2  0
 22 21  1  0
  8 23  1  0
  9 24  1  0
 11 25  1  0
 12 26  1  0
 14 27  1  0
 15 28  1  0
 15 29  1  0
 15 30  1  0
 16 31  1  0
 17 32  1  0
 18 33  1  0
 19 34  1  0
 20 35  1  0
 20 36  1  0
 20 37  1  0
 21 38  1  0
 22 39  1  0
M  END
> <Uni-Dock RESULT> 
ENERGY=   -4.137  LOWER_BOUND=    8.598  UPPER_BOUND=   10.619
INTER + INTRA:          -4.137
INTER:                  -4.137
INTRA:                   0.000
UNBOUND:                 0.000

$$$$
