
     RDKit          3D

 39 41  0  0  0  0  0  0  0  0999 V2000
   48.8764    8.3402   13.0775 C   0  0  0  0  0  0  0  0  0  0  0  0
   47.4867    8.1755   13.1184 N   0  0  0  0  0  0  0  0  0  0  0  0
   46.8291    6.8931   13.1417 C   0  0  0  0  0  0  0  0  0  0  0  0
   49.4361    9.3835   13.8247 O   0  0  0  0  0  0  0  0  0  0  0  0
   49.9738    7.5346   12.1016 S   0  0  0  0  0  0  0  0  0  0  0  0
   48.9337    9.7755   15.0880 C   0  0  0  0  0  0  0  0  0  0  0  0
   48.4633   11.6047   16.6023 C   0  0  0  0  0  0  0  0  0  0  0  0
   45.4647    6.7623   12.8263 C   0  0  0  0  0  0  0  0  0  0  0  0
   48.9328   11.1419   15.3647 C   0  0  0  0  0  0  0  0  0  0  0  0
   48.0107   10.6708   17.5659 C   0  0  0  0  0  0  0  0  0  0  0  0
   48.0479    9.2973   17.2687 C   0  0  0  0  0  0  0  0  0  0  0  0
   48.5168    8.8456   16.0347 C   0  0  0  0  0  0  0  0  0  0  0  0
   44.8082    5.5191   12.8701 C   0  0  0  0  0  0  0  0  0  0  0  0
   47.5047    5.7361   13.5573 C   0  0  0  0  0  0  0  0  0  0  0  0
   46.6656    9.3766   12.9874 C   0  0  0  0  0  0  0  0  0  0  0  0
   46.8594    4.4967   13.6196 C   0  0  0  0  0  0  0  0  0  0  0  0
   48.4341   12.9751   16.9062 C   0  0  0  0  0  0  0  0  0  0  0  0
   45.5160    4.3880   13.2775 C   0  0  0  0  0  0  0  0  0  0  0  0
   47.5395   11.1375   18.8032 C   0  0  0  0  0  0  0  0  0  0  0  0
   43.3474    5.4226   12.5399 C   0  0  0  0  0  0  0  0  0  0  0  0
   47.9619   13.4210   18.1417 C   0  0  0  0  0  0  0  0  0  0  0  0
   47.5148   12.5038   19.0882 C   0  0  0  0  0  0  0  0  0  0  0  0
   44.8757    7.6224   12.5225 H   0  0  0  0  0  0  0  0  0  0  0  0
   49.2939   11.8379   14.6123 H   0  0  0  0  0  0  0  0  0  0  0  0
   47.7154    8.5670   18.0034 H   0  0  0  0  0  0  0  0  0  0  0  0
   48.5540    7.7802   15.8325 H   0  0  0  0  0  0  0  0  0  0  0  0
   48.5418    5.7664   13.8768 H   0  0  0  0  0  0  0  0  0  0  0  0
   45.9727    9.4442   13.8314 H   0  0  0  0  0  0  0  0  0  0  0  0
   46.1180    9.3431   12.0400 H   0  0  0  0  0  0  0  0  0  0  0  0
   47.2759   10.2833   12.9518 H   0  0  0  0  0  0  0  0  0  0  0  0
   47.4100    3.6175   13.9453 H   0  0  0  0  0  0  0  0  0  0  0  0
   48.7810   13.7077   16.1808 H   0  0  0  0  0  0  0  0  0  0  0  0
   45.0259    3.4190   13.3361 H   0  0  0  0  0  0  0  0  0  0  0  0
   47.1887   10.4371   19.5580 H   0  0  0  0  0  0  0  0  0  0  0  0
   43.0927    4.4219   12.1751 H   0  0  0  0  0  0  0  0  0  0  0  0
   43.0790    6.1330   11.7509 H   0  0  0  0  0  0  0  0  0  0  0  0
   42.7481    5.6366   13.4300 H   0  0  0  0  0  0  0  0  0  0  0  0
   47.9452   14.4847   18.3646 H   0  0  0  0  0  0  0  0  0  0  0  0
   47.1485   12.8505   20.0511 H   0  0  0  0  0  0  0  0  0  0  0  0
  2  1  1  0
  3  2  1  0
  4  1  1  0
  5  1  2  0
  6  4  1  0
  7  9  2  0
  8  3  2  0
  9  6  1  0
 10 11  2  0
 11 12  1  0
 12  6  2  0
 13  8  1  0
 14  3  1  0
 15  2  1  0
 16 14  2  0
 17  7  1  0
 18 16  1  0
 19 10  1  0
 20 13  1  0
 21 17  2  0
 22 19  2  0
 10  7  1  0
 13 18  2  0
 22 21  1  0
  8 23  1  0
  9 24  1  0
 11 25  1  0
 12 26  1  0
 14 27  1  0
 15 28  1  0
 15 29  1  0
 15 30  1  0
 16 31  1  0
 17 32  1  0
 18 33  1  0
 19 34  1  0
 20 35  1  0
 20 36  1  0
 20 37  1  0
 21 38  1  0
 22 39  1  0
M  END
> <Uni-Dock RESULT> 
ENERGY=   -4.581  LOWER_BOUND=    0.000  UPPER_BOUND=    0.000
INTER + INTRA:          -4.581
INTER:                  -4.581
INTRA:                   0.000
UNBOUND:                 0.000

$$$$

     RDKit          3D

 39 41  0  0  0  0  0  0  0  0999 V2000
   49.6657    7.6560   14.6814 C   0  0  0  0  0  0  0  0  0  0  0  0
   48.8630    7.9955   15.7771 N   0  0  0  0  0  0  0  0  0  0  0  0
   48.7258    9.3359   16.2890 C   0  0  0  0  0  0  0  0  0  0  0  0
   49.1865    6.6871   13.7916 O   0  0  0  0  0  0  0  0  0  0  0  0
   51.2357    8.1507   14.3710 S   0  0  0  0  0  0  0  0  0  0  0  0
   47.8182    6.5707   13.4509 C   0  0  0  0  0  0  0  0  0  0  0  0
   45.9769    5.0841   12.9407 C   0  0  0  0  0  0  0  0  0  0  0  0
   48.2122    9.5811   17.5752 C   0  0  0  0  0  0  0  0  0  0  0  0
   47.3204    5.2780   13.2927 C   0  0  0  0  0  0  0  0  0  0  0  0
   45.1447    6.2108   12.7324 C   0  0  0  0  0  0  0  0  0  0  0  0
   45.6812    7.5025   12.8734 C   0  0  0  0  0  0  0  0  0  0  0  0
   47.0191    7.6863   13.2238 C   0  0  0  0  0  0  0  0  0  0  0  0
   48.0516   10.8863   18.0743 C   0  0  0  0  0  0  0  0  0  0  0  0
   49.0246   10.4527   15.4945 C   0  0  0  0  0  0  0  0  0  0  0  0
   48.2464    6.8997   16.5208 C   0  0  0  0  0  0  0  0  0  0  0  0
   48.8549   11.7558   15.9736 C   0  0  0  0  0  0  0  0  0  0  0  0
   45.4404    3.7955   12.7893 C   0  0  0  0  0  0  0  0  0  0  0  0
   48.3702   11.9724   17.2587 C   0  0  0  0  0  0  0  0  0  0  0  0
   43.7997    6.0132   12.3820 C   0  0  0  0  0  0  0  0  0  0  0  0
   47.4870   11.1075   19.4471 C   0  0  0  0  0  0  0  0  0  0  0  0
   44.1005    3.6180   12.4407 C   0  0  0  0  0  0  0  0  0  0  0  0
   43.2815    4.7250   12.2381 C   0  0  0  0  0  0  0  0  0  0  0  0
   47.9360    8.7624   18.2328 H   0  0  0  0  0  0  0  0  0  0  0  0
   47.9814    4.4298   13.4490 H   0  0  0  0  0  0  0  0  0  0  0  0
   45.0576    8.3778   12.7044 H   0  0  0  0  0  0  0  0  0  0  0  0
   47.4177    8.6918   13.3097 H   0  0  0  0  0  0  0  0  0  0  0  0
   49.3660   10.3469   14.4693 H   0  0  0  0  0  0  0  0  0  0  0  0
   47.1652    7.0563   16.5804 H   0  0  0  0  0  0  0  0  0  0  0  0
   48.6846    6.8462   17.5225 H   0  0  0  0  0  0  0  0  0  0  0  0
   48.4425    5.9310   16.0529 H   0  0  0  0  0  0  0  0  0  0  0  0
   49.0956   12.6014   15.3340 H   0  0  0  0  0  0  0  0  0  0  0  0
   46.0645    2.9176   12.9413 H   0  0  0  0  0  0  0  0  0  0  0  0
   48.2380   12.9911   17.6158 H   0  0  0  0  0  0  0  0  0  0  0  0
   43.1436    6.8648   12.2159 H   0  0  0  0  0  0  0  0  0  0  0  0
   47.8319   12.0593   19.8648 H   0  0  0  0  0  0  0  0  0  0  0  0
   47.8098   10.3169   20.1327 H   0  0  0  0  0  0  0  0  0  0  0  0
   46.3936   11.1165   19.4045 H   0  0  0  0  0  0  0  0  0  0  0  0
   43.6978    2.6150   12.3260 H   0  0  0  0  0  0  0  0  0  0  0  0
   42.2384    4.5873   11.9651 H   0  0  0  0  0  0  0  0  0  0  0  0
  2  1  1  0
  3  2  1  0
  4  1  1  0
  5  1  2  0
  6  4  1  0
  7  9  2  0
  8  3  2  0
  9  6  1  0
 10 11  2  0
 11 12  1  0
 12  6  2  0
 13  8  1  0
 14  3  1  0
 15  2  1  0
 16 14  2  0
 17  7  1  0
 18 16  1  0
 19 10  1  0
 20 13  1  0
 21 17  2  0
 22 19  2  0
 10  7  1  0
 13 18  2  0
 22 21  1  0
  8 23  1  0
  9 24  1  0
 11 25  1  0
 12 26  1  0
 14 27  1  0
 15 28  1  0
 15 29  1  0
 15 30  1  0
 16 31  1  0
 17 32  1  0
 18 33  1  0
 19 34  1  0
 20 35  1  0
 20 36  1  0
 20 37  1  0
 21 38  1  0
 22 39  1  0
M  END
> <Uni-Dock RESULT> 
ENERGY=   -4.416  LOWER_BOUND=    1.406  UPPER_BOUND=    7.105
INTER + INTRA:          -4.416
INTER:                  -4.416
INTRA:                   0.000
UNBOUND:                 0.000

$$$$

     RDKit          3D

 39 41  0  0  0  0  0  0  0  0999 V2000
   49.9500    9.2421   15.8116 C   0  0  0  0  0  0  0  0  0  0  0  0
   48.9171    9.4493   16.7337 N   0  0  0  0  0  0  0  0  0  0  0  0
   48.5009   10.7494   17.1965 C   0  0  0  0  0  0  0  0  0  0  0  0
   49.7858    8.2300   14.8582 O   0  0  0  0  0  0  0  0  0  0  0  0
   51.4658    9.9550   15.7958 S   0  0  0  0  0  0  0  0  0  0  0  0
   48.5353    7.9299   14.2681 C   0  0  0  0  0  0  0  0  0  0  0  0
   47.0478    6.2100   13.4376 C   0  0  0  0  0  0  0  0  0  0  0  0
   47.7266   10.9005   18.3608 C   0  0  0  0  0  0  0  0  0  0  0  0
   48.2612    6.5833   14.0332 C   0  0  0  0  0  0  0  0  0  0  0  0
   46.1203    7.2132   13.0650 C   0  0  0  0  0  0  0  0  0  0  0  0
   46.4354    8.5646   13.2903 C   0  0  0  0  0  0  0  0  0  0  0  0
   47.6451    8.9271   13.8833 C   0  0  0  0  0  0  0  0  0  0  0  0
   47.2949   12.1626   18.8069 C   0  0  0  0  0  0  0  0  0  0  0  0
   48.7843   11.9092   16.4602 C   0  0  0  0  0  0  0  0  0  0  0  0
   48.3312    8.2668   17.3602 C   0  0  0  0  0  0  0  0  0  0  0  0
   48.3479   13.1684   16.8850 C   0  0  0  0  0  0  0  0  0  0  0  0
   46.7342    4.8620   13.2021 C   0  0  0  0  0  0  0  0  0  0  0  0
   47.6058   13.2953   18.0540 C   0  0  0  0  0  0  0  0  0  0  0  0
   44.9056    6.8361   12.4707 C   0  0  0  0  0  0  0  0  0  0  0  0
   46.4581   12.2815   20.0471 C   0  0  0  0  0  0  0  0  0  0  0  0
   45.5213    4.5055   12.6104 C   0  0  0  0  0  0  0  0  0  0  0  0
   44.6084    5.4908   12.2460 C   0  0  0  0  0  0  0  0  0  0  0  0
   47.4491   10.0410   18.9636 H   0  0  0  0  0  0  0  0  0  0  0  0
   48.9930    5.8329   14.3198 H   0  0  0  0  0  0  0  0  0  0  0  0
   45.7386    9.3473   12.9980 H   0  0  0  0  0  0  0  0  0  0  0  0
   47.8764    9.9767   14.0317 H   0  0  0  0  0  0  0  0  0  0  0  0
   49.3230   11.8682   15.5184 H   0  0  0  0  0  0  0  0  0  0  0  0
   47.2469    8.2706   17.2143 H   0  0  0  0  0  0  0  0  0  0  0  0
   48.5773    8.2590   18.4269 H   0  0  0  0  0  0  0  0  0  0  0  0
   48.7447    7.3423   16.9478 H   0  0  0  0  0  0  0  0  0  0  0  0
   48.5837   14.0492   16.2928 H   0  0  0  0  0  0  0  0  0  0  0  0
   47.4351    4.0771   13.4778 H   0  0  0  0  0  0  0  0  0  0  0  0
   47.2684   14.2799   18.3692 H   0  0  0  0  0  0  0  0  0  0  0  0
   44.1800    7.5908   12.1755 H   0  0  0  0  0  0  0  0  0  0  0  0
   46.5826   13.2653   20.5118 H   0  0  0  0  0  0  0  0  0  0  0  0
   46.7540   11.5328   20.7895 H   0  0  0  0  0  0  0  0  0  0  0  0
   45.4016   12.1391   19.8002 H   0  0  0  0  0  0  0  0  0  0  0  0
   45.2911    3.4581   12.4329 H   0  0  0  0  0  0  0  0  0  0  0  0
   43.6644    5.2138   11.7837 H   0  0  0  0  0  0  0  0  0  0  0  0
  2  1  1  0
  3  2  1  0
  4  1  1  0
  5  1  2  0
  6  4  1  0
  7  9  2  0
  8  3  2  0
  9  6  1  0
 10 11  2  0
 11 12  1  0
 12  6  2  0
 13  8  1  0
 14  3  1  0
 15  2  1  0
 16 14  2  0
 17  7  1  0
 18 16  1  0
 19 10  1  0
 20 13  1  0
 21 17  2  0
 22 19  2  0
 10  7  1  0
 13 18  2  0
 22 21  1  0
  8 23  1  0
  9 24  1  0
 11 25  1  0
 12 26  1  0
 14 27  1  0
 15 28  1  0
 15 29  1  0
 15 30  1  0
 16 31  1  0
 17 32  1  0
 18 33  1  0
 19 34  1  0
 20 35  1  0
 20 36  1  0
 20 37  1  0
 21 38  1  0
 22 39  1  0
M  END
> <Uni-Dock RESULT> 
ENERGY=   -4.374  LOWER_BOUND=    1.597  UPPER_BOUND=    7.068
INTER + INTRA:          -4.374
INTER:                  -4.374
INTRA:                   0.000
UNBOUND:                 0.000

$$$$

     RDKit          3D

 39 41  0  0  0  0  0  0  0  0999 V2000
   48.2145    5.1181   17.3466 C   0  0  0  0  0  0  0  0  0  0  0  0
   49.4860    5.7030   17.3800 N   0  0  0  0  0  0  0  0  0  0  0  0
   50.0161    6.5359   16.3299 C   0  0  0  0  0  0  0  0  0  0  0  0
   47.4867    5.0602   18.5412 O   0  0  0  0  0  0  0  0  0  0  0  0
   47.4926    4.3119   16.0679 S   0  0  0  0  0  0  0  0  0  0  0  0
   47.5273    6.0880   19.5127 C   0  0  0  0  0  0  0  0  0  0  0  0
   47.5320    6.6510   21.8672 C   0  0  0  0  0  0  0  0  0  0  0  0
   51.3931    6.8045   16.2310 C   0  0  0  0  0  0  0  0  0  0  0  0
   47.5089    5.6880   20.8482 C   0  0  0  0  0  0  0  0  0  0  0  0
   47.5558    8.0246   21.5232 C   0  0  0  0  0  0  0  0  0  0  0  0
   47.5472    8.3986   20.1681 C   0  0  0  0  0  0  0  0  0  0  0  0
   47.5240    7.4337   19.1607 C   0  0  0  0  0  0  0  0  0  0  0  0
   51.9171    7.6358   15.2246 C   0  0  0  0  0  0  0  0  0  0  0  0
   49.1706    7.1762   15.4118 C   0  0  0  0  0  0  0  0  0  0  0  0
   50.3682    5.3256   18.4815 C   0  0  0  0  0  0  0  0  0  0  0  0
   49.6778    8.0171   14.4158 C   0  0  0  0  0  0  0  0  0  0  0  0
   47.5307    6.2812   23.2216 C   0  0  0  0  0  0  0  0  0  0  0  0
   51.0460    8.2465   14.3221 C   0  0  0  0  0  0  0  0  0  0  0  0
   47.5808    8.9862   22.5458 C   0  0  0  0  0  0  0  0  0  0  0  0
   53.3914    7.9095   15.1605 C   0  0  0  0  0  0  0  0  0  0  0  0
   47.5560    7.2512   24.2250 C   0  0  0  0  0  0  0  0  0  0  0  0
   47.5817    8.6012   23.8876 C   0  0  0  0  0  0  0  0  0  0  0  0
   52.1007    6.3624   16.9258 H   0  0  0  0  0  0  0  0  0  0  0  0
   47.4813    4.6281   21.0864 H   0  0  0  0  0  0  0  0  0  0  0  0
   47.5525    9.4499   19.8883 H   0  0  0  0  0  0  0  0  0  0  0  0
   47.4994    7.7441   18.1213 H   0  0  0  0  0  0  0  0  0  0  0  0
   48.0913    7.0692   15.4615 H   0  0  0  0  0  0  0  0  0  0  0  0
   50.7170    6.2238   18.9998 H   0  0  0  0  0  0  0  0  0  0  0  0
   51.2148    4.7518   18.0910 H   0  0  0  0  0  0  0  0  0  0  0  0
   49.8647    4.6713   19.1986 H   0  0  0  0  0  0  0  0  0  0  0  0
   48.9970    8.4991   13.7184 H   0  0  0  0  0  0  0  0  0  0  0  0
   47.5087    5.2315   23.5059 H   0  0  0  0  0  0  0  0  0  0  0  0
   51.4257    8.9071   13.5461 H   0  0  0  0  0  0  0  0  0  0  0  0
   47.5977   10.0465   22.3035 H   0  0  0  0  0  0  0  0  0  0  0  0
   53.7007    8.1570   14.1396 H   0  0  0  0  0  0  0  0  0  0  0  0
   53.9645    7.0286   15.4682 H   0  0  0  0  0  0  0  0  0  0  0  0
   53.6450    8.7463   15.8185 H   0  0  0  0  0  0  0  0  0  0  0  0
   47.5539    6.9514   25.2698 H   0  0  0  0  0  0  0  0  0  0  0  0
   47.5998    9.3570   24.6687 H   0  0  0  0  0  0  0  0  0  0  0  0
  2  1  1  0
  3  2  1  0
  4  1  1  0
  5  1  2  0
  6  4  1  0
  7  9  2  0
  8  3  2  0
  9  6  1  0
 10 11  2  0
 11 12  1  0
 12  6  2  0
 13  8  1  0
 14  3  1  0
 15  2  1  0
 16 14  2  0
 17  7  1  0
 18 16  1  0
 19 10  1  0
 20 13  1  0
 21 17  2  0
 22 19  2  0
 10  7  1  0
 13 18  2  0
 22 21  1  0
  8 23  1  0
  9 24  1  0
 11 25  1  0
 12 26  1  0
 14 27  1  0
 15 28  1  0
 15 29  1  0
 15 30  1  0
 16 31  1  0
 17 32  1  0
 18 33  1  0
 19 34  1  0
 20 35  1  0
 20 36  1  0
 20 37  1  0
 21 38  1  0
 22 39  1  0
M  END
> <Uni-Dock RESULT> 
ENERGY=   -4.281  LOWER_BOUND=    4.544  UPPER_BOUND=    6.484
INTER + INTRA:          -4.281
INTER:                  -4.281
INTRA:                   0.000
UNBOUND:                 0.000

$$$$

     RDKit          3D

 39 41  0  0  0  0  0  0  0  0999 V2000
   48.1441    6.5536   21.8077 C   0  0  0  0  0  0  0  0  0  0  0  0
   49.3113    6.5252   21.0351 N   0  0  0  0  0  0  0  0  0  0  0  0
   49.6044    5.5071   20.0578 C   0  0  0  0  0  0  0  0  0  0  0  0
   47.5556    7.7981   22.0626 O   0  0  0  0  0  0  0  0  0  0  0  0
   47.4267    5.2793   22.6246 S   0  0  0  0  0  0  0  0  0  0  0  0
   47.5391    8.8461   21.1120 C   0  0  0  0  0  0  0  0  0  0  0  0
   47.6942   11.2303   20.7225 C   0  0  0  0  0  0  0  0  0  0  0  0
   50.9093    5.3112   19.5711 C   0  0  0  0  0  0  0  0  0  0  0  0
   47.7135   10.1392   21.6031 C   0  0  0  0  0  0  0  0  0  0  0  0
   47.4790   11.0034   19.3413 C   0  0  0  0  0  0  0  0  0  0  0  0
   47.2800    9.6909   18.8788 C   0  0  0  0  0  0  0  0  0  0  0  0
   47.3006    8.6111   19.7620 C   0  0  0  0  0  0  0  0  0  0  0  0
   51.2010    4.3369   18.5993 C   0  0  0  0  0  0  0  0  0  0  0  0
   48.5858    4.7242   19.4943 C   0  0  0  0  0  0  0  0  0  0  0  0
   50.3451    7.5092   21.3468 C   0  0  0  0  0  0  0  0  0  0  0  0
   48.8606    3.7626   18.5165 C   0  0  0  0  0  0  0  0  0  0  0  0
   47.8827   12.5433   21.1825 C   0  0  0  0  0  0  0  0  0  0  0  0
   50.1632    3.5692   18.0702 C   0  0  0  0  0  0  0  0  0  0  0  0
   47.4621   12.0977   18.4621 C   0  0  0  0  0  0  0  0  0  0  0  0
   52.6043    4.1676   18.0949 C   0  0  0  0  0  0  0  0  0  0  0  0
   47.8631   13.6194   20.2936 C   0  0  0  0  0  0  0  0  0  0  0  0
   47.6538   13.3968   18.9357 C   0  0  0  0  0  0  0  0  0  0  0  0
   51.7404    5.9013   19.9451 H   0  0  0  0  0  0  0  0  0  0  0  0
   47.8678   10.2882   22.6684 H   0  0  0  0  0  0  0  0  0  0  0  0
   47.1009    9.5019   17.8224 H   0  0  0  0  0  0  0  0  0  0  0  0
   47.1268    7.6080   19.3868 H   0  0  0  0  0  0  0  0  0  0  0  0
   47.5449    4.8589   19.7719 H   0  0  0  0  0  0  0  0  0  0  0  0
   50.6061    8.0692   20.4439 H   0  0  0  0  0  0  0  0  0  0  0  0
   51.2246    6.9988   21.7524 H   0  0  0  0  0  0  0  0  0  0  0  0
   50.0185    8.2095   22.1206 H   0  0  0  0  0  0  0  0  0  0  0  0
   48.0497    3.1709   18.0989 H   0  0  0  0  0  0  0  0  0  0  0  0
   48.0457   12.7384   22.2401 H   0  0  0  0  0  0  0  0  0  0  0  0
   50.3612    2.8219   17.3054 H   0  0  0  0  0  0  0  0  0  0  0  0
   47.2968   11.9458   17.3977 H   0  0  0  0  0  0  0  0  0  0  0  0
   52.7702    3.1481   17.7308 H   0  0  0  0  0  0  0  0  0  0  0  0
   53.3299    4.3480   18.8949 H   0  0  0  0  0  0  0  0  0  0  0  0
   52.7947    4.8694   17.2772 H   0  0  0  0  0  0  0  0  0  0  0  0
   48.0097   14.6311   20.6628 H   0  0  0  0  0  0  0  0  0  0  0  0
   47.6369   14.2346   18.2434 H   0  0  0  0  0  0  0  0  0  0  0  0
  2  1  1  0
  3  2  1  0
  4  1  1  0
  5  1  2  0
  6  4  1  0
  7  9  2  0
  8  3  2  0
  9  6  1  0
 10 11  2  0
 11 12  1  0
 12  6  2  0
 13  8  1  0
 14  3  1  0
 15  2  1  0
 16 14  2  0
 17  7  1  0
 18 16  1  0
 19 10  1  0
 20 13  1  0
 21 17  2  0
 22 19  2  0
 10  7  1  0
 13 18  2  0
 22 21  1  0
  8 23  1  0
  9 24  1  0
 11 25  1  0
 12 26  1  0
 14 27  1  0
 15 28  1  0
 15 29  1  0
 15 30  1  0
 16 31  1  0
 17 32  1  0
 18 33  1  0
 19 34  1  0
 20 35  1  0
 20 36  1  0
 20 37  1  0
 21 38  1  0
 22 39  1  0
M  END
> <Uni-Dock RESULT> 
ENERGY=   -4.264  LOWER_BOUND=    5.652  UPPER_BOUND=    6.798
INTER + INTRA:          -4.264
INTER:                  -4.264
INTRA:                   0.000
UNBOUND:                 0.000

$$$$

     RDKit          3D

 39 41  0  0  0  0  0  0  0  0999 V2000
   50.3215    7.0191   17.1625 C   0  0  0  0  0  0  0  0  0  0  0  0
   49.4362    7.3249   16.1219 N   0  0  0  0  0  0  0  0  0  0  0  0
   48.5642    6.3613   15.4985 C   0  0  0  0  0  0  0  0  0  0  0  0
   50.4853    7.9625   18.1838 O   0  0  0  0  0  0  0  0  0  0  0  0
   51.3605    5.7094   17.2701 S   0  0  0  0  0  0  0  0  0  0  0  0
   49.4217    8.7619   18.6651 C   0  0  0  0  0  0  0  0  0  0  0  0
   48.7302   10.9295   19.4924 C   0  0  0  0  0  0  0  0  0  0  0  0
   47.9663    6.6123   14.2504 C   0  0  0  0  0  0  0  0  0  0  0  0
   49.7298   10.0811   18.9949 C   0  0  0  0  0  0  0  0  0  0  0  0
   47.4185   10.4263   19.6703 C   0  0  0  0  0  0  0  0  0  0  0  0
   47.1435    9.0845   19.3539 C   0  0  0  0  0  0  0  0  0  0  0  0
   48.1442    8.2473   18.8596 C   0  0  0  0  0  0  0  0  0  0  0  0
   47.0946    5.6890   13.6455 C   0  0  0  0  0  0  0  0  0  0  0  0
   48.2140    5.1687   16.1487 C   0  0  0  0  0  0  0  0  0  0  0  0
   49.5119    8.6673   15.5508 C   0  0  0  0  0  0  0  0  0  0  0  0
   47.3365    4.2493   15.5646 C   0  0  0  0  0  0  0  0  0  0  0  0
   49.0038   12.2673   19.8188 C   0  0  0  0  0  0  0  0  0  0  0  0
   46.7784    4.5080   14.3176 C   0  0  0  0  0  0  0  0  0  0  0  0
   46.4196   11.2787   20.1667 C   0  0  0  0  0  0  0  0  0  0  0  0
   46.4653    5.9994   12.3188 C   0  0  0  0  0  0  0  0  0  0  0  0
   47.9979   13.1005   20.3109 C   0  0  0  0  0  0  0  0  0  0  0  0
   46.7080   12.6072   20.4839 C   0  0  0  0  0  0  0  0  0  0  0  0
   48.1734    7.5280   13.7049 H   0  0  0  0  0  0  0  0  0  0  0  0
   50.7460   10.4409   18.8580 H   0  0  0  0  0  0  0  0  0  0  0  0
   46.1437    8.6800   19.4971 H   0  0  0  0  0  0  0  0  0  0  0  0
   47.9150    7.2100   18.6387 H   0  0  0  0  0  0  0  0  0  0  0  0
   48.5843    4.9317   17.1415 H   0  0  0  0  0  0  0  0  0  0  0  0
   48.5246    9.1378   15.5812 H   0  0  0  0  0  0  0  0  0  0  0  0
   49.8788    8.6060   14.5212 H   0  0  0  0  0  0  0  0  0  0  0  0
   50.2254    9.2975   16.0889 H   0  0  0  0  0  0  0  0  0  0  0  0
   47.0844    3.3333   16.0933 H   0  0  0  0  0  0  0  0  0  0  0  0
   50.0058   12.6712   19.6927 H   0  0  0  0  0  0  0  0  0  0  0  0
   46.0934    3.7867   13.8782 H   0  0  0  0  0  0  0  0  0  0  0  0
   45.4059   10.9121   20.3125 H   0  0  0  0  0  0  0  0  0  0  0  0
   46.2123    5.0803   11.7797 H   0  0  0  0  0  0  0  0  0  0  0  0
   47.1540    6.5676   11.6848 H   0  0  0  0  0  0  0  0  0  0  0  0
   45.5525    6.5847   12.4659 H   0  0  0  0  0  0  0  0  0  0  0  0
   48.2231   14.1342   20.5605 H   0  0  0  0  0  0  0  0  0  0  0  0
   45.9247   13.2554   20.8687 H   0  0  0  0  0  0  0  0  0  0  0  0
  2  1  1  0
  3  2  1  0
  4  1  1  0
  5  1  2  0
  6  4  1  0
  7  9  2  0
  8  3  2  0
  9  6  1  0
 10 11  2  0
 11 12  1  0
 12  6  2  0
 13  8  1  0
 14  3  1  0
 15  2  1  0
 16 14  2  0
 17  7  1  0
 18 16  1  0
 19 10  1  0
 20 13  1  0
 21 17  2  0
 22 19  2  0
 10  7  1  0
 13 18  2  0
 22 21  1  0
  8 23  1  0
  9 24  1  0
 11 25  1  0
 12 26  1  0
 14 27  1  0
 15 28  1  0
 15 29  1  0
 15 30  1  0
 16 31  1  0
 17 32  1  0
 18 33  1  0
 19 34  1  0
 20 35  1  0
 20 36  1  0
 20 37  1  0
 21 38  1  0
 22 39  1  0
M  END
> <Uni-Dock RESULT> 
ENERGY=   -4.090  LOWER_BOUND=    2.592  UPPER_BOUND=    3.212
INTER + INTRA:          -4.090
INTER:                  -4.090
INTRA:                   0.000
UNBOUND:                 0.000

$$$$

     RDKit          3D

 39 41  0  0  0  0  0  0  0  0999 V2000
   51.6280    8.3600   19.2598 C   0  0  0  0  0  0  0  0  0  0  0  0
   50.8506    7.9075   20.3327 N   0  0  0  0  0  0  0  0  0  0  0  0
   49.5476    8.4302   20.6586 C   0  0  0  0  0  0  0  0  0  0  0  0
   52.3631    7.4133   18.5363 O   0  0  0  0  0  0  0  0  0  0  0  0
   51.9309    9.9458   18.8132 S   0  0  0  0  0  0  0  0  0  0  0  0
   51.8840    6.1075   18.2771 C   0  0  0  0  0  0  0  0  0  0  0  0
   52.4232    3.7572   18.0624 C   0  0  0  0  0  0  0  0  0  0  0  0
   48.9644    8.2131   21.9199 C   0  0  0  0  0  0  0  0  0  0  0  0
   52.8212    5.0763   18.3230 C   0  0  0  0  0  0  0  0  0  0  0  0
   51.0707    3.4921   17.7370 C   0  0  0  0  0  0  0  0  0  0  0  0
   50.1535    4.5556   17.6724 C   0  0  0  0  0  0  0  0  0  0  0  0
   50.5582    5.8651   17.9330 C   0  0  0  0  0  0  0  0  0  0  0  0
   47.6832    8.6981   22.2390 C   0  0  0  0  0  0  0  0  0  0  0  0
   48.7756    9.1083   19.7036 C   0  0  0  0  0  0  0  0  0  0  0  0
   51.4658    6.9501   21.2487 C   0  0  0  0  0  0  0  0  0  0  0  0
   47.4943    9.5823   20.0037 C   0  0  0  0  0  0  0  0  0  0  0  0
   53.3386    2.6941   18.1163 C   0  0  0  0  0  0  0  0  0  0  0  0
   46.9495    9.3781   21.2666 C   0  0  0  0  0  0  0  0  0  0  0  0
   50.6750    2.1702   17.4785 C   0  0  0  0  0  0  0  0  0  0  0  0
   47.0893    8.4339   23.5917 C   0  0  0  0  0  0  0  0  0  0  0  0
   52.9273    1.3858   17.8566 C   0  0  0  0  0  0  0  0  0  0  0  0
   51.5977    1.1244   17.5389 C   0  0  0  0  0  0  0  0  0  0  0  0
   49.4966    7.6727   22.6968 H   0  0  0  0  0  0  0  0  0  0  0  0
   53.8550    5.3066   18.5660 H   0  0  0  0  0  0  0  0  0  0  0  0
   49.1139    4.3693   17.4113 H   0  0  0  0  0  0  0  0  0  0  0  0
   49.8382    6.6735   17.8600 H   0  0  0  0  0  0  0  0  0  0  0  0
   49.1303    9.2604   18.6888 H   0  0  0  0  0  0  0  0  0  0  0  0
   50.8327    6.0620   21.3347 H   0  0  0  0  0  0  0  0  0  0  0  0
   51.6067    7.4200   22.2274 H   0  0  0  0  0  0  0  0  0  0  0  0
   52.4616    6.6487   20.9120 H   0  0  0  0  0  0  0  0  0  0  0  0
   46.9203   10.1047   19.2423 H   0  0  0  0  0  0  0  0  0  0  0  0
   54.3825    2.8779   18.3608 H   0  0  0  0  0  0  0  0  0  0  0  0
   45.9499    9.7473   21.4840 H   0  0  0  0  0  0  0  0  0  0  0  0
   49.6415    1.9448   17.2251 H   0  0  0  0  0  0  0  0  0  0  0  0
   46.3580    9.2048   23.8568 H   0  0  0  0  0  0  0  0  0  0  0  0
   47.8641    8.4427   24.3655 H   0  0  0  0  0  0  0  0  0  0  0  0
   46.5920    7.4591   23.5976 H   0  0  0  0  0  0  0  0  0  0  0  0
   53.6463    0.5719   17.9009 H   0  0  0  0  0  0  0  0  0  0  0  0
   51.2772    0.1059   17.3350 H   0  0  0  0  0  0  0  0  0  0  0  0
  2  1  1  0
  3  2  1  0
  4  1  1  0
  5  1  2  0
  6  4  1  0
  7  9  2  0
  8  3  2  0
  9  6  1  0
 10 11  2  0
 11 12  1  0
 12  6  2  0
 13  8  1  0
 14  3  1  0
 15  2  1  0
 16 14  2  0
 17  7  1  0
 18 16  1  0
 19 10  1  0
 20 13  1  0
 21 17  2  0
 22 19  2  0
 10  7  1  0
 13 18  2  0
 22 21  1  0
  8 23  1  0
  9 24  1  0
 11 25  1  0
 12 26  1  0
 14 27  1  0
 15 28  1  0
 15 29  1  0
 15 30  1  0
 16 31  1  0
 17 32  1  0
 18 33  1  0
 19 34  1  0
 20 35  1  0
 20 36  1  0
 20 37  1  0
 21 38  1  0
 22 39  1  0
M  END
> <Uni-Dock RESULT> 
ENERGY=   -4.080  LOWER_BOUND=    5.647  UPPER_BOUND=    8.887
INTER + INTRA:          -4.080
INTER:                  -4.080
INTRA:                   0.000
UNBOUND:                 0.000

$$$$

     RDKit          3D

 39 41  0  0  0  0  0  0  0  0999 V2000
   42.2207   10.9094   10.4924 C   0  0  0  0  0  0  0  0  0  0  0  0
   43.5274   10.8897   10.9946 N   0  0  0  0  0  0  0  0  0  0  0  0
   44.1895    9.6999   11.4674 C   0  0  0  0  0  0  0  0  0  0  0  0
   41.9490   11.7439    9.4016 O   0  0  0  0  0  0  0  0  0  0  0  0
   40.8645   10.1693   11.1399 S   0  0  0  0  0  0  0  0  0  0  0  0
   42.8780   11.9661    8.3578 C   0  0  0  0  0  0  0  0  0  0  0  0
   43.8218   13.5499    6.7889 C   0  0  0  0  0  0  0  0  0  0  0  0
   45.3368    9.7715   12.2778 C   0  0  0  0  0  0  0  0  0  0  0  0
   42.9355   13.2575    7.8355 C   0  0  0  0  0  0  0  0  0  0  0  0
   44.6379   12.5191    6.2625 C   0  0  0  0  0  0  0  0  0  0  0  0
   44.5392   11.2204    6.7916 C   0  0  0  0  0  0  0  0  0  0  0  0
   43.6545   10.9384    7.8329 C   0  0  0  0  0  0  0  0  0  0  0  0
   46.0042    8.6165   12.7238 C   0  0  0  0  0  0  0  0  0  0  0  0
   43.7624    8.4234   11.0724 C   0  0  0  0  0  0  0  0  0  0  0  0
   44.1952   12.1764   11.1750 C   0  0  0  0  0  0  0  0  0  0  0  0
   44.4264    7.2678   11.4967 C   0  0  0  0  0  0  0  0  0  0  0  0
   43.9158   14.8435    6.2514 C   0  0  0  0  0  0  0  0  0  0  0  0
   45.5434    7.3634   12.3194 C   0  0  0  0  0  0  0  0  0  0  0  0
   45.5255   12.8155    5.2160 C   0  0  0  0  0  0  0  0  0  0  0  0
   47.2339    8.7345   13.5761 C   0  0  0  0  0  0  0  0  0  0  0  0
   44.8043   15.1200    5.2111 C   0  0  0  0  0  0  0  0  0  0  0  0
   45.6082   14.1079    4.6948 C   0  0  0  0  0  0  0  0  0  0  0  0
   45.7364   10.7289   12.5984 H   0  0  0  0  0  0  0  0  0  0  0  0
   42.2924   14.0290    8.2503 H   0  0  0  0  0  0  0  0  0  0  0  0
   45.1504   10.4153    6.3892 H   0  0  0  0  0  0  0  0  0  0  0  0
   43.5809    9.9253    8.2145 H   0  0  0  0  0  0  0  0  0  0  0  0
   42.9229    8.2877   10.3975 H   0  0  0  0  0  0  0  0  0  0  0  0
   45.1531   12.1727   10.6464 H   0  0  0  0  0  0  0  0  0  0  0  0
   44.3444   12.3637   12.2432 H   0  0  0  0  0  0  0  0  0  0  0  0
   43.5854   13.0053   10.8051 H   0  0  0  0  0  0  0  0  0  0  0  0
   44.0712    6.2922   11.1740 H   0  0  0  0  0  0  0  0  0  0  0  0
   43.2947   15.6477    6.6397 H   0  0  0  0  0  0  0  0  0  0  0  0
   46.0529    6.4566   12.6369 H   0  0  0  0  0  0  0  0  0  0  0  0
   46.1601   12.0382    4.7961 H   0  0  0  0  0  0  0  0  0  0  0  0
   47.3666    7.8438   14.1992 H   0  0  0  0  0  0  0  0  0  0  0  0
   47.1587    9.5937   14.2509 H   0  0  0  0  0  0  0  0  0  0  0  0
   48.1176    8.8565   12.9423 H   0  0  0  0  0  0  0  0  0  0  0  0
   44.8667   16.1257    4.8035 H   0  0  0  0  0  0  0  0  0  0  0  0
   46.2992   14.3224    3.8836 H   0  0  0  0  0  0  0  0  0  0  0  0
  2  1  1  0
  3  2  1  0
  4  1  1  0
  5  1  2  0
  6  4  1  0
  7  9  2  0
  8  3  2  0
  9  6  1  0
 10 11  2  0
 11 12  1  0
 12  6  2  0
 13  8  1  0
 14  3  1  0
 15  2  1  0
 16 14  2  0
 17  7  1  0
 18 16  1  0
 19 10  1  0
 20 13  1  0
 21 17  2  0
 22 19  2  0
 10  7  1  0
 13 18  2  0
 22 21  1  0
  8 23  1  0
  9 24  1  0
 11 25  1  0
 12 26  1  0
 14 27  1  0
 15 28  1  0
 15 29  1  0
 15 30  1  0
 16 31  1  0
 17 32  1  0
 18 33  1  0
 19 34  1  0
 20 35  1  0
 20 36  1  0
 20 37  1  0
 21 38  1  0
 22 39  1  0
M  END
> <Uni-Dock RESULT> 
ENERGY=   -4.039  LOWER_BOUND=    6.473  UPPER_BOUND=    9.011
INTER + INTRA:          -4.039
INTER:                  -4.039
INTRA:                   0.000
UNBOUND:                 0.000

$$$$

     RDKit          3D

 39 41  0  0  0  0  0  0  0  0999 V2000
   42.7782   12.2068    9.7795 C   0  0  0  0  0  0  0  0  0  0  0  0
   42.1845   12.3701   11.0368 N   0  0  0  0  0  0  0  0  0  0  0  0
   40.8612   11.9046   11.3680 C   0  0  0  0  0  0  0  0  0  0  0  0
   44.1461   11.9121    9.7325 O   0  0  0  0  0  0  0  0  0  0  0  0
   42.0875   12.4822    8.2784 S   0  0  0  0  0  0  0  0  0  0  0  0
   44.7839   11.0841   10.6862 C   0  0  0  0  0  0  0  0  0  0  0  0
   46.7709   10.6742   12.0070 C   0  0  0  0  0  0  0  0  0  0  0  0
   40.1739   12.3890   12.4955 C   0  0  0  0  0  0  0  0  0  0  0  0
   46.0701   11.4547   11.0763 C   0  0  0  0  0  0  0  0  0  0  0  0
   46.1655    9.5044   12.5271 C   0  0  0  0  0  0  0  0  0  0  0  0
   44.8778    9.1414   12.0954 C   0  0  0  0  0  0  0  0  0  0  0  0
   44.1878    9.9237   11.1689 C   0  0  0  0  0  0  0  0  0  0  0  0
   38.8925   11.9230   12.8408 C   0  0  0  0  0  0  0  0  0  0  0  0
   40.2384   10.8916   10.6240 C   0  0  0  0  0  0  0  0  0  0  0  0
   42.9019   13.1832   12.0158 C   0  0  0  0  0  0  0  0  0  0  0  0
   38.9709   10.4090   10.9658 C   0  0  0  0  0  0  0  0  0  0  0  0
   48.0610   11.0284   12.4328 C   0  0  0  0  0  0  0  0  0  0  0  0
   38.2999   10.9224   12.0702 C   0  0  0  0  0  0  0  0  0  0  0  0
   46.8690    8.7262   13.4601 C   0  0  0  0  0  0  0  0  0  0  0  0
   38.1970   12.4546   14.0599 C   0  0  0  0  0  0  0  0  0  0  0  0
   48.7454   10.2428   13.3616 C   0  0  0  0  0  0  0  0  0  0  0  0
   48.1501    9.0941   13.8748 C   0  0  0  0  0  0  0  0  0  0  0  0
   40.6097   13.1546   13.1302 H   0  0  0  0  0  0  0  0  0  0  0  0
   46.5165   12.3517   10.6559 H   0  0  0  0  0  0  0  0  0  0  0  0
   44.4047    8.2388   12.4763 H   0  0  0  0  0  0  0  0  0  0  0  0
   43.2023    9.6159   10.8354 H   0  0  0  0  0  0  0  0  0  0  0  0
   40.7305   10.4228    9.7773 H   0  0  0  0  0  0  0  0  0  0  0  0
   43.0398   12.6131   12.9394 H   0  0  0  0  0  0  0  0  0  0  0  0
   42.3393   14.1021   12.2096 H   0  0  0  0  0  0  0  0  0  0  0  0
   43.8792   13.5004   11.6416 H   0  0  0  0  0  0  0  0  0  0  0  0
   38.5139    9.6232   10.3693 H   0  0  0  0  0  0  0  0  0  0  0  0
   48.5443   11.9211   12.0421 H   0  0  0  0  0  0  0  0  0  0  0  0
   37.3174   10.5336   12.3273 H   0  0  0  0  0  0  0  0  0  0  0  0
   46.4231    7.8231   13.8709 H   0  0  0  0  0  0  0  0  0  0  0  0
   37.1096   12.3748   13.9576 H   0  0  0  0  0  0  0  0  0  0  0  0
   38.4313   13.5136   14.2109 H   0  0  0  0  0  0  0  0  0  0  0  0
   38.5103   11.8914   14.9443 H   0  0  0  0  0  0  0  0  0  0  0  0
   49.7441   10.5278   13.6824 H   0  0  0  0  0  0  0  0  0  0  0  0
   48.6834    8.4812   14.5969 H   0  0  0  0  0  0  0  0  0  0  0  0
  2  1  1  0
  3  2  1  0
  4  1  1  0
  5  1  2  0
  6  4  1  0
  7  9  2  0
  8  3  2  0
  9  6  1  0
 10 11  2  0
 11 12  1  0
 12  6  2  0
 13  8  1  0
 14  3  1  0
 15  2  1  0
 16 14  2  0
 17  7  1  0
 18 16  1  0
 19 10  1  0
 20 13  1  0
 21 17  2  0
 22 19  2  0
 10  7  1  0
 13 18  2  0
 22 21  1  0
  8 23  1  0
  9 24  1  0
 11 25  1  0
 12 26  1  0
 14 27  1  0
 15 28  1  0
 15 29  1  0
 15 30  1  0
 16 31  1  0
 17 32  1  0
 18 33  1  0
 19 34  1  0
 20 35  1  0
 20 36  1  0
 20 37  1  0
 21 38  1  0
 22 39  1  0
M  END
> <Uni-Dock RESULT> 
ENERGY=   -3.910  LOWER_BOUND=    5.614  UPPER_BOUND=    7.365
INTER + INTRA:          -3.910
INTER:                  -3.910
INTRA:                   0.000
UNBOUND:                 0.000

$$$$
