
     RDKit          3D

 39 41  0  0  0  0  0  0  0  0999 V2000
   47.5309    7.0156   21.6673 C   0  0  0  0  0  0  0  0  0  0  0  0
   47.4147    8.3049   22.2268 N   0  0  0  0  0  0  0  0  0  0  0  0
   47.5772    9.5071   21.4520 C   0  0  0  0  0  0  0  0  0  0  0  0
   48.0440    7.0065   20.3551 O   0  0  0  0  0  0  0  0  0  0  0  0
   47.2174    5.5624   22.4537 S   0  0  0  0  0  0  0  0  0  0  0  0
   48.2016    5.8734   19.5200 C   0  0  0  0  0  0  0  0  0  0  0  0
   49.6746    4.2705   18.4781 C   0  0  0  0  0  0  0  0  0  0  0  0
   48.1758   10.6487   22.0122 C   0  0  0  0  0  0  0  0  0  0  0  0
   49.4834    5.3620   19.3368 C   0  0  0  0  0  0  0  0  0  0  0  0
   48.5606    3.7160   17.7992 C   0  0  0  0  0  0  0  0  0  0  0  0
   47.2824    4.2712   17.9934 C   0  0  0  0  0  0  0  0  0  0  0  0
   47.0995    5.3573   18.8484 C   0  0  0  0  0  0  0  0  0  0  0  0
   48.3286   11.8351   21.2755 C   0  0  0  0  0  0  0  0  0  0  0  0
   47.0975    9.5973   20.1384 C   0  0  0  0  0  0  0  0  0  0  0  0
   47.2376    8.4772   23.6736 C   0  0  0  0  0  0  0  0  0  0  0  0
   47.2297   10.7774   19.4016 C   0  0  0  0  0  0  0  0  0  0  0  0
   50.9486    3.7163   18.2759 C   0  0  0  0  0  0  0  0  0  0  0  0
   47.8406   11.8927   19.9683 C   0  0  0  0  0  0  0  0  0  0  0  0
   48.7576    2.6224   16.9413 C   0  0  0  0  0  0  0  0  0  0  0  0
   48.9593   13.0422   21.9052 C   0  0  0  0  0  0  0  0  0  0  0  0
   51.1249    2.6292   17.4186 C   0  0  0  0  0  0  0  0  0  0  0  0
   50.0313    2.0829   16.7529 C   0  0  0  0  0  0  0  0  0  0  0  0
   48.5688   10.6225   23.0254 H   0  0  0  0  0  0  0  0  0  0  0  0
   50.3195    5.8121   19.8636 H   0  0  0  0  0  0  0  0  0  0  0  0
   46.4199    3.8584   17.4753 H   0  0  0  0  0  0  0  0  0  0  0  0
   46.1128    5.7861   18.9883 H   0  0  0  0  0  0  0  0  0  0  0  0
   46.5725    8.7678   19.6732 H   0  0  0  0  0  0  0  0  0  0  0  0
   48.2202    8.4448   24.1548 H   0  0  0  0  0  0  0  0  0  0  0  0
   46.7357    9.4245   23.8964 H   0  0  0  0  0  0  0  0  0  0  0  0
   46.6115    7.6890   24.0983 H   0  0  0  0  0  0  0  0  0  0  0  0
   46.8438   10.8264   18.3864 H   0  0  0  0  0  0  0  0  0  0  0  0
   51.8150    4.1282   18.7883 H   0  0  0  0  0  0  0  0  0  0  0  0
   47.9305   12.8059   19.3845 H   0  0  0  0  0  0  0  0  0  0  0  0
   47.9166    2.1808   16.4116 H   0  0  0  0  0  0  0  0  0  0  0  0
   49.7433   12.7486   22.6110 H   0  0  0  0  0  0  0  0  0  0  0  0
   48.2015   13.6246   22.4381 H   0  0  0  0  0  0  0  0  0  0  0  0
   49.4273   13.6801   21.1481 H   0  0  0  0  0  0  0  0  0  0  0  0
   52.1165    2.2089   17.2725 H   0  0  0  0  0  0  0  0  0  0  0  0
   50.1683    1.2356   16.0861 H   0  0  0  0  0  0  0  0  0  0  0  0
  2  1  1  0
  3  2  1  0
  4  1  1  0
  5  1  2  0
  6  4  1  0
  7  9  2  0
  8  3  2  0
  9  6  1  0
 10 11  2  0
 11 12  1  0
 12  6  2  0
 13  8  1  0
 14  3  1  0
 15  2  1  0
 16 14  2  0
 17  7  1  0
 18 16  1  0
 19 10  1  0
 20 13  1  0
 21 17  2  0
 22 19  2  0
 10  7  1  0
 13 18  2  0
 22 21  1  0
  8 23  1  0
  9 24  1  0
 11 25  1  0
 12 26  1  0
 14 27  1  0
 15 28  1  0
 15 29  1  0
 15 30  1  0
 16 31  1  0
 17 32  1  0
 18 33  1  0
 19 34  1  0
 20 35  1  0
 20 36  1  0
 20 37  1  0
 21 38  1  0
 22 39  1  0
M  END
> <Uni-Dock RESULT> 
ENERGY=   -4.845  LOWER_BOUND=    0.000  UPPER_BOUND=    0.000
INTER + INTRA:          -4.845
INTER:                  -4.845
INTRA:                   0.000
UNBOUND:                 0.000

$$$$

     RDKit          3D

 39 41  0  0  0  0  0  0  0  0999 V2000
   48.9102    8.1493   13.6002 C   0  0  0  0  0  0  0  0  0  0  0  0
   49.4544    9.2327   14.3207 N   0  0  0  0  0  0  0  0  0  0  0  0
   48.9383    9.6573   15.5955 C   0  0  0  0  0  0  0  0  0  0  0  0
   47.6884    7.6753   14.1179 O   0  0  0  0  0  0  0  0  0  0  0  0
   49.5304    7.4908   12.1824 S   0  0  0  0  0  0  0  0  0  0  0  0
   46.9516    6.5597   13.6503 C   0  0  0  0  0  0  0  0  0  0  0  0
   45.0289    5.7107   12.4643 C   0  0  0  0  0  0  0  0  0  0  0  0
   48.9178   11.0182   15.9462 C   0  0  0  0  0  0  0  0  0  0  0  0
   45.8032    6.7952   12.8995 C   0  0  0  0  0  0  0  0  0  0  0  0
   45.4210    4.3930   12.8096 C   0  0  0  0  0  0  0  0  0  0  0  0
   46.5769    4.1937   13.5866 C   0  0  0  0  0  0  0  0  0  0  0  0
   47.3421    5.2770   14.0167 C   0  0  0  0  0  0  0  0  0  0  0  0
   48.4318   11.4490   17.1920 C   0  0  0  0  0  0  0  0  0  0  0  0
   48.4924    8.7295   16.5463 C   0  0  0  0  0  0  0  0  0  0  0  0
   50.5135   10.0621   13.7338 C   0  0  0  0  0  0  0  0  0  0  0  0
   48.0218    9.1455   17.7948 C   0  0  0  0  0  0  0  0  0  0  0  0
   43.8712    5.9039   11.6939 C   0  0  0  0  0  0  0  0  0  0  0  0
   47.9938   10.4995   18.1175 C   0  0  0  0  0  0  0  0  0  0  0  0
   44.6424    3.3105   12.3703 C   0  0  0  0  0  0  0  0  0  0  0  0
   48.4352   12.9078   17.5434 C   0  0  0  0  0  0  0  0  0  0  0  0
   43.1096    4.8152   11.2665 C   0  0  0  0  0  0  0  0  0  0  0  0
   43.4948    3.5208   11.6038 C   0  0  0  0  0  0  0  0  0  0  0  0
   49.2473   11.7738   15.2376 H   0  0  0  0  0  0  0  0  0  0  0  0
   45.5224    7.8157   12.6567 H   0  0  0  0  0  0  0  0  0  0  0  0
   46.8866    3.1883   13.8625 H   0  0  0  0  0  0  0  0  0  0  0  0
   48.2283    5.1177   14.6221 H   0  0  0  0  0  0  0  0  0  0  0  0
   48.5406    7.6612   16.3553 H   0  0  0  0  0  0  0  0  0  0  0  0
   50.0522   10.8227   13.0958 H   0  0  0  0  0  0  0  0  0  0  0  0
   51.1177   10.5357   14.5145 H   0  0  0  0  0  0  0  0  0  0  0  0
   51.2019    9.4665   13.1297 H   0  0  0  0  0  0  0  0  0  0  0  0
   47.6873    8.4072   18.5192 H   0  0  0  0  0  0  0  0  0  0  0  0
   43.5549    6.9076   11.4189 H   0  0  0  0  0  0  0  0  0  0  0  0
   47.6306   10.8073   19.0954 H   0  0  0  0  0  0  0  0  0  0  0  0
   44.9258    2.2913   12.6228 H   0  0  0  0  0  0  0  0  0  0  0  0
   48.2477   13.5225   16.6568 H   0  0  0  0  0  0  0  0  0  0  0  0
   49.4031   13.1868   17.9710 H   0  0  0  0  0  0  0  0  0  0  0  0
   47.6486   13.1380   18.2696 H   0  0  0  0  0  0  0  0  0  0  0  0
   42.2165    4.9791   10.6692 H   0  0  0  0  0  0  0  0  0  0  0  0
   42.9025    2.6728   11.2701 H   0  0  0  0  0  0  0  0  0  0  0  0
  2  1  1  0
  3  2  1  0
  4  1  1  0
  5  1  2  0
  6  4  1  0
  7  9  2  0
  8  3  2  0
  9  6  1  0
 10 11  2  0
 11 12  1  0
 12  6  2  0
 13  8  1  0
 14  3  1  0
 15  2  1  0
 16 14  2  0
 17  7  1  0
 18 16  1  0
 19 10  1  0
 20 13  1  0
 21 17  2  0
 22 19  2  0
 10  7  1  0
 13 18  2  0
 22 21  1  0
  8 23  1  0
  9 24  1  0
 11 25  1  0
 12 26  1  0
 14 27  1  0
 15 28  1  0
 15 29  1  0
 15 30  1  0
 16 31  1  0
 17 32  1  0
 18 33  1  0
 19 34  1  0
 20 35  1  0
 20 36  1  0
 20 37  1  0
 21 38  1  0
 22 39  1  0
M  END
> <Uni-Dock RESULT> 
ENERGY=   -4.823  LOWER_BOUND=    5.818  UPPER_BOUND=    7.023
INTER + INTRA:          -4.823
INTER:                  -4.823
INTRA:                   0.000
UNBOUND:                 0.000

$$$$

     RDKit          3D

 39 41  0  0  0  0  0  0  0  0999 V2000
   46.6074    8.2534   12.2842 C   0  0  0  0  0  0  0  0  0  0  0  0
   46.6435    9.6566   12.4207 N   0  0  0  0  0  0  0  0  0  0  0  0
   45.6036   10.5146   11.9164 C   0  0  0  0  0  0  0  0  0  0  0  0
   45.5972    7.7895   11.4184 O   0  0  0  0  0  0  0  0  0  0  0  0
   47.6945    7.1638   12.9620 S   0  0  0  0  0  0  0  0  0  0  0  0
   45.2762    6.4370   11.1466 C   0  0  0  0  0  0  0  0  0  0  0  0
   45.3301    4.5747    9.6126 C   0  0  0  0  0  0  0  0  0  0  0  0
   45.9087   11.7809   11.3883 C   0  0  0  0  0  0  0  0  0  0  0  0
   45.6757    5.8963    9.9275 C   0  0  0  0  0  0  0  0  0  0  0  0
   44.5664    3.8166   10.5353 C   0  0  0  0  0  0  0  0  0  0  0  0
   44.1633    4.4023   11.7494 C   0  0  0  0  0  0  0  0  0  0  0  0
   44.5099    5.7176   12.0560 C   0  0  0  0  0  0  0  0  0  0  0  0
   44.9050   12.6374   10.9058 C   0  0  0  0  0  0  0  0  0  0  0  0
   44.2546   10.1415   11.9846 C   0  0  0  0  0  0  0  0  0  0  0  0
   47.8227   10.3209   12.9885 C   0  0  0  0  0  0  0  0  0  0  0  0
   43.2466   10.9921   11.5223 C   0  0  0  0  0  0  0  0  0  0  0  0
   45.7244    3.9872    8.4000 C   0  0  0  0  0  0  0  0  0  0  0  0
   43.5700   12.2359   10.9873 C   0  0  0  0  0  0  0  0  0  0  0  0
   44.2240    2.4933   10.2151 C   0  0  0  0  0  0  0  0  0  0  0  0
   45.2602   13.9893   10.3603 C   0  0  0  0  0  0  0  0  0  0  0  0
   45.3742    2.6701    8.0991 C   0  0  0  0  0  0  0  0  0  0  0  0
   44.6257    1.9244    9.0053 C   0  0  0  0  0  0  0  0  0  0  0  0
   46.9419   12.1094   11.3092 H   0  0  0  0  0  0  0  0  0  0  0  0
   46.2531    6.5031    9.2364 H   0  0  0  0  0  0  0  0  0  0  0  0
   43.5732    3.8334   12.4643 H   0  0  0  0  0  0  0  0  0  0  0  0
   44.1897    6.1664   12.9904 H   0  0  0  0  0  0  0  0  0  0  0  0
   43.9534    9.2010   12.4372 H   0  0  0  0  0  0  0  0  0  0  0  0
   48.5644   10.4597   12.1955 H   0  0  0  0  0  0  0  0  0  0  0  0
   47.5534   11.2856   13.4308 H   0  0  0  0  0  0  0  0  0  0  0  0
   48.2707    9.7284   13.7895 H   0  0  0  0  0  0  0  0  0  0  0  0
   42.2063   10.6842   11.5917 H   0  0  0  0  0  0  0  0  0  0  0  0
   46.3110    4.5532    7.6798 H   0  0  0  0  0  0  0  0  0  0  0  0
   42.7740   12.8893   10.6373 H   0  0  0  0  0  0  0  0  0  0  0  0
   43.6397    1.8935   10.9092 H   0  0  0  0  0  0  0  0  0  0  0  0
   46.2279   13.9609    9.8486 H   0  0  0  0  0  0  0  0  0  0  0  0
   45.3100   14.7193   11.1741 H   0  0  0  0  0  0  0  0  0  0  0  0
   44.5169   14.3251    9.6296 H   0  0  0  0  0  0  0  0  0  0  0  0
   45.6875    2.2271    7.1574 H   0  0  0  0  0  0  0  0  0  0  0  0
   44.3538    0.8983    8.7716 H   0  0  0  0  0  0  0  0  0  0  0  0
  2  1  1  0
  3  2  1  0
  4  1  1  0
  5  1  2  0
  6  4  1  0
  7  9  2  0
  8  3  2  0
  9  6  1  0
 10 11  2  0
 11 12  1  0
 12  6  2  0
 13  8  1  0
 14  3  1  0
 15  2  1  0
 16 14  2  0
 17  7  1  0
 18 16  1  0
 19 10  1  0
 20 13  1  0
 21 17  2  0
 22 19  2  0
 10  7  1  0
 13 18  2  0
 22 21  1  0
  8 23  1  0
  9 24  1  0
 11 25  1  0
 12 26  1  0
 14 27  1  0
 15 28  1  0
 15 29  1  0
 15 30  1  0
 16 31  1  0
 17 32  1  0
 18 33  1  0
 19 34  1  0
 20 35  1  0
 20 36  1  0
 20 37  1  0
 21 38  1  0
 22 39  1  0
M  END
> <Uni-Dock RESULT> 
ENERGY=   -4.631  LOWER_BOUND=    8.442  UPPER_BOUND=    9.703
INTER + INTRA:          -4.631
INTER:                  -4.631
INTRA:                   0.000
UNBOUND:                 0.000

$$$$

     RDKit          3D

 39 41  0  0  0  0  0  0  0  0999 V2000
   48.2257    7.2008   18.6979 C   0  0  0  0  0  0  0  0  0  0  0  0
   47.9054    8.5579   18.4866 N   0  0  0  0  0  0  0  0  0  0  0  0
   48.2658    9.2649   17.2858 C   0  0  0  0  0  0  0  0  0  0  0  0
   49.1203    6.6705   17.7473 O   0  0  0  0  0  0  0  0  0  0  0  0
   47.7253    6.2551   19.9954 S   0  0  0  0  0  0  0  0  0  0  0  0
   49.5611    5.3271   17.6629 C   0  0  0  0  0  0  0  0  0  0  0  0
   51.3294    3.7151   17.9777 C   0  0  0  0  0  0  0  0  0  0  0  0
   48.6286   10.6220   17.3313 C   0  0  0  0  0  0  0  0  0  0  0  0
   50.8505    5.0275   18.0939 C   0  0  0  0  0  0  0  0  0  0  0  0
   50.4969    2.7187   17.4090 C   0  0  0  0  0  0  0  0  0  0  0  0
   49.2063    3.0620   16.9661 C   0  0  0  0  0  0  0  0  0  0  0  0
   48.7366    4.3695   17.0840 C   0  0  0  0  0  0  0  0  0  0  0  0
   48.9686   11.3315   16.1673 C   0  0  0  0  0  0  0  0  0  0  0  0
   48.2145    8.6427   16.0312 C   0  0  0  0  0  0  0  0  0  0  0  0
   47.2836    9.3524   19.5527 C   0  0  0  0  0  0  0  0  0  0  0  0
   48.5351    9.3431   14.8650 C   0  0  0  0  0  0  0  0  0  0  0  0
   52.6185    3.3681   18.4123 C   0  0  0  0  0  0  0  0  0  0  0  0
   48.9083   10.6826   14.9322 C   0  0  0  0  0  0  0  0  0  0  0  0
   50.9811    1.4058   17.2960 C   0  0  0  0  0  0  0  0  0  0  0  0
   49.3385   12.7835   16.2458 C   0  0  0  0  0  0  0  0  0  0  0  0
   53.0826    2.0575   18.2914 C   0  0  0  0  0  0  0  0  0  0  0  0
   52.2653    1.0780   17.7346 C   0  0  0  0  0  0  0  0  0  0  0  0
   48.6888   11.1435   18.2831 H   0  0  0  0  0  0  0  0  0  0  0  0
   51.4691    5.8128   18.5180 H   0  0  0  0  0  0  0  0  0  0  0  0
   48.5589    2.3082   16.5238 H   0  0  0  0  0  0  0  0  0  0  0  0
   47.7434    4.6300   16.7338 H   0  0  0  0  0  0  0  0  0  0  0  0
   47.8834    7.6133   15.9271 H   0  0  0  0  0  0  0  0  0  0  0  0
   48.0692    9.7249   20.2178 H   0  0  0  0  0  0  0  0  0  0  0  0
   46.7108   10.1871   19.1355 H   0  0  0  0  0  0  0  0  0  0  0  0
   46.5794    8.7572   20.1386 H   0  0  0  0  0  0  0  0  0  0  0  0
   48.4817    8.8415   13.9020 H   0  0  0  0  0  0  0  0  0  0  0  0
   53.2714    4.1191   18.8515 H   0  0  0  0  0  0  0  0  0  0  0  0
   49.1489   11.2159   14.0154 H   0  0  0  0  0  0  0  0  0  0  0  0
   50.3586    0.6256   16.8639 H   0  0  0  0  0  0  0  0  0  0  0  0
   49.8731   12.9995   17.1767 H   0  0  0  0  0  0  0  0  0  0  0  0
   48.4366   13.4017   16.2024 H   0  0  0  0  0  0  0  0  0  0  0  0
   49.9998   13.0649   15.4196 H   0  0  0  0  0  0  0  0  0  0  0  0
   54.0822    1.8023   18.6335 H   0  0  0  0  0  0  0  0  0  0  0  0
   52.6261    0.0570   17.6414 H   0  0  0  0  0  0  0  0  0  0  0  0
  2  1  1  0
  3  2  1  0
  4  1  1  0
  5  1  2  0
  6  4  1  0
  7  9  2  0
  8  3  2  0
  9  6  1  0
 10 11  2  0
 11 12  1  0
 12  6  2  0
 13  8  1  0
 14  3  1  0
 15  2  1  0
 16 14  2  0
 17  7  1  0
 18 16  1  0
 19 10  1  0
 20 13  1  0
 21 17  2  0
 22 19  2  0
 10  7  1  0
 13 18  2  0
 22 21  1  0
  8 23  1  0
  9 24  1  0
 11 25  1  0
 12 26  1  0
 14 27  1  0
 15 28  1  0
 15 29  1  0
 15 30  1  0
 16 31  1  0
 17 32  1  0
 18 33  1  0
 19 34  1  0
 20 35  1  0
 20 36  1  0
 20 37  1  0
 21 38  1  0
 22 39  1  0
M  END
> <Uni-Dock RESULT> 
ENERGY=   -4.507  LOWER_BOUND=    2.693  UPPER_BOUND=    3.556
INTER + INTRA:          -4.507
INTER:                  -4.507
INTRA:                   0.000
UNBOUND:                 0.000

$$$$

     RDKit          3D

 39 41  0  0  0  0  0  0  0  0999 V2000
   49.2234    8.5270   14.8156 C   0  0  0  0  0  0  0  0  0  0  0  0
   48.9392    8.0617   13.5149 N   0  0  0  0  0  0  0  0  0  0  0  0
   47.6006    7.9830   12.9917 C   0  0  0  0  0  0  0  0  0  0  0  0
   48.0830    8.6835   15.6281 O   0  0  0  0  0  0  0  0  0  0  0  0
   50.7539    8.7907   15.4611 S   0  0  0  0  0  0  0  0  0  0  0  0
   48.0525    9.2003   16.9465 C   0  0  0  0  0  0  0  0  0  0  0  0
   47.8088    8.7956   19.3132 C   0  0  0  0  0  0  0  0  0  0  0  0
   47.2261    6.9397   12.1275 C   0  0  0  0  0  0  0  0  0  0  0  0
   47.8902    8.3070   18.0018 C   0  0  0  0  0  0  0  0  0  0  0  0
   47.8781   10.1931   19.5404 C   0  0  0  0  0  0  0  0  0  0  0  0
   48.0226   11.0678   18.4478 C   0  0  0  0  0  0  0  0  0  0  0  0
   48.1021   10.5750   17.1459 C   0  0  0  0  0  0  0  0  0  0  0  0
   45.9285    6.8558   11.5956 C   0  0  0  0  0  0  0  0  0  0  0  0
   46.6467    8.9680   13.2806 C   0  0  0  0  0  0  0  0  0  0  0  0
   50.0066    7.5166   12.6677 C   0  0  0  0  0  0  0  0  0  0  0  0
   45.3577    8.9033   12.7443 C   0  0  0  0  0  0  0  0  0  0  0  0
   47.6585    7.9279   20.4066 C   0  0  0  0  0  0  0  0  0  0  0  0
   45.0006    7.8530   11.9033 C   0  0  0  0  0  0  0  0  0  0  0  0
   47.7971   10.6769   20.8558 C   0  0  0  0  0  0  0  0  0  0  0  0
   45.5621    5.7377   10.6645 C   0  0  0  0  0  0  0  0  0  0  0  0
   47.5795    8.4277   21.7074 C   0  0  0  0  0  0  0  0  0  0  0  0
   47.6491    9.7996   21.9316 C   0  0  0  0  0  0  0  0  0  0  0  0
   47.9310    6.1497   11.8814 H   0  0  0  0  0  0  0  0  0  0  0  0
   47.8319    7.2421   17.7974 H   0  0  0  0  0  0  0  0  0  0  0  0
   48.0725   12.1425   18.6076 H   0  0  0  0  0  0  0  0  0  0  0  0
   48.2058   11.2548   16.3067 H   0  0  0  0  0  0  0  0  0  0  0  0
   46.8958    9.8297   13.8935 H   0  0  0  0  0  0  0  0  0  0  0  0
   50.1565    6.4632   12.9247 H   0  0  0  0  0  0  0  0  0  0  0  0
   49.7543    7.6174   11.6070 H   0  0  0  0  0  0  0  0  0  0  0  0
   50.9478    8.0518   12.8133 H   0  0  0  0  0  0  0  0  0  0  0  0
   44.6363    9.6826   12.9769 H   0  0  0  0  0  0  0  0  0  0  0  0
   47.6038    6.8527   20.2518 H   0  0  0  0  0  0  0  0  0  0  0  0
   43.9956    7.8197   11.4887 H   0  0  0  0  0  0  0  0  0  0  0  0
   47.8494   11.7453   21.0527 H   0  0  0  0  0  0  0  0  0  0  0  0
   46.0869    4.8160   10.9370 H   0  0  0  0  0  0  0  0  0  0  0  0
   45.8254    6.0059    9.6367 H   0  0  0  0  0  0  0  0  0  0  0  0
   44.4889    5.5251   10.7102 H   0  0  0  0  0  0  0  0  0  0  0  0
   47.4649    7.7445   22.5449 H   0  0  0  0  0  0  0  0  0  0  0  0
   47.5887   10.1889   22.9445 H   0  0  0  0  0  0  0  0  0  0  0  0
  2  1  1  0
  3  2  1  0
  4  1  1  0
  5  1  2  0
  6  4  1  0
  7  9  2  0
  8  3  2  0
  9  6  1  0
 10 11  2  0
 11 12  1  0
 12  6  2  0
 13  8  1  0
 14  3  1  0
 15  2  1  0
 16 14  2  0
 17  7  1  0
 18 16  1  0
 19 10  1  0
 20 13  1  0
 21 17  2  0
 22 19  2  0
 10  7  1  0
 13 18  2  0
 22 21  1  0
  8 23  1  0
  9 24  1  0
 11 25  1  0
 12 26  1  0
 14 27  1  0
 15 28  1  0
 15 29  1  0
 15 30  1  0
 16 31  1  0
 17 32  1  0
 18 33  1  0
 19 34  1  0
 20 35  1  0
 20 36  1  0
 20 37  1  0
 21 38  1  0
 22 39  1  0
M  END
> <Uni-Dock RESULT> 
ENERGY=   -4.429  LOWER_BOUND=    5.292  UPPER_BOUND=    8.249
INTER + INTRA:          -4.429
INTER:                  -4.429
INTRA:                   0.000
UNBOUND:                 0.000

$$$$

     RDKit          3D

 39 41  0  0  0  0  0  0  0  0999 V2000
   47.7803    4.3862   15.8163 C   0  0  0  0  0  0  0  0  0  0  0  0
   47.3205    4.7428   14.5316 N   0  0  0  0  0  0  0  0  0  0  0  0
   47.2647    6.1070   14.0759 C   0  0  0  0  0  0  0  0  0  0  0  0
   47.9557    5.4819   16.6847 O   0  0  0  0  0  0  0  0  0  0  0  0
   48.0177    2.8212   16.3846 S   0  0  0  0  0  0  0  0  0  0  0  0
   48.4723    5.4379   18.0027 C   0  0  0  0  0  0  0  0  0  0  0  0
   48.0706    5.5700   20.3788 C   0  0  0  0  0  0  0  0  0  0  0  0
   46.2284    6.5417   13.2318 C   0  0  0  0  0  0  0  0  0  0  0  0
   47.5813    5.5625   19.0651 C   0  0  0  0  0  0  0  0  0  0  0  0
   49.4666    5.4658   20.6017 C   0  0  0  0  0  0  0  0  0  0  0  0
   50.3392    5.3612   19.5030 C   0  0  0  0  0  0  0  0  0  0  0  0
   49.8458    5.3551   18.1989 C   0  0  0  0  0  0  0  0  0  0  0  0
   46.1667    7.8654   12.7652 C   0  0  0  0  0  0  0  0  0  0  0  0
   48.2656    7.0285   14.4116 C   0  0  0  0  0  0  0  0  0  0  0  0
   46.7578    3.7284   13.6324 C   0  0  0  0  0  0  0  0  0  0  0  0
   48.2230    8.3435   13.9402 C   0  0  0  0  0  0  0  0  0  0  0  0
   47.2050    5.6802   21.4786 C   0  0  0  0  0  0  0  0  0  0  0  0
   47.1793    8.7599   13.1185 C   0  0  0  0  0  0  0  0  0  0  0  0
   49.9510    5.4729   21.9193 C   0  0  0  0  0  0  0  0  0  0  0  0
   45.0554    8.2967   11.8539 C   0  0  0  0  0  0  0  0  0  0  0  0
   47.7053    5.6859   22.7815 C   0  0  0  0  0  0  0  0  0  0  0  0
   49.0758    5.5819   23.0015 C   0  0  0  0  0  0  0  0  0  0  0  0
   45.4267    5.8634   12.9510 H   0  0  0  0  0  0  0  0  0  0  0  0
   46.5176    5.6488   18.8642 H   0  0  0  0  0  0  0  0  0  0  0  0
   51.4128    5.2852   19.6597 H   0  0  0  0  0  0  0  0  0  0  0  0
   50.5241    5.2819   17.3554 H   0  0  0  0  0  0  0  0  0  0  0  0
   49.1226    6.7345   15.0110 H   0  0  0  0  0  0  0  0  0  0  0  0
   45.7019    3.5837   13.8819 H   0  0  0  0  0  0  0  0  0  0  0  0
   46.8635    4.0315   12.5856 H   0  0  0  0  0  0  0  0  0  0  0  0
   47.2769    2.7721   13.7307 H   0  0  0  0  0  0  0  0  0  0  0  0
   49.0143    9.0391   14.2083 H   0  0  0  0  0  0  0  0  0  0  0  0
   46.1309    5.7608   21.3271 H   0  0  0  0  0  0  0  0  0  0  0  0
   47.1632    9.7847   12.7545 H   0  0  0  0  0  0  0  0  0  0  0  0
   51.0182    5.3928   22.1130 H   0  0  0  0  0  0  0  0  0  0  0  0
   44.1249    7.7747   12.1003 H   0  0  0  0  0  0  0  0  0  0  0  0
   45.3196    8.0805   10.8142 H   0  0  0  0  0  0  0  0  0  0  0  0
   44.8610    9.3698   11.9532 H   0  0  0  0  0  0  0  0  0  0  0  0
   47.0237    5.7701   23.6239 H   0  0  0  0  0  0  0  0  0  0  0  0
   49.4655    5.5851   24.0161 H   0  0  0  0  0  0  0  0  0  0  0  0
  2  1  1  0
  3  2  1  0
  4  1  1  0
  5  1  2  0
  6  4  1  0
  7  9  2  0
  8  3  2  0
  9  6  1  0
 10 11  2  0
 11 12  1  0
 12  6  2  0
 13  8  1  0
 14  3  1  0
 15  2  1  0
 16 14  2  0
 17  7  1  0
 18 16  1  0
 19 10  1  0
 20 13  1  0
 21 17  2  0
 22 19  2  0
 10  7  1  0
 13 18  2  0
 22 21  1  0
  8 23  1  0
  9 24  1  0
 11 25  1  0
 12 26  1  0
 14 27  1  0
 15 28  1  0
 15 29  1  0
 15 30  1  0
 16 31  1  0
 17 32  1  0
 18 33  1  0
 19 34  1  0
 20 35  1  0
 20 36  1  0
 20 37  1  0
 21 38  1  0
 22 39  1  0
M  END
> <Uni-Dock RESULT> 
ENERGY=   -4.421  LOWER_BOUND=    4.401  UPPER_BOUND=    6.872
INTER + INTRA:          -4.421
INTER:                  -4.421
INTRA:                   0.000
UNBOUND:                 0.000

$$$$

     RDKit          3D

 39 41  0  0  0  0  0  0  0  0999 V2000
   49.0863    5.3515   18.6412 C   0  0  0  0  0  0  0  0  0  0  0  0
   48.4592    6.5657   18.2926 N   0  0  0  0  0  0  0  0  0  0  0  0
   48.6782    7.2201   17.0294 C   0  0  0  0  0  0  0  0  0  0  0  0
   50.1103    4.9626   17.7550 O   0  0  0  0  0  0  0  0  0  0  0  0
   48.7852    4.4421   20.0235 S   0  0  0  0  0  0  0  0  0  0  0  0
   50.8603    3.7622   17.8090 C   0  0  0  0  0  0  0  0  0  0  0  0
   52.9505    2.6588   18.2966 C   0  0  0  0  0  0  0  0  0  0  0  0
   48.7063    8.6226   16.9411 C   0  0  0  0  0  0  0  0  0  0  0  0
   52.1700    3.8231   18.2771 C   0  0  0  0  0  0  0  0  0  0  0  0
   52.3968    1.4421   17.8248 C   0  0  0  0  0  0  0  0  0  0  0  0
   51.0760    1.4221   17.3406 C   0  0  0  0  0  0  0  0  0  0  0  0
   50.3054    2.5841   17.3233 C   0  0  0  0  0  0  0  0  0  0  0  0
   48.9037    9.2780   15.7142 C   0  0  0  0  0  0  0  0  0  0  0  0
   48.8151    6.4866   15.8433 C   0  0  0  0  0  0  0  0  0  0  0  0
   47.6337    7.2863   19.2690 C   0  0  0  0  0  0  0  0  0  0  0  0
   48.9959    7.1284   14.6150 C   0  0  0  0  0  0  0  0  0  0  0  0
   54.2710    2.6741   18.7730 C   0  0  0  0  0  0  0  0  0  0  0  0
   49.0377    8.5184   14.5501 C   0  0  0  0  0  0  0  0  0  0  0  0
   53.1826    0.2790   17.8476 C   0  0  0  0  0  0  0  0  0  0  0  0
   48.9152   10.7770   15.6492 C   0  0  0  0  0  0  0  0  0  0  0  0
   55.0370    1.5075   18.7876 C   0  0  0  0  0  0  0  0  0  0  0  0
   54.4936    0.3120   18.3261 C   0  0  0  0  0  0  0  0  0  0  0  0
   48.6113    9.2320   17.8362 H   0  0  0  0  0  0  0  0  0  0  0  0
   52.5707    4.7706   18.6247 H   0  0  0  0  0  0  0  0  0  0  0  0
   50.6403    0.4964   16.9715 H   0  0  0  0  0  0  0  0  0  0  0  0
   49.2900    2.5642   16.9416 H   0  0  0  0  0  0  0  0  0  0  0  0
   48.7416    5.4028   15.8406 H   0  0  0  0  0  0  0  0  0  0  0  0
   48.2872    7.8981   19.8990 H   0  0  0  0  0  0  0  0  0  0  0  0
   46.8920    7.9154   18.7661 H   0  0  0  0  0  0  0  0  0  0  0  0
   47.0734    6.5985   19.9067 H   0  0  0  0  0  0  0  0  0  0  0  0
   49.0931    6.5389   13.7068 H   0  0  0  0  0  0  0  0  0  0  0  0
   54.7128    3.5981   19.1393 H   0  0  0  0  0  0  0  0  0  0  0  0
   49.1728    9.0036   13.5861 H   0  0  0  0  0  0  0  0  0  0  0  0
   52.7771   -0.6653   17.4916 H   0  0  0  0  0  0  0  0  0  0  0  0
   49.3540   11.2030   16.5576 H   0  0  0  0  0  0  0  0  0  0  0  0
   47.8939   11.1540   15.5376 H   0  0  0  0  0  0  0  0  0  0  0  0
   49.5158   11.1283   14.8037 H   0  0  0  0  0  0  0  0  0  0  0  0
   56.0575    1.5333   19.1607 H   0  0  0  0  0  0  0  0  0  0  0  0
   55.0896   -0.5968   18.3384 H   0  0  0  0  0  0  0  0  0  0  0  0
  2  1  1  0
  3  2  1  0
  4  1  1  0
  5  1  2  0
  6  4  1  0
  7  9  2  0
  8  3  2  0
  9  6  1  0
 10 11  2  0
 11 12  1  0
 12  6  2  0
 13  8  1  0
 14  3  1  0
 15  2  1  0
 16 14  2  0
 17  7  1  0
 18 16  1  0
 19 10  1  0
 20 13  1  0
 21 17  2  0
 22 19  2  0
 10  7  1  0
 13 18  2  0
 22 21  1  0
  8 23  1  0
  9 24  1  0
 11 25  1  0
 12 26  1  0
 14 27  1  0
 15 28  1  0
 15 29  1  0
 15 30  1  0
 16 31  1  0
 17 32  1  0
 18 33  1  0
 19 34  1  0
 20 35  1  0
 20 36  1  0
 20 37  1  0
 21 38  1  0
 22 39  1  0
M  END
> <Uni-Dock RESULT> 
ENERGY=   -4.413  LOWER_BOUND=    3.292  UPPER_BOUND=    4.835
INTER + INTRA:          -4.413
INTER:                  -4.413
INTRA:                   0.000
UNBOUND:                 0.000

$$$$

     RDKit          3D

 39 41  0  0  0  0  0  0  0  0999 V2000
   48.3033    6.5230   20.3112 C   0  0  0  0  0  0  0  0  0  0  0  0
   47.8769    7.8605   20.4469 N   0  0  0  0  0  0  0  0  0  0  0  0
   48.0464    8.8407   19.4067 C   0  0  0  0  0  0  0  0  0  0  0  0
   49.1083    6.2924   19.1780 O   0  0  0  0  0  0  0  0  0  0  0  0
   48.0214    5.2774   21.4054 S   0  0  0  0  0  0  0  0  0  0  0  0
   49.6177    5.0431   18.7467 C   0  0  0  0  0  0  0  0  0  0  0  0
   51.5069    3.5611   18.5041 C   0  0  0  0  0  0  0  0  0  0  0  0
   48.3278   10.1816   19.7206 C   0  0  0  0  0  0  0  0  0  0  0  0
   50.9655    4.7699   18.9631 C   0  0  0  0  0  0  0  0  0  0  0  0
   50.6751    2.6441   17.8136 C   0  0  0  0  0  0  0  0  0  0  0  0
   49.3220    2.9623   17.5956 C   0  0  0  0  0  0  0  0  0  0  0  0
   48.7903    4.1669   18.0543 C   0  0  0  0  0  0  0  0  0  0  0  0
   48.4813   11.1544   18.7187 C   0  0  0  0  0  0  0  0  0  0  0  0
   47.8834    8.5050   18.0560 C   0  0  0  0  0  0  0  0  0  0  0  0
   47.3399    8.3464   21.7235 C   0  0  0  0  0  0  0  0  0  0  0  0
   48.0180    9.4678   17.0520 C   0  0  0  0  0  0  0  0  0  0  0  0
   52.8577    3.2410   18.7134 C   0  0  0  0  0  0  0  0  0  0  0  0
   48.3134   10.7877   17.3818 C   0  0  0  0  0  0  0  0  0  0  0  0
   51.2222    1.4346   17.3569 C   0  0  0  0  0  0  0  0  0  0  0  0
   48.7678   12.5809   19.0853 C   0  0  0  0  0  0  0  0  0  0  0  0
   53.3838    2.0335   18.2516 C   0  0  0  0  0  0  0  0  0  0  0  0
   52.5675    1.1318   17.5750 C   0  0  0  0  0  0  0  0  0  0  0  0
   48.4696   10.4863   20.7543 H   0  0  0  0  0  0  0  0  0  0  0  0
   51.5810    5.4945   19.4880 H   0  0  0  0  0  0  0  0  0  0  0  0
   48.6739    2.2699   17.0633 H   0  0  0  0  0  0  0  0  0  0  0  0
   47.7480    4.4102   17.8766 H   0  0  0  0  0  0  0  0  0  0  0  0
   47.6062    7.4983   17.7562 H   0  0  0  0  0  0  0  0  0  0  0  0
   48.1751    8.6317   22.3709 H   0  0  0  0  0  0  0  0  0  0  0  0
   46.6708    9.1990   21.5675 H   0  0  0  0  0  0  0  0  0  0  0  0
   46.7491    7.5789   22.2289 H   0  0  0  0  0  0  0  0  0  0  0  0
   47.8804    9.1855   16.0112 H   0  0  0  0  0  0  0  0  0  0  0  0
   53.5111    3.9319   19.2414 H   0  0  0  0  0  0  0  0  0  0  0  0
   48.4089   11.5269   16.5897 H   0  0  0  0  0  0  0  0  0  0  0  0
   50.6016    0.7163   16.8260 H   0  0  0  0  0  0  0  0  0  0  0  0
   49.3960   12.6344   19.9807 H   0  0  0  0  0  0  0  0  0  0  0  0
   47.8309   13.1131   19.2763 H   0  0  0  0  0  0  0  0  0  0  0  0
   49.3066   13.0920   18.2805 H   0  0  0  0  0  0  0  0  0  0  0  0
   54.4310    1.7977   18.4221 H   0  0  0  0  0  0  0  0  0  0  0  0
   52.9767    0.1909   17.2163 H   0  0  0  0  0  0  0  0  0  0  0  0
  2  1  1  0
  3  2  1  0
  4  1  1  0
  5  1  2  0
  6  4  1  0
  7  9  2  0
  8  3  2  0
  9  6  1  0
 10 11  2  0
 11 12  1  0
 12  6  2  0
 13  8  1  0
 14  3  1  0
 15  2  1  0
 16 14  2  0
 17  7  1  0
 18 16  1  0
 19 10  1  0
 20 13  1  0
 21 17  2  0
 22 19  2  0
 10  7  1  0
 13 18  2  0
 22 21  1  0
  8 23  1  0
  9 24  1  0
 11 25  1  0
 12 26  1  0
 14 27  1  0
 15 28  1  0
 15 29  1  0
 15 30  1  0
 16 31  1  0
 17 32  1  0
 18 33  1  0
 19 34  1  0
 20 35  1  0
 20 36  1  0
 20 37  1  0
 21 38  1  0
 22 39  1  0
M  END
> <Uni-Dock RESULT> 
ENERGY=   -4.379  LOWER_BOUND=    1.626  UPPER_BOUND=    2.286
INTER + INTRA:          -4.379
INTER:                  -4.379
INTRA:                   0.000
UNBOUND:                 0.000

$$$$

     RDKit          3D

 39 41  0  0  0  0  0  0  0  0999 V2000
   48.8215    5.0582   18.4784 C   0  0  0  0  0  0  0  0  0  0  0  0
   49.7853    4.0480   18.2792 N   0  0  0  0  0  0  0  0  0  0  0  0
   51.1281    4.1420   18.7890 C   0  0  0  0  0  0  0  0  0  0  0  0
   49.3476    6.2528   19.0089 O   0  0  0  0  0  0  0  0  0  0  0  0
   47.1973    4.9763   18.0500 S   0  0  0  0  0  0  0  0  0  0  0  0
   48.6127    7.4054   19.3798 C   0  0  0  0  0  0  0  0  0  0  0  0
   47.9775    9.6849   18.9060 C   0  0  0  0  0  0  0  0  0  0  0  0
   52.2119    3.6208   18.0615 C   0  0  0  0  0  0  0  0  0  0  0  0
   48.6569    8.5147   18.5398 C   0  0  0  0  0  0  0  0  0  0  0  0
   47.2694    9.7231   20.1334 C   0  0  0  0  0  0  0  0  0  0  0  0
   47.2628    8.5895   20.9667 C   0  0  0  0  0  0  0  0  0  0  0  0
   47.9413    7.4289   20.5966 C   0  0  0  0  0  0  0  0  0  0  0  0
   53.5270    3.6902   18.5508 C   0  0  0  0  0  0  0  0  0  0  0  0
   51.3925    4.7038   20.0452 C   0  0  0  0  0  0  0  0  0  0  0  0
   49.4880    2.8910   17.4265 C   0  0  0  0  0  0  0  0  0  0  0  0
   52.6948    4.7638   20.5489 C   0  0  0  0  0  0  0  0  0  0  0  0
   47.9857   10.8211   18.0813 C   0  0  0  0  0  0  0  0  0  0  0  0
   53.7575    4.2570   19.8061 C   0  0  0  0  0  0  0  0  0  0  0  0
   46.5899   10.8973   20.4946 C   0  0  0  0  0  0  0  0  0  0  0  0
   54.6621    3.1126   17.7576 C   0  0  0  0  0  0  0  0  0  0  0  0
   47.3045   11.9797   18.4575 C   0  0  0  0  0  0  0  0  0  0  0  0
   46.6075   12.0176   19.6618 C   0  0  0  0  0  0  0  0  0  0  0  0
   52.0549    3.1822   17.0794 H   0  0  0  0  0  0  0  0  0  0  0  0
   49.2141    8.4596   17.6094 H   0  0  0  0  0  0  0  0  0  0  0  0
   46.7273    8.6067   21.9131 H   0  0  0  0  0  0  0  0  0  0  0  0
   47.9390    6.5604   21.2468 H   0  0  0  0  0  0  0  0  0  0  0  0
   50.5888    5.0682   20.6788 H   0  0  0  0  0  0  0  0  0  0  0  0
   49.6769    3.1646   16.3836 H   0  0  0  0  0  0  0  0  0  0  0  0
   50.0994    2.0282   17.7103 H   0  0  0  0  0  0  0  0  0  0  0  0
   48.4463    2.5767   17.5247 H   0  0  0  0  0  0  0  0  0  0  0  0
   52.8751    5.1980   21.5291 H   0  0  0  0  0  0  0  0  0  0  0  0
   48.5232   10.8104   17.1358 H   0  0  0  0  0  0  0  0  0  0  0  0
   54.7645    4.3053   20.2142 H   0  0  0  0  0  0  0  0  0  0  0  0
   46.0394   10.9478   21.4312 H   0  0  0  0  0  0  0  0  0  0  0  0
   54.4864    3.2308   16.6832 H   0  0  0  0  0  0  0  0  0  0  0  0
   54.7727    2.0478   17.9845 H   0  0  0  0  0  0  0  0  0  0  0  0
   55.6027    3.6229   17.9901 H   0  0  0  0  0  0  0  0  0  0  0  0
   47.3177   12.8516   17.8087 H   0  0  0  0  0  0  0  0  0  0  0  0
   46.0760   12.9194   19.9544 H   0  0  0  0  0  0  0  0  0  0  0  0
  2  1  1  0
  3  2  1  0
  4  1  1  0
  5  1  2  0
  6  4  1  0
  7  9  2  0
  8  3  2  0
  9  6  1  0
 10 11  2  0
 11 12  1  0
 12  6  2  0
 13  8  1  0
 14  3  1  0
 15  2  1  0
 16 14  2  0
 17  7  1  0
 18 16  1  0
 19 10  1  0
 20 13  1  0
 21 17  2  0
 22 19  2  0
 10  7  1  0
 13 18  2  0
 22 21  1  0
  8 23  1  0
  9 24  1  0
 11 25  1  0
 12 26  1  0
 14 27  1  0
 15 28  1  0
 15 29  1  0
 15 30  1  0
 16 31  1  0
 17 32  1  0
 18 33  1  0
 19 34  1  0
 20 35  1  0
 20 36  1  0
 20 37  1  0
 21 38  1  0
 22 39  1  0
M  END
> <Uni-Dock RESULT> 
ENERGY=   -4.156  LOWER_BOUND=    2.453  UPPER_BOUND=    7.471
INTER + INTRA:          -4.156
INTER:                  -4.156
INTRA:                   0.000
UNBOUND:                 0.000

$$$$
