
     RDKit          3D

 39 41  0  0  0  0  0  0  0  0999 V2000
   48.9398    8.1707   13.5691 C   0  0  0  0  0  0  0  0  0  0  0  0
   49.4996    9.2504   14.2832 N   0  0  0  0  0  0  0  0  0  0  0  0
   48.9897    9.6890   15.5558 C   0  0  0  0  0  0  0  0  0  0  0  0
   47.7094    7.7201   14.0871 O   0  0  0  0  0  0  0  0  0  0  0  0
   49.5513    7.4930   12.1566 S   0  0  0  0  0  0  0  0  0  0  0  0
   46.9630    6.6031   13.6380 C   0  0  0  0  0  0  0  0  0  0  0  0
   45.0254    5.7523   12.4780 C   0  0  0  0  0  0  0  0  0  0  0  0
   48.5254    8.7718   16.5114 C   0  0  0  0  0  0  0  0  0  0  0  0
   45.8098    6.8370   12.8941 C   0  0  0  0  0  0  0  0  0  0  0  0
   45.4126    4.4363   12.8351 C   0  0  0  0  0  0  0  0  0  0  0  0
   46.5737    4.2389   13.6047 C   0  0  0  0  0  0  0  0  0  0  0  0
   47.3489    5.3224   14.0160 C   0  0  0  0  0  0  0  0  0  0  0  0
   48.0373    9.1930   17.7594 C   0  0  0  0  0  0  0  0  0  0  0  0
   48.9919   11.0491   15.9001 C   0  0  0  0  0  0  0  0  0  0  0  0
   50.5684   10.0630   13.6905 C   0  0  0  0  0  0  0  0  0  0  0  0
   48.5223   11.4787   17.1445 C   0  0  0  0  0  0  0  0  0  0  0  0
   43.8624    5.9437   11.7152 C   0  0  0  0  0  0  0  0  0  0  0  0
   48.0486   10.5542   18.0713 C   0  0  0  0  0  0  0  0  0  0  0  0
   44.6238    3.3537   12.4147 C   0  0  0  0  0  0  0  0  0  0  0  0
   47.5734    8.1840   18.7683 C   0  0  0  0  0  0  0  0  0  0  0  0
   43.0908    4.8549   11.3066 C   0  0  0  0  0  0  0  0  0  0  0  0
   43.4710    3.5621   11.6554 C   0  0  0  0  0  0  0  0  0  0  0  0
   48.5703    7.7035   16.3149 H   0  0  0  0  0  0  0  0  0  0  0  0
   45.5331    7.8564   12.6422 H   0  0  0  0  0  0  0  0  0  0  0  0
   46.8796    3.2348   13.8895 H   0  0  0  0  0  0  0  0  0  0  0  0
   48.2389    5.1645   14.6160 H   0  0  0  0  0  0  0  0  0  0  0  0
   49.3277   11.8067   15.1977 H   0  0  0  0  0  0  0  0  0  0  0  0
   51.1818   10.5299   14.4682 H   0  0  0  0  0  0  0  0  0  0  0  0
   50.1157   10.8286   13.0525 H   0  0  0  0  0  0  0  0  0  0  0  0
   51.2461    9.4565   13.0853 H   0  0  0  0  0  0  0  0  0  0  0  0
   48.5237   12.5381   17.3880 H   0  0  0  0  0  0  0  0  0  0  0  0
   43.5498    6.9461   11.4314 H   0  0  0  0  0  0  0  0  0  0  0  0
   47.6911   10.9015   19.0381 H   0  0  0  0  0  0  0  0  0  0  0  0
   44.9033    2.3356   12.6765 H   0  0  0  0  0  0  0  0  0  0  0  0
   46.8234    8.6168   19.4388 H   0  0  0  0  0  0  0  0  0  0  0  0
   47.1086    7.3246   18.2738 H   0  0  0  0  0  0  0  0  0  0  0  0
   48.4214    7.8348   19.3653 H   0  0  0  0  0  0  0  0  0  0  0  0
   42.1937    5.0174   10.7151 H   0  0  0  0  0  0  0  0  0  0  0  0
   42.8709    2.7139   11.3365 H   0  0  0  0  0  0  0  0  0  0  0  0
  2  1  1  0
  3  2  1  0
  4  1  1  0
  5  1  2  0
  6  4  1  0
  7  9  2  0
  8  3  2  0
  9  6  1  0
 10 11  2  0
 11 12  1  0
 12  6  2  0
 13  8  1  0
 14  3  1  0
 15  2  1  0
 16 14  2  0
 17  7  1  0
 18 16  1  0
 19 10  1  0
 20 13  1  0
 21 17  2  0
 22 19  2  0
 10  7  1  0
 13 18  2  0
 22 21  1  0
  8 23  1  0
  9 24  1  0
 11 25  1  0
 12 26  1  0
 14 27  1  0
 15 28  1  0
 15 29  1  0
 15 30  1  0
 16 31  1  0
 17 32  1  0
 18 33  1  0
 19 34  1  0
 20 35  1  0
 20 36  1  0
 20 37  1  0
 21 38  1  0
 22 39  1  0
M  END
> <Uni-Dock RESULT> 
ENERGY=   -4.969  LOWER_BOUND=    0.000  UPPER_BOUND=    0.000
INTER + INTRA:          -4.969
INTER:                  -4.969
INTRA:                   0.000
UNBOUND:                 0.000

$$$$

     RDKit          3D

 39 41  0  0  0  0  0  0  0  0999 V2000
   48.9054    8.3359   13.3103 C   0  0  0  0  0  0  0  0  0  0  0  0
   49.4913    9.4365   13.9694 N   0  0  0  0  0  0  0  0  0  0  0  0
   49.0308    9.9131   15.2472 C   0  0  0  0  0  0  0  0  0  0  0  0
   47.6966    7.9010   13.8890 O   0  0  0  0  0  0  0  0  0  0  0  0
   49.4623    7.6162   11.8959 S   0  0  0  0  0  0  0  0  0  0  0  0
   46.9347    6.7711   13.5030 C   0  0  0  0  0  0  0  0  0  0  0  0
   44.9544    5.8859   12.4452 C   0  0  0  0  0  0  0  0  0  0  0  0
   48.6050    9.0250   16.2471 C   0  0  0  0  0  0  0  0  0  0  0  0
   45.7531    6.9826   12.7978 C   0  0  0  0  0  0  0  0  0  0  0  0
   45.3567    4.5812   12.8263 C   0  0  0  0  0  0  0  0  0  0  0  0
   46.5471    4.4070   13.5557 C   0  0  0  0  0  0  0  0  0  0  0  0
   47.3364    5.5023   13.9038 C   0  0  0  0  0  0  0  0  0  0  0  0
   48.1653    9.4834   17.5000 C   0  0  0  0  0  0  0  0  0  0  0  0
   49.0448   11.2830   15.5502 C   0  0  0  0  0  0  0  0  0  0  0  0
   50.5353   10.2310   13.3115 C   0  0  0  0  0  0  0  0  0  0  0  0
   48.6234   11.7497   16.7985 C   0  0  0  0  0  0  0  0  0  0  0  0
   43.7624    6.0543   11.7228 C   0  0  0  0  0  0  0  0  0  0  0  0
   48.1872   10.8534   17.7703 C   0  0  0  0  0  0  0  0  0  0  0  0
   44.5534    3.4864   12.4695 C   0  0  0  0  0  0  0  0  0  0  0  0
   47.7422    8.5051   18.5559 C   0  0  0  0  0  0  0  0  0  0  0  0
   42.9768    4.9537   11.3774 C   0  0  0  0  0  0  0  0  0  0  0  0
   43.3717    3.6720   11.7498 C   0  0  0  0  0  0  0  0  0  0  0  0
   48.6435    7.9512   16.0811 H   0  0  0  0  0  0  0  0  0  0  0  0
   45.4656    7.9939   12.5264 H   0  0  0  0  0  0  0  0  0  0  0  0
   46.8650    3.4118   13.8583 H   0  0  0  0  0  0  0  0  0  0  0  0
   48.2493    5.3624   14.4732 H   0  0  0  0  0  0  0  0  0  0  0  0
   49.3521   12.0191   14.8129 H   0  0  0  0  0  0  0  0  0  0  0  0
   51.1779   10.7210   14.0504 H   0  0  0  0  0  0  0  0  0  0  0  0
   50.0572   10.9771   12.6689 H   0  0  0  0  0  0  0  0  0  0  0  0
   51.1897    9.6066   12.6988 H   0  0  0  0  0  0  0  0  0  0  0  0
   48.6330   12.8159   17.0099 H   0  0  0  0  0  0  0  0  0  0  0  0
   43.4378    7.0478   11.4215 H   0  0  0  0  0  0  0  0  0  0  0  0
   47.8671   11.2295   18.7394 H   0  0  0  0  0  0  0  0  0  0  0  0
   44.8441    2.4767   12.7506 H   0  0  0  0  0  0  0  0  0  0  0  0
   47.0183    8.9578   19.2418 H   0  0  0  0  0  0  0  0  0  0  0  0
   47.2596    7.6312   18.1059 H   0  0  0  0  0  0  0  0  0  0  0  0
   48.6132    8.1739   19.1297 H   0  0  0  0  0  0  0  0  0  0  0  0
   42.0571    5.0984   10.8166 H   0  0  0  0  0  0  0  0  0  0  0  0
   42.7607    2.8146   11.4800 H   0  0  0  0  0  0  0  0  0  0  0  0
  2  1  1  0
  3  2  1  0
  4  1  1  0
  5  1  2  0
  6  4  1  0
  7  9  2  0
  8  3  2  0
  9  6  1  0
 10 11  2  0
 11 12  1  0
 12  6  2  0
 13  8  1  0
 14  3  1  0
 15  2  1  0
 16 14  2  0
 17  7  1  0
 18 16  1  0
 19 10  1  0
 20 13  1  0
 21 17  2  0
 22 19  2  0
 10  7  1  0
 13 18  2  0
 22 21  1  0
  8 23  1  0
  9 24  1  0
 11 25  1  0
 12 26  1  0
 14 27  1  0
 15 28  1  0
 15 29  1  0
 15 30  1  0
 16 31  1  0
 17 32  1  0
 18 33  1  0
 19 34  1  0
 20 35  1  0
 20 36  1  0
 20 37  1  0
 21 38  1  0
 22 39  1  0
M  END
> <Uni-Dock RESULT> 
ENERGY=   -4.917  LOWER_BOUND=    0.308  UPPER_BOUND=    0.308
INTER + INTRA:          -4.917
INTER:                  -4.917
INTRA:                   0.000
UNBOUND:                 0.000

$$$$

     RDKit          3D

 39 41  0  0  0  0  0  0  0  0999 V2000
   46.5455    8.3820   12.3205 C   0  0  0  0  0  0  0  0  0  0  0  0
   46.5984    9.7878   12.4189 N   0  0  0  0  0  0  0  0  0  0  0  0
   45.5887   10.6455   11.8560 C   0  0  0  0  0  0  0  0  0  0  0  0
   45.5610    7.9084   11.4307 O   0  0  0  0  0  0  0  0  0  0  0  0
   47.5905    7.2960   13.0669 S   0  0  0  0  0  0  0  0  0  0  0  0
   45.2161    6.5547   11.1965 C   0  0  0  0  0  0  0  0  0  0  0  0
   45.2644    4.6418    9.7260 C   0  0  0  0  0  0  0  0  0  0  0  0
   44.2310   10.2906   11.8843 C   0  0  0  0  0  0  0  0  0  0  0  0
   45.6326    5.9650   10.0062 C   0  0  0  0  0  0  0  0  0  0  0  0
   44.4613    3.9318   10.6537 C   0  0  0  0  0  0  0  0  0  0  0  0
   44.0423    4.5664   11.8374 C   0  0  0  0  0  0  0  0  0  0  0  0
   44.4114    5.8830   12.1094 C   0  0  0  0  0  0  0  0  0  0  0  0
   43.2401   11.1285   11.3468 C   0  0  0  0  0  0  0  0  0  0  0  0
   45.9289   11.8914   11.3078 C   0  0  0  0  0  0  0  0  0  0  0  0
   47.7689   10.4514   13.0052 C   0  0  0  0  0  0  0  0  0  0  0  0
   44.9499   12.7399   10.7832 C   0  0  0  0  0  0  0  0  0  0  0  0
   45.6744    4.0056    8.5436 C   0  0  0  0  0  0  0  0  0  0  0  0
   43.6105   12.3609   10.8043 C   0  0  0  0  0  0  0  0  0  0  0  0
   44.0965    2.6065   10.3684 C   0  0  0  0  0  0  0  0  0  0  0  0
   41.7951   10.7307   11.4176 C   0  0  0  0  0  0  0  0  0  0  0  0
   45.3015    2.6873    8.2772 C   0  0  0  0  0  0  0  0  0  0  0  0
   44.5142    1.9889    9.1882 C   0  0  0  0  0  0  0  0  0  0  0  0
   43.9144    9.3667   12.3619 H   0  0  0  0  0  0  0  0  0  0  0  0
   46.2402    6.5356    9.3103 H   0  0  0  0  0  0  0  0  0  0  0  0
   43.4221    4.0347   12.5554 H   0  0  0  0  0  0  0  0  0  0  0  0
   44.0787    6.3696   13.0202 H   0  0  0  0  0  0  0  0  0  0  0  0
   46.9639   12.2154   11.2468 H   0  0  0  0  0  0  0  0  0  0  0  0
   47.4993   11.4307   13.4143 H   0  0  0  0  0  0  0  0  0  0  0  0
   48.5357   10.5604   12.2316 H   0  0  0  0  0  0  0  0  0  0  0  0
   48.1851    9.8744   13.8342 H   0  0  0  0  0  0  0  0  0  0  0  0
   45.2356   13.6971   10.3543 H   0  0  0  0  0  0  0  0  0  0  0  0
   46.2912    4.5343    7.8202 H   0  0  0  0  0  0  0  0  0  0  0  0
   42.8582   13.0330   10.3976 H   0  0  0  0  0  0  0  0  0  0  0  0
   43.4819    2.0431   11.0669 H   0  0  0  0  0  0  0  0  0  0  0  0
   41.2236   11.1838   10.6006 H   0  0  0  0  0  0  0  0  0  0  0  0
   41.6854    9.6450   11.3267 H   0  0  0  0  0  0  0  0  0  0  0  0
   41.3647   11.0528   12.3708 H   0  0  0  0  0  0  0  0  0  0  0  0
   45.6273    2.2065    7.3586 H   0  0  0  0  0  0  0  0  0  0  0  0
   44.2246    0.9619    8.9816 H   0  0  0  0  0  0  0  0  0  0  0  0
  2  1  1  0
  3  2  1  0
  4  1  1  0
  5  1  2  0
  6  4  1  0
  7  9  2  0
  8  3  2  0
  9  6  1  0
 10 11  2  0
 11 12  1  0
 12  6  2  0
 13  8  1  0
 14  3  1  0
 15  2  1  0
 16 14  2  0
 17  7  1  0
 18 16  1  0
 19 10  1  0
 20 13  1  0
 21 17  2  0
 22 19  2  0
 10  7  1  0
 13 18  2  0
 22 21  1  0
  8 23  1  0
  9 24  1  0
 11 25  1  0
 12 26  1  0
 14 27  1  0
 15 28  1  0
 15 29  1  0
 15 30  1  0
 16 31  1  0
 17 32  1  0
 18 33  1  0
 19 34  1  0
 20 35  1  0
 20 36  1  0
 20 37  1  0
 21 38  1  0
 22 39  1  0
M  END
> <Uni-Dock RESULT> 
ENERGY=   -4.793  LOWER_BOUND=    3.660  UPPER_BOUND=    4.963
INTER + INTRA:          -4.793
INTER:                  -4.793
INTRA:                   0.000
UNBOUND:                 0.000

$$$$

     RDKit          3D

 39 41  0  0  0  0  0  0  0  0999 V2000
   48.2219    7.2357   18.7600 C   0  0  0  0  0  0  0  0  0  0  0  0
   47.9014    8.5930   18.5501 N   0  0  0  0  0  0  0  0  0  0  0  0
   48.2577    9.2994   17.3476 C   0  0  0  0  0  0  0  0  0  0  0  0
   49.1163    6.7064   17.8085 O   0  0  0  0  0  0  0  0  0  0  0  0
   47.7239    6.2887   20.0575 S   0  0  0  0  0  0  0  0  0  0  0  0
   49.5447    5.3599   17.7107 C   0  0  0  0  0  0  0  0  0  0  0  0
   51.3046    3.7328   17.9928 C   0  0  0  0  0  0  0  0  0  0  0  0
   48.2063    8.6747   16.0918 C   0  0  0  0  0  0  0  0  0  0  0  0
   50.8372    5.0480   18.1234 C   0  0  0  0  0  0  0  0  0  0  0  0
   50.4575    2.7462   17.4286 C   0  0  0  0  0  0  0  0  0  0  0  0
   49.1641    3.1020   17.0041 C   0  0  0  0  0  0  0  0  0  0  0  0
   48.7058    4.4121   17.1362 C   0  0  0  0  0  0  0  0  0  0  0  0
   48.5418    9.3621   14.9137 C   0  0  0  0  0  0  0  0  0  0  0  0
   48.6171   10.6549   17.3908 C   0  0  0  0  0  0  0  0  0  0  0  0
   47.2865    9.3886   19.6192 C   0  0  0  0  0  0  0  0  0  0  0  0
   48.9389   11.3532   16.2235 C   0  0  0  0  0  0  0  0  0  0  0  0
   52.5964    3.3735   18.4089 C   0  0  0  0  0  0  0  0  0  0  0  0
   48.8996   10.7099   14.9895 C   0  0  0  0  0  0  0  0  0  0  0  0
   50.9305    1.4306   17.3012 C   0  0  0  0  0  0  0  0  0  0  0  0
   48.4502    8.6718   13.5846 C   0  0  0  0  0  0  0  0  0  0  0  0
   53.0492    2.0602   18.2740 C   0  0  0  0  0  0  0  0  0  0  0  0
   52.2175    1.0903   17.7214 C   0  0  0  0  0  0  0  0  0  0  0  0
   47.8659    7.6460   16.0033 H   0  0  0  0  0  0  0  0  0  0  0  0
   51.4669    5.8260   18.5445 H   0  0  0  0  0  0  0  0  0  0  0  0
   48.5056    2.3559   16.5653 H   0  0  0  0  0  0  0  0  0  0  0  0
   47.7104    4.6822   16.7999 H   0  0  0  0  0  0  0  0  0  0  0  0
   48.6865   11.1887   18.3343 H   0  0  0  0  0  0  0  0  0  0  0  0
   46.7096   10.2218   19.2044 H   0  0  0  0  0  0  0  0  0  0  0  0
   48.0766    9.7635   20.2776 H   0  0  0  0  0  0  0  0  0  0  0  0
   46.5877    8.7938   20.2119 H   0  0  0  0  0  0  0  0  0  0  0  0
   49.2241   12.4006   16.2797 H   0  0  0  0  0  0  0  0  0  0  0  0
   53.2604    4.1168   18.8444 H   0  0  0  0  0  0  0  0  0  0  0  0
   49.1471   11.2664   14.0884 H   0  0  0  0  0  0  0  0  0  0  0  0
   50.2966    0.6577   16.8722 H   0  0  0  0  0  0  0  0  0  0  0  0
   49.1481    9.1131   12.8651 H   0  0  0  0  0  0  0  0  0  0  0  0
   48.7083    7.6117   13.6781 H   0  0  0  0  0  0  0  0  0  0  0  0
   47.4338    8.7565   13.1883 H   0  0  0  0  0  0  0  0  0  0  0  0
   54.0510    1.7955   18.6017 H   0  0  0  0  0  0  0  0  0  0  0  0
   52.5694    0.0674   17.6173 H   0  0  0  0  0  0  0  0  0  0  0  0
  2  1  1  0
  3  2  1  0
  4  1  1  0
  5  1  2  0
  6  4  1  0
  7  9  2  0
  8  3  2  0
  9  6  1  0
 10 11  2  0
 11 12  1  0
 12  6  2  0
 13  8  1  0
 14  3  1  0
 15  2  1  0
 16 14  2  0
 17  7  1  0
 18 16  1  0
 19 10  1  0
 20 13  1  0
 21 17  2  0
 22 19  2  0
 10  7  1  0
 13 18  2  0
 22 21  1  0
  8 23  1  0
  9 24  1  0
 11 25  1  0
 12 26  1  0
 14 27  1  0
 15 28  1  0
 15 29  1  0
 15 30  1  0
 16 31  1  0
 17 32  1  0
 18 33  1  0
 19 34  1  0
 20 35  1  0
 20 36  1  0
 20 37  1  0
 21 38  1  0
 22 39  1  0
M  END
> <Uni-Dock RESULT> 
ENERGY=   -4.560  LOWER_BOUND=    4.481  UPPER_BOUND=    6.537
INTER + INTRA:          -4.560
INTER:                  -4.560
INTRA:                   0.000
UNBOUND:                 0.000

$$$$

     RDKit          3D

 39 41  0  0  0  0  0  0  0  0999 V2000
   48.3527    6.6340   20.0956 C   0  0  0  0  0  0  0  0  0  0  0  0
   47.9410    7.9802   20.1808 N   0  0  0  0  0  0  0  0  0  0  0  0
   48.1557    8.9279   19.1189 C   0  0  0  0  0  0  0  0  0  0  0  0
   49.1922    6.3620   18.9972 O   0  0  0  0  0  0  0  0  0  0  0  0
   48.0182    5.4224   21.2130 S   0  0  0  0  0  0  0  0  0  0  0  0
   49.6850    5.0931   18.6055 C   0  0  0  0  0  0  0  0  0  0  0  0
   51.5498    3.5707   18.4352 C   0  0  0  0  0  0  0  0  0  0  0  0
   48.0341    8.5542   17.7715 C   0  0  0  0  0  0  0  0  0  0  0  0
   51.0228    4.7998   18.8555 C   0  0  0  0  0  0  0  0  0  0  0  0
   50.7144    2.6536   17.7494 C   0  0  0  0  0  0  0  0  0  0  0  0
   49.3724    2.9919   17.4967 C   0  0  0  0  0  0  0  0  0  0  0  0
   48.8548    4.2165   17.9167 C   0  0  0  0  0  0  0  0  0  0  0  0
   48.2312    9.4771   16.7311 C   0  0  0  0  0  0  0  0  0  0  0  0
   48.4418   10.2718   19.4028 C   0  0  0  0  0  0  0  0  0  0  0  0
   47.3746    8.5099   21.4268 C   0  0  0  0  0  0  0  0  0  0  0  0
   48.6255   11.2023   18.3761 C   0  0  0  0  0  0  0  0  0  0  0  0
   52.8898    3.2304   18.6791 C   0  0  0  0  0  0  0  0  0  0  0  0
   48.5188   10.8071   17.0455 C   0  0  0  0  0  0  0  0  0  0  0  0
   51.2473    1.4237   17.3318 C   0  0  0  0  0  0  0  0  0  0  0  0
   48.0671    9.0505   15.3021 C   0  0  0  0  0  0  0  0  0  0  0  0
   53.4018    2.0029   18.2560 C   0  0  0  0  0  0  0  0  0  0  0  0
   52.5819    1.1010   17.5838 C   0  0  0  0  0  0  0  0  0  0  0  0
   47.7451    7.5402   17.5064 H   0  0  0  0  0  0  0  0  0  0  0  0
   51.6414    5.5249   19.3757 H   0  0  0  0  0  0  0  0  0  0  0  0
   48.7218    2.2994   16.9674 H   0  0  0  0  0  0  0  0  0  0  0  0
   47.8213    4.4751   17.7120 H   0  0  0  0  0  0  0  0  0  0  0  0
   48.5601   10.6178   20.4256 H   0  0  0  0  0  0  0  0  0  0  0  0
   46.7197    9.3643   21.2266 H   0  0  0  0  0  0  0  0  0  0  0  0
   48.1950    8.8062   22.0881 H   0  0  0  0  0  0  0  0  0  0  0  0
   46.7618    7.7644   21.9389 H   0  0  0  0  0  0  0  0  0  0  0  0
   48.8559   12.2370   18.6173 H   0  0  0  0  0  0  0  0  0  0  0  0
   53.5457    3.9212   19.2042 H   0  0  0  0  0  0  0  0  0  0  0  0
   48.6588   11.5425   16.2565 H   0  0  0  0  0  0  0  0  0  0  0  0
   50.6236    0.7049   16.8051 H   0  0  0  0  0  0  0  0  0  0  0  0
   48.6768    9.6700   14.6358 H   0  0  0  0  0  0  0  0  0  0  0  0
   48.3905    8.0131   15.1661 H   0  0  0  0  0  0  0  0  0  0  0  0
   47.0179    9.1377   15.0037 H   0  0  0  0  0  0  0  0  0  0  0  0
   54.4407    1.7516   18.4529 H   0  0  0  0  0  0  0  0  0  0  0  0
   52.9800    0.1446   17.2552 H   0  0  0  0  0  0  0  0  0  0  0  0
  2  1  1  0
  3  2  1  0
  4  1  1  0
  5  1  2  0
  6  4  1  0
  7  9  2  0
  8  3  2  0
  9  6  1  0
 10 11  2  0
 11 12  1  0
 12  6  2  0
 13  8  1  0
 14  3  1  0
 15  2  1  0
 16 14  2  0
 17  7  1  0
 18 16  1  0
 19 10  1  0
 20 13  1  0
 21 17  2  0
 22 19  2  0
 10  7  1  0
 13 18  2  0
 22 21  1  0
  8 23  1  0
  9 24  1  0
 11 25  1  0
 12 26  1  0
 14 27  1  0
 15 28  1  0
 15 29  1  0
 15 30  1  0
 16 31  1  0
 17 32  1  0
 18 33  1  0
 19 34  1  0
 20 35  1  0
 20 36  1  0
 20 37  1  0
 21 38  1  0
 22 39  1  0
M  END
> <Uni-Dock RESULT> 
ENERGY=   -4.534  LOWER_BOUND=    4.949  UPPER_BOUND=    7.066
INTER + INTRA:          -4.534
INTER:                  -4.534
INTRA:                   0.000
UNBOUND:                 0.000

$$$$

     RDKit          3D

 39 41  0  0  0  0  0  0  0  0999 V2000
   47.5987    6.9826   22.0948 C   0  0  0  0  0  0  0  0  0  0  0  0
   47.5809    8.2187   22.7737 N   0  0  0  0  0  0  0  0  0  0  0  0
   47.8831    9.4672   22.1243 C   0  0  0  0  0  0  0  0  0  0  0  0
   48.1627    7.0475   20.8052 O   0  0  0  0  0  0  0  0  0  0  0  0
   47.1198    5.4986   22.7247 S   0  0  0  0  0  0  0  0  0  0  0  0
   48.2332    5.9940   19.8610 C   0  0  0  0  0  0  0  0  0  0  0  0
   49.5742    4.3680   18.6856 C   0  0  0  0  0  0  0  0  0  0  0  0
   47.4681    9.7246   20.8084 C   0  0  0  0  0  0  0  0  0  0  0  0
   49.4647    5.3805   19.6489 C   0  0  0  0  0  0  0  0  0  0  0  0
   48.4316    3.9968   17.9334 C   0  0  0  0  0  0  0  0  0  0  0  0
   47.2076    4.6524   18.1609 C   0  0  0  0  0  0  0  0  0  0  0  0
   47.1058    5.6591   19.1201 C   0  0  0  0  0  0  0  0  0  0  0  0
   47.7501   10.9454   20.1734 C   0  0  0  0  0  0  0  0  0  0  0  0
   48.5582   10.4883   22.8100 C   0  0  0  0  0  0  0  0  0  0  0  0
   47.3679    8.2700   24.2250 C   0  0  0  0  0  0  0  0  0  0  0  0
   48.8315   11.7125   22.1933 C   0  0  0  0  0  0  0  0  0  0  0  0
   50.7944    3.7148   18.4500 C   0  0  0  0  0  0  0  0  0  0  0  0
   48.4274   11.9410   20.8808 C   0  0  0  0  0  0  0  0  0  0  0  0
   48.5469    2.9815   16.9708 C   0  0  0  0  0  0  0  0  0  0  0  0
   47.2684   11.1980   18.7751 C   0  0  0  0  0  0  0  0  0  0  0  0
   50.8896    2.7077   17.4884 C   0  0  0  0  0  0  0  0  0  0  0  0
   49.7678    2.3414   16.7503 C   0  0  0  0  0  0  0  0  0  0  0  0
   46.8815    8.9892   20.2635 H   0  0  0  0  0  0  0  0  0  0  0  0
   50.3251    5.6910   20.2342 H   0  0  0  0  0  0  0  0  0  0  0  0
   46.3243    4.3806   17.5876 H   0  0  0  0  0  0  0  0  0  0  0  0
   46.1612    6.1665   19.2855 H   0  0  0  0  0  0  0  0  0  0  0  0
   48.9147   10.3434   23.8257 H   0  0  0  0  0  0  0  0  0  0  0  0
   46.9444    9.2344   24.5243 H   0  0  0  0  0  0  0  0  0  0  0  0
   48.3259    8.1029   24.7273 H   0  0  0  0  0  0  0  0  0  0  0  0
   46.6599    7.5061   24.5547 H   0  0  0  0  0  0  0  0  0  0  0  0
   49.3643   12.4872   22.7389 H   0  0  0  0  0  0  0  0  0  0  0  0
   51.6818    3.9858   19.0177 H   0  0  0  0  0  0  0  0  0  0  0  0
   48.6417   12.9000   20.4147 H   0  0  0  0  0  0  0  0  0  0  0  0
   47.6824    2.6802   16.3834 H   0  0  0  0  0  0  0  0  0  0  0  0
   47.9168   11.9154   18.2610 H   0  0  0  0  0  0  0  0  0  0  0  0
   47.2775   10.2740   18.1874 H   0  0  0  0  0  0  0  0  0  0  0  0
   46.2491   11.5954   18.7966 H   0  0  0  0  0  0  0  0  0  0  0  0
   51.8401    2.2092   17.3174 H   0  0  0  0  0  0  0  0  0  0  0  0
   49.8414    1.5565   16.0022 H   0  0  0  0  0  0  0  0  0  0  0  0
  2  1  1  0
  3  2  1  0
  4  1  1  0
  5  1  2  0
  6  4  1  0
  7  9  2  0
  8  3  2  0
  9  6  1  0
 10 11  2  0
 11 12  1  0
 12  6  2  0
 13  8  1  0
 14  3  1  0
 15  2  1  0
 16 14  2  0
 17  7  1  0
 18 16  1  0
 19 10  1  0
 20 13  1  0
 21 17  2  0
 22 19  2  0
 10  7  1  0
 13 18  2  0
 22 21  1  0
  8 23  1  0
  9 24  1  0
 11 25  1  0
 12 26  1  0
 14 27  1  0
 15 28  1  0
 15 29  1  0
 15 30  1  0
 16 31  1  0
 17 32  1  0
 18 33  1  0
 19 34  1  0
 20 35  1  0
 20 36  1  0
 20 37  1  0
 21 38  1  0
 22 39  1  0
M  END
> <Uni-Dock RESULT> 
ENERGY=   -4.526  LOWER_BOUND=    5.814  UPPER_BOUND=    7.270
INTER + INTRA:          -4.526
INTER:                  -4.526
INTRA:                   0.000
UNBOUND:                 0.000

$$$$

     RDKit          3D

 39 41  0  0  0  0  0  0  0  0999 V2000
   52.8638    7.7965   12.1058 C   0  0  0  0  0  0  0  0  0  0  0  0
   53.9842    7.1421   11.5531 N   0  0  0  0  0  0  0  0  0  0  0  0
   54.0142    6.6634   10.1959 C   0  0  0  0  0  0  0  0  0  0  0  0
   51.7085    7.7279   11.3021 O   0  0  0  0  0  0  0  0  0  0  0  0
   52.7860    8.5185   13.6227 S   0  0  0  0  0  0  0  0  0  0  0  0
   50.4677    8.3636   11.5522 C   0  0  0  0  0  0  0  0  0  0  0  0
   48.1512    8.1754   12.2022 C   0  0  0  0  0  0  0  0  0  0  0  0
   53.4160    7.3878    9.1531 C   0  0  0  0  0  0  0  0  0  0  0  0
   49.4037    7.5816   11.9932 C   0  0  0  0  0  0  0  0  0  0  0  0
   47.9862    9.5598   11.9462 C   0  0  0  0  0  0  0  0  0  0  0  0
   49.0788   10.3151   11.4822 C   0  0  0  0  0  0  0  0  0  0  0  0
   50.3217    9.7180   11.2757 C   0  0  0  0  0  0  0  0  0  0  0  0
   53.4519    6.9315    7.8252 C   0  0  0  0  0  0  0  0  0  0  0  0
   54.6918    5.4798    9.8668 C   0  0  0  0  0  0  0  0  0  0  0  0
   55.1422    6.8086   12.3910 C   0  0  0  0  0  0  0  0  0  0  0  0
   54.7466    5.0235    8.5468 C   0  0  0  0  0  0  0  0  0  0  0  0
   47.0558    7.4254   12.6590 C   0  0  0  0  0  0  0  0  0  0  0  0
   54.1308    5.7474    7.5296 C   0  0  0  0  0  0  0  0  0  0  0  0
   46.7299   10.1494   12.1582 C   0  0  0  0  0  0  0  0  0  0  0  0
   52.8253    7.7440    6.7305 C   0  0  0  0  0  0  0  0  0  0  0  0
   45.8143    8.0292   12.8638 C   0  0  0  0  0  0  0  0  0  0  0  0
   45.6516    9.3889   12.6142 C   0  0  0  0  0  0  0  0  0  0  0  0
   52.9406    8.3453    9.3513 H   0  0  0  0  0  0  0  0  0  0  0  0
   49.5571    6.5218   12.1733 H   0  0  0  0  0  0  0  0  0  0  0  0
   48.9647   11.3771   11.2775 H   0  0  0  0  0  0  0  0  0  0  0  0
   51.1584   10.3039   10.9103 H   0  0  0  0  0  0  0  0  0  0  0  0
   55.1634    4.8702   10.6322 H   0  0  0  0  0  0  0  0  0  0  0  0
   56.0530    6.7340   11.7877 H   0  0  0  0  0  0  0  0  0  0  0  0
   54.9454    5.8607   12.9017 H   0  0  0  0  0  0  0  0  0  0  0  0
   55.3310    7.5799   13.1413 H   0  0  0  0  0  0  0  0  0  0  0  0
   55.2687    4.0988    8.3143 H   0  0  0  0  0  0  0  0  0  0  0  0
   47.1635    6.3621   12.8612 H   0  0  0  0  0  0  0  0  0  0  0  0
   54.1856    5.3839    6.5059 H   0  0  0  0  0  0  0  0  0  0  0  0
   46.5816   11.2103   11.9693 H   0  0  0  0  0  0  0  0  0  0  0  0
   52.5112    7.1046    5.8987 H   0  0  0  0  0  0  0  0  0  0  0  0
   51.9330    8.2644    7.0940 H   0  0  0  0  0  0  0  0  0  0  0  0
   53.5404    8.4834    6.3571 H   0  0  0  0  0  0  0  0  0  0  0  0
   44.9752    7.4370   13.2193 H   0  0  0  0  0  0  0  0  0  0  0  0
   44.6853    9.8595   12.7745 H   0  0  0  0  0  0  0  0  0  0  0  0
  2  1  1  0
  3  2  1  0
  4  1  1  0
  5  1  2  0
  6  4  1  0
  7  9  2  0
  8  3  2  0
  9  6  1  0
 10 11  2  0
 11 12  1  0
 12  6  2  0
 13  8  1  0
 14  3  1  0
 15  2  1  0
 16 14  2  0
 17  7  1  0
 18 16  1  0
 19 10  1  0
 20 13  1  0
 21 17  2  0
 22 19  2  0
 10  7  1  0
 13 18  2  0
 22 21  1  0
  8 23  1  0
  9 24  1  0
 11 25  1  0
 12 26  1  0
 14 27  1  0
 15 28  1  0
 15 29  1  0
 15 30  1  0
 16 31  1  0
 17 32  1  0
 18 33  1  0
 19 34  1  0
 20 35  1  0
 20 36  1  0
 20 37  1  0
 21 38  1  0
 22 39  1  0
M  END
> <Uni-Dock RESULT> 
ENERGY=   -4.462  LOWER_BOUND=    4.956  UPPER_BOUND=    7.642
INTER + INTRA:          -4.462
INTER:                  -4.462
INTRA:                   0.000
UNBOUND:                 0.000

$$$$

     RDKit          3D

 39 41  0  0  0  0  0  0  0  0999 V2000
   49.2263   10.6257   14.4827 C   0  0  0  0  0  0  0  0  0  0  0  0
   49.4505   11.7467   15.3086 N   0  0  0  0  0  0  0  0  0  0  0  0
   48.7137   11.9777   16.5233 C   0  0  0  0  0  0  0  0  0  0  0  0
   48.0725    9.8902   14.8191 O   0  0  0  0  0  0  0  0  0  0  0  0
   50.1299   10.1929   13.1319 S   0  0  0  0  0  0  0  0  0  0  0  0
   47.6450    8.6749   14.2304 C   0  0  0  0  0  0  0  0  0  0  0  0
   46.0871    7.5170   12.7964 C   0  0  0  0  0  0  0  0  0  0  0  0
   48.3536   10.9186   17.3711 C   0  0  0  0  0  0  0  0  0  0  0  0
   46.5624    8.7112   13.3560 C   0  0  0  0  0  0  0  0  0  0  0  0
   46.7084    6.2908   13.1428 C   0  0  0  0  0  0  0  0  0  0  0  0
   47.7877    6.2900   14.0453 C   0  0  0  0  0  0  0  0  0  0  0  0
   48.2549    7.4814   14.5988 C   0  0  0  0  0  0  0  0  0  0  0  0
   47.6445   11.1389   18.5635 C   0  0  0  0  0  0  0  0  0  0  0  0
   48.3791   13.2801   16.9236 C   0  0  0  0  0  0  0  0  0  0  0  0
   50.3773   12.8062   14.8932 C   0  0  0  0  0  0  0  0  0  0  0  0
   47.6865   13.5127   18.1152 C   0  0  0  0  0  0  0  0  0  0  0  0
   45.0065    7.5111   11.9002 C   0  0  0  0  0  0  0  0  0  0  0  0
   47.3223   12.4466   18.9329 C   0  0  0  0  0  0  0  0  0  0  0  0
   46.2290    5.0981   12.5785 C   0  0  0  0  0  0  0  0  0  0  0  0
   47.2987    9.9867   19.4602 C   0  0  0  0  0  0  0  0  0  0  0  0
   44.5437    6.3151   11.3495 C   0  0  0  0  0  0  0  0  0  0  0  0
   45.1541    5.1107   11.6878 C   0  0  0  0  0  0  0  0  0  0  0  0
   48.6531    9.9003   17.1359 H   0  0  0  0  0  0  0  0  0  0  0  0
   46.1008    9.6641   13.1151 H   0  0  0  0  0  0  0  0  0  0  0  0
   48.2705    5.3559   14.3231 H   0  0  0  0  0  0  0  0  0  0  0  0
   49.0825    7.4736   15.3002 H   0  0  0  0  0  0  0  0  0  0  0  0
   48.6202   14.1386   16.3034 H   0  0  0  0  0  0  0  0  0  0  0  0
   50.7799   13.3367   15.7624 H   0  0  0  0  0  0  0  0  0  0  0  0
   49.8451   13.5015   14.2362 H   0  0  0  0  0  0  0  0  0  0  0  0
   51.2363   12.4004   14.3539 H   0  0  0  0  0  0  0  0  0  0  0  0
   47.4284   14.5289   18.4025 H   0  0  0  0  0  0  0  0  0  0  0  0
   44.5175    8.4422   11.6224 H   0  0  0  0  0  0  0  0  0  0  0  0
   46.7883   12.6420   19.8601 H   0  0  0  0  0  0  0  0  0  0  0  0
   46.6918    4.1463   12.8295 H   0  0  0  0  0  0  0  0  0  0  0  0
   46.4001   10.2033   20.0474 H   0  0  0  0  0  0  0  0  0  0  0  0
   47.0931    9.0851   18.8736 H   0  0  0  0  0  0  0  0  0  0  0  0
   48.1277    9.7837   20.1450 H   0  0  0  0  0  0  0  0  0  0  0  0
   43.7073    6.3252   10.6557 H   0  0  0  0  0  0  0  0  0  0  0  0
   44.7946    4.1793   11.2584 H   0  0  0  0  0  0  0  0  0  0  0  0
  2  1  1  0
  3  2  1  0
  4  1  1  0
  5  1  2  0
  6  4  1  0
  7  9  2  0
  8  3  2  0
  9  6  1  0
 10 11  2  0
 11 12  1  0
 12  6  2  0
 13  8  1  0
 14  3  1  0
 15  2  1  0
 16 14  2  0
 17  7  1  0
 18 16  1  0
 19 10  1  0
 20 13  1  0
 21 17  2  0
 22 19  2  0
 10  7  1  0
 13 18  2  0
 22 21  1  0
  8 23  1  0
  9 24  1  0
 11 25  1  0
 12 26  1  0
 14 27  1  0
 15 28  1  0
 15 29  1  0
 15 30  1  0
 16 31  1  0
 17 32  1  0
 18 33  1  0
 19 34  1  0
 20 35  1  0
 20 36  1  0
 20 37  1  0
 21 38  1  0
 22 39  1  0
M  END
> <Uni-Dock RESULT> 
ENERGY=   -4.244  LOWER_BOUND=    1.699  UPPER_BOUND=    2.372
INTER + INTRA:          -4.244
INTER:                  -4.244
INTRA:                   0.000
UNBOUND:                 0.000

$$$$

     RDKit          3D

 39 41  0  0  0  0  0  0  0  0999 V2000
   49.1136    6.4844   17.7232 C   0  0  0  0  0  0  0  0  0  0  0  0
   48.8666    5.3344   16.9451 N   0  0  0  0  0  0  0  0  0  0  0  0
   48.1281    5.3747   15.7102 C   0  0  0  0  0  0  0  0  0  0  0  0
   48.3812    7.6173   17.3165 O   0  0  0  0  0  0  0  0  0  0  0  0
   50.0849    6.5640   19.0938 S   0  0  0  0  0  0  0  0  0  0  0  0
   48.4883    8.9264   17.8465 C   0  0  0  0  0  0  0  0  0  0  0  0
   47.5262   10.6947   19.1774 C   0  0  0  0  0  0  0  0  0  0  0  0
   48.2632    6.4462   14.8137 C   0  0  0  0  0  0  0  0  0  0  0  0
   47.4706    9.3862   18.6776 C   0  0  0  0  0  0  0  0  0  0  0  0
   48.6110   11.5322   18.8153 C   0  0  0  0  0  0  0  0  0  0  0  0
   49.6115   11.0402   17.9572 C   0  0  0  0  0  0  0  0  0  0  0  0
   49.5496    9.7379   17.4631 C   0  0  0  0  0  0  0  0  0  0  0  0
   47.5538    6.4856   13.6019 C   0  0  0  0  0  0  0  0  0  0  0  0
   47.2883    4.3132   15.3407 C   0  0  0  0  0  0  0  0  0  0  0  0
   49.2556    4.0058   17.4325 C   0  0  0  0  0  0  0  0  0  0  0  0
   46.5888    4.3347   14.1309 C   0  0  0  0  0  0  0  0  0  0  0  0
   46.5274   11.1930   20.0289 C   0  0  0  0  0  0  0  0  0  0  0  0
   46.7224    5.4157   13.2639 C   0  0  0  0  0  0  0  0  0  0  0  0
   48.6621   12.8414   19.3196 C   0  0  0  0  0  0  0  0  0  0  0  0
   47.7420    7.6333   12.6540 C   0  0  0  0  0  0  0  0  0  0  0  0
   46.5953   12.4976   20.5202 C   0  0  0  0  0  0  0  0  0  0  0  0
   47.6609   13.3203   20.1664 C   0  0  0  0  0  0  0  0  0  0  0  0
   48.9559    7.2567   15.0264 H   0  0  0  0  0  0  0  0  0  0  0  0
   46.6474    8.7252   18.9317 H   0  0  0  0  0  0  0  0  0  0  0  0
   50.4469   11.6737   17.6677 H   0  0  0  0  0  0  0  0  0  0  0  0
   50.3200    9.3667   16.7954 H   0  0  0  0  0  0  0  0  0  0  0  0
   47.1342    3.4627   15.9985 H   0  0  0  0  0  0  0  0  0  0  0  0
   49.4187    3.3154   16.5984 H   0  0  0  0  0  0  0  0  0  0  0  0
   48.4668    3.6277   18.0905 H   0  0  0  0  0  0  0  0  0  0  0  0
   50.1933    4.0413   17.9919 H   0  0  0  0  0  0  0  0  0  0  0  0
   45.9357    3.5065   13.8677 H   0  0  0  0  0  0  0  0  0  0  0  0
   45.6877   10.5650   20.3180 H   0  0  0  0  0  0  0  0  0  0  0  0
   46.1765    5.4172   12.3231 H   0  0  0  0  0  0  0  0  0  0  0  0
   49.4862   13.5004   19.0555 H   0  0  0  0  0  0  0  0  0  0  0  0
   46.8484    7.7838   12.0389 H   0  0  0  0  0  0  0  0  0  0  0  0
   47.9193    8.5651   13.2013 H   0  0  0  0  0  0  0  0  0  0  0  0
   48.5949    7.4396   11.9965 H   0  0  0  0  0  0  0  0  0  0  0  0
   45.8160   12.8700   21.1799 H   0  0  0  0  0  0  0  0  0  0  0  0
   47.7146   14.3358   20.5497 H   0  0  0  0  0  0  0  0  0  0  0  0
  2  1  1  0
  3  2  1  0
  4  1  1  0
  5  1  2  0
  6  4  1  0
  7  9  2  0
  8  3  2  0
  9  6  1  0
 10 11  2  0
 11 12  1  0
 12  6  2  0
 13  8  1  0
 14  3  1  0
 15  2  1  0
 16 14  2  0
 17  7  1  0
 18 16  1  0
 19 10  1  0
 20 13  1  0
 21 17  2  0
 22 19  2  0
 10  7  1  0
 13 18  2  0
 22 21  1  0
  8 23  1  0
  9 24  1  0
 11 25  1  0
 12 26  1  0
 14 27  1  0
 15 28  1  0
 15 29  1  0
 15 30  1  0
 16 31  1  0
 17 32  1  0
 18 33  1  0
 19 34  1  0
 20 35  1  0
 20 36  1  0
 20 37  1  0
 21 38  1  0
 22 39  1  0
M  END
> <Uni-Dock RESULT> 
ENERGY=   -4.143  LOWER_BOUND=    2.857  UPPER_BOUND=    7.859
INTER + INTRA:          -4.143
INTER:                  -4.143
INTRA:                   0.000
UNBOUND:                 0.000

$$$$
