
     RDKit          3D

 39 41  0  0  0  0  0  0  0  0999 V2000
   48.8918    3.7320   17.9883 C   0  0  0  0  0  0  0  0  0  0  0  0
   49.6718    2.7845   17.2938 N   0  0  0  0  0  0  0  0  0  0  0  0
   51.0477    2.5187   17.6220 C   0  0  0  0  0  0  0  0  0  0  0  0
   49.4947    4.2143   19.1670 O   0  0  0  0  0  0  0  0  0  0  0  0
   47.3322    4.2172   17.5876 S   0  0  0  0  0  0  0  0  0  0  0  0
   48.9936    5.2313   20.0160 C   0  0  0  0  0  0  0  0  0  0  0  0
   47.9842    5.8458   22.1202 C   0  0  0  0  0  0  0  0  0  0  0  0
   51.9188    3.5496   18.0077 C   0  0  0  0  0  0  0  0  0  0  0  0
   48.4437    4.8572   21.2389 C   0  0  0  0  0  0  0  0  0  0  0  0
   48.1016    7.2109   21.7566 C   0  0  0  0  0  0  0  0  0  0  0  0
   48.6809    7.5529   20.5209 C   0  0  0  0  0  0  0  0  0  0  0  0
   49.1365    6.5645   19.6494 C   0  0  0  0  0  0  0  0  0  0  0  0
   53.2691    3.2997   18.3029 C   0  0  0  0  0  0  0  0  0  0  0  0
   51.5725    1.2216   17.5184 C   0  0  0  0  0  0  0  0  0  0  0  0
   49.0663    1.9279   16.2673 C   0  0  0  0  0  0  0  0  0  0  0  0
   52.9106    0.9588   17.8244 C   0  0  0  0  0  0  0  0  0  0  0  0
   47.4111    5.5106   23.3571 C   0  0  0  0  0  0  0  0  0  0  0  0
   53.7537    1.9924   18.2235 C   0  0  0  0  0  0  0  0  0  0  0  0
   47.6389    8.1966   22.6425 C   0  0  0  0  0  0  0  0  0  0  0  0
   54.1633    4.4185   18.7499 C   0  0  0  0  0  0  0  0  0  0  0  0
   46.9568    6.5048   24.2250 C   0  0  0  0  0  0  0  0  0  0  0  0
   47.0702    7.8455   23.8682 C   0  0  0  0  0  0  0  0  0  0  0  0
   51.5695    4.5784   18.0475 H   0  0  0  0  0  0  0  0  0  0  0  0
   48.3740    3.8042   21.4946 H   0  0  0  0  0  0  0  0  0  0  0  0
   48.7811    8.5965   20.2315 H   0  0  0  0  0  0  0  0  0  0  0  0
   49.5895    6.8346   18.7014 H   0  0  0  0  0  0  0  0  0  0  0  0
   50.9439    0.3815   17.2375 H   0  0  0  0  0  0  0  0  0  0  0  0
   49.8172    1.5934   15.5440 H   0  0  0  0  0  0  0  0  0  0  0  0
   48.6003    1.0671   16.7573 H   0  0  0  0  0  0  0  0  0  0  0  0
   48.3039    2.4630   15.6963 H   0  0  0  0  0  0  0  0  0  0  0  0
   53.2921   -0.0570   17.7591 H   0  0  0  0  0  0  0  0  0  0  0  0
   47.3122    4.4686   23.6530 H   0  0  0  0  0  0  0  0  0  0  0  0
   54.7905    1.7725   18.4675 H   0  0  0  0  0  0  0  0  0  0  0  0
   47.7179    9.2500   22.3830 H   0  0  0  0  0  0  0  0  0  0  0  0
   55.2101    4.2043   18.5104 H   0  0  0  0  0  0  0  0  0  0  0  0
   53.8998    5.3533   18.2440 H   0  0  0  0  0  0  0  0  0  0  0  0
   54.0712    4.5613   19.8310 H   0  0  0  0  0  0  0  0  0  0  0  0
   46.5135    6.2312   25.1788 H   0  0  0  0  0  0  0  0  0  0  0  0
   46.7155    8.6198   24.5434 H   0  0  0  0  0  0  0  0  0  0  0  0
  2  1  1  0
  3  2  1  0
  4  1  1  0
  5  1  2  0
  6  4  1  0
  7  9  2  0
  8  3  2  0
  9  6  1  0
 10 11  2  0
 11 12  1  0
 12  6  2  0
 13  8  1  0
 14  3  1  0
 15  2  1  0
 16 14  2  0
 17  7  1  0
 18 16  1  0
 19 10  1  0
 20 13  1  0
 21 17  2  0
 22 19  2  0
 10  7  1  0
 13 18  2  0
 22 21  1  0
  8 23  1  0
  9 24  1  0
 11 25  1  0
 12 26  1  0
 14 27  1  0
 15 28  1  0
 15 29  1  0
 15 30  1  0
 16 31  1  0
 17 32  1  0
 18 33  1  0
 19 34  1  0
 20 35  1  0
 20 36  1  0
 20 37  1  0
 21 38  1  0
 22 39  1  0
M  END
> <Uni-Dock RESULT> 
ENERGY=   -5.088  LOWER_BOUND=    0.000  UPPER_BOUND=    0.000
INTER + INTRA:          -5.088
INTER:                  -5.088
INTRA:                   0.000
UNBOUND:                 0.000

$$$$

     RDKit          3D

 39 41  0  0  0  0  0  0  0  0999 V2000
   49.1243    6.7215   17.5813 C   0  0  0  0  0  0  0  0  0  0  0  0
   48.4685    7.8134   18.1863 N   0  0  0  0  0  0  0  0  0  0  0  0
   48.1884    7.8684   19.5969 C   0  0  0  0  0  0  0  0  0  0  0  0
   49.6869    5.8131   18.4997 O   0  0  0  0  0  0  0  0  0  0  0  0
   49.3626    6.4986   15.9314 S   0  0  0  0  0  0  0  0  0  0  0  0
   50.3227    4.5856   18.1908 C   0  0  0  0  0  0  0  0  0  0  0  0
   52.3617    3.3043   18.0347 C   0  0  0  0  0  0  0  0  0  0  0  0
   47.8007    6.7230   20.3097 C   0  0  0  0  0  0  0  0  0  0  0  0
   51.7098    4.5193   18.2873 C   0  0  0  0  0  0  0  0  0  0  0  0
   51.5951    2.1599   17.6998 C   0  0  0  0  0  0  0  0  0  0  0  0
   50.1933    2.2592   17.6308 C   0  0  0  0  0  0  0  0  0  0  0  0
   49.5512    3.4707   17.8840 C   0  0  0  0  0  0  0  0  0  0  0  0
   47.5002    6.7765   21.6808 C   0  0  0  0  0  0  0  0  0  0  0  0
   48.2486    9.0848   20.2936 C   0  0  0  0  0  0  0  0  0  0  0  0
   48.1461    9.0150   17.4075 C   0  0  0  0  0  0  0  0  0  0  0  0
   47.9665    9.1470   21.6611 C   0  0  0  0  0  0  0  0  0  0  0  0
   53.7596    3.1979   18.1082 C   0  0  0  0  0  0  0  0  0  0  0  0
   47.6021    7.9958   22.3540 C   0  0  0  0  0  0  0  0  0  0  0  0
   52.2533    0.9461   17.4468 C   0  0  0  0  0  0  0  0  0  0  0  0
   47.1267    5.5258   22.4207 C   0  0  0  0  0  0  0  0  0  0  0  0
   54.3963    1.9823   17.8534 C   0  0  0  0  0  0  0  0  0  0  0  0
   53.6445    0.8584   17.5230 C   0  0  0  0  0  0  0  0  0  0  0  0
   47.6869    5.7700   19.7990 H   0  0  0  0  0  0  0  0  0  0  0  0
   52.2709    5.4099   18.5539 H   0  0  0  0  0  0  0  0  0  0  0  0
   49.5928    1.3879   17.3794 H   0  0  0  0  0  0  0  0  0  0  0  0
   48.4696    3.5392   17.8371 H   0  0  0  0  0  0  0  0  0  0  0  0
   48.5550   10.0018   19.7986 H   0  0  0  0  0  0  0  0  0  0  0  0
   47.2961    9.5486   17.8452 H   0  0  0  0  0  0  0  0  0  0  0  0
   49.0280    9.6629   17.3790 H   0  0  0  0  0  0  0  0  0  0  0  0
   47.8600    8.7650   16.3832 H   0  0  0  0  0  0  0  0  0  0  0  0
   48.0405   10.0955   22.1871 H   0  0  0  0  0  0  0  0  0  0  0  0
   54.3644    4.0653   18.3632 H   0  0  0  0  0  0  0  0  0  0  0  0
   47.3943    8.0566   23.4198 H   0  0  0  0  0  0  0  0  0  0  0  0
   51.6846    0.0561   17.1868 H   0  0  0  0  0  0  0  0  0  0  0  0
   46.5086    5.7563   23.2947 H   0  0  0  0  0  0  0  0  0  0  0  0
   46.5455    4.8537   21.7807 H   0  0  0  0  0  0  0  0  0  0  0  0
   48.0297    5.0057   22.7549 H   0  0  0  0  0  0  0  0  0  0  0  0
   55.4795    1.9144   17.9121 H   0  0  0  0  0  0  0  0  0  0  0  0
   54.1401   -0.0881   17.3235 H   0  0  0  0  0  0  0  0  0  0  0  0
  2  1  1  0
  3  2  1  0
  4  1  1  0
  5  1  2  0
  6  4  1  0
  7  9  2  0
  8  3  2  0
  9  6  1  0
 10 11  2  0
 11 12  1  0
 12  6  2  0
 13  8  1  0
 14  3  1  0
 15  2  1  0
 16 14  2  0
 17  7  1  0
 18 16  1  0
 19 10  1  0
 20 13  1  0
 21 17  2  0
 22 19  2  0
 10  7  1  0
 13 18  2  0
 22 21  1  0
  8 23  1  0
  9 24  1  0
 11 25  1  0
 12 26  1  0
 14 27  1  0
 15 28  1  0
 15 29  1  0
 15 30  1  0
 16 31  1  0
 17 32  1  0
 18 33  1  0
 19 34  1  0
 20 35  1  0
 20 36  1  0
 20 37  1  0
 21 38  1  0
 22 39  1  0
M  END
> <Uni-Dock RESULT> 
ENERGY=   -4.646  LOWER_BOUND=    1.855  UPPER_BOUND=    7.298
INTER + INTRA:          -4.646
INTER:                  -4.646
INTRA:                   0.000
UNBOUND:                 0.000

$$$$

     RDKit          3D

 39 41  0  0  0  0  0  0  0  0999 V2000
   44.7674    9.0337   11.5033 C   0  0  0  0  0  0  0  0  0  0  0  0
   45.4235   10.2058   11.9327 N   0  0  0  0  0  0  0  0  0  0  0  0
   46.7146   10.1863   12.5683 C   0  0  0  0  0  0  0  0  0  0  0  0
   45.5787    7.8821   11.5320 O   0  0  0  0  0  0  0  0  0  0  0  0
   43.2043    8.9408   10.8899 S   0  0  0  0  0  0  0  0  0  0  0  0
   45.1716    6.5557   11.2463 C   0  0  0  0  0  0  0  0  0  0  0  0
   45.2145    4.6662    9.7458 C   0  0  0  0  0  0  0  0  0  0  0  0
   47.0669    9.1746   13.4753 C   0  0  0  0  0  0  0  0  0  0  0  0
   45.5618    5.9934   10.0341 C   0  0  0  0  0  0  0  0  0  0  0  0
   44.4846    3.9148   10.7008 C   0  0  0  0  0  0  0  0  0  0  0  0
   44.1244    4.5097   11.9240 C   0  0  0  0  0  0  0  0  0  0  0  0
   44.4736    5.8300   12.2046 C   0  0  0  0  0  0  0  0  0  0  0  0
   48.3155    9.1657   14.1188 C   0  0  0  0  0  0  0  0  0  0  0  0
   47.6449   11.2102   12.3348 C   0  0  0  0  0  0  0  0  0  0  0  0
   44.8604   11.5280   11.6346 C   0  0  0  0  0  0  0  0  0  0  0  0
   48.8960   11.2034   12.9579 C   0  0  0  0  0  0  0  0  0  0  0  0
   45.5767    4.0656    8.5297 C   0  0  0  0  0  0  0  0  0  0  0  0
   49.2334   10.1805   13.8399 C   0  0  0  0  0  0  0  0  0  0  0  0
   44.1388    2.5866   10.4064 C   0  0  0  0  0  0  0  0  0  0  0  0
   48.6748    8.0480   15.0531 C   0  0  0  0  0  0  0  0  0  0  0  0
   45.2240    2.7435    8.2547 C   0  0  0  0  0  0  0  0  0  0  0  0
   44.5059    2.0054    9.1913 C   0  0  0  0  0  0  0  0  0  0  0  0
   46.3565    8.3916   13.7288 H   0  0  0  0  0  0  0  0  0  0  0  0
   46.1274    6.5900    9.3248 H   0  0  0  0  0  0  0  0  0  0  0  0
   43.5683    3.9431   12.6674 H   0  0  0  0  0  0  0  0  0  0  0  0
   44.1999    6.2808   13.1526 H   0  0  0  0  0  0  0  0  0  0  0  0
   47.4339   12.0126   11.6337 H   0  0  0  0  0  0  0  0  0  0  0  0
   45.1971   12.2705   12.3655 H   0  0  0  0  0  0  0  0  0  0  0  0
   45.1668   11.8216   10.6256 H   0  0  0  0  0  0  0  0  0  0  0  0
   43.7690   11.5198   11.6825 H   0  0  0  0  0  0  0  0  0  0  0  0
   49.6111   11.9944   12.7464 H   0  0  0  0  0  0  0  0  0  0  0  0
   46.1364    4.6266    7.7846 H   0  0  0  0  0  0  0  0  0  0  0  0
   50.2138   10.1823   14.3108 H   0  0  0  0  0  0  0  0  0  0  0  0
   43.5778    1.9925   11.1243 H   0  0  0  0  0  0  0  0  0  0  0  0
   49.4156    8.3751   15.7901 H   0  0  0  0  0  0  0  0  0  0  0  0
   47.7947    7.7061   15.6078 H   0  0  0  0  0  0  0  0  0  0  0  0
   49.0876    7.2067   14.4878 H   0  0  0  0  0  0  0  0  0  0  0  0
   45.5093    2.2914    7.3085 H   0  0  0  0  0  0  0  0  0  0  0  0
   44.2301    0.9761    8.9770 H   0  0  0  0  0  0  0  0  0  0  0  0
  2  1  1  0
  3  2  1  0
  4  1  1  0
  5  1  2  0
  6  4  1  0
  7  9  2  0
  8  3  2  0
  9  6  1  0
 10 11  2  0
 11 12  1  0
 12  6  2  0
 13  8  1  0
 14  3  1  0
 15  2  1  0
 16 14  2  0
 17  7  1  0
 18 16  1  0
 19 10  1  0
 20 13  1  0
 21 17  2  0
 22 19  2  0
 10  7  1  0
 13 18  2  0
 22 21  1  0
  8 23  1  0
  9 24  1  0
 11 25  1  0
 12 26  1  0
 14 27  1  0
 15 28  1  0
 15 29  1  0
 15 30  1  0
 16 31  1  0
 17 32  1  0
 18 33  1  0
 19 34  1  0
 20 35  1  0
 20 36  1  0
 20 37  1  0
 21 38  1  0
 22 39  1  0
M  END
> <Uni-Dock RESULT> 
ENERGY=   -4.517  LOWER_BOUND=    8.194  UPPER_BOUND=   11.407
INTER + INTRA:          -4.517
INTER:                  -4.517
INTRA:                   0.000
UNBOUND:                 0.000

$$$$

     RDKit          3D

 39 41  0  0  0  0  0  0  0  0999 V2000
   49.6820    7.0101   15.2736 C   0  0  0  0  0  0  0  0  0  0  0  0
   49.3585    7.3468   13.9430 N   0  0  0  0  0  0  0  0  0  0  0  0
   48.0958    7.0099   13.3402 C   0  0  0  0  0  0  0  0  0  0  0  0
   48.5883    6.5357   16.0246 O   0  0  0  0  0  0  0  0  0  0  0  0
   51.1755    7.2269   16.0159 S   0  0  0  0  0  0  0  0  0  0  0  0
   48.6270    6.0400   17.3510 C   0  0  0  0  0  0  0  0  0  0  0  0
   48.1087    6.3616   19.6859 C   0  0  0  0  0  0  0  0  0  0  0  0
   47.4609    5.7874   13.6100 C   0  0  0  0  0  0  0  0  0  0  0  0
   48.1278    6.8458   18.3704 C   0  0  0  0  0  0  0  0  0  0  0  0
   48.5845    5.0533   19.9526 C   0  0  0  0  0  0  0  0  0  0  0  0
   49.0635    4.2595   18.8942 C   0  0  0  0  0  0  0  0  0  0  0  0
   49.0790    4.7471   17.5880 C   0  0  0  0  0  0  0  0  0  0  0  0
   46.2418    5.4422   13.0035 C   0  0  0  0  0  0  0  0  0  0  0  0
   47.4840    7.8779   12.4233 C   0  0  0  0  0  0  0  0  0  0  0  0
   50.2661    8.1762   13.1414 C   0  0  0  0  0  0  0  0  0  0  0  0
   46.2636    7.5514   11.8255 C   0  0  0  0  0  0  0  0  0  0  0  0
   47.6262    7.1469   20.7448 C   0  0  0  0  0  0  0  0  0  0  0  0
   45.6405    6.3420   12.1210 C   0  0  0  0  0  0  0  0  0  0  0  0
   48.5640    4.5740   21.2718 C   0  0  0  0  0  0  0  0  0  0  0  0
   45.5707    4.1442   13.3441 C   0  0  0  0  0  0  0  0  0  0  0  0
   47.6135    6.6530   22.0501 C   0  0  0  0  0  0  0  0  0  0  0  0
   48.0819    5.3689   22.3133 C   0  0  0  0  0  0  0  0  0  0  0  0
   47.9260    5.0604   14.2710 H   0  0  0  0  0  0  0  0  0  0  0  0
   47.7622    7.8409   18.1356 H   0  0  0  0  0  0  0  0  0  0  0  0
   49.4272    3.2523   19.0842 H   0  0  0  0  0  0  0  0  0  0  0  0
   49.4421    4.1275   16.7749 H   0  0  0  0  0  0  0  0  0  0  0  0
   47.9213    8.8432   12.1848 H   0  0  0  0  0  0  0  0  0  0  0  0
   50.1263    7.9880   12.0718 H   0  0  0  0  0  0  0  0  0  0  0  0
   50.0749    9.2294   13.3703 H   0  0  0  0  0  0  0  0  0  0  0  0
   51.3129    7.9529   13.3603 H   0  0  0  0  0  0  0  0  0  0  0  0
   45.7951    8.2477   11.1345 H   0  0  0  0  0  0  0  0  0  0  0  0
   47.2575    8.1533   20.5595 H   0  0  0  0  0  0  0  0  0  0  0  0
   44.6865    6.1045   11.6559 H   0  0  0  0  0  0  0  0  0  0  0  0
   48.9256    3.5736   21.4990 H   0  0  0  0  0  0  0  0  0  0  0  0
   44.9290    3.8067   12.5234 H   0  0  0  0  0  0  0  0  0  0  0  0
   46.3115    3.3574   13.5210 H   0  0  0  0  0  0  0  0  0  0  0  0
   44.9586    4.2647   14.2433 H   0  0  0  0  0  0  0  0  0  0  0  0
   47.2387    7.2723   22.8609 H   0  0  0  0  0  0  0  0  0  0  0  0
   48.0731    4.9845   23.3299 H   0  0  0  0  0  0  0  0  0  0  0  0
  2  1  1  0
  3  2  1  0
  4  1  1  0
  5  1  2  0
  6  4  1  0
  7  9  2  0
  8  3  2  0
  9  6  1  0
 10 11  2  0
 11 12  1  0
 12  6  2  0
 13  8  1  0
 14  3  1  0
 15  2  1  0
 16 14  2  0
 17  7  1  0
 18 16  1  0
 19 10  1  0
 20 13  1  0
 21 17  2  0
 22 19  2  0
 10  7  1  0
 13 18  2  0
 22 21  1  0
  8 23  1  0
  9 24  1  0
 11 25  1  0
 12 26  1  0
 14 27  1  0
 15 28  1  0
 15 29  1  0
 15 30  1  0
 16 31  1  0
 17 32  1  0
 18 33  1  0
 19 34  1  0
 20 35  1  0
 20 36  1  0
 20 37  1  0
 21 38  1  0
 22 39  1  0
M  END
> <Uni-Dock RESULT> 
ENERGY=   -4.432  LOWER_BOUND=    4.394  UPPER_BOUND=    6.211
INTER + INTRA:          -4.432
INTER:                  -4.432
INTRA:                   0.000
UNBOUND:                 0.000

$$$$

     RDKit          3D

 39 41  0  0  0  0  0  0  0  0999 V2000
   49.5469    7.6890   13.3745 C   0  0  0  0  0  0  0  0  0  0  0  0
   50.5907    8.0480   14.2521 N   0  0  0  0  0  0  0  0  0  0  0  0
   50.4129    8.1364   15.6776 C   0  0  0  0  0  0  0  0  0  0  0  0
   48.3974    7.1982   14.0249 O   0  0  0  0  0  0  0  0  0  0  0  0
   49.6159    7.7024   11.6942 S   0  0  0  0  0  0  0  0  0  0  0  0
   47.1677    6.8478   13.4153 C   0  0  0  0  0  0  0  0  0  0  0  0
   45.6291    5.1212   12.7260 C   0  0  0  0  0  0  0  0  0  0  0  0
   49.2282    8.6416   16.2358 C   0  0  0  0  0  0  0  0  0  0  0  0
   46.8602    5.4967   13.2812 C   0  0  0  0  0  0  0  0  0  0  0  0
   44.7120    6.1247   12.3244 C   0  0  0  0  0  0  0  0  0  0  0  0
   45.0483    7.4804   12.4932 C   0  0  0  0  0  0  0  0  0  0  0  0
   46.2744    7.8469   13.0469 C   0  0  0  0  0  0  0  0  0  0  0  0
   49.0600    8.7551   17.6257 C   0  0  0  0  0  0  0  0  0  0  0  0
   51.4431    7.7631   16.5538 C   0  0  0  0  0  0  0  0  0  0  0  0
   51.9575    8.2322   13.7501 C   0  0  0  0  0  0  0  0  0  0  0  0
   51.2811    7.8574   17.9388 C   0  0  0  0  0  0  0  0  0  0  0  0
   45.2855    3.7700   12.5609 C   0  0  0  0  0  0  0  0  0  0  0  0
   50.0909    8.3434   18.4730 C   0  0  0  0  0  0  0  0  0  0  0  0
   43.4810    5.7428   11.7681 C   0  0  0  0  0  0  0  0  0  0  0  0
   47.7659    9.2629   18.1901 C   0  0  0  0  0  0  0  0  0  0  0  0
   44.0567    3.4097   12.0059 C   0  0  0  0  0  0  0  0  0  0  0  0
   43.1561    4.3944   11.6099 C   0  0  0  0  0  0  0  0  0  0  0  0
   48.4249    8.9948   15.5939 H   0  0  0  0  0  0  0  0  0  0  0  0
   47.5786    4.7497   13.6051 H   0  0  0  0  0  0  0  0  0  0  0  0
   44.3521    8.2604   12.1935 H   0  0  0  0  0  0  0  0  0  0  0  0
   46.5249    8.8938   13.1819 H   0  0  0  0  0  0  0  0  0  0  0  0
   52.3774    7.3532   16.1810 H   0  0  0  0  0  0  0  0  0  0  0  0
   52.5255    8.9062   14.3999 H   0  0  0  0  0  0  0  0  0  0  0  0
   52.4470    7.2546   13.6954 H   0  0  0  0  0  0  0  0  0  0  0  0
   51.9626    8.6845   12.7557 H   0  0  0  0  0  0  0  0  0  0  0  0
   52.0834    7.5421   18.6010 H   0  0  0  0  0  0  0  0  0  0  0  0
   45.9766    2.9861   12.8628 H   0  0  0  0  0  0  0  0  0  0  0  0
   49.9746    8.4029   19.5528 H   0  0  0  0  0  0  0  0  0  0  0  0
   42.7631    6.4964   11.4519 H   0  0  0  0  0  0  0  0  0  0  0  0
   47.9177    9.7140   19.1763 H   0  0  0  0  0  0  0  0  0  0  0  0
   47.3352   10.0346   17.5435 H   0  0  0  0  0  0  0  0  0  0  0  0
   47.0512    8.4396   18.2854 H   0  0  0  0  0  0  0  0  0  0  0  0
   43.8042    2.3598   11.8822 H   0  0  0  0  0  0  0  0  0  0  0  0
   42.1995    4.1140   11.1766 H   0  0  0  0  0  0  0  0  0  0  0  0
  2  1  1  0
  3  2  1  0
  4  1  1  0
  5  1  2  0
  6  4  1  0
  7  9  2  0
  8  3  2  0
  9  6  1  0
 10 11  2  0
 11 12  1  0
 12  6  2  0
 13  8  1  0
 14  3  1  0
 15  2  1  0
 16 14  2  0
 17  7  1  0
 18 16  1  0
 19 10  1  0
 20 13  1  0
 21 17  2  0
 22 19  2  0
 10  7  1  0
 13 18  2  0
 22 21  1  0
  8 23  1  0
  9 24  1  0
 11 25  1  0
 12 26  1  0
 14 27  1  0
 15 28  1  0
 15 29  1  0
 15 30  1  0
 16 31  1  0
 17 32  1  0
 18 33  1  0
 19 34  1  0
 20 35  1  0
 20 36  1  0
 20 37  1  0
 21 38  1  0
 22 39  1  0
M  END
> <Uni-Dock RESULT> 
ENERGY=   -4.279  LOWER_BOUND=    5.832  UPPER_BOUND=    8.539
INTER + INTRA:          -4.279
INTER:                  -4.279
INTRA:                   0.000
UNBOUND:                 0.000

$$$$

     RDKit          3D

 39 41  0  0  0  0  0  0  0  0999 V2000
   50.6517    6.4108   20.1949 C   0  0  0  0  0  0  0  0  0  0  0  0
   51.1351    5.1129   19.9300 N   0  0  0  0  0  0  0  0  0  0  0  0
   50.5450    4.2497   18.9411 C   0  0  0  0  0  0  0  0  0  0  0  0
   49.7084    6.8717   19.2552 O   0  0  0  0  0  0  0  0  0  0  0  0
   51.1754    7.4320   21.4243 S   0  0  0  0  0  0  0  0  0  0  0  0
   48.9878    8.0899   19.3107 C   0  0  0  0  0  0  0  0  0  0  0  0
   48.6367   10.3162   18.4481 C   0  0  0  0  0  0  0  0  0  0  0  0
   49.1559    4.2081   18.7434 C   0  0  0  0  0  0  0  0  0  0  0  0
   49.3627    9.1171   18.4491 C   0  0  0  0  0  0  0  0  0  0  0  0
   47.5235   10.4563   19.3144 C   0  0  0  0  0  0  0  0  0  0  0  0
   47.1613    9.3896   20.1575 C   0  0  0  0  0  0  0  0  0  0  0  0
   47.8874    8.1993   20.1529 C   0  0  0  0  0  0  0  0  0  0  0  0
   48.5728    3.3478   17.7984 C   0  0  0  0  0  0  0  0  0  0  0  0
   51.3421    3.3851   18.1758 C   0  0  0  0  0  0  0  0  0  0  0  0
   52.3578    4.6251   20.5791 C   0  0  0  0  0  0  0  0  0  0  0  0
   50.7742    2.5359   17.2220 C   0  0  0  0  0  0  0  0  0  0  0  0
   48.9896   11.3815   17.6045 C   0  0  0  0  0  0  0  0  0  0  0  0
   49.3956    2.5235   17.0279 C   0  0  0  0  0  0  0  0  0  0  0  0
   46.8007   11.6597   19.3098 C   0  0  0  0  0  0  0  0  0  0  0  0
   47.0877    3.3568   17.5851 C   0  0  0  0  0  0  0  0  0  0  0  0
   48.2588   12.5705   17.6139 C   0  0  0  0  0  0  0  0  0  0  0  0
   47.1664   12.7095   18.4653 C   0  0  0  0  0  0  0  0  0  0  0  0
   48.4954    4.8200   19.3527 H   0  0  0  0  0  0  0  0  0  0  0  0
   50.2148    8.9788   17.7904 H   0  0  0  0  0  0  0  0  0  0  0  0
   46.3067    9.4821   20.8238 H   0  0  0  0  0  0  0  0  0  0  0  0
   47.5987    7.3775   20.7995 H   0  0  0  0  0  0  0  0  0  0  0  0
   52.4238    3.3817   18.2752 H   0  0  0  0  0  0  0  0  0  0  0  0
   52.3604    3.5317   20.6373 H   0  0  0  0  0  0  0  0  0  0  0  0
   53.2234    4.9776   20.0092 H   0  0  0  0  0  0  0  0  0  0  0  0
   52.4403    4.9895   21.6057 H   0  0  0  0  0  0  0  0  0  0  0  0
   51.4114    1.8896   16.6238 H   0  0  0  0  0  0  0  0  0  0  0  0
   49.8410   11.2925   16.9333 H   0  0  0  0  0  0  0  0  0  0  0  0
   48.9676    1.8645   16.2759 H   0  0  0  0  0  0  0  0  0  0  0  0
   45.9440   11.7889   19.9675 H   0  0  0  0  0  0  0  0  0  0  0  0
   46.7405    2.3926   17.1995 H   0  0  0  0  0  0  0  0  0  0  0  0
   46.5601    3.5381   18.5274 H   0  0  0  0  0  0  0  0  0  0  0  0
   46.8177    4.1402   16.8702 H   0  0  0  0  0  0  0  0  0  0  0  0
   48.5441   13.3879   16.9569 H   0  0  0  0  0  0  0  0  0  0  0  0
   46.5977   13.6357   18.4737 H   0  0  0  0  0  0  0  0  0  0  0  0
  2  1  1  0
  3  2  1  0
  4  1  1  0
  5  1  2  0
  6  4  1  0
  7  9  2  0
  8  3  2  0
  9  6  1  0
 10 11  2  0
 11 12  1  0
 12  6  2  0
 13  8  1  0
 14  3  1  0
 15  2  1  0
 16 14  2  0
 17  7  1  0
 18 16  1  0
 19 10  1  0
 20 13  1  0
 21 17  2  0
 22 19  2  0
 10  7  1  0
 13 18  2  0
 22 21  1  0
  8 23  1  0
  9 24  1  0
 11 25  1  0
 12 26  1  0
 14 27  1  0
 15 28  1  0
 15 29  1  0
 15 30  1  0
 16 31  1  0
 17 32  1  0
 18 33  1  0
 19 34  1  0
 20 35  1  0
 20 36  1  0
 20 37  1  0
 21 38  1  0
 22 39  1  0
M  END
> <Uni-Dock RESULT> 
ENERGY=   -4.276  LOWER_BOUND=    3.244  UPPER_BOUND=    5.047
INTER + INTRA:          -4.276
INTER:                  -4.276
INTRA:                   0.000
UNBOUND:                 0.000

$$$$

     RDKit          3D

 39 41  0  0  0  0  0  0  0  0999 V2000
   48.8707    9.1254   14.0206 C   0  0  0  0  0  0  0  0  0  0  0  0
   49.9477    9.9843   13.7194 N   0  0  0  0  0  0  0  0  0  0  0  0
   50.7296    9.8597   12.5175 C   0  0  0  0  0  0  0  0  0  0  0  0
   48.4805    8.3006   12.9470 O   0  0  0  0  0  0  0  0  0  0  0  0
   47.9977    9.0968   15.4578 S   0  0  0  0  0  0  0  0  0  0  0  0
   47.4970    7.2818   12.9796 C   0  0  0  0  0  0  0  0  0  0  0  0
   45.2964    6.5223   12.3437 C   0  0  0  0  0  0  0  0  0  0  0  0
   51.0595    8.6023   11.9880 C   0  0  0  0  0  0  0  0  0  0  0  0
   46.2708    7.5298   12.3691 C   0  0  0  0  0  0  0  0  0  0  0  0
   45.5827    5.2627   12.9274 C   0  0  0  0  0  0  0  0  0  0  0  0
   46.8403    5.0410   13.5182 C   0  0  0  0  0  0  0  0  0  0  0  0
   47.8052    6.0473   13.5394 C   0  0  0  0  0  0  0  0  0  0  0  0
   51.8449    8.4747   10.8304 C   0  0  0  0  0  0  0  0  0  0  0  0
   51.2278   10.9971   11.8643 C   0  0  0  0  0  0  0  0  0  0  0  0
   50.2449   11.1377   14.5771 C   0  0  0  0  0  0  0  0  0  0  0  0
   51.9974   10.8826   10.7033 C   0  0  0  0  0  0  0  0  0  0  0  0
   44.0423    6.7358   11.7500 C   0  0  0  0  0  0  0  0  0  0  0  0
   52.2976    9.6265   10.1834 C   0  0  0  0  0  0  0  0  0  0  0  0
   44.6029    4.2578   12.8999 C   0  0  0  0  0  0  0  0  0  0  0  0
   52.1463    7.1163   10.2691 C   0  0  0  0  0  0  0  0  0  0  0  0
   43.0807    5.7244   11.7322 C   0  0  0  0  0  0  0  0  0  0  0  0
   43.3603    4.4877   12.3064 C   0  0  0  0  0  0  0  0  0  0  0  0
   50.7420    7.6930   12.4922 H   0  0  0  0  0  0  0  0  0  0  0  0
   46.0821    8.5015   11.9227 H   0  0  0  0  0  0  0  0  0  0  0  0
   47.0746    4.0778   13.9656 H   0  0  0  0  0  0  0  0  0  0  0  0
   48.7758    5.8680   13.9894 H   0  0  0  0  0  0  0  0  0  0  0  0
   50.9950   11.9969   12.2197 H   0  0  0  0  0  0  0  0  0  0  0  0
   51.2987   11.4238   14.4968 H   0  0  0  0  0  0  0  0  0  0  0  0
   49.6007   11.9717   14.2808 H   0  0  0  0  0  0  0  0  0  0  0  0
   50.0653   10.9115   15.6307 H   0  0  0  0  0  0  0  0  0  0  0  0
   52.3553   11.7771   10.1998 H   0  0  0  0  0  0  0  0  0  0  0  0
   43.8044    7.6960   11.2975 H   0  0  0  0  0  0  0  0  0  0  0  0
   52.8897    9.5519    9.2741 H   0  0  0  0  0  0  0  0  0  0  0  0
   44.8011    3.2844   13.3431 H   0  0  0  0  0  0  0  0  0  0  0  0
   53.0779    7.1270    9.6937 H   0  0  0  0  0  0  0  0  0  0  0  0
   52.2695    6.3818   11.0719 H   0  0  0  0  0  0  0  0  0  0  0  0
   51.3311    6.7934    9.6141 H   0  0  0  0  0  0  0  0  0  0  0  0
   42.1131    5.9038   11.2707 H   0  0  0  0  0  0  0  0  0  0  0  0
   42.6113    3.7002   12.2937 H   0  0  0  0  0  0  0  0  0  0  0  0
  2  1  1  0
  3  2  1  0
  4  1  1  0
  5  1  2  0
  6  4  1  0
  7  9  2  0
  8  3  2  0
  9  6  1  0
 10 11  2  0
 11 12  1  0
 12  6  2  0
 13  8  1  0
 14  3  1  0
 15  2  1  0
 16 14  2  0
 17  7  1  0
 18 16  1  0
 19 10  1  0
 20 13  1  0
 21 17  2  0
 22 19  2  0
 10  7  1  0
 13 18  2  0
 22 21  1  0
  8 23  1  0
  9 24  1  0
 11 25  1  0
 12 26  1  0
 14 27  1  0
 15 28  1  0
 15 29  1  0
 15 30  1  0
 16 31  1  0
 17 32  1  0
 18 33  1  0
 19 34  1  0
 20 35  1  0
 20 36  1  0
 20 37  1  0
 21 38  1  0
 22 39  1  0
M  END
> <Uni-Dock RESULT> 
ENERGY=   -4.253  LOWER_BOUND=    7.758  UPPER_BOUND=    9.607
INTER + INTRA:          -4.253
INTER:                  -4.253
INTRA:                   0.000
UNBOUND:                 0.000

$$$$

     RDKit          3D

 39 41  0  0  0  0  0  0  0  0999 V2000
   49.5066    7.4566   15.1984 C   0  0  0  0  0  0  0  0  0  0  0  0
   49.1418    7.9607   13.9330 N   0  0  0  0  0  0  0  0  0  0  0  0
   47.8335    7.7662   13.3657 C   0  0  0  0  0  0  0  0  0  0  0  0
   48.4226    6.9616   15.9501 O   0  0  0  0  0  0  0  0  0  0  0  0
   51.0442    7.5030   15.8782 S   0  0  0  0  0  0  0  0  0  0  0  0
   48.4934    6.3162   17.2090 C   0  0  0  0  0  0  0  0  0  0  0  0
   48.1076    6.3975   19.5898 C   0  0  0  0  0  0  0  0  0  0  0  0
   47.1376    6.5585   13.5318 C   0  0  0  0  0  0  0  0  0  0  0  0
   48.0940    7.0270   18.3373 C   0  0  0  0  0  0  0  0  0  0  0  0
   48.5137    5.0427   19.6832 C   0  0  0  0  0  0  0  0  0  0  0  0
   48.8919    4.3494   18.5187 C   0  0  0  0  0  0  0  0  0  0  0  0
   48.8754    4.9813   17.2759 C   0  0  0  0  0  0  0  0  0  0  0  0
   45.8721    6.3537   12.9576 C   0  0  0  0  0  0  0  0  0  0  0  0
   47.2336    8.7662   12.5855 C   0  0  0  0  0  0  0  0  0  0  0  0
   50.0598    8.8241   13.1806 C   0  0  0  0  0  0  0  0  0  0  0  0
   45.9683    8.5792   12.0221 C   0  0  0  0  0  0  0  0  0  0  0  0
   47.7253    7.0825   20.7541 C   0  0  0  0  0  0  0  0  0  0  0  0
   45.2864    7.3808   12.2146 C   0  0  0  0  0  0  0  0  0  0  0  0
   48.5262    4.4177   20.9401 C   0  0  0  0  0  0  0  0  0  0  0  0
   45.1390    5.0650   13.1876 C   0  0  0  0  0  0  0  0  0  0  0  0
   47.7441    6.4442   21.9952 C   0  0  0  0  0  0  0  0  0  0  0  0
   48.1441    5.1142   22.0881 C   0  0  0  0  0  0  0  0  0  0  0  0
   47.5878    5.7358   14.0817 H   0  0  0  0  0  0  0  0  0  0  0  0
   47.7799    8.0613   18.2348 H   0  0  0  0  0  0  0  0  0  0  0  0
   49.2012    3.3083   18.5755 H   0  0  0  0  0  0  0  0  0  0  0  0
   49.1605    4.4394   16.3805 H   0  0  0  0  0  0  0  0  0  0  0  0
   47.7180    9.7264   12.4325 H   0  0  0  0  0  0  0  0  0  0  0  0
   49.8580    8.7674   12.1059 H   0  0  0  0  0  0  0  0  0  0  0  0
   49.9452    9.8533   13.5353 H   0  0  0  0  0  0  0  0  0  0  0  0
   51.1000    8.5189   13.3163 H   0  0  0  0  0  0  0  0  0  0  0  0
   45.5115    9.3750   11.4393 H   0  0  0  0  0  0  0  0  0  0  0  0
   47.4111    8.1225   20.7021 H   0  0  0  0  0  0  0  0  0  0  0  0
   44.2985    7.2518   11.7783 H   0  0  0  0  0  0  0  0  0  0  0  0
   48.8356    3.3792   21.0347 H   0  0  0  0  0  0  0  0  0  0  0  0
   44.4394    4.8600   12.3704 H   0  0  0  0  0  0  0  0  0  0  0  0
   45.8373    4.2229   13.2355 H   0  0  0  0  0  0  0  0  0  0  0  0
   44.5790    5.1161   14.1265 H   0  0  0  0  0  0  0  0  0  0  0  0
   47.4472    6.9868   22.8889 H   0  0  0  0  0  0  0  0  0  0  0  0
   48.1599    4.6173   23.0546 H   0  0  0  0  0  0  0  0  0  0  0  0
  2  1  1  0
  3  2  1  0
  4  1  1  0
  5  1  2  0
  6  4  1  0
  7  9  2  0
  8  3  2  0
  9  6  1  0
 10 11  2  0
 11 12  1  0
 12  6  2  0
 13  8  1  0
 14  3  1  0
 15  2  1  0
 16 14  2  0
 17  7  1  0
 18 16  1  0
 19 10  1  0
 20 13  1  0
 21 17  2  0
 22 19  2  0
 10  7  1  0
 13 18  2  0
 22 21  1  0
  8 23  1  0
  9 24  1  0
 11 25  1  0
 12 26  1  0
 14 27  1  0
 15 28  1  0
 15 29  1  0
 15 30  1  0
 16 31  1  0
 17 32  1  0
 18 33  1  0
 19 34  1  0
 20 35  1  0
 20 36  1  0
 20 37  1  0
 21 38  1  0
 22 39  1  0
M  END
> <Uni-Dock RESULT> 
ENERGY=   -4.169  LOWER_BOUND=    4.764  UPPER_BOUND=    6.609
INTER + INTRA:          -4.169
INTER:                  -4.169
INTRA:                   0.000
UNBOUND:                 0.000

$$$$

     RDKit          3D

 39 41  0  0  0  0  0  0  0  0999 V2000
   49.4165   10.1797   14.9932 C   0  0  0  0  0  0  0  0  0  0  0  0
   49.1576   10.6592   13.6926 N   0  0  0  0  0  0  0  0  0  0  0  0
   47.9048   10.4418   13.0183 C   0  0  0  0  0  0  0  0  0  0  0  0
   48.2762    9.6860   15.6574 O   0  0  0  0  0  0  0  0  0  0  0  0
   50.8893   10.2533   15.8019 S   0  0  0  0  0  0  0  0  0  0  0  0
   48.2441    9.0621   16.9287 C   0  0  0  0  0  0  0  0  0  0  0  0
   47.6537    9.1785   19.2657 C   0  0  0  0  0  0  0  0  0  0  0  0
   47.2081    9.2298   13.1448 C   0  0  0  0  0  0  0  0  0  0  0  0
   47.7426    9.7871   18.0060 C   0  0  0  0  0  0  0  0  0  0  0  0
   48.0624    7.8297   19.4170 C   0  0  0  0  0  0  0  0  0  0  0  0
   48.5457    7.1213   18.3015 C   0  0  0  0  0  0  0  0  0  0  0  0
   48.6307    7.7325   17.0512 C   0  0  0  0  0  0  0  0  0  0  0  0
   45.9987    9.0025   12.4676 C   0  0  0  0  0  0  0  0  0  0  0  0
   47.3656   11.4226   12.1723 C   0  0  0  0  0  0  0  0  0  0  0  0
   50.1294   11.5195   13.0072 C   0  0  0  0  0  0  0  0  0  0  0  0
   46.1553   11.2132   11.5055 C   0  0  0  0  0  0  0  0  0  0  0  0
   47.1664    9.8785   20.3808 C   0  0  0  0  0  0  0  0  0  0  0  0
   45.4700   10.0111   11.6593 C   0  0  0  0  0  0  0  0  0  0  0  0
   47.9721    7.2256   20.6810 C   0  0  0  0  0  0  0  0  0  0  0  0
   45.2599    7.7102   12.6558 C   0  0  0  0  0  0  0  0  0  0  0  0
   47.0839    9.2610   21.6297 C   0  0  0  0  0  0  0  0  0  0  0  0
   47.4863    7.9369   21.7797 C   0  0  0  0  0  0  0  0  0  0  0  0
   47.6165    8.4210   13.7456 H   0  0  0  0  0  0  0  0  0  0  0  0
   47.4293   10.8163   17.8590 H   0  0  0  0  0  0  0  0  0  0  0  0
   48.8582    6.0845   18.4027 H   0  0  0  0  0  0  0  0  0  0  0  0
   48.9968    7.1789   16.1931 H   0  0  0  0  0  0  0  0  0  0  0  0
   47.8527   12.3851   12.0450 H   0  0  0  0  0  0  0  0  0  0  0  0
   50.0214   11.4431   11.9203 H   0  0  0  0  0  0  0  0  0  0  0  0
   49.9754   12.5532   13.3329 H   0  0  0  0  0  0  0  0  0  0  0  0
   51.1567   11.2274   13.2371 H   0  0  0  0  0  0  0  0  0  0  0  0
   45.7433   11.9945   10.8719 H   0  0  0  0  0  0  0  0  0  0  0  0
   46.8487   10.9143   20.2840 H   0  0  0  0  0  0  0  0  0  0  0  0
   44.5246    9.8648   11.1419 H   0  0  0  0  0  0  0  0  0  0  0  0
   48.2814    6.1921   20.8197 H   0  0  0  0  0  0  0  0  0  0  0  0
   44.6353    7.4845   11.7852 H   0  0  0  0  0  0  0  0  0  0  0  0
   45.9590    6.8763   12.7781 H   0  0  0  0  0  0  0  0  0  0  0  0
   44.6207    7.7709   13.5420 H   0  0  0  0  0  0  0  0  0  0  0  0
   46.7063    9.8151   22.4851 H   0  0  0  0  0  0  0  0  0  0  0  0
   47.4232    7.4561   22.7523 H   0  0  0  0  0  0  0  0  0  0  0  0
  2  1  1  0
  3  2  1  0
  4  1  1  0
  5  1  2  0
  6  4  1  0
  7  9  2  0
  8  3  2  0
  9  6  1  0
 10 11  2  0
 11 12  1  0
 12  6  2  0
 13  8  1  0
 14  3  1  0
 15  2  1  0
 16 14  2  0
 17  7  1  0
 18 16  1  0
 19 10  1  0
 20 13  1  0
 21 17  2  0
 22 19  2  0
 10  7  1  0
 13 18  2  0
 22 21  1  0
  8 23  1  0
  9 24  1  0
 11 25  1  0
 12 26  1  0
 14 27  1  0
 15 28  1  0
 15 29  1  0
 15 30  1  0
 16 31  1  0
 17 32  1  0
 18 33  1  0
 19 34  1  0
 20 35  1  0
 20 36  1  0
 20 37  1  0
 21 38  1  0
 22 39  1  0
M  END
> <Uni-Dock RESULT> 
ENERGY=   -4.117  LOWER_BOUND=    6.172  UPPER_BOUND=    8.011
INTER + INTRA:          -4.117
INTER:                  -4.117
INTRA:                   0.000
UNBOUND:                 0.000

$$$$
