
     RDKit          3D

 39 41  0  0  0  0  0  0  0  0999 V2000
   48.8308    3.7726   18.0603 C   0  0  0  0  0  0  0  0  0  0  0  0
   49.6824    2.8894   17.3649 N   0  0  0  0  0  0  0  0  0  0  0  0
   51.0727    2.7241   17.6990 C   0  0  0  0  0  0  0  0  0  0  0  0
   49.3917    4.2938   19.2432 O   0  0  0  0  0  0  0  0  0  0  0  0
   47.2409    4.1414   17.6547 S   0  0  0  0  0  0  0  0  0  0  0  0
   48.8083    5.2619   20.0969 C   0  0  0  0  0  0  0  0  0  0  0  0
   48.3189    7.5687   20.6127 C   0  0  0  0  0  0  0  0  0  0  0  0
   51.6953    1.4689   17.5867 C   0  0  0  0  0  0  0  0  0  0  0  0
   48.8537    6.6084   19.7423 C   0  0  0  0  0  0  0  0  0  0  0  0
   47.7564    7.1537   21.8459 C   0  0  0  0  0  0  0  0  0  0  0  0
   47.7461    5.7868   22.1793 C   0  0  0  0  0  0  0  0  0  0  0  0
   48.2791    4.8371   21.3088 C   0  0  0  0  0  0  0  0  0  0  0  0
   53.0547    1.2926   17.8940 C   0  0  0  0  0  0  0  0  0  0  0  0
   51.8617    3.8132   18.0926 C   0  0  0  0  0  0  0  0  0  0  0  0
   49.1476    1.9987   16.3280 C   0  0  0  0  0  0  0  0  0  0  0  0
   53.2188    3.6525   18.3851 C   0  0  0  0  0  0  0  0  0  0  0  0
   48.3307    8.9344   20.2875 C   0  0  0  0  0  0  0  0  0  0  0  0
   53.8138    2.3981   18.2841 C   0  0  0  0  0  0  0  0  0  0  0  0
   47.2226    8.1196   22.7135 C   0  0  0  0  0  0  0  0  0  0  0  0
   53.6950   -0.0568   17.7512 C   0  0  0  0  0  0  0  0  0  0  0  0
   47.7951    9.8801   21.1630 C   0  0  0  0  0  0  0  0  0  0  0  0
   47.2419    9.4734   22.3737 C   0  0  0  0  0  0  0  0  0  0  0  0
   51.1208    0.5944   17.2920 H   0  0  0  0  0  0  0  0  0  0  0  0
   49.2976    6.9014   18.7958 H   0  0  0  0  0  0  0  0  0  0  0  0
   47.3227    5.4549   23.1245 H   0  0  0  0  0  0  0  0  0  0  0  0
   48.2773    3.7844   21.5720 H   0  0  0  0  0  0  0  0  0  0  0  0
   51.4508    4.8178   18.1392 H   0  0  0  0  0  0  0  0  0  0  0  0
   48.3505    2.4802   15.7569 H   0  0  0  0  0  0  0  0  0  0  0  0
   48.7445    1.1016   16.8085 H   0  0  0  0  0  0  0  0  0  0  0  0
   49.9250    1.7274   15.6063 H   0  0  0  0  0  0  0  0  0  0  0  0
   53.8128    4.5133   18.6820 H   0  0  0  0  0  0  0  0  0  0  0  0
   48.7561    9.2719   19.3450 H   0  0  0  0  0  0  0  0  0  0  0  0
   54.8724    2.2899   18.5090 H   0  0  0  0  0  0  0  0  0  0  0  0
   46.7855    7.8228   23.6642 H   0  0  0  0  0  0  0  0  0  0  0  0
   52.9852   -0.8530   17.9990 H   0  0  0  0  0  0  0  0  0  0  0  0
   54.0432   -0.1984   16.7235 H   0  0  0  0  0  0  0  0  0  0  0  0
   54.5479   -0.1601   18.4304 H   0  0  0  0  0  0  0  0  0  0  0  0
   47.8088   10.9341   20.8978 H   0  0  0  0  0  0  0  0  0  0  0  0
   46.8237   10.2096   23.0553 H   0  0  0  0  0  0  0  0  0  0  0  0
  2  1  1  0
  3  2  1  0
  4  1  1  0
  5  1  2  0
  6  4  1  0
  7  9  2  0
  8  3  2  0
  9  6  1  0
 10 11  2  0
 11 12  1  0
 12  6  2  0
 13  8  1  0
 14  3  1  0
 15  2  1  0
 16 14  2  0
 17  7  1  0
 18 16  1  0
 19 10  1  0
 20 13  1  0
 21 17  2  0
 22 19  2  0
 10  7  1  0
 13 18  2  0
 22 21  1  0
  8 23  1  0
  9 24  1  0
 11 25  1  0
 12 26  1  0
 14 27  1  0
 15 28  1  0
 15 29  1  0
 15 30  1  0
 16 31  1  0
 17 32  1  0
 18 33  1  0
 19 34  1  0
 20 35  1  0
 20 36  1  0
 20 37  1  0
 21 38  1  0
 22 39  1  0
M  END
> <Uni-Dock RESULT> 
ENERGY=   -5.036  LOWER_BOUND=    0.000  UPPER_BOUND=    0.000
INTER + INTRA:          -5.036
INTER:                  -5.036
INTRA:                   0.000
UNBOUND:                 0.000

$$$$

     RDKit          3D

 39 41  0  0  0  0  0  0  0  0999 V2000
   49.4931    7.6776   16.6775 C   0  0  0  0  0  0  0  0  0  0  0  0
   48.5945    8.7233   16.9740 N   0  0  0  0  0  0  0  0  0  0  0  0
   48.0980    8.9696   18.3025 C   0  0  0  0  0  0  0  0  0  0  0  0
   50.0387    7.0533   17.8167 O   0  0  0  0  0  0  0  0  0  0  0  0
   50.0121    7.2220   15.1441 S   0  0  0  0  0  0  0  0  0  0  0  0
   50.8977    5.9271   17.8302 C   0  0  0  0  0  0  0  0  0  0  0  0
   51.2092    3.5359   17.7204 C   0  0  0  0  0  0  0  0  0  0  0  0
   47.8609   10.2806   18.7503 C   0  0  0  0  0  0  0  0  0  0  0  0
   50.3632    4.6522   17.6575 C   0  0  0  0  0  0  0  0  0  0  0  0
   52.5910    3.7235   17.9752 C   0  0  0  0  0  0  0  0  0  0  0  0
   53.0918    5.0246   18.1643 C   0  0  0  0  0  0  0  0  0  0  0  0
   52.2450    6.1303   18.0998 C   0  0  0  0  0  0  0  0  0  0  0  0
   47.3622   10.5385   20.0381 C   0  0  0  0  0  0  0  0  0  0  0  0
   47.7843    7.9148   19.1700 C   0  0  0  0  0  0  0  0  0  0  0  0
   48.2128    9.6944   15.9417 C   0  0  0  0  0  0  0  0  0  0  0  0
   47.2725    8.1591   20.4473 C   0  0  0  0  0  0  0  0  0  0  0  0
   50.7143    2.2349   17.5372 C   0  0  0  0  0  0  0  0  0  0  0  0
   47.0600    9.4653   20.8791 C   0  0  0  0  0  0  0  0  0  0  0  0
   53.4333    2.6021   18.0372 C   0  0  0  0  0  0  0  0  0  0  0  0
   47.1060   11.9484   20.4831 C   0  0  0  0  0  0  0  0  0  0  0  0
   51.5674    1.1322   17.6024 C   0  0  0  0  0  0  0  0  0  0  0  0
   52.9244    1.3155   17.8518 C   0  0  0  0  0  0  0  0  0  0  0  0
   48.0962   11.1301   18.1143 H   0  0  0  0  0  0  0  0  0  0  0  0
   49.3000    4.5345   17.4721 H   0  0  0  0  0  0  0  0  0  0  0  0
   54.1488    5.1827   18.3659 H   0  0  0  0  0  0  0  0  0  0  0  0
   52.6324    7.1321   18.2542 H   0  0  0  0  0  0  0  0  0  0  0  0
   47.8895    6.8795   18.8578 H   0  0  0  0  0  0  0  0  0  0  0  0
   48.1279    9.2240   14.9594 H   0  0  0  0  0  0  0  0  0  0  0  0
   48.9780   10.4756   15.8935 H   0  0  0  0  0  0  0  0  0  0  0  0
   47.2338   10.1334   16.1604 H   0  0  0  0  0  0  0  0  0  0  0  0
   47.0300    7.3246   21.1006 H   0  0  0  0  0  0  0  0  0  0  0  0
   49.6575    2.0711   17.3388 H   0  0  0  0  0  0  0  0  0  0  0  0
   46.6553    9.6394   21.8735 H   0  0  0  0  0  0  0  0  0  0  0  0
   54.4967    2.7236   18.2306 H   0  0  0  0  0  0  0  0  0  0  0  0
   47.8421   12.6336   20.0497 H   0  0  0  0  0  0  0  0  0  0  0  0
   46.1041   12.2616   20.1741 H   0  0  0  0  0  0  0  0  0  0  0  0
   47.1833   12.0362   21.5720 H   0  0  0  0  0  0  0  0  0  0  0  0
   51.1714    0.1306   17.4566 H   0  0  0  0  0  0  0  0  0  0  0  0
   53.5892    0.4571   17.9015 H   0  0  0  0  0  0  0  0  0  0  0  0
  2  1  1  0
  3  2  1  0
  4  1  1  0
  5  1  2  0
  6  4  1  0
  7  9  2  0
  8  3  2  0
  9  6  1  0
 10 11  2  0
 11 12  1  0
 12  6  2  0
 13  8  1  0
 14  3  1  0
 15  2  1  0
 16 14  2  0
 17  7  1  0
 18 16  1  0
 19 10  1  0
 20 13  1  0
 21 17  2  0
 22 19  2  0
 10  7  1  0
 13 18  2  0
 22 21  1  0
  8 23  1  0
  9 24  1  0
 11 25  1  0
 12 26  1  0
 14 27  1  0
 15 28  1  0
 15 29  1  0
 15 30  1  0
 16 31  1  0
 17 32  1  0
 18 33  1  0
 19 34  1  0
 20 35  1  0
 20 36  1  0
 20 37  1  0
 21 38  1  0
 22 39  1  0
M  END
> <Uni-Dock RESULT> 
ENERGY=   -4.651  LOWER_BOUND=    2.501  UPPER_BOUND=    7.837
INTER + INTRA:          -4.651
INTER:                  -4.651
INTRA:                   0.000
UNBOUND:                 0.000

$$$$

     RDKit          3D

 39 41  0  0  0  0  0  0  0  0999 V2000
   47.7977    6.9189   21.3074 C   0  0  0  0  0  0  0  0  0  0  0  0
   47.7231    8.2269   21.8295 N   0  0  0  0  0  0  0  0  0  0  0  0
   48.0335    9.3955   21.0485 C   0  0  0  0  0  0  0  0  0  0  0  0
   47.9695    6.8709   19.9097 O   0  0  0  0  0  0  0  0  0  0  0  0
   47.5980    5.4925   22.1756 S   0  0  0  0  0  0  0  0  0  0  0  0
   48.1601    5.7081   19.1237 C   0  0  0  0  0  0  0  0  0  0  0  0
   49.6136    3.9846   18.2613 C   0  0  0  0  0  0  0  0  0  0  0  0
   47.3226   10.5938   21.2332 C   0  0  0  0  0  0  0  0  0  0  0  0
   49.4158    5.1065   19.0786 C   0  0  0  0  0  0  0  0  0  0  0  0
   48.5363    3.4924   17.4825 C   0  0  0  0  0  0  0  0  0  0  0  0
   47.2875    4.1379   17.5384 C   0  0  0  0  0  0  0  0  0  0  0  0
   47.0976    5.2527   18.3538 C   0  0  0  0  0  0  0  0  0  0  0  0
   47.6222   11.7481   20.4906 C   0  0  0  0  0  0  0  0  0  0  0  0
   49.0848    9.3942   20.1220 C   0  0  0  0  0  0  0  0  0  0  0  0
   47.2027    8.4620   23.1816 C   0  0  0  0  0  0  0  0  0  0  0  0
   49.4021   10.5413   19.3894 C   0  0  0  0  0  0  0  0  0  0  0  0
   50.8589    3.3393   18.1979 C   0  0  0  0  0  0  0  0  0  0  0  0
   48.6756   11.7142   19.5743 C   0  0  0  0  0  0  0  0  0  0  0  0
   48.7402    2.3689   16.6660 C   0  0  0  0  0  0  0  0  0  0  0  0
   46.8547   13.0169   20.7197 C   0  0  0  0  0  0  0  0  0  0  0  0
   51.0424    2.2233   17.3801 C   0  0  0  0  0  0  0  0  0  0  0  0
   49.9849    1.7389   16.6156 C   0  0  0  0  0  0  0  0  0  0  0  0
   46.4944   10.6394   21.9358 H   0  0  0  0  0  0  0  0  0  0  0  0
   50.2271    5.5078   19.6782 H   0  0  0  0  0  0  0  0  0  0  0  0
   46.4537    3.7743   16.9421 H   0  0  0  0  0  0  0  0  0  0  0  0
   46.1356    5.7537   18.3888 H   0  0  0  0  0  0  0  0  0  0  0  0
   49.7081    8.5159   19.9797 H   0  0  0  0  0  0  0  0  0  0  0  0
   47.4939    7.6640   23.8685 H   0  0  0  0  0  0  0  0  0  0  0  0
   46.1100    8.5061   23.1353 H   0  0  0  0  0  0  0  0  0  0  0  0
   47.6039    9.3914   23.5991 H   0  0  0  0  0  0  0  0  0  0  0  0
   50.2265   10.5187   18.6810 H   0  0  0  0  0  0  0  0  0  0  0  0
   51.6968    3.7010   18.7896 H   0  0  0  0  0  0  0  0  0  0  0  0
   48.9384   12.6006   19.0014 H   0  0  0  0  0  0  0  0  0  0  0  0
   47.9269    1.9743   16.0610 H   0  0  0  0  0  0  0  0  0  0  0  0
   45.8110   12.8010   20.9708 H   0  0  0  0  0  0  0  0  0  0  0  0
   47.3070   13.5845   21.5387 H   0  0  0  0  0  0  0  0  0  0  0  0
   46.8492   13.6401   19.8191 H   0  0  0  0  0  0  0  0  0  0  0  0
   52.0111    1.7320   17.3421 H   0  0  0  0  0  0  0  0  0  0  0  0
   50.1272    0.8692   15.9795 H   0  0  0  0  0  0  0  0  0  0  0  0
  2  1  1  0
  3  2  1  0
  4  1  1  0
  5  1  2  0
  6  4  1  0
  7  9  2  0
  8  3  2  0
  9  6  1  0
 10 11  2  0
 11 12  1  0
 12  6  2  0
 13  8  1  0
 14  3  1  0
 15  2  1  0
 16 14  2  0
 17  7  1  0
 18 16  1  0
 19 10  1  0
 20 13  1  0
 21 17  2  0
 22 19  2  0
 10  7  1  0
 13 18  2  0
 22 21  1  0
  8 23  1  0
  9 24  1  0
 11 25  1  0
 12 26  1  0
 14 27  1  0
 15 28  1  0
 15 29  1  0
 15 30  1  0
 16 31  1  0
 17 32  1  0
 18 33  1  0
 19 34  1  0
 20 35  1  0
 20 36  1  0
 20 37  1  0
 21 38  1  0
 22 39  1  0
M  END
> <Uni-Dock RESULT> 
ENERGY=   -4.630  LOWER_BOUND=    2.463  UPPER_BOUND=    7.868
INTER + INTRA:          -4.630
INTER:                  -4.630
INTRA:                   0.000
UNBOUND:                 0.000

$$$$

     RDKit          3D

 39 41  0  0  0  0  0  0  0  0999 V2000
   44.7898    4.8992   11.5884 C   0  0  0  0  0  0  0  0  0  0  0  0
   44.5001    3.7735   10.7897 N   0  0  0  0  0  0  0  0  0  0  0  0
   45.2098    3.4796    9.5724 C   0  0  0  0  0  0  0  0  0  0  0  0
   45.9735    5.5700   11.2220 O   0  0  0  0  0  0  0  0  0  0  0  0
   43.9258    5.4041   12.9400 S   0  0  0  0  0  0  0  0  0  0  0  0
   46.4696    6.7716   11.7844 C   0  0  0  0  0  0  0  0  0  0  0  0
   46.4446    9.1816   11.9186 C   0  0  0  0  0  0  0  0  0  0  0  0
   45.4767    2.1514    9.1980 C   0  0  0  0  0  0  0  0  0  0  0  0
   45.9186    7.9911   11.3972 C   0  0  0  0  0  0  0  0  0  0  0  0
   47.5388    9.1238   12.8180 C   0  0  0  0  0  0  0  0  0  0  0  0
   48.0822    7.8749   13.1709 C   0  0  0  0  0  0  0  0  0  0  0  0
   47.5538    6.6950   12.6491 C   0  0  0  0  0  0  0  0  0  0  0  0
   46.1545    1.8457    8.0061 C   0  0  0  0  0  0  0  0  0  0  0  0
   45.6079    4.4989    8.6971 C   0  0  0  0  0  0  0  0  0  0  0  0
   43.5240    2.7727   11.2368 C   0  0  0  0  0  0  0  0  0  0  0  0
   46.2685    4.2056    7.5010 C   0  0  0  0  0  0  0  0  0  0  0  0
   45.9095   10.4309   11.5664 C   0  0  0  0  0  0  0  0  0  0  0  0
   46.5388    2.8845    7.1555 C   0  0  0  0  0  0  0  0  0  0  0  0
   48.0614   10.3189   13.3367 C   0  0  0  0  0  0  0  0  0  0  0  0
   46.4129    0.4173    7.6263 C   0  0  0  0  0  0  0  0  0  0  0  0
   46.4427   11.6085   12.0926 C   0  0  0  0  0  0  0  0  0  0  0  0
   47.5165   11.5526   12.9763 C   0  0  0  0  0  0  0  0  0  0  0  0
   45.1927    1.3287    9.8493 H   0  0  0  0  0  0  0  0  0  0  0  0
   45.0863    8.0091   10.7003 H   0  0  0  0  0  0  0  0  0  0  0  0
   48.9252    7.8161   13.8555 H   0  0  0  0  0  0  0  0  0  0  0  0
   47.9801    5.7335   12.9166 H   0  0  0  0  0  0  0  0  0  0  0  0
   45.3760    5.5400    8.9035 H   0  0  0  0  0  0  0  0  0  0  0  0
   42.6915    3.2347   11.7724 H   0  0  0  0  0  0  0  0  0  0  0  0
   44.0255    2.0666   11.9062 H   0  0  0  0  0  0  0  0  0  0  0  0
   43.0873    2.2436   10.3833 H   0  0  0  0  0  0  0  0  0  0  0  0
   46.5620    5.0126    6.8342 H   0  0  0  0  0  0  0  0  0  0  0  0
   45.0687   10.4954   10.8794 H   0  0  0  0  0  0  0  0  0  0  0  0
   47.0481    2.6716    6.2183 H   0  0  0  0  0  0  0  0  0  0  0  0
   48.9002   10.2972   14.0289 H   0  0  0  0  0  0  0  0  0  0  0  0
   46.5960   -0.1953    8.5153 H   0  0  0  0  0  0  0  0  0  0  0  0
   45.5512    0.0122    7.0870 H   0  0  0  0  0  0  0  0  0  0  0  0
   47.2993    0.3353    6.9882 H   0  0  0  0  0  0  0  0  0  0  0  0
   46.0174   12.5689   11.8132 H   0  0  0  0  0  0  0  0  0  0  0  0
   47.9312   12.4694   13.3872 H   0  0  0  0  0  0  0  0  0  0  0  0
  2  1  1  0
  3  2  1  0
  4  1  1  0
  5  1  2  0
  6  4  1  0
  7  9  2  0
  8  3  2  0
  9  6  1  0
 10 11  2  0
 11 12  1  0
 12  6  2  0
 13  8  1  0
 14  3  1  0
 15  2  1  0
 16 14  2  0
 17  7  1  0
 18 16  1  0
 19 10  1  0
 20 13  1  0
 21 17  2  0
 22 19  2  0
 10  7  1  0
 13 18  2  0
 22 21  1  0
  8 23  1  0
  9 24  1  0
 11 25  1  0
 12 26  1  0
 14 27  1  0
 15 28  1  0
 15 29  1  0
 15 30  1  0
 16 31  1  0
 17 32  1  0
 18 33  1  0
 19 34  1  0
 20 35  1  0
 20 36  1  0
 20 37  1  0
 21 38  1  0
 22 39  1  0
M  END
> <Uni-Dock RESULT> 
ENERGY=   -4.589  LOWER_BOUND=    8.188  UPPER_BOUND=    9.842
INTER + INTRA:          -4.589
INTER:                  -4.589
INTRA:                   0.000
UNBOUND:                 0.000

$$$$

     RDKit          3D

 39 41  0  0  0  0  0  0  0  0999 V2000
   49.2508    7.7033   13.5646 C   0  0  0  0  0  0  0  0  0  0  0  0
   50.0234    8.5821   14.3520 N   0  0  0  0  0  0  0  0  0  0  0  0
   49.6440    8.9701   15.6851 C   0  0  0  0  0  0  0  0  0  0  0  0
   48.2154    7.0622   14.2733 O   0  0  0  0  0  0  0  0  0  0  0  0
   49.5324    7.3080   11.9544 S   0  0  0  0  0  0  0  0  0  0  0  0
   47.2334    6.1972   13.7312 C   0  0  0  0  0  0  0  0  0  0  0  0
   45.1455    5.8790   12.5625 C   0  0  0  0  0  0  0  0  0  0  0  0
   50.6168    9.1791   16.6779 C   0  0  0  0  0  0  0  0  0  0  0  0
   46.1406    6.7350   13.0551 C   0  0  0  0  0  0  0  0  0  0  0  0
   45.2609    4.4823   12.7759 C   0  0  0  0  0  0  0  0  0  0  0  0
   46.3688    3.9769   13.4806 C   0  0  0  0  0  0  0  0  0  0  0  0
   47.3550    4.8338   13.9672 C   0  0  0  0  0  0  0  0  0  0  0  0
   50.2656    9.5728   17.9798 C   0  0  0  0  0  0  0  0  0  0  0  0
   48.3042    9.2047   16.0220 C   0  0  0  0  0  0  0  0  0  0  0  0
   51.3307    9.0534   13.8796 C   0  0  0  0  0  0  0  0  0  0  0  0
   47.9447    9.6122   17.3096 C   0  0  0  0  0  0  0  0  0  0  0  0
   44.0354    6.3780   11.8628 C   0  0  0  0  0  0  0  0  0  0  0  0
   48.9212    9.7979   18.2841 C   0  0  0  0  0  0  0  0  0  0  0  0
   44.2615    3.6300   12.2806 C   0  0  0  0  0  0  0  0  0  0  0  0
   51.3276    9.8017   19.0147 C   0  0  0  0  0  0  0  0  0  0  0  0
   43.0517    5.5148   11.3777 C   0  0  0  0  0  0  0  0  0  0  0  0
   43.1647    4.1433   11.5861 C   0  0  0  0  0  0  0  0  0  0  0  0
   51.6678    9.0024   16.4639 H   0  0  0  0  0  0  0  0  0  0  0  0
   46.0710    7.8090   12.9121 H   0  0  0  0  0  0  0  0  0  0  0  0
   46.4673    2.9081   13.6563 H   0  0  0  0  0  0  0  0  0  0  0  0
   48.2043    4.4422   14.5175 H   0  0  0  0  0  0  0  0  0  0  0  0
   47.5144    9.1181   15.2810 H   0  0  0  0  0  0  0  0  0  0  0  0
   51.3331    9.2149   12.7992 H   0  0  0  0  0  0  0  0  0  0  0  0
   52.0860    8.3002   14.1252 H   0  0  0  0  0  0  0  0  0  0  0  0
   51.5886   10.0143   14.3368 H   0  0  0  0  0  0  0  0  0  0  0  0
   46.8994    9.7948   17.5461 H   0  0  0  0  0  0  0  0  0  0  0  0
   43.9303    7.4464   11.6874 H   0  0  0  0  0  0  0  0  0  0  0  0
   48.6267   10.1213   19.2798 H   0  0  0  0  0  0  0  0  0  0  0  0
   44.3309    2.5552   12.4324 H   0  0  0  0  0  0  0  0  0  0  0  0
   52.1635    9.1082   18.8752 H   0  0  0  0  0  0  0  0  0  0  0  0
   51.7019   10.8277   18.9456 H   0  0  0  0  0  0  0  0  0  0  0  0
   50.9345    9.6364   20.0235 H   0  0  0  0  0  0  0  0  0  0  0  0
   42.1986    5.9144   10.8357 H   0  0  0  0  0  0  0  0  0  0  0  0
   42.3994    3.4707   11.2075 H   0  0  0  0  0  0  0  0  0  0  0  0
  2  1  1  0
  3  2  1  0
  4  1  1  0
  5  1  2  0
  6  4  1  0
  7  9  2  0
  8  3  2  0
  9  6  1  0
 10 11  2  0
 11 12  1  0
 12  6  2  0
 13  8  1  0
 14  3  1  0
 15  2  1  0
 16 14  2  0
 17  7  1  0
 18 16  1  0
 19 10  1  0
 20 13  1  0
 21 17  2  0
 22 19  2  0
 10  7  1  0
 13 18  2  0
 22 21  1  0
  8 23  1  0
  9 24  1  0
 11 25  1  0
 12 26  1  0
 14 27  1  0
 15 28  1  0
 15 29  1  0
 15 30  1  0
 16 31  1  0
 17 32  1  0
 18 33  1  0
 19 34  1  0
 20 35  1  0
 20 36  1  0
 20 37  1  0
 21 38  1  0
 22 39  1  0
M  END
> <Uni-Dock RESULT> 
ENERGY=   -4.205  LOWER_BOUND=    5.753  UPPER_BOUND=    8.616
INTER + INTRA:          -4.205
INTER:                  -4.205
INTRA:                   0.000
UNBOUND:                 0.000

$$$$

     RDKit          3D

 39 41  0  0  0  0  0  0  0  0999 V2000
   48.0017    7.6606   20.0021 C   0  0  0  0  0  0  0  0  0  0  0  0
   47.8426    9.0535   20.1551 N   0  0  0  0  0  0  0  0  0  0  0  0
   48.2319    9.9973   19.1404 C   0  0  0  0  0  0  0  0  0  0  0  0
   48.3493    7.2656   18.6951 O   0  0  0  0  0  0  0  0  0  0  0  0
   47.7151    6.4951   21.1803 S   0  0  0  0  0  0  0  0  0  0  0  0
   48.6547    5.9510   18.2652 C   0  0  0  0  0  0  0  0  0  0  0  0
   50.2306    4.1345   18.0567 C   0  0  0  0  0  0  0  0  0  0  0  0
   47.4858   11.1685   18.9231 C   0  0  0  0  0  0  0  0  0  0  0  0
   49.9148    5.4172   18.5262 C   0  0  0  0  0  0  0  0  0  0  0  0
   49.2676    3.4100   17.3103 C   0  0  0  0  0  0  0  0  0  0  0  0
   48.0123    3.9893   17.0491 C   0  0  0  0  0  0  0  0  0  0  0  0
   47.7046    5.2650   17.5196 C   0  0  0  0  0  0  0  0  0  0  0  0
   47.8597   12.1078   17.9477 C   0  0  0  0  0  0  0  0  0  0  0  0
   49.3916    9.8089   18.3769 C   0  0  0  0  0  0  0  0  0  0  0  0
   47.1523    9.6012   21.3289 C   0  0  0  0  0  0  0  0  0  0  0  0
   49.7820   10.7446   17.4150 C   0  0  0  0  0  0  0  0  0  0  0  0
   51.4833    3.5533   18.3101 C   0  0  0  0  0  0  0  0  0  0  0  0
   49.0207   11.8906   17.2026 C   0  0  0  0  0  0  0  0  0  0  0  0
   49.5894    2.1261   16.8426 C   0  0  0  0  0  0  0  0  0  0  0  0
   47.0509   13.3558   17.7481 C   0  0  0  0  0  0  0  0  0  0  0  0
   51.7849    2.2755   17.8368 C   0  0  0  0  0  0  0  0  0  0  0  0
   50.8397    1.5631   17.1045 C   0  0  0  0  0  0  0  0  0  0  0  0
   46.5750   11.3531   19.4871 H   0  0  0  0  0  0  0  0  0  0  0  0
   50.6379    5.9957   19.0929 H   0  0  0  0  0  0  0  0  0  0  0  0
   47.2659    3.4469   16.4731 H   0  0  0  0  0  0  0  0  0  0  0  0
   46.7386    5.7128   17.3097 H   0  0  0  0  0  0  0  0  0  0  0  0
   50.0407    8.9535   18.5415 H   0  0  0  0  0  0  0  0  0  0  0  0
   47.3662    9.0194   22.2285 H   0  0  0  0  0  0  0  0  0  0  0  0
   46.0737    9.5808   21.1440 H   0  0  0  0  0  0  0  0  0  0  0  0
   47.4839   10.6241   21.5358 H   0  0  0  0  0  0  0  0  0  0  0  0
   50.6894   10.5806   16.8391 H   0  0  0  0  0  0  0  0  0  0  0  0
   52.2344    4.0929   18.8826 H   0  0  0  0  0  0  0  0  0  0  0  0
   49.3407   12.6127   16.4549 H   0  0  0  0  0  0  0  0  0  0  0  0
   48.8649    1.5526   16.2687 H   0  0  0  0  0  0  0  0  0  0  0  0
   45.9871   13.1625   17.9213 H   0  0  0  0  0  0  0  0  0  0  0  0
   47.3878   14.1341   18.4396 H   0  0  0  0  0  0  0  0  0  0  0  0
   47.1499   13.7275   16.7227 H   0  0  0  0  0  0  0  0  0  0  0  0
   52.7578    1.8366   18.0421 H   0  0  0  0  0  0  0  0  0  0  0  0
   51.0738    0.5675   16.7368 H   0  0  0  0  0  0  0  0  0  0  0  0
  2  1  1  0
  3  2  1  0
  4  1  1  0
  5  1  2  0
  6  4  1  0
  7  9  2  0
  8  3  2  0
  9  6  1  0
 10 11  2  0
 11 12  1  0
 12  6  2  0
 13  8  1  0
 14  3  1  0
 15  2  1  0
 16 14  2  0
 17  7  1  0
 18 16  1  0
 19 10  1  0
 20 13  1  0
 21 17  2  0
 22 19  2  0
 10  7  1  0
 13 18  2  0
 22 21  1  0
  8 23  1  0
  9 24  1  0
 11 25  1  0
 12 26  1  0
 14 27  1  0
 15 28  1  0
 15 29  1  0
 15 30  1  0
 16 31  1  0
 17 32  1  0
 18 33  1  0
 19 34  1  0
 20 35  1  0
 20 36  1  0
 20 37  1  0
 21 38  1  0
 22 39  1  0
M  END
> <Uni-Dock RESULT> 
ENERGY=   -4.154  LOWER_BOUND=    2.881  UPPER_BOUND=    7.880
INTER + INTRA:          -4.154
INTER:                  -4.154
INTRA:                   0.000
UNBOUND:                 0.000

$$$$

     RDKit          3D

 39 41  0  0  0  0  0  0  0  0999 V2000
   49.5619    9.5190   15.6842 C   0  0  0  0  0  0  0  0  0  0  0  0
   49.4194    9.8913   14.3314 N   0  0  0  0  0  0  0  0  0  0  0  0
   48.1702    9.7890   13.6236 C   0  0  0  0  0  0  0  0  0  0  0  0
   48.3401    9.2665   16.3388 O   0  0  0  0  0  0  0  0  0  0  0  0
   51.0024    9.4643   16.5504 S   0  0  0  0  0  0  0  0  0  0  0  0
   48.1760    8.7968   17.6650 C   0  0  0  0  0  0  0  0  0  0  0  0
   48.1414    6.9732   19.2461 C   0  0  0  0  0  0  0  0  0  0  0  0
   47.8123   10.7421   12.6545 C   0  0  0  0  0  0  0  0  0  0  0  0
   48.3525    7.4430   17.9421 C   0  0  0  0  0  0  0  0  0  0  0  0
   47.7360    7.8816   20.2560 C   0  0  0  0  0  0  0  0  0  0  0  0
   47.5484    9.2384   19.9346 C   0  0  0  0  0  0  0  0  0  0  0  0
   47.7606    9.6990   18.6359 C   0  0  0  0  0  0  0  0  0  0  0  0
   46.6043   10.6494   11.9434 C   0  0  0  0  0  0  0  0  0  0  0  0
   47.2988    8.7124   13.8358 C   0  0  0  0  0  0  0  0  0  0  0  0
   50.5316   10.5207   13.6095 C   0  0  0  0  0  0  0  0  0  0  0  0
   46.1021    8.6014   13.1226 C   0  0  0  0  0  0  0  0  0  0  0  0
   48.3225    5.6195   19.5715 C   0  0  0  0  0  0  0  0  0  0  0  0
   45.7570    9.5645   12.1785 C   0  0  0  0  0  0  0  0  0  0  0  0
   47.5261    7.4055   21.5598 C   0  0  0  0  0  0  0  0  0  0  0  0
   46.2559   11.6747   10.9047 C   0  0  0  0  0  0  0  0  0  0  0  0
   48.1090    5.1648   20.8737 C   0  0  0  0  0  0  0  0  0  0  0  0
   47.7116    6.0563   21.8660 C   0  0  0  0  0  0  0  0  0  0  0  0
   48.4541   11.5980   12.4615 H   0  0  0  0  0  0  0  0  0  0  0  0
   48.6551    6.7659   17.1492 H   0  0  0  0  0  0  0  0  0  0  0  0
   47.2322    9.9454   20.6983 H   0  0  0  0  0  0  0  0  0  0  0  0
   47.6072   10.7445   18.3889 H   0  0  0  0  0  0  0  0  0  0  0  0
   47.5498    7.9136   14.5281 H   0  0  0  0  0  0  0  0  0  0  0  0
   51.4950   10.1074   13.9167 H   0  0  0  0  0  0  0  0  0  0  0  0
   50.5253   11.5947   13.8208 H   0  0  0  0  0  0  0  0  0  0  0  0
   50.4485   10.3442   12.5321 H   0  0  0  0  0  0  0  0  0  0  0  0
   45.4448    7.7537   13.2993 H   0  0  0  0  0  0  0  0  0  0  0  0
   48.6352    4.9078   18.8107 H   0  0  0  0  0  0  0  0  0  0  0  0
   44.8254    9.4612   11.6269 H   0  0  0  0  0  0  0  0  0  0  0  0
   47.2156    8.0856   22.3498 H   0  0  0  0  0  0  0  0  0  0  0  0
   46.6308   12.6628   11.1915 H   0  0  0  0  0  0  0  0  0  0  0  0
   46.6933   11.3946    9.9416 H   0  0  0  0  0  0  0  0  0  0  0  0
   45.1704   11.7614   10.7878 H   0  0  0  0  0  0  0  0  0  0  0  0
   48.2549    4.1146   21.1124 H   0  0  0  0  0  0  0  0  0  0  0  0
   47.5464    5.7027   22.8804 H   0  0  0  0  0  0  0  0  0  0  0  0
  2  1  1  0
  3  2  1  0
  4  1  1  0
  5  1  2  0
  6  4  1  0
  7  9  2  0
  8  3  2  0
  9  6  1  0
 10 11  2  0
 11 12  1  0
 12  6  2  0
 13  8  1  0
 14  3  1  0
 15  2  1  0
 16 14  2  0
 17  7  1  0
 18 16  1  0
 19 10  1  0
 20 13  1  0
 21 17  2  0
 22 19  2  0
 10  7  1  0
 13 18  2  0
 22 21  1  0
  8 23  1  0
  9 24  1  0
 11 25  1  0
 12 26  1  0
 14 27  1  0
 15 28  1  0
 15 29  1  0
 15 30  1  0
 16 31  1  0
 17 32  1  0
 18 33  1  0
 19 34  1  0
 20 35  1  0
 20 36  1  0
 20 37  1  0
 21 38  1  0
 22 39  1  0
M  END
> <Uni-Dock RESULT> 
ENERGY=   -4.120  LOWER_BOUND=    5.566  UPPER_BOUND=    7.704
INTER + INTRA:          -4.120
INTER:                  -4.120
INTRA:                   0.000
UNBOUND:                 0.000

$$$$

     RDKit          3D

 39 41  0  0  0  0  0  0  0  0999 V2000
   47.8264    6.3608   14.0539 C   0  0  0  0  0  0  0  0  0  0  0  0
   46.8348    5.3606   14.1284 N   0  0  0  0  0  0  0  0  0  0  0  0
   45.7501    5.2685   13.1866 C   0  0  0  0  0  0  0  0  0  0  0  0
   47.7971    7.1061   12.8585 O   0  0  0  0  0  0  0  0  0  0  0  0
   49.0413    6.6377   15.1834 S   0  0  0  0  0  0  0  0  0  0  0  0
   48.6105    8.2213   12.5408 C   0  0  0  0  0  0  0  0  0  0  0  0
   49.0783   10.5830   12.7153 C   0  0  0  0  0  0  0  0  0  0  0  0
   45.2502    4.0177   12.7853 C   0  0  0  0  0  0  0  0  0  0  0  0
   48.3005    9.4719   13.0707 C   0  0  0  0  0  0  0  0  0  0  0  0
   50.1563   10.4169   11.8099 C   0  0  0  0  0  0  0  0  0  0  0  0
   50.4273    9.1422   11.2794 C   0  0  0  0  0  0  0  0  0  0  0  0
   49.6502    8.0416   11.6376 C   0  0  0  0  0  0  0  0  0  0  0  0
   44.1823    3.9094   11.8790 C   0  0  0  0  0  0  0  0  0  0  0  0
   45.1233    6.4162   12.6831 C   0  0  0  0  0  0  0  0  0  0  0  0
   46.9360    4.2819   15.1185 C   0  0  0  0  0  0  0  0  0  0  0  0
   44.0497    6.3203   11.7935 C   0  0  0  0  0  0  0  0  0  0  0  0
   48.8097   11.8581   13.2378 C   0  0  0  0  0  0  0  0  0  0  0  0
   43.5794    5.0723   11.3946 C   0  0  0  0  0  0  0  0  0  0  0  0
   50.9315   11.5329   11.4576 C   0  0  0  0  0  0  0  0  0  0  0  0
   43.6611    2.5602   11.4798 C   0  0  0  0  0  0  0  0  0  0  0  0
   49.5917   12.9559   12.8757 C   0  0  0  0  0  0  0  0  0  0  0  0
   50.6508   12.7936   11.9873 C   0  0  0  0  0  0  0  0  0  0  0  0
   45.7099    3.1006   13.1447 H   0  0  0  0  0  0  0  0  0  0  0  0
   47.4644    9.5745   13.7556 H   0  0  0  0  0  0  0  0  0  0  0  0
   51.2478    9.0014   10.5795 H   0  0  0  0  0  0  0  0  0  0  0  0
   49.8562    7.0611   11.2206 H   0  0  0  0  0  0  0  0  0  0  0  0
   45.4263    7.4091   13.0034 H   0  0  0  0  0  0  0  0  0  0  0  0
   47.3591    4.6392   16.0601 H   0  0  0  0  0  0  0  0  0  0  0  0
   47.5831    3.4955   14.7171 H   0  0  0  0  0  0  0  0  0  0  0  0
   45.9474    3.8763   15.3575 H   0  0  0  0  0  0  0  0  0  0  0  0
   43.5746    7.2245   11.4211 H   0  0  0  0  0  0  0  0  0  0  0  0
   47.9881   12.0050   13.9353 H   0  0  0  0  0  0  0  0  0  0  0  0
   42.7390    5.0137   10.7067 H   0  0  0  0  0  0  0  0  0  0  0  0
   51.7638   11.4275   10.7652 H   0  0  0  0  0  0  0  0  0  0  0  0
   44.4725    1.8261   11.4371 H   0  0  0  0  0  0  0  0  0  0  0  0
   42.9121    2.2203   12.2015 H   0  0  0  0  0  0  0  0  0  0  0  0
   43.2031    2.5951   10.4855 H   0  0  0  0  0  0  0  0  0  0  0  0
   49.3741   13.9372   13.2893 H   0  0  0  0  0  0  0  0  0  0  0  0
   51.2608   13.6480   11.7060 H   0  0  0  0  0  0  0  0  0  0  0  0
  2  1  1  0
  3  2  1  0
  4  1  1  0
  5  1  2  0
  6  4  1  0
  7  9  2  0
  8  3  2  0
  9  6  1  0
 10 11  2  0
 11 12  1  0
 12  6  2  0
 13  8  1  0
 14  3  1  0
 15  2  1  0
 16 14  2  0
 17  7  1  0
 18 16  1  0
 19 10  1  0
 20 13  1  0
 21 17  2  0
 22 19  2  0
 10  7  1  0
 13 18  2  0
 22 21  1  0
  8 23  1  0
  9 24  1  0
 11 25  1  0
 12 26  1  0
 14 27  1  0
 15 28  1  0
 15 29  1  0
 15 30  1  0
 16 31  1  0
 17 32  1  0
 18 33  1  0
 19 34  1  0
 20 35  1  0
 20 36  1  0
 20 37  1  0
 21 38  1  0
 22 39  1  0
M  END
> <Uni-Dock RESULT> 
ENERGY=   -4.058  LOWER_BOUND=    7.261  UPPER_BOUND=    9.221
INTER + INTRA:          -4.058
INTER:                  -4.058
INTRA:                   0.000
UNBOUND:                 0.000

$$$$
