
     RDKit          3D

 39 41  0  0  0  0  0  0  0  0999 V2000
   43.6634    5.0562   11.5481 C   0  0  0  0  0  0  0  0  0  0  0  0
   44.9279    5.3977   12.0424 N   0  0  0  0  0  0  0  0  0  0  0  0
   45.3484    6.7500   12.3102 C   0  0  0  0  0  0  0  0  0  0  0  0
   43.5824    4.0186   10.6117 O   0  0  0  0  0  0  0  0  0  0  0  0
   42.1755    5.6308   12.0604 S   0  0  0  0  0  0  0  0  0  0  0  0
   44.5686    3.8033    9.6202 C   0  0  0  0  0  0  0  0  0  0  0  0
   45.8313    2.1851    8.3367 C   0  0  0  0  0  0  0  0  0  0  0  0
   46.4606    7.0244   13.1262 C   0  0  0  0  0  0  0  0  0  0  0  0
   44.8745    2.4768    9.3195 C   0  0  0  0  0  0  0  0  0  0  0  0
   46.4641    3.2480    7.6475 C   0  0  0  0  0  0  0  0  0  0  0  0
   46.1164    4.5752    7.9537 C   0  0  0  0  0  0  0  0  0  0  0  0
   45.1629    4.8564    8.9328 C   0  0  0  0  0  0  0  0  0  0  0  0
   46.9039    8.3386   13.3603 C   0  0  0  0  0  0  0  0  0  0  0  0
   44.7104    7.8440   11.7069 C   0  0  0  0  0  0  0  0  0  0  0  0
   45.8127    4.3033   12.4342 C   0  0  0  0  0  0  0  0  0  0  0  0
   45.1323    9.1563   11.9436 C   0  0  0  0  0  0  0  0  0  0  0  0
   46.1740    0.8605    8.0215 C   0  0  0  0  0  0  0  0  0  0  0  0
   46.2186    9.4039   12.7755 C   0  0  0  0  0  0  0  0  0  0  0  0
   47.4231    2.9527    6.6656 C   0  0  0  0  0  0  0  0  0  0  0  0
   48.0631    8.5939   14.2786 C   0  0  0  0  0  0  0  0  0  0  0  0
   47.1300    0.5857    7.0425 C   0  0  0  0  0  0  0  0  0  0  0  0
   47.7540    1.6300    6.3662 C   0  0  0  0  0  0  0  0  0  0  0  0
   47.0063    6.2234   13.6157 H   0  0  0  0  0  0  0  0  0  0  0  0
   44.3683    1.6787    9.8558 H   0  0  0  0  0  0  0  0  0  0  0  0
   46.5845    5.4022    7.4240 H   0  0  0  0  0  0  0  0  0  0  0  0
   44.8959    5.8873    9.1409 H   0  0  0  0  0  0  0  0  0  0  0  0
   43.8837    7.7106   11.0158 H   0  0  0  0  0  0  0  0  0  0  0  0
   46.7710    4.3990   11.9150 H   0  0  0  0  0  0  0  0  0  0  0  0
   45.9578    4.3217   13.5191 H   0  0  0  0  0  0  0  0  0  0  0  0
   45.3768    3.3270   12.2042 H   0  0  0  0  0  0  0  0  0  0  0  0
   44.6096    9.9846   11.4715 H   0  0  0  0  0  0  0  0  0  0  0  0
   45.6962    0.0304    8.5371 H   0  0  0  0  0  0  0  0  0  0  0  0
   46.5302   10.4298   12.9574 H   0  0  0  0  0  0  0  0  0  0  0  0
   47.9200    3.7541    6.1232 H   0  0  0  0  0  0  0  0  0  0  0  0
   48.5686    9.5307   14.0212 H   0  0  0  0  0  0  0  0  0  0  0  0
   47.7136    8.6546   15.3138 H   0  0  0  0  0  0  0  0  0  0  0  0
   48.8056    7.7929   14.1999 H   0  0  0  0  0  0  0  0  0  0  0  0
   47.3856   -0.4443    6.8073 H   0  0  0  0  0  0  0  0  0  0  0  0
   48.4974    1.4163    5.6025 H   0  0  0  0  0  0  0  0  0  0  0  0
  2  1  1  0
  3  2  1  0
  4  1  1  0
  5  1  2  0
  6  4  1  0
  7  9  2  0
  8  3  2  0
  9  6  1  0
 10 11  2  0
 11 12  1  0
 12  6  2  0
 13  8  1  0
 14  3  1  0
 15  2  1  0
 16 14  2  0
 17  7  1  0
 18 16  1  0
 19 10  1  0
 20 13  1  0
 21 17  2  0
 22 19  2  0
 10  7  1  0
 13 18  2  0
 22 21  1  0
  8 23  1  0
  9 24  1  0
 11 25  1  0
 12 26  1  0
 14 27  1  0
 15 28  1  0
 15 29  1  0
 15 30  1  0
 16 31  1  0
 17 32  1  0
 18 33  1  0
 19 34  1  0
 20 35  1  0
 20 36  1  0
 20 37  1  0
 21 38  1  0
 22 39  1  0
M  END
> <Uni-Dock RESULT> 
ENERGY=   -7.638  LOWER_BOUND=    0.000  UPPER_BOUND=    0.000
INTER + INTRA:          -7.638
INTER:                  -7.638
INTRA:                   0.000
UNBOUND:                 0.000

$$$$

     RDKit          3D

 39 41  0  0  0  0  0  0  0  0999 V2000
   48.8952    6.1767   17.2085 C   0  0  0  0  0  0  0  0  0  0  0  0
   50.0481    5.6598   17.8113 N   0  0  0  0  0  0  0  0  0  0  0  0
   50.4857    4.2937   17.6708 C   0  0  0  0  0  0  0  0  0  0  0  0
   48.1260    7.0909   17.9383 O   0  0  0  0  0  0  0  0  0  0  0  0
   48.3850    5.9647   15.6270 S   0  0  0  0  0  0  0  0  0  0  0  0
   47.9427    6.9921   19.3378 C   0  0  0  0  0  0  0  0  0  0  0  0
   47.7273    8.1716   21.4408 C   0  0  0  0  0  0  0  0  0  0  0  0
   51.8031    3.9099   17.9796 C   0  0  0  0  0  0  0  0  0  0  0  0
   47.9197    8.1892   20.0520 C   0  0  0  0  0  0  0  0  0  0  0  0
   47.5405    6.9320   22.0997 C   0  0  0  0  0  0  0  0  0  0  0  0
   47.5424    5.7429   21.3498 C   0  0  0  0  0  0  0  0  0  0  0  0
   47.7342    5.7698   19.9681 C   0  0  0  0  0  0  0  0  0  0  0  0
   52.2286    2.5726   17.8853 C   0  0  0  0  0  0  0  0  0  0  0  0
   49.5944    3.2788   17.2920 C   0  0  0  0  0  0  0  0  0  0  0  0
   50.9215    6.6022   18.5065 C   0  0  0  0  0  0  0  0  0  0  0  0
   50.0090    1.9477   17.1801 C   0  0  0  0  0  0  0  0  0  0  0  0
   47.7151    9.3580   22.1916 C   0  0  0  0  0  0  0  0  0  0  0  0
   51.3239    1.5969   17.4656 C   0  0  0  0  0  0  0  0  0  0  0  0
   47.3502    6.9176   23.4905 C   0  0  0  0  0  0  0  0  0  0  0  0
   53.6562    2.2105   18.1737 C   0  0  0  0  0  0  0  0  0  0  0  0
   47.5248    9.3245   23.5738 C   0  0  0  0  0  0  0  0  0  0  0  0
   47.3434    8.1064   24.2222 C   0  0  0  0  0  0  0  0  0  0  0  0
   52.5414    4.6435   18.2891 H   0  0  0  0  0  0  0  0  0  0  0  0
   48.0561    9.1282   19.5222 H   0  0  0  0  0  0  0  0  0  0  0  0
   47.3876    4.7840   21.8398 H   0  0  0  0  0  0  0  0  0  0  0  0
   47.7140    4.8420   19.4058 H   0  0  0  0  0  0  0  0  0  0  0  0
   48.5464    3.4852   17.0970 H   0  0  0  0  0  0  0  0  0  0  0  0
   51.0893    6.2623   19.5329 H   0  0  0  0  0  0  0  0  0  0  0  0
   51.8707    6.6860   17.9675 H   0  0  0  0  0  0  0  0  0  0  0  0
   50.4962    7.6095   18.5278 H   0  0  0  0  0  0  0  0  0  0  0  0
   49.2979    1.1852   16.8719 H   0  0  0  0  0  0  0  0  0  0  0  0
   47.8530   10.3202   21.7032 H   0  0  0  0  0  0  0  0  0  0  0  0
   51.6345    0.5595   17.3659 H   0  0  0  0  0  0  0  0  0  0  0  0
   47.2033    5.9766   24.0160 H   0  0  0  0  0  0  0  0  0  0  0  0
   53.7378    1.1700   18.5054 H   0  0  0  0  0  0  0  0  0  0  0  0
   54.2644    2.3425   17.2737 H   0  0  0  0  0  0  0  0  0  0  0  0
   54.0628    2.8383   18.9734 H   0  0  0  0  0  0  0  0  0  0  0  0
   47.5167   10.2504   24.1432 H   0  0  0  0  0  0  0  0  0  0  0  0
   47.1935    8.0800   25.2985 H   0  0  0  0  0  0  0  0  0  0  0  0
  2  1  1  0
  3  2  1  0
  4  1  1  0
  5  1  2  0
  6  4  1  0
  7  9  2  0
  8  3  2  0
  9  6  1  0
 10 11  2  0
 11 12  1  0
 12  6  2  0
 13  8  1  0
 14  3  1  0
 15  2  1  0
 16 14  2  0
 17  7  1  0
 18 16  1  0
 19 10  1  0
 20 13  1  0
 21 17  2  0
 22 19  2  0
 10  7  1  0
 13 18  2  0
 22 21  1  0
  8 23  1  0
  9 24  1  0
 11 25  1  0
 12 26  1  0
 14 27  1  0
 15 28  1  0
 15 29  1  0
 15 30  1  0
 16 31  1  0
 17 32  1  0
 18 33  1  0
 19 34  1  0
 20 35  1  0
 20 36  1  0
 20 37  1  0
 21 38  1  0
 22 39  1  0
M  END
> <Uni-Dock RESULT> 
ENERGY=   -4.957  LOWER_BOUND=    8.334  UPPER_BOUND=   12.077
INTER + INTRA:          -4.957
INTER:                  -4.957
INTRA:                   0.000
UNBOUND:                 0.000

$$$$

     RDKit          3D

 39 41  0  0  0  0  0  0  0  0999 V2000
   49.1093    7.9376   21.2870 C   0  0  0  0  0  0  0  0  0  0  0  0
   49.1005    8.7316   20.1340 N   0  0  0  0  0  0  0  0  0  0  0  0
   48.1999    9.8375   19.9259 C   0  0  0  0  0  0  0  0  0  0  0  0
   49.3310    6.5635   21.1364 O   0  0  0  0  0  0  0  0  0  0  0  0
   49.0477    8.4484   22.8812 S   0  0  0  0  0  0  0  0  0  0  0  0
   48.8337    5.8234   20.0378 C   0  0  0  0  0  0  0  0  0  0  0  0
   49.2315    4.0393   18.4507 C   0  0  0  0  0  0  0  0  0  0  0  0
   48.4519   10.8143   18.9458 C   0  0  0  0  0  0  0  0  0  0  0  0
   49.6626    4.8243   19.5297 C   0  0  0  0  0  0  0  0  0  0  0  0
   47.9458    4.2623   17.9006 C   0  0  0  0  0  0  0  0  0  0  0  0
   47.1215    5.2594   18.4506 C   0  0  0  0  0  0  0  0  0  0  0  0
   47.5584    6.0357   19.5246 C   0  0  0  0  0  0  0  0  0  0  0  0
   47.5587   11.8743   18.7069 C   0  0  0  0  0  0  0  0  0  0  0  0
   46.9981    9.9426   20.6417 C   0  0  0  0  0  0  0  0  0  0  0  0
   50.1594    8.5026   19.1539 C   0  0  0  0  0  0  0  0  0  0  0  0
   46.1090   11.0001   20.4239 C   0  0  0  0  0  0  0  0  0  0  0  0
   50.0483    3.0360   17.9051 C   0  0  0  0  0  0  0  0  0  0  0  0
   46.3928   11.9685   19.4673 C   0  0  0  0  0  0  0  0  0  0  0  0
   47.5180    3.4761   16.8191 C   0  0  0  0  0  0  0  0  0  0  0  0
   47.8877   12.9259   17.6879 C   0  0  0  0  0  0  0  0  0  0  0  0
   49.6064    2.2642   16.8295 C   0  0  0  0  0  0  0  0  0  0  0  0
   48.3437    2.4843   16.2870 C   0  0  0  0  0  0  0  0  0  0  0  0
   49.3584   10.7869   18.3489 H   0  0  0  0  0  0  0  0  0  0  0  0
   50.6412    4.6664   19.9751 H   0  0  0  0  0  0  0  0  0  0  0  0
   46.1264    5.4341   18.0472 H   0  0  0  0  0  0  0  0  0  0  0  0
   46.8994    6.7877   19.9458 H   0  0  0  0  0  0  0  0  0  0  0  0
   46.7029    9.1947   21.3713 H   0  0  0  0  0  0  0  0  0  0  0  0
   49.7182    8.3141   18.1706 H   0  0  0  0  0  0  0  0  0  0  0  0
   50.8201    9.3747   19.1198 H   0  0  0  0  0  0  0  0  0  0  0  0
   50.7922    7.6547   19.4310 H   0  0  0  0  0  0  0  0  0  0  0  0
   45.1912   11.0614   21.0035 H   0  0  0  0  0  0  0  0  0  0  0  0
   51.0375    2.8470   18.3163 H   0  0  0  0  0  0  0  0  0  0  0  0
   45.6966   12.7898   19.3146 H   0  0  0  0  0  0  0  0  0  0  0  0
   46.5335    3.6298   16.3826 H   0  0  0  0  0  0  0  0  0  0  0  0
   46.9766   13.3844   17.2890 H   0  0  0  0  0  0  0  0  0  0  0  0
   48.5055   13.7065   18.1423 H   0  0  0  0  0  0  0  0  0  0  0  0
   48.4291   12.4913   16.8411 H   0  0  0  0  0  0  0  0  0  0  0  0
   50.2483    1.4900   16.4170 H   0  0  0  0  0  0  0  0  0  0  0  0
   47.9986    1.8823   15.4503 H   0  0  0  0  0  0  0  0  0  0  0  0
  2  1  1  0
  3  2  1  0
  4  1  1  0
  5  1  2  0
  6  4  1  0
  7  9  2  0
  8  3  2  0
  9  6  1  0
 10 11  2  0
 11 12  1  0
 12  6  2  0
 13  8  1  0
 14  3  1  0
 15  2  1  0
 16 14  2  0
 17  7  1  0
 18 16  1  0
 19 10  1  0
 20 13  1  0
 21 17  2  0
 22 19  2  0
 10  7  1  0
 13 18  2  0
 22 21  1  0
  8 23  1  0
  9 24  1  0
 11 25  1  0
 12 26  1  0
 14 27  1  0
 15 28  1  0
 15 29  1  0
 15 30  1  0
 16 31  1  0
 17 32  1  0
 18 33  1  0
 19 34  1  0
 20 35  1  0
 20 36  1  0
 20 37  1  0
 21 38  1  0
 22 39  1  0
M  END
> <Uni-Dock RESULT> 
ENERGY=   -4.686  LOWER_BOUND=    8.351  UPPER_BOUND=    9.984
INTER + INTRA:          -4.686
INTER:                  -4.686
INTRA:                   0.000
UNBOUND:                 0.000

$$$$
