
     RDKit          3D

 21 12  0  0  0  0  0  0  0  0999 V2000
    0.0185    0.3974    0.0000 O   0  0  0  0  0  0  0  0  0  0  0  0
    0.0000    0.0000    0.0000 Mg  0  0  0  0  0 15  0  0  0  0  0  0
    0.0067    0.3978    0.0000 O   0  0  0  0  0  0  0  0  0  0  0  0
    0.0204    0.3973    0.0000 O   0  0  0  0  0  0  0  0  0  0  0  0
    0.0093    0.3977    0.0000 O   0  0  0  0  0  0  0  0  0  0  0  0
    0.0000    0.0000    0.0000 Cl  0  0  0  0  0  0  0  0  0  0  0  0
    0.0000    0.0000    0.0000 Cl  0  0  0  0  0  0  0  0  0  0  0  0
    0.0072    0.3978    0.0000 O   0  0  0  0  0  0  0  0  0  0  0  0
    0.0168    0.3975    0.0000 O   0  0  0  0  0  0  0  0  0  0  0  0
   -0.7719   -0.1632    0.0000 H   0  0  0  0  0  0  0  0  0  0  0  0
    0.7534   -0.2342    0.0000 H   0  0  0  0  0  0  0  0  0  0  0  0
    0.7600   -0.2117    0.0000 H   0  0  0  0  0  0  0  0  0  0  0  0
   -0.7667   -0.1860    0.0000 H   0  0  0  0  0  0  0  0  0  0  0  0
    0.7523   -0.2378    0.0000 H   0  0  0  0  0  0  0  0  0  0  0  0
   -0.7727   -0.1595    0.0000 H   0  0  0  0  0  0  0  0  0  0  0  0
   -0.7679   -0.1810    0.0000 H   0  0  0  0  0  0  0  0  0  0  0  0
    0.7586   -0.2167    0.0000 H   0  0  0  0  0  0  0  0  0  0  0  0
    0.7598   -0.2126    0.0000 H   0  0  0  0  0  0  0  0  0  0  0  0
   -0.7669   -0.1851    0.0000 H   0  0  0  0  0  0  0  0  0  0  0  0
    0.7544   -0.2309    0.0000 H   0  0  0  0  0  0  0  0  0  0  0  0
   -0.7712   -0.1665    0.0000 H   0  0  0  0  0  0  0  0  0  0  0  0
  1 10  1  0
  1 11  1  0
  3 12  1  0
  3 13  1  0
  4 14  1  0
  4 15  1  0
  5 16  1  0
  5 17  1  0
  8 18  1  0
  8 19  1  0
  9 20  1  0
  9 21  1  0
M  CHG  3   2   2   6  -1   7  -1
M  END
$$$$
