
     RDKit          3D

 21 12  0  0  0  0  0  0  0  0999 V2000
   -0.0026    0.3978    0.0000 O   0  0  0  0  0  0  0  0  0  0  0  0
    0.0000    0.0000    0.0000 Mg  0  0  0  0  0 15  0  0  0  0  0  0
   -0.0018    0.3978    0.0000 O   0  0  0  0  0  0  0  0  0  0  0  0
   -0.0005    0.3978    0.0000 O   0  0  0  0  0  0  0  0  0  0  0  0
   -0.0034    0.3978    0.0000 O   0  0  0  0  0  0  0  0  0  0  0  0
    0.0000    0.0000    0.0000 Cl  0  0  0  0  0  0  0  0  0  0  0  0
    0.0000    0.0000    0.0000 Cl  0  0  0  0  0  0  0  0  0  0  0  0
   -0.0039    0.3978    0.0000 O   0  0  0  0  0  0  0  0  0  0  0  0
   -0.0054    0.3978    0.0000 O   0  0  0  0  0  0  0  0  0  0  0  0
    0.7648   -0.1938    0.0000 H   0  0  0  0  0  0  0  0  0  0  0  0
   -0.7621   -0.2040    0.0000 H   0  0  0  0  0  0  0  0  0  0  0  0
   -0.7625   -0.2024    0.0000 H   0  0  0  0  0  0  0  0  0  0  0  0
    0.7644   -0.1954    0.0000 H   0  0  0  0  0  0  0  0  0  0  0  0
    0.7637   -0.1980    0.0000 H   0  0  0  0  0  0  0  0  0  0  0  0
   -0.7632   -0.1998    0.0000 H   0  0  0  0  0  0  0  0  0  0  0  0
   -0.7617   -0.2054    0.0000 H   0  0  0  0  0  0  0  0  0  0  0  0
    0.7651   -0.1924    0.0000 H   0  0  0  0  0  0  0  0  0  0  0  0
   -0.7615   -0.2064    0.0000 H   0  0  0  0  0  0  0  0  0  0  0  0
    0.7654   -0.1914    0.0000 H   0  0  0  0  0  0  0  0  0  0  0  0
    0.7661   -0.1886    0.0000 H   0  0  0  0  0  0  0  0  0  0  0  0
   -0.7607   -0.2092    0.0000 H   0  0  0  0  0  0  0  0  0  0  0  0
  1 10  1  0
  1 11  1  0
  3 12  1  0
  3 13  1  0
  4 14  1  0
  4 15  1  0
  5 16  1  0
  5 17  1  0
  8 18  1  0
  8 19  1  0
  9 20  1  0
  9 21  1  0
M  CHG  3   2   2   6  -1   7  -1
M  END
$$$$
