
     RDKit          3D

 21 12  0  0  0  0  0  0  0  0999 V2000
   -0.0321    0.3965    0.0000 O   0  0  0  0  0  0  0  0  0  0  0  0
    0.0000    0.0000    0.0000 Mg  0  0  0  0  0 15  0  0  0  0  0  0
   -0.0193    0.3973    0.0000 O   0  0  0  0  0  0  0  0  0  0  0  0
   -0.0306    0.3966    0.0000 O   0  0  0  0  0  0  0  0  0  0  0  0
   -0.0119    0.3976    0.0000 O   0  0  0  0  0  0  0  0  0  0  0  0
    0.0000    0.0000    0.0000 Cl  0  0  0  0  0  0  0  0  0  0  0  0
    0.0000    0.0000    0.0000 Cl  0  0  0  0  0  0  0  0  0  0  0  0
   -0.0270    0.3969    0.0000 O   0  0  0  0  0  0  0  0  0  0  0  0
   -0.0054    0.3978    0.0000 O   0  0  0  0  0  0  0  0  0  0  0  0
   -0.7449   -0.2598    0.0000 H   0  0  0  0  0  0  0  0  0  0  0  0
    0.7770   -0.1367    0.0000 H   0  0  0  0  0  0  0  0  0  0  0  0
    0.7722   -0.1616    0.0000 H   0  0  0  0  0  0  0  0  0  0  0  0
   -0.7529   -0.2358    0.0000 H   0  0  0  0  0  0  0  0  0  0  0  0
    0.7765   -0.1396    0.0000 H   0  0  0  0  0  0  0  0  0  0  0  0
   -0.7459   -0.2571    0.0000 H   0  0  0  0  0  0  0  0  0  0  0  0
    0.7691   -0.1759    0.0000 H   0  0  0  0  0  0  0  0  0  0  0  0
   -0.7572   -0.2217    0.0000 H   0  0  0  0  0  0  0  0  0  0  0  0
    0.7752   -0.1467    0.0000 H   0  0  0  0  0  0  0  0  0  0  0  0
   -0.7482   -0.2502    0.0000 H   0  0  0  0  0  0  0  0  0  0  0  0
   -0.7607   -0.2092    0.0000 H   0  0  0  0  0  0  0  0  0  0  0  0
    0.7661   -0.1886    0.0000 H   0  0  0  0  0  0  0  0  0  0  0  0
  1 10  1  0
  1 11  1  0
  3 12  1  0
  3 13  1  0
  4 14  1  0
  4 15  1  0
  5 16  1  0
  5 17  1  0
  8 18  1  0
  8 19  1  0
  9 20  1  0
  9 21  1  0
M  CHG  3   2   2   6  -1   7  -1
M  END
$$$$
