
     RDKit          3D

 21 12  0  0  0  0  0  0  0  0999 V2000
    0.0020    0.3978    0.0000 O   0  0  0  0  0  0  0  0  0  0  0  0
    0.0000    0.0000    0.0000 Mg  0  0  0  0  0 15  0  0  0  0  0  0
   -0.0036    0.3978    0.0000 O   0  0  0  0  0  0  0  0  0  0  0  0
    0.0064    0.3978    0.0000 O   0  0  0  0  0  0  0  0  0  0  0  0
    0.0182    0.3974    0.0000 O   0  0  0  0  0  0  0  0  0  0  0  0
    0.0000    0.0000    0.0000 Cl  0  0  0  0  0  0  0  0  0  0  0  0
    0.0000    0.0000    0.0000 Cl  0  0  0  0  0  0  0  0  0  0  0  0
    0.0031    0.3978    0.0000 O   0  0  0  0  0  0  0  0  0  0  0  0
    0.0008    0.3978    0.0000 O   0  0  0  0  0  0  0  0  0  0  0  0
   -0.7645   -0.1950    0.0000 H   0  0  0  0  0  0  0  0  0  0  0  0
    0.7624   -0.2028    0.0000 H   0  0  0  0  0  0  0  0  0  0  0  0
    0.7652   -0.1920    0.0000 H   0  0  0  0  0  0  0  0  0  0  0  0
   -0.7616   -0.2058    0.0000 H   0  0  0  0  0  0  0  0  0  0  0  0
    0.7601   -0.2113    0.0000 H   0  0  0  0  0  0  0  0  0  0  0  0
   -0.7666   -0.1865    0.0000 H   0  0  0  0  0  0  0  0  0  0  0  0
    0.7535   -0.2337    0.0000 H   0  0  0  0  0  0  0  0  0  0  0  0
   -0.7718   -0.1637    0.0000 H   0  0  0  0  0  0  0  0  0  0  0  0
   -0.7650   -0.1930    0.0000 H   0  0  0  0  0  0  0  0  0  0  0  0
    0.7619   -0.2048    0.0000 H   0  0  0  0  0  0  0  0  0  0  0  0
   -0.7639   -0.1973    0.0000 H   0  0  0  0  0  0  0  0  0  0  0  0
    0.7630   -0.2005    0.0000 H   0  0  0  0  0  0  0  0  0  0  0  0
  1 10  1  0
  1 11  1  0
  3 12  1  0
  3 13  1  0
  4 14  1  0
  4 15  1  0
  5 16  1  0
  5 17  1  0
  8 18  1  0
  8 19  1  0
  9 20  1  0
  9 21  1  0
M  CHG  3   2   2   6  -1   7  -1
M  END
$$$$
