
     RDKit          3D

 21 12  0  0  0  0  0  0  0  0999 V2000
   -0.0006    0.3978    0.0000 O   0  0  0  0  0  0  0  0  0  0  0  0
    0.0000    0.0000    0.0000 Mg  0  0  0  0  0 15  0  0  0  0  0  0
   -0.0087    0.3977    0.0000 O   0  0  0  0  0  0  0  0  0  0  0  0
   -0.0311    0.3966    0.0000 O   0  0  0  0  0  0  0  0  0  0  0  0
   -0.0390    0.3959    0.0000 O   0  0  0  0  0  0  0  0  0  0  0  0
    0.0000    0.0000    0.0000 Cl  0  0  0  0  0  0  0  0  0  0  0  0
    0.0000    0.0000    0.0000 Cl  0  0  0  0  0  0  0  0  0  0  0  0
   -0.0022    0.3978    0.0000 O   0  0  0  0  0  0  0  0  0  0  0  0
   -0.0158    0.3975    0.0000 O   0  0  0  0  0  0  0  0  0  0  0  0
   -0.7632   -0.2000    0.0000 H   0  0  0  0  0  0  0  0  0  0  0  0
    0.7638   -0.1978    0.0000 H   0  0  0  0  0  0  0  0  0  0  0  0
   -0.7589   -0.2155    0.0000 H   0  0  0  0  0  0  0  0  0  0  0  0
    0.7676   -0.1822    0.0000 H   0  0  0  0  0  0  0  0  0  0  0  0
   -0.7456   -0.2580    0.0000 H   0  0  0  0  0  0  0  0  0  0  0  0
    0.7767   -0.1386    0.0000 H   0  0  0  0  0  0  0  0  0  0  0  0
    0.7793   -0.1232    0.0000 H   0  0  0  0  0  0  0  0  0  0  0  0
   -0.7403   -0.2727    0.0000 H   0  0  0  0  0  0  0  0  0  0  0  0
    0.7646   -0.1946    0.0000 H   0  0  0  0  0  0  0  0  0  0  0  0
   -0.7623   -0.2032    0.0000 H   0  0  0  0  0  0  0  0  0  0  0  0
    0.7708   -0.1685    0.0000 H   0  0  0  0  0  0  0  0  0  0  0  0
   -0.7550   -0.2290    0.0000 H   0  0  0  0  0  0  0  0  0  0  0  0
  1 10  1  0
  1 11  1  0
  3 12  1  0
  3 13  1  0
  4 14  1  0
  4 15  1  0
  5 16  1  0
  5 17  1  0
  8 18  1  0
  8 19  1  0
  9 20  1  0
  9 21  1  0
M  CHG  3   2   2   6  -1   7  -1
M  END
$$$$
