
     RDKit          2D

  9  0  0  0  0  0  0  0  0  0999 V2000
    0.7500   -1.6071    0.0000 O   0  0  0  0  0  0  0  0  0  0  0  0
    2.6026   -0.2990    0.0000 Mg  0  0  0  0  0 15  0  0  0  0  0  0
    2.7496   -1.3822    0.0000 O   0  0  0  0  0  0  0  0  0  0  0  0
    2.3036   -2.6250    0.0000 O   0  0  0  0  0  0  0  0  0  0  0  0
    3.7232   -2.9464    0.0000 O   0  0  0  0  0  0  0  0  0  0  0  0
    3.8839   -0.3750    0.0000 Cl  0  0  0  0  0  0  0  0  0  0  0  0
    1.1786   -0.2946    0.0000 Cl  0  0  0  0  0  0  0  0  0  0  0  0
    4.8750   -1.7946    0.0000 O   0  0  0  0  0  0  0  0  0  0  0  0
    4.8750   -3.4286    0.0000 O   0  0  0  0  0  0  0  0  0  0  0  0
M  CHG  3   2   2   6  -1   7  -1
M  END
> <chembl_id>
CHEMBL3185229

> <chembl_pref_name>
MAGNESIUM CHLORIDE
