
     RDKit          3D

 77 74  0  0  0  0  0  0  0  0999 V2000
   43.3030    5.0657   11.0575 C   0  0  0  0  0  0  0  0  0  0  0  0
   43.1931    6.4415   11.2296 C   0  0  0  0  0  0  0  0  0  0  0  0
   44.5093    4.4167   11.3805 C   0  0  0  0  0  0  0  0  0  0  0  0
   44.2688    7.1773   11.7184 C   0  0  0  0  0  0  0  0  0  0  0  0
   45.5857    5.1766   11.8737 C   0  0  0  0  0  0  0  0  0  0  0  0
   45.8669    3.0402    8.9720 N   0  0  0  0  0  0  0  0  0  0  0  0
   45.4648    6.5571   12.0434 C   0  0  0  0  0  0  0  0  0  0  0  0
   44.7076    2.4922    9.6967 C   0  0  0  0  0  0  0  0  0  0  0  0
   44.6642    2.9197   11.1857 C   0  0  2  0  0  0  0  0  0  0  0  0
   42.0441    7.1182   10.9278 O   0  0  0  0  0  0  0  0  0  0  0  0
   44.1535    8.5280   11.8807 O   0  0  0  0  0  0  0  0  0  0  0  0
   43.5700    2.2608   11.8316 O   0  0  0  0  0  0  0  0  0  0  0  0
   45.8430    2.7221    7.5372 C   0  0  0  0  0  0  0  0  0  0  0  0
   46.8771    3.6058    6.8330 C   0  0  0  0  0  0  0  0  0  0  0  0
   46.1622    1.2501    7.2727 C   0  0  0  0  0  0  0  0  0  0  0  0
   45.1986    4.4436    9.6607 S   0  0  0  0  0  0  0  0  0  0  0  0
   45.1709    4.7535    8.2538 O   0  0  0  0  0  0  0  0  0  0  0  0
   45.9138    5.2204   10.6408 O   0  0  0  0  0  0  0  0  0  0  0  0
   43.6858    4.3433   10.1842 O   0  0  0  0  0  0  0  0  0  0  0  0
   45.6686    2.9142    9.7822 O   0  0  0  0  0  0  0  0  0  0  0  0
   45.9854    1.6518    8.3114 C   0  0  0  0  0  0  0  0  0  0  0  0
   46.6454    1.7744    7.0965 C   0  0  0  0  0  0  0  0  0  0  0  0
   45.6300    2.8004    9.0435 C   0  0  0  0  0  0  0  0  0  0  0  0
   46.9584    3.0268    6.5797 C   0  0  0  0  0  0  0  0  0  0  0  0
   45.9446    4.0593    8.5023 C   0  0  0  0  0  0  0  0  0  0  0  0
   43.9494    4.8723   10.9552 N   0  0  0  0  0  0  0  0  0  0  0  0
   46.6099    4.1756    7.2759 C   0  0  0  0  0  0  0  0  0  0  0  0
   44.8835    3.8023   11.3569 C   0  0  0  0  0  0  0  0  0  0  0  0
   44.8947    2.6114   10.3592 C   0  0  1  0  0  0  0  0  0  0  0  0
   46.9863    0.6468    6.4052 O   0  0  0  0  0  0  0  0  0  0  0  0
   47.6073    3.0768    5.3777 O   0  0  0  0  0  0  0  0  0  0  0  0
   43.5373    2.2278   10.0919 O   0  0  0  0  0  0  0  0  0  0  0  0
   43.9011    5.9843   11.9090 C   0  0  0  0  0  0  0  0  0  0  0  0
   43.1073    5.6407   13.1710 C   0  0  0  0  0  0  0  0  0  0  0  0
   43.2522    7.1735   11.1971 C   0  0  0  0  0  0  0  0  0  0  0  0
   45.2949    4.2966    9.7898 O   0  0  0  0  0  0  0  0  0  0  0  0
   45.2921    4.3013    9.7947 O   0  0  0  0  0  0  0  0  0  0  0  0
   42.4678    4.4842   10.6764 H   0  0  0  0  0  0  0  0  0  0  0  0
   46.5311    4.6967   12.1221 H   0  0  0  0  0  0  0  0  0  0  0  0
   45.8638    4.0562    9.0851 H   0  0  0  0  0  0  0  0  0  0  0  0
   46.2973    7.1433   12.4223 H   0  0  0  0  0  0  0  0  0  0  0  0
   43.7741    2.7952    9.2044 H   0  0  0  0  0  0  0  0  0  0  0  0
   44.7292    1.3967    9.6696 H   0  0  0  0  0  0  0  0  0  0  0  0
   45.5753    2.5686   11.6857 H   0  0  0  0  0  0  0  0  0  0  0  0
   41.3865    6.4734   10.6135 H   0  0  0  0  0  0  0  0  0  0  0  0
   43.2454    8.7324   11.5789 H   0  0  0  0  0  0  0  0  0  0  0  0
   43.4853    2.6674   12.7118 H   0  0  0  0  0  0  0  0  0  0  0  0
   44.8591    2.9623    7.1147 H   0  0  0  0  0  0  0  0  0  0  0  0
   46.8842    3.4105    5.7545 H   0  0  0  0  0  0  0  0  0  0  0  0
   46.6488    4.6685    6.9741 H   0  0  0  0  0  0  0  0  0  0  0  0
   47.8883    3.4236    7.2146 H   0  0  0  0  0  0  0  0  0  0  0  0
   45.4012    0.5877    7.6952 H   0  0  0  0  0  0  0  0  0  0  0  0
   47.1314    0.9690    7.6977 H   0  0  0  0  0  0  0  0  0  0  0  0
   46.2001    1.0524    6.1964 H   0  0  0  0  0  0  0  0  0  0  0  0
   43.7063    4.5024   11.1516 H   0  0  0  0  0  0  0  0  0  0  0  0
   45.3459    2.4481    8.9830 H   0  0  0  0  0  0  0  0  0  0  0  0
   45.7456    0.6595    8.6867 H   0  0  0  0  0  0  0  0  0  0  0  0
   45.6716    4.9745    9.0248 H   0  0  0  0  0  0  0  0  0  0  0  0
   43.0222    4.4516   10.8570 H   0  0  0  0  0  0  0  0  0  0  0  0
   46.8364    5.1636    6.8881 H   0  0  0  0  0  0  0  0  0  0  0  0
   45.8984    4.1983   11.4784 H   0  0  0  0  0  0  0  0  0  0  0  0
   44.5598    3.4046   12.3253 H   0  0  0  0  0  0  0  0  0  0  0  0
   45.3639    1.7691   10.8835 H   0  0  0  0  0  0  0  0  0  0  0  0
   47.4263    0.9818    5.5983 H   0  0  0  0  0  0  0  0  0  0  0  0
   47.7600    4.0122    5.1578 H   0  0  0  0  0  0  0  0  0  0  0  0
   43.3204    2.5879    9.2134 H   0  0  0  0  0  0  0  0  0  0  0  0
   44.9193    6.2812   12.1895 H   0  0  0  0  0  0  0  0  0  0  0  0
   43.0382    6.5133   13.8292 H   0  0  0  0  0  0  0  0  0  0  0  0
   43.5835    4.8391   13.7427 H   0  0  0  0  0  0  0  0  0  0  0  0
   42.0866    5.3253   12.9286 H   0  0  0  0  0  0  0  0  0  0  0  0
   43.8219    7.4539   10.3042 H   0  0  0  0  0  0  0  0  0  0  0  0
   43.2206    8.0481   11.8556 H   0  0  0  0  0  0  0  0  0  0  0  0
   42.2249    6.9486   10.8881 H   0  0  0  0  0  0  0  0  0  0  0  0
   44.5098    4.4829   10.3261 H   0  0  0  0  0  0  0  0  0  0  0  0
   45.0624    3.4887    9.3083 H   0  0  0  0  0  0  0  0  0  0  0  0
   44.4989    4.4730   10.3243 H   0  0  0  0  0  0  0  0  0  0  0  0
   45.0760    3.4938    9.3052 H   0  0  0  0  0  0  0  0  0  0  0  0
  2  1  2  0
  3  1  1  0
  4  2  1  0
  5  3  2  0
  6  8  1  0
  7  5  1  0
  8  9  1  0
  9  3  1  0
 10  2  1  0
 11  4  1  0
 12  9  1  0
 13  6  1  0
 14 13  1  0
 15 13  1  0
  7  4  2  0
 17 16  2  0
 18 16  2  0
 19 16  1  0
 20 16  1  0
 22 21  2  0
 23 21  1  0
 24 22  1  0
 25 23  2  0
 26 28  1  0
 27 25  1  0
 28 29  1  0
 29 23  1  0
 30 22  1  0
 31 24  1  0
 32 29  1  0
 33 26  1  0
 34 33  1  0
 35 33  1  0
 27 24  2  0
  1 38  1  0
  5 39  1  0
  6 40  1  0
  7 41  1  0
  8 42  1  0
  8 43  1  0
  9 44  1  6
 10 45  1  0
 11 46  1  0
 12 47  1  0
 13 48  1  0
 14 49  1  0
 14 50  1  0
 14 51  1  0
 15 52  1  0
 15 53  1  0
 15 54  1  0
 19 55  1  0
 20 56  1  0
 21 57  1  0
 25 58  1  0
 26 59  1  0
 27 60  1  0
 28 61  1  0
 28 62  1  0
 29 63  1  6
 30 64  1  0
 31 65  1  0
 32 66  1  0
 33 67  1  0
 34 68  1  0
 34 69  1  0
 34 70  1  0
 35 71  1  0
 35 72  1  0
 35 73  1  0
 36 74  1  0
 36 75  1  0
 37 76  1  0
 37 77  1  0
M  END
> <Uni-Dock RESULT> 
ENERGY=   -6.994  LOWER_BOUND=    0.000  UPPER_BOUND=    0.000
INTER + INTRA:          -6.994
INTER:                  -6.994
INTRA:                   0.000
UNBOUND:                 0.000

$$$$

     RDKit          3D

 77 74  0  0  0  0  0  0  0  0999 V2000
   45.5991    5.0280   11.3869 C   0  0  0  0  0  0  0  0  0  0  0  0
   44.7673    3.9915   10.9764 C   0  0  0  0  0  0  0  0  0  0  0  0
   45.2869    5.7527   12.5523 C   0  0  0  0  0  0  0  0  0  0  0  0
   43.6302    3.6692   11.7115 C   0  0  0  0  0  0  0  0  0  0  0  0
   44.1337    5.4124   13.2827 C   0  0  0  0  0  0  0  0  0  0  0  0
   44.7523    8.7524   12.0481 N   0  0  0  0  0  0  0  0  0  0  0  0
   43.3057    4.3698   12.8624 C   0  0  0  0  0  0  0  0  0  0  0  0
   46.0928    8.1436   12.0917 C   0  0  0  0  0  0  0  0  0  0  0  0
   46.1659    6.9004   13.0140 C   0  0  2  0  0  0  0  0  0  0  0  0
   45.0257    3.2602    9.8506 O   0  0  0  0  0  0  0  0  0  0  0  0
   42.8172    2.6527   11.2992 O   0  0  0  0  0  0  0  0  0  0  0  0
   47.5199    6.4406   13.0759 O   0  0  0  0  0  0  0  0  0  0  0  0
   44.6626    9.8624   11.0886 C   0  0  0  0  0  0  0  0  0  0  0  0
   43.1822   10.1899   10.8715 C   0  0  0  0  0  0  0  0  0  0  0  0
   45.3953   11.1089   11.5865 C   0  0  0  0  0  0  0  0  0  0  0  0
   44.4036    7.1293   11.6816 S   0  0  0  0  0  0  0  0  0  0  0  0
   43.8908    7.8183   10.5245 O   0  0  0  0  0  0  0  0  0  0  0  0
   43.5981    6.3126   12.5530 O   0  0  0  0  0  0  0  0  0  0  0  0
   45.6343    6.2116   11.2169 O   0  0  0  0  0  0  0  0  0  0  0  0
   45.1592    8.2305   12.5710 O   0  0  0  0  0  0  0  0  0  0  0  0
   45.4761   10.1128   12.1088 C   0  0  0  0  0  0  0  0  0  0  0  0
   44.6615   11.0931   11.5592 C   0  0  0  0  0  0  0  0  0  0  0  0
   45.0968    8.7587   12.0446 C   0  0  0  0  0  0  0  0  0  0  0  0
   43.4670   10.7566   10.9318 C   0  0  0  0  0  0  0  0  0  0  0  0
   43.8913    8.4343   11.3979 C   0  0  0  0  0  0  0  0  0  0  0  0
   45.2632    5.4936   11.7559 N   0  0  0  0  0  0  0  0  0  0  0  0
   43.0747    9.4283   10.8451 C   0  0  0  0  0  0  0  0  0  0  0  0
   45.4462    6.3206   12.9647 C   0  0  0  0  0  0  0  0  0  0  0  0
   46.0318    7.7241   12.6471 C   0  0  1  0  0  0  0  0  0  0  0  0
   45.0456   12.4014   11.6377 O   0  0  0  0  0  0  0  0  0  0  0  0
   42.7130   11.7704   10.4101 O   0  0  0  0  0  0  0  0  0  0  0  0
   47.1711    7.5594   11.7893 O   0  0  0  0  0  0  0  0  0  0  0  0
   44.7475    4.1527   12.0467 C   0  0  0  0  0  0  0  0  0  0  0  0
   45.8171    3.2263   12.6286 C   0  0  0  0  0  0  0  0  0  0  0  0
   44.2156    3.5697   10.7355 C   0  0  0  0  0  0  0  0  0  0  0  0
   44.4675    7.1820   11.8832 O   0  0  0  0  0  0  0  0  0  0  0  0
   44.4673    7.1747   11.8836 O   0  0  0  0  0  0  0  0  0  0  0  0
   46.4887    5.2859   10.8185 H   0  0  0  0  0  0  0  0  0  0  0  0
   43.8682    5.9650   14.1827 H   0  0  0  0  0  0  0  0  0  0  0  0
   44.0811    8.0294   11.7802 H   0  0  0  0  0  0  0  0  0  0  0  0
   42.4143    4.1091   13.4259 H   0  0  0  0  0  0  0  0  0  0  0  0
   46.4165    7.8650   11.0801 H   0  0  0  0  0  0  0  0  0  0  0  0
   46.8254    8.8705   12.4609 H   0  0  0  0  0  0  0  0  0  0  0  0
   45.8924    7.1952   14.0347 H   0  0  0  0  0  0  0  0  0  0  0  0
   45.8515    3.5918    9.4568 H   0  0  0  0  0  0  0  0  0  0  0  0
   43.2344    2.3262   10.4765 H   0  0  0  0  0  0  0  0  0  0  0  0
   47.4979    5.5821   13.5338 H   0  0  0  0  0  0  0  0  0  0  0  0
   45.0801    9.5578   10.1205 H   0  0  0  0  0  0  0  0  0  0  0  0
   43.0674   11.0068   10.1499 H   0  0  0  0  0  0  0  0  0  0  0  0
   42.6405    9.3227   10.4766 H   0  0  0  0  0  0  0  0  0  0  0  0
   42.6967   10.4952   11.8056 H   0  0  0  0  0  0  0  0  0  0  0  0
   46.4714   10.9367   11.6800 H   0  0  0  0  0  0  0  0  0  0  0  0
   45.0167   11.4317   12.5619 H   0  0  0  0  0  0  0  0  0  0  0  0
   45.2614   11.9392   10.8853 H   0  0  0  0  0  0  0  0  0  0  0  0
   45.7298    5.5006   11.8853 H   0  0  0  0  0  0  0  0  0  0  0  0
   45.5213    8.9009   11.9551 H   0  0  0  0  0  0  0  0  0  0  0  0
   46.4091   10.4047   12.5855 H   0  0  0  0  0  0  0  0  0  0  0  0
   43.5682    7.3986   11.3080 H   0  0  0  0  0  0  0  0  0  0  0  0
   46.1697    5.4285   11.2865 H   0  0  0  0  0  0  0  0  0  0  0  0
   42.1510    9.1415   10.3528 H   0  0  0  0  0  0  0  0  0  0  0  0
   44.5015    6.4241   13.5110 H   0  0  0  0  0  0  0  0  0  0  0  0
   46.1624    5.8176   13.6242 H   0  0  0  0  0  0  0  0  0  0  0  0
   46.4065    8.1283   13.5961 H   0  0  0  0  0  0  0  0  0  0  0  0
   44.3290   12.8912   11.1865 H   0  0  0  0  0  0  0  0  0  0  0  0
   41.9144   11.3782   10.0162 H   0  0  0  0  0  0  0  0  0  0  0  0
   46.8740    7.7977   10.8929 H   0  0  0  0  0  0  0  0  0  0  0  0
   43.9048    4.2193   12.7458 H   0  0  0  0  0  0  0  0  0  0  0  0
   45.4135    2.2183   12.7722 H   0  0  0  0  0  0  0  0  0  0  0  0
   46.1697    3.5772   13.6027 H   0  0  0  0  0  0  0  0  0  0  0  0
   46.6830    3.1460   11.9624 H   0  0  0  0  0  0  0  0  0  0  0  0
   43.4277    4.2048   10.3156 H   0  0  0  0  0  0  0  0  0  0  0  0
   43.7849    2.5763   10.9006 H   0  0  0  0  0  0  0  0  0  0  0  0
   45.0087    3.4713    9.9853 H   0  0  0  0  0  0  0  0  0  0  0  0
   45.0022    6.3842   11.7547 H   0  0  0  0  0  0  0  0  0  0  0  0
   45.0747    7.9066   11.6710 H   0  0  0  0  0  0  0  0  0  0  0  0
   45.0161    6.3871   11.7504 H   0  0  0  0  0  0  0  0  0  0  0  0
   45.0610    7.9112   11.6749 H   0  0  0  0  0  0  0  0  0  0  0  0
  2  1  2  0
  3  1  1  0
  4  2  1  0
  5  3  2  0
  6  8  1  0
  7  5  1  0
  8  9  1  0
  9  3  1  0
 10  2  1  0
 11  4  1  0
 12  9  1  0
 13  6  1  0
 14 13  1  0
 15 13  1  0
  7  4  2  0
 17 16  2  0
 18 16  2  0
 19 16  1  0
 20 16  1  0
 22 21  2  0
 23 21  1  0
 24 22  1  0
 25 23  2  0
 26 28  1  0
 27 25  1  0
 28 29  1  0
 29 23  1  0
 30 22  1  0
 31 24  1  0
 32 29  1  0
 33 26  1  0
 34 33  1  0
 35 33  1  0
 27 24  2  0
  1 38  1  0
  5 39  1  0
  6 40  1  0
  7 41  1  0
  8 42  1  0
  8 43  1  0
  9 44  1  6
 10 45  1  0
 11 46  1  0
 12 47  1  0
 13 48  1  0
 14 49  1  0
 14 50  1  0
 14 51  1  0
 15 52  1  0
 15 53  1  0
 15 54  1  0
 19 55  1  0
 20 56  1  0
 21 57  1  0
 25 58  1  0
 26 59  1  0
 27 60  1  0
 28 61  1  0
 28 62  1  0
 29 63  1  6
 30 64  1  0
 31 65  1  0
 32 66  1  0
 33 67  1  0
 34 68  1  0
 34 69  1  0
 34 70  1  0
 35 71  1  0
 35 72  1  0
 35 73  1  0
 36 74  1  0
 36 75  1  0
 37 76  1  0
 37 77  1  0
M  END
> <Uni-Dock RESULT> 
ENERGY=   -6.267  LOWER_BOUND=    2.684  UPPER_BOUND=    6.242
INTER + INTRA:          -6.267
INTER:                  -6.267
INTRA:                   0.000
UNBOUND:                 0.000

$$$$

     RDKit          3D

 77 74  0  0  0  0  0  0  0  0999 V2000
   43.9665    6.0890   12.8036 C   0  0  0  0  0  0  0  0  0  0  0  0
   43.7119    4.7227   12.8572 C   0  0  0  0  0  0  0  0  0  0  0  0
   44.6255    6.6322   11.6850 C   0  0  0  0  0  0  0  0  0  0  0  0
   44.1055    3.8924   11.8117 C   0  0  0  0  0  0  0  0  0  0  0  0
   45.0155    5.7777   10.6376 C   0  0  0  0  0  0  0  0  0  0  0  0
   47.3360    7.9520   12.3554 N   0  0  0  0  0  0  0  0  0  0  0  0
   44.7546    4.4077   10.7009 C   0  0  0  0  0  0  0  0  0  0  0  0
   46.0248    8.5735   12.6077 C   0  0  0  0  0  0  0  0  0  0  0  0
   44.9330    8.1163   11.6074 C   0  0  2  0  0  0  0  0  0  0  0  0
   43.0778    4.1468   13.9228 O   0  0  0  0  0  0  0  0  0  0  0  0
   43.8550    2.5517   11.8743 O   0  0  0  0  0  0  0  0  0  0  0  0
   43.7277    8.8449   11.8624 O   0  0  0  0  0  0  0  0  0  0  0  0
   48.3376    8.3043   13.3720 C   0  0  0  0  0  0  0  0  0  0  0  0
   49.5317    7.3577   13.2167 C   0  0  0  0  0  0  0  0  0  0  0  0
   48.8099    9.7519   13.2313 C   0  0  0  0  0  0  0  0  0  0  0  0
   46.3206    6.5906   12.4322 S   0  0  0  0  0  0  0  0  0  0  0  0
   47.2744    6.3167   13.4770 O   0  0  0  0  0  0  0  0  0  0  0  0
   46.1115    5.7367   11.2909 O   0  0  0  0  0  0  0  0  0  0  0  0
   44.8804    6.7987   13.1069 O   0  0  0  0  0  0  0  0  0  0  0  0
   46.6321    8.0745   11.9071 O   0  0  0  0  0  0  0  0  0  0  0  0
   47.9397    9.3416   12.6432 C   0  0  0  0  0  0  0  0  0  0  0  0
   49.2562    9.1951   13.0578 C   0  0  0  0  0  0  0  0  0  0  0  0
   47.1270    8.2082   12.4524 C   0  0  0  0  0  0  0  0  0  0  0  0
   49.7906    7.9341   13.2986 C   0  0  0  0  0  0  0  0  0  0  0  0
   47.6793    6.9411   12.7099 C   0  0  0  0  0  0  0  0  0  0  0  0
   44.5064    6.2326   12.4117 N   0  0  0  0  0  0  0  0  0  0  0  0
   49.0079    6.8008   13.1286 C   0  0  0  0  0  0  0  0  0  0  0  0
   44.9334    7.2152   11.3963 C   0  0  0  0  0  0  0  0  0  0  0  0
   45.6889    8.4243   12.0135 C   0  0  1  0  0  0  0  0  0  0  0  0
   50.0292   10.3078   13.2312 O   0  0  0  0  0  0  0  0  0  0  0  0
   51.0931    7.8607   13.7066 O   0  0  0  0  0  0  0  0  0  0  0  0
   44.9251    8.9210   13.1231 O   0  0  0  0  0  0  0  0  0  0  0  0
   43.7584    5.1061   11.8460 C   0  0  0  0  0  0  0  0  0  0  0  0
   42.3226    5.4823   11.4751 C   0  0  0  0  0  0  0  0  0  0  0  0
   43.7471    3.9893   12.8922 C   0  0  0  0  0  0  0  0  0  0  0  0
   46.3047    6.7263   12.2624 O   0  0  0  0  0  0  0  0  0  0  0  0
   46.2991    6.7218   12.2612 O   0  0  0  0  0  0  0  0  0  0  0  0
   43.6624    6.7439   13.6159 H   0  0  0  0  0  0  0  0  0  0  0  0
   45.5342    6.1748    9.7664 H   0  0  0  0  0  0  0  0  0  0  0  0
   47.2134    6.9371   12.3505 H   0  0  0  0  0  0  0  0  0  0  0  0
   45.0581    3.7483    9.8926 H   0  0  0  0  0  0  0  0  0  0  0  0
   45.6928    8.3573   13.6318 H   0  0  0  0  0  0  0  0  0  0  0  0
   46.1035    9.6642   12.5327 H   0  0  0  0  0  0  0  0  0  0  0  0
   45.2456    8.3819   10.5900 H   0  0  0  0  0  0  0  0  0  0  0  0
   42.8559    4.8491   14.5589 H   0  0  0  0  0  0  0  0  0  0  0  0
   43.4115    2.4273   12.7376 H   0  0  0  0  0  0  0  0  0  0  0  0
   43.0341    8.4260   11.3235 H   0  0  0  0  0  0  0  0  0  0  0  0
   47.9233    8.1531   14.3768 H   0  0  0  0  0  0  0  0  0  0  0  0
   50.3005    7.5769   13.9665 H   0  0  0  0  0  0  0  0  0  0  0  0
   49.2271    6.3135   13.3523 H   0  0  0  0  0  0  0  0  0  0  0  0
   49.9918    7.4499   12.2261 H   0  0  0  0  0  0  0  0  0  0  0  0
   47.9987   10.4628   13.4130 H   0  0  0  0  0  0  0  0  0  0  0  0
   49.2136    9.9450   12.2320 H   0  0  0  0  0  0  0  0  0  0  0  0
   49.5992    9.9710   13.9579 H   0  0  0  0  0  0  0  0  0  0  0  0
   44.2106    6.6161   12.4145 H   0  0  0  0  0  0  0  0  0  0  0  0
   46.9813    8.5832   12.6681 H   0  0  0  0  0  0  0  0  0  0  0  0
   47.5461   10.3407   12.4711 H   0  0  0  0  0  0  0  0  0  0  0  0
   47.0816    6.0386   12.5941 H   0  0  0  0  0  0  0  0  0  0  0  0
   43.9319    6.7280   13.0980 H   0  0  0  0  0  0  0  0  0  0  0  0
   49.4010    5.8073   13.3186 H   0  0  0  0  0  0  0  0  0  0  0  0
   45.5550    6.7369   10.6305 H   0  0  0  0  0  0  0  0  0  0  0  0
   44.0402    7.6148   10.9029 H   0  0  0  0  0  0  0  0  0  0  0  0
   45.6896    9.2141   11.2515 H   0  0  0  0  0  0  0  0  0  0  0  0
   50.8945    9.9577   13.5239 H   0  0  0  0  0  0  0  0  0  0  0  0
   51.3181    6.9214   13.8245 H   0  0  0  0  0  0  0  0  0  0  0  0
   45.3717    8.5999   13.9268 H   0  0  0  0  0  0  0  0  0  0  0  0
   44.2749    4.7226   10.9573 H   0  0  0  0  0  0  0  0  0  0  0  0
   41.7767    4.6029   11.1172 H   0  0  0  0  0  0  0  0  0  0  0  0
   42.2935    6.2299   10.6773 H   0  0  0  0  0  0  0  0  0  0  0  0
   41.7783    5.8836   12.3370 H   0  0  0  0  0  0  0  0  0  0  0  0
   44.7673    3.6853   13.1517 H   0  0  0  0  0  0  0  0  0  0  0  0
   43.2276    3.1048   12.5080 H   0  0  0  0  0  0  0  0  0  0  0  0
   43.2412    4.3024   13.8127 H   0  0  0  0  0  0  0  0  0  0  0  0
   45.3621    6.5907   12.4411 H   0  0  0  0  0  0  0  0  0  0  0  0
   46.5093    7.5613   12.7093 H   0  0  0  0  0  0  0  0  0  0  0  0
   45.3561    6.6015   12.4493 H   0  0  0  0  0  0  0  0  0  0  0  0
   46.5210    7.5552   12.7024 H   0  0  0  0  0  0  0  0  0  0  0  0
  2  1  2  0
  3  1  1  0
  4  2  1  0
  5  3  2  0
  6  8  1  0
  7  5  1  0
  8  9  1  0
  9  3  1  0
 10  2  1  0
 11  4  1  0
 12  9  1  0
 13  6  1  0
 14 13  1  0
 15 13  1  0
  7  4  2  0
 17 16  2  0
 18 16  2  0
 19 16  1  0
 20 16  1  0
 22 21  2  0
 23 21  1  0
 24 22  1  0
 25 23  2  0
 26 28  1  0
 27 25  1  0
 28 29  1  0
 29 23  1  0
 30 22  1  0
 31 24  1  0
 32 29  1  0
 33 26  1  0
 34 33  1  0
 35 33  1  0
 27 24  2  0
  1 38  1  0
  5 39  1  0
  6 40  1  0
  7 41  1  0
  8 42  1  0
  8 43  1  0
  9 44  1  6
 10 45  1  0
 11 46  1  0
 12 47  1  0
 13 48  1  0
 14 49  1  0
 14 50  1  0
 14 51  1  0
 15 52  1  0
 15 53  1  0
 15 54  1  0
 19 55  1  0
 20 56  1  0
 21 57  1  0
 25 58  1  0
 26 59  1  0
 27 60  1  0
 28 61  1  0
 28 62  1  0
 29 63  1  6
 30 64  1  0
 31 65  1  0
 32 66  1  0
 33 67  1  0
 34 68  1  0
 34 69  1  0
 34 70  1  0
 35 71  1  0
 35 72  1  0
 35 73  1  0
 36 74  1  0
 36 75  1  0
 37 76  1  0
 37 77  1  0
M  END
> <Uni-Dock RESULT> 
ENERGY=   -6.120  LOWER_BOUND=    3.051  UPPER_BOUND=    6.089
INTER + INTRA:          -6.120
INTER:                  -6.120
INTRA:                   0.000
UNBOUND:                 0.000

$$$$

     RDKit          3D

 77 74  0  0  0  0  0  0  0  0999 V2000
   48.3193    8.4494   14.2349 C   0  0  0  0  0  0  0  0  0  0  0  0
   48.5620    9.7735   13.8849 C   0  0  0  0  0  0  0  0  0  0  0  0
   48.5001    7.4314   13.2802 C   0  0  0  0  0  0  0  0  0  0  0  0
   48.9814   10.0950   12.5973 C   0  0  0  0  0  0  0  0  0  0  0  0
   48.9250    7.7752   11.9838 C   0  0  0  0  0  0  0  0  0  0  0  0
   45.9175    5.8731   12.6165 N   0  0  0  0  0  0  0  0  0  0  0  0
   49.1664    9.1073   11.6428 C   0  0  0  0  0  0  0  0  0  0  0  0
   46.7212    5.6687   13.8338 C   0  0  0  0  0  0  0  0  0  0  0  0
   48.2254    5.9801   13.6283 C   0  0  2  0  0  0  0  0  0  0  0  0
   48.3981   10.7982   14.7751 O   0  0  0  0  0  0  0  0  0  0  0  0
   49.2136   11.3978   12.2610 O   0  0  0  0  0  0  0  0  0  0  0  0
   48.9398    5.6559   14.8254 O   0  0  0  0  0  0  0  0  0  0  0  0
   44.4783    5.6826   12.8465 C   0  0  0  0  0  0  0  0  0  0  0  0
   43.7215    6.2427   11.6383 C   0  0  0  0  0  0  0  0  0  0  0  0
   44.1201    4.2081   13.0365 C   0  0  0  0  0  0  0  0  0  0  0  0
   46.7269    7.3626   12.7470 S   0  0  0  0  0  0  0  0  0  0  0  0
   45.3437    7.7655   12.7771 O   0  0  0  0  0  0  0  0  0  0  0  0
   47.6702    7.8015   11.7505 O   0  0  0  0  0  0  0  0  0  0  0  0
   47.3831    7.7078   14.1693 O   0  0  0  0  0  0  0  0  0  0  0  0
   46.7361    5.7584   12.7847 O   0  0  0  0  0  0  0  0  0  0  0  0
   45.1876    4.5695   12.9984 C   0  0  0  0  0  0  0  0  0  0  0  0
   43.9235    4.5643   12.4250 C   0  0  0  0  0  0  0  0  0  0  0  0
   45.9998    5.7159   12.9119 C   0  0  0  0  0  0  0  0  0  0  0  0
   43.4363    5.6875   11.7658 C   0  0  0  0  0  0  0  0  0  0  0  0
   45.4885    6.8465   12.2509 C   0  0  0  0  0  0  0  0  0  0  0  0
   48.1491    8.0697   13.6940 N   0  0  0  0  0  0  0  0  0  0  0  0
   44.2122    6.8345   11.6754 C   0  0  0  0  0  0  0  0  0  0  0  0
   48.4146    6.7337   13.1255 C   0  0  0  0  0  0  0  0  0  0  0  0
   47.3682    5.6749   13.5702 C   0  0  1  0  0  0  0  0  0  0  0  0
   43.1542    3.4393   12.5155 O   0  0  0  0  0  0  0  0  0  0  0  0
   42.1828    5.6161   11.2253 O   0  0  0  0  0  0  0  0  0  0  0  0
   47.2108    5.7596   14.9947 O   0  0  0  0  0  0  0  0  0  0  0  0
   49.1519    9.0687   13.3130 C   0  0  0  0  0  0  0  0  0  0  0  0
   50.4653    8.9037   14.0802 C   0  0  0  0  0  0  0  0  0  0  0  0
   48.5567   10.4497   13.5967 C   0  0  0  0  0  0  0  0  0  0  0  0
   46.8398    7.1839   12.6937 O   0  0  0  0  0  0  0  0  0  0  0  0
   46.8451    7.1888   12.6945 O   0  0  0  0  0  0  0  0  0  0  0  0
   47.9916    8.1903   15.2382 H   0  0  0  0  0  0  0  0  0  0  0  0
   49.0632    7.0049   11.2267 H   0  0  0  0  0  0  0  0  0  0  0  0
   46.0755    6.8273   12.2854 H   0  0  0  0  0  0  0  0  0  0  0  0
   49.4924    9.3720   10.6409 H   0  0  0  0  0  0  0  0  0  0  0  0
   46.3313    6.2854   14.6543 H   0  0  0  0  0  0  0  0  0  0  0  0
   46.6434    4.6273   14.1667 H   0  0  0  0  0  0  0  0  0  0  0  0
   48.6229    5.3244   12.8437 H   0  0  0  0  0  0  0  0  0  0  0  0
   48.1176   10.4182   15.6260 H   0  0  0  0  0  0  0  0  0  0  0  0
   49.0066   11.8995   13.0752 H   0  0  0  0  0  0  0  0  0  0  0  0
   49.8412    6.0041   14.7103 H   0  0  0  0  0  0  0  0  0  0  0  0
   44.1597    6.2508   13.7296 H   0  0  0  0  0  0  0  0  0  0  0  0
   42.6394    6.1331   11.7735 H   0  0  0  0  0  0  0  0  0  0  0  0
   43.9303    7.3102   11.5028 H   0  0  0  0  0  0  0  0  0  0  0  0
   43.9995    5.7237   10.7138 H   0  0  0  0  0  0  0  0  0  0  0  0
   44.5813    3.7914   13.9366 H   0  0  0  0  0  0  0  0  0  0  0  0
   44.4407    3.6057   12.1802 H   0  0  0  0  0  0  0  0  0  0  0  0
   43.0372    4.0863   13.1433 H   0  0  0  0  0  0  0  0  0  0  0  0
   48.3505    7.7824   14.0278 H   0  0  0  0  0  0  0  0  0  0  0  0
   45.9503    5.4767   13.2976 H   0  0  0  0  0  0  0  0  0  0  0  0
   45.5389    3.6795   13.5154 H   0  0  0  0  0  0  0  0  0  0  0  0
   46.0742    7.7612   12.1768 H   0  0  0  0  0  0  0  0  0  0  0  0
   48.1185    7.9715   14.7118 H   0  0  0  0  0  0  0  0  0  0  0  0
   43.8494    7.7255   11.1732 H   0  0  0  0  0  0  0  0  0  0  0  0
   48.4593    6.7792   12.0312 H   0  0  0  0  0  0  0  0  0  0  0  0
   49.3902    6.3901   13.4877 H   0  0  0  0  0  0  0  0  0  0  0  0
   47.8088    4.6923   13.3587 H   0  0  0  0  0  0  0  0  0  0  0  0
   42.3257    3.6753   12.0518 H   0  0  0  0  0  0  0  0  0  0  0  0
   41.9916    6.4687   10.7973 H   0  0  0  0  0  0  0  0  0  0  0  0
   46.3730    6.2318   15.1486 H   0  0  0  0  0  0  0  0  0  0  0  0
   49.3499    9.0080   12.2357 H   0  0  0  0  0  0  0  0  0  0  0  0
   51.1653    9.7040   13.8172 H   0  0  0  0  0  0  0  0  0  0  0  0
   50.9543    7.9539   13.8455 H   0  0  0  0  0  0  0  0  0  0  0  0
   50.3047    8.9449   15.1630 H   0  0  0  0  0  0  0  0  0  0  0  0
   47.6283   10.5992   13.0344 H   0  0  0  0  0  0  0  0  0  0  0  0
   49.2537   11.2401   13.2977 H   0  0  0  0  0  0  0  0  0  0  0  0
   48.3344   10.5834   14.6617 H   0  0  0  0  0  0  0  0  0  0  0  0
   47.4542    7.5695   13.3360 H   0  0  0  0  0  0  0  0  0  0  0  0
   46.3464    6.5273   13.2077 H   0  0  0  0  0  0  0  0  0  0  0  0
   47.4530    7.5637   13.3495 H   0  0  0  0  0  0  0  0  0  0  0  0
   46.3423    6.5281   13.1934 H   0  0  0  0  0  0  0  0  0  0  0  0
  2  1  2  0
  3  1  1  0
  4  2  1  0
  5  3  2  0
  6  8  1  0
  7  5  1  0
  8  9  1  0
  9  3  1  0
 10  2  1  0
 11  4  1  0
 12  9  1  0
 13  6  1  0
 14 13  1  0
 15 13  1  0
  7  4  2  0
 17 16  2  0
 18 16  2  0
 19 16  1  0
 20 16  1  0
 22 21  2  0
 23 21  1  0
 24 22  1  0
 25 23  2  0
 26 28  1  0
 27 25  1  0
 28 29  1  0
 29 23  1  0
 30 22  1  0
 31 24  1  0
 32 29  1  0
 33 26  1  0
 34 33  1  0
 35 33  1  0
 27 24  2  0
  1 38  1  0
  5 39  1  0
  6 40  1  0
  7 41  1  0
  8 42  1  0
  8 43  1  0
  9 44  1  6
 10 45  1  0
 11 46  1  0
 12 47  1  0
 13 48  1  0
 14 49  1  0
 14 50  1  0
 14 51  1  0
 15 52  1  0
 15 53  1  0
 15 54  1  0
 19 55  1  0
 20 56  1  0
 21 57  1  0
 25 58  1  0
 26 59  1  0
 27 60  1  0
 28 61  1  0
 28 62  1  0
 29 63  1  6
 30 64  1  0
 31 65  1  0
 32 66  1  0
 33 67  1  0
 34 68  1  0
 34 69  1  0
 34 70  1  0
 35 71  1  0
 35 72  1  0
 35 73  1  0
 36 74  1  0
 36 75  1  0
 37 76  1  0
 37 77  1  0
M  END
> <Uni-Dock RESULT> 
ENERGY=   -5.440  LOWER_BOUND=    4.004  UPPER_BOUND=    5.976
INTER + INTRA:          -5.440
INTER:                  -5.440
INTRA:                   0.000
UNBOUND:                 0.000

$$$$

     RDKit          3D

 77 74  0  0  0  0  0  0  0  0999 V2000
   43.1636   11.9515   11.7375 C   0  0  0  0  0  0  0  0  0  0  0  0
   41.8418   11.5186   11.7424 C   0  0  0  0  0  0  0  0  0  0  0  0
   44.0505   11.4728   10.7553 C   0  0  0  0  0  0  0  0  0  0  0  0
   41.3939   10.6158   10.7823 C   0  0  0  0  0  0  0  0  0  0  0  0
   43.5799   10.5612    9.7926 C   0  0  0  0  0  0  0  0  0  0  0  0
   46.4357    9.8797   11.9005 N   0  0  0  0  0  0  0  0  0  0  0  0
   42.2510   10.1334    9.8059 C   0  0  0  0  0  0  0  0  0  0  0  0
   46.3342   11.3491   11.9162 C   0  0  0  0  0  0  0  0  0  0  0  0
   45.5026   11.9134   10.7365 C   0  0  2  0  0  0  0  0  0  0  0  0
   40.9427   11.9518   12.6768 O   0  0  0  0  0  0  0  0  0  0  0  0
   40.0957   10.1932   10.7967 O   0  0  0  0  0  0  0  0  0  0  0  0
   45.5450   13.3435   10.7739 O   0  0  0  0  0  0  0  0  0  0  0  0
   47.1310    9.3450   13.0799 C   0  0  0  0  0  0  0  0  0  0  0  0
   46.8838    7.8345   13.1382 C   0  0  0  0  0  0  0  0  0  0  0  0
   48.6352    9.6162   13.0283 C   0  0  0  0  0  0  0  0  0  0  0  0
   44.7544   10.1083   11.7925 S   0  0  0  0  0  0  0  0  0  0  0  0
   44.8765    9.3163   12.9901 O   0  0  0  0  0  0  0  0  0  0  0  0
   44.0077    9.6985   10.6307 O   0  0  0  0  0  0  0  0  0  0  0  0
   44.1927   11.5543   12.2001 O   0  0  0  0  0  0  0  0  0  0  0  0
   46.2476   10.4758   11.3341 O   0  0  0  0  0  0  0  0  0  0  0  0
   47.9138   10.0762   12.2938 C   0  0  0  0  0  0  0  0  0  0  0  0
   48.3751    8.9355   12.9362 C   0  0  0  0  0  0  0  0  0  0  0  0
   46.5520   10.1987   11.9591 C   0  0  0  0  0  0  0  0  0  0  0  0
   47.5043    7.9028   13.2661 C   0  0  0  0  0  0  0  0  0  0  0  0
   45.6829    9.1503   12.3086 C   0  0  0  0  0  0  0  0  0  0  0  0
   43.5803   11.4950   11.4484 N   0  0  0  0  0  0  0  0  0  0  0  0
   46.1550    8.0028   12.9571 C   0  0  0  0  0  0  0  0  0  0  0  0
   44.7326   11.4446   10.5272 C   0  0  0  0  0  0  0  0  0  0  0  0
   46.0960   11.4741   11.2713 C   0  0  1  0  0  0  0  0  0  0  0  0
   49.7014    8.8345   13.2466 O   0  0  0  0  0  0  0  0  0  0  0  0
   48.0235    6.8085   13.8995 O   0  0  0  0  0  0  0  0  0  0  0  0
   46.0703   12.5444   12.2279 O   0  0  0  0  0  0  0  0  0  0  0  0
   42.2882   11.5069   10.7563 C   0  0  0  0  0  0  0  0  0  0  0  0
   41.9675   12.8683   10.1361 C   0  0  0  0  0  0  0  0  0  0  0  0
   41.2135   11.1391   11.7817 C   0  0  0  0  0  0  0  0  0  0  0  0
   44.8806   10.1613   11.6229 O   0  0  0  0  0  0  0  0  0  0  0  0
   44.8740   10.1637   11.6207 O   0  0  0  0  0  0  0  0  0  0  0  0
   43.5210   12.6561   12.4837 H   0  0  0  0  0  0  0  0  0  0  0  0
   44.2506   10.1711    9.0285 H   0  0  0  0  0  0  0  0  0  0  0  0
   45.4894    9.4940   11.8720 H   0  0  0  0  0  0  0  0  0  0  0  0
   41.8890    9.4277    9.0634 H   0  0  0  0  0  0  0  0  0  0  0  0
   45.8972   11.6895   12.8642 H   0  0  0  0  0  0  0  0  0  0  0  0
   47.3329   11.7969   11.8583 H   0  0  0  0  0  0  0  0  0  0  0  0
   45.9730   11.6146    9.7915 H   0  0  0  0  0  0  0  0  0  0  0  0
   41.3962   12.5812   13.2644 H   0  0  0  0  0  0  0  0  0  0  0  0
   39.7002   10.6491   11.5670 H   0  0  0  0  0  0  0  0  0  0  0  0
   44.8958   13.6550   10.1191 H   0  0  0  0  0  0  0  0  0  0  0  0
   46.7136    9.7847   13.9946 H   0  0  0  0  0  0  0  0  0  0  0  0
   47.3754    7.3945   14.0134 H   0  0  0  0  0  0  0  0  0  0  0  0
   45.8131    7.6131   13.2155 H   0  0  0  0  0  0  0  0  0  0  0  0
   47.2702    7.3290   12.2457 H   0  0  0  0  0  0  0  0  0  0  0  0
   48.8558   10.6869   13.0638 H   0  0  0  0  0  0  0  0  0  0  0  0
   49.0838    9.2067   12.1173 H   0  0  0  0  0  0  0  0  0  0  0  0
   49.1385    9.1549   13.8844 H   0  0  0  0  0  0  0  0  0  0  0  0
   43.7751   11.9356   11.3991 H   0  0  0  0  0  0  0  0  0  0  0  0
   46.7921   10.5391   12.1461 H   0  0  0  0  0  0  0  0  0  0  0  0
   48.6164   10.8716   12.0561 H   0  0  0  0  0  0  0  0  0  0  0  0
   44.6189    9.2109   12.0865 H   0  0  0  0  0  0  0  0  0  0  0  0
   43.6806   12.3359   12.0221 H   0  0  0  0  0  0  0  0  0  0  0  0
   45.4555    7.2133   13.2124 H   0  0  0  0  0  0  0  0  0  0  0  0
   44.6766   10.5591    9.8835 H   0  0  0  0  0  0  0  0  0  0  0  0
   44.7010   12.3307    9.8832 H   0  0  0  0  0  0  0  0  0  0  0  0
   46.8546   11.7371   10.5231 H   0  0  0  0  0  0  0  0  0  0  0  0
   49.7807    7.9651   13.6882 H   0  0  0  0  0  0  0  0  0  0  0  0
   47.2979    6.1789   14.0540 H   0  0  0  0  0  0  0  0  0  0  0  0
   45.9310   12.1291   13.0978 H   0  0  0  0  0  0  0  0  0  0  0  0
   42.2761   10.7387    9.9732 H   0  0  0  0  0  0  0  0  0  0  0  0
   40.9695   12.8578    9.6851 H   0  0  0  0  0  0  0  0  0  0  0  0
   42.6781   13.1310    9.3473 H   0  0  0  0  0  0  0  0  0  0  0  0
   41.9843   13.6649   10.8879 H   0  0  0  0  0  0  0  0  0  0  0  0
   41.4096   10.1535   12.2183 H   0  0  0  0  0  0  0  0  0  0  0  0
   40.2259   11.0994   11.3095 H   0  0  0  0  0  0  0  0  0  0  0  0
   41.1662   11.8692   12.5979 H   0  0  0  0  0  0  0  0  0  0  0  0
   44.2980   10.9355   11.6305 H   0  0  0  0  0  0  0  0  0  0  0  0
   45.6695   10.4580   12.1006 H   0  0  0  0  0  0  0  0  0  0  0  0
   44.3039   10.9472   11.6375 H   0  0  0  0  0  0  0  0  0  0  0  0
   45.6704   10.4439   12.0959 H   0  0  0  0  0  0  0  0  0  0  0  0
  2  1  2  0
  3  1  1  0
  4  2  1  0
  5  3  2  0
  6  8  1  0
  7  5  1  0
  8  9  1  0
  9  3  1  0
 10  2  1  0
 11  4  1  0
 12  9  1  0
 13  6  1  0
 14 13  1  0
 15 13  1  0
  7  4  2  0
 17 16  2  0
 18 16  2  0
 19 16  1  0
 20 16  1  0
 22 21  2  0
 23 21  1  0
 24 22  1  0
 25 23  2  0
 26 28  1  0
 27 25  1  0
 28 29  1  0
 29 23  1  0
 30 22  1  0
 31 24  1  0
 32 29  1  0
 33 26  1  0
 34 33  1  0
 35 33  1  0
 27 24  2  0
  1 38  1  0
  5 39  1  0
  6 40  1  0
  7 41  1  0
  8 42  1  0
  8 43  1  0
  9 44  1  6
 10 45  1  0
 11 46  1  0
 12 47  1  0
 13 48  1  0
 14 49  1  0
 14 50  1  0
 14 51  1  0
 15 52  1  0
 15 53  1  0
 15 54  1  0
 19 55  1  0
 20 56  1  0
 21 57  1  0
 25 58  1  0
 26 59  1  0
 27 60  1  0
 28 61  1  0
 28 62  1  0
 29 63  1  6
 30 64  1  0
 31 65  1  0
 32 66  1  0
 33 67  1  0
 34 68  1  0
 34 69  1  0
 34 70  1  0
 35 71  1  0
 35 72  1  0
 35 73  1  0
 36 74  1  0
 36 75  1  0
 37 76  1  0
 37 77  1  0
M  END
> <Uni-Dock RESULT> 
ENERGY=   -5.198  LOWER_BOUND=    6.051  UPPER_BOUND=    7.671
INTER + INTRA:          -5.198
INTER:                  -5.198
INTRA:                   0.000
UNBOUND:                 0.000

$$$$

     RDKit          3D

 77 74  0  0  0  0  0  0  0  0999 V2000
   48.4811    4.0905   18.9038 C   0  0  0  0  0  0  0  0  0  0  0  0
   47.6903    3.6876   17.8329 C   0  0  0  0  0  0  0  0  0  0  0  0
   49.3876    5.1544   18.7398 C   0  0  0  0  0  0  0  0  0  0  0  0
   47.7918    4.3306   16.6027 C   0  0  0  0  0  0  0  0  0  0  0  0
   49.4761    5.7928   17.4892 C   0  0  0  0  0  0  0  0  0  0  0  0
   52.3404    4.3507   19.1564 N   0  0  0  0  0  0  0  0  0  0  0  0
   48.6773    5.3811   16.4208 C   0  0  0  0  0  0  0  0  0  0  0  0
   51.3794    4.5778   20.2493 C   0  0  0  0  0  0  0  0  0  0  0  0
   50.2762    5.6035   19.8851 C   0  0  2  0  0  0  0  0  0  0  0  0
   46.7973    2.6580   17.9410 O   0  0  0  0  0  0  0  0  0  0  0  0
   47.0144    3.9262   15.5556 O   0  0  0  0  0  0  0  0  0  0  0  0
   49.4550    5.8376   21.0338 O   0  0  0  0  0  0  0  0  0  0  0  0
   53.3175    3.2976   19.4678 C   0  0  0  0  0  0  0  0  0  0  0  0
   54.0323    2.9082   18.1704 C   0  0  0  0  0  0  0  0  0  0  0  0
   54.3462    3.7598   20.5006 C   0  0  0  0  0  0  0  0  0  0  0  0
   50.8569    4.0884   18.3683 S   0  0  0  0  0  0  0  0  0  0  0  0
   51.5341    2.8327   18.1658 O   0  0  0  0  0  0  0  0  0  0  0  0
   50.4074    4.9409   17.2976 O   0  0  0  0  0  0  0  0  0  0  0  0
   49.5783    3.8264   19.3006 O   0  0  0  0  0  0  0  0  0  0  0  0
   51.7835    4.9533   19.3523 O   0  0  0  0  0  0  0  0  0  0  0  0
   53.4323    4.3690   20.2453 C   0  0  0  0  0  0  0  0  0  0  0  0
   54.5398    3.6613   19.7990 C   0  0  0  0  0  0  0  0  0  0  0  0
   52.2466    4.3809   19.4866 C   0  0  0  0  0  0  0  0  0  0  0  0
   54.4959    2.9488   18.6057 C   0  0  0  0  0  0  0  0  0  0  0  0
   52.2152    3.6473   18.2877 C   0  0  0  0  0  0  0  0  0  0  0  0
   49.0612    4.3841   18.6962 N   0  0  0  0  0  0  0  0  0  0  0  0
   53.3360    2.9351   17.8439 C   0  0  0  0  0  0  0  0  0  0  0  0
   49.9269    5.5317   19.0311 C   0  0  0  0  0  0  0  0  0  0  0  0
   51.0585    5.1576   20.0277 C   0  0  1  0  0  0  0  0  0  0  0  0
   55.6822    3.6679   20.5477 O   0  0  0  0  0  0  0  0  0  0  0  0
   55.6208    2.2720   18.2251 O   0  0  0  0  0  0  0  0  0  0  0  0
   50.4796    4.4337   21.1241 O   0  0  0  0  0  0  0  0  0  0  0  0
   47.9660    4.7333   17.7867 C   0  0  0  0  0  0  0  0  0  0  0  0
   46.8397    5.4939   18.4895 C   0  0  0  0  0  0  0  0  0  0  0  0
   47.4219    3.4292   17.1993 C   0  0  0  0  0  0  0  0  0  0  0  0
   50.9106    4.2903   18.4307 O   0  0  0  0  0  0  0  0  0  0  0  0
   50.9037    4.2912   18.4283 O   0  0  0  0  0  0  0  0  0  0  0  0
   48.4078    3.5935   19.8675 H   0  0  0  0  0  0  0  0  0  0  0  0
   50.1766    6.6126   17.3372 H   0  0  0  0  0  0  0  0  0  0  0  0
   51.8169    4.0790   18.3214 H   0  0  0  0  0  0  0  0  0  0  0  0
   48.7479    5.8732   15.4549 H   0  0  0  0  0  0  0  0  0  0  0  0
   50.9107    3.6302   20.5459 H   0  0  0  0  0  0  0  0  0  0  0  0
   51.8998    4.9558   21.1368 H   0  0  0  0  0  0  0  0  0  0  0  0
   50.7468    6.5638   19.6404 H   0  0  0  0  0  0  0  0  0  0  0  0
   46.8316    2.3218   18.8536 H   0  0  0  0  0  0  0  0  0  0  0  0
   46.4938    3.1790   15.9139 H   0  0  0  0  0  0  0  0  0  0  0  0
   48.6946    6.3612   20.7259 H   0  0  0  0  0  0  0  0  0  0  0  0
   52.8017    2.4046   19.8430 H   0  0  0  0  0  0  0  0  0  0  0  0
   54.7639    2.1130   18.3542 H   0  0  0  0  0  0  0  0  0  0  0  0
   53.3206    2.5354   17.4249 H   0  0  0  0  0  0  0  0  0  0  0  0
   54.5647    3.7607   17.7331 H   0  0  0  0  0  0  0  0  0  0  0  0
   53.8822    3.9737   21.4678 H   0  0  0  0  0  0  0  0  0  0  0  0
   54.8689    4.6624   20.1674 H   0  0  0  0  0  0  0  0  0  0  0  0
   55.0982    2.9819   20.6688 H   0  0  0  0  0  0  0  0  0  0  0  0
   48.9473    4.5581   19.1336 H   0  0  0  0  0  0  0  0  0  0  0  0
   52.2497    4.3224   19.9394 H   0  0  0  0  0  0  0  0  0  0  0  0
   53.4929    4.9098   21.1869 H   0  0  0  0  0  0  0  0  0  0  0  0
   51.3134    3.6126   17.6789 H   0  0  0  0  0  0  0  0  0  0  0  0
   48.6866    4.0140   19.5732 H   0  0  0  0  0  0  0  0  0  0  0  0
   53.2759    2.3793   16.9137 H   0  0  0  0  0  0  0  0  0  0  0  0
   50.3574    5.9711   18.1238 H   0  0  0  0  0  0  0  0  0  0  0  0
   49.3137    6.2987   19.5175 H   0  0  0  0  0  0  0  0  0  0  0  0
   51.4384    6.1019   20.4378 H   0  0  0  0  0  0  0  0  0  0  0  0
   56.3056    3.1084   20.0422 H   0  0  0  0  0  0  0  0  0  0  0  0
   55.4352    1.8351   17.3758 H   0  0  0  0  0  0  0  0  0  0  0  0
   50.6942    3.4955   20.9748 H   0  0  0  0  0  0  0  0  0  0  0  0
   48.3487    5.3375   16.9548 H   0  0  0  0  0  0  0  0  0  0  0  0
   46.0129    5.6805   17.7959 H   0  0  0  0  0  0  0  0  0  0  0  0
   47.1780    6.4654   18.8610 H   0  0  0  0  0  0  0  0  0  0  0  0
   46.4409    4.9260   19.3371 H   0  0  0  0  0  0  0  0  0  0  0  0
   48.2075    2.8817   16.6668 H   0  0  0  0  0  0  0  0  0  0  0  0
   46.6191    3.6333   16.4825 H   0  0  0  0  0  0  0  0  0  0  0  0
   47.0177    2.7723   17.9780 H   0  0  0  0  0  0  0  0  0  0  0  0
   49.9835    4.2826   18.7121 H   0  0  0  0  0  0  0  0  0  0  0  0
   51.4017    4.0795   19.2389 H   0  0  0  0  0  0  0  0  0  0  0  0
   49.9818    4.2794   18.7265 H   0  0  0  0  0  0  0  0  0  0  0  0
   51.4104    4.0817   19.2270 H   0  0  0  0  0  0  0  0  0  0  0  0
  2  1  2  0
  3  1  1  0
  4  2  1  0
  5  3  2  0
  6  8  1  0
  7  5  1  0
  8  9  1  0
  9  3  1  0
 10  2  1  0
 11  4  1  0
 12  9  1  0
 13  6  1  0
 14 13  1  0
 15 13  1  0
  7  4  2  0
 17 16  2  0
 18 16  2  0
 19 16  1  0
 20 16  1  0
 22 21  2  0
 23 21  1  0
 24 22  1  0
 25 23  2  0
 26 28  1  0
 27 25  1  0
 28 29  1  0
 29 23  1  0
 30 22  1  0
 31 24  1  0
 32 29  1  0
 33 26  1  0
 34 33  1  0
 35 33  1  0
 27 24  2  0
  1 38  1  0
  5 39  1  0
  6 40  1  0
  7 41  1  0
  8 42  1  0
  8 43  1  0
  9 44  1  6
 10 45  1  0
 11 46  1  0
 12 47  1  0
 13 48  1  0
 14 49  1  0
 14 50  1  0
 14 51  1  0
 15 52  1  0
 15 53  1  0
 15 54  1  0
 19 55  1  0
 20 56  1  0
 21 57  1  0
 25 58  1  0
 26 59  1  0
 27 60  1  0
 28 61  1  0
 28 62  1  0
 29 63  1  6
 30 64  1  0
 31 65  1  0
 32 66  1  0
 33 67  1  0
 34 68  1  0
 34 69  1  0
 34 70  1  0
 35 71  1  0
 35 72  1  0
 35 73  1  0
 36 74  1  0
 36 75  1  0
 37 76  1  0
 37 77  1  0
M  END
> <Uni-Dock RESULT> 
ENERGY=   -5.102  LOWER_BOUND=    9.552  UPPER_BOUND=   11.273
INTER + INTRA:          -5.102
INTER:                  -5.102
INTRA:                   0.000
UNBOUND:                 0.000

$$$$

     RDKit          3D

 77 74  0  0  0  0  0  0  0  0999 V2000
   47.8965    6.7740   17.7714 C   0  0  0  0  0  0  0  0  0  0  0  0
   47.7079    5.6808   18.6103 C   0  0  0  0  0  0  0  0  0  0  0  0
   48.9947    7.6296   17.9772 C   0  0  0  0  0  0  0  0  0  0  0  0
   48.5986    5.4304   19.6503 C   0  0  0  0  0  0  0  0  0  0  0  0
   49.8848    7.3607   19.0331 C   0  0  0  0  0  0  0  0  0  0  0  0
   48.1996   10.5357   18.6561 N   0  0  0  0  0  0  0  0  0  0  0  0
   49.6868    6.2603   19.8691 C   0  0  0  0  0  0  0  0  0  0  0  0
   48.1654    9.9605   17.3006 C   0  0  0  0  0  0  0  0  0  0  0  0
   49.2154    8.8404   17.0892 C   0  0  2  0  0  0  0  0  0  0  0  0
   46.6555    4.8223   18.4535 O   0  0  0  0  0  0  0  0  0  0  0  0
   48.4038    4.3572   20.4715 O   0  0  0  0  0  0  0  0  0  0  0  0
   49.1800    8.4154   15.7229 O   0  0  0  0  0  0  0  0  0  0  0  0
   47.1307   11.5187   18.8840 C   0  0  0  0  0  0  0  0  0  0  0  0
   47.0429   11.7913   20.3886 C   0  0  0  0  0  0  0  0  0  0  0  0
   47.3916   12.8293   18.1404 C   0  0  0  0  0  0  0  0  0  0  0  0
   48.0704    8.8742   18.9922 S   0  0  0  0  0  0  0  0  0  0  0  0
   46.9040    9.4079   19.6488 O   0  0  0  0  0  0  0  0  0  0  0  0
   49.1174    8.1557   19.6725 O   0  0  0  0  0  0  0  0  0  0  0  0
   47.5838    7.9284   17.7915 O   0  0  0  0  0  0  0  0  0  0  0  0
   48.7323   10.0887   18.1787 O   0  0  0  0  0  0  0  0  0  0  0  0
   48.0165   11.9059   17.9724 C   0  0  0  0  0  0  0  0  0  0  0  0
   47.4485   12.7974   18.8720 C   0  0  0  0  0  0  0  0  0  0  0  0
   48.1569   10.5476   18.3144 C   0  0  0  0  0  0  0  0  0  0  0  0
   47.0030   12.3661   20.1166 C   0  0  0  0  0  0  0  0  0  0  0  0
   47.6923   10.1257   19.5725 C   0  0  0  0  0  0  0  0  0  0  0  0
   48.2426    7.2751   18.0794 N   0  0  0  0  0  0  0  0  0  0  0  0
   47.1197   11.0304   20.4747 C   0  0  0  0  0  0  0  0  0  0  0  0
   49.3162    8.2464   17.7917 C   0  0  0  0  0  0  0  0  0  0  0  0
   48.7702    9.6108   17.2879 C   0  0  1  0  0  0  0  0  0  0  0  0
   47.3271   14.1121   18.5223 O   0  0  0  0  0  0  0  0  0  0  0  0
   46.4518   13.2953   20.9539 O   0  0  0  0  0  0  0  0  0  0  0  0
   47.8162    9.3627   16.2440 O   0  0  0  0  0  0  0  0  0  0  0  0
   48.7468    5.9707   18.5186 C   0  0  0  0  0  0  0  0  0  0  0  0
   49.3119    5.1411   17.3639 C   0  0  0  0  0  0  0  0  0  0  0  0
   47.5822    5.2231   19.1716 C   0  0  0  0  0  0  0  0  0  0  0  0
   48.2559    8.9522   18.9084 O   0  0  0  0  0  0  0  0  0  0  0  0
   48.2571    8.9449   18.9083 O   0  0  0  0  0  0  0  0  0  0  0  0
   47.2056    6.9763   16.9573 H   0  0  0  0  0  0  0  0  0  0  0  0
   50.7364    8.0141   19.2161 H   0  0  0  0  0  0  0  0  0  0  0  0
   48.0965    9.7738   19.3297 H   0  0  0  0  0  0  0  0  0  0  0  0
   50.3734    6.0546   20.6855 H   0  0  0  0  0  0  0  0  0  0  0  0
   47.1645    9.5664   17.0804 H   0  0  0  0  0  0  0  0  0  0  0  0
   48.3612   10.7397   16.5550 H   0  0  0  0  0  0  0  0  0  0  0  0
   50.2177    9.2524   17.2591 H   0  0  0  0  0  0  0  0  0  0  0  0
   46.1353    5.1180   17.6860 H   0  0  0  0  0  0  0  0  0  0  0  0
   47.5844    3.9403   20.1363 H   0  0  0  0  0  0  0  0  0  0  0  0
   49.7364    7.6188   15.6684 H   0  0  0  0  0  0  0  0  0  0  0  0
   46.1653   11.1058   18.5650 H   0  0  0  0  0  0  0  0  0  0  0  0
   46.2465   12.5121   20.6065 H   0  0  0  0  0  0  0  0  0  0  0  0
   46.8172   10.8730   20.9429 H   0  0  0  0  0  0  0  0  0  0  0  0
   47.9823   12.1996   20.7788 H   0  0  0  0  0  0  0  0  0  0  0  0
   47.3842   12.6888   17.0557 H   0  0  0  0  0  0  0  0  0  0  0  0
   48.3577   13.2619   18.4205 H   0  0  0  0  0  0  0  0  0  0  0  0
   46.6159   13.5655   18.3754 H   0  0  0  0  0  0  0  0  0  0  0  0
   48.3173    7.3060   17.6019 H   0  0  0  0  0  0  0  0  0  0  0  0
   48.0043   10.6853   17.9067 H   0  0  0  0  0  0  0  0  0  0  0  0
   48.3479   12.2700   17.0027 H   0  0  0  0  0  0  0  0  0  0  0  0
   47.7630    9.0812   19.8712 H   0  0  0  0  0  0  0  0  0  0  0  0
   47.6860    7.1692   17.2277 H   0  0  0  0  0  0  0  0  0  0  0  0
   46.7714   10.6695   21.4371 H   0  0  0  0  0  0  0  0  0  0  0  0
   49.9483    8.3990   18.6741 H   0  0  0  0  0  0  0  0  0  0  0  0
   49.9467    7.8401   16.9928 H   0  0  0  0  0  0  0  0  0  0  0  0
   49.6165   10.1341   16.8248 H   0  0  0  0  0  0  0  0  0  0  0  0
   46.9037   14.5306   19.2985 H   0  0  0  0  0  0  0  0  0  0  0  0
   46.1992   12.8441   21.7781 H   0  0  0  0  0  0  0  0  0  0  0  0
   46.9367    9.4848   16.6441 H   0  0  0  0  0  0  0  0  0  0  0  0
   49.5228    6.1073   19.2820 H   0  0  0  0  0  0  0  0  0  0  0  0
   49.6188    4.1512   17.7181 H   0  0  0  0  0  0  0  0  0  0  0  0
   50.1917    5.6142   16.9185 H   0  0  0  0  0  0  0  0  0  0  0  0
   48.5675    4.9954   16.5735 H   0  0  0  0  0  0  0  0  0  0  0  0
   47.1803    5.7883   20.0199 H   0  0  0  0  0  0  0  0  0  0  0  0
   47.9115    4.2497   19.5510 H   0  0  0  0  0  0  0  0  0  0  0  0
   46.7652    5.0479   18.4622 H   0  0  0  0  0  0  0  0  0  0  0  0
   48.1644    8.1542   18.3664 H   0  0  0  0  0  0  0  0  0  0  0  0
   47.8924    9.6561   18.3506 H   0  0  0  0  0  0  0  0  0  0  0  0
   48.1583    8.1568   18.3531 H   0  0  0  0  0  0  0  0  0  0  0  0
   47.8972    9.6609   18.3639 H   0  0  0  0  0  0  0  0  0  0  0  0
  2  1  2  0
  3  1  1  0
  4  2  1  0
  5  3  2  0
  6  8  1  0
  7  5  1  0
  8  9  1  0
  9  3  1  0
 10  2  1  0
 11  4  1  0
 12  9  1  0
 13  6  1  0
 14 13  1  0
 15 13  1  0
  7  4  2  0
 17 16  2  0
 18 16  2  0
 19 16  1  0
 20 16  1  0
 22 21  2  0
 23 21  1  0
 24 22  1  0
 25 23  2  0
 26 28  1  0
 27 25  1  0
 28 29  1  0
 29 23  1  0
 30 22  1  0
 31 24  1  0
 32 29  1  0
 33 26  1  0
 34 33  1  0
 35 33  1  0
 27 24  2  0
  1 38  1  0
  5 39  1  0
  6 40  1  0
  7 41  1  0
  8 42  1  0
  8 43  1  0
  9 44  1  6
 10 45  1  0
 11 46  1  0
 12 47  1  0
 13 48  1  0
 14 49  1  0
 14 50  1  0
 14 51  1  0
 15 52  1  0
 15 53  1  0
 15 54  1  0
 19 55  1  0
 20 56  1  0
 21 57  1  0
 25 58  1  0
 26 59  1  0
 27 60  1  0
 28 61  1  0
 28 62  1  0
 29 63  1  6
 30 64  1  0
 31 65  1  0
 32 66  1  0
 33 67  1  0
 34 68  1  0
 34 69  1  0
 34 70  1  0
 35 71  1  0
 35 72  1  0
 35 73  1  0
 36 74  1  0
 36 75  1  0
 37 76  1  0
 37 77  1  0
M  END
> <Uni-Dock RESULT> 
ENERGY=   -5.061  LOWER_BOUND=    9.047  UPPER_BOUND=   11.813
INTER + INTRA:          -5.061
INTER:                  -5.061
INTRA:                   0.000
UNBOUND:                 0.000

$$$$

     RDKit          3D

 77 74  0  0  0  0  0  0  0  0999 V2000
   48.6428   11.0552   19.4276 C   0  0  0  0  0  0  0  0  0  0  0  0
   48.4203   12.2369   20.1267 C   0  0  0  0  0  0  0  0  0  0  0  0
   47.5564   10.2211   19.1046 C   0  0  0  0  0  0  0  0  0  0  0  0
   47.1307   12.5966   20.5075 C   0  0  0  0  0  0  0  0  0  0  0  0
   46.2599   10.6011   19.4972 C   0  0  0  0  0  0  0  0  0  0  0  0
   47.7171    7.4146   20.3839 N   0  0  0  0  0  0  0  0  0  0  0  0
   46.0472   11.7896   20.1981 C   0  0  0  0  0  0  0  0  0  0  0  0
   48.4905    7.8344   19.2028 C   0  0  0  0  0  0  0  0  0  0  0  0
   47.7712    8.9170   18.3587 C   0  0  2  0  0  0  0  0  0  0  0  0
   49.4422   13.0791   20.4666 O   0  0  0  0  0  0  0  0  0  0  0  0
   46.9217   13.7565   21.1969 O   0  0  0  0  0  0  0  0  0  0  0  0
   48.5432    9.1862   17.1839 O   0  0  0  0  0  0  0  0  0  0  0  0
   48.4512    6.4703   21.2383 C   0  0  0  0  0  0  0  0  0  0  0  0
   47.7192    6.3689   22.5798 C   0  0  0  0  0  0  0  0  0  0  0  0
   48.5505    5.0829   20.6028 C   0  0  0  0  0  0  0  0  0  0  0  0
   47.7395    9.1042   20.5717 S   0  0  0  0  0  0  0  0  0  0  0  0
   48.3549    8.6550   21.7948 O   0  0  0  0  0  0  0  0  0  0  0  0
   46.5317    9.8878   20.5204 O   0  0  0  0  0  0  0  0  0  0  0  0
   48.8353    9.9124   19.7239 O   0  0  0  0  0  0  0  0  0  0  0  0
   47.5404    7.8019   19.6557 O   0  0  0  0  0  0  0  0  0  0  0  0
   48.1584    5.9777   20.0396 C   0  0  0  0  0  0  0  0  0  0  0  0
   48.1189    5.1964   21.1861 C   0  0  0  0  0  0  0  0  0  0  0  0
   47.9325    7.3648   20.1196 C   0  0  0  0  0  0  0  0  0  0  0  0
   47.8652    5.7675   22.4283 C   0  0  0  0  0  0  0  0  0  0  0  0
   47.6875    7.9282   21.3842 C   0  0  0  0  0  0  0  0  0  0  0  0
   48.1600   10.5897   19.5536 N   0  0  0  0  0  0  0  0  0  0  0  0
   47.6498    7.1341   22.5368 C   0  0  0  0  0  0  0  0  0  0  0  0
   47.3480    9.5854   18.8389 C   0  0  0  0  0  0  0  0  0  0  0  0
   48.0029    8.1766   18.8376 C   0  0  1  0  0  0  0  0  0  0  0  0
   48.3350    3.8515   21.0852 O   0  0  0  0  0  0  0  0  0  0  0  0
   47.8422    4.9416   23.5173 O   0  0  0  0  0  0  0  0  0  0  0  0
   49.3751    8.3121   18.4379 O   0  0  0  0  0  0  0  0  0  0  0  0
   47.5713   11.9318   19.5285 C   0  0  0  0  0  0  0  0  0  0  0  0
   47.7442   12.6230   18.1745 C   0  0  0  0  0  0  0  0  0  0  0  0
   48.2563   12.7555   20.6213 C   0  0  0  0  0  0  0  0  0  0  0  0
   47.6220    9.0161   20.4106 O   0  0  0  0  0  0  0  0  0  0  0  0
   47.6214    9.0233   20.4092 O   0  0  0  0  0  0  0  0  0  0  0  0
   49.6467   10.7674   19.1269 H   0  0  0  0  0  0  0  0  0  0  0  0
   45.4056    9.9669   19.2654 H   0  0  0  0  0  0  0  0  0  0  0  0
   47.4912    8.2481   20.9311 H   0  0  0  0  0  0  0  0  0  0  0  0
   45.0461   12.0812   20.5027 H   0  0  0  0  0  0  0  0  0  0  0  0
   49.4770    8.2077   19.5078 H   0  0  0  0  0  0  0  0  0  0  0  0
   48.6747    6.9752   18.5476 H   0  0  0  0  0  0  0  0  0  0  0  0
   46.8089    8.5201   18.0123 H   0  0  0  0  0  0  0  0  0  0  0  0
   50.2716   12.7025   20.1241 H   0  0  0  0  0  0  0  0  0  0  0  0
   47.8159   14.1384   21.3067 H   0  0  0  0  0  0  0  0  0  0  0  0
   48.1427    9.9680   16.7650 H   0  0  0  0  0  0  0  0  0  0  0  0
   49.4606    6.8510   21.4394 H   0  0  0  0  0  0  0  0  0  0  0  0
   48.2415    5.6822   23.2558 H   0  0  0  0  0  0  0  0  0  0  0  0
   47.6686    7.3450   23.0760 H   0  0  0  0  0  0  0  0  0  0  0  0
   46.6946    6.0009   22.4521 H   0  0  0  0  0  0  0  0  0  0  0  0
   49.1352    5.1009   19.6786 H   0  0  0  0  0  0  0  0  0  0  0  0
   47.5599    4.6783   20.3704 H   0  0  0  0  0  0  0  0  0  0  0  0
   49.0454    4.3827   21.2838 H   0  0  0  0  0  0  0  0  0  0  0  0
   48.3462   10.5049   19.1146 H   0  0  0  0  0  0  0  0  0  0  0  0
   48.2692    7.1832   19.8703 H   0  0  0  0  0  0  0  0  0  0  0  0
   48.3679    5.5049   19.0828 H   0  0  0  0  0  0  0  0  0  0  0  0
   47.5266    8.9991   21.4956 H   0  0  0  0  0  0  0  0  0  0  0  0
   49.0863   10.6029   19.1197 H   0  0  0  0  0  0  0  0  0  0  0  0
   47.4584    7.6029   23.4967 H   0  0  0  0  0  0  0  0  0  0  0  0
   46.3389    9.5286   19.2633 H   0  0  0  0  0  0  0  0  0  0  0  0
   47.2552    9.8954   17.7920 H   0  0  0  0  0  0  0  0  0  0  0  0
   47.5002    7.5992   18.0512 H   0  0  0  0  0  0  0  0  0  0  0  0
   48.2633    3.5255   22.0048 H   0  0  0  0  0  0  0  0  0  0  0  0
   47.6472    5.4841   24.3011 H   0  0  0  0  0  0  0  0  0  0  0  0
   49.9044    8.2413   19.2525 H   0  0  0  0  0  0  0  0  0  0  0  0
   46.5037   11.8768   19.7749 H   0  0  0  0  0  0  0  0  0  0  0  0
   47.3508   13.6444   18.2131 H   0  0  0  0  0  0  0  0  0  0  0  0
   47.2065   12.0972   17.3803 H   0  0  0  0  0  0  0  0  0  0  0  0
   48.7997   12.6838   17.8877 H   0  0  0  0  0  0  0  0  0  0  0  0
   48.1204   12.2916   21.6046 H   0  0  0  0  0  0  0  0  0  0  0  0
   47.8297   13.7631   20.6708 H   0  0  0  0  0  0  0  0  0  0  0  0
   49.3324   12.8552   20.4382 H   0  0  0  0  0  0  0  0  0  0  0  0
   48.0279    9.7488   19.9235 H   0  0  0  0  0  0  0  0  0  0  0  0
   48.1860    8.2564   20.2022 H   0  0  0  0  0  0  0  0  0  0  0  0
   48.0399    9.7448   19.9159 H   0  0  0  0  0  0  0  0  0  0  0  0
   48.1747    8.2531   20.2113 H   0  0  0  0  0  0  0  0  0  0  0  0
  2  1  2  0
  3  1  1  0
  4  2  1  0
  5  3  2  0
  6  8  1  0
  7  5  1  0
  8  9  1  0
  9  3  1  0
 10  2  1  0
 11  4  1  0
 12  9  1  0
 13  6  1  0
 14 13  1  0
 15 13  1  0
  7  4  2  0
 17 16  2  0
 18 16  2  0
 19 16  1  0
 20 16  1  0
 22 21  2  0
 23 21  1  0
 24 22  1  0
 25 23  2  0
 26 28  1  0
 27 25  1  0
 28 29  1  0
 29 23  1  0
 30 22  1  0
 31 24  1  0
 32 29  1  0
 33 26  1  0
 34 33  1  0
 35 33  1  0
 27 24  2  0
  1 38  1  0
  5 39  1  0
  6 40  1  0
  7 41  1  0
  8 42  1  0
  8 43  1  0
  9 44  1  6
 10 45  1  0
 11 46  1  0
 12 47  1  0
 13 48  1  0
 14 49  1  0
 14 50  1  0
 14 51  1  0
 15 52  1  0
 15 53  1  0
 15 54  1  0
 19 55  1  0
 20 56  1  0
 21 57  1  0
 25 58  1  0
 26 59  1  0
 27 60  1  0
 28 61  1  0
 28 62  1  0
 29 63  1  6
 30 64  1  0
 31 65  1  0
 32 66  1  0
 33 67  1  0
 34 68  1  0
 34 69  1  0
 34 70  1  0
 35 71  1  0
 35 72  1  0
 35 73  1  0
 36 74  1  0
 36 75  1  0
 37 76  1  0
 37 77  1  0
M  END
> <Uni-Dock RESULT> 
ENERGY=   -4.994  LOWER_BOUND=   10.577  UPPER_BOUND=   12.459
INTER + INTRA:          -4.994
INTER:                  -4.994
INTRA:                   0.000
UNBOUND:                 0.000

$$$$

     RDKit          3D

 77 74  0  0  0  0  0  0  0  0999 V2000
   50.8443    8.2551   15.7444 C   0  0  0  0  0  0  0  0  0  0  0  0
   51.7745    7.2730   16.0681 C   0  0  0  0  0  0  0  0  0  0  0  0
   49.5326    8.1658   16.2462 C   0  0  0  0  0  0  0  0  0  0  0  0
   51.4139    6.2045   16.8841 C   0  0  0  0  0  0  0  0  0  0  0  0
   49.1864    7.0790   17.0699 C   0  0  0  0  0  0  0  0  0  0  0  0
   47.3748    7.9015   14.0524 N   0  0  0  0  0  0  0  0  0  0  0  0
   50.1277    6.0987   17.3893 C   0  0  0  0  0  0  0  0  0  0  0  0
   48.0431    9.1638   14.4122 C   0  0  0  0  0  0  0  0  0  0  0  0
   48.4917    9.2128   15.8948 C   0  0  2  0  0  0  0  0  0  0  0  0
   53.0596    7.3132   15.6034 O   0  0  0  0  0  0  0  0  0  0  0  0
   52.3322    5.2427   17.1937 O   0  0  0  0  0  0  0  0  0  0  0  0
   49.0335   10.5067   16.1790 O   0  0  0  0  0  0  0  0  0  0  0  0
   47.0508    7.8173   12.6211 C   0  0  0  0  0  0  0  0  0  0  0  0
   46.6854    6.3657   12.2970 C   0  0  0  0  0  0  0  0  0  0  0  0
   45.8873    8.7350   12.2436 C   0  0  0  0  0  0  0  0  0  0  0  0
   48.8193    7.3379   14.7498 S   0  0  0  0  0  0  0  0  0  0  0  0
   48.8778    6.7669   13.4281 O   0  0  0  0  0  0  0  0  0  0  0  0
   48.8215    6.5598   15.9622 O   0  0  0  0  0  0  0  0  0  0  0  0
   50.0150    8.3972   14.8941 O   0  0  0  0  0  0  0  0  0  0  0  0
   47.5426    8.3097   14.7713 O   0  0  0  0  0  0  0  0  0  0  0  0
   46.3785    8.7701   13.2580 C   0  0  0  0  0  0  0  0  0  0  0  0
   45.7995    8.0059   12.2543 C   0  0  0  0  0  0  0  0  0  0  0  0
   47.4266    8.2418   14.0350 C   0  0  0  0  0  0  0  0  0  0  0  0
   46.2469    6.7152   11.9944 C   0  0  0  0  0  0  0  0  0  0  0  0
   47.8742    6.9392   13.7529 C   0  0  0  0  0  0  0  0  0  0  0  0
   50.2047    8.0184   15.7683 N   0  0  0  0  0  0  0  0  0  0  0  0
   47.2859    6.1741   12.7385 C   0  0  0  0  0  0  0  0  0  0  0  0
   48.8649    8.4340   16.2276 C   0  0  0  0  0  0  0  0  0  0  0  0
   48.0364    9.1252   15.1099 C   0  0  1  0  0  0  0  0  0  0  0  0
   44.7798    8.5357   11.5160 O   0  0  0  0  0  0  0  0  0  0  0  0
   45.6345    6.0178   10.9910 O   0  0  0  0  0  0  0  0  0  0  0  0
   48.8550   10.1284   14.4897 O   0  0  0  0  0  0  0  0  0  0  0  0
   51.0108    7.3998   16.8247 C   0  0  0  0  0  0  0  0  0  0  0  0
   51.5686    8.4253   17.8137 C   0  0  0  0  0  0  0  0  0  0  0  0
   52.1628    6.6539   16.1477 C   0  0  0  0  0  0  0  0  0  0  0  0
   48.6685    7.4310   14.8768 O   0  0  0  0  0  0  0  0  0  0  0  0
   48.6741    7.4301   14.8815 O   0  0  0  0  0  0  0  0  0  0  0  0
   51.1181    9.0924   15.1079 H   0  0  0  0  0  0  0  0  0  0  0  0
   48.1750    6.9851   17.4624 H   0  0  0  0  0  0  0  0  0  0  0  0
   47.9983    7.1288   14.2959 H   0  0  0  0  0  0  0  0  0  0  0  0
   49.8588    5.2587   18.0236 H   0  0  0  0  0  0  0  0  0  0  0  0
   48.9131    9.3313   13.7637 H   0  0  0  0  0  0  0  0  0  0  0  0
   47.3664   10.0098   14.2454 H   0  0  0  0  0  0  0  0  0  0  0  0
   47.6115    9.0977   16.5393 H   0  0  0  0  0  0  0  0  0  0  0  0
   53.1615    8.1166   15.0637 H   0  0  0  0  0  0  0  0  0  0  0  0
   53.1432    5.5201   16.7216 H   0  0  0  0  0  0  0  0  0  0  0  0
   49.4378   10.4475   17.0623 H   0  0  0  0  0  0  0  0  0  0  0  0
   47.9306    8.0797   12.0200 H   0  0  0  0  0  0  0  0  0  0  0  0
   46.4483    6.2536   11.2328 H   0  0  0  0  0  0  0  0  0  0  0  0
   47.5185    5.6898   12.5220 H   0  0  0  0  0  0  0  0  0  0  0  0
   45.8143    6.0321   12.8727 H   0  0  0  0  0  0  0  0  0  0  0  0
   46.1389    9.7896   12.3882 H   0  0  0  0  0  0  0  0  0  0  0  0
   44.9950    8.5138   12.8384 H   0  0  0  0  0  0  0  0  0  0  0  0
   45.6245    8.6081   11.1882 H   0  0  0  0  0  0  0  0  0  0  0  0
   50.1967    8.4952   15.8527 H   0  0  0  0  0  0  0  0  0  0  0  0
   47.4345    8.6653   13.8647 H   0  0  0  0  0  0  0  0  0  0  0  0
   46.0139    9.7797   13.4328 H   0  0  0  0  0  0  0  0  0  0  0  0
   48.6948    6.4976   14.3158 H   0  0  0  0  0  0  0  0  0  0  0  0
   50.6778    8.8494   15.4050 H   0  0  0  0  0  0  0  0  0  0  0  0
   47.6572    5.1723   12.5480 H   0  0  0  0  0  0  0  0  0  0  0  0
   48.3099    7.5788   16.6303 H   0  0  0  0  0  0  0  0  0  0  0  0
   48.9861    9.1659   17.0342 H   0  0  0  0  0  0  0  0  0  0  0  0
   47.2149    9.6530   15.6110 H   0  0  0  0  0  0  0  0  0  0  0  0
   44.5458    7.8271   10.8835 H   0  0  0  0  0  0  0  0  0  0  0  0
   46.0507    5.1399   10.9385 H   0  0  0  0  0  0  0  0  0  0  0  0
   49.1497    9.7530   13.6407 H   0  0  0  0  0  0  0  0  0  0  0  0
   50.4107    6.6596   17.3683 H   0  0  0  0  0  0  0  0  0  0  0  0
   52.2163    7.9354   18.5486 H   0  0  0  0  0  0  0  0  0  0  0  0
   50.7709    8.9285   18.3676 H   0  0  0  0  0  0  0  0  0  0  0  0
   52.1637    9.1909   17.3039 H   0  0  0  0  0  0  0  0  0  0  0  0
   51.7841    5.8944   15.4547 H   0  0  0  0  0  0  0  0  0  0  0  0
   52.7820    6.1414   16.8917 H   0  0  0  0  0  0  0  0  0  0  0  0
   52.8103    7.3356   15.5841 H   0  0  0  0  0  0  0  0  0  0  0  0
   49.4600    7.8570   15.2385 H   0  0  0  0  0  0  0  0  0  0  0  0
   48.3176    8.0829   14.2517 H   0  0  0  0  0  0  0  0  0  0  0  0
   49.4625    7.8705   15.2330 H   0  0  0  0  0  0  0  0  0  0  0  0
   48.3095    8.0704   14.2525 H   0  0  0  0  0  0  0  0  0  0  0  0
  2  1  2  0
  3  1  1  0
  4  2  1  0
  5  3  2  0
  6  8  1  0
  7  5  1  0
  8  9  1  0
  9  3  1  0
 10  2  1  0
 11  4  1  0
 12  9  1  0
 13  6  1  0
 14 13  1  0
 15 13  1  0
  7  4  2  0
 17 16  2  0
 18 16  2  0
 19 16  1  0
 20 16  1  0
 22 21  2  0
 23 21  1  0
 24 22  1  0
 25 23  2  0
 26 28  1  0
 27 25  1  0
 28 29  1  0
 29 23  1  0
 30 22  1  0
 31 24  1  0
 32 29  1  0
 33 26  1  0
 34 33  1  0
 35 33  1  0
 27 24  2  0
  1 38  1  0
  5 39  1  0
  6 40  1  0
  7 41  1  0
  8 42  1  0
  8 43  1  0
  9 44  1  6
 10 45  1  0
 11 46  1  0
 12 47  1  0
 13 48  1  0
 14 49  1  0
 14 50  1  0
 14 51  1  0
 15 52  1  0
 15 53  1  0
 15 54  1  0
 19 55  1  0
 20 56  1  0
 21 57  1  0
 25 58  1  0
 26 59  1  0
 27 60  1  0
 28 61  1  0
 28 62  1  0
 29 63  1  6
 30 64  1  0
 31 65  1  0
 32 66  1  0
 33 67  1  0
 34 68  1  0
 34 69  1  0
 34 70  1  0
 35 71  1  0
 35 72  1  0
 35 73  1  0
 36 74  1  0
 36 75  1  0
 37 76  1  0
 37 77  1  0
M  END
> <Uni-Dock RESULT> 
ENERGY=   -4.978  LOWER_BOUND=    5.701  UPPER_BOUND=    8.351
INTER + INTRA:          -4.978
INTER:                  -4.978
INTRA:                   0.000
UNBOUND:                 0.000

$$$$
