
     RDKit          3D

 77 74  0  0  0  0  0  0  0  0999 V2000
   40.7334    9.9314   11.0979 C   0  0  0  0  0  0  0  0  0  0  0  0
   39.4469   10.4409   11.2110 C   0  0  0  0  0  0  0  0  0  0  0  0
   41.7438   10.7211   10.5278 C   0  0  0  0  0  0  0  0  0  0  0  0
   39.1446   11.7257   10.7707 C   0  0  0  0  0  0  0  0  0  0  0  0
   41.4280   12.0199   10.0860 C   0  0  0  0  0  0  0  0  0  0  0  0
   45.4481   10.2094   11.3672 N   0  0  0  0  0  0  0  0  0  0  0  0
   40.1298   12.5249   10.2067 C   0  0  0  0  0  0  0  0  0  0  0  0
   44.1211   10.8485   11.4146 C   0  0  0  0  0  0  0  0  0  0  0  0
   43.1530   10.1795   10.4112 C   0  0  2  0  0  0  0  0  0  0  0  0
   38.4722    9.6651   11.7697 O   0  0  0  0  0  0  0  0  0  0  0  0
   37.8558   12.1609   10.9161 O   0  0  0  0  0  0  0  0  0  0  0  0
   43.6333   10.3966    9.0770 O   0  0  0  0  0  0  0  0  0  0  0  0
   46.4555   10.9394   12.1434 C   0  0  0  0  0  0  0  0  0  0  0  0
   47.5717    9.9602   12.4982 C   0  0  0  0  0  0  0  0  0  0  0  0
   47.0292   12.1218   11.3599 C   0  0  0  0  0  0  0  0  0  0  0  0
   43.3082   10.5690   11.0365 S   0  0  0  0  0  0  0  0  0  0  0  0
   42.8403   10.2434    9.7137 O   0  0  0  0  0  0  0  0  0  0  0  0
   44.1993    9.7192   11.7870 O   0  0  0  0  0  0  0  0  0  0  0  0
   44.0207   12.0025   10.9443 O   0  0  0  0  0  0  0  0  0  0  0  0
   42.0323   10.9200   11.9441 O   0  0  0  0  0  0  0  0  0  0  0  0
   46.0696   11.2510   11.1099 C   0  0  0  0  0  0  0  0  0  0  0  0
   46.9151   10.5889   11.9964 C   0  0  0  0  0  0  0  0  0  0  0  0
   44.7518   10.7963   10.9249 C   0  0  0  0  0  0  0  0  0  0  0  0
   46.4670    9.4833   12.7103 C   0  0  0  0  0  0  0  0  0  0  0  0
   44.3185    9.6756   11.6597 C   0  0  0  0  0  0  0  0  0  0  0  0
   41.6933   11.7100   11.4293 N   0  0  0  0  0  0  0  0  0  0  0  0
   45.1719    9.0199   12.5519 C   0  0  0  0  0  0  0  0  0  0  0  0
   42.7693   12.4018   10.7058 C   0  0  0  0  0  0  0  0  0  0  0  0
   43.7910   11.4894    9.9728 C   0  0  1  0  0  0  0  0  0  0  0  0
   48.2061   10.9981   12.1977 O   0  0  0  0  0  0  0  0  0  0  0  0
   47.3086    8.8485   13.5787 O   0  0  0  0  0  0  0  0  0  0  0  0
   44.5288   12.2833    9.0320 O   0  0  0  0  0  0  0  0  0  0  0  0
   40.6371   11.1586   10.5708 C   0  0  0  0  0  0  0  0  0  0  0  0
   39.6541   12.2344   10.1006 C   0  0  0  0  0  0  0  0  0  0  0  0
   39.8910   10.0972   11.3851 C   0  0  0  0  0  0  0  0  0  0  0  0
   43.3886   11.3620   10.9660 O   0  0  0  0  0  0  0  0  0  0  0  0
   43.4184   11.3566   10.9725 O   0  0  0  0  0  0  0  0  0  0  0  0
   40.9382    8.9263   11.4542 H   0  0  0  0  0  0  0  0  0  0  0  0
   42.2035   12.6417    9.6416 H   0  0  0  0  0  0  0  0  0  0  0  0
   45.7314   10.1479   10.3852 H   0  0  0  0  0  0  0  0  0  0  0  0
   39.9164   13.5293    9.8556 H   0  0  0  0  0  0  0  0  0  0  0  0
   44.2125   11.9123   11.1666 H   0  0  0  0  0  0  0  0  0  0  0  0
   43.7168   10.7668   12.4312 H   0  0  0  0  0  0  0  0  0  0  0  0
   43.1452    9.0944   10.5750 H   0  0  0  0  0  0  0  0  0  0  0  0
   37.6672   10.2207   11.7395 H   0  0  0  0  0  0  0  0  0  0  0  0
   37.8013   13.0667   10.5648 H   0  0  0  0  0  0  0  0  0  0  0  0
   42.9171   10.0963    8.4802 H   0  0  0  0  0  0  0  0  0  0  0  0
   46.0198   11.2980   13.0844 H   0  0  0  0  0  0  0  0  0  0  0  0
   47.1834    9.1099   13.0723 H   0  0  0  0  0  0  0  0  0  0  0  0
   48.3350   10.4522   13.1139 H   0  0  0  0  0  0  0  0  0  0  0  0
   48.0641    9.5678   11.6019 H   0  0  0  0  0  0  0  0  0  0  0  0
   47.4308   11.8103   10.3898 H   0  0  0  0  0  0  0  0  0  0  0  0
   47.8414   12.5976   11.9190 H   0  0  0  0  0  0  0  0  0  0  0  0
   46.2680   12.8895   11.1780 H   0  0  0  0  0  0  0  0  0  0  0  0
   44.9857   11.8448   10.8530 H   0  0  0  0  0  0  0  0  0  0  0  0
   41.7210   11.8137   11.7094 H   0  0  0  0  0  0  0  0  0  0  0  0
   46.4256   12.1114   10.5514 H   0  0  0  0  0  0  0  0  0  0  0  0
   43.3007    9.3094   11.5474 H   0  0  0  0  0  0  0  0  0  0  0  0
   41.2815   12.3517   12.1083 H   0  0  0  0  0  0  0  0  0  0  0  0
   44.8253    8.1604   13.1173 H   0  0  0  0  0  0  0  0  0  0  0  0
   43.3198   13.0172   11.4298 H   0  0  0  0  0  0  0  0  0  0  0  0
   42.3429   13.1211    9.9973 H   0  0  0  0  0  0  0  0  0  0  0  0
   43.2810   10.7252    9.3759 H   0  0  0  0  0  0  0  0  0  0  0  0
   48.3738   11.7471   11.5962 H   0  0  0  0  0  0  0  0  0  0  0  0
   48.1441    9.3514   13.5145 H   0  0  0  0  0  0  0  0  0  0  0  0
   43.8834   12.6363    8.3965 H   0  0  0  0  0  0  0  0  0  0  0  0
   41.0658   10.6587    9.6979 H   0  0  0  0  0  0  0  0  0  0  0  0
   40.1439   12.9921    9.4835 H   0  0  0  0  0  0  0  0  0  0  0  0
   39.1841   12.7390   10.9515 H   0  0  0  0  0  0  0  0  0  0  0  0
   38.8539   11.7919    9.4955 H   0  0  0  0  0  0  0  0  0  0  0  0
   39.4200   10.5355   12.2728 H   0  0  0  0  0  0  0  0  0  0  0  0
   39.1080    9.6268   10.7818 H   0  0  0  0  0  0  0  0  0  0  0  0
   40.5745    9.3098   11.7293 H   0  0  0  0  0  0  0  0  0  0  0  0
   43.9974   10.7324   11.3798 H   0  0  0  0  0  0  0  0  0  0  0  0
   42.5172   10.9538   11.0777 H   0  0  0  0  0  0  0  0  0  0  0  0
   42.5174   11.0082   11.0485 H   0  0  0  0  0  0  0  0  0  0  0  0
   43.9674   10.6834   11.4025 H   0  0  0  0  0  0  0  0  0  0  0  0
  2  1  2  0
  3  1  1  0
  4  2  1  0
  5  3  2  0
  6  8  1  0
  7  5  1  0
  8  9  1  0
  9  3  1  0
 10  2  1  0
 11  4  1  0
 12  9  1  0
 13  6  1  0
 14 13  1  0
 15 13  1  0
  7  4  2  0
 17 16  2  0
 18 16  2  0
 19 16  1  0
 20 16  1  0
 22 21  2  0
 23 21  1  0
 24 22  1  0
 25 23  2  0
 26 28  1  0
 27 25  1  0
 28 29  1  0
 29 23  1  0
 30 22  1  0
 31 24  1  0
 32 29  1  0
 33 26  1  0
 34 33  1  0
 35 33  1  0
 27 24  2  0
  1 38  1  0
  5 39  1  0
  6 40  1  0
  7 41  1  0
  8 42  1  0
  8 43  1  0
  9 44  1  1
 10 45  1  0
 11 46  1  0
 12 47  1  0
 13 48  1  0
 14 49  1  0
 14 50  1  0
 14 51  1  0
 15 52  1  0
 15 53  1  0
 15 54  1  0
 19 55  1  0
 20 56  1  0
 21 57  1  0
 25 58  1  0
 26 59  1  0
 27 60  1  0
 28 61  1  0
 28 62  1  0
 29 63  1  1
 30 64  1  0
 31 65  1  0
 32 66  1  0
 33 67  1  0
 34 68  1  0
 34 69  1  0
 34 70  1  0
 35 71  1  0
 35 72  1  0
 35 73  1  0
 36 74  1  0
 36 75  1  0
 37 76  1  0
 37 77  1  0
M  END
> <Uni-Dock RESULT> 
ENERGY=   -6.150  LOWER_BOUND=    0.000  UPPER_BOUND=    0.000
INTER + INTRA:          -6.150
INTER:                  -6.150
INTRA:                   0.000
UNBOUND:                 0.000

$$$$

     RDKit          3D

 77 74  0  0  0  0  0  0  0  0999 V2000
   49.6618    7.8121   13.0063 C   0  0  0  0  0  0  0  0  0  0  0  0
   50.7372    8.4774   12.4336 C   0  0  0  0  0  0  0  0  0  0  0  0
   48.3632    8.3150   12.8317 C   0  0  0  0  0  0  0  0  0  0  0  0
   50.5467    9.6346   11.6848 C   0  0  0  0  0  0  0  0  0  0  0  0
   48.1807    9.4859   12.0718 C   0  0  0  0  0  0  0  0  0  0  0  0
   45.2653    6.0657   13.0116 N   0  0  0  0  0  0  0  0  0  0  0  0
   49.2702   10.1473   11.4968 C   0  0  0  0  0  0  0  0  0  0  0  0
   46.3259    6.8673   12.3757 C   0  0  0  0  0  0  0  0  0  0  0  0
   47.1820    7.5900   13.4417 C   0  0  2  0  0  0  0  0  0  0  0  0
   51.9959    7.9780   12.6075 O   0  0  0  0  0  0  0  0  0  0  0  0
   51.6532   10.2351   11.1494 O   0  0  0  0  0  0  0  0  0  0  0  0
   46.3612    8.5331   14.1450 O   0  0  0  0  0  0  0  0  0  0  0  0
   44.3020    5.5324   12.0431 C   0  0  0  0  0  0  0  0  0  0  0  0
   43.6289    4.3165   12.6750 C   0  0  0  0  0  0  0  0  0  0  0  0
   43.2465    6.5720   11.6604 C   0  0  0  0  0  0  0  0  0  0  0  0
   47.0727    7.2859   12.7617 S   0  0  0  0  0  0  0  0  0  0  0  0
   47.2909    8.2587   13.8013 O   0  0  0  0  0  0  0  0  0  0  0  0
   46.6642    5.9288   13.0275 O   0  0  0  0  0  0  0  0  0  0  0  0
   45.9783    7.9006   11.7640 O   0  0  0  0  0  0  0  0  0  0  0  0
   48.3699    7.2662   11.8173 O   0  0  0  0  0  0  0  0  0  0  0  0
   44.3291    6.6168   12.4139 C   0  0  0  0  0  0  0  0  0  0  0  0
   43.9411    5.2798   12.4451 C   0  0  0  0  0  0  0  0  0  0  0  0
   45.6403    6.9756   12.7738 C   0  0  0  0  0  0  0  0  0  0  0  0
   44.8415    4.2899   12.8221 C   0  0  0  0  0  0  0  0  0  0  0  0
   46.5362    5.9563   13.1506 C   0  0  0  0  0  0  0  0  0  0  0  0
   48.3378    8.2150   11.4965 N   0  0  0  0  0  0  0  0  0  0  0  0
   46.1403    4.6157   13.1740 C   0  0  0  0  0  0  0  0  0  0  0  0
   46.9704    8.7537   11.4991 C   0  0  0  0  0  0  0  0  0  0  0  0
   46.1112    8.4204   12.7498 C   0  0  1  0  0  0  0  0  0  0  0  0
   42.6716    4.8931   12.1081 O   0  0  0  0  0  0  0  0  0  0  0  0
   44.4450    2.9831   12.8431 O   0  0  0  0  0  0  0  0  0  0  0  0
   44.9779    9.3005   12.7807 O   0  0  0  0  0  0  0  0  0  0  0  0
   49.2760    8.9274   12.3734 C   0  0  0  0  0  0  0  0  0  0  0  0
   49.7706   10.2353   11.7496 C   0  0  0  0  0  0  0  0  0  0  0  0
   50.4640    7.9949   12.6287 C   0  0  0  0  0  0  0  0  0  0  0  0
   46.7541    7.7538   12.1961 O   0  0  0  0  0  0  0  0  0  0  0  0
   46.7295    7.7351   12.1986 O   0  0  0  0  0  0  0  0  0  0  0  0
   49.8430    6.9094   13.5820 H   0  0  0  0  0  0  0  0  0  0  0  0
   47.1780    9.8858   11.9299 H   0  0  0  0  0  0  0  0  0  0  0  0
   44.7899    6.6613   13.6954 H   0  0  0  0  0  0  0  0  0  0  0  0
   49.0983   11.0488   10.9177 H   0  0  0  0  0  0  0  0  0  0  0  0
   45.8779    7.6151   11.7112 H   0  0  0  0  0  0  0  0  0  0  0  0
   46.9630    6.2094   11.7715 H   0  0  0  0  0  0  0  0  0  0  0  0
   47.5387    6.8628   14.1822 H   0  0  0  0  0  0  0  0  0  0  0  0
   52.5774    8.6023   12.1280 H   0  0  0  0  0  0  0  0  0  0  0  0
   51.3618   11.0241   10.6601 H   0  0  0  0  0  0  0  0  0  0  0  0
   46.9729    9.0683   14.6916 H   0  0  0  0  0  0  0  0  0  0  0  0
   44.8243    5.1889   11.1414 H   0  0  0  0  0  0  0  0  0  0  0  0
   44.3679    3.5522   12.9455 H   0  0  0  0  0  0  0  0  0  0  0  0
   42.9229    3.8577   11.9715 H   0  0  0  0  0  0  0  0  0  0  0  0
   43.0741    4.5874   13.5797 H   0  0  0  0  0  0  0  0  0  0  0  0
   42.7356    6.9758   12.5409 H   0  0  0  0  0  0  0  0  0  0  0  0
   42.4866    6.1286   11.0089 H   0  0  0  0  0  0  0  0  0  0  0  0
   43.6910    7.4123   11.1144 H   0  0  0  0  0  0  0  0  0  0  0  0
   45.1057    7.5322   12.0232 H   0  0  0  0  0  0  0  0  0  0  0  0
   48.3478    8.0542   11.2435 H   0  0  0  0  0  0  0  0  0  0  0  0
   43.6209    7.3868   12.1230 H   0  0  0  0  0  0  0  0  0  0  0  0
   47.5604    6.2020   13.4212 H   0  0  0  0  0  0  0  0  0  0  0  0
   48.6954    8.2168   10.5402 H   0  0  0  0  0  0  0  0  0  0  0  0
   46.8411    3.8376   13.4606 H   0  0  0  0  0  0  0  0  0  0  0  0
   46.4522    8.3600   10.6146 H   0  0  0  0  0  0  0  0  0  0  0  0
   46.9944    9.8389   11.3469 H   0  0  0  0  0  0  0  0  0  0  0  0
   46.6643    8.6214   13.6740 H   0  0  0  0  0  0  0  0  0  0  0  0
   42.1602    5.7007   11.9152 H   0  0  0  0  0  0  0  0  0  0  0  0
   43.5096    3.0112   12.5613 H   0  0  0  0  0  0  0  0  0  0  0  0
   45.3274   10.2050   12.8496 H   0  0  0  0  0  0  0  0  0  0  0  0
   48.8166    9.1435   13.3419 H   0  0  0  0  0  0  0  0  0  0  0  0
   48.9538   10.9432   11.5861 H   0  0  0  0  0  0  0  0  0  0  0  0
   50.2618   10.0532   10.7877 H   0  0  0  0  0  0  0  0  0  0  0  0
   50.4991   10.7274   12.4049 H   0  0  0  0  0  0  0  0  0  0  0  0
   50.9838    7.7485   11.6954 H   0  0  0  0  0  0  0  0  0  0  0  0
   51.1850    8.4637   13.3060 H   0  0  0  0  0  0  0  0  0  0  0  0
   50.1354    7.0504   13.0823 H   0  0  0  0  0  0  0  0  0  0  0  0
   46.4660    6.8728   12.4774 H   0  0  0  0  0  0  0  0  0  0  0  0
   47.7068    7.7562   12.3716 H   0  0  0  0  0  0  0  0  0  0  0  0
   47.6842    7.8085   12.3476 H   0  0  0  0  0  0  0  0  0  0  0  0
   46.5132    6.8393   12.4988 H   0  0  0  0  0  0  0  0  0  0  0  0
  2  1  2  0
  3  1  1  0
  4  2  1  0
  5  3  2  0
  6  8  1  0
  7  5  1  0
  8  9  1  0
  9  3  1  0
 10  2  1  0
 11  4  1  0
 12  9  1  0
 13  6  1  0
 14 13  1  0
 15 13  1  0
  7  4  2  0
 17 16  2  0
 18 16  2  0
 19 16  1  0
 20 16  1  0
 22 21  2  0
 23 21  1  0
 24 22  1  0
 25 23  2  0
 26 28  1  0
 27 25  1  0
 28 29  1  0
 29 23  1  0
 30 22  1  0
 31 24  1  0
 32 29  1  0
 33 26  1  0
 34 33  1  0
 35 33  1  0
 27 24  2  0
  1 38  1  0
  5 39  1  0
  6 40  1  0
  7 41  1  0
  8 42  1  0
  8 43  1  0
  9 44  1  1
 10 45  1  0
 11 46  1  0
 12 47  1  0
 13 48  1  0
 14 49  1  0
 14 50  1  0
 14 51  1  0
 15 52  1  0
 15 53  1  0
 15 54  1  0
 19 55  1  0
 20 56  1  0
 21 57  1  0
 25 58  1  0
 26 59  1  0
 27 60  1  0
 28 61  1  0
 28 62  1  0
 29 63  1  1
 30 64  1  0
 31 65  1  0
 32 66  1  0
 33 67  1  0
 34 68  1  0
 34 69  1  0
 34 70  1  0
 35 71  1  0
 35 72  1  0
 35 73  1  0
 36 74  1  0
 36 75  1  0
 37 76  1  0
 37 77  1  0
M  END
> <Uni-Dock RESULT> 
ENERGY=   -5.593  LOWER_BOUND=    4.402  UPPER_BOUND=    7.533
INTER + INTRA:          -5.593
INTER:                  -5.593
INTRA:                   0.000
UNBOUND:                 0.000

$$$$

     RDKit          3D

 77 74  0  0  0  0  0  0  0  0999 V2000
   44.7662    6.7501   12.8417 C   0  0  0  0  0  0  0  0  0  0  0  0
   44.4892    5.3951   12.7211 C   0  0  0  0  0  0  0  0  0  0  0  0
   46.0791    7.1678   13.1089 C   0  0  0  0  0  0  0  0  0  0  0  0
   45.4954    4.4438   12.8573 C   0  0  0  0  0  0  0  0  0  0  0  0
   47.0903    6.1978   13.2442 C   0  0  0  0  0  0  0  0  0  0  0  0
   47.3603   10.6352   12.0970 N   0  0  0  0  0  0  0  0  0  0  0  0
   46.8016    4.8355   13.1184 C   0  0  0  0  0  0  0  0  0  0  0  0
   47.1850    9.1745   12.0114 C   0  0  0  0  0  0  0  0  0  0  0  0
   46.3942    8.6440   13.2299 C   0  0  2  0  0  0  0  0  0  0  0  0
   43.2090    4.9999   12.4584 O   0  0  0  0  0  0  0  0  0  0  0  0
   45.1483    3.1273   12.7240 O   0  0  0  0  0  0  0  0  0  0  0  0
   47.1603    8.8669   14.4221 O   0  0  0  0  0  0  0  0  0  0  0  0
   48.2793   11.1551   11.0793 C   0  0  0  0  0  0  0  0  0  0  0  0
   47.9650   12.6356   10.8787 C   0  0  0  0  0  0  0  0  0  0  0  0
   49.7420   10.9846   11.4946 C   0  0  0  0  0  0  0  0  0  0  0  0
   46.6331    8.6073   12.5169 S   0  0  0  0  0  0  0  0  0  0  0  0
   46.4629    8.3061   13.9152 O   0  0  0  0  0  0  0  0  0  0  0  0
   46.2074    9.8501   11.9224 O   0  0  0  0  0  0  0  0  0  0  0  0
   48.1963    8.4618   12.1909 O   0  0  0  0  0  0  0  0  0  0  0  0
   46.0292    7.3872   11.6673 O   0  0  0  0  0  0  0  0  0  0  0  0
   48.5983   10.6075   12.0346 C   0  0  0  0  0  0  0  0  0  0  0  0
   48.2678   11.7212   11.2667 C   0  0  0  0  0  0  0  0  0  0  0  0
   47.5932    9.7121   12.4412 C   0  0  0  0  0  0  0  0  0  0  0  0
   46.9505   11.9549   10.8887 C   0  0  0  0  0  0  0  0  0  0  0  0
   46.2658    9.9674   12.0455 C   0  0  0  0  0  0  0  0  0  0  0  0
   46.6312    6.6586   12.0001 N   0  0  0  0  0  0  0  0  0  0  0  0
   45.9431   11.0848   11.2698 C   0  0  0  0  0  0  0  0  0  0  0  0
   47.9371    7.1749   12.4336 C   0  0  0  0  0  0  0  0  0  0  0  0
   47.9062    8.4806   13.2750 C   0  0  1  0  0  0  0  0  0  0  0  0
   49.2178   12.6184   10.8578 O   0  0  0  0  0  0  0  0  0  0  0  0
   46.6448   13.0499   10.1319 O   0  0  0  0  0  0  0  0  0  0  0  0
   49.1764    8.6436   13.9231 O   0  0  0  0  0  0  0  0  0  0  0  0
   45.8540    5.9995   13.0576 C   0  0  0  0  0  0  0  0  0  0  0  0
   46.3454    4.5760   13.3342 C   0  0  0  0  0  0  0  0  0  0  0  0
   44.3933    5.9619   12.5982 C   0  0  0  0  0  0  0  0  0  0  0  0
   47.3408    8.2585   12.3832 O   0  0  0  0  0  0  0  0  0  0  0  0
   47.3501    8.2871   12.3755 O   0  0  0  0  0  0  0  0  0  0  0  0
   43.9596    7.4679   12.7265 H   0  0  0  0  0  0  0  0  0  0  0  0
   48.1125    6.5099   13.4520 H   0  0  0  0  0  0  0  0  0  0  0  0
   47.7070   10.8549   13.0350 H   0  0  0  0  0  0  0  0  0  0  0  0
   47.6018    4.1111   13.2295 H   0  0  0  0  0  0  0  0  0  0  0  0
   48.1650    8.6844   11.9815 H   0  0  0  0  0  0  0  0  0  0  0  0
   46.6500    8.9283   11.0859 H   0  0  0  0  0  0  0  0  0  0  0  0
   45.4615    9.2119   13.3390 H   0  0  0  0  0  0  0  0  0  0  0  0
   43.2550    4.0230   12.4222 H   0  0  0  0  0  0  0  0  0  0  0  0
   45.9501    2.5896   12.8454 H   0  0  0  0  0  0  0  0  0  0  0  0
   46.6972    8.3808   15.1353 H   0  0  0  0  0  0  0  0  0  0  0  0
   48.1071   10.6485   10.1214 H   0  0  0  0  0  0  0  0  0  0  0  0
   46.9229   12.7794   10.5676 H   0  0  0  0  0  0  0  0  0  0  0  0
   48.6044   13.0628   10.0961 H   0  0  0  0  0  0  0  0  0  0  0  0
   48.1275   13.2104   11.7968 H   0  0  0  0  0  0  0  0  0  0  0  0
   49.9424   11.4360   12.4721 H   0  0  0  0  0  0  0  0  0  0  0  0
   50.4078   11.4589   10.7663 H   0  0  0  0  0  0  0  0  0  0  0  0
   50.0226    9.9262   11.5489 H   0  0  0  0  0  0  0  0  0  0  0  0
   48.5893    9.3608   12.2325 H   0  0  0  0  0  0  0  0  0  0  0  0
   46.6588    6.6435   11.7019 H   0  0  0  0  0  0  0  0  0  0  0  0
   49.6280   10.4318   12.3310 H   0  0  0  0  0  0  0  0  0  0  0  0
   45.4694    9.2854   12.3337 H   0  0  0  0  0  0  0  0  0  0  0  0
   46.7696    6.0106   11.2235 H   0  0  0  0  0  0  0  0  0  0  0  0
   44.9172   11.2685   10.9657 H   0  0  0  0  0  0  0  0  0  0  0  0
   48.5397    7.3625   11.5349 H   0  0  0  0  0  0  0  0  0  0  0  0
   48.4856    6.3981   12.9786 H   0  0  0  0  0  0  0  0  0  0  0  0
   47.1705    8.4119   14.0840 H   0  0  0  0  0  0  0  0  0  0  0  0
   50.0700   12.3379   11.2397 H   0  0  0  0  0  0  0  0  0  0  0  0
   47.5038   13.4959    9.9966 H   0  0  0  0  0  0  0  0  0  0  0  0
   49.2937    7.8752   14.5069 H   0  0  0  0  0  0  0  0  0  0  0  0
   45.8897    6.5776   13.9852 H   0  0  0  0  0  0  0  0  0  0  0  0
   47.3753    4.5645   13.7006 H   0  0  0  0  0  0  0  0  0  0  0  0
   46.2979    3.9592   12.4304 H   0  0  0  0  0  0  0  0  0  0  0  0
   45.7249    4.0920   14.0977 H   0  0  0  0  0  0  0  0  0  0  0  0
   44.2817    5.3808   11.6753 H   0  0  0  0  0  0  0  0  0  0  0  0
   43.7583    5.5073   13.3653 H   0  0  0  0  0  0  0  0  0  0  0  0
   44.0150    6.9733   12.3989 H   0  0  0  0  0  0  0  0  0  0  0  0
   47.0351    9.1278   12.0844 H   0  0  0  0  0  0  0  0  0  0  0  0
   46.5285    7.7353   12.4525 H   0  0  0  0  0  0  0  0  0  0  0  0
   46.5805    7.7054   12.4674 H   0  0  0  0  0  0  0  0  0  0  0  0
   46.9738    9.1290   12.0773 H   0  0  0  0  0  0  0  0  0  0  0  0
  2  1  2  0
  3  1  1  0
  4  2  1  0
  5  3  2  0
  6  8  1  0
  7  5  1  0
  8  9  1  0
  9  3  1  0
 10  2  1  0
 11  4  1  0
 12  9  1  0
 13  6  1  0
 14 13  1  0
 15 13  1  0
  7  4  2  0
 17 16  2  0
 18 16  2  0
 19 16  1  0
 20 16  1  0
 22 21  2  0
 23 21  1  0
 24 22  1  0
 25 23  2  0
 26 28  1  0
 27 25  1  0
 28 29  1  0
 29 23  1  0
 30 22  1  0
 31 24  1  0
 32 29  1  0
 33 26  1  0
 34 33  1  0
 35 33  1  0
 27 24  2  0
  1 38  1  0
  5 39  1  0
  6 40  1  0
  7 41  1  0
  8 42  1  0
  8 43  1  0
  9 44  1  1
 10 45  1  0
 11 46  1  0
 12 47  1  0
 13 48  1  0
 14 49  1  0
 14 50  1  0
 14 51  1  0
 15 52  1  0
 15 53  1  0
 15 54  1  0
 19 55  1  0
 20 56  1  0
 21 57  1  0
 25 58  1  0
 26 59  1  0
 27 60  1  0
 28 61  1  0
 28 62  1  0
 29 63  1  1
 30 64  1  0
 31 65  1  0
 32 66  1  0
 33 67  1  0
 34 68  1  0
 34 69  1  0
 34 70  1  0
 35 71  1  0
 35 72  1  0
 35 73  1  0
 36 74  1  0
 36 75  1  0
 37 76  1  0
 37 77  1  0
M  END
> <Uni-Dock RESULT> 
ENERGY=   -5.552  LOWER_BOUND=    4.090  UPPER_BOUND=    6.057
INTER + INTRA:          -5.552
INTER:                  -5.552
INTRA:                   0.000
UNBOUND:                 0.000

$$$$

     RDKit          3D

 77 74  0  0  0  0  0  0  0  0999 V2000
   45.1499    7.2293   12.4410 C   0  0  0  0  0  0  0  0  0  0  0  0
   44.3109    6.1433   12.2314 C   0  0  0  0  0  0  0  0  0  0  0  0
   46.3962    7.0335   13.0559 C   0  0  0  0  0  0  0  0  0  0  0  0
   44.6888    4.8614   12.6185 C   0  0  0  0  0  0  0  0  0  0  0  0
   46.7698    5.7326   13.4433 C   0  0  0  0  0  0  0  0  0  0  0  0
   49.3510    9.4037   12.4733 N   0  0  0  0  0  0  0  0  0  0  0  0
   45.9186    4.6449   13.2253 C   0  0  0  0  0  0  0  0  0  0  0  0
   48.5406    8.1821   12.3233 C   0  0  0  0  0  0  0  0  0  0  0  0
   47.3242    8.2093   13.2778 C   0  0  2  0  0  0  0  0  0  0  0  0
   43.1018    6.3447   11.6300 O   0  0  0  0  0  0  0  0  0  0  0  0
   43.8111    3.8398   12.3784 O   0  0  0  0  0  0  0  0  0  0  0  0
   47.7896    8.1937   14.6346 O   0  0  0  0  0  0  0  0  0  0  0  0
   50.6226    9.3316   11.7464 C   0  0  0  0  0  0  0  0  0  0  0  0
   51.0957   10.7603   11.4900 C   0  0  0  0  0  0  0  0  0  0  0  0
   51.6854    8.5645   12.5357 C   0  0  0  0  0  0  0  0  0  0  0  0
   47.6835    7.9880   12.6544 S   0  0  0  0  0  0  0  0  0  0  0  0
   47.0581    7.9569   13.9516 O   0  0  0  0  0  0  0  0  0  0  0  0
   48.0467    9.2126   11.9853 O   0  0  0  0  0  0  0  0  0  0  0  0
   49.0237    7.1137   12.7568 O   0  0  0  0  0  0  0  0  0  0  0  0
   46.8068    7.0872   11.6568 O   0  0  0  0  0  0  0  0  0  0  0  0
   50.4057    8.8108   12.7443 C   0  0  0  0  0  0  0  0  0  0  0  0
   50.8316    9.8584   11.9318 C   0  0  0  0  0  0  0  0  0  0  0  0
   49.0341    8.5208   12.8542 C   0  0  0  0  0  0  0  0  0  0  0  0
   49.9128   10.6197   11.2183 C   0  0  0  0  0  0  0  0  0  0  0  0
   48.1212    9.3037   12.1212 C   0  0  0  0  0  0  0  0  0  0  0  0
   46.8973    6.2076   12.1283 N   0  0  0  0  0  0  0  0  0  0  0  0
   48.5574   10.3503   11.3034 C   0  0  0  0  0  0  0  0  0  0  0  0
   48.1432    6.1209   12.9030 C   0  0  0  0  0  0  0  0  0  0  0  0
   48.5223    7.3843   13.7238 C   0  0  1  0  0  0  0  0  0  0  0  0
   52.1577   10.1747   11.8051 O   0  0  0  0  0  0  0  0  0  0  0  0
   50.3485   11.6409   10.4230 O   0  0  0  0  0  0  0  0  0  0  0  0
   49.5206    7.0257   14.6906 O   0  0  0  0  0  0  0  0  0  0  0  0
   45.6716    6.0969   12.9296 C   0  0  0  0  0  0  0  0  0  0  0  0
   45.3572    4.6467   13.3074 C   0  0  0  0  0  0  0  0  0  0  0  0
   44.5240    6.6741   12.0954 C   0  0  0  0  0  0  0  0  0  0  0  0
   48.1547    7.3436   12.7101 O   0  0  0  0  0  0  0  0  0  0  0  0
   48.1779    7.3638   12.7056 O   0  0  0  0  0  0  0  0  0  0  0  0
   44.8276    8.2166   12.1243 H   0  0  0  0  0  0  0  0  0  0  0  0
   47.7341    5.5685   13.9216 H   0  0  0  0  0  0  0  0  0  0  0  0
   49.5202    9.5466   13.4730 H   0  0  0  0  0  0  0  0  0  0  0  0
   46.2336    3.6541   13.5364 H   0  0  0  0  0  0  0  0  0  0  0  0
   49.1520    7.3010   12.5498 H   0  0  0  0  0  0  0  0  0  0  0  0
   48.1957    8.1025   11.2848 H   0  0  0  0  0  0  0  0  0  0  0  0
   46.7700    9.1466   13.1413 H   0  0  0  0  0  0  0  0  0  0  0  0
   42.6934    5.4561   11.5935 H   0  0  0  0  0  0  0  0  0  0  0  0
   44.2121    3.0146   12.7024 H   0  0  0  0  0  0  0  0  0  0  0  0
   46.9955    8.0546   15.1908 H   0  0  0  0  0  0  0  0  0  0  0  0
   50.4725    8.8536   10.7702 H   0  0  0  0  0  0  0  0  0  0  0  0
   50.3526   11.3249   10.9133 H   0  0  0  0  0  0  0  0  0  0  0  0
   52.0291   10.7597   10.9133 H   0  0  0  0  0  0  0  0  0  0  0  0
   51.2790   11.2986   12.4262 H   0  0  0  0  0  0  0  0  0  0  0  0
   51.8289    8.9831   13.5374 H   0  0  0  0  0  0  0  0  0  0  0  0
   52.6500    8.5996   12.0190 H   0  0  0  0  0  0  0  0  0  0  0  0
   51.4164    7.5077   12.6481 H   0  0  0  0  0  0  0  0  0  0  0  0
   49.7676    7.7350   12.9149 H   0  0  0  0  0  0  0  0  0  0  0  0
   46.9862    6.1481   11.8482 H   0  0  0  0  0  0  0  0  0  0  0  0
   51.1269    8.2220   13.3031 H   0  0  0  0  0  0  0  0  0  0  0  0
   47.0555    9.0945   12.1759 H   0  0  0  0  0  0  0  0  0  0  0  0
   46.9011    5.4842   11.4080 H   0  0  0  0  0  0  0  0  0  0  0  0
   47.8451   10.9435   10.7383 H   0  0  0  0  0  0  0  0  0  0  0  0
   48.9617    5.9120   12.2011 H   0  0  0  0  0  0  0  0  0  0  0  0
   48.1141    5.2470   13.5638 H   0  0  0  0  0  0  0  0  0  0  0  0
   47.6680    7.7486   14.3052 H   0  0  0  0  0  0  0  0  0  0  0  0
   52.6584    9.5835   12.3972 H   0  0  0  0  0  0  0  0  0  0  0  0
   51.3200   11.6304   10.5289 H   0  0  0  0  0  0  0  0  0  0  0  0
   49.1194    6.3592   15.2735 H   0  0  0  0  0  0  0  0  0  0  0  0
   45.7464    6.6965   13.8410 H   0  0  0  0  0  0  0  0  0  0  0  0
   46.1382    4.2110   13.9360 H   0  0  0  0  0  0  0  0  0  0  0  0
   45.2485    4.0209   12.4152 H   0  0  0  0  0  0  0  0  0  0  0  0
   44.4179    4.5865   13.8700 H   0  0  0  0  0  0  0  0  0  0  0  0
   44.3821    6.1067   11.1681 H   0  0  0  0  0  0  0  0  0  0  0  0
   43.5852    6.6467   12.6579 H   0  0  0  0  0  0  0  0  0  0  0  0
   44.7232    7.7172   11.8165 H   0  0  0  0  0  0  0  0  0  0  0  0
   48.3735    8.2170   12.3528 H   0  0  0  0  0  0  0  0  0  0  0  0
   47.2029    7.2572   12.5519 H   0  0  0  0  0  0  0  0  0  0  0  0
   47.2296    7.2089   12.5798 H   0  0  0  0  0  0  0  0  0  0  0  0
   48.3237    8.2451   12.3295 H   0  0  0  0  0  0  0  0  0  0  0  0
  2  1  2  0
  3  1  1  0
  4  2  1  0
  5  3  2  0
  6  8  1  0
  7  5  1  0
  8  9  1  0
  9  3  1  0
 10  2  1  0
 11  4  1  0
 12  9  1  0
 13  6  1  0
 14 13  1  0
 15 13  1  0
  7  4  2  0
 17 16  2  0
 18 16  2  0
 19 16  1  0
 20 16  1  0
 22 21  2  0
 23 21  1  0
 24 22  1  0
 25 23  2  0
 26 28  1  0
 27 25  1  0
 28 29  1  0
 29 23  1  0
 30 22  1  0
 31 24  1  0
 32 29  1  0
 33 26  1  0
 34 33  1  0
 35 33  1  0
 27 24  2  0
  1 38  1  0
  5 39  1  0
  6 40  1  0
  7 41  1  0
  8 42  1  0
  8 43  1  0
  9 44  1  1
 10 45  1  0
 11 46  1  0
 12 47  1  0
 13 48  1  0
 14 49  1  0
 14 50  1  0
 14 51  1  0
 15 52  1  0
 15 53  1  0
 15 54  1  0
 19 55  1  0
 20 56  1  0
 21 57  1  0
 25 58  1  0
 26 59  1  0
 27 60  1  0
 28 61  1  0
 28 62  1  0
 29 63  1  1
 30 64  1  0
 31 65  1  0
 32 66  1  0
 33 67  1  0
 34 68  1  0
 34 69  1  0
 34 70  1  0
 35 71  1  0
 35 72  1  0
 35 73  1  0
 36 74  1  0
 36 75  1  0
 37 76  1  0
 37 77  1  0
M  END
> <Uni-Dock RESULT> 
ENERGY=   -5.492  LOWER_BOUND=    4.953  UPPER_BOUND=    6.558
INTER + INTRA:          -5.492
INTER:                  -5.492
INTRA:                   0.000
UNBOUND:                 0.000

$$$$

     RDKit          3D

 77 74  0  0  0  0  0  0  0  0999 V2000
   47.1857   10.3768   12.0409 C   0  0  0  0  0  0  0  0  0  0  0  0
   47.8097   11.4590   12.6465 C   0  0  0  0  0  0  0  0  0  0  0  0
   47.5128    9.0732   12.4450 C   0  0  0  0  0  0  0  0  0  0  0  0
   48.7528   11.2709   13.6520 C   0  0  0  0  0  0  0  0  0  0  0  0
   48.4676    8.8933   13.4637 C   0  0  0  0  0  0  0  0  0  0  0  0
   45.0724    6.1446   12.0506 N   0  0  0  0  0  0  0  0  0  0  0  0
   49.0886    9.9900   14.0693 C   0  0  0  0  0  0  0  0  0  0  0  0
   45.8135    7.2093   12.7496 C   0  0  0  0  0  0  0  0  0  0  0  0
   46.8288    7.8864   11.7997 C   0  0  2  0  0  0  0  0  0  0  0  0
   47.4821   12.7230   12.2475 O   0  0  0  0  0  0  0  0  0  0  0  0
   49.3250   12.3843   14.2038 O   0  0  0  0  0  0  0  0  0  0  0  0
   47.8199    6.9262   11.4076 O   0  0  0  0  0  0  0  0  0  0  0  0
   44.2520    5.3367   12.9588 C   0  0  0  0  0  0  0  0  0  0  0  0
   43.1443    4.6862   12.1338 C   0  0  0  0  0  0  0  0  0  0  0  0
   45.0782    4.2588   13.6634 C   0  0  0  0  0  0  0  0  0  0  0  0
   46.3752    7.8760   12.4004 S   0  0  0  0  0  0  0  0  0  0  0  0
   47.5671    7.9059   11.5921 O   0  0  0  0  0  0  0  0  0  0  0  0
   45.0758    7.5391   11.8737 O   0  0  0  0  0  0  0  0  0  0  0  0
   46.6512    6.8590   13.6089 O   0  0  0  0  0  0  0  0  0  0  0  0
   46.2740    9.2690   13.1907 O   0  0  0  0  0  0  0  0  0  0  0  0
   45.3887    5.2441   12.8420 C   0  0  0  0  0  0  0  0  0  0  0  0
   44.0598    4.9521   12.5455 C   0  0  0  0  0  0  0  0  0  0  0  0
   45.9401    6.4774   12.4520 C   0  0  0  0  0  0  0  0  0  0  0  0
   43.2657    5.8735   11.8721 C   0  0  0  0  0  0  0  0  0  0  0  0
   45.1171    7.3964   11.7725 C   0  0  0  0  0  0  0  0  0  0  0  0
   47.1228    9.2049   13.7194 N   0  0  0  0  0  0  0  0  0  0  0  0
   43.7823    7.0978   11.4834 C   0  0  0  0  0  0  0  0  0  0  0  0
   47.5167    7.8106   13.9662 C   0  0  0  0  0  0  0  0  0  0  0  0
   47.3832    6.8429   12.7582 C   0  0  1  0  0  0  0  0  0  0  0  0
   43.4901    3.7596   12.9031 O   0  0  0  0  0  0  0  0  0  0  0  0
   41.9631    5.5722   11.5930 O   0  0  0  0  0  0  0  0  0  0  0  0
   48.1371    5.6529   13.0330 O   0  0  0  0  0  0  0  0  0  0  0  0
   48.0948    9.9852   12.9428 C   0  0  0  0  0  0  0  0  0  0  0  0
   49.2767   10.4512   13.7975 C   0  0  0  0  0  0  0  0  0  0  0  0
   47.3574   11.2011   12.3736 C   0  0  0  0  0  0  0  0  0  0  0  0
   46.6763    7.5901   13.0844 O   0  0  0  0  0  0  0  0  0  0  0  0
   46.6564    7.5667   13.0800 O   0  0  0  0  0  0  0  0  0  0  0  0
   46.4513   10.5569   11.2616 H   0  0  0  0  0  0  0  0  0  0  0  0
   48.7298    7.8866   13.7852 H   0  0  0  0  0  0  0  0  0  0  0  0
   45.7544    5.5539   11.5666 H   0  0  0  0  0  0  0  0  0  0  0  0
   49.8220    9.8196   14.8507 H   0  0  0  0  0  0  0  0  0  0  0  0
   46.3529    6.7860   13.6048 H   0  0  0  0  0  0  0  0  0  0  0  0
   45.1037    7.9558   13.1271 H   0  0  0  0  0  0  0  0  0  0  0  0
   46.3174    8.2092   10.8839 H   0  0  0  0  0  0  0  0  0  0  0  0
   48.0395   13.3081   12.7994 H   0  0  0  0  0  0  0  0  0  0  0  0
   49.9572   12.0936   14.8839 H   0  0  0  0  0  0  0  0  0  0  0  0
   48.5169    7.4327   10.9417 H   0  0  0  0  0  0  0  0  0  0  0  0
   43.7719    5.9802   13.7066 H   0  0  0  0  0  0  0  0  0  0  0  0
   42.5309    5.4433   11.6296 H   0  0  0  0  0  0  0  0  0  0  0  0
   42.4784    4.0984   12.7779 H   0  0  0  0  0  0  0  0  0  0  0  0
   43.5514    4.0155   11.3695 H   0  0  0  0  0  0  0  0  0  0  0  0
   45.6135    3.6247   12.9487 H   0  0  0  0  0  0  0  0  0  0  0  0
   44.4335    3.6105   14.2657 H   0  0  0  0  0  0  0  0  0  0  0  0
   45.8181    4.7001   14.3415 H   0  0  0  0  0  0  0  0  0  0  0  0
   46.2667    5.9916   13.3556 H   0  0  0  0  0  0  0  0  0  0  0  0
   46.9126    9.2548   13.9274 H   0  0  0  0  0  0  0  0  0  0  0  0
   46.0060    4.5194   13.3642 H   0  0  0  0  0  0  0  0  0  0  0  0
   45.5121    8.3635   11.4702 H   0  0  0  0  0  0  0  0  0  0  0  0
   46.9506    9.6663   14.6136 H   0  0  0  0  0  0  0  0  0  0  0  0
   43.1555    7.8163   10.9642 H   0  0  0  0  0  0  0  0  0  0  0  0
   46.8925    7.4244   14.7831 H   0  0  0  0  0  0  0  0  0  0  0  0
   48.5400    7.7734   14.3571 H   0  0  0  0  0  0  0  0  0  0  0  0
   47.8321    7.2730   11.8560 H   0  0  0  0  0  0  0  0  0  0  0  0
   44.1840    3.2163   13.3205 H   0  0  0  0  0  0  0  0  0  0  0  0
   41.8402    4.6747   11.9598 H   0  0  0  0  0  0  0  0  0  0  0  0
   49.0639    5.9266   13.1383 H   0  0  0  0  0  0  0  0  0  0  0  0
   48.4716    9.4058   12.0955 H   0  0  0  0  0  0  0  0  0  0  0  0
   49.8511    9.6091   14.1922 H   0  0  0  0  0  0  0  0  0  0  0  0
   48.9372   11.0590   14.6431 H   0  0  0  0  0  0  0  0  0  0  0  0
   49.9665   11.0644   13.2055 H   0  0  0  0  0  0  0  0  0  0  0  0
   46.9645   11.8385   13.1743 H   0  0  0  0  0  0  0  0  0  0  0  0
   48.0287   11.8060   11.7557 H   0  0  0  0  0  0  0  0  0  0  0  0
   46.5074   10.8925   11.7507 H   0  0  0  0  0  0  0  0  0  0  0  0
   45.8543    7.3364   12.6392 H   0  0  0  0  0  0  0  0  0  0  0  0
   46.8075    8.5145   12.8259 H   0  0  0  0  0  0  0  0  0  0  0  0
   46.8509    8.4910   12.8631 H   0  0  0  0  0  0  0  0  0  0  0  0
   45.8310    7.3831   12.6064 H   0  0  0  0  0  0  0  0  0  0  0  0
  2  1  2  0
  3  1  1  0
  4  2  1  0
  5  3  2  0
  6  8  1  0
  7  5  1  0
  8  9  1  0
  9  3  1  0
 10  2  1  0
 11  4  1  0
 12  9  1  0
 13  6  1  0
 14 13  1  0
 15 13  1  0
  7  4  2  0
 17 16  2  0
 18 16  2  0
 19 16  1  0
 20 16  1  0
 22 21  2  0
 23 21  1  0
 24 22  1  0
 25 23  2  0
 26 28  1  0
 27 25  1  0
 28 29  1  0
 29 23  1  0
 30 22  1  0
 31 24  1  0
 32 29  1  0
 33 26  1  0
 34 33  1  0
 35 33  1  0
 27 24  2  0
  1 38  1  0
  5 39  1  0
  6 40  1  0
  7 41  1  0
  8 42  1  0
  8 43  1  0
  9 44  1  1
 10 45  1  0
 11 46  1  0
 12 47  1  0
 13 48  1  0
 14 49  1  0
 14 50  1  0
 14 51  1  0
 15 52  1  0
 15 53  1  0
 15 54  1  0
 19 55  1  0
 20 56  1  0
 21 57  1  0
 25 58  1  0
 26 59  1  0
 27 60  1  0
 28 61  1  0
 28 62  1  0
 29 63  1  1
 30 64  1  0
 31 65  1  0
 32 66  1  0
 33 67  1  0
 34 68  1  0
 34 69  1  0
 34 70  1  0
 35 71  1  0
 35 72  1  0
 35 73  1  0
 36 74  1  0
 36 75  1  0
 37 76  1  0
 37 77  1  0
M  END
> <Uni-Dock RESULT> 
ENERGY=   -5.484  LOWER_BOUND=    4.232  UPPER_BOUND=    6.941
INTER + INTRA:          -5.484
INTER:                  -5.484
INTRA:                   0.000
UNBOUND:                 0.000

$$$$

     RDKit          3D

 77 74  0  0  0  0  0  0  0  0999 V2000
   45.6292    4.7429   12.6134 C   0  0  0  0  0  0  0  0  0  0  0  0
   44.3402    4.3270   12.3088 C   0  0  0  0  0  0  0  0  0  0  0  0
   46.0099    6.0680   12.3512 C   0  0  0  0  0  0  0  0  0  0  0  0
   43.4175    5.2060   11.7504 C   0  0  0  0  0  0  0  0  0  0  0  0
   45.0689    6.9500   11.7867 C   0  0  0  0  0  0  0  0  0  0  0  0
   48.8134    7.8072   14.3015 N   0  0  0  0  0  0  0  0  0  0  0  0
   43.7721    6.5220   11.4860 C   0  0  0  0  0  0  0  0  0  0  0  0
   47.4294    7.4773   13.9174 C   0  0  0  0  0  0  0  0  0  0  0  0
   47.4095    6.5352   12.6911 C   0  0  2  0  0  0  0  0  0  0  0  0
   43.9797    3.0364   12.5706 O   0  0  0  0  0  0  0  0  0  0  0  0
   42.1656    4.7259   11.4785 O   0  0  0  0  0  0  0  0  0  0  0  0
   47.9657    7.2214   11.5608 O   0  0  0  0  0  0  0  0  0  0  0  0
   48.8818    8.8586   15.3215 C   0  0  0  0  0  0  0  0  0  0  0  0
   50.2246    8.7292   16.0363 C   0  0  0  0  0  0  0  0  0  0  0  0
   48.7503   10.2542   14.7083 C   0  0  0  0  0  0  0  0  0  0  0  0
   47.1133    6.8260   13.3193 S   0  0  0  0  0  0  0  0  0  0  0  0
   47.3215    6.5095   11.9295 O   0  0  0  0  0  0  0  0  0  0  0  0
   48.1078    6.5919   14.3369 O   0  0  0  0  0  0  0  0  0  0  0  0
   46.7445    8.3845   13.3970 O   0  0  0  0  0  0  0  0  0  0  0  0
   45.7274    6.1610   13.7796 O   0  0  0  0  0  0  0  0  0  0  0  0
   48.6701    9.0353   14.2088 C   0  0  0  0  0  0  0  0  0  0  0  0
   49.4769    8.8951   15.3351 C   0  0  0  0  0  0  0  0  0  0  0  0
   48.0480    7.9065   13.6463 C   0  0  0  0  0  0  0  0  0  0  0  0
   49.6691    7.6475   15.9176 C   0  0  0  0  0  0  0  0  0  0  0  0
   48.2551    6.6528   14.2538 C   0  0  0  0  0  0  0  0  0  0  0  0
   45.1117    6.6485   13.1572 N   0  0  0  0  0  0  0  0  0  0  0  0
   49.0622    6.5215   15.3877 C   0  0  0  0  0  0  0  0  0  0  0  0
   45.6420    7.9641   12.7727 C   0  0  0  0  0  0  0  0  0  0  0  0
   47.1545    8.0107   12.4213 C   0  0  1  0  0  0  0  0  0  0  0  0
   50.1042    9.9697   15.9065 O   0  0  0  0  0  0  0  0  0  0  0  0
   50.4604    7.5290   17.0244 O   0  0  0  0  0  0  0  0  0  0  0  0
   47.4299    9.2339   11.7228 O   0  0  0  0  0  0  0  0  0  0  0  0
   44.9154    5.7187   12.0376 C   0  0  0  0  0  0  0  0  0  0  0  0
   43.6381    6.0236   11.2502 C   0  0  0  0  0  0  0  0  0  0  0  0
   44.8367    4.3054   12.6228 C   0  0  0  0  0  0  0  0  0  0  0  0
   46.6861    7.4988   13.2477 O   0  0  0  0  0  0  0  0  0  0  0  0
   46.7095    7.5118   13.2633 O   0  0  0  0  0  0  0  0  0  0  0  0
   46.3249    4.0338   13.0518 H   0  0  0  0  0  0  0  0  0  0  0  0
   45.3528    7.9802   11.5784 H   0  0  0  0  0  0  0  0  0  0  0  0
   49.3123    8.0984   13.4562 H   0  0  0  0  0  0  0  0  0  0  0  0
   43.0694    7.2245   11.0499 H   0  0  0  0  0  0  0  0  0  0  0  0
   46.8840    8.3955   13.6705 H   0  0  0  0  0  0  0  0  0  0  0  0
   46.9245    6.9955   14.7638 H   0  0  0  0  0  0  0  0  0  0  0  0
   48.0511    5.6661   12.8843 H   0  0  0  0  0  0  0  0  0  0  0  0
   43.0486    2.9757   12.2752 H   0  0  0  0  0  0  0  0  0  0  0  0
   41.6411    5.4500   11.0946 H   0  0  0  0  0  0  0  0  0  0  0  0
   47.7897    6.6501   10.7849 H   0  0  0  0  0  0  0  0  0  0  0  0
   48.0938    8.7097   16.0703 H   0  0  0  0  0  0  0  0  0  0  0  0
   50.3340    7.7386   16.4948 H   0  0  0  0  0  0  0  0  0  0  0  0
   50.3082    9.4741   16.8375 H   0  0  0  0  0  0  0  0  0  0  0  0
   51.0638    8.8793   15.3485 H   0  0  0  0  0  0  0  0  0  0  0  0
   49.4912   10.4232   13.9197 H   0  0  0  0  0  0  0  0  0  0  0  0
   48.8944   11.0261   15.4712 H   0  0  0  0  0  0  0  0  0  0  0  0
   47.7556   10.4093   14.2743 H   0  0  0  0  0  0  0  0  0  0  0  0
   47.5704    8.8708   13.6111 H   0  0  0  0  0  0  0  0  0  0  0  0
   44.9936    6.6985   13.4284 H   0  0  0  0  0  0  0  0  0  0  0  0
   48.5267   10.0111   13.7549 H   0  0  0  0  0  0  0  0  0  0  0  0
   47.7763    5.7642   13.8491 H   0  0  0  0  0  0  0  0  0  0  0  0
   44.2288    6.7766   13.6537 H   0  0  0  0  0  0  0  0  0  0  0  0
   49.2101    5.5509   15.8511 H   0  0  0  0  0  0  0  0  0  0  0  0
   45.4643    8.6553   13.6074 H   0  0  0  0  0  0  0  0  0  0  0  0
   45.0576    8.3759   11.9419 H   0  0  0  0  0  0  0  0  0  0  0  0
   47.4233    7.2083   11.7254 H   0  0  0  0  0  0  0  0  0  0  0  0
   49.9057   10.7512   15.3581 H   0  0  0  0  0  0  0  0  0  0  0  0
   50.7653    8.4407   17.2005 H   0  0  0  0  0  0  0  0  0  0  0  0
   46.9002    9.2165   10.9079 H   0  0  0  0  0  0  0  0  0  0  0  0
   45.7706    5.7429   11.3565 H   0  0  0  0  0  0  0  0  0  0  0  0
   43.6724    7.0124   10.7851 H   0  0  0  0  0  0  0  0  0  0  0  0
   42.7556    5.9815   11.8974 H   0  0  0  0  0  0  0  0  0  0  0  0
   43.4934    5.2926   10.4459 H   0  0  0  0  0  0  0  0  0  0  0  0
   43.9861    4.2053   13.3072 H   0  0  0  0  0  0  0  0  0  0  0  0
   44.7218    3.5629   11.8266 H   0  0  0  0  0  0  0  0  0  0  0  0
   45.7455    4.0600   13.1882 H   0  0  0  0  0  0  0  0  0  0  0  0
   47.4222    7.3176   13.8507 H   0  0  0  0  0  0  0  0  0  0  0  0
   46.2826    6.6301   13.1024 H   0  0  0  0  0  0  0  0  0  0  0  0
   46.2557    6.6771   13.0726 H   0  0  0  0  0  0  0  0  0  0  0  0
   47.4256    7.2576   13.8649 H   0  0  0  0  0  0  0  0  0  0  0  0
  2  1  2  0
  3  1  1  0
  4  2  1  0
  5  3  2  0
  6  8  1  0
  7  5  1  0
  8  9  1  0
  9  3  1  0
 10  2  1  0
 11  4  1  0
 12  9  1  0
 13  6  1  0
 14 13  1  0
 15 13  1  0
  7  4  2  0
 17 16  2  0
 18 16  2  0
 19 16  1  0
 20 16  1  0
 22 21  2  0
 23 21  1  0
 24 22  1  0
 25 23  2  0
 26 28  1  0
 27 25  1  0
 28 29  1  0
 29 23  1  0
 30 22  1  0
 31 24  1  0
 32 29  1  0
 33 26  1  0
 34 33  1  0
 35 33  1  0
 27 24  2  0
  1 38  1  0
  5 39  1  0
  6 40  1  0
  7 41  1  0
  8 42  1  0
  8 43  1  0
  9 44  1  1
 10 45  1  0
 11 46  1  0
 12 47  1  0
 13 48  1  0
 14 49  1  0
 14 50  1  0
 14 51  1  0
 15 52  1  0
 15 53  1  0
 15 54  1  0
 19 55  1  0
 20 56  1  0
 21 57  1  0
 25 58  1  0
 26 59  1  0
 27 60  1  0
 28 61  1  0
 28 62  1  0
 29 63  1  1
 30 64  1  0
 31 65  1  0
 32 66  1  0
 33 67  1  0
 34 68  1  0
 34 69  1  0
 34 70  1  0
 35 71  1  0
 35 72  1  0
 35 73  1  0
 36 74  1  0
 36 75  1  0
 37 76  1  0
 37 77  1  0
M  END
> <Uni-Dock RESULT> 
ENERGY=   -5.420  LOWER_BOUND=    4.844  UPPER_BOUND=    6.078
INTER + INTRA:          -5.420
INTER:                  -5.420
INTRA:                   0.000
UNBOUND:                 0.000

$$$$

     RDKit          3D

 77 74  0  0  0  0  0  0  0  0999 V2000
   48.6482    7.2749   14.8171 C   0  0  0  0  0  0  0  0  0  0  0  0
   48.4929    6.8990   13.4897 C   0  0  0  0  0  0  0  0  0  0  0  0
   49.0654    8.5794   15.1235 C   0  0  0  0  0  0  0  0  0  0  0  0
   48.7411    7.7981   12.4573 C   0  0  0  0  0  0  0  0  0  0  0  0
   49.3133    9.4819   14.0719 C   0  0  0  0  0  0  0  0  0  0  0  0
   48.2167   10.2593   18.4621 N   0  0  0  0  0  0  0  0  0  0  0  0
   49.1514    9.0943   12.7383 C   0  0  0  0  0  0  0  0  0  0  0  0
   48.1076    9.9710   17.0210 C   0  0  0  0  0  0  0  0  0  0  0  0
   49.2258    9.0034   16.5683 C   0  0  2  0  0  0  0  0  0  0  0  0
   48.0839    5.6283   13.2031 O   0  0  0  0  0  0  0  0  0  0  0  0
   48.5652    7.3574   11.1742 O   0  0  0  0  0  0  0  0  0  0  0  0
   50.4987    9.6440   16.7337 O   0  0  0  0  0  0  0  0  0  0  0  0
   47.3127   11.3298   18.8947 C   0  0  0  0  0  0  0  0  0  0  0  0
   47.0814   11.1681   20.3950 C   0  0  0  0  0  0  0  0  0  0  0  0
   47.8926   12.7154   18.6033 C   0  0  0  0  0  0  0  0  0  0  0  0
   48.5449    9.3184   16.5064 S   0  0  0  0  0  0  0  0  0  0  0  0
   49.9135    8.9640   16.2307 O   0  0  0  0  0  0  0  0  0  0  0  0
   47.9089    9.0712   17.7767 O   0  0  0  0  0  0  0  0  0  0  0  0
   48.4000   10.8905   16.2261 O   0  0  0  0  0  0  0  0  0  0  0  0
   47.6282    8.7139   15.3361 O   0  0  0  0  0  0  0  0  0  0  0  0
   48.2968   11.4894   18.3287 C   0  0  0  0  0  0  0  0  0  0  0  0
   47.4990   11.3452   19.4609 C   0  0  0  0  0  0  0  0  0  0  0  0
   48.5829   10.3715   17.5249 C   0  0  0  0  0  0  0  0  0  0  0  0
   46.9730   10.1047   19.8032 C   0  0  0  0  0  0  0  0  0  0  0  0
   48.0381    9.1250   17.8894 C   0  0  0  0  0  0  0  0  0  0  0  0
   48.0260    9.2094   14.5613 N   0  0  0  0  0  0  0  0  0  0  0  0
   47.2336    8.9898   19.0247 C   0  0  0  0  0  0  0  0  0  0  0  0
   48.6079   10.4963   14.9677 C   0  0  0  0  0  0  0  0  0  0  0  0
   49.4437   10.4808   16.2772 C   0  0  1  0  0  0  0  0  0  0  0  0
   47.2043   12.4089   20.2711 O   0  0  0  0  0  0  0  0  0  0  0  0
   46.1891    9.9823   20.9149 O   0  0  0  0  0  0  0  0  0  0  0  0
   50.2338   11.6776   16.3362 O   0  0  0  0  0  0  0  0  0  0  0  0
   48.9855    8.2628   13.9783 C   0  0  0  0  0  0  0  0  0  0  0  0
   49.3127    8.5960   12.5201 C   0  0  0  0  0  0  0  0  0  0  0  0
   48.3614    6.8665   14.0618 C   0  0  0  0  0  0  0  0  0  0  0  0
   48.4923   10.0044   16.0977 O   0  0  0  0  0  0  0  0  0  0  0  0
   48.4858   10.0169   16.1254 O   0  0  0  0  0  0  0  0  0  0  0  0
   48.4431    6.5511   15.6001 H   0  0  0  0  0  0  0  0  0  0  0  0
   49.6379   10.4965   14.2974 H   0  0  0  0  0  0  0  0  0  0  0  0
   49.1889   10.5136   18.6581 H   0  0  0  0  0  0  0  0  0  0  0  0
   49.3517    9.8118   11.9492 H   0  0  0  0  0  0  0  0  0  0  0  0
   48.1890   10.9025   16.4490 H   0  0  0  0  0  0  0  0  0  0  0  0
   47.1261    9.5264   16.8146 H   0  0  0  0  0  0  0  0  0  0  0  0
   49.2287    8.1162   17.2143 H   0  0  0  0  0  0  0  0  0  0  0  0
   48.0506    5.5946   12.2255 H   0  0  0  0  0  0  0  0  0  0  0  0
   48.7764    8.0912   10.5711 H   0  0  0  0  0  0  0  0  0  0  0  0
   51.1527    9.0624   16.2939 H   0  0  0  0  0  0  0  0  0  0  0  0
   46.3399   11.2259   18.3978 H   0  0  0  0  0  0  0  0  0  0  0  0
   46.6531   10.1846   20.6248 H   0  0  0  0  0  0  0  0  0  0  0  0
   46.3785   11.9270   20.7608 H   0  0  0  0  0  0  0  0  0  0  0  0
   48.0136   11.2727   20.9604 H   0  0  0  0  0  0  0  0  0  0  0  0
   48.8879   12.8402   19.0429 H   0  0  0  0  0  0  0  0  0  0  0  0
   47.2468   13.4982   19.0140 H   0  0  0  0  0  0  0  0  0  0  0  0
   47.9759   12.8965   17.5252 H   0  0  0  0  0  0  0  0  0  0  0  0
   48.4889   11.3513   17.0887 H   0  0  0  0  0  0  0  0  0  0  0  0
   47.7328    9.2696   14.5418 H   0  0  0  0  0  0  0  0  0  0  0  0
   48.7089   12.4595   18.0681 H   0  0  0  0  0  0  0  0  0  0  0  0
   48.2312    8.2454   17.2797 H   0  0  0  0  0  0  0  0  0  0  0  0
   47.2686    9.3801   13.8983 H   0  0  0  0  0  0  0  0  0  0  0  0
   46.8142    8.0250   19.2929 H   0  0  0  0  0  0  0  0  0  0  0  0
   47.7848   11.2117   15.0969 H   0  0  0  0  0  0  0  0  0  0  0  0
   49.2101   10.9104   14.1509 H   0  0  0  0  0  0  0  0  0  0  0  0
   50.1627    9.6540   16.2771 H   0  0  0  0  0  0  0  0  0  0  0  0
   47.6808   13.1847   19.9219 H   0  0  0  0  0  0  0  0  0  0  0  0
   46.1545   10.8861   21.2852 H   0  0  0  0  0  0  0  0  0  0  0  0
   50.8251   11.6611   15.5648 H   0  0  0  0  0  0  0  0  0  0  0  0
   49.9126    8.2411   14.5577 H   0  0  0  0  0  0  0  0  0  0  0  0
   49.7949    9.5723   12.4236 H   0  0  0  0  0  0  0  0  0  0  0  0
   48.4078    8.5999   11.9032 H   0  0  0  0  0  0  0  0  0  0  0  0
   49.9987    7.8530   12.0961 H   0  0  0  0  0  0  0  0  0  0  0  0
   47.4301    6.8122   13.4858 H   0  0  0  0  0  0  0  0  0  0  0  0
   49.0492    6.1113   13.6683 H   0  0  0  0  0  0  0  0  0  0  0  0
   48.1227    6.6012   15.1003 H   0  0  0  0  0  0  0  0  0  0  0  0
   48.1628    9.8102   16.9877 H   0  0  0  0  0  0  0  0  0  0  0  0
   48.4665    9.1478   15.6460 H   0  0  0  0  0  0  0  0  0  0  0  0
   48.4872    9.1950   15.6120 H   0  0  0  0  0  0  0  0  0  0  0  0
   48.1487    9.7505   16.9941 H   0  0  0  0  0  0  0  0  0  0  0  0
  2  1  2  0
  3  1  1  0
  4  2  1  0
  5  3  2  0
  6  8  1  0
  7  5  1  0
  8  9  1  0
  9  3  1  0
 10  2  1  0
 11  4  1  0
 12  9  1  0
 13  6  1  0
 14 13  1  0
 15 13  1  0
  7  4  2  0
 17 16  2  0
 18 16  2  0
 19 16  1  0
 20 16  1  0
 22 21  2  0
 23 21  1  0
 24 22  1  0
 25 23  2  0
 26 28  1  0
 27 25  1  0
 28 29  1  0
 29 23  1  0
 30 22  1  0
 31 24  1  0
 32 29  1  0
 33 26  1  0
 34 33  1  0
 35 33  1  0
 27 24  2  0
  1 38  1  0
  5 39  1  0
  6 40  1  0
  7 41  1  0
  8 42  1  0
  8 43  1  0
  9 44  1  1
 10 45  1  0
 11 46  1  0
 12 47  1  0
 13 48  1  0
 14 49  1  0
 14 50  1  0
 14 51  1  0
 15 52  1  0
 15 53  1  0
 15 54  1  0
 19 55  1  0
 20 56  1  0
 21 57  1  0
 25 58  1  0
 26 59  1  0
 27 60  1  0
 28 61  1  0
 28 62  1  0
 29 63  1  1
 30 64  1  0
 31 65  1  0
 32 66  1  0
 33 67  1  0
 34 68  1  0
 34 69  1  0
 34 70  1  0
 35 71  1  0
 35 72  1  0
 35 73  1  0
 36 74  1  0
 36 75  1  0
 37 76  1  0
 37 77  1  0
M  END
> <Uni-Dock RESULT> 
ENERGY=   -5.145  LOWER_BOUND=    6.931  UPPER_BOUND=    8.502
INTER + INTRA:          -5.145
INTER:                  -5.145
INTRA:                   0.000
UNBOUND:                 0.000

$$$$

     RDKit          3D

 77 74  0  0  0  0  0  0  0  0999 V2000
   46.3362    8.3257   12.8371 C   0  0  0  0  0  0  0  0  0  0  0  0
   45.5975    9.3932   12.3451 C   0  0  0  0  0  0  0  0  0  0  0  0
   47.7219    8.4638   13.0115 C   0  0  0  0  0  0  0  0  0  0  0  0
   46.2101   10.6008   12.0255 C   0  0  0  0  0  0  0  0  0  0  0  0
   48.3323    9.6899   12.6860 C   0  0  0  0  0  0  0  0  0  0  0  0
   49.6742    6.3698   15.5594 N   0  0  0  0  0  0  0  0  0  0  0  0
   47.5791   10.7601   12.1935 C   0  0  0  0  0  0  0  0  0  0  0  0
   49.0013    7.5612   15.0121 C   0  0  0  0  0  0  0  0  0  0  0  0
   48.5349    7.3098   13.5593 C   0  0  2  0  0  0  0  0  0  0  0  0
   44.2497    9.2487   12.1818 O   0  0  0  0  0  0  0  0  0  0  0  0
   45.4183   11.6088   11.5474 O   0  0  0  0  0  0  0  0  0  0  0  0
   49.6834    7.1036   12.7248 O   0  0  0  0  0  0  0  0  0  0  0  0
   50.3170    6.6271   16.8521 C   0  0  0  0  0  0  0  0  0  0  0  0
   50.4696    5.2897   17.5723 C   0  0  0  0  0  0  0  0  0  0  0  0
   51.6870    7.2875   16.6837 C   0  0  0  0  0  0  0  0  0  0  0  0
   48.4943    7.6547   14.2273 S   0  0  0  0  0  0  0  0  0  0  0  0
   48.7115    7.4257   12.8218 O   0  0  0  0  0  0  0  0  0  0  0  0
   48.3372    6.5867   15.1832 O   0  0  0  0  0  0  0  0  0  0  0  0
   49.7129    8.5555   14.7514 O   0  0  0  0  0  0  0  0  0  0  0  0
   47.2689    8.6792   14.3816 O   0  0  0  0  0  0  0  0  0  0  0  0
   50.7342    6.9512   15.8346 C   0  0  0  0  0  0  0  0  0  0  0  0
   50.5595    6.0855   16.9113 C   0  0  0  0  0  0  0  0  0  0  0  0
   49.6849    7.1554   14.9209 C   0  0  0  0  0  0  0  0  0  0  0  0
   49.3513    5.4237   17.0989 C   0  0  0  0  0  0  0  0  0  0  0  0
   48.4692    6.4762   15.1314 C   0  0  0  0  0  0  0  0  0  0  0  0
   47.6661    9.4636   13.9008 N   0  0  0  0  0  0  0  0  0  0  0  0
   48.3000    5.6130   16.2179 C   0  0  0  0  0  0  0  0  0  0  0  0
   49.1343    9.4659   13.9649 C   0  0  0  0  0  0  0  0  0  0  0  0
   49.8267    8.0944   13.7344 C   0  0  1  0  0  0  0  0  0  0  0  0
   51.5600    5.8564   17.8174 O   0  0  0  0  0  0  0  0  0  0  0  0
   49.1960    4.5814   18.1627 O   0  0  0  0  0  0  0  0  0  0  0  0
   51.2169    8.3187   13.4567 O   0  0  0  0  0  0  0  0  0  0  0  0
   47.1147    9.3747   12.5426 C   0  0  0  0  0  0  0  0  0  0  0  0
   47.1626   10.7186   11.8104 C   0  0  0  0  0  0  0  0  0  0  0  0
   45.6620    8.9053   12.6666 C   0  0  0  0  0  0  0  0  0  0  0  0
   48.9557    8.2991   14.3376 O   0  0  0  0  0  0  0  0  0  0  0  0
   48.9710    8.2811   14.3578 O   0  0  0  0  0  0  0  0  0  0  0  0
   45.8281    7.3974   13.0806 H   0  0  0  0  0  0  0  0  0  0  0  0
   49.4067    9.8088   12.8167 H   0  0  0  0  0  0  0  0  0  0  0  0
   50.3671    6.0583   14.8731 H   0  0  0  0  0  0  0  0  0  0  0  0
   48.0780   11.6924   11.9499 H   0  0  0  0  0  0  0  0  0  0  0  0
   49.6898    8.4140   15.0231 H   0  0  0  0  0  0  0  0  0  0  0  0
   48.1377    7.8096   15.6415 H   0  0  0  0  0  0  0  0  0  0  0  0
   47.9406    6.3882   13.5178 H   0  0  0  0  0  0  0  0  0  0  0  0
   43.9504   10.1105   11.8274 H   0  0  0  0  0  0  0  0  0  0  0  0
   45.9847   12.3799   11.3704 H   0  0  0  0  0  0  0  0  0  0  0  0
   49.3514    7.1056   11.8034 H   0  0  0  0  0  0  0  0  0  0  0  0
   49.6748    7.2647   17.4726 H   0  0  0  0  0  0  0  0  0  0  0  0
   49.4960    4.8047   17.7150 H   0  0  0  0  0  0  0  0  0  0  0  0
   50.9139    5.4349   18.5650 H   0  0  0  0  0  0  0  0  0  0  0  0
   51.1128    4.6016   17.0133 H   0  0  0  0  0  0  0  0  0  0  0  0
   52.3420    6.7035   16.0286 H   0  0  0  0  0  0  0  0  0  0  0  0
   52.1884    7.3882   17.6517 H   0  0  0  0  0  0  0  0  0  0  0  0
   51.5972    8.2942   16.2589 H   0  0  0  0  0  0  0  0  0  0  0  0
   50.3744    7.9496   15.1512 H   0  0  0  0  0  0  0  0  0  0  0  0
   47.5854    9.5761   14.1669 H   0  0  0  0  0  0  0  0  0  0  0  0
   51.6812    7.4623   15.6899 H   0  0  0  0  0  0  0  0  0  0  0  0
   47.6356    6.6246   14.4490 H   0  0  0  0  0  0  0  0  0  0  0  0
   47.3106   10.3035   14.3596 H   0  0  0  0  0  0  0  0  0  0  0  0
   47.3564    5.0991   16.3736 H   0  0  0  0  0  0  0  0  0  0  0  0
   49.4270    9.8331   14.9576 H   0  0  0  0  0  0  0  0  0  0  0  0
   49.5392   10.2056   13.2648 H   0  0  0  0  0  0  0  0  0  0  0  0
   49.4266    7.5945   12.8453 H   0  0  0  0  0  0  0  0  0  0  0  0
   52.3444    6.3540   17.5207 H   0  0  0  0  0  0  0  0  0  0  0  0
   50.0567    4.6162   18.6244 H   0  0  0  0  0  0  0  0  0  0  0  0
   51.2579    8.8518   12.6449 H   0  0  0  0  0  0  0  0  0  0  0  0
   47.6505    8.6259   11.9528 H   0  0  0  0  0  0  0  0  0  0  0  0
   48.1883   11.0695   11.6695 H   0  0  0  0  0  0  0  0  0  0  0  0
   46.6113   11.4883   12.3610 H   0  0  0  0  0  0  0  0  0  0  0  0
   46.7095   10.6355   10.8153 H   0  0  0  0  0  0  0  0  0  0  0  0
   45.0598    9.6223   13.2369 H   0  0  0  0  0  0  0  0  0  0  0  0
   45.2071    8.7898   11.6776 H   0  0  0  0  0  0  0  0  0  0  0  0
   45.6013    7.9386   13.1839 H   0  0  0  0  0  0  0  0  0  0  0  0
   48.8781    7.5142   14.9000 H   0  0  0  0  0  0  0  0  0  0  0  0
   48.0881    8.3699   13.9125 H   0  0  0  0  0  0  0  0  0  0  0  0
   48.1290    8.4136   13.8968 H   0  0  0  0  0  0  0  0  0  0  0  0
   48.8221    7.4886   14.8954 H   0  0  0  0  0  0  0  0  0  0  0  0
  2  1  2  0
  3  1  1  0
  4  2  1  0
  5  3  2  0
  6  8  1  0
  7  5  1  0
  8  9  1  0
  9  3  1  0
 10  2  1  0
 11  4  1  0
 12  9  1  0
 13  6  1  0
 14 13  1  0
 15 13  1  0
  7  4  2  0
 17 16  2  0
 18 16  2  0
 19 16  1  0
 20 16  1  0
 22 21  2  0
 23 21  1  0
 24 22  1  0
 25 23  2  0
 26 28  1  0
 27 25  1  0
 28 29  1  0
 29 23  1  0
 30 22  1  0
 31 24  1  0
 32 29  1  0
 33 26  1  0
 34 33  1  0
 35 33  1  0
 27 24  2  0
  1 38  1  0
  5 39  1  0
  6 40  1  0
  7 41  1  0
  8 42  1  0
  8 43  1  0
  9 44  1  1
 10 45  1  0
 11 46  1  0
 12 47  1  0
 13 48  1  0
 14 49  1  0
 14 50  1  0
 14 51  1  0
 15 52  1  0
 15 53  1  0
 15 54  1  0
 19 55  1  0
 20 56  1  0
 21 57  1  0
 25 58  1  0
 26 59  1  0
 27 60  1  0
 28 61  1  0
 28 62  1  0
 29 63  1  1
 30 64  1  0
 31 65  1  0
 32 66  1  0
 33 67  1  0
 34 68  1  0
 34 69  1  0
 34 70  1  0
 35 71  1  0
 35 72  1  0
 35 73  1  0
 36 74  1  0
 36 75  1  0
 37 76  1  0
 37 77  1  0
M  END
> <Uni-Dock RESULT> 
ENERGY=   -5.067  LOWER_BOUND=    4.092  UPPER_BOUND=    7.201
INTER + INTRA:          -5.067
INTER:                  -5.067
INTRA:                   0.000
UNBOUND:                 0.000

$$$$

     RDKit          3D

 77 74  0  0  0  0  0  0  0  0999 V2000
   48.0392    9.8311   18.3766 C   0  0  0  0  0  0  0  0  0  0  0  0
   47.4704   10.9455   18.9780 C   0  0  0  0  0  0  0  0  0  0  0  0
   48.3509    8.7064   19.1560 C   0  0  0  0  0  0  0  0  0  0  0  0
   47.2005   10.9630   20.3428 C   0  0  0  0  0  0  0  0  0  0  0  0
   48.0733    8.7335   20.5359 C   0  0  0  0  0  0  0  0  0  0  0  0
   48.5356    5.1808   17.6646 N   0  0  0  0  0  0  0  0  0  0  0  0
   47.4977    9.8600   21.1317 C   0  0  0  0  0  0  0  0  0  0  0  0
   47.9561    6.3083   18.4159 C   0  0  0  0  0  0  0  0  0  0  0  0
   48.9601    7.4810   18.5078 C   0  0  2  0  0  0  0  0  0  0  0  0
   47.1688   12.0332   18.2098 O   0  0  0  0  0  0  0  0  0  0  0  0
   46.6377   12.0952   20.8653 O   0  0  0  0  0  0  0  0  0  0  0  0
   50.1032    7.0640   19.2676 O   0  0  0  0  0  0  0  0  0  0  0  0
   47.7073    3.9724   17.7300 C   0  0  0  0  0  0  0  0  0  0  0  0
   48.0578    3.1003   16.5269 C   0  0  0  0  0  0  0  0  0  0  0  0
   47.9421    3.1922   19.0251 C   0  0  0  0  0  0  0  0  0  0  0  0
   48.2655    7.1905   18.5047 S   0  0  0  0  0  0  0  0  0  0  0  0
   49.4780    7.8207   18.9604 O   0  0  0  0  0  0  0  0  0  0  0  0
   48.1718    6.4756   17.2559 O   0  0  0  0  0  0  0  0  0  0  0  0
   47.8097    6.1640   19.6490 O   0  0  0  0  0  0  0  0  0  0  0  0
   47.0834    8.2733   18.5774 O   0  0  0  0  0  0  0  0  0  0  0  0
   48.3882    4.3487   18.5720 C   0  0  0  0  0  0  0  0  0  0  0  0
   48.0812    3.6226   17.4241 C   0  0  0  0  0  0  0  0  0  0  0  0
   48.5196    5.7471   18.5037 C   0  0  0  0  0  0  0  0  0  0  0  0
   47.8941    4.2681   16.2070 C   0  0  0  0  0  0  0  0  0  0  0  0
   48.3241    6.3803   17.2609 C   0  0  0  0  0  0  0  0  0  0  0  0
   47.1011    8.4505   19.5635 N   0  0  0  0  0  0  0  0  0  0  0  0
   48.0106    5.6446   16.1142 C   0  0  0  0  0  0  0  0  0  0  0  0
   47.6031    7.2973   20.3237 C   0  0  0  0  0  0  0  0  0  0  0  0
   48.8481    6.5821   19.7303 C   0  0  1  0  0  0  0  0  0  0  0  0
   47.9519    2.2598   17.4502 O   0  0  0  0  0  0  0  0  0  0  0  0
   47.5894    3.5407   15.0919 O   0  0  0  0  0  0  0  0  0  0  0  0
   49.4294    5.7481   20.7434 O   0  0  0  0  0  0  0  0  0  0  0  0
   47.9088    9.6694   19.6995 C   0  0  0  0  0  0  0  0  0  0  0  0
   47.6380   10.3980   21.0187 C   0  0  0  0  0  0  0  0  0  0  0  0
   47.5600   10.5851   18.5223 C   0  0  0  0  0  0  0  0  0  0  0  0
   47.9731    6.9278   19.2017 O   0  0  0  0  0  0  0  0  0  0  0  0
   47.9754    6.8997   19.1887 O   0  0  0  0  0  0  0  0  0  0  0  0
   48.2343    9.8471   17.3085 H   0  0  0  0  0  0  0  0  0  0  0  0
   48.3111    7.8671   21.1509 H   0  0  0  0  0  0  0  0  0  0  0  0
   49.4669    4.9949   18.0473 H   0  0  0  0  0  0  0  0  0  0  0  0
   47.2970    9.8519   22.1981 H   0  0  0  0  0  0  0  0  0  0  0  0
   47.6938    5.9832   19.4293 H   0  0  0  0  0  0  0  0  0  0  0  0
   47.0392    6.6431   17.9151 H   0  0  0  0  0  0  0  0  0  0  0  0
   49.3204    7.7365   17.5033 H   0  0  0  0  0  0  0  0  0  0  0  0
   46.7904   12.6814   18.8378 H   0  0  0  0  0  0  0  0  0  0  0  0
   46.5117   11.9569   21.8202 H   0  0  0  0  0  0  0  0  0  0  0  0
   50.6295    7.8740   19.4298 H   0  0  0  0  0  0  0  0  0  0  0  0
   46.6459    4.2377   17.6472 H   0  0  0  0  0  0  0  0  0  0  0  0
   47.8841    3.6371   15.5861 H   0  0  0  0  0  0  0  0  0  0  0  0
   47.4347    2.1973   16.5107 H   0  0  0  0  0  0  0  0  0  0  0  0
   49.1065    2.7850   16.5490 H   0  0  0  0  0  0  0  0  0  0  0  0
   49.0007    2.9509   19.1682 H   0  0  0  0  0  0  0  0  0  0  0  0
   47.3845    2.2500   19.0145 H   0  0  0  0  0  0  0  0  0  0  0  0
   47.6046    3.7585   19.9010 H   0  0  0  0  0  0  0  0  0  0  0  0
   48.1378    5.2746   19.3926 H   0  0  0  0  0  0  0  0  0  0  0  0
   46.8153    8.3778   19.5090 H   0  0  0  0  0  0  0  0  0  0  0  0
   48.5377    3.8395   19.5193 H   0  0  0  0  0  0  0  0  0  0  0  0
   48.4061    7.4616   17.1802 H   0  0  0  0  0  0  0  0  0  0  0  0
   46.1397    8.6443   19.8471 H   0  0  0  0  0  0  0  0  0  0  0  0
   47.8564    6.1439   15.1626 H   0  0  0  0  0  0  0  0  0  0  0  0
   46.7901    6.5626   20.3962 H   0  0  0  0  0  0  0  0  0  0  0  0
   47.8056    7.5905   21.3602 H   0  0  0  0  0  0  0  0  0  0  0  0
   49.6274    7.3038   19.4613 H   0  0  0  0  0  0  0  0  0  0  0  0
   48.1562    1.9629   18.3563 H   0  0  0  0  0  0  0  0  0  0  0  0
   47.5637    2.6161   15.4077 H   0  0  0  0  0  0  0  0  0  0  0  0
   49.6988    6.3357   21.4694 H   0  0  0  0  0  0  0  0  0  0  0  0
   48.9757    9.4397   19.6294 H   0  0  0  0  0  0  0  0  0  0  0  0
   47.9104    9.7884   21.8842 H   0  0  0  0  0  0  0  0  0  0  0  0
   46.5806   10.6682   21.1108 H   0  0  0  0  0  0  0  0  0  0  0  0
   48.2221   11.3240   21.0783 H   0  0  0  0  0  0  0  0  0  0  0  0
   46.5013   10.8693   18.5398 H   0  0  0  0  0  0  0  0  0  0  0  0
   48.1586   11.5011   18.5541 H   0  0  0  0  0  0  0  0  0  0  0  0
   47.7516   10.0866   17.5628 H   0  0  0  0  0  0  0  0  0  0  0  0
   48.0176    6.4585   18.3555 H   0  0  0  0  0  0  0  0  0  0  0  0
   47.9071    7.8608   18.9494 H   0  0  0  0  0  0  0  0  0  0  0  0
   47.9072    7.8497   19.0102 H   0  0  0  0  0  0  0  0  0  0  0  0
   48.0152    6.4976   18.3078 H   0  0  0  0  0  0  0  0  0  0  0  0
  2  1  2  0
  3  1  1  0
  4  2  1  0
  5  3  2  0
  6  8  1  0
  7  5  1  0
  8  9  1  0
  9  3  1  0
 10  2  1  0
 11  4  1  0
 12  9  1  0
 13  6  1  0
 14 13  1  0
 15 13  1  0
  7  4  2  0
 17 16  2  0
 18 16  2  0
 19 16  1  0
 20 16  1  0
 22 21  2  0
 23 21  1  0
 24 22  1  0
 25 23  2  0
 26 28  1  0
 27 25  1  0
 28 29  1  0
 29 23  1  0
 30 22  1  0
 31 24  1  0
 32 29  1  0
 33 26  1  0
 34 33  1  0
 35 33  1  0
 27 24  2  0
  1 38  1  0
  5 39  1  0
  6 40  1  0
  7 41  1  0
  8 42  1  0
  8 43  1  0
  9 44  1  1
 10 45  1  0
 11 46  1  0
 12 47  1  0
 13 48  1  0
 14 49  1  0
 14 50  1  0
 14 51  1  0
 15 52  1  0
 15 53  1  0
 15 54  1  0
 19 55  1  0
 20 56  1  0
 21 57  1  0
 25 58  1  0
 26 59  1  0
 27 60  1  0
 28 61  1  0
 28 62  1  0
 29 63  1  1
 30 64  1  0
 31 65  1  0
 32 66  1  0
 33 67  1  0
 34 68  1  0
 34 69  1  0
 34 70  1  0
 35 71  1  0
 35 72  1  0
 35 73  1  0
 36 74  1  0
 36 75  1  0
 37 76  1  0
 37 77  1  0
M  END
> <Uni-Dock RESULT> 
ENERGY=   -4.951  LOWER_BOUND=    8.930  UPPER_BOUND=   10.584
INTER + INTRA:          -4.951
INTER:                  -4.951
INTRA:                   0.000
UNBOUND:                 0.000

$$$$
