
     RDKit          3D

 77 74  0  0  0  0  0  0  0  0999 V2000
   48.3365    8.6720   12.1229 C   0  0  0  0  0  0  0  0  0  0  0  0
   49.0702    9.7677   12.5591 C   0  0  0  0  0  0  0  0  0  0  0  0
   47.9505    7.6823   13.0403 C   0  0  0  0  0  0  0  0  0  0  0  0
   49.4568    9.8797   13.8907 C   0  0  0  0  0  0  0  0  0  0  0  0
   48.3158    7.8273   14.3924 C   0  0  0  0  0  0  0  0  0  0  0  0
   44.9041    5.3137   12.7308 N   0  0  0  0  0  0  0  0  0  0  0  0
   49.0676    8.9258   14.8170 C   0  0  0  0  0  0  0  0  0  0  0  0
   45.6772    6.5273   13.0650 C   0  0  0  0  0  0  0  0  0  0  0  0
   47.1464    6.4860   12.5736 C   0  0  2  0  0  0  0  0  0  0  0  0
   49.3804   10.7507   11.6649 O   0  0  0  0  0  0  0  0  0  0  0  0
   50.2496   10.9129   14.2976 O   0  0  0  0  0  0  0  0  0  0  0  0
   47.7677    5.2764   13.0301 O   0  0  0  0  0  0  0  0  0  0  0  0
   44.5131    5.2195   11.3192 C   0  0  0  0  0  0  0  0  0  0  0  0
   43.3592    6.1703   10.9926 C   0  0  0  0  0  0  0  0  0  0  0  0
   44.0871    3.7778   11.0307 C   0  0  0  0  0  0  0  0  0  0  0  0
   46.7760    6.6749   12.6310 S   0  0  0  0  0  0  0  0  0  0  0  0
   47.0801    5.6821   13.6318 O   0  0  0  0  0  0  0  0  0  0  0  0
   47.3618    6.6619   11.3119 O   0  0  0  0  0  0  0  0  0  0  0  0
   45.1851    6.7503   12.4258 O   0  0  0  0  0  0  0  0  0  0  0  0
   47.1116    8.1222   13.2434 O   0  0  0  0  0  0  0  0  0  0  0  0
   45.0411    6.3903   11.0579 C   0  0  0  0  0  0  0  0  0  0  0  0
   44.8874    5.0494   10.7339 C   0  0  0  0  0  0  0  0  0  0  0  0
   45.3512    6.7571   12.3767 C   0  0  0  0  0  0  0  0  0  0  0  0
   45.0336    4.0579   11.6989 C   0  0  0  0  0  0  0  0  0  0  0  0
   45.4858    5.7470   13.3475 C   0  0  0  0  0  0  0  0  0  0  0  0
   47.9798    8.3948   11.9980 N   0  0  0  0  0  0  0  0  0  0  0  0
   45.3305    4.3977   13.0113 C   0  0  0  0  0  0  0  0  0  0  0  0
   46.6223    8.9636   11.9718 C   0  0  0  0  0  0  0  0  0  0  0  0
   45.5184    8.2149   12.7658 C   0  0  1  0  0  0  0  0  0  0  0  0
   44.5903    4.7077    9.4467 O   0  0  0  0  0  0  0  0  0  0  0  0
   44.8743    2.7581   11.3047 O   0  0  0  0  0  0  0  0  0  0  0  0
   44.2736    8.9012   12.5940 O   0  0  0  0  0  0  0  0  0  0  0  0
   48.6029    8.3218   13.3233 C   0  0  0  0  0  0  0  0  0  0  0  0
   49.9585    7.6242   13.1682 C   0  0  0  0  0  0  0  0  0  0  0  0
   48.8042    9.6993   13.9581 C   0  0  0  0  0  0  0  0  0  0  0  0
   46.8469    6.7214   12.6278 O   0  0  0  0  0  0  0  0  0  0  0  0
   46.8539    6.7264   12.6312 O   0  0  0  0  0  0  0  0  0  0  0  0
   48.0550    8.6025   11.0747 H   0  0  0  0  0  0  0  0  0  0  0  0
   48.0227    7.0727   15.1218 H   0  0  0  0  0  0  0  0  0  0  0  0
   45.5150    4.5224   12.9594 H   0  0  0  0  0  0  0  0  0  0  0  0
   49.3608    9.0238   15.8584 H   0  0  0  0  0  0  0  0  0  0  0  0
   45.1755    7.4371   12.7170 H   0  0  0  0  0  0  0  0  0  0  0  0
   45.6755    6.5810   14.1612 H   0  0  0  0  0  0  0  0  0  0  0  0
   47.1685    6.4448   11.4791 H   0  0  0  0  0  0  0  0  0  0  0  0
   49.2958   11.5923   12.1518 H   0  0  0  0  0  0  0  0  0  0  0  0
   50.8685   11.0821   13.5634 H   0  0  0  0  0  0  0  0  0  0  0  0
   48.7285    5.4283   13.0083 H   0  0  0  0  0  0  0  0  0  0  0  0
   45.3613    5.4457   10.6641 H   0  0  0  0  0  0  0  0  0  0  0  0
   43.0227    6.0212    9.9601 H   0  0  0  0  0  0  0  0  0  0  0  0
   43.6603    7.2186   11.0872 H   0  0  0  0  0  0  0  0  0  0  0  0
   42.4997    6.0018   11.6529 H   0  0  0  0  0  0  0  0  0  0  0  0
   44.9103    3.0799   11.2205 H   0  0  0  0  0  0  0  0  0  0  0  0
   43.2350    3.4785   11.6509 H   0  0  0  0  0  0  0  0  0  0  0  0
   43.7930    3.6643    9.9810 H   0  0  0  0  0  0  0  0  0  0  0  0
   45.0215    7.1731   11.5540 H   0  0  0  0  0  0  0  0  0  0  0  0
   48.0382    8.3419   12.9994 H   0  0  0  0  0  0  0  0  0  0  0  0
   44.9169    7.1423   10.2822 H   0  0  0  0  0  0  0  0  0  0  0  0
   45.7161    6.0067   14.3790 H   0  0  0  0  0  0  0  0  0  0  0  0
   47.9464    7.4592   11.5874 H   0  0  0  0  0  0  0  0  0  0  0  0
   45.4440    3.6399   13.7808 H   0  0  0  0  0  0  0  0  0  0  0  0
   46.6438   10.0136   12.2888 H   0  0  0  0  0  0  0  0  0  0  0  0
   46.3206    9.0219   10.9176 H   0  0  0  0  0  0  0  0  0  0  0  0
   45.7483    8.2829   13.8351 H   0  0  0  0  0  0  0  0  0  0  0  0
   44.5618    3.7297    9.4512 H   0  0  0  0  0  0  0  0  0  0  0  0
   45.0281    2.1834   12.0757 H   0  0  0  0  0  0  0  0  0  0  0  0
   43.5782    8.2353   12.4539 H   0  0  0  0  0  0  0  0  0  0  0  0
   47.9945    7.7054   13.9936 H   0  0  0  0  0  0  0  0  0  0  0  0
   50.6265    8.1834   12.5032 H   0  0  0  0  0  0  0  0  0  0  0  0
   49.8398    6.6136   12.7580 H   0  0  0  0  0  0  0  0  0  0  0  0
   50.4570    7.5287   14.1390 H   0  0  0  0  0  0  0  0  0  0  0  0
   47.8474   10.1746   14.1981 H   0  0  0  0  0  0  0  0  0  0  0  0
   49.3666    9.6148   14.8947 H   0  0  0  0  0  0  0  0  0  0  0  0
   49.3589   10.3701   13.2938 H   0  0  0  0  0  0  0  0  0  0  0  0
   45.9748    6.8203   12.2170 H   0  0  0  0  0  0  0  0  0  0  0  0
   47.1386    7.6324   12.7826 H   0  0  0  0  0  0  0  0  0  0  0  0
   47.1264    7.6449   12.7770 H   0  0  0  0  0  0  0  0  0  0  0  0
   45.9800    6.8030   12.2191 H   0  0  0  0  0  0  0  0  0  0  0  0
  2  1  2  0
  3  1  1  0
  4  2  1  0
  5  3  2  0
  6  8  1  0
  7  5  1  0
  8  9  1  0
  9  3  1  0
 10  2  1  0
 11  4  1  0
 12  9  1  0
 13  6  1  0
 14 13  1  0
 15 13  1  0
  7  4  2  0
 17 16  2  0
 18 16  2  0
 19 16  1  0
 20 16  1  0
 22 21  2  0
 23 21  1  0
 24 22  1  0
 25 23  2  0
 26 28  1  0
 27 25  1  0
 28 29  1  0
 29 23  1  0
 30 22  1  0
 31 24  1  0
 32 29  1  0
 33 26  1  0
 34 33  1  0
 35 33  1  0
 27 24  2  0
  1 38  1  0
  5 39  1  0
  6 40  1  0
  7 41  1  0
  8 42  1  0
  8 43  1  0
  9 44  1  1
 10 45  1  0
 11 46  1  0
 12 47  1  0
 13 48  1  0
 14 49  1  0
 14 50  1  0
 14 51  1  0
 15 52  1  0
 15 53  1  0
 15 54  1  0
 19 55  1  0
 20 56  1  0
 21 57  1  0
 25 58  1  0
 26 59  1  0
 27 60  1  0
 28 61  1  0
 28 62  1  0
 29 63  1  6
 30 64  1  0
 31 65  1  0
 32 66  1  0
 33 67  1  0
 34 68  1  0
 34 69  1  0
 34 70  1  0
 35 71  1  0
 35 72  1  0
 35 73  1  0
 36 74  1  0
 36 75  1  0
 37 76  1  0
 37 77  1  0
M  END
> <Uni-Dock RESULT> 
ENERGY=   -4.954  LOWER_BOUND=    0.000  UPPER_BOUND=    0.000
INTER + INTRA:          -4.954
INTER:                  -4.954
INTRA:                   0.000
UNBOUND:                 0.000

$$$$

     RDKit          3D

 77 74  0  0  0  0  0  0  0  0999 V2000
   49.3046    7.1289   20.1451 C   0  0  0  0  0  0  0  0  0  0  0  0
   49.4128    5.7442   20.1294 C   0  0  0  0  0  0  0  0  0  0  0  0
   48.1334    7.7414   19.6727 C   0  0  0  0  0  0  0  0  0  0  0  0
   48.3858    4.9568   19.6191 C   0  0  0  0  0  0  0  0  0  0  0  0
   47.0862    6.9307   19.1944 C   0  0  0  0  0  0  0  0  0  0  0  0
   46.7631   11.2087   20.7154 N   0  0  0  0  0  0  0  0  0  0  0  0
   47.2124    5.5395   19.1686 C   0  0  0  0  0  0  0  0  0  0  0  0
   47.0017    9.7515   20.7596 C   0  0  0  0  0  0  0  0  0  0  0  0
   48.0054    9.2510   19.6902 C   0  0  2  0  0  0  0  0  0  0  0  0
   50.5324    5.1653   20.6522 O   0  0  0  0  0  0  0  0  0  0  0  0
   48.5309    3.6033   19.5265 O   0  0  0  0  0  0  0  0  0  0  0  0
   47.5962    9.7178   18.3971 O   0  0  0  0  0  0  0  0  0  0  0  0
   47.8640   12.0150   21.2561 C   0  0  0  0  0  0  0  0  0  0  0  0
   47.8987   11.9624   22.7853 C   0  0  0  0  0  0  0  0  0  0  0  0
   47.6736   13.4628   20.7970 C   0  0  0  0  0  0  0  0  0  0  0  0
   47.8476    9.2629   20.0789 S   0  0  0  0  0  0  0  0  0  0  0  0
   46.8681    9.5073   19.0491 O   0  0  0  0  0  0  0  0  0  0  0  0
   49.2598    9.4910   19.8863 O   0  0  0  0  0  0  0  0  0  0  0  0
   47.4306   10.0633   21.4072 O   0  0  0  0  0  0  0  0  0  0  0  0
   47.7123    7.7310   20.5451 O   0  0  0  0  0  0  0  0  0  0  0  0
   48.5353   10.9397   21.5892 C   0  0  0  0  0  0  0  0  0  0  0  0
   48.5024   12.1886   20.9844 C   0  0  0  0  0  0  0  0  0  0  0  0
   47.5405    9.9953   21.2917 C   0  0  0  0  0  0  0  0  0  0  0  0
   47.4942   12.5231   20.0859 C   0  0  0  0  0  0  0  0  0  0  0  0
   46.5189   10.3478   20.3901 C   0  0  0  0  0  0  0  0  0  0  0  0
   49.2240    7.5687   20.2855 N   0  0  0  0  0  0  0  0  0  0  0  0
   46.4947   11.6088   19.7840 C   0  0  0  0  0  0  0  0  0  0  0  0
   48.8338    7.7999   21.6861 C   0  0  0  0  0  0  0  0  0  0  0  0
   47.5431    8.6234   21.9416 C   0  0  1  0  0  0  0  0  0  0  0  0
   49.4787   13.0949   21.2801 O   0  0  0  0  0  0  0  0  0  0  0  0
   47.5304   13.7695   19.5241 O   0  0  0  0  0  0  0  0  0  0  0  0
   47.3510    8.7630   23.3536 O   0  0  0  0  0  0  0  0  0  0  0  0
   48.2579    6.8123   19.4828 C   0  0  0  0  0  0  0  0  0  0  0  0
   48.7850    6.7524   18.0451 C   0  0  0  0  0  0  0  0  0  0  0  0
   48.0365    5.3924   20.0080 C   0  0  0  0  0  0  0  0  0  0  0  0
   47.8871    9.1930   20.0517 O   0  0  0  0  0  0  0  0  0  0  0  0
   47.8877    9.1844   20.0484 O   0  0  0  0  0  0  0  0  0  0  0  0
   50.1255    7.7230   20.5399 H   0  0  0  0  0  0  0  0  0  0  0  0
   46.1667    7.3857   18.8271 H   0  0  0  0  0  0  0  0  0  0  0  0
   46.6376   11.4405   19.7243 H   0  0  0  0  0  0  0  0  0  0  0  0
   46.4078    4.9200   18.7828 H   0  0  0  0  0  0  0  0  0  0  0  0
   47.3004    9.4190   21.7600 H   0  0  0  0  0  0  0  0  0  0  0  0
   46.0246    9.2904   20.5665 H   0  0  0  0  0  0  0  0  0  0  0  0
   48.9914    9.6916   19.8745 H   0  0  0  0  0  0  0  0  0  0  0  0
   50.2276    4.3616   21.1146 H   0  0  0  0  0  0  0  0  0  0  0  0
   49.4654    3.4484   19.2950 H   0  0  0  0  0  0  0  0  0  0  0  0
   48.0182    9.1357   17.7415 H   0  0  0  0  0  0  0  0  0  0  0  0
   48.8272   11.6726   20.8629 H   0  0  0  0  0  0  0  0  0  0  0  0
   48.6684   12.6396   23.1728 H   0  0  0  0  0  0  0  0  0  0  0  0
   48.1374   10.9580   23.1496 H   0  0  0  0  0  0  0  0  0  0  0  0
   46.9377   12.2631   23.2202 H   0  0  0  0  0  0  0  0  0  0  0  0
   47.6838   13.5322   19.7034 H   0  0  0  0  0  0  0  0  0  0  0  0
   46.7257   13.8776   21.1572 H   0  0  0  0  0  0  0  0  0  0  0  0
   48.4823   14.0980   21.1759 H   0  0  0  0  0  0  0  0  0  0  0  0
   48.2357   10.1468   21.9643 H   0  0  0  0  0  0  0  0  0  0  0  0
   48.3345    7.1978   20.0021 H   0  0  0  0  0  0  0  0  0  0  0  0
   49.3342   10.7093   22.2902 H   0  0  0  0  0  0  0  0  0  0  0  0
   45.7308    9.6365   20.1509 H   0  0  0  0  0  0  0  0  0  0  0  0
   49.3959    8.4746   19.8439 H   0  0  0  0  0  0  0  0  0  0  0  0
   45.6962   11.8513   19.0893 H   0  0  0  0  0  0  0  0  0  0  0  0
   48.7643    6.8462   22.2237 H   0  0  0  0  0  0  0  0  0  0  0  0
   49.6777    8.3062   22.1734 H   0  0  0  0  0  0  0  0  0  0  0  0
   46.6829    8.0477   21.5817 H   0  0  0  0  0  0  0  0  0  0  0  0
   49.2703   13.8725   20.7240 H   0  0  0  0  0  0  0  0  0  0  0  0
   46.7823   13.8484   18.9058 H   0  0  0  0  0  0  0  0  0  0  0  0
   47.0760    9.6791   23.5320 H   0  0  0  0  0  0  0  0  0  0  0  0
   47.2966    7.3365   19.4553 H   0  0  0  0  0  0  0  0  0  0  0  0
   49.7532    6.2416   17.9912 H   0  0  0  0  0  0  0  0  0  0  0  0
   48.9086    7.7587   17.6258 H   0  0  0  0  0  0  0  0  0  0  0  0
   48.0852    6.2106   17.3995 H   0  0  0  0  0  0  0  0  0  0  0  0
   47.5436    5.3981   20.9857 H   0  0  0  0  0  0  0  0  0  0  0  0
   47.3945    4.8238   19.3260 H   0  0  0  0  0  0  0  0  0  0  0  0
   48.9823    4.8497   20.1082 H   0  0  0  0  0  0  0  0  0  0  0  0
   47.9385    9.7010   20.8754 H   0  0  0  0  0  0  0  0  0  0  0  0
   48.0409    8.2776   20.3300 H   0  0  0  0  0  0  0  0  0  0  0  0
   48.0436    8.2760   20.3480 H   0  0  0  0  0  0  0  0  0  0  0  0
   47.9352    9.7111   20.8606 H   0  0  0  0  0  0  0  0  0  0  0  0
  2  1  2  0
  3  1  1  0
  4  2  1  0
  5  3  2  0
  6  8  1  0
  7  5  1  0
  8  9  1  0
  9  3  1  0
 10  2  1  0
 11  4  1  0
 12  9  1  0
 13  6  1  0
 14 13  1  0
 15 13  1  0
  7  4  2  0
 17 16  2  0
 18 16  2  0
 19 16  1  0
 20 16  1  0
 22 21  2  0
 23 21  1  0
 24 22  1  0
 25 23  2  0
 26 28  1  0
 27 25  1  0
 28 29  1  0
 29 23  1  0
 30 22  1  0
 31 24  1  0
 32 29  1  0
 33 26  1  0
 34 33  1  0
 35 33  1  0
 27 24  2  0
  1 38  1  0
  5 39  1  0
  6 40  1  0
  7 41  1  0
  8 42  1  0
  8 43  1  0
  9 44  1  1
 10 45  1  0
 11 46  1  0
 12 47  1  0
 13 48  1  0
 14 49  1  0
 14 50  1  0
 14 51  1  0
 15 52  1  0
 15 53  1  0
 15 54  1  0
 19 55  1  0
 20 56  1  0
 21 57  1  0
 25 58  1  0
 26 59  1  0
 27 60  1  0
 28 61  1  0
 28 62  1  0
 29 63  1  6
 30 64  1  0
 31 65  1  0
 32 66  1  0
 33 67  1  0
 34 68  1  0
 34 69  1  0
 34 70  1  0
 35 71  1  0
 35 72  1  0
 35 73  1  0
 36 74  1  0
 36 75  1  0
 37 76  1  0
 37 77  1  0
M  END
> <Uni-Dock RESULT> 
ENERGY=   -4.862  LOWER_BOUND=    6.926  UPPER_BOUND=    9.675
INTER + INTRA:          -4.862
INTER:                  -4.862
INTRA:                   0.000
UNBOUND:                 0.000

$$$$

     RDKit          3D

 77 74  0  0  0  0  0  0  0  0999 V2000
   45.5668    4.8565   11.5363 C   0  0  0  0  0  0  0  0  0  0  0  0
   44.8445    3.6777   11.6709 C   0  0  0  0  0  0  0  0  0  0  0  0
   45.0433    6.0559   12.0439 C   0  0  0  0  0  0  0  0  0  0  0  0
   43.5909    3.6772   12.2740 C   0  0  0  0  0  0  0  0  0  0  0  0
   43.7904    6.0343   12.6861 C   0  0  0  0  0  0  0  0  0  0  0  0
   47.0647    9.1586   13.1724 N   0  0  0  0  0  0  0  0  0  0  0  0
   43.0655    4.8455   12.8016 C   0  0  0  0  0  0  0  0  0  0  0  0
   46.4035    7.8403   13.2556 C   0  0  0  0  0  0  0  0  0  0  0  0
   45.8266    7.3454   11.9052 C   0  0  2  0  0  0  0  0  0  0  0  0
   45.3986    2.5118   11.2287 O   0  0  0  0  0  0  0  0  0  0  0  0
   42.8480    2.5339   12.3274 O   0  0  0  0  0  0  0  0  0  0  0  0
   44.9875    8.3642   11.3435 O   0  0  0  0  0  0  0  0  0  0  0  0
   48.3833    9.1305   12.5282 C   0  0  0  0  0  0  0  0  0  0  0  0
   49.4477    8.5395   13.4558 C   0  0  0  0  0  0  0  0  0  0  0  0
   48.7688   10.5635   12.1530 C   0  0  0  0  0  0  0  0  0  0  0  0
   46.0361    7.2917   12.2649 S   0  0  0  0  0  0  0  0  0  0  0  0
   45.0040    8.2961   12.3408 O   0  0  0  0  0  0  0  0  0  0  0  0
   46.6605    6.9030   11.0230 O   0  0  0  0  0  0  0  0  0  0  0  0
   47.2238    7.6753   13.2752 O   0  0  0  0  0  0  0  0  0  0  0  0
   45.4631    5.9354   12.9087 O   0  0  0  0  0  0  0  0  0  0  0  0
   48.3299    7.8277   12.3949 C   0  0  0  0  0  0  0  0  0  0  0  0
   48.5742    9.0768   11.8411 C   0  0  0  0  0  0  0  0  0  0  0  0
   47.1546    7.6097   13.1305 C   0  0  0  0  0  0  0  0  0  0  0  0
   47.6713   10.1224   12.0054 C   0  0  0  0  0  0  0  0  0  0  0  0
   46.2533    8.6773   13.3003 C   0  0  0  0  0  0  0  0  0  0  0  0
   45.8709    5.2048   11.6129 N   0  0  0  0  0  0  0  0  0  0  0  0
   46.5073    9.9328   12.7371 C   0  0  0  0  0  0  0  0  0  0  0  0
   46.8092    5.0845   12.7408 C   0  0  0  0  0  0  0  0  0  0  0  0
   46.8608    6.2579   13.7556 C   0  0  1  0  0  0  0  0  0  0  0  0
   49.7190    9.2725   11.1248 O   0  0  0  0  0  0  0  0  0  0  0  0
   47.9757   11.3229   11.4256 O   0  0  0  0  0  0  0  0  0  0  0  0
   47.8461    5.9685   14.7534 O   0  0  0  0  0  0  0  0  0  0  0  0
   44.4556    5.3038   11.9833 C   0  0  0  0  0  0  0  0  0  0  0  0
   43.6466    5.5150   10.6991 C   0  0  0  0  0  0  0  0  0  0  0  0
   43.9469    4.0579   12.7113 C   0  0  0  0  0  0  0  0  0  0  0  0
   45.9963    7.2259   12.2291 O   0  0  0  0  0  0  0  0  0  0  0  0
   45.9896    7.2197   12.2280 O   0  0  0  0  0  0  0  0  0  0  0  0
   46.5402    4.8325   11.0520 H   0  0  0  0  0  0  0  0  0  0  0  0
   43.3678    6.9535   13.0909 H   0  0  0  0  0  0  0  0  0  0  0  0
   46.4372    9.7506   12.6180 H   0  0  0  0  0  0  0  0  0  0  0  0
   42.0918    4.8381   13.2831 H   0  0  0  0  0  0  0  0  0  0  0  0
   47.0604    7.0837   13.6993 H   0  0  0  0  0  0  0  0  0  0  0  0
   45.5750    7.9742   13.9629 H   0  0  0  0  0  0  0  0  0  0  0  0
   46.6417    7.1938   11.1890 H   0  0  0  0  0  0  0  0  0  0  0  0
   45.1463    1.8309   11.8808 H   0  0  0  0  0  0  0  0  0  0  0  0
   43.0201    2.0623   11.4915 H   0  0  0  0  0  0  0  0  0  0  0  0
   44.3958    7.9231   10.7093 H   0  0  0  0  0  0  0  0  0  0  0  0
   48.3515    8.5483   11.6010 H   0  0  0  0  0  0  0  0  0  0  0  0
   50.4386    8.6094   12.9926 H   0  0  0  0  0  0  0  0  0  0  0  0
   49.2605    7.4807   13.6625 H   0  0  0  0  0  0  0  0  0  0  0  0
   49.4871    9.0719   14.4139 H   0  0  0  0  0  0  0  0  0  0  0  0
   48.0409   10.9963   11.4575 H   0  0  0  0  0  0  0  0  0  0  0  0
   48.8240   11.2095   13.0360 H   0  0  0  0  0  0  0  0  0  0  0  0
   49.7481   10.5843   11.6614 H   0  0  0  0  0  0  0  0  0  0  0  0
   48.0243    7.1835   12.9872 H   0  0  0  0  0  0  0  0  0  0  0  0
   45.0676    5.4042   12.1822 H   0  0  0  0  0  0  0  0  0  0  0  0
   49.0567    7.0314   12.2521 H   0  0  0  0  0  0  0  0  0  0  0  0
   45.3399    8.5361   13.8749 H   0  0  0  0  0  0  0  0  0  0  0  0
   46.1341    6.0227   11.0590 H   0  0  0  0  0  0  0  0  0  0  0  0
   45.7917   10.7367   12.8815 H   0  0  0  0  0  0  0  0  0  0  0  0
   46.6334    4.1473   13.2833 H   0  0  0  0  0  0  0  0  0  0  0  0
   47.8100    4.9459   12.3105 H   0  0  0  0  0  0  0  0  0  0  0  0
   45.9044    6.3028   14.2888 H   0  0  0  0  0  0  0  0  0  0  0  0
   49.6602   10.1981   10.8134 H   0  0  0  0  0  0  0  0  0  0  0  0
   47.2469   11.9432   11.6053 H   0  0  0  0  0  0  0  0  0  0  0  0
   48.3509    6.7825   14.9247 H   0  0  0  0  0  0  0  0  0  0  0  0
   44.2917    6.1804   12.6190 H   0  0  0  0  0  0  0  0  0  0  0  0
   43.7637    4.6746   10.0055 H   0  0  0  0  0  0  0  0  0  0  0  0
   43.9590    6.4295   10.1795 H   0  0  0  0  0  0  0  0  0  0  0  0
   42.5797    5.6140   10.9266 H   0  0  0  0  0  0  0  0  0  0  0  0
   44.4173    3.9467   13.6938 H   0  0  0  0  0  0  0  0  0  0  0  0
   42.8655    4.1213   12.8765 H   0  0  0  0  0  0  0  0  0  0  0  0
   44.1449    3.1478   12.1356 H   0  0  0  0  0  0  0  0  0  0  0  0
   46.8786    7.3323   12.6155 H   0  0  0  0  0  0  0  0  0  0  0  0
   45.7592    6.3088   12.4333 H   0  0  0  0  0  0  0  0  0  0  0  0
   45.7722    6.3000   12.4426 H   0  0  0  0  0  0  0  0  0  0  0  0
   46.8723    7.3472   12.6073 H   0  0  0  0  0  0  0  0  0  0  0  0
  2  1  2  0
  3  1  1  0
  4  2  1  0
  5  3  2  0
  6  8  1  0
  7  5  1  0
  8  9  1  0
  9  3  1  0
 10  2  1  0
 11  4  1  0
 12  9  1  0
 13  6  1  0
 14 13  1  0
 15 13  1  0
  7  4  2  0
 17 16  2  0
 18 16  2  0
 19 16  1  0
 20 16  1  0
 22 21  2  0
 23 21  1  0
 24 22  1  0
 25 23  2  0
 26 28  1  0
 27 25  1  0
 28 29  1  0
 29 23  1  0
 30 22  1  0
 31 24  1  0
 32 29  1  0
 33 26  1  0
 34 33  1  0
 35 33  1  0
 27 24  2  0
  1 38  1  0
  5 39  1  0
  6 40  1  0
  7 41  1  0
  8 42  1  0
  8 43  1  0
  9 44  1  1
 10 45  1  0
 11 46  1  0
 12 47  1  0
 13 48  1  0
 14 49  1  0
 14 50  1  0
 14 51  1  0
 15 52  1  0
 15 53  1  0
 15 54  1  0
 19 55  1  0
 20 56  1  0
 21 57  1  0
 25 58  1  0
 26 59  1  0
 27 60  1  0
 28 61  1  0
 28 62  1  0
 29 63  1  6
 30 64  1  0
 31 65  1  0
 32 66  1  0
 33 67  1  0
 34 68  1  0
 34 69  1  0
 34 70  1  0
 35 71  1  0
 35 72  1  0
 35 73  1  0
 36 74  1  0
 36 75  1  0
 37 76  1  0
 37 77  1  0
M  END
> <Uni-Dock RESULT> 
ENERGY=   -4.659  LOWER_BOUND=    1.360  UPPER_BOUND=    5.584
INTER + INTRA:          -4.659
INTER:                  -4.659
INTRA:                   0.000
UNBOUND:                 0.000

$$$$

     RDKit          3D

 77 74  0  0  0  0  0  0  0  0999 V2000
   47.5457    7.0753   21.8737 C   0  0  0  0  0  0  0  0  0  0  0  0
   47.7782    7.8053   23.0323 C   0  0  0  0  0  0  0  0  0  0  0  0
   48.0401    7.5416   20.6456 C   0  0  0  0  0  0  0  0  0  0  0  0
   48.4677    9.0126   22.9852 C   0  0  0  0  0  0  0  0  0  0  0  0
   48.7694    8.7458   20.6181 C   0  0  0  0  0  0  0  0  0  0  0  0
   48.8975    5.3947   17.5404 N   0  0  0  0  0  0  0  0  0  0  0  0
   48.9835    9.4800   21.7874 C   0  0  0  0  0  0  0  0  0  0  0  0
   49.0802    6.0697   18.8417 C   0  0  0  0  0  0  0  0  0  0  0  0
   47.7947    6.7493   19.3777 C   0  0  2  0  0  0  0  0  0  0  0  0
   47.3454    7.3031   24.2250 O   0  0  0  0  0  0  0  0  0  0  0  0
   48.6193    9.7684   24.1112 O   0  0  0  0  0  0  0  0  0  0  0  0
   47.2530    7.6095   18.3658 O   0  0  0  0  0  0  0  0  0  0  0  0
   48.1637    4.1259   17.6189 C   0  0  0  0  0  0  0  0  0  0  0  0
   49.0369    3.0080   18.1936 C   0  0  0  0  0  0  0  0  0  0  0  0
   47.7047    3.7448   16.2093 C   0  0  0  0  0  0  0  0  0  0  0  0
   48.1406    6.5157   19.4213 S   0  0  0  0  0  0  0  0  0  0  0  0
   48.2486    7.5232   18.3952 O   0  0  0  0  0  0  0  0  0  0  0  0
   46.8745    5.9876   19.8700 O   0  0  0  0  0  0  0  0  0  0  0  0
   49.0485    5.2529   19.0214 O   0  0  0  0  0  0  0  0  0  0  0  0
   48.8773    7.0634   20.7402 O   0  0  0  0  0  0  0  0  0  0  0  0
   48.0870    4.2100   18.9247 C   0  0  0  0  0  0  0  0  0  0  0  0
   47.4674    3.9853   17.7030 C   0  0  0  0  0  0  0  0  0  0  0  0
   48.9118    5.3333   19.0912 C   0  0  0  0  0  0  0  0  0  0  0  0
   47.6528    4.8571   16.6347 C   0  0  0  0  0  0  0  0  0  0  0  0
   49.1015    6.2027   18.0008 C   0  0  0  0  0  0  0  0  0  0  0  0
   47.5866    6.7609   21.5285 N   0  0  0  0  0  0  0  0  0  0  0  0
   48.4717    5.9690   16.7734 C   0  0  0  0  0  0  0  0  0  0  0  0
   48.6495    5.7467   21.6227 C   0  0  0  0  0  0  0  0  0  0  0  0
   49.6100    5.6039   20.4117 C   0  0  1  0  0  0  0  0  0  0  0  0
   46.6649    2.8914   17.5574 O   0  0  0  0  0  0  0  0  0  0  0  0
   47.0050    4.5751   15.4638 O   0  0  0  0  0  0  0  0  0  0  0  0
   50.5467    4.5549   20.6808 O   0  0  0  0  0  0  0  0  0  0  0  0
   48.0515    8.1444   21.3881 C   0  0  0  0  0  0  0  0  0  0  0  0
   46.8200    9.0392   21.2117 C   0  0  0  0  0  0  0  0  0  0  0  0
   48.8632    8.6202   22.5946 C   0  0  0  0  0  0  0  0  0  0  0  0
   48.1105    6.5589   19.4877 O   0  0  0  0  0  0  0  0  0  0  0  0
   48.1101    6.5658   19.4938 O   0  0  0  0  0  0  0  0  0  0  0  0
   46.9953    6.1393   21.9352 H   0  0  0  0  0  0  0  0  0  0  0  0
   49.1656    9.1235   19.6759 H   0  0  0  0  0  0  0  0  0  0  0  0
   48.3653    6.0504   16.9587 H   0  0  0  0  0  0  0  0  0  0  0  0
   49.5323   10.4169   21.7574 H   0  0  0  0  0  0  0  0  0  0  0  0
   49.5065    5.3954   19.5927 H   0  0  0  0  0  0  0  0  0  0  0  0
   49.8381    6.8435   18.6644 H   0  0  0  0  0  0  0  0  0  0  0  0
   47.0296    5.9899   19.5727 H   0  0  0  0  0  0  0  0  0  0  0  0
   48.0406    7.5195   24.8749 H   0  0  0  0  0  0  0  0  0  0  0  0
   47.7930    9.6639   24.6182 H   0  0  0  0  0  0  0  0  0  0  0  0
   46.6804    8.2519   18.8199 H   0  0  0  0  0  0  0  0  0  0  0  0
   47.2652    4.2331   18.2361 H   0  0  0  0  0  0  0  0  0  0  0  0
   48.5026    2.0516   18.1607 H   0  0  0  0  0  0  0  0  0  0  0  0
   49.2988    3.1972   19.2396 H   0  0  0  0  0  0  0  0  0  0  0  0
   49.9676    2.8919   17.6250 H   0  0  0  0  0  0  0  0  0  0  0  0
   47.0454    4.5132   15.7901 H   0  0  0  0  0  0  0  0  0  0  0  0
   48.5550    3.6164   15.5305 H   0  0  0  0  0  0  0  0  0  0  0  0
   47.1449    2.8027   16.2264 H   0  0  0  0  0  0  0  0  0  0  0  0
   48.7249    4.4831   19.5393 H   0  0  0  0  0  0  0  0  0  0  0  0
   48.2026    7.5182   21.2918 H   0  0  0  0  0  0  0  0  0  0  0  0
   47.9255    3.5083   19.7397 H   0  0  0  0  0  0  0  0  0  0  0  0
   49.7443    7.0750   18.1019 H   0  0  0  0  0  0  0  0  0  0  0  0
   46.9830    6.5244   20.7380 H   0  0  0  0  0  0  0  0  0  0  0  0
   48.6336    6.6592   15.9509 H   0  0  0  0  0  0  0  0  0  0  0  0
   49.2403    5.8987   22.5344 H   0  0  0  0  0  0  0  0  0  0  0  0
   48.1556    4.7815   21.7970 H   0  0  0  0  0  0  0  0  0  0  0  0
   50.2070    6.5190   20.3278 H   0  0  0  0  0  0  0  0  0  0  0  0
   46.3215    2.9571   16.6436 H   0  0  0  0  0  0  0  0  0  0  0  0
   47.2105    5.2791   14.8231 H   0  0  0  0  0  0  0  0  0  0  0  0
   50.6491    4.0260   19.8706 H   0  0  0  0  0  0  0  0  0  0  0  0
   48.6614    8.2483   20.4844 H   0  0  0  0  0  0  0  0  0  0  0  0
   46.1543    8.9855   22.0807 H   0  0  0  0  0  0  0  0  0  0  0  0
   46.2433    8.7497   20.3243 H   0  0  0  0  0  0  0  0  0  0  0  0
   47.1180   10.0855   21.0835 H   0  0  0  0  0  0  0  0  0  0  0  0
   49.8137    8.0829   22.6764 H   0  0  0  0  0  0  0  0  0  0  0  0
   49.1014    9.6859   22.5042 H   0  0  0  0  0  0  0  0  0  0  0  0
   48.3120    8.4786   23.5302 H   0  0  0  0  0  0  0  0  0  0  0  0
   48.4291    5.6497   19.3832 H   0  0  0  0  0  0  0  0  0  0  0  0
   48.3677    6.7959   20.3914 H   0  0  0  0  0  0  0  0  0  0  0  0
   48.3764    6.7824   20.4002 H   0  0  0  0  0  0  0  0  0  0  0  0
   48.4207    5.6564   19.3685 H   0  0  0  0  0  0  0  0  0  0  0  0
  2  1  2  0
  3  1  1  0
  4  2  1  0
  5  3  2  0
  6  8  1  0
  7  5  1  0
  8  9  1  0
  9  3  1  0
 10  2  1  0
 11  4  1  0
 12  9  1  0
 13  6  1  0
 14 13  1  0
 15 13  1  0
  7  4  2  0
 17 16  2  0
 18 16  2  0
 19 16  1  0
 20 16  1  0
 22 21  2  0
 23 21  1  0
 24 22  1  0
 25 23  2  0
 26 28  1  0
 27 25  1  0
 28 29  1  0
 29 23  1  0
 30 22  1  0
 31 24  1  0
 32 29  1  0
 33 26  1  0
 34 33  1  0
 35 33  1  0
 27 24  2  0
  1 38  1  0
  5 39  1  0
  6 40  1  0
  7 41  1  0
  8 42  1  0
  8 43  1  0
  9 44  1  1
 10 45  1  0
 11 46  1  0
 12 47  1  0
 13 48  1  0
 14 49  1  0
 14 50  1  0
 14 51  1  0
 15 52  1  0
 15 53  1  0
 15 54  1  0
 19 55  1  0
 20 56  1  0
 21 57  1  0
 25 58  1  0
 26 59  1  0
 27 60  1  0
 28 61  1  0
 28 62  1  0
 29 63  1  6
 30 64  1  0
 31 65  1  0
 32 66  1  0
 33 67  1  0
 34 68  1  0
 34 69  1  0
 34 70  1  0
 35 71  1  0
 35 72  1  0
 35 73  1  0
 36 74  1  0
 36 75  1  0
 37 76  1  0
 37 77  1  0
M  END
> <Uni-Dock RESULT> 
ENERGY=   -4.658  LOWER_BOUND=    6.479  UPPER_BOUND=    8.134
INTER + INTRA:          -4.658
INTER:                  -4.658
INTRA:                   0.000
UNBOUND:                 0.000

$$$$

     RDKit          3D

 77 74  0  0  0  0  0  0  0  0999 V2000
   48.9711   10.7715   19.8231 C   0  0  0  0  0  0  0  0  0  0  0  0
   48.7403   12.1411   19.8099 C   0  0  0  0  0  0  0  0  0  0  0  0
   47.9085    9.8885   20.0710 C   0  0  0  0  0  0  0  0  0  0  0  0
   47.4731   12.6510   20.0733 C   0  0  0  0  0  0  0  0  0  0  0  0
   46.6232   10.4166   20.2982 C   0  0  0  0  0  0  0  0  0  0  0  0
   47.6481    6.2079   18.8997 N   0  0  0  0  0  0  0  0  0  0  0  0
   46.4059   11.7968   20.2983 C   0  0  0  0  0  0  0  0  0  0  0  0
   47.5362    7.6802   18.8517 C   0  0  0  0  0  0  0  0  0  0  0  0
   48.1507    8.3930   20.0829 C   0  0  2  0  0  0  0  0  0  0  0  0
   49.7722   12.9798   19.5034 O   0  0  0  0  0  0  0  0  0  0  0  0
   47.2692   13.9982   20.1441 O   0  0  0  0  0  0  0  0  0  0  0  0
   47.6087    7.8237   21.2827 O   0  0  0  0  0  0  0  0  0  0  0  0
   48.9962    5.6980   18.6222 C   0  0  0  0  0  0  0  0  0  0  0  0
   49.3298    5.7783   17.1306 C   0  0  0  0  0  0  0  0  0  0  0  0
   49.0667    4.2408   19.0856 C   0  0  0  0  0  0  0  0  0  0  0  0
   48.0833    8.3487   19.6710 S   0  0  0  0  0  0  0  0  0  0  0  0
   47.0008    7.8615   20.4899 O   0  0  0  0  0  0  0  0  0  0  0  0
   49.4388    8.4649   20.1531 O   0  0  0  0  0  0  0  0  0  0  0  0
   48.1503    7.4897   18.3159 O   0  0  0  0  0  0  0  0  0  0  0  0
   47.6850    9.8092   19.1317 O   0  0  0  0  0  0  0  0  0  0  0  0
   49.4453    6.9077   18.3926 C   0  0  0  0  0  0  0  0  0  0  0  0
   49.5880    5.6795   19.0234 C   0  0  0  0  0  0  0  0  0  0  0  0
   48.2148    7.5806   18.4486 C   0  0  0  0  0  0  0  0  0  0  0  0
   48.5267    5.0998   19.7112 C   0  0  0  0  0  0  0  0  0  0  0  0
   47.1444    6.9801   19.1374 C   0  0  0  0  0  0  0  0  0  0  0  0
   49.0282   10.3272   19.6853 N   0  0  0  0  0  0  0  0  0  0  0  0
   47.2980    5.7423   19.7715 C   0  0  0  0  0  0  0  0  0  0  0  0
   48.9998   10.0281   18.2442 C   0  0  0  0  0  0  0  0  0  0  0  0
   48.0232    8.9216   17.7632 C   0  0  1  0  0  0  0  0  0  0  0  0
   50.7915    5.0392   18.9641 O   0  0  0  0  0  0  0  0  0  0  0  0
   48.7433    3.8913   20.3136 O   0  0  0  0  0  0  0  0  0  0  0  0
   48.1633    8.7591   16.3476 O   0  0  0  0  0  0  0  0  0  0  0  0
   47.7663   10.8176   20.2483 C   0  0  0  0  0  0  0  0  0  0  0  0
   47.9579   10.9830   21.7597 C   0  0  0  0  0  0  0  0  0  0  0  0
   47.3251   12.1494   19.6380 C   0  0  0  0  0  0  0  0  0  0  0  0
   48.0986    8.4257   19.7031 O   0  0  0  0  0  0  0  0  0  0  0  0
   48.0964    8.4342   19.7061 O   0  0  0  0  0  0  0  0  0  0  0  0
   49.9729   10.3981   19.6240 H   0  0  0  0  0  0  0  0  0  0  0  0
   45.7836    9.7485   20.4884 H   0  0  0  0  0  0  0  0  0  0  0  0
   47.3814    5.9392   19.8527 H   0  0  0  0  0  0  0  0  0  0  0  0
   45.4153   12.1989   20.4909 H   0  0  0  0  0  0  0  0  0  0  0  0
   47.9454    8.0884   17.9208 H   0  0  0  0  0  0  0  0  0  0  0  0
   46.4592    7.8896   18.8265 H   0  0  0  0  0  0  0  0  0  0  0  0
   49.2295    8.2053   20.1177 H   0  0  0  0  0  0  0  0  0  0  0  0
   49.3859   13.6926   18.9602 H   0  0  0  0  0  0  0  0  0  0  0  0
   48.0719   14.3704   20.5539 H   0  0  0  0  0  0  0  0  0  0  0  0
   47.7362    8.4813   21.9885 H   0  0  0  0  0  0  0  0  0  0  0  0
   49.7485    6.2569   19.1891 H   0  0  0  0  0  0  0  0  0  0  0  0
   50.3014    5.3118   16.9315 H   0  0  0  0  0  0  0  0  0  0  0  0
   49.3915    6.8156   16.7858 H   0  0  0  0  0  0  0  0  0  0  0  0
   48.5783    5.2610   16.5218 H   0  0  0  0  0  0  0  0  0  0  0  0
   48.8691    4.1609   20.1605 H   0  0  0  0  0  0  0  0  0  0  0  0
   48.3396    3.6149   18.5567 H   0  0  0  0  0  0  0  0  0  0  0  0
   50.0636    3.8243   18.9012 H   0  0  0  0  0  0  0  0  0  0  0  0
   49.0486    7.6103   17.9363 H   0  0  0  0  0  0  0  0  0  0  0  0
   48.0373   10.4690   19.7695 H   0  0  0  0  0  0  0  0  0  0  0  0
   50.2923    7.3334   17.8597 H   0  0  0  0  0  0  0  0  0  0  0  0
   46.1776    7.4774   19.1865 H   0  0  0  0  0  0  0  0  0  0  0  0
   49.3170    9.4834   20.1851 H   0  0  0  0  0  0  0  0  0  0  0  0
   46.4555    5.3051   20.2989 H   0  0  0  0  0  0  0  0  0  0  0  0
   48.8165   10.9443   17.6693 H   0  0  0  0  0  0  0  0  0  0  0  0
   50.0214    9.7466   17.9561 H   0  0  0  0  0  0  0  0  0  0  0  0
   46.9956    9.2681   17.9208 H   0  0  0  0  0  0  0  0  0  0  0  0
   50.6653    4.2267   19.4945 H   0  0  0  0  0  0  0  0  0  0  0  0
   47.9252    3.6260   20.7705 H   0  0  0  0  0  0  0  0  0  0  0  0
   48.1572    7.8063   16.1507 H   0  0  0  0  0  0  0  0  0  0  0  0
   46.9732   10.0770   20.1000 H   0  0  0  0  0  0  0  0  0  0  0  0
   48.7442   11.7111   21.9895 H   0  0  0  0  0  0  0  0  0  0  0  0
   48.2294   10.0305   22.2316 H   0  0  0  0  0  0  0  0  0  0  0  0
   47.0322   11.3314   22.2305 H   0  0  0  0  0  0  0  0  0  0  0  0
   47.0587   12.0386   18.5817 H   0  0  0  0  0  0  0  0  0  0  0  0
   46.4403   12.5373   20.1551 H   0  0  0  0  0  0  0  0  0  0  0  0
   48.1140   12.9053   19.7113 H   0  0  0  0  0  0  0  0  0  0  0  0
   48.4372    7.9564   18.9258 H   0  0  0  0  0  0  0  0  0  0  0  0
   48.0832    9.3549   19.4285 H   0  0  0  0  0  0  0  0  0  0  0  0
   48.0891    9.3574   19.4114 H   0  0  0  0  0  0  0  0  0  0  0  0
   48.4334    7.9455   18.9399 H   0  0  0  0  0  0  0  0  0  0  0  0
  2  1  2  0
  3  1  1  0
  4  2  1  0
  5  3  2  0
  6  8  1  0
  7  5  1  0
  8  9  1  0
  9  3  1  0
 10  2  1  0
 11  4  1  0
 12  9  1  0
 13  6  1  0
 14 13  1  0
 15 13  1  0
  7  4  2  0
 17 16  2  0
 18 16  2  0
 19 16  1  0
 20 16  1  0
 22 21  2  0
 23 21  1  0
 24 22  1  0
 25 23  2  0
 26 28  1  0
 27 25  1  0
 28 29  1  0
 29 23  1  0
 30 22  1  0
 31 24  1  0
 32 29  1  0
 33 26  1  0
 34 33  1  0
 35 33  1  0
 27 24  2  0
  1 38  1  0
  5 39  1  0
  6 40  1  0
  7 41  1  0
  8 42  1  0
  8 43  1  0
  9 44  1  1
 10 45  1  0
 11 46  1  0
 12 47  1  0
 13 48  1  0
 14 49  1  0
 14 50  1  0
 14 51  1  0
 15 52  1  0
 15 53  1  0
 15 54  1  0
 19 55  1  0
 20 56  1  0
 21 57  1  0
 25 58  1  0
 26 59  1  0
 27 60  1  0
 28 61  1  0
 28 62  1  0
 29 63  1  6
 30 64  1  0
 31 65  1  0
 32 66  1  0
 33 67  1  0
 34 68  1  0
 34 69  1  0
 34 70  1  0
 35 71  1  0
 35 72  1  0
 35 73  1  0
 36 74  1  0
 36 75  1  0
 37 76  1  0
 37 77  1  0
M  END
> <Uni-Dock RESULT> 
ENERGY=   -4.506  LOWER_BOUND=    5.918  UPPER_BOUND=    7.771
INTER + INTRA:          -4.506
INTER:                  -4.506
INTRA:                   0.000
UNBOUND:                 0.000

$$$$

     RDKit          3D

 77 74  0  0  0  0  0  0  0  0999 V2000
   49.5620    4.9744   18.8579 C   0  0  0  0  0  0  0  0  0  0  0  0
   49.5301    3.7840   18.1428 C   0  0  0  0  0  0  0  0  0  0  0  0
   48.4100    5.7728   18.9332 C   0  0  0  0  0  0  0  0  0  0  0  0
   48.3777    3.3892   17.4710 C   0  0  0  0  0  0  0  0  0  0  0  0
   47.2392    5.3422   18.2802 C   0  0  0  0  0  0  0  0  0  0  0  0
   47.5205    8.2772   21.7480 N   0  0  0  0  0  0  0  0  0  0  0  0
   47.2232    4.1508   17.5505 C   0  0  0  0  0  0  0  0  0  0  0  0
   47.6173    6.9906   21.0286 C   0  0  0  0  0  0  0  0  0  0  0  0
   48.4350    7.0705   19.7147 C   0  0  2  0  0  0  0  0  0  0  0  0
   50.6403    2.9906   18.1350 O   0  0  0  0  0  0  0  0  0  0  0  0
   48.3765    2.2635   16.6998 O   0  0  0  0  0  0  0  0  0  0  0  0
   47.9259    8.1363   18.9008 O   0  0  0  0  0  0  0  0  0  0  0  0
   48.7513    8.6711   22.4441 C   0  0  0  0  0  0  0  0  0  0  0  0
   48.9587    7.8539   23.7214 C   0  0  0  0  0  0  0  0  0  0  0  0
   48.6528   10.1574   22.7965 C   0  0  0  0  0  0  0  0  0  0  0  0
   48.3255    6.8892   20.0769 S   0  0  0  0  0  0  0  0  0  0  0  0
   47.2616    7.6456   19.4641 O   0  0  0  0  0  0  0  0  0  0  0  0
   49.7212    7.1451   19.8124 O   0  0  0  0  0  0  0  0  0  0  0  0
   48.1476    6.9218   21.6726 O   0  0  0  0  0  0  0  0  0  0  0  0
   48.0946    5.3354   19.7380 O   0  0  0  0  0  0  0  0  0  0  0  0
   49.3472    7.5568   22.0959 C   0  0  0  0  0  0  0  0  0  0  0  0
   49.3677    8.9407   22.2014 C   0  0  0  0  0  0  0  0  0  0  0  0
   48.2360    6.9183   21.5236 C   0  0  0  0  0  0  0  0  0  0  0  0
   48.2996    9.7095   21.7499 C   0  0  0  0  0  0  0  0  0  0  0  0
   47.1561    7.7046   21.0803 C   0  0  0  0  0  0  0  0  0  0  0  0
   49.5422    5.2854   19.2079 N   0  0  0  0  0  0  0  0  0  0  0  0
   47.1863    9.0993   21.1894 C   0  0  0  0  0  0  0  0  0  0  0  0
   49.3429    4.7895   20.5796 C   0  0  0  0  0  0  0  0  0  0  0  0
   48.1786    5.4063   21.4002 C   0  0  1  0  0  0  0  0  0  0  0  0
   50.4566    9.5477   22.7561 O   0  0  0  0  0  0  0  0  0  0  0  0
   48.3932   11.0676   21.8807 O   0  0  0  0  0  0  0  0  0  0  0  0
   48.1673    4.8204   22.7066 O   0  0  0  0  0  0  0  0  0  0  0  0
   48.4190    5.0631   18.2920 C   0  0  0  0  0  0  0  0  0  0  0  0
   48.7663    5.7219   16.9527 C   0  0  0  0  0  0  0  0  0  0  0  0
   48.1210    3.5787   18.0719 C   0  0  0  0  0  0  0  0  0  0  0  0
   48.3545    6.8414   20.0131 O   0  0  0  0  0  0  0  0  0  0  0  0
   48.3539    6.8356   20.0059 O   0  0  0  0  0  0  0  0  0  0  0  0
   50.4781    5.2661   19.3662 H   0  0  0  0  0  0  0  0  0  0  0  0
   46.3327    5.9449   18.3296 H   0  0  0  0  0  0  0  0  0  0  0  0
   47.3039    8.9802   21.0336 H   0  0  0  0  0  0  0  0  0  0  0  0
   46.3218    3.8322   17.0348 H   0  0  0  0  0  0  0  0  0  0  0  0
   47.9963    6.1913   21.6752 H   0  0  0  0  0  0  0  0  0  0  0  0
   46.5836    6.7162   20.7823 H   0  0  0  0  0  0  0  0  0  0  0  0
   49.4744    7.3315   19.9420 H   0  0  0  0  0  0  0  0  0  0  0  0
   50.3134    2.0720   18.1788 H   0  0  0  0  0  0  0  0  0  0  0  0
   49.2576    2.2214   16.2844 H   0  0  0  0  0  0  0  0  0  0  0  0
   48.2089    7.9529   17.9881 H   0  0  0  0  0  0  0  0  0  0  0  0
   49.6235    8.5477   21.7931 H   0  0  0  0  0  0  0  0  0  0  0  0
   49.8317    8.2225   24.2724 H   0  0  0  0  0  0  0  0  0  0  0  0
   49.1378    6.7967   23.5001 H   0  0  0  0  0  0  0  0  0  0  0  0
   48.0896    7.9201   24.3872 H   0  0  0  0  0  0  0  0  0  0  0  0
   48.5423   10.7683   21.8936 H   0  0  0  0  0  0  0  0  0  0  0  0
   47.7992   10.3594   23.4528 H   0  0  0  0  0  0  0  0  0  0  0  0
   49.5591   10.4930   23.3135 H   0  0  0  0  0  0  0  0  0  0  0  0
   49.0164    6.6913   22.0694 H   0  0  0  0  0  0  0  0  0  0  0  0
   48.5934    5.1321   18.9157 H   0  0  0  0  0  0  0  0  0  0  0  0
   50.1957    6.9831   22.4614 H   0  0  0  0  0  0  0  0  0  0  0  0
   46.2790    7.2323   20.6422 H   0  0  0  0  0  0  0  0  0  0  0  0
   49.7502    6.2854   19.2525 H   0  0  0  0  0  0  0  0  0  0  0  0
   46.3400    9.6803   20.8352 H   0  0  0  0  0  0  0  0  0  0  0  0
   49.2425    3.6971   20.5781 H   0  0  0  0  0  0  0  0  0  0  0  0
   50.2837    4.9582   21.1202 H   0  0  0  0  0  0  0  0  0  0  0  0
   47.2296    5.1140   20.9368 H   0  0  0  0  0  0  0  0  0  0  0  0
   50.2628   10.5049   22.6965 H   0  0  0  0  0  0  0  0  0  0  0  0
   47.5896   11.4675   21.5032 H   0  0  0  0  0  0  0  0  0  0  0  0
   48.0069    5.5286   23.3541 H   0  0  0  0  0  0  0  0  0  0  0  0
   47.5177    5.5554   18.6727 H   0  0  0  0  0  0  0  0  0  0  0  0
   49.6663    5.2821   16.5079 H   0  0  0  0  0  0  0  0  0  0  0  0
   48.9391    6.7986   17.0733 H   0  0  0  0  0  0  0  0  0  0  0  0
   47.9459    5.5984   16.2374 H   0  0  0  0  0  0  0  0  0  0  0  0
   47.7485    3.1040   18.9856 H   0  0  0  0  0  0  0  0  0  0  0  0
   47.3507    3.4488   17.3035 H   0  0  0  0  0  0  0  0  0  0  0  0
   49.0136    3.0341   17.7466 H   0  0  0  0  0  0  0  0  0  0  0  0
   48.5516    6.8634   20.9617 H   0  0  0  0  0  0  0  0  0  0  0  0
   48.4483    5.9068   19.7750 H   0  0  0  0  0  0  0  0  0  0  0  0
   48.4530    5.8963   19.7891 H   0  0  0  0  0  0  0  0  0  0  0  0
   48.5476    6.8797   20.9546 H   0  0  0  0  0  0  0  0  0  0  0  0
  2  1  2  0
  3  1  1  0
  4  2  1  0
  5  3  2  0
  6  8  1  0
  7  5  1  0
  8  9  1  0
  9  3  1  0
 10  2  1  0
 11  4  1  0
 12  9  1  0
 13  6  1  0
 14 13  1  0
 15 13  1  0
  7  4  2  0
 17 16  2  0
 18 16  2  0
 19 16  1  0
 20 16  1  0
 22 21  2  0
 23 21  1  0
 24 22  1  0
 25 23  2  0
 26 28  1  0
 27 25  1  0
 28 29  1  0
 29 23  1  0
 30 22  1  0
 31 24  1  0
 32 29  1  0
 33 26  1  0
 34 33  1  0
 35 33  1  0
 27 24  2  0
  1 38  1  0
  5 39  1  0
  6 40  1  0
  7 41  1  0
  8 42  1  0
  8 43  1  0
  9 44  1  1
 10 45  1  0
 11 46  1  0
 12 47  1  0
 13 48  1  0
 14 49  1  0
 14 50  1  0
 14 51  1  0
 15 52  1  0
 15 53  1  0
 15 54  1  0
 19 55  1  0
 20 56  1  0
 21 57  1  0
 25 58  1  0
 26 59  1  0
 27 60  1  0
 28 61  1  0
 28 62  1  0
 29 63  1  6
 30 64  1  0
 31 65  1  0
 32 66  1  0
 33 67  1  0
 34 68  1  0
 34 69  1  0
 34 70  1  0
 35 71  1  0
 35 72  1  0
 35 73  1  0
 36 74  1  0
 36 75  1  0
 37 76  1  0
 37 77  1  0
M  END
> <Uni-Dock RESULT> 
ENERGY=   -4.378  LOWER_BOUND=    6.798  UPPER_BOUND=    9.495
INTER + INTRA:          -4.378
INTER:                  -4.378
INTRA:                   0.000
UNBOUND:                 0.000

$$$$

     RDKit          3D

 77 74  0  0  0  0  0  0  0  0999 V2000
   49.5809   12.4706   17.5527 C   0  0  0  0  0  0  0  0  0  0  0  0
   49.7763   13.2875   16.4464 C   0  0  0  0  0  0  0  0  0  0  0  0
   48.3363   12.4628   18.2015 C   0  0  0  0  0  0  0  0  0  0  0  0
   48.7621   14.1246   15.9930 C   0  0  0  0  0  0  0  0  0  0  0  0
   47.3062   13.2867   17.7087 C   0  0  0  0  0  0  0  0  0  0  0  0
   46.8403    9.5628   20.2845 N   0  0  0  0  0  0  0  0  0  0  0  0
   47.5191   14.1162   16.6048 C   0  0  0  0  0  0  0  0  0  0  0  0
   47.1753   10.3771   19.0983 C   0  0  0  0  0  0  0  0  0  0  0  0
   48.1133   11.5716   19.4063 C   0  0  2  0  0  0  0  0  0  0  0  0
   50.9719   13.2331   15.7907 O   0  0  0  0  0  0  0  0  0  0  0  0
   48.9857   14.9875   14.9599 O   0  0  0  0  0  0  0  0  0  0  0  0
   47.5649   12.3424   20.4845 O   0  0  0  0  0  0  0  0  0  0  0  0
   47.9294    8.6924   20.7435 C   0  0  0  0  0  0  0  0  0  0  0  0
   48.0991    7.4772   19.8286 C   0  0  0  0  0  0  0  0  0  0  0  0
   47.6073    8.2234   22.1645 C   0  0  0  0  0  0  0  0  0  0  0  0
   47.9891   11.2426   19.1773 S   0  0  0  0  0  0  0  0  0  0  0  0
   46.9108   11.9084   19.8655 O   0  0  0  0  0  0  0  0  0  0  0  0
   49.3618   11.3146   19.6176 O   0  0  0  0  0  0  0  0  0  0  0  0
   47.6374    9.6831   19.0250 O   0  0  0  0  0  0  0  0  0  0  0  0
   47.9935   11.7435   17.6504 O   0  0  0  0  0  0  0  0  0  0  0  0
   48.6948    9.0647   19.7468 C   0  0  0  0  0  0  0  0  0  0  0  0
   48.5295    8.8348   21.1056 C   0  0  0  0  0  0  0  0  0  0  0  0
   47.7411    9.8202   19.0471 C   0  0  0  0  0  0  0  0  0  0  0  0
   47.4282    9.3404   21.7890 C   0  0  0  0  0  0  0  0  0  0  0  0
   46.6250   10.3176   19.7455 C   0  0  0  0  0  0  0  0  0  0  0  0
   49.4845   12.0992   17.8218 N   0  0  0  0  0  0  0  0  0  0  0  0
   46.4675   10.0820   21.1158 C   0  0  0  0  0  0  0  0  0  0  0  0
   49.2024   10.8108   17.1679 C   0  0  0  0  0  0  0  0  0  0  0  0
   47.8881   10.0835   17.5593 C   0  0  1  0  0  0  0  0  0  0  0  0
   49.4672    8.1021   21.7734 O   0  0  0  0  0  0  0  0  0  0  0  0
   47.3355    9.0791   23.1281 O   0  0  0  0  0  0  0  0  0  0  0  0
   47.8098    8.8453   16.8447 O   0  0  0  0  0  0  0  0  0  0  0  0
   48.5036   13.1589   17.5673 C   0  0  0  0  0  0  0  0  0  0  0  0
   48.9076   14.3831   18.3957 C   0  0  0  0  0  0  0  0  0  0  0  0
   48.4202   13.5442   16.0889 C   0  0  0  0  0  0  0  0  0  0  0  0
   48.0306   11.3065   19.1400 O   0  0  0  0  0  0  0  0  0  0  0  0
   48.0314   11.3141   19.1349 O   0  0  0  0  0  0  0  0  0  0  0  0
   50.3928   11.8325   17.8938 H   0  0  0  0  0  0  0  0  0  0  0  0
   46.3311   13.2926   18.1950 H   0  0  0  0  0  0  0  0  0  0  0  0
   46.6153   10.2326   21.0277 H   0  0  0  0  0  0  0  0  0  0  0  0
   46.7259   14.7622   16.2394 H   0  0  0  0  0  0  0  0  0  0  0  0
   47.5799    9.7636   18.2856 H   0  0  0  0  0  0  0  0  0  0  0  0
   46.2170   10.7686   18.7338 H   0  0  0  0  0  0  0  0  0  0  0  0
   49.0810   11.1993   19.7601 H   0  0  0  0  0  0  0  0  0  0  0  0
   50.7604   13.3106   14.8411 H   0  0  0  0  0  0  0  0  0  0  0  0
   49.9047   15.2968   15.0621 H   0  0  0  0  0  0  0  0  0  0  0  0
   47.9655   13.2274   20.4296 H   0  0  0  0  0  0  0  0  0  0  0  0
   48.8753    9.2429   20.7887 H   0  0  0  0  0  0  0  0  0  0  0  0
   48.8541    6.7953   20.2364 H   0  0  0  0  0  0  0  0  0  0  0  0
   48.4325    7.7688   18.8274 H   0  0  0  0  0  0  0  0  0  0  0  0
   47.1618    6.9169   19.7258 H   0  0  0  0  0  0  0  0  0  0  0  0
   47.5188    9.0752   22.8482 H   0  0  0  0  0  0  0  0  0  0  0  0
   46.6692    7.6585   22.1986 H   0  0  0  0  0  0  0  0  0  0  0  0
   48.4030    7.5740   22.5470 H   0  0  0  0  0  0  0  0  0  0  0  0
   48.4805    9.2073   18.8563 H   0  0  0  0  0  0  0  0  0  0  0  0
   48.5997   12.5152   17.5913 H   0  0  0  0  0  0  0  0  0  0  0  0
   49.5644    8.6529   19.2398 H   0  0  0  0  0  0  0  0  0  0  0  0
   45.8667   10.8977   19.2232 H   0  0  0  0  0  0  0  0  0  0  0  0
   49.5590   11.9413   18.8290 H   0  0  0  0  0  0  0  0  0  0  0  0
   45.5980   10.4816   21.6291 H   0  0  0  0  0  0  0  0  0  0  0  0
   49.2411   10.9215   16.0771 H   0  0  0  0  0  0  0  0  0  0  0  0
   50.0507   10.1488   17.3871 H   0  0  0  0  0  0  0  0  0  0  0  0
   47.0390   10.6812   17.2091 H   0  0  0  0  0  0  0  0  0  0  0  0
   49.1620    8.0990   22.7030 H   0  0  0  0  0  0  0  0  0  0  0  0
   46.5333    9.5128   23.4698 H   0  0  0  0  0  0  0  0  0  0  0  0
   47.4927    8.1611   17.4595 H   0  0  0  0  0  0  0  0  0  0  0  0
   47.5118   12.8463   17.9110 H   0  0  0  0  0  0  0  0  0  0  0  0
   49.8984   14.7545   18.1102 H   0  0  0  0  0  0  0  0  0  0  0  0
   48.9295   14.1474   19.4670 H   0  0  0  0  0  0  0  0  0  0  0  0
   48.1912   15.1995   18.2530 H   0  0  0  0  0  0  0  0  0  0  0  0
   48.0141   12.7274   15.4832 H   0  0  0  0  0  0  0  0  0  0  0  0
   47.7598   14.4076   15.9511 H   0  0  0  0  0  0  0  0  0  0  0  0
   49.4041   13.8077   15.6868 H   0  0  0  0  0  0  0  0  0  0  0  0
   48.1199   10.3430   19.0868 H   0  0  0  0  0  0  0  0  0  0  0  0
   48.2664   11.6139   18.2518 H   0  0  0  0  0  0  0  0  0  0  0  0
   48.2707   11.6003   18.2405 H   0  0  0  0  0  0  0  0  0  0  0  0
   48.1147   10.3490   19.1032 H   0  0  0  0  0  0  0  0  0  0  0  0
  2  1  2  0
  3  1  1  0
  4  2  1  0
  5  3  2  0
  6  8  1  0
  7  5  1  0
  8  9  1  0
  9  3  1  0
 10  2  1  0
 11  4  1  0
 12  9  1  0
 13  6  1  0
 14 13  1  0
 15 13  1  0
  7  4  2  0
 17 16  2  0
 18 16  2  0
 19 16  1  0
 20 16  1  0
 22 21  2  0
 23 21  1  0
 24 22  1  0
 25 23  2  0
 26 28  1  0
 27 25  1  0
 28 29  1  0
 29 23  1  0
 30 22  1  0
 31 24  1  0
 32 29  1  0
 33 26  1  0
 34 33  1  0
 35 33  1  0
 27 24  2  0
  1 38  1  0
  5 39  1  0
  6 40  1  0
  7 41  1  0
  8 42  1  0
  8 43  1  0
  9 44  1  1
 10 45  1  0
 11 46  1  0
 12 47  1  0
 13 48  1  0
 14 49  1  0
 14 50  1  0
 14 51  1  0
 15 52  1  0
 15 53  1  0
 15 54  1  0
 19 55  1  0
 20 56  1  0
 21 57  1  0
 25 58  1  0
 26 59  1  0
 27 60  1  0
 28 61  1  0
 28 62  1  0
 29 63  1  6
 30 64  1  0
 31 65  1  0
 32 66  1  0
 33 67  1  0
 34 68  1  0
 34 69  1  0
 34 70  1  0
 35 71  1  0
 35 72  1  0
 35 73  1  0
 36 74  1  0
 36 75  1  0
 37 76  1  0
 37 77  1  0
M  END
> <Uni-Dock RESULT> 
ENERGY=   -4.063  LOWER_BOUND=    6.428  UPPER_BOUND=    8.466
INTER + INTRA:          -4.063
INTER:                  -4.063
INTRA:                   0.000
UNBOUND:                 0.000

$$$$

     RDKit          3D

 77 74  0  0  0  0  0  0  0  0999 V2000
   49.1210   10.3977   20.4269 C   0  0  0  0  0  0  0  0  0  0  0  0
   48.8949    9.5433   21.4985 C   0  0  0  0  0  0  0  0  0  0  0  0
   48.0337   10.8984   19.6940 C   0  0  0  0  0  0  0  0  0  0  0  0
   47.6033    9.1502   21.8338 C   0  0  0  0  0  0  0  0  0  0  0  0
   46.7293   10.5227   20.0681 C   0  0  0  0  0  0  0  0  0  0  0  0
   47.9405   14.1978   17.6710 N   0  0  0  0  0  0  0  0  0  0  0  0
   46.5147    9.6500   21.1379 C   0  0  0  0  0  0  0  0  0  0  0  0
   47.8370   13.2902   18.8320 C   0  0  0  0  0  0  0  0  0  0  0  0
   48.2712   11.8343   18.5264 C   0  0  2  0  0  0  0  0  0  0  0  0
   49.9601    9.1187   22.2382 O   0  0  0  0  0  0  0  0  0  0  0  0
   47.3919    8.2442   22.8319 O   0  0  0  0  0  0  0  0  0  0  0  0
   47.5645   11.3587   17.3724 O   0  0  0  0  0  0  0  0  0  0  0  0
   49.3141   14.5929   17.3372 C   0  0  0  0  0  0  0  0  0  0  0  0
   49.8556   15.6280   18.3260 C   0  0  0  0  0  0  0  0  0  0  0  0
   49.3178   15.1823   15.9245 C   0  0  0  0  0  0  0  0  0  0  0  0
   48.2627   12.1805   18.7636 S   0  0  0  0  0  0  0  0  0  0  0  0
   47.0751   11.9964   17.9667 O   0  0  0  0  0  0  0  0  0  0  0  0
   49.5364   11.5963   18.4172 O   0  0  0  0  0  0  0  0  0  0  0  0
   48.5208   13.7513   18.9749 O   0  0  0  0  0  0  0  0  0  0  0  0
   47.9454   11.6813   20.2578 O   0  0  0  0  0  0  0  0  0  0  0  0
   49.7916   13.9321   18.3634 C   0  0  0  0  0  0  0  0  0  0  0  0
   49.8431   14.2391   17.0107 C   0  0  0  0  0  0  0  0  0  0  0  0
   48.5659   13.5854   18.9528 C   0  0  0  0  0  0  0  0  0  0  0  0
   48.6948   14.2116   16.2256 C   0  0  0  0  0  0  0  0  0  0  0  0
   47.4085   13.5716   18.1520 C   0  0  0  0  0  0  0  0  0  0  0  0
   49.1969   10.7837   20.1722 N   0  0  0  0  0  0  0  0  0  0  0  0
   47.4703   13.8812   16.7889 C   0  0  0  0  0  0  0  0  0  0  0  0
   49.3727   12.0661   20.8734 C   0  0  0  0  0  0  0  0  0  0  0  0
   48.4737   13.2516   20.4308 C   0  0  1  0  0  0  0  0  0  0  0  0
   51.0426   14.5701   16.4508 O   0  0  0  0  0  0  0  0  0  0  0  0
   48.8235   14.5193   14.8993 O   0  0  0  0  0  0  0  0  0  0  0  0
   48.8128   14.4080   21.2040 O   0  0  0  0  0  0  0  0  0  0  0  0
   47.8681   10.1771   20.2998 C   0  0  0  0  0  0  0  0  0  0  0  0
   47.8438    8.9110   19.4368 C   0  0  0  0  0  0  0  0  0  0  0  0
   47.5182    9.8195   21.7457 C   0  0  0  0  0  0  0  0  0  0  0  0
   48.2734   12.1046   18.8002 O   0  0  0  0  0  0  0  0  0  0  0  0
   48.2709   12.0971   18.8049 O   0  0  0  0  0  0  0  0  0  0  0  0
   50.1408   10.6823   20.1784 H   0  0  0  0  0  0  0  0  0  0  0  0
   45.8710   10.9034   19.5152 H   0  0  0  0  0  0  0  0  0  0  0  0
   47.5413   13.6833   16.8788 H   0  0  0  0  0  0  0  0  0  0  0  0
   45.5070    9.3504   21.4114 H   0  0  0  0  0  0  0  0  0  0  0  0
   48.3740   13.6821   19.7030 H   0  0  0  0  0  0  0  0  0  0  0  0
   46.7745   13.2889   19.1069 H   0  0  0  0  0  0  0  0  0  0  0  0
   49.3341   11.8139   18.2618 H   0  0  0  0  0  0  0  0  0  0  0  0
   49.6549    9.1065   23.1651 H   0  0  0  0  0  0  0  0  0  0  0  0
   48.1286    7.6078   22.7777 H   0  0  0  0  0  0  0  0  0  0  0  0
   47.5910   10.3866   17.4073 H   0  0  0  0  0  0  0  0  0  0  0  0
   49.9787   13.7223   17.3286 H   0  0  0  0  0  0  0  0  0  0  0  0
   50.8455   15.9764   18.0095 H   0  0  0  0  0  0  0  0  0  0  0  0
   49.9659   15.2077   19.3308 H   0  0  0  0  0  0  0  0  0  0  0  0
   49.1978   16.5031   18.3930 H   0  0  0  0  0  0  0  0  0  0  0  0
   48.9698   14.4460   15.1912 H   0  0  0  0  0  0  0  0  0  0  0  0
   48.6727   16.0650   15.8553 H   0  0  0  0  0  0  0  0  0  0  0  0
   50.3305   15.4844   15.6342 H   0  0  0  0  0  0  0  0  0  0  0  0
   49.4638   13.8623   19.2276 H   0  0  0  0  0  0  0  0  0  0  0  0
   48.2041   10.7348   20.3174 H   0  0  0  0  0  0  0  0  0  0  0  0
   50.7057   13.9661   18.9516 H   0  0  0  0  0  0  0  0  0  0  0  0
   46.4447   13.3158   18.5879 H   0  0  0  0  0  0  0  0  0  0  0  0
   49.4116   10.9241   19.1826 H   0  0  0  0  0  0  0  0  0  0  0  0
   46.5614   13.8584   16.1951 H   0  0  0  0  0  0  0  0  0  0  0  0
   49.2730   11.9240   21.9566 H   0  0  0  0  0  0  0  0  0  0  0  0
   50.4247   12.3559   20.7502 H   0  0  0  0  0  0  0  0  0  0  0  0
   47.4342   13.0185   20.6879 H   0  0  0  0  0  0  0  0  0  0  0  0
   50.8423   14.7117   15.5036 H   0  0  0  0  0  0  0  0  0  0  0  0
   47.9489   14.4354   14.4794 H   0  0  0  0  0  0  0  0  0  0  0  0
   48.8343   15.1755   20.6063 H   0  0  0  0  0  0  0  0  0  0  0  0
   47.1037   10.8548   19.9049 H   0  0  0  0  0  0  0  0  0  0  0  0
   48.5899    8.1808   19.7704 H   0  0  0  0  0  0  0  0  0  0  0  0
   48.0453    9.1448   18.3839 H   0  0  0  0  0  0  0  0  0  0  0  0
   46.8609    8.4298   19.4846 H   0  0  0  0  0  0  0  0  0  0  0  0
   47.4041   10.7155   22.3647 H   0  0  0  0  0  0  0  0  0  0  0  0
   46.5693    9.2734   21.7901 H   0  0  0  0  0  0  0  0  0  0  0  0
   48.2891    9.1888   22.2009 H   0  0  0  0  0  0  0  0  0  0  0  0
   48.7185   12.9582   18.9115 H   0  0  0  0  0  0  0  0  0  0  0  0
   48.2974   11.7098   19.6848 H   0  0  0  0  0  0  0  0  0  0  0  0
   48.3056   11.7205   19.6971 H   0  0  0  0  0  0  0  0  0  0  0  0
   48.7128   12.9550   18.8945 H   0  0  0  0  0  0  0  0  0  0  0  0
  2  1  2  0
  3  1  1  0
  4  2  1  0
  5  3  2  0
  6  8  1  0
  7  5  1  0
  8  9  1  0
  9  3  1  0
 10  2  1  0
 11  4  1  0
 12  9  1  0
 13  6  1  0
 14 13  1  0
 15 13  1  0
  7  4  2  0
 17 16  2  0
 18 16  2  0
 19 16  1  0
 20 16  1  0
 22 21  2  0
 23 21  1  0
 24 22  1  0
 25 23  2  0
 26 28  1  0
 27 25  1  0
 28 29  1  0
 29 23  1  0
 30 22  1  0
 31 24  1  0
 32 29  1  0
 33 26  1  0
 34 33  1  0
 35 33  1  0
 27 24  2  0
  1 38  1  0
  5 39  1  0
  6 40  1  0
  7 41  1  0
  8 42  1  0
  8 43  1  0
  9 44  1  1
 10 45  1  0
 11 46  1  0
 12 47  1  0
 13 48  1  0
 14 49  1  0
 14 50  1  0
 14 51  1  0
 15 52  1  0
 15 53  1  0
 15 54  1  0
 19 55  1  0
 20 56  1  0
 21 57  1  0
 25 58  1  0
 26 59  1  0
 27 60  1  0
 28 61  1  0
 28 62  1  0
 29 63  1  6
 30 64  1  0
 31 65  1  0
 32 66  1  0
 33 67  1  0
 34 68  1  0
 34 69  1  0
 34 70  1  0
 35 71  1  0
 35 72  1  0
 35 73  1  0
 36 74  1  0
 36 75  1  0
 37 76  1  0
 37 77  1  0
M  END
> <Uni-Dock RESULT> 
ENERGY=   -4.052  LOWER_BOUND=    7.623  UPPER_BOUND=    9.765
INTER + INTRA:          -4.052
INTER:                  -4.052
INTRA:                   0.000
UNBOUND:                 0.000

$$$$

     RDKit          3D

 77 74  0  0  0  0  0  0  0  0999 V2000
   51.5684    5.2097   19.5054 C   0  0  0  0  0  0  0  0  0  0  0  0
   52.3058    4.0659   19.2275 C   0  0  0  0  0  0  0  0  0  0  0  0
   50.4440    5.5203   18.7247 C   0  0  0  0  0  0  0  0  0  0  0  0
   51.9626    3.2406   18.1616 C   0  0  0  0  0  0  0  0  0  0  0  0
   50.0854    4.6557   17.6728 C   0  0  0  0  0  0  0  0  0  0  0  0
   47.3839    7.6219   19.8229 N   0  0  0  0  0  0  0  0  0  0  0  0
   50.8439    3.5164   17.3923 C   0  0  0  0  0  0  0  0  0  0  0  0
   48.2464    6.4370   19.6373 C   0  0  0  0  0  0  0  0  0  0  0  0
   49.6315    6.7637   19.0238 C   0  0  2  0  0  0  0  0  0  0  0  0
   53.3567    3.7470   20.0375 O   0  0  0  0  0  0  0  0  0  0  0  0
   52.7391    2.1659   17.8393 O   0  0  0  0  0  0  0  0  0  0  0  0
   49.4526    7.5264   17.8223 O   0  0  0  0  0  0  0  0  0  0  0  0
   47.7711    8.4767   20.9515 C   0  0  0  0  0  0  0  0  0  0  0  0
   47.3755    7.8502   22.2906 C   0  0  0  0  0  0  0  0  0  0  0  0
   47.0751    9.8308   20.7933 C   0  0  0  0  0  0  0  0  0  0  0  0
   49.3799    6.5695   19.2979 S   0  0  0  0  0  0  0  0  0  0  0  0
   48.7504    6.8460   18.0303 O   0  0  0  0  0  0  0  0  0  0  0  0
   50.5110    7.3189   19.7904 O   0  0  0  0  0  0  0  0  0  0  0  0
   48.2701    6.5986   20.4582 O   0  0  0  0  0  0  0  0  0  0  0  0
   49.8407    5.0300   19.3029 O   0  0  0  0  0  0  0  0  0  0  0  0
   48.7332    7.6539   21.2908 C   0  0  0  0  0  0  0  0  0  0  0  0
   48.3040    8.9476   21.0286 C   0  0  0  0  0  0  0  0  0  0  0  0
   48.4274    6.6224   20.3895 C   0  0  0  0  0  0  0  0  0  0  0  0
   47.5699    9.2406   19.8836 C   0  0  0  0  0  0  0  0  0  0  0  0
   47.6748    6.9275   19.2400 C   0  0  0  0  0  0  0  0  0  0  0  0
   51.2557    5.5047   19.6921 N   0  0  0  0  0  0  0  0  0  0  0  0
   47.2475    8.2350   18.9832 C   0  0  0  0  0  0  0  0  0  0  0  0
   50.4111    5.0271   20.7992 C   0  0  0  0  0  0  0  0  0  0  0  0
   48.8753    5.1955   20.6503 C   0  0  1  0  0  0  0  0  0  0  0  0
   48.6126    9.9408   21.9119 O   0  0  0  0  0  0  0  0  0  0  0  0
   47.1869   10.5388   19.6884 O   0  0  0  0  0  0  0  0  0  0  0  0
   48.2353    4.7023   21.8323 O   0  0  0  0  0  0  0  0  0  0  0  0
   51.0349    4.8401   18.4039 C   0  0  0  0  0  0  0  0  0  0  0  0
   51.9254    5.5253   17.3619 C   0  0  0  0  0  0  0  0  0  0  0  0
   51.3544    3.3445   18.4483 C   0  0  0  0  0  0  0  0  0  0  0  0
   49.4534    6.5336   19.2755 O   0  0  0  0  0  0  0  0  0  0  0  0
   49.4589    6.5277   19.2710 O   0  0  0  0  0  0  0  0  0  0  0  0
   51.8629    5.8442   20.3381 H   0  0  0  0  0  0  0  0  0  0  0  0
   49.2137    4.8760   17.0573 H   0  0  0  0  0  0  0  0  0  0  0  0
   47.4625    8.1624   18.9550 H   0  0  0  0  0  0  0  0  0  0  0  0
   50.5722    2.8621   16.5689 H   0  0  0  0  0  0  0  0  0  0  0  0
   48.3566    5.8654   20.5656 H   0  0  0  0  0  0  0  0  0  0  0  0
   47.7004    5.7852   18.9433 H   0  0  0  0  0  0  0  0  0  0  0  0
   50.1970    7.4044   19.7093 H   0  0  0  0  0  0  0  0  0  0  0  0
   53.3390    2.7755   20.1294 H   0  0  0  0  0  0  0  0  0  0  0  0
   53.6600    2.4401   18.0056 H   0  0  0  0  0  0  0  0  0  0  0  0
   50.2680    7.4251   17.3010 H   0  0  0  0  0  0  0  0  0  0  0  0
   48.8505    8.6628   20.9468 H   0  0  0  0  0  0  0  0  0  0  0  0
   47.5908    8.5415   23.1135 H   0  0  0  0  0  0  0  0  0  0  0  0
   47.9340    6.9291   22.4864 H   0  0  0  0  0  0  0  0  0  0  0  0
   46.3051    7.6130   22.3234 H   0  0  0  0  0  0  0  0  0  0  0  0
   47.3726   10.3181   19.8580 H   0  0  0  0  0  0  0  0  0  0  0  0
   45.9847    9.7249   20.7921 H   0  0  0  0  0  0  0  0  0  0  0  0
   47.3450   10.5027   21.6161 H   0  0  0  0  0  0  0  0  0  0  0  0
   48.7406    6.7272   21.3112 H   0  0  0  0  0  0  0  0  0  0  0  0
   50.7676    4.9949   18.9773 H   0  0  0  0  0  0  0  0  0  0  0  0
   49.3021    7.4557   22.1963 H   0  0  0  0  0  0  0  0  0  0  0  0
   47.4164    6.1433   18.5311 H   0  0  0  0  0  0  0  0  0  0  0  0
   51.1087    6.5106   19.5839 H   0  0  0  0  0  0  0  0  0  0  0  0
   46.6715    8.4413   18.0860 H   0  0  0  0  0  0  0  0  0  0  0  0
   50.6376    3.9776   21.0247 H   0  0  0  0  0  0  0  0  0  0  0  0
   50.7384    5.5583   21.7029 H   0  0  0  0  0  0  0  0  0  0  0  0
   48.5290    4.5499   19.8353 H   0  0  0  0  0  0  0  0  0  0  0  0
   48.2409   10.7522   21.5108 H   0  0  0  0  0  0  0  0  0  0  0  0
   46.7066   10.5924   18.8430 H   0  0  0  0  0  0  0  0  0  0  0  0
   47.5280    5.3247   22.0752 H   0  0  0  0  0  0  0  0  0  0  0  0
   49.9964    4.9737   18.0828 H   0  0  0  0  0  0  0  0  0  0  0  0
   52.9874    5.4372   17.6180 H   0  0  0  0  0  0  0  0  0  0  0  0
   51.6850    6.5923   17.2749 H   0  0  0  0  0  0  0  0  0  0  0  0
   51.7815    5.0740   16.3742 H   0  0  0  0  0  0  0  0  0  0  0  0
   50.6527    2.8027   19.0910 H   0  0  0  0  0  0  0  0  0  0  0  0
   51.2819    2.9038   17.4477 H   0  0  0  0  0  0  0  0  0  0  0  0
   52.3672    3.1614   18.8222 H   0  0  0  0  0  0  0  0  0  0  0  0
   49.0189    6.6668   20.1314 H   0  0  0  0  0  0  0  0  0  0  0  0
   49.9249    5.6934   19.3795 H   0  0  0  0  0  0  0  0  0  0  0  0
   49.9227    5.6859   19.3960 H   0  0  0  0  0  0  0  0  0  0  0  0
   49.0157    6.6801   20.1194 H   0  0  0  0  0  0  0  0  0  0  0  0
  2  1  2  0
  3  1  1  0
  4  2  1  0
  5  3  2  0
  6  8  1  0
  7  5  1  0
  8  9  1  0
  9  3  1  0
 10  2  1  0
 11  4  1  0
 12  9  1  0
 13  6  1  0
 14 13  1  0
 15 13  1  0
  7  4  2  0
 17 16  2  0
 18 16  2  0
 19 16  1  0
 20 16  1  0
 22 21  2  0
 23 21  1  0
 24 22  1  0
 25 23  2  0
 26 28  1  0
 27 25  1  0
 28 29  1  0
 29 23  1  0
 30 22  1  0
 31 24  1  0
 32 29  1  0
 33 26  1  0
 34 33  1  0
 35 33  1  0
 27 24  2  0
  1 38  1  0
  5 39  1  0
  6 40  1  0
  7 41  1  0
  8 42  1  0
  8 43  1  0
  9 44  1  1
 10 45  1  0
 11 46  1  0
 12 47  1  0
 13 48  1  0
 14 49  1  0
 14 50  1  0
 14 51  1  0
 15 52  1  0
 15 53  1  0
 15 54  1  0
 19 55  1  0
 20 56  1  0
 21 57  1  0
 25 58  1  0
 26 59  1  0
 27 60  1  0
 28 61  1  0
 28 62  1  0
 29 63  1  6
 30 64  1  0
 31 65  1  0
 32 66  1  0
 33 67  1  0
 34 68  1  0
 34 69  1  0
 34 70  1  0
 35 71  1  0
 35 72  1  0
 35 73  1  0
 36 74  1  0
 36 75  1  0
 37 76  1  0
 37 77  1  0
M  END
> <Uni-Dock RESULT> 
ENERGY=   -3.981  LOWER_BOUND=    6.889  UPPER_BOUND=    8.897
INTER + INTRA:          -3.981
INTER:                  -3.981
INTRA:                   0.000
UNBOUND:                 0.000

$$$$
