
     RDKit          3D

 77 74  0  0  0  0  0  0  0  0999 V2000
   46.0276    5.0163   12.6578 C   0  0  0  0  0  0  0  0  0  0  0  0
   44.9077    4.8372   11.8569 C   0  0  0  0  0  0  0  0  0  0  0  0
   46.4467    6.3142   12.9943 C   0  0  0  0  0  0  0  0  0  0  0  0
   44.2012    5.9294   11.3617 C   0  0  0  0  0  0  0  0  0  0  0  0
   45.7273    7.4112   12.4808 C   0  0  0  0  0  0  0  0  0  0  0  0
   49.0068    8.3093   12.6511 N   0  0  0  0  0  0  0  0  0  0  0  0
   44.6058    7.2225   11.6652 C   0  0  0  0  0  0  0  0  0  0  0  0
   48.9378    6.8862   13.0326 C   0  0  0  0  0  0  0  0  0  0  0  0
   47.6686    6.5582   13.8613 C   0  0  2  0  0  0  0  0  0  0  0  0
   44.5017    3.5685   11.5526 O   0  0  0  0  0  0  0  0  0  0  0  0
   43.1132    5.6787   10.5712 O   0  0  0  0  0  0  0  0  0  0  0  0
   47.9359    5.4316   14.7044 O   0  0  0  0  0  0  0  0  0  0  0  0
   50.0198    8.5852   11.6247 C   0  0  0  0  0  0  0  0  0  0  0  0
   49.8921   10.0586   11.2347 C   0  0  0  0  0  0  0  0  0  0  0  0
   51.4461    8.2933   12.0923 C   0  0  0  0  0  0  0  0  0  0  0  0
   47.8690    7.5051   12.0168 S   0  0  0  0  0  0  0  0  0  0  0  0
   47.8331    8.8892   12.4130 O   0  0  0  0  0  0  0  0  0  0  0  0
   48.6062    7.0108   10.8826 O   0  0  0  0  0  0  0  0  0  0  0  0
   46.3441    7.0269   11.8701 O   0  0  0  0  0  0  0  0  0  0  0  0
   48.3426    6.6321   13.2783 O   0  0  0  0  0  0  0  0  0  0  0  0
   45.5732    5.3606   13.3691 C   0  0  0  0  0  0  0  0  0  0  0  0
   44.8009    4.5590   12.5330 C   0  0  0  0  0  0  0  0  0  0  0  0
   46.3654    6.3883   12.8232 C   0  0  0  0  0  0  0  0  0  0  0  0
   44.7953    4.7735   11.1587 C   0  0  0  0  0  0  0  0  0  0  0  0
   46.3315    6.5976   11.4326 C   0  0  0  0  0  0  0  0  0  0  0  0
   48.7071    8.6417   12.2773 N   0  0  0  0  0  0  0  0  0  0  0  0
   45.5508    5.7893   10.6006 C   0  0  0  0  0  0  0  0  0  0  0  0
   48.6416    7.5759   13.2925 C   0  0  0  0  0  0  0  0  0  0  0  0
   47.1873    7.2687   13.7510 C   0  0  1  0  0  0  0  0  0  0  0  0
   44.0272    3.5418   13.0195 O   0  0  0  0  0  0  0  0  0  0  0  0
   44.0376    3.9786   10.3481 O   0  0  0  0  0  0  0  0  0  0  0  0
   46.4937    8.5003   14.0074 O   0  0  0  0  0  0  0  0  0  0  0  0
   50.0536    9.0696   11.8848 C   0  0  0  0  0  0  0  0  0  0  0  0
   50.8105    9.7812   13.0095 C   0  0  0  0  0  0  0  0  0  0  0  0
   50.8876    7.9318   11.2908 C   0  0  0  0  0  0  0  0  0  0  0  0
   47.7008    6.9384   12.5838 O   0  0  0  0  0  0  0  0  0  0  0  0
   47.7125    6.9448   12.5879 O   0  0  0  0  0  0  0  0  0  0  0  0
   46.5689    4.1413   13.0108 H   0  0  0  0  0  0  0  0  0  0  0  0
   46.0560    8.4255   12.7042 H   0  0  0  0  0  0  0  0  0  0  0  0
   49.2003    8.8626   13.4891 H   0  0  0  0  0  0  0  0  0  0  0  0
   44.0735    8.0864   11.2816 H   0  0  0  0  0  0  0  0  0  0  0  0
   48.9671    6.2455   12.1426 H   0  0  0  0  0  0  0  0  0  0  0  0
   49.8204    6.6343   13.6332 H   0  0  0  0  0  0  0  0  0  0  0  0
   47.4543    7.3844   14.5522 H   0  0  0  0  0  0  0  0  0  0  0  0
   43.7051    3.6946   10.9967 H   0  0  0  0  0  0  0  0  0  0  0  0
   42.7595    6.5342   10.2696 H   0  0  0  0  0  0  0  0  0  0  0  0
   47.0900    5.2025   15.1313 H   0  0  0  0  0  0  0  0  0  0  0  0
   49.7996    7.9844   10.7361 H   0  0  0  0  0  0  0  0  0  0  0  0
   48.8811   10.2912   10.8850 H   0  0  0  0  0  0  0  0  0  0  0  0
   50.1183   10.7209   12.0788 H   0  0  0  0  0  0  0  0  0  0  0  0
   50.5863   10.3033   10.4214 H   0  0  0  0  0  0  0  0  0  0  0  0
   51.6013    7.2241   12.2719 H   0  0  0  0  0  0  0  0  0  0  0  0
   52.1698    8.5993   11.3302 H   0  0  0  0  0  0  0  0  0  0  0  0
   51.6837    8.8330   13.0174 H   0  0  0  0  0  0  0  0  0  0  0  0
   45.8189    7.4724   12.5693 H   0  0  0  0  0  0  0  0  0  0  0  0
   48.6402    5.7644   12.9337 H   0  0  0  0  0  0  0  0  0  0  0  0
   45.5700    5.1938   14.4423 H   0  0  0  0  0  0  0  0  0  0  0  0
   46.9119    7.3965   10.9747 H   0  0  0  0  0  0  0  0  0  0  0  0
   48.1783    9.4413   12.6422 H   0  0  0  0  0  0  0  0  0  0  0  0
   45.5368    5.9582    9.5275 H   0  0  0  0  0  0  0  0  0  0  0  0
   49.1887    7.9096   14.1809 H   0  0  0  0  0  0  0  0  0  0  0  0
   49.1082    6.6538   12.9306 H   0  0  0  0  0  0  0  0  0  0  0  0
   47.2709    6.7580   14.7188 H   0  0  0  0  0  0  0  0  0  0  0  0
   44.1088    3.5325   13.9888 H   0  0  0  0  0  0  0  0  0  0  0  0
   43.6357    3.3264   10.9528 H   0  0  0  0  0  0  0  0  0  0  0  0
   45.6511    8.4633   13.5238 H   0  0  0  0  0  0  0  0  0  0  0  0
   49.9079    9.8063   11.0854 H   0  0  0  0  0  0  0  0  0  0  0  0
   51.0781    9.0987   13.8240 H   0  0  0  0  0  0  0  0  0  0  0  0
   51.7414   10.2142   12.6273 H   0  0  0  0  0  0  0  0  0  0  0  0
   50.2136   10.5984   13.4301 H   0  0  0  0  0  0  0  0  0  0  0  0
   51.7899    8.3346   10.8186 H   0  0  0  0  0  0  0  0  0  0  0  0
   50.3266    7.3961   10.5181 H   0  0  0  0  0  0  0  0  0  0  0  0
   51.2040    7.2109   12.0510 H   0  0  0  0  0  0  0  0  0  0  0  0
   48.2379    7.6970   12.3113 H   0  0  0  0  0  0  0  0  0  0  0  0
   46.9703    6.9222   11.9465 H   0  0  0  0  0  0  0  0  0  0  0  0
   46.9705    6.9028   11.9659 H   0  0  0  0  0  0  0  0  0  0  0  0
   48.2259    7.7099   12.2878 H   0  0  0  0  0  0  0  0  0  0  0  0
  2  1  2  0
  3  1  1  0
  4  2  1  0
  5  3  2  0
  6  8  1  0
  7  5  1  0
  8  9  1  0
  9  3  1  0
 10  2  1  0
 11  4  1  0
 12  9  1  0
 13  6  1  0
 14 13  1  0
 15 13  1  0
  7  4  2  0
 17 16  2  0
 18 16  2  0
 19 16  1  0
 20 16  1  0
 22 21  2  0
 23 21  1  0
 24 22  1  0
 25 23  2  0
 26 28  1  0
 27 25  1  0
 28 29  1  0
 29 23  1  0
 30 22  1  0
 31 24  1  0
 32 29  1  0
 33 26  1  0
 34 33  1  0
 35 33  1  0
 27 24  2  0
  1 38  1  0
  5 39  1  0
  6 40  1  0
  7 41  1  0
  8 42  1  0
  8 43  1  0
  9 44  1  1
 10 45  1  0
 11 46  1  0
 12 47  1  0
 13 48  1  0
 14 49  1  0
 14 50  1  0
 14 51  1  0
 15 52  1  0
 15 53  1  0
 15 54  1  0
 19 55  1  0
 20 56  1  0
 21 57  1  0
 25 58  1  0
 26 59  1  0
 27 60  1  0
 28 61  1  0
 28 62  1  0
 29 63  1  1
 30 64  1  0
 31 65  1  0
 32 66  1  0
 33 67  1  0
 34 68  1  0
 34 69  1  0
 34 70  1  0
 35 71  1  0
 35 72  1  0
 35 73  1  0
 36 74  1  0
 36 75  1  0
 37 76  1  0
 37 77  1  0
M  END
> <Uni-Dock RESULT> 
ENERGY=   -5.534  LOWER_BOUND=    0.000  UPPER_BOUND=    0.000
INTER + INTRA:          -5.534
INTER:                  -5.534
INTRA:                   0.000
UNBOUND:                 0.000

$$$$

     RDKit          3D

 77 74  0  0  0  0  0  0  0  0999 V2000
   48.6261    9.6037   11.7384 C   0  0  0  0  0  0  0  0  0  0  0  0
   50.0047    9.4403   11.7494 C   0  0  0  0  0  0  0  0  0  0  0  0
   47.8282    8.8760   12.6369 C   0  0  0  0  0  0  0  0  0  0  0  0
   50.6116    8.5466   12.6270 C   0  0  0  0  0  0  0  0  0  0  0  0
   48.4540    7.9694   13.5151 C   0  0  0  0  0  0  0  0  0  0  0  0
   45.4268    6.6658   12.6620 N   0  0  0  0  0  0  0  0  0  0  0  0
   49.8434    7.8024   13.5125 C   0  0  0  0  0  0  0  0  0  0  0  0
   45.5981    7.8944   11.8641 C   0  0  0  0  0  0  0  0  0  0  0  0
   46.3170    9.0172   12.6564 C   0  0  2  0  0  0  0  0  0  0  0  0
   50.7693   10.1682   10.8816 O   0  0  0  0  0  0  0  0  0  0  0  0
   51.9736    8.4299   12.5763 O   0  0  0  0  0  0  0  0  0  0  0  0
   45.9114   10.2903   12.1403 O   0  0  0  0  0  0  0  0  0  0  0  0
   45.0331    5.5027   11.8570 C   0  0  0  0  0  0  0  0  0  0  0  0
   45.0202    4.2846   12.7816 C   0  0  0  0  0  0  0  0  0  0  0  0
   43.6653    5.6652   11.1927 C   0  0  0  0  0  0  0  0  0  0  0  0
   46.8709    7.0383   12.3160 S   0  0  0  0  0  0  0  0  0  0  0  0
   46.4061    6.4107   13.5260 O   0  0  0  0  0  0  0  0  0  0  0  0
   46.9271    6.3788   11.0369 O   0  0  0  0  0  0  0  0  0  0  0  0
   48.3252    7.6370   12.6353 O   0  0  0  0  0  0  0  0  0  0  0  0
   46.0284    8.3865   12.0920 O   0  0  0  0  0  0  0  0  0  0  0  0
   48.5768    9.9926   12.5614 C   0  0  0  0  0  0  0  0  0  0  0  0
   49.8150   10.1286   11.9397 C   0  0  0  0  0  0  0  0  0  0  0  0
   47.9663    8.7268   12.6437 C   0  0  0  0  0  0  0  0  0  0  0  0
   50.4627    9.0182   11.4081 C   0  0  0  0  0  0  0  0  0  0  0  0
   48.6470    7.6156   12.1139 C   0  0  0  0  0  0  0  0  0  0  0  0
   45.7944    6.2578   12.8582 N   0  0  0  0  0  0  0  0  0  0  0  0
   49.8916    7.7610   11.4935 C   0  0  0  0  0  0  0  0  0  0  0  0
   45.5685    7.6962   12.6328 C   0  0  0  0  0  0  0  0  0  0  0  0
   46.6237    8.5908   13.3440 C   0  0  1  0  0  0  0  0  0  0  0  0
   50.4375   11.3408   11.8263 O   0  0  0  0  0  0  0  0  0  0  0  0
   51.6744    9.1642   10.7970 O   0  0  0  0  0  0  0  0  0  0  0  0
   46.8130    8.1318   14.6920 O   0  0  0  0  0  0  0  0  0  0  0  0
   44.7707    5.3570   12.3188 C   0  0  0  0  0  0  0  0  0  0  0  0
   43.4199    5.4882   13.0279 C   0  0  0  0  0  0  0  0  0  0  0  0
   44.6127    5.4802   10.8013 C   0  0  0  0  0  0  0  0  0  0  0  0
   46.8489    7.8561   12.2741 O   0  0  0  0  0  0  0  0  0  0  0  0
   46.8357    7.8517   12.2751 O   0  0  0  0  0  0  0  0  0  0  0  0
   48.1826   10.2951   11.0253 H   0  0  0  0  0  0  0  0  0  0  0  0
   47.8493    7.3725   14.1968 H   0  0  0  0  0  0  0  0  0  0  0  0
   44.7262    6.8419   13.3858 H   0  0  0  0  0  0  0  0  0  0  0  0
   50.2971    7.0945   14.1980 H   0  0  0  0  0  0  0  0  0  0  0  0
   46.1568    7.6831   10.9440 H   0  0  0  0  0  0  0  0  0  0  0  0
   44.6109    8.2618   11.5578 H   0  0  0  0  0  0  0  0  0  0  0  0
   45.9734    9.0120   13.6994 H   0  0  0  0  0  0  0  0  0  0  0  0
   51.6888    9.8939   11.0784 H   0  0  0  0  0  0  0  0  0  0  0  0
   52.2383    7.7402   13.2106 H   0  0  0  0  0  0  0  0  0  0  0  0
   46.4556   10.9571   12.5981 H   0  0  0  0  0  0  0  0  0  0  0  0
   45.7917    5.3291   11.0866 H   0  0  0  0  0  0  0  0  0  0  0  0
   45.9933    4.1395   13.2618 H   0  0  0  0  0  0  0  0  0  0  0  0
   44.2656    4.3845   13.5710 H   0  0  0  0  0  0  0  0  0  0  0  0
   44.7935    3.3731   12.2150 H   0  0  0  0  0  0  0  0  0  0  0  0
   43.6740    6.4605   10.4398 H   0  0  0  0  0  0  0  0  0  0  0  0
   43.3750    4.7420   10.6814 H   0  0  0  0  0  0  0  0  0  0  0  0
   42.8868    5.9006   11.9291 H   0  0  0  0  0  0  0  0  0  0  0  0
   48.3198    7.9681   13.5591 H   0  0  0  0  0  0  0  0  0  0  0  0
   46.1372    8.6425   11.1525 H   0  0  0  0  0  0  0  0  0  0  0  0
   48.0772   10.8610   12.9806 H   0  0  0  0  0  0  0  0  0  0  0  0
   48.2189    6.6169   12.1782 H   0  0  0  0  0  0  0  0  0  0  0  0
   45.8836    6.1197   13.8707 H   0  0  0  0  0  0  0  0  0  0  0  0
   50.4051    6.8956   11.0842 H   0  0  0  0  0  0  0  0  0  0  0  0
   44.5931    7.9638   13.0533 H   0  0  0  0  0  0  0  0  0  0  0  0
   45.5561    7.9332   11.5638 H   0  0  0  0  0  0  0  0  0  0  0  0
   46.1778    9.5906   13.4214 H   0  0  0  0  0  0  0  0  0  0  0  0
   49.8852   12.0103   12.2657 H   0  0  0  0  0  0  0  0  0  0  0  0
   51.8479   10.1242   10.8255 H   0  0  0  0  0  0  0  0  0  0  0  0
   47.7699    8.0281   14.8300 H   0  0  0  0  0  0  0  0  0  0  0  0
   45.1358    4.3422   12.5180 H   0  0  0  0  0  0  0  0  0  0  0  0
   42.9334    6.4470   12.8163 H   0  0  0  0  0  0  0  0  0  0  0  0
   42.7384    4.6964   12.6980 H   0  0  0  0  0  0  0  0  0  0  0  0
   43.5346    5.3949   14.1137 H   0  0  0  0  0  0  0  0  0  0  0  0
   44.0067    4.6522   10.4186 H   0  0  0  0  0  0  0  0  0  0  0  0
   45.5850    5.4315   10.3004 H   0  0  0  0  0  0  0  0  0  0  0  0
   44.1206    6.4138   10.5115 H   0  0  0  0  0  0  0  0  0  0  0  0
   46.3729    7.0258   12.4232 H   0  0  0  0  0  0  0  0  0  0  0  0
   47.7843    7.6018   12.2960 H   0  0  0  0  0  0  0  0  0  0  0  0
   47.7785    7.6283   12.2917 H   0  0  0  0  0  0  0  0  0  0  0  0
   46.3920    7.0037   12.4265 H   0  0  0  0  0  0  0  0  0  0  0  0
  2  1  2  0
  3  1  1  0
  4  2  1  0
  5  3  2  0
  6  8  1  0
  7  5  1  0
  8  9  1  0
  9  3  1  0
 10  2  1  0
 11  4  1  0
 12  9  1  0
 13  6  1  0
 14 13  1  0
 15 13  1  0
  7  4  2  0
 17 16  2  0
 18 16  2  0
 19 16  1  0
 20 16  1  0
 22 21  2  0
 23 21  1  0
 24 22  1  0
 25 23  2  0
 26 28  1  0
 27 25  1  0
 28 29  1  0
 29 23  1  0
 30 22  1  0
 31 24  1  0
 32 29  1  0
 33 26  1  0
 34 33  1  0
 35 33  1  0
 27 24  2  0
  1 38  1  0
  5 39  1  0
  6 40  1  0
  7 41  1  0
  8 42  1  0
  8 43  1  0
  9 44  1  1
 10 45  1  0
 11 46  1  0
 12 47  1  0
 13 48  1  0
 14 49  1  0
 14 50  1  0
 14 51  1  0
 15 52  1  0
 15 53  1  0
 15 54  1  0
 19 55  1  0
 20 56  1  0
 21 57  1  0
 25 58  1  0
 26 59  1  0
 27 60  1  0
 28 61  1  0
 28 62  1  0
 29 63  1  1
 30 64  1  0
 31 65  1  0
 32 66  1  0
 33 67  1  0
 34 68  1  0
 34 69  1  0
 34 70  1  0
 35 71  1  0
 35 72  1  0
 35 73  1  0
 36 74  1  0
 36 75  1  0
 37 76  1  0
 37 77  1  0
M  END
> <Uni-Dock RESULT> 
ENERGY=   -5.055  LOWER_BOUND=    1.875  UPPER_BOUND=    5.616
INTER + INTRA:          -5.055
INTER:                  -5.055
INTRA:                   0.000
UNBOUND:                 0.000

$$$$

     RDKit          3D

 77 74  0  0  0  0  0  0  0  0999 V2000
   50.5510    5.1795   16.9416 C   0  0  0  0  0  0  0  0  0  0  0  0
   49.9765    4.2583   17.8071 C   0  0  0  0  0  0  0  0  0  0  0  0
   49.9261    6.4186   16.7234 C   0  0  0  0  0  0  0  0  0  0  0  0
   48.7735    4.5353   18.4500 C   0  0  0  0  0  0  0  0  0  0  0  0
   48.7053    6.6838   17.3745 C   0  0  0  0  0  0  0  0  0  0  0  0
   48.6026    8.1909   14.3235 N   0  0  0  0  0  0  0  0  0  0  0  0
   48.1270    5.7456   18.2371 C   0  0  0  0  0  0  0  0  0  0  0  0
   49.8618    7.4246   14.3744 C   0  0  0  0  0  0  0  0  0  0  0  0
   50.5139    7.4534   15.7812 C   0  0  2  0  0  0  0  0  0  0  0  0
   50.6052    3.0644   18.0231 O   0  0  0  0  0  0  0  0  0  0  0  0
   48.2607    3.5779   19.2816 O   0  0  0  0  0  0  0  0  0  0  0  0
   51.9296    7.2831   15.6466 O   0  0  0  0  0  0  0  0  0  0  0  0
   47.8168    7.9337   13.1102 C   0  0  0  0  0  0  0  0  0  0  0  0
   46.4918    8.6845   13.2508 C   0  0  0  0  0  0  0  0  0  0  0  0
   48.5276    8.3702   11.8285 C   0  0  0  0  0  0  0  0  0  0  0  0
   48.5821    6.9352   15.1991 S   0  0  0  0  0  0  0  0  0  0  0  0
   47.8815    8.1699   15.4415 O   0  0  0  0  0  0  0  0  0  0  0  0
   48.2282    5.9980   14.1644 O   0  0  0  0  0  0  0  0  0  0  0  0
   48.6253    6.1465   16.5960 O   0  0  0  0  0  0  0  0  0  0  0  0
   50.1381    7.2716   14.9904 O   0  0  0  0  0  0  0  0  0  0  0  0
   50.7499    5.7933   17.5856 C   0  0  0  0  0  0  0  0  0  0  0  0
   50.6320    4.4892   18.0580 C   0  0  0  0  0  0  0  0  0  0  0  0
   49.7440    6.3376   16.7647 C   0  0  0  0  0  0  0  0  0  0  0  0
   49.5187    3.7203   17.7352 C   0  0  0  0  0  0  0  0  0  0  0  0
   48.6195    5.5477   16.4648 C   0  0  0  0  0  0  0  0  0  0  0  0
   48.0698    8.1064   14.5449 N   0  0  0  0  0  0  0  0  0  0  0  0
   48.5081    4.2395   16.9458 C   0  0  0  0  0  0  0  0  0  0  0  0
   49.5216    8.0172   14.7794 C   0  0  0  0  0  0  0  0  0  0  0  0
   49.8768    7.7704   16.2736 C   0  0  1  0  0  0  0  0  0  0  0  0
   51.5912    3.9168   18.8469 O   0  0  0  0  0  0  0  0  0  0  0  0
   49.4158    2.4413   18.2007 O   0  0  0  0  0  0  0  0  0  0  0  0
   49.1034    8.6516   17.1035 O   0  0  0  0  0  0  0  0  0  0  0  0
   47.6624    8.4578   13.1807 C   0  0  0  0  0  0  0  0  0  0  0  0
   48.0436    9.8878   12.7885 C   0  0  0  0  0  0  0  0  0  0  0  0
   48.1511    7.4496   12.1378 C   0  0  0  0  0  0  0  0  0  0  0  0
   49.3565    6.8752   15.4593 O   0  0  0  0  0  0  0  0  0  0  0  0
   49.3563    6.8851   15.4495 O   0  0  0  0  0  0  0  0  0  0  0  0
   51.4810    4.9225   16.4394 H   0  0  0  0  0  0  0  0  0  0  0  0
   48.1894    7.6259   17.1929 H   0  0  0  0  0  0  0  0  0  0  0  0
   48.8241    9.1871   14.3905 H   0  0  0  0  0  0  0  0  0  0  0  0
   47.1845    5.9763   18.7220 H   0  0  0  0  0  0  0  0  0  0  0  0
   49.6932    6.3835   14.0726 H   0  0  0  0  0  0  0  0  0  0  0  0
   50.5696    7.8524   13.6538 H   0  0  0  0  0  0  0  0  0  0  0  0
   50.3895    8.4496   16.2260 H   0  0  0  0  0  0  0  0  0  0  0  0
   50.0279    2.5974   18.6620 H   0  0  0  0  0  0  0  0  0  0  0  0
   47.4038    3.8988   19.6142 H   0  0  0  0  0  0  0  0  0  0  0  0
   52.2838    7.2110   16.5521 H   0  0  0  0  0  0  0  0  0  0  0  0
   47.5900    6.8640   13.0525 H   0  0  0  0  0  0  0  0  0  0  0  0
   45.9571    8.3811   14.1567 H   0  0  0  0  0  0  0  0  0  0  0  0
   46.6449    9.7693   13.2963 H   0  0  0  0  0  0  0  0  0  0  0  0
   45.8372    8.4741   12.3962 H   0  0  0  0  0  0  0  0  0  0  0  0
   49.4246    7.7707   11.6401 H   0  0  0  0  0  0  0  0  0  0  0  0
   47.8695    8.2442   10.9629 H   0  0  0  0  0  0  0  0  0  0  0  0
   48.8251    9.4252   11.8737 H   0  0  0  0  0  0  0  0  0  0  0  0
   48.7355    6.8074   17.3132 H   0  0  0  0  0  0  0  0  0  0  0  0
   50.5444    6.4970   14.5488 H   0  0  0  0  0  0  0  0  0  0  0  0
   51.6178    6.3925   17.8449 H   0  0  0  0  0  0  0  0  0  0  0  0
   47.8096    5.9402   15.8525 H   0  0  0  0  0  0  0  0  0  0  0  0
   47.6968    8.7931   15.2093 H   0  0  0  0  0  0  0  0  0  0  0  0
   47.6365    3.6380   16.7033 H   0  0  0  0  0  0  0  0  0  0  0  0
   49.9770    8.9737   14.5007 H   0  0  0  0  0  0  0  0  0  0  0  0
   49.9752    7.2315   14.1661 H   0  0  0  0  0  0  0  0  0  0  0  0
   50.9237    8.0760   16.3958 H   0  0  0  0  0  0  0  0  0  0  0  0
   52.2862    4.5774   19.0108 H   0  0  0  0  0  0  0  0  0  0  0  0
   50.2474    2.2919   18.6891 H   0  0  0  0  0  0  0  0  0  0  0  0
   48.6856    8.1071   17.7922 H   0  0  0  0  0  0  0  0  0  0  0  0
   46.5666    8.4100   13.1784 H   0  0  0  0  0  0  0  0  0  0  0  0
   49.1270   10.0122   12.6813 H   0  0  0  0  0  0  0  0  0  0  0  0
   47.5879   10.1535   11.8284 H   0  0  0  0  0  0  0  0  0  0  0  0
   47.6886   10.6084   13.5339 H   0  0  0  0  0  0  0  0  0  0  0  0
   47.6501    7.6271   11.1804 H   0  0  0  0  0  0  0  0  0  0  0  0
   47.9170    6.4245   12.4432 H   0  0  0  0  0  0  0  0  0  0  0  0
   49.2297    7.5218   11.9669 H   0  0  0  0  0  0  0  0  0  0  0  0
   48.6994    7.3531   14.9321 H   0  0  0  0  0  0  0  0  0  0  0  0
   48.8306    6.2685   16.0028 H   0  0  0  0  0  0  0  0  0  0  0  0
   48.8578    6.2679   16.0060 H   0  0  0  0  0  0  0  0  0  0  0  0
   48.6724    7.3438   14.9388 H   0  0  0  0  0  0  0  0  0  0  0  0
  2  1  2  0
  3  1  1  0
  4  2  1  0
  5  3  2  0
  6  8  1  0
  7  5  1  0
  8  9  1  0
  9  3  1  0
 10  2  1  0
 11  4  1  0
 12  9  1  0
 13  6  1  0
 14 13  1  0
 15 13  1  0
  7  4  2  0
 17 16  2  0
 18 16  2  0
 19 16  1  0
 20 16  1  0
 22 21  2  0
 23 21  1  0
 24 22  1  0
 25 23  2  0
 26 28  1  0
 27 25  1  0
 28 29  1  0
 29 23  1  0
 30 22  1  0
 31 24  1  0
 32 29  1  0
 33 26  1  0
 34 33  1  0
 35 33  1  0
 27 24  2  0
  1 38  1  0
  5 39  1  0
  6 40  1  0
  7 41  1  0
  8 42  1  0
  8 43  1  0
  9 44  1  1
 10 45  1  0
 11 46  1  0
 12 47  1  0
 13 48  1  0
 14 49  1  0
 14 50  1  0
 14 51  1  0
 15 52  1  0
 15 53  1  0
 15 54  1  0
 19 55  1  0
 20 56  1  0
 21 57  1  0
 25 58  1  0
 26 59  1  0
 27 60  1  0
 28 61  1  0
 28 62  1  0
 29 63  1  1
 30 64  1  0
 31 65  1  0
 32 66  1  0
 33 67  1  0
 34 68  1  0
 34 69  1  0
 34 70  1  0
 35 71  1  0
 35 72  1  0
 35 73  1  0
 36 74  1  0
 36 75  1  0
 37 76  1  0
 37 77  1  0
M  END
> <Uni-Dock RESULT> 
ENERGY=   -4.658  LOWER_BOUND=    3.531  UPPER_BOUND=    5.628
INTER + INTRA:          -4.658
INTER:                  -4.658
INTRA:                   0.000
UNBOUND:                 0.000

$$$$

     RDKit          3D

 77 74  0  0  0  0  0  0  0  0999 V2000
   44.7469   11.1941   11.5788 C   0  0  0  0  0  0  0  0  0  0  0  0
   45.5976   12.2909   11.6087 C   0  0  0  0  0  0  0  0  0  0  0  0
   43.7063   11.1414   10.6366 C   0  0  0  0  0  0  0  0  0  0  0  0
   45.4228   13.3552   10.7290 C   0  0  0  0  0  0  0  0  0  0  0  0
   43.5357   12.2282    9.7565 C   0  0  0  0  0  0  0  0  0  0  0  0
   40.4503   10.9822   10.4769 N   0  0  0  0  0  0  0  0  0  0  0  0
   44.3908   13.3351    9.8002 C   0  0  0  0  0  0  0  0  0  0  0  0
   41.4123   10.2376   11.3109 C   0  0  0  0  0  0  0  0  0  0  0  0
   42.7481    9.9659   10.5713 C   0  0  2  0  0  0  0  0  0  0  0  0
   46.6162   12.3200   12.5192 O   0  0  0  0  0  0  0  0  0  0  0  0
   46.2926   14.4070   10.8211 O   0  0  0  0  0  0  0  0  0  0  0  0
   43.3488    8.7807   11.1061 O   0  0  0  0  0  0  0  0  0  0  0  0
   39.3133   11.5136   11.2389 C   0  0  0  0  0  0  0  0  0  0  0  0
   38.4750   12.3645   10.2837 C   0  0  0  0  0  0  0  0  0  0  0  0
   38.4428   10.4217   11.8620 C   0  0  0  0  0  0  0  0  0  0  0  0
   41.7137   11.7476   10.8793 S   0  0  0  0  0  0  0  0  0  0  0  0
   40.9907   11.8635    9.6392 O   0  0  0  0  0  0  0  0  0  0  0  0
   41.2312   12.2435   12.1424 O   0  0  0  0  0  0  0  0  0  0  0  0
   43.1726   12.3650   10.6229 O   0  0  0  0  0  0  0  0  0  0  0  0
   42.0736   10.1999   11.1098 O   0  0  0  0  0  0  0  0  0  0  0  0
   45.0229   10.8906   10.7648 C   0  0  0  0  0  0  0  0  0  0  0  0
   45.9623   11.6737   11.4298 C   0  0  0  0  0  0  0  0  0  0  0  0
   43.6972   11.3445   10.6305 C   0  0  0  0  0  0  0  0  0  0  0  0
   45.6042   12.9114   11.9539 C   0  0  0  0  0  0  0  0  0  0  0  0
   43.3617   12.6064   11.1538 C   0  0  0  0  0  0  0  0  0  0  0  0
   40.4256   11.5315   10.2825 N   0  0  0  0  0  0  0  0  0  0  0  0
   44.3123   13.3875   11.8181 C   0  0  0  0  0  0  0  0  0  0  0  0
   41.2819   10.3598   10.5369 C   0  0  0  0  0  0  0  0  0  0  0  0
   42.6878   10.4875    9.8835 C   0  0  1  0  0  0  0  0  0  0  0  0
   47.2571   11.2657   11.5943 O   0  0  0  0  0  0  0  0  0  0  0  0
   46.5326   13.6688   12.6077 O   0  0  0  0  0  0  0  0  0  0  0  0
   42.5491   10.9518    8.5312 O   0  0  0  0  0  0  0  0  0  0  0  0
   39.0445   11.4315   10.7652 C   0  0  0  0  0  0  0  0  0  0  0  0
   38.2200   10.3812   10.0160 C   0  0  0  0  0  0  0  0  0  0  0  0
   38.9592   11.2243   12.2793 C   0  0  0  0  0  0  0  0  0  0  0  0
   42.2788   11.1577   10.9412 O   0  0  0  0  0  0  0  0  0  0  0  0
   42.2665   11.1514   10.9396 O   0  0  0  0  0  0  0  0  0  0  0  0
   44.8989   10.3891   12.2944 H   0  0  0  0  0  0  0  0  0  0  0  0
   42.7148   12.2201    9.0405 H   0  0  0  0  0  0  0  0  0  0  0  0
   40.1141   10.3635    9.7354 H   0  0  0  0  0  0  0  0  0  0  0  0
   44.2330   14.1589    9.1122 H   0  0  0  0  0  0  0  0  0  0  0  0
   41.6159   10.7788   12.2431 H   0  0  0  0  0  0  0  0  0  0  0  0
   40.9692    9.2749   11.5941 H   0  0  0  0  0  0  0  0  0  0  0  0
   42.5463    9.7306    9.5179 H   0  0  0  0  0  0  0  0  0  0  0  0
   47.0737   13.1685   12.3456 H   0  0  0  0  0  0  0  0  0  0  0  0
   46.0133   15.0830   10.1785 H   0  0  0  0  0  0  0  0  0  0  0  0
   44.2239    8.7029   10.6834 H   0  0  0  0  0  0  0  0  0  0  0  0
   39.6900   12.1717   12.0290 H   0  0  0  0  0  0  0  0  0  0  0  0
   39.0736   13.1621    9.8320 H   0  0  0  0  0  0  0  0  0  0  0  0
   38.0494   11.7611    9.4729 H   0  0  0  0  0  0  0  0  0  0  0  0
   37.6440   12.8396   10.8193 H   0  0  0  0  0  0  0  0  0  0  0  0
   38.9841    9.8657   12.6349 H   0  0  0  0  0  0  0  0  0  0  0  0
   37.5610   10.8602   12.3400 H   0  0  0  0  0  0  0  0  0  0  0  0
   38.0947    9.7060   11.1069 H   0  0  0  0  0  0  0  0  0  0  0  0
   43.4425   12.1337    9.7081 H   0  0  0  0  0  0  0  0  0  0  0  0
   42.2936   10.0927   12.0586 H   0  0  0  0  0  0  0  0  0  0  0  0
   45.3081    9.9275   10.3516 H   0  0  0  0  0  0  0  0  0  0  0  0
   42.3532   13.0028   11.0502 H   0  0  0  0  0  0  0  0  0  0  0  0
   40.4314   11.6974    9.2703 H   0  0  0  0  0  0  0  0  0  0  0  0
   44.0395   14.3585   12.2218 H   0  0  0  0  0  0  0  0  0  0  0  0
   40.8058    9.4795   10.0917 H   0  0  0  0  0  0  0  0  0  0  0  0
   41.3982   10.1788   11.6106 H   0  0  0  0  0  0  0  0  0  0  0  0
   43.0900    9.4685    9.8170 H   0  0  0  0  0  0  0  0  0  0  0  0
   47.3645   10.4048   11.1542 H   0  0  0  0  0  0  0  0  0  0  0  0
   47.3388   13.1188   12.6093 H   0  0  0  0  0  0  0  0  0  0  0  0
   43.1517   11.7069    8.4219 H   0  0  0  0  0  0  0  0  0  0  0  0
   38.5862   12.4050   10.5523 H   0  0  0  0  0  0  0  0  0  0  0  0
   38.5527    9.3605   10.2358 H   0  0  0  0  0  0  0  0  0  0  0  0
   37.1650   10.4496   10.3032 H   0  0  0  0  0  0  0  0  0  0  0  0
   38.2785   10.5342    8.9324 H   0  0  0  0  0  0  0  0  0  0  0  0
   37.9293   11.3717   12.6210 H   0  0  0  0  0  0  0  0  0  0  0  0
   39.5857   11.9483   12.8103 H   0  0  0  0  0  0  0  0  0  0  0  0
   39.2669   10.2170   12.5766 H   0  0  0  0  0  0  0  0  0  0  0  0
   41.3601   11.4022   10.7556 H   0  0  0  0  0  0  0  0  0  0  0  0
   42.7545   12.0026   10.9434 H   0  0  0  0  0  0  0  0  0  0  0  0
   42.7691   11.9799   10.9481 H   0  0  0  0  0  0  0  0  0  0  0  0
   41.3579   11.4313   10.7524 H   0  0  0  0  0  0  0  0  0  0  0  0
  2  1  2  0
  3  1  1  0
  4  2  1  0
  5  3  2  0
  6  8  1  0
  7  5  1  0
  8  9  1  0
  9  3  1  0
 10  2  1  0
 11  4  1  0
 12  9  1  0
 13  6  1  0
 14 13  1  0
 15 13  1  0
  7  4  2  0
 17 16  2  0
 18 16  2  0
 19 16  1  0
 20 16  1  0
 22 21  2  0
 23 21  1  0
 24 22  1  0
 25 23  2  0
 26 28  1  0
 27 25  1  0
 28 29  1  0
 29 23  1  0
 30 22  1  0
 31 24  1  0
 32 29  1  0
 33 26  1  0
 34 33  1  0
 35 33  1  0
 27 24  2  0
  1 38  1  0
  5 39  1  0
  6 40  1  0
  7 41  1  0
  8 42  1  0
  8 43  1  0
  9 44  1  1
 10 45  1  0
 11 46  1  0
 12 47  1  0
 13 48  1  0
 14 49  1  0
 14 50  1  0
 14 51  1  0
 15 52  1  0
 15 53  1  0
 15 54  1  0
 19 55  1  0
 20 56  1  0
 21 57  1  0
 25 58  1  0
 26 59  1  0
 27 60  1  0
 28 61  1  0
 28 62  1  0
 29 63  1  1
 30 64  1  0
 31 65  1  0
 32 66  1  0
 33 67  1  0
 34 68  1  0
 34 69  1  0
 34 70  1  0
 35 71  1  0
 35 72  1  0
 35 73  1  0
 36 74  1  0
 36 75  1  0
 37 76  1  0
 37 77  1  0
M  END
> <Uni-Dock RESULT> 
ENERGY=   -4.630  LOWER_BOUND=    5.778  UPPER_BOUND=    8.531
INTER + INTRA:          -4.630
INTER:                  -4.630
INTRA:                   0.000
UNBOUND:                 0.000

$$$$

     RDKit          3D

 77 74  0  0  0  0  0  0  0  0999 V2000
   46.2233   11.7671    6.2407 C   0  0  0  0  0  0  0  0  0  0  0  0
   47.3809   12.5335    6.2355 C   0  0  0  0  0  0  0  0  0  0  0  0
   45.0466   12.2809    6.8106 C   0  0  0  0  0  0  0  0  0  0  0  0
   47.4007   13.8022    6.8077 C   0  0  0  0  0  0  0  0  0  0  0  0
   45.0817   13.5633    7.3927 C   0  0  0  0  0  0  0  0  0  0  0  0
   42.9217   11.6584    9.2084 N   0  0  0  0  0  0  0  0  0  0  0  0
   46.2555   14.3254    7.3932 C   0  0  0  0  0  0  0  0  0  0  0  0
   43.5310   10.7662    8.2043 C   0  0  0  0  0  0  0  0  0  0  0  0
   43.7597   11.4766    6.8448 C   0  0  2  0  0  0  0  0  0  0  0  0
   48.5131   12.0274    5.6617 O   0  0  0  0  0  0  0  0  0  0  0  0
   48.5784   14.4974    6.7748 O   0  0  0  0  0  0  0  0  0  0  0  0
   43.7323   10.5027    5.7950 O   0  0  0  0  0  0  0  0  0  0  0  0
   42.9740   11.1166   10.5721 C   0  0  0  0  0  0  0  0  0  0  0  0
   42.4324   12.1908   11.5164 C   0  0  0  0  0  0  0  0  0  0  0  0
   42.1712    9.8258   10.7385 C   0  0  0  0  0  0  0  0  0  0  0  0
   44.3420   12.0236    8.7686 S   0  0  0  0  0  0  0  0  0  0  0  0
   43.2863   12.9354    9.1265 O   0  0  0  0  0  0  0  0  0  0  0  0
   45.0438   11.1933    9.7132 O   0  0  0  0  0  0  0  0  0  0  0  0
   45.4266   12.8728    7.9453 O   0  0  0  0  0  0  0  0  0  0  0  0
   43.7920   11.0403    7.6247 O   0  0  0  0  0  0  0  0  0  0  0  0
   45.7594   12.3041    5.6685 C   0  0  0  0  0  0  0  0  0  0  0  0
   47.1428   12.4032    5.5483 C   0  0  0  0  0  0  0  0  0  0  0  0
   45.1550   12.3984    6.9364 C   0  0  0  0  0  0  0  0  0  0  0  0
   47.9353   12.6079    6.6730 C   0  0  0  0  0  0  0  0  0  0  0  0
   45.9746   12.6218    8.0576 C   0  0  0  0  0  0  0  0  0  0  0  0
   43.1156   12.1184    9.5097 N   0  0  0  0  0  0  0  0  0  0  0  0
   47.3630   12.7227    7.9273 C   0  0  0  0  0  0  0  0  0  0  0  0
   43.0924   11.4285    8.2081 C   0  0  0  0  0  0  0  0  0  0  0  0
   43.6415   12.3091    7.0493 C   0  0  1  0  0  0  0  0  0  0  0  0
   47.7720   12.3045    4.3383 O   0  0  0  0  0  0  0  0  0  0  0  0
   49.2910   12.6992    6.5437 O   0  0  0  0  0  0  0  0  0  0  0  0
   43.0732   13.6256    7.1351 O   0  0  0  0  0  0  0  0  0  0  0  0
   42.5022   11.3952   10.6282 C   0  0  0  0  0  0  0  0  0  0  0  0
   40.9863   11.2364   10.4828 C   0  0  0  0  0  0  0  0  0  0  0  0
   43.1753   10.0484   10.9038 C   0  0  0  0  0  0  0  0  0  0  0  0
   44.3734   11.7565    7.9948 O   0  0  0  0  0  0  0  0  0  0  0  0
   44.3615   11.7516    8.0003 O   0  0  0  0  0  0  0  0  0  0  0  0
   46.2481   10.7714    5.8035 H   0  0  0  0  0  0  0  0  0  0  0  0
   44.1879   13.9657    7.8681 H   0  0  0  0  0  0  0  0  0  0  0  0
   41.9507   11.8356    8.9409 H   0  0  0  0  0  0  0  0  0  0  0  0
   46.2533   15.3084    7.8519 H   0  0  0  0  0  0  0  0  0  0  0  0
   44.4843   10.3657    8.5706 H   0  0  0  0  0  0  0  0  0  0  0  0
   42.8686    9.9072    8.0410 H   0  0  0  0  0  0  0  0  0  0  0  0
   42.9165   12.1469    6.6314 H   0  0  0  0  0  0  0  0  0  0  0  0
   49.1793   12.7372    5.7704 H   0  0  0  0  0  0  0  0  0  0  0  0
   48.4438   15.3361    7.2505 H   0  0  0  0  0  0  0  0  0  0  0  0
   43.9744   10.9750    4.9772 H   0  0  0  0  0  0  0  0  0  0  0  0
   44.0189   10.9308   10.8420 H   0  0  0  0  0  0  0  0  0  0  0  0
   42.9985   13.1233   11.4244 H   0  0  0  0  0  0  0  0  0  0  0  0
   41.3784   12.4141   11.3122 H   0  0  0  0  0  0  0  0  0  0  0  0
   42.5088   11.8607   12.5597 H   0  0  0  0  0  0  0  0  0  0  0  0
   42.6041    9.0035   10.1590 H   0  0  0  0  0  0  0  0  0  0  0  0
   42.1641    9.5110   11.7868 H   0  0  0  0  0  0  0  0  0  0  0  0
   41.1296    9.9569   10.4199 H   0  0  0  0  0  0  0  0  0  0  0  0
   44.9445   13.5300    7.3986 H   0  0  0  0  0  0  0  0  0  0  0  0
   44.3901   10.2646    7.5985 H   0  0  0  0  0  0  0  0  0  0  0  0
   45.1437   12.1505    4.7872 H   0  0  0  0  0  0  0  0  0  0  0  0
   45.5435   12.7234    9.0520 H   0  0  0  0  0  0  0  0  0  0  0  0
   42.6509   13.0238    9.3815 H   0  0  0  0  0  0  0  0  0  0  0  0
   47.9855   12.8908    8.8018 H   0  0  0  0  0  0  0  0  0  0  0  0
   42.0521   11.1926    7.9594 H   0  0  0  0  0  0  0  0  0  0  0  0
   43.6556   10.4901    8.2462 H   0  0  0  0  0  0  0  0  0  0  0  0
   43.2565   11.8701    6.1200 H   0  0  0  0  0  0  0  0  0  0  0  0
   47.0941   12.1939    3.6494 H   0  0  0  0  0  0  0  0  0  0  0  0
   49.4558   12.5517    5.5931 H   0  0  0  0  0  0  0  0  0  0  0  0
   43.8080   14.2608    7.0899 H   0  0  0  0  0  0  0  0  0  0  0  0
   42.6718   12.0210   11.5129 H   0  0  0  0  0  0  0  0  0  0  0  0
   40.7184   10.5530    9.6693 H   0  0  0  0  0  0  0  0  0  0  0  0
   40.5559   10.8308   11.4050 H   0  0  0  0  0  0  0  0  0  0  0  0
   40.5059   12.2024   10.2904 H   0  0  0  0  0  0  0  0  0  0  0  0
   42.8357    9.6487   11.8651 H   0  0  0  0  0  0  0  0  0  0  0  0
   44.2631   10.1580   10.9621 H   0  0  0  0  0  0  0  0  0  0  0  0
   42.9433    9.3054   10.1345 H   0  0  0  0  0  0  0  0  0  0  0  0
   43.8626   11.8564    8.8117 H   0  0  0  0  0  0  0  0  0  0  0  0
   45.1462   12.3271    8.1257 H   0  0  0  0  0  0  0  0  0  0  0  0
   45.1445   12.3134    8.1020 H   0  0  0  0  0  0  0  0  0  0  0  0
   43.8762   11.8749    8.8299 H   0  0  0  0  0  0  0  0  0  0  0  0
  2  1  2  0
  3  1  1  0
  4  2  1  0
  5  3  2  0
  6  8  1  0
  7  5  1  0
  8  9  1  0
  9  3  1  0
 10  2  1  0
 11  4  1  0
 12  9  1  0
 13  6  1  0
 14 13  1  0
 15 13  1  0
  7  4  2  0
 17 16  2  0
 18 16  2  0
 19 16  1  0
 20 16  1  0
 22 21  2  0
 23 21  1  0
 24 22  1  0
 25 23  2  0
 26 28  1  0
 27 25  1  0
 28 29  1  0
 29 23  1  0
 30 22  1  0
 31 24  1  0
 32 29  1  0
 33 26  1  0
 34 33  1  0
 35 33  1  0
 27 24  2  0
  1 38  1  0
  5 39  1  0
  6 40  1  0
  7 41  1  0
  8 42  1  0
  8 43  1  0
  9 44  1  1
 10 45  1  0
 11 46  1  0
 12 47  1  0
 13 48  1  0
 14 49  1  0
 14 50  1  0
 14 51  1  0
 15 52  1  0
 15 53  1  0
 15 54  1  0
 19 55  1  0
 20 56  1  0
 21 57  1  0
 25 58  1  0
 26 59  1  0
 27 60  1  0
 28 61  1  0
 28 62  1  0
 29 63  1  1
 30 64  1  0
 31 65  1  0
 32 66  1  0
 33 67  1  0
 34 68  1  0
 34 69  1  0
 34 70  1  0
 35 71  1  0
 35 72  1  0
 35 73  1  0
 36 74  1  0
 36 75  1  0
 37 76  1  0
 37 77  1  0
M  END
> <Uni-Dock RESULT> 
ENERGY=   -4.531  LOWER_BOUND=    6.370  UPPER_BOUND=    8.909
INTER + INTRA:          -4.531
INTER:                  -4.531
INTRA:                   0.000
UNBOUND:                 0.000

$$$$

     RDKit          3D

 77 74  0  0  0  0  0  0  0  0999 V2000
   44.4041    6.6102   12.9092 C   0  0  0  0  0  0  0  0  0  0  0  0
   44.0245    5.2957   12.6734 C   0  0  0  0  0  0  0  0  0  0  0  0
   45.6729    7.0555   12.5027 C   0  0  0  0  0  0  0  0  0  0  0  0
   44.8932    4.4006   12.0559 C   0  0  0  0  0  0  0  0  0  0  0  0
   46.5455    6.1379   11.8852 C   0  0  0  0  0  0  0  0  0  0  0  0
   48.4344    8.2801   13.7382 N   0  0  0  0  0  0  0  0  0  0  0  0
   46.1594    4.8116   11.6608 C   0  0  0  0  0  0  0  0  0  0  0  0
   47.0244    8.6188   14.0072 C   0  0  0  0  0  0  0  0  0  0  0  0
   46.1333    8.4815   12.7454 C   0  0  2  0  0  0  0  0  0  0  0  0
   42.7805    4.8816   13.0586 O   0  0  0  0  0  0  0  0  0  0  0  0
   44.4562    3.1187   11.8637 O   0  0  0  0  0  0  0  0  0  0  0  0
   45.0168    9.3714   12.8592 O   0  0  0  0  0  0  0  0  0  0  0  0
   49.2313    8.1061   14.9591 C   0  0  0  0  0  0  0  0  0  0  0  0
   50.6237    7.6339   14.5380 C   0  0  0  0  0  0  0  0  0  0  0  0
   49.3457    9.3842   15.7909 C   0  0  0  0  0  0  0  0  0  0  0  0
   47.4397    7.1214   13.6299 S   0  0  0  0  0  0  0  0  0  0  0  0
   48.6241    7.3213   12.8354 O   0  0  0  0  0  0  0  0  0  0  0  0
   47.4563    6.7374   15.0179 O   0  0  0  0  0  0  0  0  0  0  0  0
   46.5190    6.0768   12.8321 O   0  0  0  0  0  0  0  0  0  0  0  0
   46.5425    8.4498   13.5398 O   0  0  0  0  0  0  0  0  0  0  0  0
   44.4280    6.8539   12.0311 C   0  0  0  0  0  0  0  0  0  0  0  0
   43.5979    5.7690   12.2993 C   0  0  0  0  0  0  0  0  0  0  0  0
   45.7481    6.8673   12.5199 C   0  0  0  0  0  0  0  0  0  0  0  0
   44.0672    4.6880   13.0384 C   0  0  0  0  0  0  0  0  0  0  0  0
   46.2063    5.7562   13.2508 C   0  0  0  0  0  0  0  0  0  0  0  0
   48.7149    7.7816   13.6249 N   0  0  0  0  0  0  0  0  0  0  0  0
   45.3665    4.6695   13.5133 C   0  0  0  0  0  0  0  0  0  0  0  0
   47.5091    8.5916   13.3786 C   0  0  0  0  0  0  0  0  0  0  0  0
   46.6491    8.0496   12.2011 C   0  0  1  0  0  0  0  0  0  0  0  0
   42.3055    5.7206   11.8552 O   0  0  0  0  0  0  0  0  0  0  0  0
   43.2430    3.6316   13.2989 O   0  0  0  0  0  0  0  0  0  0  0  0
   47.5011    7.7364   11.0878 O   0  0  0  0  0  0  0  0  0  0  0  0
   49.6371    8.2993   14.6407 C   0  0  0  0  0  0  0  0  0  0  0  0
   50.3216    9.6036   14.2229 C   0  0  0  0  0  0  0  0  0  0  0  0
   48.9856    8.4339   16.0193 C   0  0  0  0  0  0  0  0  0  0  0  0
   46.7486    7.4892   13.3891 O   0  0  0  0  0  0  0  0  0  0  0  0
   46.7576    7.4993   13.3924 O   0  0  0  0  0  0  0  0  0  0  0  0
   43.7085    7.2777   13.4129 H   0  0  0  0  0  0  0  0  0  0  0  0
   47.5453    6.4561   11.5921 H   0  0  0  0  0  0  0  0  0  0  0  0
   48.8421    9.0171   13.1582 H   0  0  0  0  0  0  0  0  0  0  0  0
   46.8539    4.1267   11.1861 H   0  0  0  0  0  0  0  0  0  0  0  0
   46.6210    7.9871   14.8082 H   0  0  0  0  0  0  0  0  0  0  0  0
   46.9675    9.6551   14.3624 H   0  0  0  0  0  0  0  0  0  0  0  0
   46.6854    8.8312   11.8630 H   0  0  0  0  0  0  0  0  0  0  0  0
   42.7412    3.9419   12.7853 H   0  0  0  0  0  0  0  0  0  0  0  0
   45.1862    2.6101   11.4682 H   0  0  0  0  0  0  0  0  0  0  0  0
   44.4382    9.1834   12.0975 H   0  0  0  0  0  0  0  0  0  0  0  0
   48.7810    7.3160   15.5691 H   0  0  0  0  0  0  0  0  0  0  0  0
   50.5699    6.7123   13.9495 H   0  0  0  0  0  0  0  0  0  0  0  0
   51.1415    8.3897   13.9354 H   0  0  0  0  0  0  0  0  0  0  0  0
   51.2429    7.4262   15.4193 H   0  0  0  0  0  0  0  0  0  0  0  0
   48.3767    9.6862   16.2024 H   0  0  0  0  0  0  0  0  0  0  0  0
   50.0210    9.2311   16.6386 H   0  0  0  0  0  0  0  0  0  0  0  0
   49.7382   10.2174   15.1947 H   0  0  0  0  0  0  0  0  0  0  0  0
   46.6149    6.2603   11.8728 H   0  0  0  0  0  0  0  0  0  0  0  0
   45.9111    8.4233   14.2887 H   0  0  0  0  0  0  0  0  0  0  0  0
   44.0597    7.6932   11.4485 H   0  0  0  0  0  0  0  0  0  0  0  0
   47.2274    5.7183   13.6261 H   0  0  0  0  0  0  0  0  0  0  0  0
   49.2024    7.6825   12.7278 H   0  0  0  0  0  0  0  0  0  0  0  0
   45.7310    3.8193   14.0830 H   0  0  0  0  0  0  0  0  0  0  0  0
   47.8225    9.6037   13.1006 H   0  0  0  0  0  0  0  0  0  0  0  0
   46.8874    8.6613   14.2773 H   0  0  0  0  0  0  0  0  0  0  0  0
   46.0139    8.8829   11.8748 H   0  0  0  0  0  0  0  0  0  0  0  0
   42.1313    6.5232   11.3339 H   0  0  0  0  0  0  0  0  0  0  0  0
   42.3876    3.8866   12.9043 H   0  0  0  0  0  0  0  0  0  0  0  0
   47.2818    6.8335   10.8014 H   0  0  0  0  0  0  0  0  0  0  0  0
   50.4263    7.5436   14.7356 H   0  0  0  0  0  0  0  0  0  0  0  0
   49.6201   10.4445   14.1836 H   0  0  0  0  0  0  0  0  0  0  0  0
   51.1077    9.8673   14.9390 H   0  0  0  0  0  0  0  0  0  0  0  0
   50.7915    9.5036   13.2379 H   0  0  0  0  0  0  0  0  0  0  0  0
   49.7521    8.6117   16.7809 H   0  0  0  0  0  0  0  0  0  0  0  0
   48.4585    7.5149   16.2955 H   0  0  0  0  0  0  0  0  0  0  0  0
   48.2759    9.2658   16.0615 H   0  0  0  0  0  0  0  0  0  0  0  0
   47.6811    7.5700   13.6381 H   0  0  0  0  0  0  0  0  0  0  0  0
   46.6165    6.5367   13.2657 H   0  0  0  0  0  0  0  0  0  0  0  0
   46.5949    6.5530   13.2616 H   0  0  0  0  0  0  0  0  0  0  0  0
   47.6936    7.5435   13.6389 H   0  0  0  0  0  0  0  0  0  0  0  0
  2  1  2  0
  3  1  1  0
  4  2  1  0
  5  3  2  0
  6  8  1  0
  7  5  1  0
  8  9  1  0
  9  3  1  0
 10  2  1  0
 11  4  1  0
 12  9  1  0
 13  6  1  0
 14 13  1  0
 15 13  1  0
  7  4  2  0
 17 16  2  0
 18 16  2  0
 19 16  1  0
 20 16  1  0
 22 21  2  0
 23 21  1  0
 24 22  1  0
 25 23  2  0
 26 28  1  0
 27 25  1  0
 28 29  1  0
 29 23  1  0
 30 22  1  0
 31 24  1  0
 32 29  1  0
 33 26  1  0
 34 33  1  0
 35 33  1  0
 27 24  2  0
  1 38  1  0
  5 39  1  0
  6 40  1  0
  7 41  1  0
  8 42  1  0
  8 43  1  0
  9 44  1  1
 10 45  1  0
 11 46  1  0
 12 47  1  0
 13 48  1  0
 14 49  1  0
 14 50  1  0
 14 51  1  0
 15 52  1  0
 15 53  1  0
 15 54  1  0
 19 55  1  0
 20 56  1  0
 21 57  1  0
 25 58  1  0
 26 59  1  0
 27 60  1  0
 28 61  1  0
 28 62  1  0
 29 63  1  1
 30 64  1  0
 31 65  1  0
 32 66  1  0
 33 67  1  0
 34 68  1  0
 34 69  1  0
 34 70  1  0
 35 71  1  0
 35 72  1  0
 35 73  1  0
 36 74  1  0
 36 75  1  0
 37 76  1  0
 37 77  1  0
M  END
> <Uni-Dock RESULT> 
ENERGY=   -4.521  LOWER_BOUND=    1.547  UPPER_BOUND=    2.695
INTER + INTRA:          -4.521
INTER:                  -4.521
INTRA:                   0.000
UNBOUND:                 0.000

$$$$

     RDKit          3D

 77 74  0  0  0  0  0  0  0  0999 V2000
   47.7660    5.8180   16.7232 C   0  0  0  0  0  0  0  0  0  0  0  0
   47.7289    4.5064   17.1770 C   0  0  0  0  0  0  0  0  0  0  0  0
   48.6267    6.7454   17.3336 C   0  0  0  0  0  0  0  0  0  0  0  0
   48.5199    4.0976   18.2467 C   0  0  0  0  0  0  0  0  0  0  0  0
   49.4169    6.3208   18.4199 C   0  0  0  0  0  0  0  0  0  0  0  0
   48.5453    9.5646   18.9760 N   0  0  0  0  0  0  0  0  0  0  0  0
   49.3658    4.9996   18.8785 C   0  0  0  0  0  0  0  0  0  0  0  0
   47.8392    9.1409   17.7523 C   0  0  0  0  0  0  0  0  0  0  0  0
   48.6959    8.1909   16.8755 C   0  0  2  0  0  0  0  0  0  0  0  0
   46.8997    3.6112   16.5618 O   0  0  0  0  0  0  0  0  0  0  0  0
   48.4254    2.7928   18.6466 O   0  0  0  0  0  0  0  0  0  0  0  0
   48.2889    8.3186   15.5082 O   0  0  0  0  0  0  0  0  0  0  0  0
   47.6644   10.2058   19.9602 C   0  0  0  0  0  0  0  0  0  0  0  0
   48.4937   10.4714   21.2176 C   0  0  0  0  0  0  0  0  0  0  0  0
   47.0500   11.5127   19.4574 C   0  0  0  0  0  0  0  0  0  0  0  0
   48.1915    8.0774   18.8934 S   0  0  0  0  0  0  0  0  0  0  0  0
   49.3618    8.6552   19.5021 O   0  0  0  0  0  0  0  0  0  0  0  0
   46.8649    8.1753   19.4453 O   0  0  0  0  0  0  0  0  0  0  0  0
   48.5179    6.5257   18.6459 O   0  0  0  0  0  0  0  0  0  0  0  0
   48.0928    8.6131   17.3831 O   0  0  0  0  0  0  0  0  0  0  0  0
   48.6172    5.7754   16.3998 C   0  0  0  0  0  0  0  0  0  0  0  0
   47.9760    4.5424   16.4816 C   0  0  0  0  0  0  0  0  0  0  0  0
   48.6186    6.6424   17.5088 C   0  0  0  0  0  0  0  0  0  0  0  0
   47.3448    4.1527   17.6583 C   0  0  0  0  0  0  0  0  0  0  0  0
   47.9883    6.2206   18.6935 C   0  0  0  0  0  0  0  0  0  0  0  0
   48.7004    9.2914   19.4673 N   0  0  0  0  0  0  0  0  0  0  0  0
   47.3488    4.9794   18.7676 C   0  0  0  0  0  0  0  0  0  0  0  0
   48.5910    9.2055   18.0005 C   0  0  0  0  0  0  0  0  0  0  0  0
   49.3409    7.9767   17.4111 C   0  0  1  0  0  0  0  0  0  0  0  0
   47.9392    3.6754   15.4247 O   0  0  0  0  0  0  0  0  0  0  0  0
   46.7156    2.9434   17.7256 O   0  0  0  0  0  0  0  0  0  0  0  0
   50.6446    7.8782   18.0061 O   0  0  0  0  0  0  0  0  0  0  0  0
   48.1205   10.4892   20.0831 C   0  0  0  0  0  0  0  0  0  0  0  0
   48.8721   11.7740   19.7242 C   0  0  0  0  0  0  0  0  0  0  0  0
   46.6214   10.6306   19.8082 C   0  0  0  0  0  0  0  0  0  0  0  0
   48.2127    7.9238   18.0890 O   0  0  0  0  0  0  0  0  0  0  0  0
   48.2137    7.9376   18.0905 O   0  0  0  0  0  0  0  0  0  0  0  0
   47.1193    6.1091   15.8984 H   0  0  0  0  0  0  0  0  0  0  0  0
   50.0665    7.0334   18.9268 H   0  0  0  0  0  0  0  0  0  0  0  0
   49.2982   10.2047   18.7130 H   0  0  0  0  0  0  0  0  0  0  0  0
   49.9833    4.7023   19.7193 H   0  0  0  0  0  0  0  0  0  0  0  0
   46.8916    8.6487   18.0036 H   0  0  0  0  0  0  0  0  0  0  0  0
   47.5873   10.0289   17.1597 H   0  0  0  0  0  0  0  0  0  0  0  0
   49.7440    8.5182   16.8908 H   0  0  0  0  0  0  0  0  0  0  0  0
   47.0512    2.7703   17.0406 H   0  0  0  0  0  0  0  0  0  0  0  0
   48.9982    2.6765   19.4253 H   0  0  0  0  0  0  0  0  0  0  0  0
   48.7820    7.6399   15.0115 H   0  0  0  0  0  0  0  0  0  0  0  0
   46.8638    9.5090   20.2293 H   0  0  0  0  0  0  0  0  0  0  0  0
   48.9361    9.5479   21.6047 H   0  0  0  0  0  0  0  0  0  0  0  0
   49.3075   11.1800   21.0226 H   0  0  0  0  0  0  0  0  0  0  0  0
   47.8652   10.8934   22.0115 H   0  0  0  0  0  0  0  0  0  0  0  0
   46.3599   11.3403   18.6247 H   0  0  0  0  0  0  0  0  0  0  0  0
   46.4775   11.9988   20.2537 H   0  0  0  0  0  0  0  0  0  0  0  0
   47.8220   12.2160   19.1211 H   0  0  0  0  0  0  0  0  0  0  0  0
   49.4641    6.4518   18.3961 H   0  0  0  0  0  0  0  0  0  0  0  0
   47.1730    8.4602   17.0819 H   0  0  0  0  0  0  0  0  0  0  0  0
   49.1142    6.0733   15.4812 H   0  0  0  0  0  0  0  0  0  0  0  0
   47.9874    6.8524   19.5800 H   0  0  0  0  0  0  0  0  0  0  0  0
   49.6967    9.2249   19.7017 H   0  0  0  0  0  0  0  0  0  0  0  0
   46.8617    4.6671   19.6871 H   0  0  0  0  0  0  0  0  0  0  0  0
   49.0558   10.0970   17.5656 H   0  0  0  0  0  0  0  0  0  0  0  0
   47.5439    9.1762   17.6816 H   0  0  0  0  0  0  0  0  0  0  0  0
   49.5057    8.1970   16.3487 H   0  0  0  0  0  0  0  0  0  0  0  0
   48.4425    4.0673   14.6903 H   0  0  0  0  0  0  0  0  0  0  0  0
   46.8126    2.5678   16.8300 H   0  0  0  0  0  0  0  0  0  0  0  0
   50.7497    6.9647   18.3221 H   0  0  0  0  0  0  0  0  0  0  0  0
   48.2323   10.3485   21.1650 H   0  0  0  0  0  0  0  0  0  0  0  0
   48.7468   12.0454   18.6699 H   0  0  0  0  0  0  0  0  0  0  0  0
   48.5006   12.6124   20.3235 H   0  0  0  0  0  0  0  0  0  0  0  0
   49.9443   11.6724   19.9262 H   0  0  0  0  0  0  0  0  0  0  0  0
   46.1924   11.4034   20.4547 H   0  0  0  0  0  0  0  0  0  0  0  0
   46.0933    9.6958   20.0228 H   0  0  0  0  0  0  0  0  0  0  0  0
   46.4162   10.9135   18.7711 H   0  0  0  0  0  0  0  0  0  0  0  0
   48.3103    8.5655   18.8080 H   0  0  0  0  0  0  0  0  0  0  0  0
   48.1910    7.0646   18.5377 H   0  0  0  0  0  0  0  0  0  0  0  0
   48.1889    7.0645   18.5104 H   0  0  0  0  0  0  0  0  0  0  0  0
   48.3114    8.5515   18.8338 H   0  0  0  0  0  0  0  0  0  0  0  0
  2  1  2  0
  3  1  1  0
  4  2  1  0
  5  3  2  0
  6  8  1  0
  7  5  1  0
  8  9  1  0
  9  3  1  0
 10  2  1  0
 11  4  1  0
 12  9  1  0
 13  6  1  0
 14 13  1  0
 15 13  1  0
  7  4  2  0
 17 16  2  0
 18 16  2  0
 19 16  1  0
 20 16  1  0
 22 21  2  0
 23 21  1  0
 24 22  1  0
 25 23  2  0
 26 28  1  0
 27 25  1  0
 28 29  1  0
 29 23  1  0
 30 22  1  0
 31 24  1  0
 32 29  1  0
 33 26  1  0
 34 33  1  0
 35 33  1  0
 27 24  2  0
  1 38  1  0
  5 39  1  0
  6 40  1  0
  7 41  1  0
  8 42  1  0
  8 43  1  0
  9 44  1  1
 10 45  1  0
 11 46  1  0
 12 47  1  0
 13 48  1  0
 14 49  1  0
 14 50  1  0
 14 51  1  0
 15 52  1  0
 15 53  1  0
 15 54  1  0
 19 55  1  0
 20 56  1  0
 21 57  1  0
 25 58  1  0
 26 59  1  0
 27 60  1  0
 28 61  1  0
 28 62  1  0
 29 63  1  1
 30 64  1  0
 31 65  1  0
 32 66  1  0
 33 67  1  0
 34 68  1  0
 34 69  1  0
 34 70  1  0
 35 71  1  0
 35 72  1  0
 35 73  1  0
 36 74  1  0
 36 75  1  0
 37 76  1  0
 37 77  1  0
M  END
> <Uni-Dock RESULT> 
ENERGY=   -4.474  LOWER_BOUND=    5.101  UPPER_BOUND=    6.905
INTER + INTRA:          -4.474
INTER:                  -4.474
INTRA:                   0.000
UNBOUND:                 0.000

$$$$

     RDKit          3D

 77 74  0  0  0  0  0  0  0  0999 V2000
   54.5378    6.0019   10.1527 C   0  0  0  0  0  0  0  0  0  0  0  0
   55.5511    5.0569   10.2406 C   0  0  0  0  0  0  0  0  0  0  0  0
   53.8334    6.1622    8.9478 C   0  0  0  0  0  0  0  0  0  0  0  0
   55.8969    4.2754    9.1421 C   0  0  0  0  0  0  0  0  0  0  0  0
   54.1978    5.3701    7.8413 C   0  0  0  0  0  0  0  0  0  0  0  0
   53.2174    8.4101    6.6632 N   0  0  0  0  0  0  0  0  0  0  0  0
   55.2278    4.4272    7.9349 C   0  0  0  0  0  0  0  0  0  0  0  0
   53.2016    8.5019    8.1351 C   0  0  0  0  0  0  0  0  0  0  0  0
   52.7229    7.1869    8.8034 C   0  0  2  0  0  0  0  0  0  0  0  0
   56.2155    4.9000   11.4244 O   0  0  0  0  0  0  0  0  0  0  0  0
   56.9112    3.3709    9.2979 O   0  0  0  0  0  0  0  0  0  0  0  0
   52.1346    7.4921   10.0732 O   0  0  0  0  0  0  0  0  0  0  0  0
   53.9445    9.5128    6.0219 C   0  0  0  0  0  0  0  0  0  0  0  0
   53.9929    9.2225    4.5211 C   0  0  0  0  0  0  0  0  0  0  0  0
   53.3035   10.8795    6.2663 C   0  0  0  0  0  0  0  0  0  0  0  0
   54.2225    7.5177    7.3961 S   0  0  0  0  0  0  0  0  0  0  0  0
   53.5249    7.2115    6.1740 O   0  0  0  0  0  0  0  0  0  0  0  0
   55.2848    8.4850    7.4966 O   0  0  0  0  0  0  0  0  0  0  0  0
   54.7570    6.1237    7.9847 O   0  0  0  0  0  0  0  0  0  0  0  0
   53.1371    7.9222    8.5079 O   0  0  0  0  0  0  0  0  0  0  0  0
   53.8620    5.3978   10.0559 C   0  0  0  0  0  0  0  0  0  0  0  0
   54.9914    4.8925   10.6940 C   0  0  0  0  0  0  0  0  0  0  0  0
   53.9942    6.0974    8.8415 C   0  0  0  0  0  0  0  0  0  0  0  0
   56.2531    5.0627   10.1338 C   0  0  0  0  0  0  0  0  0  0  0  0
   55.2779    6.2431    8.2851 C   0  0  0  0  0  0  0  0  0  0  0  0
   53.5512    8.1233    6.2805 N   0  0  0  0  0  0  0  0  0  0  0  0
   56.4066    5.7301    8.9317 C   0  0  0  0  0  0  0  0  0  0  0  0
   52.8458    8.0681    7.5728 C   0  0  0  0  0  0  0  0  0  0  0  0
   52.7496    6.6251    8.1458 C   0  0  1  0  0  0  0  0  0  0  0  0
   54.9100    4.2184   11.8810 O   0  0  0  0  0  0  0  0  0  0  0  0
   57.3539    4.5667   10.7705 O   0  0  0  0  0  0  0  0  0  0  0  0
   52.3430    5.7211    7.1062 O   0  0  0  0  0  0  0  0  0  0  0  0
   53.5760    9.4325    5.6205 C   0  0  0  0  0  0  0  0  0  0  0  0
   52.1952    9.8927    5.1449 C   0  0  0  0  0  0  0  0  0  0  0  0
   54.2566   10.5107    6.4675 C   0  0  0  0  0  0  0  0  0  0  0  0
   53.8461    7.3540    8.1050 O   0  0  0  0  0  0  0  0  0  0  0  0
   53.8386    7.3638    8.0986 O   0  0  0  0  0  0  0  0  0  0  0  0
   54.3072    6.6105   11.0242 H   0  0  0  0  0  0  0  0  0  0  0  0
   53.6849    5.5025    6.8894 H   0  0  0  0  0  0  0  0  0  0  0  0
   52.2518    8.3876    6.3273 H   0  0  0  0  0  0  0  0  0  0  0  0
   55.4886    3.8338    7.0651 H   0  0  0  0  0  0  0  0  0  0  0  0
   54.1963    8.7632    8.5169 H   0  0  0  0  0  0  0  0  0  0  0  0
   52.5248    9.3114    8.4352 H   0  0  0  0  0  0  0  0  0  0  0  0
   51.9086    6.7469    8.2125 H   0  0  0  0  0  0  0  0  0  0  0  0
   56.8635    4.1871   11.2472 H   0  0  0  0  0  0  0  0  0  0  0  0
   57.0629    2.9406    8.4378 H   0  0  0  0  0  0  0  0  0  0  0  0
   51.9376    6.6361   10.4963 H   0  0  0  0  0  0  0  0  0  0  0  0
   54.9746    9.5241    6.3932 H   0  0  0  0  0  0  0  0  0  0  0  0
   54.4586    8.2526    4.3185 H   0  0  0  0  0  0  0  0  0  0  0  0
   52.9897    9.2145    4.0786 H   0  0  0  0  0  0  0  0  0  0  0  0
   54.5829    9.9863    3.9998 H   0  0  0  0  0  0  0  0  0  0  0  0
   53.3554   11.1669    7.3218 H   0  0  0  0  0  0  0  0  0  0  0  0
   53.8246   11.6551    5.6962 H   0  0  0  0  0  0  0  0  0  0  0  0
   52.2497   10.8890    5.9611 H   0  0  0  0  0  0  0  0  0  0  0  0
   54.0821    5.4368    7.7953 H   0  0  0  0  0  0  0  0  0  0  0  0
   53.6152    8.3975    9.2189 H   0  0  0  0  0  0  0  0  0  0  0  0
   52.8780    5.2574   10.4935 H   0  0  0  0  0  0  0  0  0  0  0  0
   55.4193    6.7574    7.3362 H   0  0  0  0  0  0  0  0  0  0  0  0
   53.1123    7.4296    5.6654 H   0  0  0  0  0  0  0  0  0  0  0  0
   57.3932    5.8533    8.4938 H   0  0  0  0  0  0  0  0  0  0  0  0
   51.8184    8.4168    7.4220 H   0  0  0  0  0  0  0  0  0  0  0  0
   53.3222    8.7193    8.3132 H   0  0  0  0  0  0  0  0  0  0  0  0
   51.9312    6.6381    8.8769 H   0  0  0  0  0  0  0  0  0  0  0  0
   53.9723    4.1526   12.1313 H   0  0  0  0  0  0  0  0  0  0  0  0
   57.0049    4.1820   11.5968 H   0  0  0  0  0  0  0  0  0  0  0  0
   52.9689    4.9771    7.1093 H   0  0  0  0  0  0  0  0  0  0  0  0
   54.1920    9.2991    4.7229 H   0  0  0  0  0  0  0  0  0  0  0  0
   51.5295   10.1348    5.9810 H   0  0  0  0  0  0  0  0  0  0  0  0
   52.2858   10.7937    4.5283 H   0  0  0  0  0  0  0  0  0  0  0  0
   51.7117    9.1214    4.5348 H   0  0  0  0  0  0  0  0  0  0  0  0
   54.4454   11.4019    5.8598 H   0  0  0  0  0  0  0  0  0  0  0  0
   55.2237   10.1616    6.8436 H   0  0  0  0  0  0  0  0  0  0  0  0
   53.6427   10.8144    7.3210 H   0  0  0  0  0  0  0  0  0  0  0  0
   53.8281    7.8040    7.2475 H   0  0  0  0  0  0  0  0  0  0  0  0
   54.5930    6.7396    8.0361 H   0  0  0  0  0  0  0  0  0  0  0  0
   54.5790    6.7398    8.0597 H   0  0  0  0  0  0  0  0  0  0  0  0
   53.8497    7.7939    7.2304 H   0  0  0  0  0  0  0  0  0  0  0  0
  2  1  2  0
  3  1  1  0
  4  2  1  0
  5  3  2  0
  6  8  1  0
  7  5  1  0
  8  9  1  0
  9  3  1  0
 10  2  1  0
 11  4  1  0
 12  9  1  0
 13  6  1  0
 14 13  1  0
 15 13  1  0
  7  4  2  0
 17 16  2  0
 18 16  2  0
 19 16  1  0
 20 16  1  0
 22 21  2  0
 23 21  1  0
 24 22  1  0
 25 23  2  0
 26 28  1  0
 27 25  1  0
 28 29  1  0
 29 23  1  0
 30 22  1  0
 31 24  1  0
 32 29  1  0
 33 26  1  0
 34 33  1  0
 35 33  1  0
 27 24  2  0
  1 38  1  0
  5 39  1  0
  6 40  1  0
  7 41  1  0
  8 42  1  0
  8 43  1  0
  9 44  1  1
 10 45  1  0
 11 46  1  0
 12 47  1  0
 13 48  1  0
 14 49  1  0
 14 50  1  0
 14 51  1  0
 15 52  1  0
 15 53  1  0
 15 54  1  0
 19 55  1  0
 20 56  1  0
 21 57  1  0
 25 58  1  0
 26 59  1  0
 27 60  1  0
 28 61  1  0
 28 62  1  0
 29 63  1  1
 30 64  1  0
 31 65  1  0
 32 66  1  0
 33 67  1  0
 34 68  1  0
 34 69  1  0
 34 70  1  0
 35 71  1  0
 35 72  1  0
 35 73  1  0
 36 74  1  0
 36 75  1  0
 37 76  1  0
 37 77  1  0
M  END
> <Uni-Dock RESULT> 
ENERGY=   -4.465  LOWER_BOUND=    7.051  UPPER_BOUND=    9.143
INTER + INTRA:          -4.465
INTER:                  -4.465
INTRA:                   0.000
UNBOUND:                 0.000

$$$$

     RDKit          3D

 77 74  0  0  0  0  0  0  0  0999 V2000
   53.0619    3.5845   20.1405 C   0  0  0  0  0  0  0  0  0  0  0  0
   53.5185    4.2141   21.2906 C   0  0  0  0  0  0  0  0  0  0  0  0
   52.3615    4.3210   19.1708 C   0  0  0  0  0  0  0  0  0  0  0  0
   53.2743    5.5667   21.5098 C   0  0  0  0  0  0  0  0  0  0  0  0
   52.1147    5.6876   19.4079 C   0  0  0  0  0  0  0  0  0  0  0  0
   49.4495    4.4328   17.7012 N   0  0  0  0  0  0  0  0  0  0  0  0
   52.5688    6.3125   20.5749 C   0  0  0  0  0  0  0  0  0  0  0  0
   50.3376    3.2927   17.9960 C   0  0  0  0  0  0  0  0  0  0  0  0
   51.8380    3.6735   17.9016 C   0  0  2  0  0  0  0  0  0  0  0  0
   54.2137    3.4886   22.2167 O   0  0  0  0  0  0  0  0  0  0  0  0
   53.7455    6.1192   22.6692 O   0  0  0  0  0  0  0  0  0  0  0  0
   52.5988    2.5073   17.5661 O   0  0  0  0  0  0  0  0  0  0  0  0
   48.0508    4.1891   18.0754 C   0  0  0  0  0  0  0  0  0  0  0  0
   47.2770    5.4868   17.8385 C   0  0  0  0  0  0  0  0  0  0  0  0
   47.4062    3.0485   17.2866 C   0  0  0  0  0  0  0  0  0  0  0  0
   50.2868    4.5544   18.9771 S   0  0  0  0  0  0  0  0  0  0  0  0
   49.9066    5.6212   18.0874 O   0  0  0  0  0  0  0  0  0  0  0  0
   49.3722    3.8773   19.8598 O   0  0  0  0  0  0  0  0  0  0  0  0
   51.5170    5.0988   19.8520 O   0  0  0  0  0  0  0  0  0  0  0  0
   51.0097    3.4109   18.1125 O   0  0  0  0  0  0  0  0  0  0  0  0
   53.6145    4.0316   19.5699 C   0  0  0  0  0  0  0  0  0  0  0  0
   54.0803    3.9657   20.8801 C   0  0  0  0  0  0  0  0  0  0  0  0
   52.2955    4.4511   19.3126 C   0  0  0  0  0  0  0  0  0  0  0  0
   53.2548    4.3241   21.9407 C   0  0  0  0  0  0  0  0  0  0  0  0
   51.4840    4.8243   20.3993 C   0  0  0  0  0  0  0  0  0  0  0  0
   49.3169    4.9246   17.9850 N   0  0  0  0  0  0  0  0  0  0  0  0
   51.9610    4.7574   21.7119 C   0  0  0  0  0  0  0  0  0  0  0  0
   50.3815    3.9809   17.6017 C   0  0  0  0  0  0  0  0  0  0  0  0
   51.8079    4.5379   17.8752 C   0  0  1  0  0  0  0  0  0  0  0  0
   55.3496    3.5516   21.1759 O   0  0  0  0  0  0  0  0  0  0  0  0
   53.7209    4.2514   23.2216 O   0  0  0  0  0  0  0  0  0  0  0  0
   51.8935    5.8924   17.4046 O   0  0  0  0  0  0  0  0  0  0  0  0
   47.9493    4.5186   17.6458 C   0  0  0  0  0  0  0  0  0  0  0  0
   47.6888    4.4834   16.1374 C   0  0  0  0  0  0  0  0  0  0  0  0
   47.5406    3.2006   18.3083 C   0  0  0  0  0  0  0  0  0  0  0  0
   50.9632    4.1280   18.7991 O   0  0  0  0  0  0  0  0  0  0  0  0
   50.9541    4.1256   18.7888 O   0  0  0  0  0  0  0  0  0  0  0  0
   53.2519    2.5214   20.0105 H   0  0  0  0  0  0  0  0  0  0  0  0
   51.5454    6.2678   18.6827 H   0  0  0  0  0  0  0  0  0  0  0  0
   49.5112    4.6446   16.7026 H   0  0  0  0  0  0  0  0  0  0  0  0
   52.3609    7.3656   20.7318 H   0  0  0  0  0  0  0  0  0  0  0  0
   50.1272    2.8864   18.9929 H   0  0  0  0  0  0  0  0  0  0  0  0
   50.1368    2.4885   17.2775 H   0  0  0  0  0  0  0  0  0  0  0  0
   51.9923    4.3636   17.0614 H   0  0  0  0  0  0  0  0  0  0  0  0
   54.4327    4.1359   22.9185 H   0  0  0  0  0  0  0  0  0  0  0  0
   53.4568    7.0487   22.6962 H   0  0  0  0  0  0  0  0  0  0  0  0
   53.5366    2.7697   17.6122 H   0  0  0  0  0  0  0  0  0  0  0  0
   48.0025    3.9621   19.1455 H   0  0  0  0  0  0  0  0  0  0  0  0
   47.7126    6.3181   18.4022 H   0  0  0  0  0  0  0  0  0  0  0  0
   47.2697    5.7650   16.7778 H   0  0  0  0  0  0  0  0  0  0  0  0
   46.2349    5.3788   18.1636 H   0  0  0  0  0  0  0  0  0  0  0  0
   47.8677    2.0836   17.5220 H   0  0  0  0  0  0  0  0  0  0  0  0
   46.3430    2.9647   17.5329 H   0  0  0  0  0  0  0  0  0  0  0  0
   47.4888    3.2117   16.2049 H   0  0  0  0  0  0  0  0  0  0  0  0
   52.0688    5.6700   19.2755 H   0  0  0  0  0  0  0  0  0  0  0  0
   50.9990    2.5919   18.6503 H   0  0  0  0  0  0  0  0  0  0  0  0
   54.2642    3.7569   18.7441 H   0  0  0  0  0  0  0  0  0  0  0  0
   50.4662    5.1759   20.2401 H   0  0  0  0  0  0  0  0  0  0  0  0
   49.5348    5.8239   17.5423 H   0  0  0  0  0  0  0  0  0  0  0  0
   51.3227    5.0442   22.5430 H   0  0  0  0  0  0  0  0  0  0  0  0
   50.3141    3.8019   16.5232 H   0  0  0  0  0  0  0  0  0  0  0  0
   50.2645    3.0208   18.1151 H   0  0  0  0  0  0  0  0  0  0  0  0
   52.4924    3.9527   17.2480 H   0  0  0  0  0  0  0  0  0  0  0  0
   55.8127    3.3655   20.3409 H   0  0  0  0  0  0  0  0  0  0  0  0
   54.6234    3.8907   23.1326 H   0  0  0  0  0  0  0  0  0  0  0  0
   52.2569    6.4278   18.1303 H   0  0  0  0  0  0  0  0  0  0  0  0
   47.2984    5.2973   18.0617 H   0  0  0  0  0  0  0  0  0  0  0  0
   48.2359    3.6734   15.6422 H   0  0  0  0  0  0  0  0  0  0  0  0
   46.6229    4.3265   15.9388 H   0  0  0  0  0  0  0  0  0  0  0  0
   47.9775    5.4295   15.6659 H   0  0  0  0  0  0  0  0  0  0  0  0
   46.4608    3.0488   18.2076 H   0  0  0  0  0  0  0  0  0  0  0  0
   47.7700    3.2119   19.3788 H   0  0  0  0  0  0  0  0  0  0  0  0
   48.0409    2.3384   17.8565 H   0  0  0  0  0  0  0  0  0  0  0  0
   50.0935    4.4484   18.5177 H   0  0  0  0  0  0  0  0  0  0  0  0
   51.1547    4.6340   19.6036 H   0  0  0  0  0  0  0  0  0  0  0  0
   51.1736    4.6159   19.5954 H   0  0  0  0  0  0  0  0  0  0  0  0
   50.0838    4.4689   18.5364 H   0  0  0  0  0  0  0  0  0  0  0  0
  2  1  2  0
  3  1  1  0
  4  2  1  0
  5  3  2  0
  6  8  1  0
  7  5  1  0
  8  9  1  0
  9  3  1  0
 10  2  1  0
 11  4  1  0
 12  9  1  0
 13  6  1  0
 14 13  1  0
 15 13  1  0
  7  4  2  0
 17 16  2  0
 18 16  2  0
 19 16  1  0
 20 16  1  0
 22 21  2  0
 23 21  1  0
 24 22  1  0
 25 23  2  0
 26 28  1  0
 27 25  1  0
 28 29  1  0
 29 23  1  0
 30 22  1  0
 31 24  1  0
 32 29  1  0
 33 26  1  0
 34 33  1  0
 35 33  1  0
 27 24  2  0
  1 38  1  0
  5 39  1  0
  6 40  1  0
  7 41  1  0
  8 42  1  0
  8 43  1  0
  9 44  1  1
 10 45  1  0
 11 46  1  0
 12 47  1  0
 13 48  1  0
 14 49  1  0
 14 50  1  0
 14 51  1  0
 15 52  1  0
 15 53  1  0
 15 54  1  0
 19 55  1  0
 20 56  1  0
 21 57  1  0
 25 58  1  0
 26 59  1  0
 27 60  1  0
 28 61  1  0
 28 62  1  0
 29 63  1  1
 30 64  1  0
 31 65  1  0
 32 66  1  0
 33 67  1  0
 34 68  1  0
 34 69  1  0
 34 70  1  0
 35 71  1  0
 35 72  1  0
 35 73  1  0
 36 74  1  0
 36 75  1  0
 37 76  1  0
 37 77  1  0
M  END
> <Uni-Dock RESULT> 
ENERGY=   -4.439  LOWER_BOUND=    7.262  UPPER_BOUND=    9.970
INTER + INTRA:          -4.439
INTER:                  -4.439
INTRA:                   0.000
UNBOUND:                 0.000

$$$$
