
     RDKit          3D

 77 74  0  0  0  0  0  0  0  0999 V2000
   44.7727    4.9433    9.7476 C   0  0  0  0  0  0  0  0  0  0  0  0
   44.8047    3.7890    8.9701 C   0  0  0  0  0  0  0  0  0  0  0  0
   44.5041    4.8535   11.1281 C   0  0  0  0  0  0  0  0  0  0  0  0
   44.5643    2.5438    9.5437 C   0  0  0  0  0  0  0  0  0  0  0  0
   44.2684    3.5819   11.6879 C   0  0  0  0  0  0  0  0  0  0  0  0
   45.8271    7.8250   13.1528 N   0  0  0  0  0  0  0  0  0  0  0  0
   44.2986    2.4291   10.8985 C   0  0  0  0  0  0  0  0  0  0  0  0
   45.8180    6.8424   12.0472 C   0  0  0  0  0  0  0  0  0  0  0  0
   44.4489    6.1145   11.9713 C   0  0  2  0  0  0  0  0  0  0  0  0
   45.0648    3.8286    7.6273 O   0  0  0  0  0  0  0  0  0  0  0  0
   44.5839    1.4190    8.7695 O   0  0  0  0  0  0  0  0  0  0  0  0
   43.9885    5.8377   13.2980 O   0  0  0  0  0  0  0  0  0  0  0  0
   46.8314    8.8927   13.0227 C   0  0  0  0  0  0  0  0  0  0  0  0
   48.2534    8.3800   12.8004 C   0  0  0  0  0  0  0  0  0  0  0  0
   46.4327    9.9072   11.9505 C   0  0  0  0  0  0  0  0  0  0  0  0
   45.4874    6.1615   11.8258 S   0  0  0  0  0  0  0  0  0  0  0  0
   45.8852    4.8697   12.3273 O   0  0  0  0  0  0  0  0  0  0  0  0
   45.2794    7.3018   12.6826 O   0  0  0  0  0  0  0  0  0  0  0  0
   46.5865    6.5895   10.7374 O   0  0  0  0  0  0  0  0  0  0  0  0
   44.1927    5.9533   10.8998 O   0  0  0  0  0  0  0  0  0  0  0  0
   45.3065    5.3474    9.9643 C   0  0  0  0  0  0  0  0  0  0  0  0
   45.5192    4.2487    9.1400 C   0  0  0  0  0  0  0  0  0  0  0  0
   44.3612    5.2726   10.9984 C   0  0  0  0  0  0  0  0  0  0  0  0
   44.8058    3.0687    9.3202 C   0  0  0  0  0  0  0  0  0  0  0  0
   43.6354    4.0750   11.1607 C   0  0  0  0  0  0  0  0  0  0  0  0
   46.3364    6.8559   12.8723 N   0  0  0  0  0  0  0  0  0  0  0  0
   43.8592    2.9721   10.3302 C   0  0  0  0  0  0  0  0  0  0  0  0
   45.1866    7.4593   12.1855 C   0  0  0  0  0  0  0  0  0  0  0  0
   44.0402    6.4506   11.9007 C   0  0  1  0  0  0  0  0  0  0  0  0
   46.4421    4.3384    8.1367 O   0  0  0  0  0  0  0  0  0  0  0  0
   45.0668    2.0295    8.4703 O   0  0  0  0  0  0  0  0  0  0  0  0
   42.9396    7.1705   11.3311 O   0  0  0  0  0  0  0  0  0  0  0  0
   47.4659    7.7584   13.1272 C   0  0  0  0  0  0  0  0  0  0  0  0
   48.1226    8.2595   11.8406 C   0  0  0  0  0  0  0  0  0  0  0  0
   47.1131    8.9177   14.0599 C   0  0  0  0  0  0  0  0  0  0  0  0
   45.8730    6.1234   11.1069 O   0  0  0  0  0  0  0  0  0  0  0  0
   45.8663    6.1145   11.1033 O   0  0  0  0  0  0  0  0  0  0  0  0
   44.9394    5.9148    9.2924 H   0  0  0  0  0  0  0  0  0  0  0  0
   44.0463    3.4813   12.7496 H   0  0  0  0  0  0  0  0  0  0  0  0
   46.0380    7.3037   14.0079 H   0  0  0  0  0  0  0  0  0  0  0  0
   44.1055    1.4549   11.3388 H   0  0  0  0  0  0  0  0  0  0  0  0
   46.6253    6.1154   12.2162 H   0  0  0  0  0  0  0  0  0  0  0  0
   46.0085    7.3166   11.0754 H   0  0  0  0  0  0  0  0  0  0  0  0
   43.7047    6.7851   11.5283 H   0  0  0  0  0  0  0  0  0  0  0  0
   45.3243    4.7370    7.3926 H   0  0  0  0  0  0  0  0  0  0  0  0
   44.7645    1.7480    7.8667 H   0  0  0  0  0  0  0  0  0  0  0  0
   44.0540    6.7009   13.7503 H   0  0  0  0  0  0  0  0  0  0  0  0
   46.8249    9.4305   13.9784 H   0  0  0  0  0  0  0  0  0  0  0  0
   48.9686    9.2070   12.8638 H   0  0  0  0  0  0  0  0  0  0  0  0
   48.3737    7.9192   11.8160 H   0  0  0  0  0  0  0  0  0  0  0  0
   48.5323    7.6441   13.5623 H   0  0  0  0  0  0  0  0  0  0  0  0
   46.5155    9.4939   10.9387 H   0  0  0  0  0  0  0  0  0  0  0  0
   47.0822   10.7891   12.0005 H   0  0  0  0  0  0  0  0  0  0  0  0
   45.3988   10.2518   12.0926 H   0  0  0  0  0  0  0  0  0  0  0  0
   47.3677    6.9254   11.2252 H   0  0  0  0  0  0  0  0  0  0  0  0
   44.4618    5.4762   10.0910 H   0  0  0  0  0  0  0  0  0  0  0  0
   45.8866    6.2480    9.7892 H   0  0  0  0  0  0  0  0  0  0  0  0
   42.8807    3.9976   11.9421 H   0  0  0  0  0  0  0  0  0  0  0  0
   46.0234    6.4520   13.7556 H   0  0  0  0  0  0  0  0  0  0  0  0
   43.2835    2.0665   10.4890 H   0  0  0  0  0  0  0  0  0  0  0  0
   45.4857    7.9298   11.2419 H   0  0  0  0  0  0  0  0  0  0  0  0
   44.7640    8.2651   12.7986 H   0  0  0  0  0  0  0  0  0  0  0  0
   43.6942    6.0691   12.8698 H   0  0  0  0  0  0  0  0  0  0  0  0
   46.4178    3.4649    7.7008 H   0  0  0  0  0  0  0  0  0  0  0  0
   44.4901    1.2869    8.7191 H   0  0  0  0  0  0  0  0  0  0  0  0
   42.8847    6.9247   10.3898 H   0  0  0  0  0  0  0  0  0  0  0  0
   48.2212    7.1527   13.6438 H   0  0  0  0  0  0  0  0  0  0  0  0
   47.4822    8.9527   11.2879 H   0  0  0  0  0  0  0  0  0  0  0  0
   49.0551    8.7883   12.0696 H   0  0  0  0  0  0  0  0  0  0  0  0
   48.3751    7.4214   11.1822 H   0  0  0  0  0  0  0  0  0  0  0  0
   46.6604    8.5513   14.9891 H   0  0  0  0  0  0  0  0  0  0  0  0
   48.0179    9.4738   14.3334 H   0  0  0  0  0  0  0  0  0  0  0  0
   46.4192    9.6269   13.5949 H   0  0  0  0  0  0  0  0  0  0  0  0
   45.0584    5.6286   11.2835 H   0  0  0  0  0  0  0  0  0  0  0  0
   45.8946    6.7956   11.8051 H   0  0  0  0  0  0  0  0  0  0  0  0
   45.0468    5.6366   11.3020 H   0  0  0  0  0  0  0  0  0  0  0  0
   45.9128    6.7963   11.7901 H   0  0  0  0  0  0  0  0  0  0  0  0
  2  1  2  0
  3  1  1  0
  4  2  1  0
  5  3  2  0
  6  8  1  0
  7  5  1  0
  8  9  1  0
  9  3  1  0
 10  2  1  0
 11  4  1  0
 12  9  1  0
 13  6  1  0
 14 13  1  0
 15 13  1  0
  7  4  2  0
 17 16  2  0
 18 16  2  0
 19 16  1  0
 20 16  1  0
 22 21  2  0
 23 21  1  0
 24 22  1  0
 25 23  2  0
 26 28  1  0
 27 25  1  0
 28 29  1  0
 29 23  1  0
 30 22  1  0
 31 24  1  0
 32 29  1  0
 33 26  1  0
 34 33  1  0
 35 33  1  0
 27 24  2  0
  1 38  1  0
  5 39  1  0
  6 40  1  0
  7 41  1  0
  8 42  1  0
  8 43  1  0
  9 44  1  6
 10 45  1  0
 11 46  1  0
 12 47  1  0
 13 48  1  0
 14 49  1  0
 14 50  1  0
 14 51  1  0
 15 52  1  0
 15 53  1  0
 15 54  1  0
 19 55  1  0
 20 56  1  0
 21 57  1  0
 25 58  1  0
 26 59  1  0
 27 60  1  0
 28 61  1  0
 28 62  1  0
 29 63  1  1
 30 64  1  0
 31 65  1  0
 32 66  1  0
 33 67  1  0
 34 68  1  0
 34 69  1  0
 34 70  1  0
 35 71  1  0
 35 72  1  0
 35 73  1  0
 36 74  1  0
 36 75  1  0
 37 76  1  0
 37 77  1  0
M  END
> <Uni-Dock RESULT> 
ENERGY=   -8.307  LOWER_BOUND=    0.000  UPPER_BOUND=    0.000
INTER + INTRA:          -8.307
INTER:                  -8.307
INTRA:                   0.000
UNBOUND:                 0.000

$$$$

     RDKit          3D

 77 74  0  0  0  0  0  0  0  0999 V2000
   49.8542    4.6082   18.5129 C   0  0  0  0  0  0  0  0  0  0  0  0
   50.4612    3.6635   17.6901 C   0  0  0  0  0  0  0  0  0  0  0  0
   48.4710    4.5303   18.7711 C   0  0  0  0  0  0  0  0  0  0  0  0
   49.7104    2.6445   17.1109 C   0  0  0  0  0  0  0  0  0  0  0  0
   47.7320    3.4874   18.1777 C   0  0  0  0  0  0  0  0  0  0  0  0
   47.4065    6.2768   22.0108 N   0  0  0  0  0  0  0  0  0  0  0  0
   48.3494    2.5460   17.3498 C   0  0  0  0  0  0  0  0  0  0  0  0
   48.3193    5.5321   21.1163 C   0  0  0  0  0  0  0  0  0  0  0  0
   47.8063    5.5728   19.6516 C   0  0  2  0  0  0  0  0  0  0  0  0
   51.8011    3.6984   17.4149 O   0  0  0  0  0  0  0  0  0  0  0  0
   50.3128    1.7311   16.2937 O   0  0  0  0  0  0  0  0  0  0  0  0
   46.3820    5.4308   19.6474 O   0  0  0  0  0  0  0  0  0  0  0  0
   48.0110    6.7282   23.2743 C   0  0  0  0  0  0  0  0  0  0  0  0
   48.6870    5.6124   24.0694 C   0  0  0  0  0  0  0  0  0  0  0  0
   48.9614    7.9047   23.0500 C   0  0  0  0  0  0  0  0  0  0  0  0
   48.3292    5.1223   20.4426 S   0  0  0  0  0  0  0  0  0  0  0  0
   47.8759    3.7594   20.3193 O   0  0  0  0  0  0  0  0  0  0  0  0
   47.5826    6.1331   21.1488 O   0  0  0  0  0  0  0  0  0  0  0  0
   49.7855    5.0627   21.1145 O   0  0  0  0  0  0  0  0  0  0  0  0
   48.6836    5.6587   18.9715 O   0  0  0  0  0  0  0  0  0  0  0  0
   49.8943    4.6792   19.2118 C   0  0  0  0  0  0  0  0  0  0  0  0
   50.6171    3.6993   18.5416 C   0  0  0  0  0  0  0  0  0  0  0  0
   48.5825    4.9762   18.8124 C   0  0  0  0  0  0  0  0  0  0  0  0
   50.0618    3.0041   17.4728 C   0  0  0  0  0  0  0  0  0  0  0  0
   48.0373    4.2734   17.7186 C   0  0  0  0  0  0  0  0  0  0  0  0
   47.7505    5.2138   21.8407 N   0  0  0  0  0  0  0  0  0  0  0  0
   48.7695    3.2850   17.0528 C   0  0  0  0  0  0  0  0  0  0  0  0
   48.0239    6.3620   20.9663 C   0  0  0  0  0  0  0  0  0  0  0  0
   47.7562    6.0702   19.4643 C   0  0  1  0  0  0  0  0  0  0  0  0
   51.8937    3.4233   18.9421 O   0  0  0  0  0  0  0  0  0  0  0  0
   50.8323    2.0548   16.8600 O   0  0  0  0  0  0  0  0  0  0  0  0
   47.9520    7.2846   18.7289 O   0  0  0  0  0  0  0  0  0  0  0  0
   48.0283    5.4244   23.2668 C   0  0  0  0  0  0  0  0  0  0  0  0
   49.5120    5.6621   23.5499 C   0  0  0  0  0  0  0  0  0  0  0  0
   47.1602    6.5148   23.8959 C   0  0  0  0  0  0  0  0  0  0  0  0
   49.1313    4.9697   20.4616 O   0  0  0  0  0  0  0  0  0  0  0  0
   49.1312    4.9657   20.4507 O   0  0  0  0  0  0  0  0  0  0  0  0
   50.4393    5.4141   18.9453 H   0  0  0  0  0  0  0  0  0  0  0  0
   46.6591    3.4076   18.3487 H   0  0  0  0  0  0  0  0  0  0  0  0
   46.6395    5.6405   22.2442 H   0  0  0  0  0  0  0  0  0  0  0  0
   47.7681    1.7519   16.8895 H   0  0  0  0  0  0  0  0  0  0  0  0
   48.3842    4.4921   21.4668 H   0  0  0  0  0  0  0  0  0  0  0  0
   49.3373    5.9433   21.1345 H   0  0  0  0  0  0  0  0  0  0  0  0
   48.0116    6.5591   19.2217 H   0  0  0  0  0  0  0  0  0  0  0  0
   52.2102    4.3835   17.9725 H   0  0  0  0  0  0  0  0  0  0  0  0
   51.2480    2.0144   16.2596 H   0  0  0  0  0  0  0  0  0  0  0  0
   46.0804    6.1060   20.2854 H   0  0  0  0  0  0  0  0  0  0  0  0
   47.1835    7.1082   23.8854 H   0  0  0  0  0  0  0  0  0  0  0  0
   48.9806    5.9769   25.0595 H   0  0  0  0  0  0  0  0  0  0  0  0
   49.5912    5.2466   23.5750 H   0  0  0  0  0  0  0  0  0  0  0  0
   48.0085    4.7655   24.2181 H   0  0  0  0  0  0  0  0  0  0  0  0
   49.8821    7.6011   22.5386 H   0  0  0  0  0  0  0  0  0  0  0  0
   49.2489    8.3503   24.0096 H   0  0  0  0  0  0  0  0  0  0  0  0
   48.4849    8.6934   22.4508 H   0  0  0  0  0  0  0  0  0  0  0  0
   49.6594    4.9285   22.0773 H   0  0  0  0  0  0  0  0  0  0  0  0
   49.4790    5.1898   18.6524 H   0  0  0  0  0  0  0  0  0  0  0  0
   50.3660    5.1960   20.0418 H   0  0  0  0  0  0  0  0  0  0  0  0
   47.0289    4.4993   17.3747 H   0  0  0  0  0  0  0  0  0  0  0  0
   46.7765    4.9316   21.7266 H   0  0  0  0  0  0  0  0  0  0  0  0
   48.3139    2.7633   16.2179 H   0  0  0  0  0  0  0  0  0  0  0  0
   49.0555    6.7145   21.0793 H   0  0  0  0  0  0  0  0  0  0  0  0
   47.3875    7.2095   21.2499 H   0  0  0  0  0  0  0  0  0  0  0  0
   46.6932    5.8154   19.3668 H   0  0  0  0  0  0  0  0  0  0  0  0
   52.1943    2.7176   18.3377 H   0  0  0  0  0  0  0  0  0  0  0  0
   50.3107    1.6667   16.1368 H   0  0  0  0  0  0  0  0  0  0  0  0
   48.7745    7.1868   18.2157 H   0  0  0  0  0  0  0  0  0  0  0  0
   47.7660    4.4822   23.7643 H   0  0  0  0  0  0  0  0  0  0  0  0
   49.8593    6.6279   23.1723 H   0  0  0  0  0  0  0  0  0  0  0  0
   49.7012    5.6463   24.6295 H   0  0  0  0  0  0  0  0  0  0  0  0
   50.1239    4.8734   23.0991 H   0  0  0  0  0  0  0  0  0  0  0  0
   46.0963    6.3289   23.7063 H   0  0  0  0  0  0  0  0  0  0  0  0
   47.3011    6.5320   24.9833 H   0  0  0  0  0  0  0  0  0  0  0  0
   47.4086    7.5123   23.5163 H   0  0  0  0  0  0  0  0  0  0  0  0
   48.6147    4.9194   19.6429 H   0  0  0  0  0  0  0  0  0  0  0  0
   48.5661    5.4772   21.0641 H   0  0  0  0  0  0  0  0  0  0  0  0
   48.5942    4.9302   19.6445 H   0  0  0  0  0  0  0  0  0  0  0  0
   48.5868    5.4703   21.0732 H   0  0  0  0  0  0  0  0  0  0  0  0
  2  1  2  0
  3  1  1  0
  4  2  1  0
  5  3  2  0
  6  8  1  0
  7  5  1  0
  8  9  1  0
  9  3  1  0
 10  2  1  0
 11  4  1  0
 12  9  1  0
 13  6  1  0
 14 13  1  0
 15 13  1  0
  7  4  2  0
 17 16  2  0
 18 16  2  0
 19 16  1  0
 20 16  1  0
 22 21  2  0
 23 21  1  0
 24 22  1  0
 25 23  2  0
 26 28  1  0
 27 25  1  0
 28 29  1  0
 29 23  1  0
 30 22  1  0
 31 24  1  0
 32 29  1  0
 33 26  1  0
 34 33  1  0
 35 33  1  0
 27 24  2  0
  1 38  1  0
  5 39  1  0
  6 40  1  0
  7 41  1  0
  8 42  1  0
  8 43  1  0
  9 44  1  6
 10 45  1  0
 11 46  1  0
 12 47  1  0
 13 48  1  0
 14 49  1  0
 14 50  1  0
 14 51  1  0
 15 52  1  0
 15 53  1  0
 15 54  1  0
 19 55  1  0
 20 56  1  0
 21 57  1  0
 25 58  1  0
 26 59  1  0
 27 60  1  0
 28 61  1  0
 28 62  1  0
 29 63  1  1
 30 64  1  0
 31 65  1  0
 32 66  1  0
 33 67  1  0
 34 68  1  0
 34 69  1  0
 34 70  1  0
 35 71  1  0
 35 72  1  0
 35 73  1  0
 36 74  1  0
 36 75  1  0
 37 76  1  0
 37 77  1  0
M  END
> <Uni-Dock RESULT> 
ENERGY=   -5.903  LOWER_BOUND=    8.019  UPPER_BOUND=    9.690
INTER + INTRA:          -5.903
INTER:                  -5.903
INTRA:                   0.000
UNBOUND:                 0.000

$$$$

     RDKit          3D

 77 74  0  0  0  0  0  0  0  0999 V2000
   47.3324    5.6174   13.2690 C   0  0  0  0  0  0  0  0  0  0  0  0
   46.4240    4.5642   13.2096 C   0  0  0  0  0  0  0  0  0  0  0  0
   46.9942    6.8693   12.7172 C   0  0  0  0  0  0  0  0  0  0  0  0
   45.1841    4.7342   12.6003 C   0  0  0  0  0  0  0  0  0  0  0  0
   45.7316    7.0193   12.1095 C   0  0  0  0  0  0  0  0  0  0  0  0
   48.9659    9.7956   14.2097 N   0  0  0  0  0  0  0  0  0  0  0  0
   44.8278    5.9551   12.0511 C   0  0  0  0  0  0  0  0  0  0  0  0
   48.3057    8.4720   14.2131 C   0  0  0  0  0  0  0  0  0  0  0  0
   47.9933    8.0110   12.7640 C   0  0  2  0  0  0  0  0  0  0  0  0
   46.7085    3.3333   13.7351 O   0  0  0  0  0  0  0  0  0  0  0  0
   44.3057    3.6906   12.5346 O   0  0  0  0  0  0  0  0  0  0  0  0
   47.5417    9.1338   11.9997 O   0  0  0  0  0  0  0  0  0  0  0  0
   49.7390   10.1040   15.4233 C   0  0  0  0  0  0  0  0  0  0  0  0
   48.9445    9.9469   16.7189 C   0  0  0  0  0  0  0  0  0  0  0  0
   51.0437    9.3083   15.4719 C   0  0  0  0  0  0  0  0  0  0  0  0
   47.8042    8.0284   13.7964 S   0  0  0  0  0  0  0  0  0  0  0  0
   46.3734    8.2046   13.8020 O   0  0  0  0  0  0  0  0  0  0  0  0
   48.7263    9.1290   13.6686 O   0  0  0  0  0  0  0  0  0  0  0  0
   48.1776    7.2619   15.1561 O   0  0  0  0  0  0  0  0  0  0  0  0
   48.1588    6.9119   12.6987 O   0  0  0  0  0  0  0  0  0  0  0  0
   47.5232    6.0082   13.8222 C   0  0  0  0  0  0  0  0  0  0  0  0
   46.6314    4.9508   13.9567 C   0  0  0  0  0  0  0  0  0  0  0  0
   47.4543    6.8416   12.6955 C   0  0  0  0  0  0  0  0  0  0  0  0
   45.6664    4.6992   12.9875 C   0  0  0  0  0  0  0  0  0  0  0  0
   46.4801    6.5664   11.7142 C   0  0  0  0  0  0  0  0  0  0  0  0
   47.9919    9.3321   14.5469 N   0  0  0  0  0  0  0  0  0  0  0  0
   45.5829    5.5034   11.8598 C   0  0  0  0  0  0  0  0  0  0  0  0
   49.0142    8.6866   13.7126 C   0  0  0  0  0  0  0  0  0  0  0  0
   48.4301    7.9802   12.4586 C   0  0  1  0  0  0  0  0  0  0  0  0
   46.7129    4.1478   15.0591 O   0  0  0  0  0  0  0  0  0  0  0  0
   44.8238    3.6404   13.1860 O   0  0  0  0  0  0  0  0  0  0  0  0
   49.5215    7.4850   11.6727 O   0  0  0  0  0  0  0  0  0  0  0  0
   48.4878    9.9784   15.7682 C   0  0  0  0  0  0  0  0  0  0  0  0
   49.0899    8.9825   16.7599 C   0  0  0  0  0  0  0  0  0  0  0  0
   49.4472   11.1365   15.4909 C   0  0  0  0  0  0  0  0  0  0  0  0
   47.8376    7.3869   14.3007 O   0  0  0  0  0  0  0  0  0  0  0  0
   47.8319    7.3801   14.2932 O   0  0  0  0  0  0  0  0  0  0  0  0
   48.3069    5.4747   13.7258 H   0  0  0  0  0  0  0  0  0  0  0  0
   45.4458    7.9713   11.6636 H   0  0  0  0  0  0  0  0  0  0  0  0
   48.2227   10.4948   14.1298 H   0  0  0  0  0  0  0  0  0  0  0  0
   43.8610    6.0792   11.5714 H   0  0  0  0  0  0  0  0  0  0  0  0
   47.3769    8.5437   14.7970 H   0  0  0  0  0  0  0  0  0  0  0  0
   48.9288    7.7041   14.6903 H   0  0  0  0  0  0  0  0  0  0  0  0
   48.9172    7.6718   12.2831 H   0  0  0  0  0  0  0  0  0  0  0  0
   47.5484    3.3958   14.2233 H   0  0  0  0  0  0  0  0  0  0  0  0
   44.7790    2.9470   12.9577 H   0  0  0  0  0  0  0  0  0  0  0  0
   48.2282    9.8108   12.1554 H   0  0  0  0  0  0  0  0  0  0  0  0
   50.0212   11.1604   15.3405 H   0  0  0  0  0  0  0  0  0  0  0  0
   49.5210   10.3333   17.5661 H   0  0  0  0  0  0  0  0  0  0  0  0
   48.7119    8.9000   16.9327 H   0  0  0  0  0  0  0  0  0  0  0  0
   48.0045   10.5076   16.6770 H   0  0  0  0  0  0  0  0  0  0  0  0
   50.8717    8.2432   15.6653 H   0  0  0  0  0  0  0  0  0  0  0  0
   51.6918    9.6879   16.2706 H   0  0  0  0  0  0  0  0  0  0  0  0
   51.5995    9.3960   14.5278 H   0  0  0  0  0  0  0  0  0  0  0  0
   48.1773    7.9259   15.8772 H   0  0  0  0  0  0  0  0  0  0  0  0
   47.8316    6.0481   13.0162 H   0  0  0  0  0  0  0  0  0  0  0  0
   48.2594    6.1694   14.6035 H   0  0  0  0  0  0  0  0  0  0  0  0
   46.4189    7.1848   10.8198 H   0  0  0  0  0  0  0  0  0  0  0  0
   47.4870   10.0183   13.9852 H   0  0  0  0  0  0  0  0  0  0  0  0
   44.8448    5.3260   11.0849 H   0  0  0  0  0  0  0  0  0  0  0  0
   49.5993    7.9594   14.2873 H   0  0  0  0  0  0  0  0  0  0  0  0
   49.7349    9.4336   13.3572 H   0  0  0  0  0  0  0  0  0  0  0  0
   47.9346    8.7496   11.8529 H   0  0  0  0  0  0  0  0  0  0  0  0
   46.0022    3.4893   14.9372 H   0  0  0  0  0  0  0  0  0  0  0  0
   44.2178    3.5934   12.4269 H   0  0  0  0  0  0  0  0  0  0  0  0
   49.5255    6.5141   11.7559 H   0  0  0  0  0  0  0  0  0  0  0  0
   47.6047   10.4071   16.2587 H   0  0  0  0  0  0  0  0  0  0  0  0
   50.0339    8.5594   16.4051 H   0  0  0  0  0  0  0  0  0  0  0  0
   49.2921    9.4743   17.7185 H   0  0  0  0  0  0  0  0  0  0  0  0
   48.3932    8.1602   16.9549 H   0  0  0  0  0  0  0  0  0  0  0  0
   49.0027   11.8574   14.7943 H   0  0  0  0  0  0  0  0  0  0  0  0
   49.6717   11.6742   16.4199 H   0  0  0  0  0  0  0  0  0  0  0  0
   50.3995   10.7938   15.0709 H   0  0  0  0  0  0  0  0  0  0  0  0
   47.5419    7.3067   13.3810 H   0  0  0  0  0  0  0  0  0  0  0  0
   48.2988    8.2393   14.3248 H   0  0  0  0  0  0  0  0  0  0  0  0
   47.5480    7.3249   13.3680 H   0  0  0  0  0  0  0  0  0  0  0  0
   48.2983    8.2277   14.3453 H   0  0  0  0  0  0  0  0  0  0  0  0
  2  1  2  0
  3  1  1  0
  4  2  1  0
  5  3  2  0
  6  8  1  0
  7  5  1  0
  8  9  1  0
  9  3  1  0
 10  2  1  0
 11  4  1  0
 12  9  1  0
 13  6  1  0
 14 13  1  0
 15 13  1  0
  7  4  2  0
 17 16  2  0
 18 16  2  0
 19 16  1  0
 20 16  1  0
 22 21  2  0
 23 21  1  0
 24 22  1  0
 25 23  2  0
 26 28  1  0
 27 25  1  0
 28 29  1  0
 29 23  1  0
 30 22  1  0
 31 24  1  0
 32 29  1  0
 33 26  1  0
 34 33  1  0
 35 33  1  0
 27 24  2  0
  1 38  1  0
  5 39  1  0
  6 40  1  0
  7 41  1  0
  8 42  1  0
  8 43  1  0
  9 44  1  6
 10 45  1  0
 11 46  1  0
 12 47  1  0
 13 48  1  0
 14 49  1  0
 14 50  1  0
 14 51  1  0
 15 52  1  0
 15 53  1  0
 15 54  1  0
 19 55  1  0
 20 56  1  0
 21 57  1  0
 25 58  1  0
 26 59  1  0
 27 60  1  0
 28 61  1  0
 28 62  1  0
 29 63  1  1
 30 64  1  0
 31 65  1  0
 32 66  1  0
 33 67  1  0
 34 68  1  0
 34 69  1  0
 34 70  1  0
 35 71  1  0
 35 72  1  0
 35 73  1  0
 36 74  1  0
 36 75  1  0
 37 76  1  0
 37 77  1  0
M  END
> <Uni-Dock RESULT> 
ENERGY=   -5.855  LOWER_BOUND=    2.759  UPPER_BOUND=    4.451
INTER + INTRA:          -5.855
INTER:                  -5.855
INTRA:                   0.000
UNBOUND:                 0.000

$$$$

     RDKit          3D

 77 74  0  0  0  0  0  0  0  0999 V2000
   47.5413    5.6859   13.3141 C   0  0  0  0  0  0  0  0  0  0  0  0
   46.3262    5.0135   13.2173 C   0  0  0  0  0  0  0  0  0  0  0  0
   47.5999    7.0714   13.0631 C   0  0  0  0  0  0  0  0  0  0  0  0
   45.1663    5.6976   12.8650 C   0  0  0  0  0  0  0  0  0  0  0  0
   46.4121    7.7439   12.7127 C   0  0  0  0  0  0  0  0  0  0  0  0
   50.5889    8.8119   14.7109 N   0  0  0  0  0  0  0  0  0  0  0  0
   45.1976    7.0597   12.6140 C   0  0  0  0  0  0  0  0  0  0  0  0
   49.5194    7.7980   14.5842 C   0  0  0  0  0  0  0  0  0  0  0  0
   48.9288    7.7998   13.1486 C   0  0  2  0  0  0  0  0  0  0  0  0
   46.2221    3.6701   13.4555 O   0  0  0  0  0  0  0  0  0  0  0  0
   43.9819    5.0261   12.7589 O   0  0  0  0  0  0  0  0  0  0  0  0
   48.8166    9.1501   12.6873 O   0  0  0  0  0  0  0  0  0  0  0  0
   51.5350    8.5782   15.8136 C   0  0  0  0  0  0  0  0  0  0  0  0
   50.8647    8.3888   17.1735 C   0  0  0  0  0  0  0  0  0  0  0  0
   52.4869    7.4240   15.4980 C   0  0  0  0  0  0  0  0  0  0  0  0
   48.8584    7.6409   14.1838 S   0  0  0  0  0  0  0  0  0  0  0  0
   47.5820    8.2513   14.4606 O   0  0  0  0  0  0  0  0  0  0  0  0
   50.0844    8.3952   14.1056 O   0  0  0  0  0  0  0  0  0  0  0  0
   49.0773    6.5086   15.2999 O   0  0  0  0  0  0  0  0  0  0  0  0
   48.7012    6.7493   12.8581 O   0  0  0  0  0  0  0  0  0  0  0  0
   47.9072    5.8608   13.8891 C   0  0  0  0  0  0  0  0  0  0  0  0
   46.7249    5.1353   13.9768 C   0  0  0  0  0  0  0  0  0  0  0  0
   48.0183    6.9064   12.9601 C   0  0  0  0  0  0  0  0  0  0  0  0
   45.6427    5.4261   13.1533 C   0  0  0  0  0  0  0  0  0  0  0  0
   46.9183    7.1810   12.1222 C   0  0  0  0  0  0  0  0  0  0  0  0
   49.5528    8.6137   15.1164 N   0  0  0  0  0  0  0  0  0  0  0  0
   45.7302    6.4496   12.2204 C   0  0  0  0  0  0  0  0  0  0  0  0
   50.2063    7.8870   14.0198 C   0  0  0  0  0  0  0  0  0  0  0  0
   49.2968    7.7035   12.7740 C   0  0  1  0  0  0  0  0  0  0  0  0
   46.6336    4.1194   14.8856 O   0  0  0  0  0  0  0  0  0  0  0  0
   44.5124    4.6693   13.2944 O   0  0  0  0  0  0  0  0  0  0  0  0
   50.0711    7.0827   11.7400 O   0  0  0  0  0  0  0  0  0  0  0  0
   50.3562    8.7769   16.3343 C   0  0  0  0  0  0  0  0  0  0  0  0
   50.6746    7.4448   17.0138 C   0  0  0  0  0  0  0  0  0  0  0  0
   51.6221    9.6063   16.1153 C   0  0  0  0  0  0  0  0  0  0  0  0
   48.7192    6.9247   14.5506 O   0  0  0  0  0  0  0  0  0  0  0  0
   48.7108    6.9219   14.5430 O   0  0  0  0  0  0  0  0  0  0  0  0
   48.4477    5.1448   13.5679 H   0  0  0  0  0  0  0  0  0  0  0  0
   46.4274    8.8124   12.5011 H   0  0  0  0  0  0  0  0  0  0  0  0
   50.1258    9.7079   14.8846 H   0  0  0  0  0  0  0  0  0  0  0  0
   44.2898    7.5864   12.3334 H   0  0  0  0  0  0  0  0  0  0  0  0
   48.7326    8.0232   15.3185 H   0  0  0  0  0  0  0  0  0  0  0  0
   49.8854    6.7861   14.8031 H   0  0  0  0  0  0  0  0  0  0  0  0
   49.6295    7.3061   12.4666 H   0  0  0  0  0  0  0  0  0  0  0  0
   47.0759    3.3533   13.7995 H   0  0  0  0  0  0  0  0  0  0  0  0
   44.2110    4.0960   12.9548 H   0  0  0  0  0  0  0  0  0  0  0  0
   49.7050    9.5235   12.8463 H   0  0  0  0  0  0  0  0  0  0  0  0
   52.1521    9.4824   15.8778 H   0  0  0  0  0  0  0  0  0  0  0  0
   51.6180    8.3719   17.9682 H   0  0  0  0  0  0  0  0  0  0  0  0
   50.3099    7.4481   17.2295 H   0  0  0  0  0  0  0  0  0  0  0  0
   50.1739    9.2103   17.3918 H   0  0  0  0  0  0  0  0  0  0  0  0
   51.9805    6.4521   15.5209 H   0  0  0  0  0  0  0  0  0  0  0  0
   53.3001    7.3894   16.2325 H   0  0  0  0  0  0  0  0  0  0  0  0
   52.9446    7.5446   14.5061 H   0  0  0  0  0  0  0  0  0  0  0  0
   49.3744    6.9573   16.1193 H   0  0  0  0  0  0  0  0  0  0  0  0
   48.1307    5.9835   13.0638 H   0  0  0  0  0  0  0  0  0  0  0  0
   48.7263    5.6010   14.5524 H   0  0  0  0  0  0  0  0  0  0  0  0
   46.9857    7.9733   11.3779 H   0  0  0  0  0  0  0  0  0  0  0  0
   49.2611    9.5323   14.7811 H   0  0  0  0  0  0  0  0  0  0  0  0
   44.9044    6.6935   11.5607 H   0  0  0  0  0  0  0  0  0  0  0  0
   50.5603    6.9026   14.3468 H   0  0  0  0  0  0  0  0  0  0  0  0
   51.1009    8.4301   13.6904 H   0  0  0  0  0  0  0  0  0  0  0  0
   49.0380    8.7059   12.4096 H   0  0  0  0  0  0  0  0  0  0  0  0
   45.7322    3.7629   14.7668 H   0  0  0  0  0  0  0  0  0  0  0  0
   43.8560    4.9885   12.6515 H   0  0  0  0  0  0  0  0  0  0  0  0
   49.7507    6.1675   11.6438 H   0  0  0  0  0  0  0  0  0  0  0  0
   49.7252    9.3381   17.0350 H   0  0  0  0  0  0  0  0  0  0  0  0
   51.3776    6.8388   16.4354 H   0  0  0  0  0  0  0  0  0  0  0  0
   51.1250    7.6172   17.9982 H   0  0  0  0  0  0  0  0  0  0  0  0
   49.7611    6.8610   17.1700 H   0  0  0  0  0  0  0  0  0  0  0  0
   51.3855   10.5686   15.6454 H   0  0  0  0  0  0  0  0  0  0  0  0
   52.1062    9.8209   17.0755 H   0  0  0  0  0  0  0  0  0  0  0  0
   52.3540    9.0868   15.4868 H   0  0  0  0  0  0  0  0  0  0  0  0
   48.3260    7.1521   13.6942 H   0  0  0  0  0  0  0  0  0  0  0  0
   49.4442    7.5603   14.6514 H   0  0  0  0  0  0  0  0  0  0  0  0
   48.3367    7.1699   13.6838 H   0  0  0  0  0  0  0  0  0  0  0  0
   49.4417    7.5450   14.6693 H   0  0  0  0  0  0  0  0  0  0  0  0
  2  1  2  0
  3  1  1  0
  4  2  1  0
  5  3  2  0
  6  8  1  0
  7  5  1  0
  8  9  1  0
  9  3  1  0
 10  2  1  0
 11  4  1  0
 12  9  1  0
 13  6  1  0
 14 13  1  0
 15 13  1  0
  7  4  2  0
 17 16  2  0
 18 16  2  0
 19 16  1  0
 20 16  1  0
 22 21  2  0
 23 21  1  0
 24 22  1  0
 25 23  2  0
 26 28  1  0
 27 25  1  0
 28 29  1  0
 29 23  1  0
 30 22  1  0
 31 24  1  0
 32 29  1  0
 33 26  1  0
 34 33  1  0
 35 33  1  0
 27 24  2  0
  1 38  1  0
  5 39  1  0
  6 40  1  0
  7 41  1  0
  8 42  1  0
  8 43  1  0
  9 44  1  6
 10 45  1  0
 11 46  1  0
 12 47  1  0
 13 48  1  0
 14 49  1  0
 14 50  1  0
 14 51  1  0
 15 52  1  0
 15 53  1  0
 15 54  1  0
 19 55  1  0
 20 56  1  0
 21 57  1  0
 25 58  1  0
 26 59  1  0
 27 60  1  0
 28 61  1  0
 28 62  1  0
 29 63  1  1
 30 64  1  0
 31 65  1  0
 32 66  1  0
 33 67  1  0
 34 68  1  0
 34 69  1  0
 34 70  1  0
 35 71  1  0
 35 72  1  0
 35 73  1  0
 36 74  1  0
 36 75  1  0
 37 76  1  0
 37 77  1  0
M  END
> <Uni-Dock RESULT> 
ENERGY=   -5.815  LOWER_BOUND=    3.203  UPPER_BOUND=    5.153
INTER + INTRA:          -5.815
INTER:                  -5.815
INTRA:                   0.000
UNBOUND:                 0.000

$$$$

     RDKit          3D

 77 74  0  0  0  0  0  0  0  0999 V2000
   46.3017    8.7484   12.6952 C   0  0  0  0  0  0  0  0  0  0  0  0
   45.0101    8.9066   12.2005 C   0  0  0  0  0  0  0  0  0  0  0  0
   46.9836    7.5302   12.5032 C   0  0  0  0  0  0  0  0  0  0  0  0
   44.3806    7.8661   11.5235 C   0  0  0  0  0  0  0  0  0  0  0  0
   46.3282    6.4925   11.8108 C   0  0  0  0  0  0  0  0  0  0  0  0
   50.7972    7.8533   12.6798 N   0  0  0  0  0  0  0  0  0  0  0  0
   45.0299    6.6592   11.3213 C   0  0  0  0  0  0  0  0  0  0  0  0
   49.4163    8.3031   12.3989 C   0  0  0  0  0  0  0  0  0  0  0  0
   48.3839    7.3514   13.0610 C   0  0  2  0  0  0  0  0  0  0  0  0
   44.3122   10.0726   12.3606 O   0  0  0  0  0  0  0  0  0  0  0  0
   43.1080    8.0265   11.0545 O   0  0  0  0  0  0  0  0  0  0  0  0
   48.8338    5.9995   12.9236 O   0  0  0  0  0  0  0  0  0  0  0  0
   51.8261    8.8973   12.5492 C   0  0  0  0  0  0  0  0  0  0  0  0
   51.8026    9.6236   11.2052 C   0  0  0  0  0  0  0  0  0  0  0  0
   51.7715    9.8847   13.7152 C   0  0  0  0  0  0  0  0  0  0  0  0
   48.6803    8.0316   12.3185 S   0  0  0  0  0  0  0  0  0  0  0  0
   48.1890    7.3670   11.1373 O   0  0  0  0  0  0  0  0  0  0  0  0
   49.9505    7.7147   12.9218 O   0  0  0  0  0  0  0  0  0  0  0  0
   48.6996    9.6018   11.9871 O   0  0  0  0  0  0  0  0  0  0  0  0
   47.5315    7.9607   13.4376 O   0  0  0  0  0  0  0  0  0  0  0  0
   46.9043    9.0249   12.4593 C   0  0  0  0  0  0  0  0  0  0  0  0
   45.6855    9.3358   11.8681 C   0  0  0  0  0  0  0  0  0  0  0  0
   47.1584    7.7135   12.8889 C   0  0  0  0  0  0  0  0  0  0  0  0
   44.7044    8.3655   11.6954 C   0  0  0  0  0  0  0  0  0  0  0  0
   46.1495    6.7433   12.7202 C   0  0  0  0  0  0  0  0  0  0  0  0
   50.1016    7.9619   11.7958 N   0  0  0  0  0  0  0  0  0  0  0  0
   44.9276    7.0633   12.1195 C   0  0  0  0  0  0  0  0  0  0  0  0
   49.7310    8.1008   13.2104 C   0  0  0  0  0  0  0  0  0  0  0  0
   48.4450    7.3168   13.5903 C   0  0  1  0  0  0  0  0  0  0  0  0
   45.4533   10.6177   11.4567 O   0  0  0  0  0  0  0  0  0  0  0  0
   43.5291    8.7443   11.1075 O   0  0  0  0  0  0  0  0  0  0  0  0
   48.2460    7.4384   15.0044 O   0  0  0  0  0  0  0  0  0  0  0  0
   51.2873    8.7186   11.3753 C   0  0  0  0  0  0  0  0  0  0  0  0
   51.0896   10.2311   11.4797 C   0  0  0  0  0  0  0  0  0  0  0  0
   52.5683    8.2748   12.0828 C   0  0  0  0  0  0  0  0  0  0  0  0
   48.3471    8.7640   12.1787 O   0  0  0  0  0  0  0  0  0  0  0  0
   48.3363    8.7598   12.1797 O   0  0  0  0  0  0  0  0  0  0  0  0
   46.7812    9.5548   13.2416 H   0  0  0  0  0  0  0  0  0  0  0  0
   46.8246    5.5350   11.6570 H   0  0  0  0  0  0  0  0  0  0  0  0
   51.0119    7.1197   11.9991 H   0  0  0  0  0  0  0  0  0  0  0  0
   44.5304    5.8489   10.7976 H   0  0  0  0  0  0  0  0  0  0  0  0
   49.2683    8.3247   11.3097 H   0  0  0  0  0  0  0  0  0  0  0  0
   49.2327    9.3200   12.7702 H   0  0  0  0  0  0  0  0  0  0  0  0
   48.3466    7.5480   14.1379 H   0  0  0  0  0  0  0  0  0  0  0  0
   44.9113   10.7378   12.7428 H   0  0  0  0  0  0  0  0  0  0  0  0
   42.8583    8.9301   11.3322 H   0  0  0  0  0  0  0  0  0  0  0  0
   49.7515    6.0262   13.2567 H   0  0  0  0  0  0  0  0  0  0  0  0
   52.7906    8.3807   12.6233 H   0  0  0  0  0  0  0  0  0  0  0  0
   52.6778   10.2751   11.1112 H   0  0  0  0  0  0  0  0  0  0  0  0
   50.9145   10.2520   11.0944 H   0  0  0  0  0  0  0  0  0  0  0  0
   51.8292    8.9138   10.3714 H   0  0  0  0  0  0  0  0  0  0  0  0
   50.8883   10.5322   13.6679 H   0  0  0  0  0  0  0  0  0  0  0  0
   52.6559   10.5326   13.7074 H   0  0  0  0  0  0  0  0  0  0  0  0
   51.7563    9.3605   14.6811 H   0  0  0  0  0  0  0  0  0  0  0  0
   49.5011    9.7791   11.4512 H   0  0  0  0  0  0  0  0  0  0  0  0
   46.7885    8.5297   13.1576 H   0  0  0  0  0  0  0  0  0  0  0  0
   47.6423    9.8127   12.5729 H   0  0  0  0  0  0  0  0  0  0  0  0
   46.3128    5.7230   13.0642 H   0  0  0  0  0  0  0  0  0  0  0  0
   50.2409    6.9738   11.5825 H   0  0  0  0  0  0  0  0  0  0  0  0
   44.1777    6.2881   12.0037 H   0  0  0  0  0  0  0  0  0  0  0  0
   49.5985    9.1528   13.4881 H   0  0  0  0  0  0  0  0  0  0  0  0
   50.5401    7.7245   13.8488 H   0  0  0  0  0  0  0  0  0  0  0  0
   48.6413    6.2550   13.3939 H   0  0  0  0  0  0  0  0  0  0  0  0
   44.5520   10.5965   11.0815 H   0  0  0  0  0  0  0  0  0  0  0  0
   42.9507    7.9636   11.0639 H   0  0  0  0  0  0  0  0  0  0  0  0
   47.4796    8.0240   15.1429 H   0  0  0  0  0  0  0  0  0  0  0  0
   51.4198    8.4973   10.3087 H   0  0  0  0  0  0  0  0  0  0  0  0
   51.0370   10.5745   12.5167 H   0  0  0  0  0  0  0  0  0  0  0  0
   51.9241   10.7584   11.0030 H   0  0  0  0  0  0  0  0  0  0  0  0
   50.1724   10.5386   10.9660 H   0  0  0  0  0  0  0  0  0  0  0  0
   52.7152    7.1922   11.9882 H   0  0  0  0  0  0  0  0  0  0  0  0
   53.4400    8.7643   11.6322 H   0  0  0  0  0  0  0  0  0  0  0  0
   52.5624    8.5298   13.1485 H   0  0  0  0  0  0  0  0  0  0  0  0
   47.8229    8.0067   12.4810 H   0  0  0  0  0  0  0  0  0  0  0  0
   49.2617    8.5083   12.3736 H   0  0  0  0  0  0  0  0  0  0  0  0
   47.8360    7.9897   12.4899 H   0  0  0  0  0  0  0  0  0  0  0  0
   49.2593    8.5296   12.3636 H   0  0  0  0  0  0  0  0  0  0  0  0
  2  1  2  0
  3  1  1  0
  4  2  1  0
  5  3  2  0
  6  8  1  0
  7  5  1  0
  8  9  1  0
  9  3  1  0
 10  2  1  0
 11  4  1  0
 12  9  1  0
 13  6  1  0
 14 13  1  0
 15 13  1  0
  7  4  2  0
 17 16  2  0
 18 16  2  0
 19 16  1  0
 20 16  1  0
 22 21  2  0
 23 21  1  0
 24 22  1  0
 25 23  2  0
 26 28  1  0
 27 25  1  0
 28 29  1  0
 29 23  1  0
 30 22  1  0
 31 24  1  0
 32 29  1  0
 33 26  1  0
 34 33  1  0
 35 33  1  0
 27 24  2  0
  1 38  1  0
  5 39  1  0
  6 40  1  0
  7 41  1  0
  8 42  1  0
  8 43  1  0
  9 44  1  6
 10 45  1  0
 11 46  1  0
 12 47  1  0
 13 48  1  0
 14 49  1  0
 14 50  1  0
 14 51  1  0
 15 52  1  0
 15 53  1  0
 15 54  1  0
 19 55  1  0
 20 56  1  0
 21 57  1  0
 25 58  1  0
 26 59  1  0
 27 60  1  0
 28 61  1  0
 28 62  1  0
 29 63  1  1
 30 64  1  0
 31 65  1  0
 32 66  1  0
 33 67  1  0
 34 68  1  0
 34 69  1  0
 34 70  1  0
 35 71  1  0
 35 72  1  0
 35 73  1  0
 36 74  1  0
 36 75  1  0
 37 76  1  0
 37 77  1  0
M  END
> <Uni-Dock RESULT> 
ENERGY=   -5.781  LOWER_BOUND=    3.257  UPPER_BOUND=    5.046
INTER + INTRA:          -5.781
INTER:                  -5.781
INTRA:                   0.000
UNBOUND:                 0.000

$$$$

     RDKit          3D

 77 74  0  0  0  0  0  0  0  0999 V2000
   47.4386    4.8892   18.1328 C   0  0  0  0  0  0  0  0  0  0  0  0
   47.5814    3.8879   17.1763 C   0  0  0  0  0  0  0  0  0  0  0  0
   48.4453    5.0870   19.0989 C   0  0  0  0  0  0  0  0  0  0  0  0
   48.7088    3.0716   17.1709 C   0  0  0  0  0  0  0  0  0  0  0  0
   49.5799    4.2517   19.0711 C   0  0  0  0  0  0  0  0  0  0  0  0
   48.4707    8.6118   20.6001 N   0  0  0  0  0  0  0  0  0  0  0  0
   49.7125    3.2464   18.1095 C   0  0  0  0  0  0  0  0  0  0  0  0
   48.2537    7.5945   19.5485 C   0  0  0  0  0  0  0  0  0  0  0  0
   48.2792    6.1653   20.1542 C   0  0  2  0  0  0  0  0  0  0  0  0
   46.6313    3.6627   16.2177 O   0  0  0  0  0  0  0  0  0  0  0  0
   48.8326    2.0829   16.2370 O   0  0  0  0  0  0  0  0  0  0  0  0
   49.3098    6.0920   21.1448 O   0  0  0  0  0  0  0  0  0  0  0  0
   47.9857    9.9603   20.2652 C   0  0  0  0  0  0  0  0  0  0  0  0
   48.5170   10.4961   18.9366 C   0  0  0  0  0  0  0  0  0  0  0  0
   46.4597   10.0359   20.3242 C   0  0  0  0  0  0  0  0  0  0  0  0
   48.4203    6.8453   19.3671 S   0  0  0  0  0  0  0  0  0  0  0  0
   49.6936    6.4017   18.8571 O   0  0  0  0  0  0  0  0  0  0  0  0
   48.2977    7.7447   20.4869 O   0  0  0  0  0  0  0  0  0  0  0  0
   47.6441    7.5231   18.1367 O   0  0  0  0  0  0  0  0  0  0  0  0
   47.5157    5.5458   19.6318 O   0  0  0  0  0  0  0  0  0  0  0  0
   47.4932    5.5866   18.0568 C   0  0  0  0  0  0  0  0  0  0  0  0
   47.6155    4.7287   16.9701 C   0  0  0  0  0  0  0  0  0  0  0  0
   48.0529    5.2321   19.2936 C   0  0  0  0  0  0  0  0  0  0  0  0
   48.2846    3.5152   17.0867 C   0  0  0  0  0  0  0  0  0  0  0  0
   48.7162    3.9928   19.4009 C   0  0  0  0  0  0  0  0  0  0  0  0
   48.9957    8.2119   19.6827 N   0  0  0  0  0  0  0  0  0  0  0  0
   48.8394    3.1375   18.3012 C   0  0  0  0  0  0  0  0  0  0  0  0
   47.8075    7.6309   20.3218 C   0  0  0  0  0  0  0  0  0  0  0  0
   47.9106    6.0956   20.5341 C   0  0  1  0  0  0  0  0  0  0  0  0
   47.0635    5.0882   15.7732 O   0  0  0  0  0  0  0  0  0  0  0  0
   48.3642    2.7214   15.9759 O   0  0  0  0  0  0  0  0  0  0  0  0
   46.7507    5.6631   21.2563 O   0  0  0  0  0  0  0  0  0  0  0  0
   48.9312    9.6550   19.4208 C   0  0  0  0  0  0  0  0  0  0  0  0
   47.8447   10.0232   18.4100 C   0  0  0  0  0  0  0  0  0  0  0  0
   48.8145   10.4944   20.6937 C   0  0  0  0  0  0  0  0  0  0  0  0
   48.0140    6.8496   18.6586 O   0  0  0  0  0  0  0  0  0  0  0  0
   48.0150    6.8381   18.6575 O   0  0  0  0  0  0  0  0  0  0  0  0
   46.5477    5.5096   18.1471 H   0  0  0  0  0  0  0  0  0  0  0  0
   50.3694    4.3721   19.8120 H   0  0  0  0  0  0  0  0  0  0  0  0
   49.4819    8.6735   20.7455 H   0  0  0  0  0  0  0  0  0  0  0  0
   50.5870    2.6017   18.1036 H   0  0  0  0  0  0  0  0  0  0  0  0
   49.0425    7.6992   18.7899 H   0  0  0  0  0  0  0  0  0  0  0  0
   47.2923    7.7327   19.0363 H   0  0  0  0  0  0  0  0  0  0  0  0
   47.3389    5.9781   20.6839 H   0  0  0  0  0  0  0  0  0  0  0  0
   45.9675    4.3727   16.2721 H   0  0  0  0  0  0  0  0  0  0  0  0
   48.0092    2.1387   15.7128 H   0  0  0  0  0  0  0  0  0  0  0  0
   49.1312    6.8596   21.7216 H   0  0  0  0  0  0  0  0  0  0  0  0
   48.3612   10.6206   21.0561 H   0  0  0  0  0  0  0  0  0  0  0  0
   48.2462   11.5505   18.8178 H   0  0  0  0  0  0  0  0  0  0  0  0
   48.1032    9.9545   18.0815 H   0  0  0  0  0  0  0  0  0  0  0  0
   49.6093   10.4293   18.8916 H   0  0  0  0  0  0  0  0  0  0  0  0
   45.9863    9.4925   19.4984 H   0  0  0  0  0  0  0  0  0  0  0  0
   46.1276   11.0791   20.2657 H   0  0  0  0  0  0  0  0  0  0  0  0
   46.0762    9.6212   21.2671 H   0  0  0  0  0  0  0  0  0  0  0  0
   48.0078    8.4261   18.0214 H   0  0  0  0  0  0  0  0  0  0  0  0
   47.2818    5.1485   18.7706 H   0  0  0  0  0  0  0  0  0  0  0  0
   46.9642    6.5247   17.9208 H   0  0  0  0  0  0  0  0  0  0  0  0
   49.1411    3.6838   20.3549 H   0  0  0  0  0  0  0  0  0  0  0  0
   49.8153    8.0111   20.2564 H   0  0  0  0  0  0  0  0  0  0  0  0
   49.3606    2.1938   18.4224 H   0  0  0  0  0  0  0  0  0  0  0  0
   46.8984    7.8482   19.7494 H   0  0  0  0  0  0  0  0  0  0  0  0
   47.6527    8.0845   21.3088 H   0  0  0  0  0  0  0  0  0  0  0  0
   48.7712    5.9150   21.1906 H   0  0  0  0  0  0  0  0  0  0  0  0
   47.2716    4.3463   15.1733 H   0  0  0  0  0  0  0  0  0  0  0  0
   48.8515    1.9153   16.2180 H   0  0  0  0  0  0  0  0  0  0  0  0
   46.1896    5.1625   20.6365 H   0  0  0  0  0  0  0  0  0  0  0  0
   49.8891    9.9166   18.9537 H   0  0  0  0  0  0  0  0  0  0  0  0
   46.8369    9.8858   18.8121 H   0  0  0  0  0  0  0  0  0  0  0  0
   47.9384   11.0750   18.1160 H   0  0  0  0  0  0  0  0  0  0  0  0
   47.9402    9.4197   17.5010 H   0  0  0  0  0  0  0  0  0  0  0  0
   49.6076   10.2399   21.4069 H   0  0  0  0  0  0  0  0  0  0  0  0
   48.9169   11.5601   20.4564 H   0  0  0  0  0  0  0  0  0  0  0  0
   47.8475   10.3598   21.1913 H   0  0  0  0  0  0  0  0  0  0  0  0
   48.2315    6.0281   19.1249 H   0  0  0  0  0  0  0  0  0  0  0  0
   48.1235    7.5375   19.3329 H   0  0  0  0  0  0  0  0  0  0  0  0
   48.2373    6.0316   19.1471 H   0  0  0  0  0  0  0  0  0  0  0  0
   48.1168    7.5454   19.3117 H   0  0  0  0  0  0  0  0  0  0  0  0
  2  1  2  0
  3  1  1  0
  4  2  1  0
  5  3  2  0
  6  8  1  0
  7  5  1  0
  8  9  1  0
  9  3  1  0
 10  2  1  0
 11  4  1  0
 12  9  1  0
 13  6  1  0
 14 13  1  0
 15 13  1  0
  7  4  2  0
 17 16  2  0
 18 16  2  0
 19 16  1  0
 20 16  1  0
 22 21  2  0
 23 21  1  0
 24 22  1  0
 25 23  2  0
 26 28  1  0
 27 25  1  0
 28 29  1  0
 29 23  1  0
 30 22  1  0
 31 24  1  0
 32 29  1  0
 33 26  1  0
 34 33  1  0
 35 33  1  0
 27 24  2  0
  1 38  1  0
  5 39  1  0
  6 40  1  0
  7 41  1  0
  8 42  1  0
  8 43  1  0
  9 44  1  6
 10 45  1  0
 11 46  1  0
 12 47  1  0
 13 48  1  0
 14 49  1  0
 14 50  1  0
 14 51  1  0
 15 52  1  0
 15 53  1  0
 15 54  1  0
 19 55  1  0
 20 56  1  0
 21 57  1  0
 25 58  1  0
 26 59  1  0
 27 60  1  0
 28 61  1  0
 28 62  1  0
 29 63  1  1
 30 64  1  0
 31 65  1  0
 32 66  1  0
 33 67  1  0
 34 68  1  0
 34 69  1  0
 34 70  1  0
 35 71  1  0
 35 72  1  0
 35 73  1  0
 36 74  1  0
 36 75  1  0
 37 76  1  0
 37 77  1  0
M  END
> <Uni-Dock RESULT> 
ENERGY=   -5.706  LOWER_BOUND=    6.689  UPPER_BOUND=    8.425
INTER + INTRA:          -5.706
INTER:                  -5.706
INTRA:                   0.000
UNBOUND:                 0.000

$$$$

     RDKit          3D

 77 74  0  0  0  0  0  0  0  0999 V2000
   48.5582    9.2882   18.6129 C   0  0  0  0  0  0  0  0  0  0  0  0
   48.2338   10.6243   18.3952 C   0  0  0  0  0  0  0  0  0  0  0  0
   47.8366    8.5351   19.5606 C   0  0  0  0  0  0  0  0  0  0  0  0
   47.2057   11.2278   19.1137 C   0  0  0  0  0  0  0  0  0  0  0  0
   46.7970    9.1658   20.2728 C   0  0  0  0  0  0  0  0  0  0  0  0
   47.9706    4.7549   18.9517 N   0  0  0  0  0  0  0  0  0  0  0  0
   46.4812   10.5088   20.0503 C   0  0  0  0  0  0  0  0  0  0  0  0
   47.9675    6.1840   18.5700 C   0  0  0  0  0  0  0  0  0  0  0  0
   48.2046    7.0842   19.8123 C   0  0  2  0  0  0  0  0  0  0  0  0
   48.9049   11.3921   17.4829 O   0  0  0  0  0  0  0  0  0  0  0  0
   46.9046   12.5431   18.9028 O   0  0  0  0  0  0  0  0  0  0  0  0
   47.4854    6.5472   20.9273 O   0  0  0  0  0  0  0  0  0  0  0  0
   48.2532    3.8213   17.8497 C   0  0  0  0  0  0  0  0  0  0  0  0
   47.3489    4.0097   16.6327 C   0  0  0  0  0  0  0  0  0  0  0  0
   49.7299    3.8535   17.4548 C   0  0  0  0  0  0  0  0  0  0  0  0
   47.8106    6.9017   18.8566 S   0  0  0  0  0  0  0  0  0  0  0  0
   46.4811    7.4375   19.0101 O   0  0  0  0  0  0  0  0  0  0  0  0
   48.1666    5.5660   19.2653 O   0  0  0  0  0  0  0  0  0  0  0  0
   48.1791    7.0274   17.2996 O   0  0  0  0  0  0  0  0  0  0  0  0
   48.8410    7.9459   19.5087 O   0  0  0  0  0  0  0  0  0  0  0  0
   48.4370    8.7295   18.2027 C   0  0  0  0  0  0  0  0  0  0  0  0
   48.0873   10.0127   17.7992 C   0  0  0  0  0  0  0  0  0  0  0  0
   48.2559    8.3434   19.5394 C   0  0  0  0  0  0  0  0  0  0  0  0
   47.5599   10.9293   18.7024 C   0  0  0  0  0  0  0  0  0  0  0  0
   47.7333    9.2872   20.4470 C   0  0  0  0  0  0  0  0  0  0  0  0
   47.2477    5.5271   18.5538 N   0  0  0  0  0  0  0  0  0  0  0  0
   47.3790   10.5750   20.0317 C   0  0  0  0  0  0  0  0  0  0  0  0
   48.6012    5.7893   19.0609 C   0  0  0  0  0  0  0  0  0  0  0  0
   48.6657    6.9773   20.0595 C   0  0  1  0  0  0  0  0  0  0  0  0
   48.2714   10.3733   16.4944 O   0  0  0  0  0  0  0  0  0  0  0  0
   47.2403   12.1741   18.2346 O   0  0  0  0  0  0  0  0  0  0  0  0
   50.0039    7.0678   20.5644 O   0  0  0  0  0  0  0  0  0  0  0  0
   47.1393    4.4400   17.5731 C   0  0  0  0  0  0  0  0  0  0  0  0
   47.8863    4.7412   16.2735 C   0  0  0  0  0  0  0  0  0  0  0  0
   47.5349    3.0755   18.1388 C   0  0  0  0  0  0  0  0  0  0  0  0
   48.0105    7.2992   18.1717 O   0  0  0  0  0  0  0  0  0  0  0  0
   48.0101    7.3095   18.1771 O   0  0  0  0  0  0  0  0  0  0  0  0
   49.3750    8.8271   18.0661 H   0  0  0  0  0  0  0  0  0  0  0  0
   46.2289    8.6134   21.0204 H   0  0  0  0  0  0  0  0  0  0  0  0
   47.0338    4.5427   19.3051 H   0  0  0  0  0  0  0  0  0  0  0  0
   45.6841   10.9876   20.6122 H   0  0  0  0  0  0  0  0  0  0  0  0
   46.9986    6.4224   18.1081 H   0  0  0  0  0  0  0  0  0  0  0  0
   48.7440    6.4121   17.8280 H   0  0  0  0  0  0  0  0  0  0  0  0
   49.2633    7.0473   20.0912 H   0  0  0  0  0  0  0  0  0  0  0  0
   49.5080   10.8150   16.9821 H   0  0  0  0  0  0  0  0  0  0  0  0
   47.5512   12.8360   18.2304 H   0  0  0  0  0  0  0  0  0  0  0  0
   47.7586    5.6097   20.9489 H   0  0  0  0  0  0  0  0  0  0  0  0
   48.0589    2.8180   18.2475 H   0  0  0  0  0  0  0  0  0  0  0  0
   47.5040    3.1965   15.9158 H   0  0  0  0  0  0  0  0  0  0  0  0
   47.5545    4.9485   16.1108 H   0  0  0  0  0  0  0  0  0  0  0  0
   46.2919    3.9988   16.9197 H   0  0  0  0  0  0  0  0  0  0  0  0
   50.0008    4.7836   16.9420 H   0  0  0  0  0  0  0  0  0  0  0  0
   49.9610    3.0238   16.7765 H   0  0  0  0  0  0  0  0  0  0  0  0
   50.3802    3.7498   18.3348 H   0  0  0  0  0  0  0  0  0  0  0  0
   47.7360    6.2884   16.8323 H   0  0  0  0  0  0  0  0  0  0  0  0
   48.8620    8.7500   18.9544 H   0  0  0  0  0  0  0  0  0  0  0  0
   48.8437    8.0457   17.4642 H   0  0  0  0  0  0  0  0  0  0  0  0
   47.6026    9.0202   21.4947 H   0  0  0  0  0  0  0  0  0  0  0  0
   46.6282    5.3323   19.3408 H   0  0  0  0  0  0  0  0  0  0  0  0
   46.9762   11.2718   20.7591 H   0  0  0  0  0  0  0  0  0  0  0  0
   49.3059    5.9769   18.2427 H   0  0  0  0  0  0  0  0  0  0  0  0
   48.9833    4.9045   19.5852 H   0  0  0  0  0  0  0  0  0  0  0  0
   48.0275    6.7189   20.9142 H   0  0  0  0  0  0  0  0  0  0  0  0
   47.9619   11.2983   16.4485 H   0  0  0  0  0  0  0  0  0  0  0  0
   46.8931   12.6940   18.9796 H   0  0  0  0  0  0  0  0  0  0  0  0
   50.4113    7.8618   20.1733 H   0  0  0  0  0  0  0  0  0  0  0  0
   46.0754    4.3796   17.3109 H   0  0  0  0  0  0  0  0  0  0  0  0
   48.9720    4.7338   16.4049 H   0  0  0  0  0  0  0  0  0  0  0  0
   47.6443    3.9907   15.5121 H   0  0  0  0  0  0  0  0  0  0  0  0
   47.5923    5.7181   15.8747 H   0  0  0  0  0  0  0  0  0  0  0  0
   46.9819    2.8563   19.0601 H   0  0  0  0  0  0  0  0  0  0  0  0
   47.2988    2.2830   17.4186 H   0  0  0  0  0  0  0  0  0  0  0  0
   48.6068    3.0128   18.3572 H   0  0  0  0  0  0  0  0  0  0  0  0
   47.9837    7.7386   19.0354 H   0  0  0  0  0  0  0  0  0  0  0  0
   48.0386    6.3551   18.3902 H   0  0  0  0  0  0  0  0  0  0  0  0
   47.9839    7.7235   19.0531 H   0  0  0  0  0  0  0  0  0  0  0  0
   48.0388    6.3599   18.3671 H   0  0  0  0  0  0  0  0  0  0  0  0
  2  1  2  0
  3  1  1  0
  4  2  1  0
  5  3  2  0
  6  8  1  0
  7  5  1  0
  8  9  1  0
  9  3  1  0
 10  2  1  0
 11  4  1  0
 12  9  1  0
 13  6  1  0
 14 13  1  0
 15 13  1  0
  7  4  2  0
 17 16  2  0
 18 16  2  0
 19 16  1  0
 20 16  1  0
 22 21  2  0
 23 21  1  0
 24 22  1  0
 25 23  2  0
 26 28  1  0
 27 25  1  0
 28 29  1  0
 29 23  1  0
 30 22  1  0
 31 24  1  0
 32 29  1  0
 33 26  1  0
 34 33  1  0
 35 33  1  0
 27 24  2  0
  1 38  1  0
  5 39  1  0
  6 40  1  0
  7 41  1  0
  8 42  1  0
  8 43  1  0
  9 44  1  6
 10 45  1  0
 11 46  1  0
 12 47  1  0
 13 48  1  0
 14 49  1  0
 14 50  1  0
 14 51  1  0
 15 52  1  0
 15 53  1  0
 15 54  1  0
 19 55  1  0
 20 56  1  0
 21 57  1  0
 25 58  1  0
 26 59  1  0
 27 60  1  0
 28 61  1  0
 28 62  1  0
 29 63  1  1
 30 64  1  0
 31 65  1  0
 32 66  1  0
 33 67  1  0
 34 68  1  0
 34 69  1  0
 34 70  1  0
 35 71  1  0
 35 72  1  0
 35 73  1  0
 36 74  1  0
 36 75  1  0
 37 76  1  0
 37 77  1  0
M  END
> <Uni-Dock RESULT> 
ENERGY=   -5.682  LOWER_BOUND=    6.968  UPPER_BOUND=    9.754
INTER + INTRA:          -5.682
INTER:                  -5.682
INTRA:                   0.000
UNBOUND:                 0.000

$$$$

     RDKit          3D

 77 74  0  0  0  0  0  0  0  0999 V2000
   43.3182   10.9462    8.5342 C   0  0  0  0  0  0  0  0  0  0  0  0
   44.2426   11.4750    7.6376 C   0  0  0  0  0  0  0  0  0  0  0  0
   43.4533   11.1993    9.9139 C   0  0  0  0  0  0  0  0  0  0  0  0
   45.3075   12.2466    8.0935 C   0  0  0  0  0  0  0  0  0  0  0  0
   44.5366   11.9870   10.3520 C   0  0  0  0  0  0  0  0  0  0  0  0
   40.1772   10.8619   11.8715 N   0  0  0  0  0  0  0  0  0  0  0  0
   45.4618   12.5103    9.4448 C   0  0  0  0  0  0  0  0  0  0  0  0
   41.0209   11.1601   10.6937 C   0  0  0  0  0  0  0  0  0  0  0  0
   42.4570   10.6052   10.8929 C   0  0  2  0  0  0  0  0  0  0  0  0
   44.1485   11.2579    6.2899 O   0  0  0  0  0  0  0  0  0  0  0  0
   46.2168   12.7489    7.2071 O   0  0  0  0  0  0  0  0  0  0  0  0
   42.8618   10.8218   12.2486 O   0  0  0  0  0  0  0  0  0  0  0  0
   38.7282   10.8806   11.6148 C   0  0  0  0  0  0  0  0  0  0  0  0
   38.2329   12.1696   10.9609 C   0  0  0  0  0  0  0  0  0  0  0  0
   38.2852    9.6501   10.8228 C   0  0  0  0  0  0  0  0  0  0  0  0
   41.7706   11.2863   10.4842 S   0  0  0  0  0  0  0  0  0  0  0  0
   42.4704   12.5288   10.6961 O   0  0  0  0  0  0  0  0  0  0  0  0
   40.9630   10.6612   11.5016 O   0  0  0  0  0  0  0  0  0  0  0  0
   40.8249   11.5044    9.2060 O   0  0  0  0  0  0  0  0  0  0  0  0
   42.8252   10.2175    9.9162 O   0  0  0  0  0  0  0  0  0  0  0  0
   42.6518   11.1398    8.6505 C   0  0  0  0  0  0  0  0  0  0  0  0
   43.4219   11.7513    7.6683 C   0  0  0  0  0  0  0  0  0  0  0  0
   43.2326   10.7955    9.8805 C   0  0  0  0  0  0  0  0  0  0  0  0
   44.7680   12.0280    7.8816 C   0  0  0  0  0  0  0  0  0  0  0  0
   44.6014   11.0692   10.0778 C   0  0  0  0  0  0  0  0  0  0  0  0
   40.6177   11.7607   11.3468 N   0  0  0  0  0  0  0  0  0  0  0  0
   45.3682   11.6896    9.0861 C   0  0  0  0  0  0  0  0  0  0  0  0
   40.9391   10.3541   11.0708 C   0  0  0  0  0  0  0  0  0  0  0  0
   42.4647   10.0778   10.9759 C   0  0  1  0  0  0  0  0  0  0  0  0
   42.8416   12.0788    6.4756 O   0  0  0  0  0  0  0  0  0  0  0  0
   45.4637   12.6297    6.8695 O   0  0  0  0  0  0  0  0  0  0  0  0
   42.6565    8.6668   10.8135 O   0  0  0  0  0  0  0  0  0  0  0  0
   39.1866   12.0830   11.4041 C   0  0  0  0  0  0  0  0  0  0  0  0
   38.4816   11.8787   10.0629 C   0  0  0  0  0  0  0  0  0  0  0  0
   38.4509   11.3627   12.5348 C   0  0  0  0  0  0  0  0  0  0  0  0
   41.6089   11.3857    9.6900 O   0  0  0  0  0  0  0  0  0  0  0  0
   41.6202   11.3854    9.6872 O   0  0  0  0  0  0  0  0  0  0  0  0
   42.5013   10.3268    8.1767 H   0  0  0  0  0  0  0  0  0  0  0  0
   44.6746   12.1904   11.4134 H   0  0  0  0  0  0  0  0  0  0  0  0
   40.3779   11.5848   12.5677 H   0  0  0  0  0  0  0  0  0  0  0  0
   46.2988   13.1080    9.7946 H   0  0  0  0  0  0  0  0  0  0  0  0
   41.0517   12.2497   10.5500 H   0  0  0  0  0  0  0  0  0  0  0  0
   40.6095   10.7244    9.7736 H   0  0  0  0  0  0  0  0  0  0  0  0
   42.4500    9.5191   10.7509 H   0  0  0  0  0  0  0  0  0  0  0  0
   43.3041   10.8079    6.1107 H   0  0  0  0  0  0  0  0  0  0  0  0
   45.9179   12.4169    6.3373 H   0  0  0  0  0  0  0  0  0  0  0  0
   42.1234   10.4545   12.7719 H   0  0  0  0  0  0  0  0  0  0  0  0
   38.2472   10.8084   12.5976 H   0  0  0  0  0  0  0  0  0  0  0  0
   37.1382   12.1852   10.9356 H   0  0  0  0  0  0  0  0  0  0  0  0
   38.5847   12.2676    9.9301 H   0  0  0  0  0  0  0  0  0  0  0  0
   38.5621   13.0502   11.5230 H   0  0  0  0  0  0  0  0  0  0  0  0
   38.6264    9.6833    9.7817 H   0  0  0  0  0  0  0  0  0  0  0  0
   37.1912    9.5798   10.8089 H   0  0  0  0  0  0  0  0  0  0  0  0
   38.6685    8.7251   11.2760 H   0  0  0  0  0  0  0  0  0  0  0  0
   40.0327   11.9969    9.5073 H   0  0  0  0  0  0  0  0  0  0  0  0
   43.0813   10.4832    9.0118 H   0  0  0  0  0  0  0  0  0  0  0  0
   41.6047   10.9438    8.4423 H   0  0  0  0  0  0  0  0  0  0  0  0
   45.0821   10.7929   11.0152 H   0  0  0  0  0  0  0  0  0  0  0  0
   41.0598   12.0384   12.2235 H   0  0  0  0  0  0  0  0  0  0  0  0
   46.4176   11.8874    9.2770 H   0  0  0  0  0  0  0  0  0  0  0  0
   40.4592   10.0074   10.1484 H   0  0  0  0  0  0  0  0  0  0  0  0
   40.5434    9.7151   11.8700 H   0  0  0  0  0  0  0  0  0  0  0  0
   42.9041   10.3419   11.9463 H   0  0  0  0  0  0  0  0  0  0  0  0
   43.5604   12.4870    5.9558 H   0  0  0  0  0  0  0  0  0  0  0  0
   46.3817   12.7497    7.1672 H   0  0  0  0  0  0  0  0  0  0  0  0
   42.9516    8.5150    9.8974 H   0  0  0  0  0  0  0  0  0  0  0  0
   39.1311   13.1571   11.6218 H   0  0  0  0  0  0  0  0  0  0  0  0
   38.3996   10.8225    9.7912 H   0  0  0  0  0  0  0  0  0  0  0  0
   37.4647   12.2861   10.1009 H   0  0  0  0  0  0  0  0  0  0  0  0
   39.0139   12.4021    9.2614 H   0  0  0  0  0  0  0  0  0  0  0  0
   38.9497   11.5287   13.4972 H   0  0  0  0  0  0  0  0  0  0  0  0
   37.4273   11.7455   12.6261 H   0  0  0  0  0  0  0  0  0  0  0  0
   38.3839   10.2826   12.3632 H   0  0  0  0  0  0  0  0  0  0  0  0
   42.4939   11.1571   10.0127 H   0  0  0  0  0  0  0  0  0  0  0  0
   41.0263   11.1763   10.4361 H   0  0  0  0  0  0  0  0  0  0  0  0
   42.4937   11.1490   10.0345 H   0  0  0  0  0  0  0  0  0  0  0  0
   41.0154   11.1849   10.4169 H   0  0  0  0  0  0  0  0  0  0  0  0
  2  1  2  0
  3  1  1  0
  4  2  1  0
  5  3  2  0
  6  8  1  0
  7  5  1  0
  8  9  1  0
  9  3  1  0
 10  2  1  0
 11  4  1  0
 12  9  1  0
 13  6  1  0
 14 13  1  0
 15 13  1  0
  7  4  2  0
 17 16  2  0
 18 16  2  0
 19 16  1  0
 20 16  1  0
 22 21  2  0
 23 21  1  0
 24 22  1  0
 25 23  2  0
 26 28  1  0
 27 25  1  0
 28 29  1  0
 29 23  1  0
 30 22  1  0
 31 24  1  0
 32 29  1  0
 33 26  1  0
 34 33  1  0
 35 33  1  0
 27 24  2  0
  1 38  1  0
  5 39  1  0
  6 40  1  0
  7 41  1  0
  8 42  1  0
  8 43  1  0
  9 44  1  6
 10 45  1  0
 11 46  1  0
 12 47  1  0
 13 48  1  0
 14 49  1  0
 14 50  1  0
 14 51  1  0
 15 52  1  0
 15 53  1  0
 15 54  1  0
 19 55  1  0
 20 56  1  0
 21 57  1  0
 25 58  1  0
 26 59  1  0
 27 60  1  0
 28 61  1  0
 28 62  1  0
 29 63  1  1
 30 64  1  0
 31 65  1  0
 32 66  1  0
 33 67  1  0
 34 68  1  0
 34 69  1  0
 34 70  1  0
 35 71  1  0
 35 72  1  0
 35 73  1  0
 36 74  1  0
 36 75  1  0
 37 76  1  0
 37 77  1  0
M  END
> <Uni-Dock RESULT> 
ENERGY=   -5.578  LOWER_BOUND=    5.701  UPPER_BOUND=    7.813
INTER + INTRA:          -5.578
INTER:                  -5.578
INTRA:                   0.000
UNBOUND:                 0.000

$$$$

     RDKit          3D

 77 74  0  0  0  0  0  0  0  0999 V2000
   47.9753    7.3306   14.4732 C   0  0  0  0  0  0  0  0  0  0  0  0
   49.2296    7.3832   15.0749 C   0  0  0  0  0  0  0  0  0  0  0  0
   47.8305    7.6884   13.1178 C   0  0  0  0  0  0  0  0  0  0  0  0
   50.3441    7.7957   14.3502 C   0  0  0  0  0  0  0  0  0  0  0  0
   48.9735    8.0984   12.4028 C   0  0  0  0  0  0  0  0  0  0  0  0
   44.7428    6.1606   11.4413 N   0  0  0  0  0  0  0  0  0  0  0  0
   50.2279    8.1519   13.0165 C   0  0  0  0  0  0  0  0  0  0  0  0
   45.8728    6.2153   12.3942 C   0  0  0  0  0  0  0  0  0  0  0  0
   46.4591    7.6508   12.4682 C   0  0  2  0  0  0  0  0  0  0  0  0
   49.4173    7.0417   16.3865 O   0  0  0  0  0  0  0  0  0  0  0  0
   51.5676    7.8574   14.9537 O   0  0  0  0  0  0  0  0  0  0  0  0
   46.4865    8.2167   11.1538 O   0  0  0  0  0  0  0  0  0  0  0  0
   43.8153    5.0365   11.6459 C   0  0  0  0  0  0  0  0  0  0  0  0
   44.4989    3.6707   11.6866 C   0  0  0  0  0  0  0  0  0  0  0  0
   42.9361    5.2546   12.8777 C   0  0  0  0  0  0  0  0  0  0  0  0
   46.5414    6.6068   12.5410 S   0  0  0  0  0  0  0  0  0  0  0  0
   47.7781    6.3873   11.8334 O   0  0  0  0  0  0  0  0  0  0  0  0
   45.2709    6.7351   11.8722 O   0  0  0  0  0  0  0  0  0  0  0  0
   46.3955    5.4044   13.5939 O   0  0  0  0  0  0  0  0  0  0  0  0
   46.7508    7.8600   13.5222 O   0  0  0  0  0  0  0  0  0  0  0  0
   47.6005    6.7684   14.2767 C   0  0  0  0  0  0  0  0  0  0  0  0
   48.8257    6.6327   14.9188 C   0  0  0  0  0  0  0  0  0  0  0  0
   47.4229    7.7753   13.3158 C   0  0  0  0  0  0  0  0  0  0  0  0
   49.8861    7.4838   14.6272 C   0  0  0  0  0  0  0  0  0  0  0  0
   48.5020    8.6397   13.0403 C   0  0  0  0  0  0  0  0  0  0  0  0
   45.7900    5.7481   11.5429 N   0  0  0  0  0  0  0  0  0  0  0  0
   49.7333    8.4931   13.6872 C   0  0  0  0  0  0  0  0  0  0  0  0
   45.1805    6.7802   12.3921 C   0  0  0  0  0  0  0  0  0  0  0  0
   46.0970    8.0142   12.6160 C   0  0  1  0  0  0  0  0  0  0  0  0
   48.9818    5.6481   15.8530 O   0  0  0  0  0  0  0  0  0  0  0  0
   51.0615    7.2920   15.2995 O   0  0  0  0  0  0  0  0  0  0  0  0
   45.3606    8.9912   13.3624 O   0  0  0  0  0  0  0  0  0  0  0  0
   44.9806    4.5411   11.3348 C   0  0  0  0  0  0  0  0  0  0  0  0
   44.7468    3.7576   12.6268 C   0  0  0  0  0  0  0  0  0  0  0  0
   43.6653    4.8153   10.6046 C   0  0  0  0  0  0  0  0  0  0  0  0
   46.7256    6.1863   13.2164 O   0  0  0  0  0  0  0  0  0  0  0  0
   46.7341    6.1937   13.2193 O   0  0  0  0  0  0  0  0  0  0  0  0
   47.1048    7.0292   15.0476 H   0  0  0  0  0  0  0  0  0  0  0  0
   48.8916    8.3926   11.3571 H   0  0  0  0  0  0  0  0  0  0  0  0
   45.1498    6.0605   10.5076 H   0  0  0  0  0  0  0  0  0  0  0  0
   51.1007    8.4790   12.4584 H   0  0  0  0  0  0  0  0  0  0  0  0
   46.6456    5.5063   12.0641 H   0  0  0  0  0  0  0  0  0  0  0  0
   45.5707    5.9156   13.4064 H   0  0  0  0  0  0  0  0  0  0  0  0
   45.7890    8.2874   13.0560 H   0  0  0  0  0  0  0  0  0  0  0  0
   48.5855    6.6682   16.7275 H   0  0  0  0  0  0  0  0  0  0  0  0
   51.3971    7.5880   15.8780 H   0  0  0  0  0  0  0  0  0  0  0  0
   45.5770    8.0811   10.8246 H   0  0  0  0  0  0  0  0  0  0  0  0
   43.1434    5.0386   10.7792 H   0  0  0  0  0  0  0  0  0  0  0  0
   43.7497    2.8719   11.6878 H   0  0  0  0  0  0  0  0  0  0  0  0
   45.1111    3.5454   12.5841 H   0  0  0  0  0  0  0  0  0  0  0  0
   45.1379    3.5218   10.8096 H   0  0  0  0  0  0  0  0  0  0  0  0
   43.5018    5.1595   13.8118 H   0  0  0  0  0  0  0  0  0  0  0  0
   42.1282    4.5140   12.9048 H   0  0  0  0  0  0  0  0  0  0  0  0
   42.4698    6.2497   12.8635 H   0  0  0  0  0  0  0  0  0  0  0  0
   46.0729    4.6204   13.1017 H   0  0  0  0  0  0  0  0  0  0  0  0
   47.3681    7.5993   14.2329 H   0  0  0  0  0  0  0  0  0  0  0  0
   46.8005    6.0813   14.5338 H   0  0  0  0  0  0  0  0  0  0  0  0
   48.3841    9.4430   12.3144 H   0  0  0  0  0  0  0  0  0  0  0  0
   46.0235    6.1560   10.6372 H   0  0  0  0  0  0  0  0  0  0  0  0
   50.5411    9.1755   13.4451 H   0  0  0  0  0  0  0  0  0  0  0  0
   44.8890    6.3750   13.3679 H   0  0  0  0  0  0  0  0  0  0  0  0
   44.2533    7.1447   11.9326 H   0  0  0  0  0  0  0  0  0  0  0  0
   46.2924    8.4573   11.6312 H   0  0  0  0  0  0  0  0  0  0  0  0
   49.9032    5.7450   16.1614 H   0  0  0  0  0  0  0  0  0  0  0  0
   51.6954    7.9623   14.9918 H   0  0  0  0  0  0  0  0  0  0  0  0
   45.7369    9.0180   14.2608 H   0  0  0  0  0  0  0  0  0  0  0  0
   45.5770    3.8906   10.6827 H   0  0  0  0  0  0  0  0  0  0  0  0
   44.0815    4.2822   13.3183 H   0  0  0  0  0  0  0  0  0  0  0  0
   44.2886    2.7866   12.4060 H   0  0  0  0  0  0  0  0  0  0  0  0
   45.6951    3.5627   13.1391 H   0  0  0  0  0  0  0  0  0  0  0  0
   43.8407    5.3603    9.6694 H   0  0  0  0  0  0  0  0  0  0  0  0
   43.1708    3.8713   10.3459 H   0  0  0  0  0  0  0  0  0  0  0  0
   42.9656    5.3963   11.2159 H   0  0  0  0  0  0  0  0  0  0  0  0
   47.1021    7.0605   13.0329 H   0  0  0  0  0  0  0  0  0  0  0  0
   45.9627    6.1303   12.6208 H   0  0  0  0  0  0  0  0  0  0  0  0
   47.0903    7.0722   13.0166 H   0  0  0  0  0  0  0  0  0  0  0  0
   45.9662    6.1113   12.6344 H   0  0  0  0  0  0  0  0  0  0  0  0
  2  1  2  0
  3  1  1  0
  4  2  1  0
  5  3  2  0
  6  8  1  0
  7  5  1  0
  8  9  1  0
  9  3  1  0
 10  2  1  0
 11  4  1  0
 12  9  1  0
 13  6  1  0
 14 13  1  0
 15 13  1  0
  7  4  2  0
 17 16  2  0
 18 16  2  0
 19 16  1  0
 20 16  1  0
 22 21  2  0
 23 21  1  0
 24 22  1  0
 25 23  2  0
 26 28  1  0
 27 25  1  0
 28 29  1  0
 29 23  1  0
 30 22  1  0
 31 24  1  0
 32 29  1  0
 33 26  1  0
 34 33  1  0
 35 33  1  0
 27 24  2  0
  1 38  1  0
  5 39  1  0
  6 40  1  0
  7 41  1  0
  8 42  1  0
  8 43  1  0
  9 44  1  6
 10 45  1  0
 11 46  1  0
 12 47  1  0
 13 48  1  0
 14 49  1  0
 14 50  1  0
 14 51  1  0
 15 52  1  0
 15 53  1  0
 15 54  1  0
 19 55  1  0
 20 56  1  0
 21 57  1  0
 25 58  1  0
 26 59  1  0
 27 60  1  0
 28 61  1  0
 28 62  1  0
 29 63  1  1
 30 64  1  0
 31 65  1  0
 32 66  1  0
 33 67  1  0
 34 68  1  0
 34 69  1  0
 34 70  1  0
 35 71  1  0
 35 72  1  0
 35 73  1  0
 36 74  1  0
 36 75  1  0
 37 76  1  0
 37 77  1  0
M  END
> <Uni-Dock RESULT> 
ENERGY=   -5.443  LOWER_BOUND=    2.439  UPPER_BOUND=    5.994
INTER + INTRA:          -5.443
INTER:                  -5.443
INTRA:                   0.000
UNBOUND:                 0.000

$$$$
