
     RDKit          3D

 77 74  0  0  0  0  0  0  0  0999 V2000
   51.1686    2.3413   17.4240 C   0  0  0  0  0  0  0  0  0  0  0  0
   52.4552    1.8941   17.7013 C   0  0  0  0  0  0  0  0  0  0  0  0
   50.7691    3.6261   17.8355 C   0  0  0  0  0  0  0  0  0  0  0  0
   53.3475    2.7012   18.3987 C   0  0  0  0  0  0  0  0  0  0  0  0
   51.6860    4.4238   18.5468 C   0  0  0  0  0  0  0  0  0  0  0  0
   48.5988    4.7955   19.9097 N   0  0  0  0  0  0  0  0  0  0  0  0
   52.9737    3.9645   18.8265 C   0  0  0  0  0  0  0  0  0  0  0  0
   48.3826    3.9738   18.7110 C   0  0  0  0  0  0  0  0  0  0  0  0
   49.3815    4.1652   17.5387 C   0  0  2  0  0  0  0  0  0  0  0  0
   52.8918    0.6616   17.2980 O   0  0  0  0  0  0  0  0  0  0  0  0
   54.6104    2.2551   18.6600 O   0  0  0  0  0  0  0  0  0  0  0  0
   48.8509    3.5137   16.3742 O   0  0  0  0  0  0  0  0  0  0  0  0
   48.3709    6.2342   19.7374 C   0  0  0  0  0  0  0  0  0  0  0  0
   48.8902    6.9384   20.9940 C   0  0  0  0  0  0  0  0  0  0  0  0
   46.8954    6.5783   19.5229 C   0  0  0  0  0  0  0  0  0  0  0  0
   50.0067    4.2135   19.0420 S   0  0  0  0  0  0  0  0  0  0  0  0
   51.2732    4.4675   19.6795 O   0  0  0  0  0  0  0  0  0  0  0  0
   48.9956    3.3399   19.5812 O   0  0  0  0  0  0  0  0  0  0  0  0
   49.2887    5.6213   18.7634 O   0  0  0  0  0  0  0  0  0  0  0  0
   50.3401    3.7366   17.5470 O   0  0  0  0  0  0  0  0  0  0  0  0
   52.0509    3.7518   18.1063 C   0  0  0  0  0  0  0  0  0  0  0  0
   52.4961    2.4423   18.2535 C   0  0  0  0  0  0  0  0  0  0  0  0
   50.7806    4.0011   17.5573 C   0  0  0  0  0  0  0  0  0  0  0  0
   51.6986    1.3771   17.8468 C   0  0  0  0  0  0  0  0  0  0  0  0
   49.9912    2.9101   17.1448 C   0  0  0  0  0  0  0  0  0  0  0  0
   49.4659    5.6535   19.8333 N   0  0  0  0  0  0  0  0  0  0  0  0
   50.4501    1.5990   17.2886 C   0  0  0  0  0  0  0  0  0  0  0  0
   50.2064    6.2376   18.7113 C   0  0  0  0  0  0  0  0  0  0  0  0
   50.2588    5.4146   17.3934 C   0  0  1  0  0  0  0  0  0  0  0  0
   53.7174    2.1526   18.7970 O   0  0  0  0  0  0  0  0  0  0  0  0
   52.1449    0.0951   17.9947 O   0  0  0  0  0  0  0  0  0  0  0  0
   51.1104    6.0762   16.4523 O   0  0  0  0  0  0  0  0  0  0  0  0
   48.0844    6.1120   19.9804 C   0  0  0  0  0  0  0  0  0  0  0  0
   47.1559    5.6069   18.8758 C   0  0  0  0  0  0  0  0  0  0  0  0
   47.5791    5.6281   21.3429 C   0  0  0  0  0  0  0  0  0  0  0  0
   50.0606    4.2771   18.9855 O   0  0  0  0  0  0  0  0  0  0  0  0
   50.0304    4.3072   19.0067 O   0  0  0  0  0  0  0  0  0  0  0  0
   50.4680    1.7116   16.8844 H   0  0  0  0  0  0  0  0  0  0  0  0
   51.3961    5.4167   18.8892 H   0  0  0  0  0  0  0  0  0  0  0  0
   48.0119    4.4429   20.6657 H   0  0  0  0  0  0  0  0  0  0  0  0
   53.6767    4.5865   19.3696 H   0  0  0  0  0  0  0  0  0  0  0  0
   47.3575    4.1116   18.3436 H   0  0  0  0  0  0  0  0  0  0  0  0
   48.4230    2.9203   19.0207 H   0  0  0  0  0  0  0  0  0  0  0  0
   49.4723    5.2229   17.2668 H   0  0  0  0  0  0  0  0  0  0  0  0
   52.1976    0.2782   16.7316 H   0  0  0  0  0  0  0  0  0  0  0  0
   54.6419    1.3669   18.2547 H   0  0  0  0  0  0  0  0  0  0  0  0
   48.1674    4.1081   16.0190 H   0  0  0  0  0  0  0  0  0  0  0  0
   48.9533    6.6162   18.8924 H   0  0  0  0  0  0  0  0  0  0  0  0
   48.7960    8.0255   20.8947 H   0  0  0  0  0  0  0  0  0  0  0  0
   48.3321    6.6312   21.8866 H   0  0  0  0  0  0  0  0  0  0  0  0
   49.9503    6.7130   21.1633 H   0  0  0  0  0  0  0  0  0  0  0  0
   46.5216    6.1780   18.5753 H   0  0  0  0  0  0  0  0  0  0  0  0
   46.7558    7.6663   19.4935 H   0  0  0  0  0  0  0  0  0  0  0  0
   46.2679    6.1838   20.3310 H   0  0  0  0  0  0  0  0  0  0  0  0
   48.3496    5.4321   18.5601 H   0  0  0  0  0  0  0  0  0  0  0  0
   51.2076    4.1245   17.3070 H   0  0  0  0  0  0  0  0  0  0  0  0
   52.6795    4.5863   18.4035 H   0  0  0  0  0  0  0  0  0  0  0  0
   49.0122    3.0740   16.6984 H   0  0  0  0  0  0  0  0  0  0  0  0
   49.5146    4.6334   19.8054 H   0  0  0  0  0  0  0  0  0  0  0  0
   49.8410    0.7600   16.9646 H   0  0  0  0  0  0  0  0  0  0  0  0
   49.8486    7.2514   18.4881 H   0  0  0  0  0  0  0  0  0  0  0  0
   51.2365    6.3938   19.0586 H   0  0  0  0  0  0  0  0  0  0  0  0
   49.2611    5.3816   16.9421 H   0  0  0  0  0  0  0  0  0  0  0  0
   54.1383    2.9960   19.0436 H   0  0  0  0  0  0  0  0  0  0  0  0
   53.0171    0.1907   18.4299 H   0  0  0  0  0  0  0  0  0  0  0  0
   50.6733    6.9100   16.2101 H   0  0  0  0  0  0  0  0  0  0  0  0
   48.0601    7.2098   19.9956 H   0  0  0  0  0  0  0  0  0  0  0  0
   46.1116    5.8470   19.1056 H   0  0  0  0  0  0  0  0  0  0  0  0
   47.2272    4.5210   18.7538 H   0  0  0  0  0  0  0  0  0  0  0  0
   47.3866    6.0787   17.9164 H   0  0  0  0  0  0  0  0  0  0  0  0
   46.5589    5.9826   21.5251 H   0  0  0  0  0  0  0  0  0  0  0  0
   48.2109    6.0120   22.1532 H   0  0  0  0  0  0  0  0  0  0  0  0
   47.5702    4.5333   21.4081 H   0  0  0  0  0  0  0  0  0  0  0  0
   49.3848    4.9573   18.8463 H   0  0  0  0  0  0  0  0  0  0  0  0
   50.3239    4.0236   18.0882 H   0  0  0  0  0  0  0  0  0  0  0  0
   50.3672    3.9792   18.1592 H   0  0  0  0  0  0  0  0  0  0  0  0
   49.3716    4.9716   18.7542 H   0  0  0  0  0  0  0  0  0  0  0  0
  2  1  2  0
  3  1  1  0
  4  2  1  0
  5  3  2  0
  6  8  1  0
  7  5  1  0
  8  9  1  0
  9  3  1  0
 10  2  1  0
 11  4  1  0
 12  9  1  0
 13  6  1  0
 14 13  1  0
 15 13  1  0
  7  4  2  0
 17 16  2  0
 18 16  2  0
 19 16  1  0
 20 16  1  0
 22 21  2  0
 23 21  1  0
 24 22  1  0
 25 23  2  0
 26 28  1  0
 27 25  1  0
 28 29  1  0
 29 23  1  0
 30 22  1  0
 31 24  1  0
 32 29  1  0
 33 26  1  0
 34 33  1  0
 35 33  1  0
 27 24  2  0
  1 38  1  0
  5 39  1  0
  6 40  1  0
  7 41  1  0
  8 42  1  0
  8 43  1  0
  9 44  1  6
 10 45  1  0
 11 46  1  0
 12 47  1  0
 13 48  1  0
 14 49  1  0
 14 50  1  0
 14 51  1  0
 15 52  1  0
 15 53  1  0
 15 54  1  0
 19 55  1  0
 20 56  1  0
 21 57  1  0
 25 58  1  0
 26 59  1  0
 27 60  1  0
 28 61  1  0
 28 62  1  0
 29 63  1  1
 30 64  1  0
 31 65  1  0
 32 66  1  0
 33 67  1  0
 34 68  1  0
 34 69  1  0
 34 70  1  0
 35 71  1  0
 35 72  1  0
 35 73  1  0
 36 74  1  0
 36 75  1  0
 37 76  1  0
 37 77  1  0
M  END
> <Uni-Dock RESULT> 
ENERGY=   -5.539  LOWER_BOUND=    0.000  UPPER_BOUND=    0.000
INTER + INTRA:          -5.539
INTER:                  -5.539
INTRA:                   0.000
UNBOUND:                 0.000

$$$$

     RDKit          3D

 77 74  0  0  0  0  0  0  0  0999 V2000
   46.0373    7.0019   12.5022 C   0  0  0  0  0  0  0  0  0  0  0  0
   44.8167    7.4292   11.9924 C   0  0  0  0  0  0  0  0  0  0  0  0
   47.0178    7.9464   12.8576 C   0  0  0  0  0  0  0  0  0  0  0  0
   44.5624    8.7847   11.8141 C   0  0  0  0  0  0  0  0  0  0  0  0
   46.7422    9.3134   12.6619 C   0  0  0  0  0  0  0  0  0  0  0  0
   49.9671    8.6954   11.7989 N   0  0  0  0  0  0  0  0  0  0  0  0
   45.5165    9.7333   12.1434 C   0  0  0  0  0  0  0  0  0  0  0  0
   49.4842    7.4320   12.3730 C   0  0  0  0  0  0  0  0  0  0  0  0
   48.3576    7.5288   13.4360 C   0  0  2  0  0  0  0  0  0  0  0  0
   43.8272    6.5454   11.6572 O   0  0  0  0  0  0  0  0  0  0  0  0
   43.3583    9.1938   11.3189 O   0  0  0  0  0  0  0  0  0  0  0  0
   48.2265    6.2528   14.0816 O   0  0  0  0  0  0  0  0  0  0  0  0
   50.6937    9.5714   12.7242 C   0  0  0  0  0  0  0  0  0  0  0  0
   50.8820   10.9229   12.0297 C   0  0  0  0  0  0  0  0  0  0  0  0
   52.0553    9.0036   13.1309 C   0  0  0  0  0  0  0  0  0  0  0  0
   48.2608    8.5588   12.1780 S   0  0  0  0  0  0  0  0  0  0  0  0
   47.4417    9.6608   11.7423 O   0  0  0  0  0  0  0  0  0  0  0  0
   48.9441    7.6609   11.2819 O   0  0  0  0  0  0  0  0  0  0  0  0
   49.3714    9.1226   13.1899 O   0  0  0  0  0  0  0  0  0  0  0  0
   47.3534    7.6857   13.1720 O   0  0  0  0  0  0  0  0  0  0  0  0
   46.0295    8.7930   12.6614 C   0  0  0  0  0  0  0  0  0  0  0  0
   45.1583    8.1081   11.8208 C   0  0  0  0  0  0  0  0  0  0  0  0
   47.0790    8.1029   13.2933 C   0  0  0  0  0  0  0  0  0  0  0  0
   45.3094    6.7406   11.6126 C   0  0  0  0  0  0  0  0  0  0  0  0
   47.2110    6.7177   13.0760 C   0  0  0  0  0  0  0  0  0  0  0  0
   49.5347    9.7225   12.3007 N   0  0  0  0  0  0  0  0  0  0  0  0
   46.3264    6.0367   12.2370 C   0  0  0  0  0  0  0  0  0  0  0  0
   48.8049   10.0065   13.5397 C   0  0  0  0  0  0  0  0  0  0  0  0
   48.0538    8.8197   14.2061 C   0  0  1  0  0  0  0  0  0  0  0  0
   44.1336    8.7416   11.1732 O   0  0  0  0  0  0  0  0  0  0  0  0
   44.4486    6.0770   10.7862 O   0  0  0  0  0  0  0  0  0  0  0  0
   47.3098    9.2984   15.3313 O   0  0  0  0  0  0  0  0  0  0  0  0
   50.9633    9.4511   12.4616 C   0  0  0  0  0  0  0  0  0  0  0  0
   51.2544    8.1156   13.1465 C   0  0  0  0  0  0  0  0  0  0  0  0
   51.5971    9.4668   11.0674 C   0  0  0  0  0  0  0  0  0  0  0  0
   48.2233    8.6067   12.2583 O   0  0  0  0  0  0  0  0  0  0  0  0
   48.2677    8.6238   12.2575 O   0  0  0  0  0  0  0  0  0  0  0  0
   46.2409    5.9442   12.6377 H   0  0  0  0  0  0  0  0  0  0  0  0
   47.4905   10.0636   12.9153 H   0  0  0  0  0  0  0  0  0  0  0  0
   50.5518    8.4912   10.9886 H   0  0  0  0  0  0  0  0  0  0  0  0
   45.3087   10.7880   12.0008 H   0  0  0  0  0  0  0  0  0  0  0  0
   50.3273    6.8626   12.7851 H   0  0  0  0  0  0  0  0  0  0  0  0
   49.1145    6.8123   11.5443 H   0  0  0  0  0  0  0  0  0  0  0  0
   48.6256    8.2333   14.2315 H   0  0  0  0  0  0  0  0  0  0  0  0
   44.1165    5.6612   11.9475 H   0  0  0  0  0  0  0  0  0  0  0  0
   42.8591    8.3654   11.1819 H   0  0  0  0  0  0  0  0  0  0  0  0
   48.9589    6.1954   14.7195 H   0  0  0  0  0  0  0  0  0  0  0  0
   50.0993    9.7544   13.6255 H   0  0  0  0  0  0  0  0  0  0  0  0
   51.3720   11.6373   12.7006 H   0  0  0  0  0  0  0  0  0  0  0  0
   51.4988   10.8290   11.1279 H   0  0  0  0  0  0  0  0  0  0  0  0
   49.9169   11.3540   11.7364 H   0  0  0  0  0  0  0  0  0  0  0  0
   51.9502    8.0900   13.7244 H   0  0  0  0  0  0  0  0  0  0  0  0
   52.6050    9.7283   13.7447 H   0  0  0  0  0  0  0  0  0  0  0  0
   52.6734    8.7722   12.2553 H   0  0  0  0  0  0  0  0  0  0  0  0
   50.0552    8.4281   13.2854 H   0  0  0  0  0  0  0  0  0  0  0  0
   46.6855    8.2898   13.5587 H   0  0  0  0  0  0  0  0  0  0  0  0
   45.9016    9.8564   12.8424 H   0  0  0  0  0  0  0  0  0  0  0  0
   48.0020    6.1542   13.5675 H   0  0  0  0  0  0  0  0  0  0  0  0
   49.0751    8.9774   11.7742 H   0  0  0  0  0  0  0  0  0  0  0  0
   46.4278    4.9673   12.0756 H   0  0  0  0  0  0  0  0  0  0  0  0
   49.4597   10.4804   14.2830 H   0  0  0  0  0  0  0  0  0  0  0  0
   48.0697   10.7871   13.3026 H   0  0  0  0  0  0  0  0  0  0  0  0
   48.7806    8.0988   14.5963 H   0  0  0  0  0  0  0  0  0  0  0  0
   44.1759    9.6865   11.4073 H   0  0  0  0  0  0  0  0  0  0  0  0
   43.8516    6.7752   10.4467 H   0  0  0  0  0  0  0  0  0  0  0  0
   47.9561    9.5912   15.9959 H   0  0  0  0  0  0  0  0  0  0  0  0
   51.4293   10.2600   13.0399 H   0  0  0  0  0  0  0  0  0  0  0  0
   52.3253    7.8856   13.1109 H   0  0  0  0  0  0  0  0  0  0  0  0
   50.7219    7.2897   12.6633 H   0  0  0  0  0  0  0  0  0  0  0  0
   50.9697    8.1402   14.2022 H   0  0  0  0  0  0  0  0  0  0  0  0
   52.6793    9.3117   11.1328 H   0  0  0  0  0  0  0  0  0  0  0  0
   51.4318   10.4323   10.5736 H   0  0  0  0  0  0  0  0  0  0  0  0
   51.1841    8.6805   10.4239 H   0  0  0  0  0  0  0  0  0  0  0  0
   49.0449    8.7154   12.7602 H   0  0  0  0  0  0  0  0  0  0  0  0
   47.6369    8.1379   12.8707 H   0  0  0  0  0  0  0  0  0  0  0  0
   47.6015    8.1587   12.7858 H   0  0  0  0  0  0  0  0  0  0  0  0
   49.0359    8.6774   12.8459 H   0  0  0  0  0  0  0  0  0  0  0  0
  2  1  2  0
  3  1  1  0
  4  2  1  0
  5  3  2  0
  6  8  1  0
  7  5  1  0
  8  9  1  0
  9  3  1  0
 10  2  1  0
 11  4  1  0
 12  9  1  0
 13  6  1  0
 14 13  1  0
 15 13  1  0
  7  4  2  0
 17 16  2  0
 18 16  2  0
 19 16  1  0
 20 16  1  0
 22 21  2  0
 23 21  1  0
 24 22  1  0
 25 23  2  0
 26 28  1  0
 27 25  1  0
 28 29  1  0
 29 23  1  0
 30 22  1  0
 31 24  1  0
 32 29  1  0
 33 26  1  0
 34 33  1  0
 35 33  1  0
 27 24  2  0
  1 38  1  0
  5 39  1  0
  6 40  1  0
  7 41  1  0
  8 42  1  0
  8 43  1  0
  9 44  1  6
 10 45  1  0
 11 46  1  0
 12 47  1  0
 13 48  1  0
 14 49  1  0
 14 50  1  0
 14 51  1  0
 15 52  1  0
 15 53  1  0
 15 54  1  0
 19 55  1  0
 20 56  1  0
 21 57  1  0
 25 58  1  0
 26 59  1  0
 27 60  1  0
 28 61  1  0
 28 62  1  0
 29 63  1  1
 30 64  1  0
 31 65  1  0
 32 66  1  0
 33 67  1  0
 34 68  1  0
 34 69  1  0
 34 70  1  0
 35 71  1  0
 35 72  1  0
 35 73  1  0
 36 74  1  0
 36 75  1  0
 37 76  1  0
 37 77  1  0
M  END
> <Uni-Dock RESULT> 
ENERGY=   -5.241  LOWER_BOUND=    6.805  UPPER_BOUND=    9.238
INTER + INTRA:          -5.241
INTER:                  -5.241
INTRA:                   0.000
UNBOUND:                 0.000

$$$$

     RDKit          3D

 77 74  0  0  0  0  0  0  0  0999 V2000
   48.1739    4.6363   18.0143 C   0  0  0  0  0  0  0  0  0  0  0  0
   48.8523    3.6526   17.3043 C   0  0  0  0  0  0  0  0  0  0  0  0
   48.7988    5.2720   19.1029 C   0  0  0  0  0  0  0  0  0  0  0  0
   50.1401    3.2784   17.6723 C   0  0  0  0  0  0  0  0  0  0  0  0
   50.1002    4.8726   19.4631 C   0  0  0  0  0  0  0  0  0  0  0  0
   48.2829    5.4082   22.2802 N   0  0  0  0  0  0  0  0  0  0  0  0
   50.7717    3.8795   18.7487 C   0  0  0  0  0  0  0  0  0  0  0  0
   47.4098    5.8456   21.1825 C   0  0  0  0  0  0  0  0  0  0  0  0
   48.1055    6.3649   19.8960 C   0  0  2  0  0  0  0  0  0  0  0  0
   48.2906    3.0268   16.2248 O   0  0  0  0  0  0  0  0  0  0  0  0
   50.7998    2.3160   16.9644 O   0  0  0  0  0  0  0  0  0  0  0  0
   47.1214    7.0078   19.0711 O   0  0  0  0  0  0  0  0  0  0  0  0
   49.0555    6.4706   22.9329 C   0  0  0  0  0  0  0  0  0  0  0  0
   50.0792    5.7994   23.8527 C   0  0  0  0  0  0  0  0  0  0  0  0
   48.1788    7.4272   23.7440 C   0  0  0  0  0  0  0  0  0  0  0  0
   48.8016    5.0917   20.6358 S   0  0  0  0  0  0  0  0  0  0  0  0
   49.9843    4.2794   20.5072 O   0  0  0  0  0  0  0  0  0  0  0  0
   47.5532    4.6151   21.1746 O   0  0  0  0  0  0  0  0  0  0  0  0
   49.1811    6.4105   21.4675 O   0  0  0  0  0  0  0  0  0  0  0  0
   48.5197    5.7136   19.1841 O   0  0  0  0  0  0  0  0  0  0  0  0
   49.8561    4.6328   18.6496 C   0  0  0  0  0  0  0  0  0  0  0  0
   49.3252    3.5752   17.9187 C   0  0  0  0  0  0  0  0  0  0  0  0
   49.0198    5.6821   19.0698 C   0  0  0  0  0  0  0  0  0  0  0  0
   47.9739    3.5560   17.5873 C   0  0  0  0  0  0  0  0  0  0  0  0
   47.6564    5.6484   18.7183 C   0  0  0  0  0  0  0  0  0  0  0  0
   49.4796    5.6127   22.1394 N   0  0  0  0  0  0  0  0  0  0  0  0
   47.1339    4.5867   17.9768 C   0  0  0  0  0  0  0  0  0  0  0  0
   50.2564    6.4346   21.2070 C   0  0  0  0  0  0  0  0  0  0  0  0
   49.5621    6.8442   19.8778 C   0  0  1  0  0  0  0  0  0  0  0  0
   50.0980    2.5260   17.5031 O   0  0  0  0  0  0  0  0  0  0  0  0
   47.4623    2.5137   16.8689 O   0  0  0  0  0  0  0  0  0  0  0  0
   50.4968    7.5405   19.0470 O   0  0  0  0  0  0  0  0  0  0  0  0
   48.7980    6.3467   23.2058 C   0  0  0  0  0  0  0  0  0  0  0  0
   47.6297    7.1973   22.7068 C   0  0  0  0  0  0  0  0  0  0  0  0
   48.2932    5.3203   24.2243 C   0  0  0  0  0  0  0  0  0  0  0  0
   48.8758    5.1464   20.5952 O   0  0  0  0  0  0  0  0  0  0  0  0
   48.8768    5.1619   20.6402 O   0  0  0  0  0  0  0  0  0  0  0  0
   47.1665    4.9270   17.7328 H   0  0  0  0  0  0  0  0  0  0  0  0
   50.6002    5.3391   20.3113 H   0  0  0  0  0  0  0  0  0  0  0  0
   47.7227    4.9146   22.9751 H   0  0  0  0  0  0  0  0  0  0  0  0
   51.7761    3.5809   19.0278 H   0  0  0  0  0  0  0  0  0  0  0  0
   46.7028    6.6023   21.5463 H   0  0  0  0  0  0  0  0  0  0  0  0
   46.7769    4.9918   20.9031 H   0  0  0  0  0  0  0  0  0  0  0  0
   48.8421    7.1412   20.1322 H   0  0  0  0  0  0  0  0  0  0  0  0
   47.4490    3.4788   16.0321 H   0  0  0  0  0  0  0  0  0  0  0  0
   50.1724    2.0609   16.2605 H   0  0  0  0  0  0  0  0  0  0  0  0
   46.9711    7.8856   19.4628 H   0  0  0  0  0  0  0  0  0  0  0  0
   49.6198    7.0454   22.1910 H   0  0  0  0  0  0  0  0  0  0  0  0
   50.7242    6.5487   24.3250 H   0  0  0  0  0  0  0  0  0  0  0  0
   49.5893    5.2258   24.6486 H   0  0  0  0  0  0  0  0  0  0  0  0
   50.7258    5.1144   23.2906 H   0  0  0  0  0  0  0  0  0  0  0  0
   47.5073    8.0032   23.0997 H   0  0  0  0  0  0  0  0  0  0  0  0
   48.8010    8.1470   24.2908 H   0  0  0  0  0  0  0  0  0  0  0  0
   47.5681    6.8893   24.4789 H   0  0  0  0  0  0  0  0  0  0  0  0
   48.3408    6.8248   21.7524 H   0  0  0  0  0  0  0  0  0  0  0  0
   49.3796    5.7542   18.7155 H   0  0  0  0  0  0  0  0  0  0  0  0
   50.9146    4.6612   18.8920 H   0  0  0  0  0  0  0  0  0  0  0  0
   46.9897    6.4567   19.0130 H   0  0  0  0  0  0  0  0  0  0  0  0
   48.8286    5.0100   21.6327 H   0  0  0  0  0  0  0  0  0  0  0  0
   46.0829    4.5662   17.7028 H   0  0  0  0  0  0  0  0  0  0  0  0
   50.6428    7.3349   21.7031 H   0  0  0  0  0  0  0  0  0  0  0  0
   51.1610    5.8634   20.9590 H   0  0  0  0  0  0  0  0  0  0  0  0
   48.7493    7.5473   20.0903 H   0  0  0  0  0  0  0  0  0  0  0  0
   51.0038    2.6799   17.8275 H   0  0  0  0  0  0  0  0  0  0  0  0
   48.2231    1.9102   16.7418 H   0  0  0  0  0  0  0  0  0  0  0  0
   50.7022    8.3802   19.4918 H   0  0  0  0  0  0  0  0  0  0  0  0
   49.5170    6.9941   23.7253 H   0  0  0  0  0  0  0  0  0  0  0  0
   47.0596    7.6068   23.5484 H   0  0  0  0  0  0  0  0  0  0  0  0
   46.9382    6.6120   22.0916 H   0  0  0  0  0  0  0  0  0  0  0  0
   47.9815    8.0487   22.1172 H   0  0  0  0  0  0  0  0  0  0  0  0
   47.8106    5.8206   25.0708 H   0  0  0  0  0  0  0  0  0  0  0  0
   49.1232    4.7245   24.6234 H   0  0  0  0  0  0  0  0  0  0  0  0
   47.5630    4.6324   23.7809 H   0  0  0  0  0  0  0  0  0  0  0  0
   48.8183    5.9216   21.1737 H   0  0  0  0  0  0  0  0  0  0  0  0
   48.7746    5.5132   19.7041 H   0  0  0  0  0  0  0  0  0  0  0  0
   48.7863    5.4198   19.7104 H   0  0  0  0  0  0  0  0  0  0  0  0
   48.8056    5.9995   21.1224 H   0  0  0  0  0  0  0  0  0  0  0  0
  2  1  2  0
  3  1  1  0
  4  2  1  0
  5  3  2  0
  6  8  1  0
  7  5  1  0
  8  9  1  0
  9  3  1  0
 10  2  1  0
 11  4  1  0
 12  9  1  0
 13  6  1  0
 14 13  1  0
 15 13  1  0
  7  4  2  0
 17 16  2  0
 18 16  2  0
 19 16  1  0
 20 16  1  0
 22 21  2  0
 23 21  1  0
 24 22  1  0
 25 23  2  0
 26 28  1  0
 27 25  1  0
 28 29  1  0
 29 23  1  0
 30 22  1  0
 31 24  1  0
 32 29  1  0
 33 26  1  0
 34 33  1  0
 35 33  1  0
 27 24  2  0
  1 38  1  0
  5 39  1  0
  6 40  1  0
  7 41  1  0
  8 42  1  0
  8 43  1  0
  9 44  1  6
 10 45  1  0
 11 46  1  0
 12 47  1  0
 13 48  1  0
 14 49  1  0
 14 50  1  0
 14 51  1  0
 15 52  1  0
 15 53  1  0
 15 54  1  0
 19 55  1  0
 20 56  1  0
 21 57  1  0
 25 58  1  0
 26 59  1  0
 27 60  1  0
 28 61  1  0
 28 62  1  0
 29 63  1  1
 30 64  1  0
 31 65  1  0
 32 66  1  0
 33 67  1  0
 34 68  1  0
 34 69  1  0
 34 70  1  0
 35 71  1  0
 35 72  1  0
 35 73  1  0
 36 74  1  0
 36 75  1  0
 37 76  1  0
 37 77  1  0
M  END
> <Uni-Dock RESULT> 
ENERGY=   -4.998  LOWER_BOUND=    1.901  UPPER_BOUND=    3.403
INTER + INTRA:          -4.998
INTER:                  -4.998
INTRA:                   0.000
UNBOUND:                 0.000

$$$$

     RDKit          3D

 77 74  0  0  0  0  0  0  0  0999 V2000
   47.4699    9.9011   20.2365 C   0  0  0  0  0  0  0  0  0  0  0  0
   47.2211   11.1098   19.5966 C   0  0  0  0  0  0  0  0  0  0  0  0
   48.1848    8.8891   19.5699 C   0  0  0  0  0  0  0  0  0  0  0  0
   47.6590   11.3213   18.2938 C   0  0  0  0  0  0  0  0  0  0  0  0
   48.6125    9.1216   18.2486 C   0  0  0  0  0  0  0  0  0  0  0  0
   47.5070    5.9224   18.5120 N   0  0  0  0  0  0  0  0  0  0  0  0
   48.3529   10.3356   17.6113 C   0  0  0  0  0  0  0  0  0  0  0  0
   47.4787    6.4428   19.8857 C   0  0  0  0  0  0  0  0  0  0  0  0
   48.4973    7.5606   20.2345 C   0  0  2  0  0  0  0  0  0  0  0  0
   46.5510   12.1287   20.2172 O   0  0  0  0  0  0  0  0  0  0  0  0
   47.4152   12.5140   17.6770 O   0  0  0  0  0  0  0  0  0  0  0  0
   48.5213    7.7295   21.6603 O   0  0  0  0  0  0  0  0  0  0  0  0
   48.7089    5.1636   18.1498 C   0  0  0  0  0  0  0  0  0  0  0  0
   48.6730    4.9353   16.6362 C   0  0  0  0  0  0  0  0  0  0  0  0
   48.8009    3.8190   18.8746 C   0  0  0  0  0  0  0  0  0  0  0  0
   47.8193    7.6303   18.7551 S   0  0  0  0  0  0  0  0  0  0  0  0
   47.9252    8.4157   17.5522 O   0  0  0  0  0  0  0  0  0  0  0  0
   46.6081    6.9805   19.1874 O   0  0  0  0  0  0  0  0  0  0  0  0
   48.9553    6.4973   18.7217 O   0  0  0  0  0  0  0  0  0  0  0  0
   48.3471    8.5605   19.9509 O   0  0  0  0  0  0  0  0  0  0  0  0
   48.3973    9.8507   18.6969 C   0  0  0  0  0  0  0  0  0  0  0  0
   47.3579   10.7473   18.9205 C   0  0  0  0  0  0  0  0  0  0  0  0
   48.6439    8.8208   19.6219 C   0  0  0  0  0  0  0  0  0  0  0  0
   46.5692   10.6413   20.0620 C   0  0  0  0  0  0  0  0  0  0  0  0
   47.8396    8.7343   20.7747 C   0  0  0  0  0  0  0  0  0  0  0  0
   48.4157    6.3191   17.7974 N   0  0  0  0  0  0  0  0  0  0  0  0
   46.8035    9.6444   20.9953 C   0  0  0  0  0  0  0  0  0  0  0  0
   49.6672    7.0335   18.0657 C   0  0  0  0  0  0  0  0  0  0  0  0
   49.7603    7.8191   19.4039 C   0  0  1  0  0  0  0  0  0  0  0  0
   47.0720   11.7543   18.0401 O   0  0  0  0  0  0  0  0  0  0  0  0
   45.5516   11.5268   20.2731 O   0  0  0  0  0  0  0  0  0  0  0  0
   50.9949    8.5419   19.4470 O   0  0  0  0  0  0  0  0  0  0  0  0
   48.4153    4.8992   18.1500 C   0  0  0  0  0  0  0  0  0  0  0  0
   48.4407    4.6479   19.6578 C   0  0  0  0  0  0  0  0  0  0  0  0
   47.1573    4.2720   17.5419 C   0  0  0  0  0  0  0  0  0  0  0  0
   47.9131    7.6659   18.7463 O   0  0  0  0  0  0  0  0  0  0  0  0
   47.9191    7.6209   18.7318 O   0  0  0  0  0  0  0  0  0  0  0  0
   47.1247    9.7309   21.2516 H   0  0  0  0  0  0  0  0  0  0  0  0
   49.1551    8.3484   17.7056 H   0  0  0  0  0  0  0  0  0  0  0  0
   46.6785    5.3484   18.3559 H   0  0  0  0  0  0  0  0  0  0  0  0
   48.6904   10.5102   16.5956 H   0  0  0  0  0  0  0  0  0  0  0  0
   47.5843    5.6164   20.6004 H   0  0  0  0  0  0  0  0  0  0  0  0
   46.4693    6.8362   20.0695 H   0  0  0  0  0  0  0  0  0  0  0  0
   49.5159    7.2663   19.9572 H   0  0  0  0  0  0  0  0  0  0  0  0
   46.4195   11.8666   21.1466 H   0  0  0  0  0  0  0  0  0  0  0  0
   46.9386   13.0401   18.3479 H   0  0  0  0  0  0  0  0  0  0  0  0
   49.0560    6.9963   22.0110 H   0  0  0  0  0  0  0  0  0  0  0  0
   49.6101    5.7474   18.3644 H   0  0  0  0  0  0  0  0  0  0  0  0
   49.5799    4.4195   16.3015 H   0  0  0  0  0  0  0  0  0  0  0  0
   47.8099    4.3262   16.3419 H   0  0  0  0  0  0  0  0  0  0  0  0
   48.6159    5.8875   16.0945 H   0  0  0  0  0  0  0  0  0  0  0  0
   48.9362    3.9505   19.9527 H   0  0  0  0  0  0  0  0  0  0  0  0
   49.6598    3.2434   18.5072 H   0  0  0  0  0  0  0  0  0  0  0  0
   47.9011    3.2128   18.7153 H   0  0  0  0  0  0  0  0  0  0  0  0
   48.7245    5.8358   19.4059 H   0  0  0  0  0  0  0  0  0  0  0  0
   48.9715    9.2068   19.5598 H   0  0  0  0  0  0  0  0  0  0  0  0
   49.0280    9.9434   17.8173 H   0  0  0  0  0  0  0  0  0  0  0  0
   48.0201    7.9595   21.5176 H   0  0  0  0  0  0  0  0  0  0  0  0
   47.6246    6.8049   18.2239 H   0  0  0  0  0  0  0  0  0  0  0  0
   46.1883    9.5782   21.8881 H   0  0  0  0  0  0  0  0  0  0  0  0
   50.5307    6.3603   17.9831 H   0  0  0  0  0  0  0  0  0  0  0  0
   49.8093    7.7444   17.2407 H   0  0  0  0  0  0  0  0  0  0  0  0
   49.7821    7.1139   20.2421 H   0  0  0  0  0  0  0  0  0  0  0  0
   47.6954   11.6806   17.2949 H   0  0  0  0  0  0  0  0  0  0  0  0
   45.5632   12.1028   19.4809 H   0  0  0  0  0  0  0  0  0  0  0  0
   51.7087    7.8835   19.4925 H   0  0  0  0  0  0  0  0  0  0  0  0
   49.2807    4.4048   17.6891 H   0  0  0  0  0  0  0  0  0  0  0  0
   48.2884    3.5851   19.8775 H   0  0  0  0  0  0  0  0  0  0  0  0
   47.6546    5.2089   20.1739 H   0  0  0  0  0  0  0  0  0  0  0  0
   49.4057    4.9266   20.0908 H   0  0  0  0  0  0  0  0  0  0  0  0
   47.1283    3.1950   17.7388 H   0  0  0  0  0  0  0  0  0  0  0  0
   47.1392    4.4085   16.4536 H   0  0  0  0  0  0  0  0  0  0  0  0
   46.2422    4.7131   17.9553 H   0  0  0  0  0  0  0  0  0  0  0  0
   48.3968    6.8388   18.8906 H   0  0  0  0  0  0  0  0  0  0  0  0
   48.2691    8.2641   19.4202 H   0  0  0  0  0  0  0  0  0  0  0  0
   48.2026    8.2992   19.3633 H   0  0  0  0  0  0  0  0  0  0  0  0
   48.4573    6.8486   18.9620 H   0  0  0  0  0  0  0  0  0  0  0  0
  2  1  2  0
  3  1  1  0
  4  2  1  0
  5  3  2  0
  6  8  1  0
  7  5  1  0
  8  9  1  0
  9  3  1  0
 10  2  1  0
 11  4  1  0
 12  9  1  0
 13  6  1  0
 14 13  1  0
 15 13  1  0
  7  4  2  0
 17 16  2  0
 18 16  2  0
 19 16  1  0
 20 16  1  0
 22 21  2  0
 23 21  1  0
 24 22  1  0
 25 23  2  0
 26 28  1  0
 27 25  1  0
 28 29  1  0
 29 23  1  0
 30 22  1  0
 31 24  1  0
 32 29  1  0
 33 26  1  0
 34 33  1  0
 35 33  1  0
 27 24  2  0
  1 38  1  0
  5 39  1  0
  6 40  1  0
  7 41  1  0
  8 42  1  0
  8 43  1  0
  9 44  1  6
 10 45  1  0
 11 46  1  0
 12 47  1  0
 13 48  1  0
 14 49  1  0
 14 50  1  0
 14 51  1  0
 15 52  1  0
 15 53  1  0
 15 54  1  0
 19 55  1  0
 20 56  1  0
 21 57  1  0
 25 58  1  0
 26 59  1  0
 27 60  1  0
 28 61  1  0
 28 62  1  0
 29 63  1  1
 30 64  1  0
 31 65  1  0
 32 66  1  0
 33 67  1  0
 34 68  1  0
 34 69  1  0
 34 70  1  0
 35 71  1  0
 35 72  1  0
 35 73  1  0
 36 74  1  0
 36 75  1  0
 37 76  1  0
 37 77  1  0
M  END
> <Uni-Dock RESULT> 
ENERGY=   -4.991  LOWER_BOUND=    3.577  UPPER_BOUND=    7.039
INTER + INTRA:          -4.991
INTER:                  -4.991
INTRA:                   0.000
UNBOUND:                 0.000

$$$$

     RDKit          3D

 77 74  0  0  0  0  0  0  0  0999 V2000
   47.1017   10.7174   11.8671 C   0  0  0  0  0  0  0  0  0  0  0  0
   45.7490   10.8922   11.5988 C   0  0  0  0  0  0  0  0  0  0  0  0
   47.5511    9.5197   12.4528 C   0  0  0  0  0  0  0  0  0  0  0  0
   44.8318    9.8978   11.9210 C   0  0  0  0  0  0  0  0  0  0  0  0
   46.6045    8.5291   12.7777 C   0  0  0  0  0  0  0  0  0  0  0  0
   48.9163    8.7126   15.2573 N   0  0  0  0  0  0  0  0  0  0  0  0
   45.2475    8.7154   12.5109 C   0  0  0  0  0  0  0  0  0  0  0  0
   49.4200    9.6097   14.2084 C   0  0  0  0  0  0  0  0  0  0  0  0
   49.0202    9.2754   12.7465 C   0  0  2  0  0  0  0  0  0  0  0  0
   45.2733   12.0311   11.0081 O   0  0  0  0  0  0  0  0  0  0  0  0
   43.5069   10.0769   11.6474 O   0  0  0  0  0  0  0  0  0  0  0  0
   49.8265   10.0659   11.8592 O   0  0  0  0  0  0  0  0  0  0  0  0
   49.4710    7.3547   15.2454 C   0  0  0  0  0  0  0  0  0  0  0  0
   48.6492    6.5110   16.2237 C   0  0  0  0  0  0  0  0  0  0  0  0
   50.9485    7.3153   15.6414 C   0  0  0  0  0  0  0  0  0  0  0  0
   47.8778    9.0433   13.8841 S   0  0  0  0  0  0  0  0  0  0  0  0
   46.5393    8.5200   13.9824 O   0  0  0  0  0  0  0  0  0  0  0  0
   48.4033   10.0747   14.7421 O   0  0  0  0  0  0  0  0  0  0  0  0
   48.9084    7.8160   13.9657 O   0  0  0  0  0  0  0  0  0  0  0  0
   48.0715    9.5073   12.3607 O   0  0  0  0  0  0  0  0  0  0  0  0
   46.3177    9.1344   12.2032 C   0  0  0  0  0  0  0  0  0  0  0  0
   45.6030   10.3241   12.1118 C   0  0  0  0  0  0  0  0  0  0  0  0
   47.7236    9.1616   12.2076 C   0  0  0  0  0  0  0  0  0  0  0  0
   46.2704   11.5408   12.0093 C   0  0  0  0  0  0  0  0  0  0  0  0
   48.3808   10.4021   12.0955 C   0  0  0  0  0  0  0  0  0  0  0  0
   48.3355    7.7054   14.8804 N   0  0  0  0  0  0  0  0  0  0  0  0
   47.6549   11.5909   11.9955 C   0  0  0  0  0  0  0  0  0  0  0  0
   48.2252    7.0348   13.5818 C   0  0  0  0  0  0  0  0  0  0  0  0
   48.5340    7.8855   12.3178 C   0  0  1  0  0  0  0  0  0  0  0  0
   44.2355   10.3464   12.1199 O   0  0  0  0  0  0  0  0  0  0  0  0
   45.5599   12.7034   11.9192 O   0  0  0  0  0  0  0  0  0  0  0  0
   48.2680    7.1098   11.1448 O   0  0  0  0  0  0  0  0  0  0  0  0
   49.6090    7.5205   15.5764 C   0  0  0  0  0  0  0  0  0  0  0  0
   50.7779    8.2429   14.9062 C   0  0  0  0  0  0  0  0  0  0  0  0
   49.4333    8.0369   17.0075 C   0  0  0  0  0  0  0  0  0  0  0  0
   47.8640    8.9728   13.8135 O   0  0  0  0  0  0  0  0  0  0  0  0
   47.8888    8.9483   13.8460 O   0  0  0  0  0  0  0  0  0  0  0  0
   47.8196   11.4939   11.6216 H   0  0  0  0  0  0  0  0  0  0  0  0
   46.9253    7.5989   13.2455 H   0  0  0  0  0  0  0  0  0  0  0  0
   49.0778    9.1415   16.1685 H   0  0  0  0  0  0  0  0  0  0  0  0
   44.5246    7.9459   12.7582 H   0  0  0  0  0  0  0  0  0  0  0  0
   50.5124    9.6907   14.2789 H   0  0  0  0  0  0  0  0  0  0  0  0
   49.0555   10.6212   14.4354 H   0  0  0  0  0  0  0  0  0  0  0  0
   49.2529    8.2326   12.5029 H   0  0  0  0  0  0  0  0  0  0  0  0
   46.0443   12.5661   10.7452 H   0  0  0  0  0  0  0  0  0  0  0  0
   43.4636   10.9578   11.2275 H   0  0  0  0  0  0  0  0  0  0  0  0
   50.6966    9.6321   11.8249 H   0  0  0  0  0  0  0  0  0  0  0  0
   49.3543    6.9015   14.2553 H   0  0  0  0  0  0  0  0  0  0  0  0
   48.9860    5.4685   16.2125 H   0  0  0  0  0  0  0  0  0  0  0  0
   48.7400    6.8841   17.2509 H   0  0  0  0  0  0  0  0  0  0  0  0
   47.5859    6.5173   15.9541 H   0  0  0  0  0  0  0  0  0  0  0  0
   51.5779    7.8200   14.9018 H   0  0  0  0  0  0  0  0  0  0  0  0
   51.2989    6.2778   15.7123 H   0  0  0  0  0  0  0  0  0  0  0  0
   51.1178    7.7911   16.6148 H   0  0  0  0  0  0  0  0  0  0  0  0
   49.7950    8.1936   14.1404 H   0  0  0  0  0  0  0  0  0  0  0  0
   47.4623    8.9675   11.8148 H   0  0  0  0  0  0  0  0  0  0  0  0
   45.7999    8.1814   12.2623 H   0  0  0  0  0  0  0  0  0  0  0  0
   49.4679   10.4517   12.0764 H   0  0  0  0  0  0  0  0  0  0  0  0
   48.1026    8.6965   14.7954 H   0  0  0  0  0  0  0  0  0  0  0  0
   48.1648   12.5457   11.9040 H   0  0  0  0  0  0  0  0  0  0  0  0
   48.8332    6.1207   13.5573 H   0  0  0  0  0  0  0  0  0  0  0  0
   47.1939    6.6657   13.5024 H   0  0  0  0  0  0  0  0  0  0  0  0
   49.6013    8.1319   12.2937 H   0  0  0  0  0  0  0  0  0  0  0  0
   43.9259    9.4274   12.2146 H   0  0  0  0  0  0  0  0  0  0  0  0
   44.6240   12.4210   11.9803 H   0  0  0  0  0  0  0  0  0  0  0  0
   48.9194    6.3884   11.1270 H   0  0  0  0  0  0  0  0  0  0  0  0
   49.8402    6.4490   15.6433 H   0  0  0  0  0  0  0  0  0  0  0  0
   51.6732    8.2025   15.5370 H   0  0  0  0  0  0  0  0  0  0  0  0
   50.5488    9.2980   14.7232 H   0  0  0  0  0  0  0  0  0  0  0  0
   51.0398    7.7754   13.9528 H   0  0  0  0  0  0  0  0  0  0  0  0
   50.3480    7.8817   17.5896 H   0  0  0  0  0  0  0  0  0  0  0  0
   48.6228    7.5034   17.5191 H   0  0  0  0  0  0  0  0  0  0  0  0
   49.2010    9.1086   17.0277 H   0  0  0  0  0  0  0  0  0  0  0  0
   48.6593    8.4444   13.9779 H   0  0  0  0  0  0  0  0  0  0  0  0
   47.9300    9.2069   12.8757 H   0  0  0  0  0  0  0  0  0  0  0  0
   47.8544    9.2389   12.9221 H   0  0  0  0  0  0  0  0  0  0  0  0
   48.7101    8.4367   13.8990 H   0  0  0  0  0  0  0  0  0  0  0  0
  2  1  2  0
  3  1  1  0
  4  2  1  0
  5  3  2  0
  6  8  1  0
  7  5  1  0
  8  9  1  0
  9  3  1  0
 10  2  1  0
 11  4  1  0
 12  9  1  0
 13  6  1  0
 14 13  1  0
 15 13  1  0
  7  4  2  0
 17 16  2  0
 18 16  2  0
 19 16  1  0
 20 16  1  0
 22 21  2  0
 23 21  1  0
 24 22  1  0
 25 23  2  0
 26 28  1  0
 27 25  1  0
 28 29  1  0
 29 23  1  0
 30 22  1  0
 31 24  1  0
 32 29  1  0
 33 26  1  0
 34 33  1  0
 35 33  1  0
 27 24  2  0
  1 38  1  0
  5 39  1  0
  6 40  1  0
  7 41  1  0
  8 42  1  0
  8 43  1  0
  9 44  1  6
 10 45  1  0
 11 46  1  0
 12 47  1  0
 13 48  1  0
 14 49  1  0
 14 50  1  0
 14 51  1  0
 15 52  1  0
 15 53  1  0
 15 54  1  0
 19 55  1  0
 20 56  1  0
 21 57  1  0
 25 58  1  0
 26 59  1  0
 27 60  1  0
 28 61  1  0
 28 62  1  0
 29 63  1  1
 30 64  1  0
 31 65  1  0
 32 66  1  0
 33 67  1  0
 34 68  1  0
 34 69  1  0
 34 70  1  0
 35 71  1  0
 35 72  1  0
 35 73  1  0
 36 74  1  0
 36 75  1  0
 37 76  1  0
 37 77  1  0
M  END
> <Uni-Dock RESULT> 
ENERGY=   -4.895  LOWER_BOUND=    6.690  UPPER_BOUND=    9.318
INTER + INTRA:          -4.895
INTER:                  -4.895
INTRA:                   0.000
UNBOUND:                 0.000

$$$$

     RDKit          3D

 77 74  0  0  0  0  0  0  0  0999 V2000
   48.4979    5.6052   16.6183 C   0  0  0  0  0  0  0  0  0  0  0  0
   47.8767    4.3633   16.5541 C   0  0  0  0  0  0  0  0  0  0  0  0
   48.6354    6.2569   17.8576 C   0  0  0  0  0  0  0  0  0  0  0  0
   47.3734    3.7660   17.7047 C   0  0  0  0  0  0  0  0  0  0  0  0
   48.1120    5.6377   19.0090 C   0  0  0  0  0  0  0  0  0  0  0  0
   47.4859    8.9711   19.1583 N   0  0  0  0  0  0  0  0  0  0  0  0
   47.4841    4.3937   18.9346 C   0  0  0  0  0  0  0  0  0  0  0  0
   48.3368    8.8026   17.9724 C   0  0  0  0  0  0  0  0  0  0  0  0
   49.3232    7.6044   17.9802 C   0  0  2  0  0  0  0  0  0  0  0  0
   47.7439    3.6846   15.3733 O   0  0  0  0  0  0  0  0  0  0  0  0
   46.7710    2.5436   17.6316 O   0  0  0  0  0  0  0  0  0  0  0  0
   50.2534    7.7703   16.8989 O   0  0  0  0  0  0  0  0  0  0  0  0
   48.1880    9.3489   20.3895 C   0  0  0  0  0  0  0  0  0  0  0  0
   47.1934    9.2216   21.5467 C   0  0  0  0  0  0  0  0  0  0  0  0
   48.7456   10.7730   20.3398 C   0  0  0  0  0  0  0  0  0  0  0  0
   47.8532    7.3403   18.6300 S   0  0  0  0  0  0  0  0  0  0  0  0
   47.1499    6.2931   19.3255 O   0  0  0  0  0  0  0  0  0  0  0  0
   47.2122    8.3171   17.7867 O   0  0  0  0  0  0  0  0  0  0  0  0
   48.7217    8.1635   19.6991 O   0  0  0  0  0  0  0  0  0  0  0  0
   49.0096    6.6223   17.7810 O   0  0  0  0  0  0  0  0  0  0  0  0
   48.2225    5.0963   18.3208 C   0  0  0  0  0  0  0  0  0  0  0  0
   47.5538    4.5207   17.2456 C   0  0  0  0  0  0  0  0  0  0  0  0
   49.0219    6.2353   18.1188 C   0  0  0  0  0  0  0  0  0  0  0  0
   47.6829    5.0557   15.9676 C   0  0  0  0  0  0  0  0  0  0  0  0
   49.1459    6.7576   16.8169 C   0  0  0  0  0  0  0  0  0  0  0  0
   47.7180    8.2337   20.1049 N   0  0  0  0  0  0  0  0  0  0  0  0
   48.4777    6.1679   15.7417 C   0  0  0  0  0  0  0  0  0  0  0  0
   48.8382    7.3497   20.4399 C   0  0  0  0  0  0  0  0  0  0  0  0
   49.7550    6.8952   19.2696 C   0  0  1  0  0  0  0  0  0  0  0  0
   46.7532    3.4224   17.3984 O   0  0  0  0  0  0  0  0  0  0  0  0
   47.0231    4.4831   14.9182 O   0  0  0  0  0  0  0  0  0  0  0  0
   50.7177    5.9545   19.7563 O   0  0  0  0  0  0  0  0  0  0  0  0
   47.9673    9.6628   20.2953 C   0  0  0  0  0  0  0  0  0  0  0  0
   48.9581   10.2459   19.2876 C   0  0  0  0  0  0  0  0  0  0  0  0
   46.6226   10.3866   20.1774 C   0  0  0  0  0  0  0  0  0  0  0  0
   47.9189    7.2844   18.6819 O   0  0  0  0  0  0  0  0  0  0  0  0
   47.9149    7.3224   18.7104 O   0  0  0  0  0  0  0  0  0  0  0  0
   48.8871    6.0764   15.7211 H   0  0  0  0  0  0  0  0  0  0  0  0
   48.1926    6.1286   19.9783 H   0  0  0  0  0  0  0  0  0  0  0  0
   46.7598    9.6573   18.9527 H   0  0  0  0  0  0  0  0  0  0  0  0
   47.0886    3.9197   19.8261 H   0  0  0  0  0  0  0  0  0  0  0  0
   48.8898    9.7298   17.7747 H   0  0  0  0  0  0  0  0  0  0  0  0
   47.6739    8.6887   17.1034 H   0  0  0  0  0  0  0  0  0  0  0  0
   49.9315    7.6006   18.8918 H   0  0  0  0  0  0  0  0  0  0  0  0
   48.2435    4.1773   14.6970 H   0  0  0  0  0  0  0  0  0  0  0  0
   46.8271    2.3026   16.6866 H   0  0  0  0  0  0  0  0  0  0  0  0
   50.9007    8.4325   17.1973 H   0  0  0  0  0  0  0  0  0  0  0  0
   49.0072    8.6514   20.5932 H   0  0  0  0  0  0  0  0  0  0  0  0
   47.6827    9.4386   22.5026 H   0  0  0  0  0  0  0  0  0  0  0  0
   46.3526    9.9164   21.4323 H   0  0  0  0  0  0  0  0  0  0  0  0
   46.7863    8.2048   21.6075 H   0  0  0  0  0  0  0  0  0  0  0  0
   49.5388   10.8696   19.5919 H   0  0  0  0  0  0  0  0  0  0  0  0
   49.1782   11.0494   21.3096 H   0  0  0  0  0  0  0  0  0  0  0  0
   47.9634   11.5042   20.1037 H   0  0  0  0  0  0  0  0  0  0  0  0
   48.9945    8.9996   19.2682 H   0  0  0  0  0  0  0  0  0  0  0  0
   49.2270    5.7843   18.2404 H   0  0  0  0  0  0  0  0  0  0  0  0
   48.1405    4.6687   19.3160 H   0  0  0  0  0  0  0  0  0  0  0  0
   49.7737    7.6265   16.6275 H   0  0  0  0  0  0  0  0  0  0  0  0
   47.3767    8.0417   19.1613 H   0  0  0  0  0  0  0  0  0  0  0  0
   48.5796    6.5702   14.7378 H   0  0  0  0  0  0  0  0  0  0  0  0
   49.4587    7.7838   21.2351 H   0  0  0  0  0  0  0  0  0  0  0  0
   48.4063    6.4532   20.9045 H   0  0  0  0  0  0  0  0  0  0  0  0
   50.3209    7.7542   18.8926 H   0  0  0  0  0  0  0  0  0  0  0  0
   46.7546    3.1854   18.3436 H   0  0  0  0  0  0  0  0  0  0  0  0
   46.5144    3.7502   15.3225 H   0  0  0  0  0  0  0  0  0  0  0  0
   51.3051    6.4365   20.3626 H   0  0  0  0  0  0  0  0  0  0  0  0
   48.3436    9.8390   21.3118 H   0  0  0  0  0  0  0  0  0  0  0  0
   48.9998   11.3379   19.3705 H   0  0  0  0  0  0  0  0  0  0  0  0
   48.6769   10.0023   18.2577 H   0  0  0  0  0  0  0  0  0  0  0  0
   49.9713    9.8749   19.4665 H   0  0  0  0  0  0  0  0  0  0  0  0
   46.7446   11.4603   20.3560 H   0  0  0  0  0  0  0  0  0  0  0  0
   45.9085   10.0082   20.9191 H   0  0  0  0  0  0  0  0  0  0  0  0
   46.1786   10.2606   19.1825 H   0  0  0  0  0  0  0  0  0  0  0  0
   48.3961    7.9987   19.1301 H   0  0  0  0  0  0  0  0  0  0  0  0
   48.6143    6.7969   18.2155 H   0  0  0  0  0  0  0  0  0  0  0  0
   48.5262    6.7648   18.2058 H   0  0  0  0  0  0  0  0  0  0  0  0
   48.4881    7.9930   19.1114 H   0  0  0  0  0  0  0  0  0  0  0  0
  2  1  2  0
  3  1  1  0
  4  2  1  0
  5  3  2  0
  6  8  1  0
  7  5  1  0
  8  9  1  0
  9  3  1  0
 10  2  1  0
 11  4  1  0
 12  9  1  0
 13  6  1  0
 14 13  1  0
 15 13  1  0
  7  4  2  0
 17 16  2  0
 18 16  2  0
 19 16  1  0
 20 16  1  0
 22 21  2  0
 23 21  1  0
 24 22  1  0
 25 23  2  0
 26 28  1  0
 27 25  1  0
 28 29  1  0
 29 23  1  0
 30 22  1  0
 31 24  1  0
 32 29  1  0
 33 26  1  0
 34 33  1  0
 35 33  1  0
 27 24  2  0
  1 38  1  0
  5 39  1  0
  6 40  1  0
  7 41  1  0
  8 42  1  0
  8 43  1  0
  9 44  1  6
 10 45  1  0
 11 46  1  0
 12 47  1  0
 13 48  1  0
 14 49  1  0
 14 50  1  0
 14 51  1  0
 15 52  1  0
 15 53  1  0
 15 54  1  0
 19 55  1  0
 20 56  1  0
 21 57  1  0
 25 58  1  0
 26 59  1  0
 27 60  1  0
 28 61  1  0
 28 62  1  0
 29 63  1  1
 30 64  1  0
 31 65  1  0
 32 66  1  0
 33 67  1  0
 34 68  1  0
 34 69  1  0
 34 70  1  0
 35 71  1  0
 35 72  1  0
 35 73  1  0
 36 74  1  0
 36 75  1  0
 37 76  1  0
 37 77  1  0
M  END
> <Uni-Dock RESULT> 
ENERGY=   -4.826  LOWER_BOUND=    3.410  UPPER_BOUND=    4.658
INTER + INTRA:          -4.826
INTER:                  -4.826
INTRA:                   0.000
UNBOUND:                 0.000

$$$$

     RDKit          3D

 77 74  0  0  0  0  0  0  0  0999 V2000
   46.1372    7.1743   12.4726 C   0  0  0  0  0  0  0  0  0  0  0  0
   45.5534    5.9146   12.5416 C   0  0  0  0  0  0  0  0  0  0  0  0
   47.4051    7.3914   13.0427 C   0  0  0  0  0  0  0  0  0  0  0  0
   46.2058    4.8691   13.1858 C   0  0  0  0  0  0  0  0  0  0  0  0
   48.0448    6.3207   13.6966 C   0  0  0  0  0  0  0  0  0  0  0  0
   48.5497    9.1692   15.4736 N   0  0  0  0  0  0  0  0  0  0  0  0
   47.4486    5.0610   13.7668 C   0  0  0  0  0  0  0  0  0  0  0  0
   47.8730    9.6087   14.2457 C   0  0  0  0  0  0  0  0  0  0  0  0
   48.0909    8.7439   12.9756 C   0  0  2  0  0  0  0  0  0  0  0  0
   44.3332    5.6547   11.9795 O   0  0  0  0  0  0  0  0  0  0  0  0
   45.6267    3.6347   13.2422 O   0  0  0  0  0  0  0  0  0  0  0  0
   47.6071    9.4729   11.8369 O   0  0  0  0  0  0  0  0  0  0  0  0
   50.0129    9.2717   15.4582 C   0  0  0  0  0  0  0  0  0  0  0  0
   50.5408    8.5376   16.6939 C   0  0  0  0  0  0  0  0  0  0  0  0
   50.5050   10.7206   15.4667 C   0  0  0  0  0  0  0  0  0  0  0  0
   47.9350    7.9409   14.3841 S   0  0  0  0  0  0  0  0  0  0  0  0
   48.0122    6.5880   14.8726 O   0  0  0  0  0  0  0  0  0  0  0  0
   47.1046    8.9618   14.9710 O   0  0  0  0  0  0  0  0  0  0  0  0
   49.4211    8.5433   14.3243 O   0  0  0  0  0  0  0  0  0  0  0  0
   47.5809    7.8388   12.8227 O   0  0  0  0  0  0  0  0  0  0  0  0
   47.3901    6.0803   13.1559 C   0  0  0  0  0  0  0  0  0  0  0  0
   46.0385    5.7533   13.1297 C   0  0  0  0  0  0  0  0  0  0  0  0
   47.8033    7.3761   12.7992 C   0  0  0  0  0  0  0  0  0  0  0  0
   45.0930    6.6960   12.7379 C   0  0  0  0  0  0  0  0  0  0  0  0
   46.8322    8.3140   12.3984 C   0  0  0  0  0  0  0  0  0  0  0  0
   49.3315    8.2365   15.3610 N   0  0  0  0  0  0  0  0  0  0  0  0
   45.4781    7.9742   12.3668 C   0  0  0  0  0  0  0  0  0  0  0  0
   49.9564    7.5817   14.2082 C   0  0  0  0  0  0  0  0  0  0  0  0
   49.2665    7.7703   12.8279 C   0  0  1  0  0  0  0  0  0  0  0  0
   45.5901    4.5105   13.4837 O   0  0  0  0  0  0  0  0  0  0  0  0
   43.7685    6.3652   12.7146 O   0  0  0  0  0  0  0  0  0  0  0  0
   49.9405    6.9763   11.8460 O   0  0  0  0  0  0  0  0  0  0  0  0
   49.8929    9.5377   15.7246 C   0  0  0  0  0  0  0  0  0  0  0  0
   49.5833   10.6378   14.7092 C   0  0  0  0  0  0  0  0  0  0  0  0
   49.3228    9.9213   17.0934 C   0  0  0  0  0  0  0  0  0  0  0  0
   47.9988    7.8881   14.3269 O   0  0  0  0  0  0  0  0  0  0  0  0
   48.0293    7.9124   14.3543 O   0  0  0  0  0  0  0  0  0  0  0  0
   45.6281    7.9939   11.9751 H   0  0  0  0  0  0  0  0  0  0  0  0
   49.0204    6.4670   14.1589 H   0  0  0  0  0  0  0  0  0  0  0  0
   48.1770    9.6932   16.2653 H   0  0  0  0  0  0  0  0  0  0  0  0
   47.9494    4.2393   14.2668 H   0  0  0  0  0  0  0  0  0  0  0  0
   48.1360   10.6517   14.0271 H   0  0  0  0  0  0  0  0  0  0  0  0
   46.7945    9.6366   14.4545 H   0  0  0  0  0  0  0  0  0  0  0  0
   49.1582    8.5815   12.7875 H   0  0  0  0  0  0  0  0  0  0  0  0
   44.0703    6.4467   11.4760 H   0  0  0  0  0  0  0  0  0  0  0  0
   44.7837    3.7409   12.7602 H   0  0  0  0  0  0  0  0  0  0  0  0
   48.2915   10.1314   11.6260 H   0  0  0  0  0  0  0  0  0  0  0  0
   50.4240    8.7599   14.5817 H   0  0  0  0  0  0  0  0  0  0  0  0
   51.6364    8.5343   16.7028 H   0  0  0  0  0  0  0  0  0  0  0  0
   50.1970    9.0122   17.6208 H   0  0  0  0  0  0  0  0  0  0  0  0
   50.2074    7.4926   16.7048 H   0  0  0  0  0  0  0  0  0  0  0  0
   50.2349   11.2436   14.5440 H   0  0  0  0  0  0  0  0  0  0  0  0
   51.5986   10.7536   15.5506 H   0  0  0  0  0  0  0  0  0  0  0  0
   50.0892   11.2826   16.3114 H   0  0  0  0  0  0  0  0  0  0  0  0
   49.3363    9.5141   14.2281 H   0  0  0  0  0  0  0  0  0  0  0  0
   47.9128    6.9721   12.5076 H   0  0  0  0  0  0  0  0  0  0  0  0
   48.1326    5.3404   13.4411 H   0  0  0  0  0  0  0  0  0  0  0  0
   47.1250    9.3184   12.0980 H   0  0  0  0  0  0  0  0  0  0  0  0
   48.3188    8.2934   15.2383 H   0  0  0  0  0  0  0  0  0  0  0  0
   44.7321    8.6984   12.0523 H   0  0  0  0  0  0  0  0  0  0  0  0
   51.0149    7.8609   14.1223 H   0  0  0  0  0  0  0  0  0  0  0  0
   49.9862    6.5069   14.4320 H   0  0  0  0  0  0  0  0  0  0  0  0
   49.3663    8.8133   12.5078 H   0  0  0  0  0  0  0  0  0  0  0  0
   46.3646    3.9811   13.7465 H   0  0  0  0  0  0  0  0  0  0  0  0
   43.7434    5.4419   13.0403 H   0  0  0  0  0  0  0  0  0  0  0  0
   50.8294    7.3541   11.7360 H   0  0  0  0  0  0  0  0  0  0  0  0
   50.9816    9.4504   15.8385 H   0  0  0  0  0  0  0  0  0  0  0  0
   49.8904   11.6178   15.0918 H   0  0  0  0  0  0  0  0  0  0  0  0
   48.5128   10.6903   14.4847 H   0  0  0  0  0  0  0  0  0  0  0  0
   50.1256   10.4783   13.7729 H   0  0  0  0  0  0  0  0  0  0  0  0
   49.7459   10.8717   17.4359 H   0  0  0  0  0  0  0  0  0  0  0  0
   49.5676    9.1615   17.8459 H   0  0  0  0  0  0  0  0  0  0  0  0
   48.2320   10.0313   17.0635 H   0  0  0  0  0  0  0  0  0  0  0  0
   48.7463    8.5046   14.3358 H   0  0  0  0  0  0  0  0  0  0  0  0
   47.8132    7.7612   13.3845 H   0  0  0  0  0  0  0  0  0  0  0  0
   47.7584    7.7142   13.4451 H   0  0  0  0  0  0  0  0  0  0  0  0
   48.7708    8.5272   14.2478 H   0  0  0  0  0  0  0  0  0  0  0  0
  2  1  2  0
  3  1  1  0
  4  2  1  0
  5  3  2  0
  6  8  1  0
  7  5  1  0
  8  9  1  0
  9  3  1  0
 10  2  1  0
 11  4  1  0
 12  9  1  0
 13  6  1  0
 14 13  1  0
 15 13  1  0
  7  4  2  0
 17 16  2  0
 18 16  2  0
 19 16  1  0
 20 16  1  0
 22 21  2  0
 23 21  1  0
 24 22  1  0
 25 23  2  0
 26 28  1  0
 27 25  1  0
 28 29  1  0
 29 23  1  0
 30 22  1  0
 31 24  1  0
 32 29  1  0
 33 26  1  0
 34 33  1  0
 35 33  1  0
 27 24  2  0
  1 38  1  0
  5 39  1  0
  6 40  1  0
  7 41  1  0
  8 42  1  0
  8 43  1  0
  9 44  1  6
 10 45  1  0
 11 46  1  0
 12 47  1  0
 13 48  1  0
 14 49  1  0
 14 50  1  0
 14 51  1  0
 15 52  1  0
 15 53  1  0
 15 54  1  0
 19 55  1  0
 20 56  1  0
 21 57  1  0
 25 58  1  0
 26 59  1  0
 27 60  1  0
 28 61  1  0
 28 62  1  0
 29 63  1  1
 30 64  1  0
 31 65  1  0
 32 66  1  0
 33 67  1  0
 34 68  1  0
 34 69  1  0
 34 70  1  0
 35 71  1  0
 35 72  1  0
 35 73  1  0
 36 74  1  0
 36 75  1  0
 37 76  1  0
 37 77  1  0
M  END
> <Uni-Dock RESULT> 
ENERGY=   -4.675  LOWER_BOUND=    5.662  UPPER_BOUND=    7.519
INTER + INTRA:          -4.675
INTER:                  -4.675
INTRA:                   0.000
UNBOUND:                 0.000

$$$$

     RDKit          3D

 77 74  0  0  0  0  0  0  0  0999 V2000
   45.9892    9.4800   12.5919 C   0  0  0  0  0  0  0  0  0  0  0  0
   45.0475   10.2000   11.8658 C   0  0  0  0  0  0  0  0  0  0  0  0
   47.3345    9.8919   12.5973 C   0  0  0  0  0  0  0  0  0  0  0  0
   45.4278   11.3164   11.1292 C   0  0  0  0  0  0  0  0  0  0  0  0
   47.6992   11.0208   11.8386 C   0  0  0  0  0  0  0  0  0  0  0  0
   50.1137    8.6531   11.5382 N   0  0  0  0  0  0  0  0  0  0  0  0
   46.7484   11.7340   11.1073 C   0  0  0  0  0  0  0  0  0  0  0  0
   49.1866    8.1171   12.5442 C   0  0  0  0  0  0  0  0  0  0  0  0
   48.3947    9.1495   13.3903 C   0  0  2  0  0  0  0  0  0  0  0  0
   43.7252    9.8480   11.8531 O   0  0  0  0  0  0  0  0  0  0  0  0
   44.4941   12.0199   10.4251 O   0  0  0  0  0  0  0  0  0  0  0  0
   47.7797    8.4632   14.4916 O   0  0  0  0  0  0  0  0  0  0  0  0
   51.2852    9.3563   12.0717 C   0  0  0  0  0  0  0  0  0  0  0  0
   51.9786   10.0554   10.8990 C   0  0  0  0  0  0  0  0  0  0  0  0
   52.2708    8.4181   12.7718 C   0  0  0  0  0  0  0  0  0  0  0  0
   48.6106    9.5114   11.8170 S   0  0  0  0  0  0  0  0  0  0  0  0
   48.3431   10.5981   10.9100 O   0  0  0  0  0  0  0  0  0  0  0  0
   48.6668    8.1275   11.4197 O   0  0  0  0  0  0  0  0  0  0  0  0
   49.9856    9.8195   12.5847 O   0  0  0  0  0  0  0  0  0  0  0  0
   47.5517    9.6498   13.0141 O   0  0  0  0  0  0  0  0  0  0  0  0
   46.8343   10.9531   12.0008 C   0  0  0  0  0  0  0  0  0  0  0  0
   45.6368   10.5024   11.4555 C   0  0  0  0  0  0  0  0  0  0  0  0
   47.5218   10.1565   12.9335 C   0  0  0  0  0  0  0  0  0  0  0  0
   45.1064    9.2743   11.8384 C   0  0  0  0  0  0  0  0  0  0  0  0
   46.9652    8.9200   13.3140 C   0  0  0  0  0  0  0  0  0  0  0  0
   50.2816    9.8637   11.5419 N   0  0  0  0  0  0  0  0  0  0  0  0
   45.7579    8.4795   12.7676 C   0  0  0  0  0  0  0  0  0  0  0  0
   49.9484   10.9222   12.4995 C   0  0  0  0  0  0  0  0  0  0  0  0
   48.8350   10.6110   13.5388 C   0  0  1  0  0  0  0  0  0  0  0  0
   44.9427   11.2365   10.5336 O   0  0  0  0  0  0  0  0  0  0  0  0
   43.9297    8.8409   11.2980 O   0  0  0  0  0  0  0  0  0  0  0  0
   48.5636   11.7845   14.3120 O   0  0  0  0  0  0  0  0  0  0  0  0
   51.4286    9.0298   11.9016 C   0  0  0  0  0  0  0  0  0  0  0  0
   51.1608    8.1101   13.0932 C   0  0  0  0  0  0  0  0  0  0  0  0
   51.7947    8.1918   10.6730 C   0  0  0  0  0  0  0  0  0  0  0  0
   48.6112    9.5984   11.8676 O   0  0  0  0  0  0  0  0  0  0  0  0
   48.6579    9.5903   11.8630 O   0  0  0  0  0  0  0  0  0  0  0  0
   45.6965    8.6049   13.1637 H   0  0  0  0  0  0  0  0  0  0  0  0
   48.7371   11.3513   11.8145 H   0  0  0  0  0  0  0  0  0  0  0  0
   50.4171    7.8949   10.9271 H   0  0  0  0  0  0  0  0  0  0  0  0
   47.0350   12.6060   10.5299 H   0  0  0  0  0  0  0  0  0  0  0  0
   49.7185    7.4280   13.2127 H   0  0  0  0  0  0  0  0  0  0  0  0
   48.4597    7.4823   12.0188 H   0  0  0  0  0  0  0  0  0  0  0  0
   49.0673    9.8866   13.8434 H   0  0  0  0  0  0  0  0  0  0  0  0
   43.6095    9.1289   12.5007 H   0  0  0  0  0  0  0  0  0  0  0  0
   43.6544   11.5545   10.6049 H   0  0  0  0  0  0  0  0  0  0  0  0
   48.4835    8.3178   15.1474 H   0  0  0  0  0  0  0  0  0  0  0  0
   50.9764   10.1382   12.7734 H   0  0  0  0  0  0  0  0  0  0  0  0
   52.8324   10.6451   11.2507 H   0  0  0  0  0  0  0  0  0  0  0  0
   52.3482    9.3325   10.1618 H   0  0  0  0  0  0  0  0  0  0  0  0
   51.2926   10.7409   10.3865 H   0  0  0  0  0  0  0  0  0  0  0  0
   51.8390    7.9836   13.6788 H   0  0  0  0  0  0  0  0  0  0  0  0
   53.1737    8.9650   13.0715 H   0  0  0  0  0  0  0  0  0  0  0  0
   52.5816    7.5970   12.1149 H   0  0  0  0  0  0  0  0  0  0  0  0
   50.2757    8.9841   13.0055 H   0  0  0  0  0  0  0  0  0  0  0  0
   47.3013   10.5958   13.0700 H   0  0  0  0  0  0  0  0  0  0  0  0
   47.2405   11.9205   11.7197 H   0  0  0  0  0  0  0  0  0  0  0  0
   47.4653    8.2916   14.0486 H   0  0  0  0  0  0  0  0  0  0  0  0
   49.4604    9.2919   11.3362 H   0  0  0  0  0  0  0  0  0  0  0  0
   45.3286    7.5276   13.0671 H   0  0  0  0  0  0  0  0  0  0  0  0
   50.8453   11.2726   13.0274 H   0  0  0  0  0  0  0  0  0  0  0  0
   49.6334   11.7942   11.9109 H   0  0  0  0  0  0  0  0  0  0  0  0
   49.1919    9.8499   14.2414 H   0  0  0  0  0  0  0  0  0  0  0  0
   45.4502   12.0503   10.3616 H   0  0  0  0  0  0  0  0  0  0  0  0
   43.6830    9.5420   10.6601 H   0  0  0  0  0  0  0  0  0  0  0  0
   49.3580   11.9658   14.8422 H   0  0  0  0  0  0  0  0  0  0  0  0
   52.2922    9.6690   12.1286 H   0  0  0  0  0  0  0  0  0  0  0  0
   51.9865    7.4029   13.2318 H   0  0  0  0  0  0  0  0  0  0  0  0
   50.2445    7.5268   12.9549 H   0  0  0  0  0  0  0  0  0  0  0  0
   51.0713    8.6799   14.0225 H   0  0  0  0  0  0  0  0  0  0  0  0
   52.6791    7.5776   10.8734 H   0  0  0  0  0  0  0  0  0  0  0  0
   52.0280    8.8356    9.8160 H   0  0  0  0  0  0  0  0  0  0  0  0
   50.9788    7.5195   10.3812 H   0  0  0  0  0  0  0  0  0  0  0  0
   49.4510    9.4874   12.3380 H   0  0  0  0  0  0  0  0  0  0  0  0
   47.9669    9.7512   12.5749 H   0  0  0  0  0  0  0  0  0  0  0  0
   47.9337    9.7511   12.4866 H   0  0  0  0  0  0  0  0  0  0  0  0
   49.4376    9.4955   12.4308 H   0  0  0  0  0  0  0  0  0  0  0  0
  2  1  2  0
  3  1  1  0
  4  2  1  0
  5  3  2  0
  6  8  1  0
  7  5  1  0
  8  9  1  0
  9  3  1  0
 10  2  1  0
 11  4  1  0
 12  9  1  0
 13  6  1  0
 14 13  1  0
 15 13  1  0
  7  4  2  0
 17 16  2  0
 18 16  2  0
 19 16  1  0
 20 16  1  0
 22 21  2  0
 23 21  1  0
 24 22  1  0
 25 23  2  0
 26 28  1  0
 27 25  1  0
 28 29  1  0
 29 23  1  0
 30 22  1  0
 31 24  1  0
 32 29  1  0
 33 26  1  0
 34 33  1  0
 35 33  1  0
 27 24  2  0
  1 38  1  0
  5 39  1  0
  6 40  1  0
  7 41  1  0
  8 42  1  0
  8 43  1  0
  9 44  1  6
 10 45  1  0
 11 46  1  0
 12 47  1  0
 13 48  1  0
 14 49  1  0
 14 50  1  0
 14 51  1  0
 15 52  1  0
 15 53  1  0
 15 54  1  0
 19 55  1  0
 20 56  1  0
 21 57  1  0
 25 58  1  0
 26 59  1  0
 27 60  1  0
 28 61  1  0
 28 62  1  0
 29 63  1  1
 30 64  1  0
 31 65  1  0
 32 66  1  0
 33 67  1  0
 34 68  1  0
 34 69  1  0
 34 70  1  0
 35 71  1  0
 35 72  1  0
 35 73  1  0
 36 74  1  0
 36 75  1  0
 37 76  1  0
 37 77  1  0
M  END
> <Uni-Dock RESULT> 
ENERGY=   -4.623  LOWER_BOUND=    7.648  UPPER_BOUND=   10.252
INTER + INTRA:          -4.623
INTER:                  -4.623
INTRA:                   0.000
UNBOUND:                 0.000

$$$$

     RDKit          3D

 77 74  0  0  0  0  0  0  0  0999 V2000
   47.5329    7.6405   21.6287 C   0  0  0  0  0  0  0  0  0  0  0  0
   47.3430    7.0257   22.8609 C   0  0  0  0  0  0  0  0  0  0  0  0
   47.9453    6.8776   20.5208 C   0  0  0  0  0  0  0  0  0  0  0  0
   47.5744    5.6629   23.0123 C   0  0  0  0  0  0  0  0  0  0  0  0
   48.1810    5.5006   20.6981 C   0  0  0  0  0  0  0  0  0  0  0  0
   50.5694    6.7825   18.6540 N   0  0  0  0  0  0  0  0  0  0  0  0
   47.9941    4.8926   21.9402 C   0  0  0  0  0  0  0  0  0  0  0  0
   49.6221    7.8863   18.8614 C   0  0  0  0  0  0  0  0  0  0  0  0
   48.1470    7.5007   19.1515 C   0  0  2  0  0  0  0  0  0  0  0  0
   46.9194    7.7261   23.9575 O   0  0  0  0  0  0  0  0  0  0  0  0
   47.3787    5.0680   24.2248 O   0  0  0  0  0  0  0  0  0  0  0  0
   47.3344    8.6789   19.0343 O   0  0  0  0  0  0  0  0  0  0  0  0
   50.3650    5.9974   17.4319 C   0  0  0  0  0  0  0  0  0  0  0  0
   51.2619    4.7597   17.5220 C   0  0  0  0  0  0  0  0  0  0  0  0
   50.6936    6.7840   16.1611 C   0  0  0  0  0  0  0  0  0  0  0  0
   49.2912    6.5636   19.8338 S   0  0  0  0  0  0  0  0  0  0  0  0
   49.3766    5.3596   20.6200 O   0  0  0  0  0  0  0  0  0  0  0  0
   50.2502    7.6370   19.8997 O   0  0  0  0  0  0  0  0  0  0  0  0
   49.1769    6.1513   18.2871 O   0  0  0  0  0  0  0  0  0  0  0  0
   47.8316    7.1743   20.0984 O   0  0  0  0  0  0  0  0  0  0  0  0
   47.6989    5.8741   21.3359 C   0  0  0  0  0  0  0  0  0  0  0  0
   47.7862    6.4384   22.6042 C   0  0  0  0  0  0  0  0  0  0  0  0
   47.6503    6.7049   20.2025 C   0  0  0  0  0  0  0  0  0  0  0  0
   47.8105    7.8209   22.7600 C   0  0  0  0  0  0  0  0  0  0  0  0
   47.6687    8.1017   20.3811 C   0  0  0  0  0  0  0  0  0  0  0  0
   50.0927    5.6586   18.5966 N   0  0  0  0  0  0  0  0  0  0  0  0
   47.7477    8.6596   21.6589 C   0  0  0  0  0  0  0  0  0  0  0  0
   48.7256    5.1528   18.4424 C   0  0  0  0  0  0  0  0  0  0  0  0
   47.5671    6.1239   18.8051 C   0  0  1  0  0  0  0  0  0  0  0  0
   47.8518    5.6689   23.7331 O   0  0  0  0  0  0  0  0  0  0  0  0
   47.8955    8.3655   24.0093 O   0  0  0  0  0  0  0  0  0  0  0  0
   46.3175    5.4330   18.7053 O   0  0  0  0  0  0  0  0  0  0  0  0
   50.7084    6.1854   17.3784 C   0  0  0  0  0  0  0  0  0  0  0  0
   50.0880    7.4995   16.9037 C   0  0  0  0  0  0  0  0  0  0  0  0
   52.1990    6.3904   17.6650 C   0  0  0  0  0  0  0  0  0  0  0  0
   49.2130    6.5039   19.8125 O   0  0  0  0  0  0  0  0  0  0  0  0
   49.2411    6.4956   19.7749 O   0  0  0  0  0  0  0  0  0  0  0  0
   47.3583    8.7052   21.5085 H   0  0  0  0  0  0  0  0  0  0  0  0
   48.5151    4.8907   19.8593 H   0  0  0  0  0  0  0  0  0  0  0  0
   51.5200    7.1518   18.6699 H   0  0  0  0  0  0  0  0  0  0  0  0
   48.1717    3.8306   22.0683 H   0  0  0  0  0  0  0  0  0  0  0  0
   49.6584    8.5751   18.0076 H   0  0  0  0  0  0  0  0  0  0  0  0
   49.9886    8.4816   19.7091 H   0  0  0  0  0  0  0  0  0  0  0  0
   47.7653    6.8052   18.3954 H   0  0  0  0  0  0  0  0  0  0  0  0
   46.6951    8.6262   23.6588 H   0  0  0  0  0  0  0  0  0  0  0  0
   47.0747    5.7935   24.8039 H   0  0  0  0  0  0  0  0  0  0  0  0
   47.2110    8.8293   18.0811 H   0  0  0  0  0  0  0  0  0  0  0  0
   49.3314    5.6405   17.3738 H   0  0  0  0  0  0  0  0  0  0  0  0
   51.1065    4.1059   16.6566 H   0  0  0  0  0  0  0  0  0  0  0  0
   52.3233    5.0337   17.5519 H   0  0  0  0  0  0  0  0  0  0  0  0
   51.0379    4.1745   18.4223 H   0  0  0  0  0  0  0  0  0  0  0  0
   49.9985    7.6161   16.0108 H   0  0  0  0  0  0  0  0  0  0  0  0
   50.6196    6.1356   15.2790 H   0  0  0  0  0  0  0  0  0  0  0  0
   51.7113    7.1910   16.1907 H   0  0  0  0  0  0  0  0  0  0  0  0
   49.3619    6.9549   17.7589 H   0  0  0  0  0  0  0  0  0  0  0  0
   47.2471    6.4279   20.3470 H   0  0  0  0  0  0  0  0  0  0  0  0
   47.6586    4.7957   21.2121 H   0  0  0  0  0  0  0  0  0  0  0  0
   47.6124    8.7692   19.5232 H   0  0  0  0  0  0  0  0  0  0  0  0
   50.1421    6.3380   19.3579 H   0  0  0  0  0  0  0  0  0  0  0  0
   47.7564    9.7374   21.7936 H   0  0  0  0  0  0  0  0  0  0  0  0
   48.5624    4.7607   17.4297 H   0  0  0  0  0  0  0  0  0  0  0  0
   48.6419    4.2653   19.0837 H   0  0  0  0  0  0  0  0  0  0  0  0
   47.5314    6.9405   18.0756 H   0  0  0  0  0  0  0  0  0  0  0  0
   47.8426    4.7352   23.4547 H   0  0  0  0  0  0  0  0  0  0  0  0
   47.9581    7.5922   24.6071 H   0  0  0  0  0  0  0  0  0  0  0  0
   46.1833    5.2222   17.7658 H   0  0  0  0  0  0  0  0  0  0  0  0
   50.6310    5.4410   16.5748 H   0  0  0  0  0  0  0  0  0  0  0  0
   50.6724    7.9315   16.0834 H   0  0  0  0  0  0  0  0  0  0  0  0
   50.0481    8.2410   17.7085 H   0  0  0  0  0  0  0  0  0  0  0  0
   49.0737    7.3458   16.5245 H   0  0  0  0  0  0  0  0  0  0  0  0
   52.7199    6.7440   16.7688 H   0  0  0  0  0  0  0  0  0  0  0  0
   52.6715    5.4489   17.9708 H   0  0  0  0  0  0  0  0  0  0  0  0
   52.3627    7.1274   18.4606 H   0  0  0  0  0  0  0  0  0  0  0  0
   49.2778    6.5184   18.8458 H   0  0  0  0  0  0  0  0  0  0  0  0
   48.3100    6.8072   19.9896 H   0  0  0  0  0  0  0  0  0  0  0  0
   48.3631    6.7861   20.0646 H   0  0  0  0  0  0  0  0  0  0  0  0
   49.1966    6.5477   18.8082 H   0  0  0  0  0  0  0  0  0  0  0  0
  2  1  2  0
  3  1  1  0
  4  2  1  0
  5  3  2  0
  6  8  1  0
  7  5  1  0
  8  9  1  0
  9  3  1  0
 10  2  1  0
 11  4  1  0
 12  9  1  0
 13  6  1  0
 14 13  1  0
 15 13  1  0
  7  4  2  0
 17 16  2  0
 18 16  2  0
 19 16  1  0
 20 16  1  0
 22 21  2  0
 23 21  1  0
 24 22  1  0
 25 23  2  0
 26 28  1  0
 27 25  1  0
 28 29  1  0
 29 23  1  0
 30 22  1  0
 31 24  1  0
 32 29  1  0
 33 26  1  0
 34 33  1  0
 35 33  1  0
 27 24  2  0
  1 38  1  0
  5 39  1  0
  6 40  1  0
  7 41  1  0
  8 42  1  0
  8 43  1  0
  9 44  1  6
 10 45  1  0
 11 46  1  0
 12 47  1  0
 13 48  1  0
 14 49  1  0
 14 50  1  0
 14 51  1  0
 15 52  1  0
 15 53  1  0
 15 54  1  0
 19 55  1  0
 20 56  1  0
 21 57  1  0
 25 58  1  0
 26 59  1  0
 27 60  1  0
 28 61  1  0
 28 62  1  0
 29 63  1  1
 30 64  1  0
 31 65  1  0
 32 66  1  0
 33 67  1  0
 34 68  1  0
 34 69  1  0
 34 70  1  0
 35 71  1  0
 35 72  1  0
 35 73  1  0
 36 74  1  0
 36 75  1  0
 37 76  1  0
 37 77  1  0
M  END
> <Uni-Dock RESULT> 
ENERGY=   -4.602  LOWER_BOUND=    2.847  UPPER_BOUND=    5.982
INTER + INTRA:          -4.602
INTER:                  -4.602
INTRA:                   0.000
UNBOUND:                 0.000

$$$$
