
     RDKit          3D

 77 74  0  0  0  0  0  0  0  0999 V2000
   43.3758    5.0867   10.2572 C   0  0  0  0  0  0  0  0  0  0  0  0
   42.8365    4.9221   11.5292 C   0  0  0  0  0  0  0  0  0  0  0  0
   44.4617    4.2900    9.8428 C   0  0  0  0  0  0  0  0  0  0  0  0
   43.3739    3.9846   12.4044 C   0  0  0  0  0  0  0  0  0  0  0  0
   44.9959    3.3547   10.7478 C   0  0  0  0  0  0  0  0  0  0  0  0
   46.8902    2.8175    8.1246 N   0  0  0  0  0  0  0  0  0  0  0  0
   44.4520    3.2016   12.0265 C   0  0  0  0  0  0  0  0  0  0  0  0
   45.5449    3.2436    7.6982 C   0  0  0  0  0  0  0  0  0  0  0  0
   45.0429    4.5054    8.4566 C   0  0  2  0  0  0  0  0  0  0  0  0
   41.7714    5.6615   11.9628 O   0  0  0  0  0  0  0  0  0  0  0  0
   42.8389    3.8291   13.6507 O   0  0  0  0  0  0  0  0  0  0  0  0
   46.0961    5.4774    8.5145 O   0  0  0  0  0  0  0  0  0  0  0  0
   47.5104    1.7665    7.3084 C   0  0  0  0  0  0  0  0  0  0  0  0
   47.9072    2.2552    5.9141 C   0  0  0  0  0  0  0  0  0  0  0  0
   46.6654    0.4948    7.2284 C   0  0  0  0  0  0  0  0  0  0  0  0
   45.2006    2.9219    9.2300 S   0  0  0  0  0  0  0  0  0  0  0  0
   45.9831    2.6388   10.4060 O   0  0  0  0  0  0  0  0  0  0  0  0
   44.1564    2.0621    8.7318 O   0  0  0  0  0  0  0  0  0  0  0  0
   44.5453    4.3775    9.3947 O   0  0  0  0  0  0  0  0  0  0  0  0
   46.2463    3.1882    8.0432 O   0  0  0  0  0  0  0  0  0  0  0  0
   43.6366    5.0411   10.2384 C   0  0  0  0  0  0  0  0  0  0  0  0
   43.1311    5.4077   11.4820 C   0  0  0  0  0  0  0  0  0  0  0  0
   44.5153    3.9461   10.1329 C   0  0  0  0  0  0  0  0  0  0  0  0
   43.4816    4.6938   12.6220 C   0  0  0  0  0  0  0  0  0  0  0  0
   44.8456    3.2256   11.2961 C   0  0  0  0  0  0  0  0  0  0  0  0
   47.1923    3.1036    7.4337 N   0  0  0  0  0  0  0  0  0  0  0  0
   44.3343    3.6041   12.5407 C   0  0  0  0  0  0  0  0  0  0  0  0
   46.5148    3.0888    8.7450 C   0  0  0  0  0  0  0  0  0  0  0  0
   45.0246    3.5368    8.7606 C   0  0  1  0  0  0  0  0  0  0  0  0
   42.2708    6.4613   11.6306 O   0  0  0  0  0  0  0  0  0  0  0  0
   42.9788    5.0579   13.8374 O   0  0  0  0  0  0  0  0  0  0  0  0
   44.1823    2.4940    8.2609 O   0  0  0  0  0  0  0  0  0  0  0  0
   46.6542    2.1684    6.4361 C   0  0  0  0  0  0  0  0  0  0  0  0
   47.4213    2.3931    5.1279 C   0  0  0  0  0  0  0  0  0  0  0  0
   46.7905    0.7045    6.8591 C   0  0  0  0  0  0  0  0  0  0  0  0
   45.3356    3.6804    8.8786 O   0  0  0  0  0  0  0  0  0  0  0  0
   45.4103    3.6057    8.7711 O   0  0  0  0  0  0  0  0  0  0  0  0
   42.9647    5.8296    9.5790 H   0  0  0  0  0  0  0  0  0  0  0  0
   45.8437    2.7300   10.4700 H   0  0  0  0  0  0  0  0  0  0  0  0
   47.4827    3.6524    8.1189 H   0  0  0  0  0  0  0  0  0  0  0  0
   44.8655    2.4704   12.7159 H   0  0  0  0  0  0  0  0  0  0  0  0
   45.5839    3.5140    6.6371 H   0  0  0  0  0  0  0  0  0  0  0  0
   44.8160    2.4346    7.8169 H   0  0  0  0  0  0  0  0  0  0  0  0
   44.2565    4.9417    7.8282 H   0  0  0  0  0  0  0  0  0  0  0  0
   41.4672    6.2154   11.2248 H   0  0  0  0  0  0  0  0  0  0  0  0
   42.0919    4.4593   13.6747 H   0  0  0  0  0  0  0  0  0  0  0  0
   46.2585    5.6671    9.4562 H   0  0  0  0  0  0  0  0  0  0  0  0
   48.4395    1.4964    7.8267 H   0  0  0  0  0  0  0  0  0  0  0  0
   48.5156    3.1644    5.9749 H   0  0  0  0  0  0  0  0  0  0  0  0
   48.5031    1.4930    5.3994 H   0  0  0  0  0  0  0  0  0  0  0  0
   47.0358    2.4700    5.2861 H   0  0  0  0  0  0  0  0  0  0  0  0
   46.3744    0.1523    8.2279 H   0  0  0  0  0  0  0  0  0  0  0  0
   45.7548    0.6423    6.6384 H   0  0  0  0  0  0  0  0  0  0  0  0
   47.2360   -0.3137    6.7576 H   0  0  0  0  0  0  0  0  0  0  0  0
   43.8165    4.4369    8.7429 H   0  0  0  0  0  0  0  0  0  0  0  0
   47.0758    3.5060    8.4568 H   0  0  0  0  0  0  0  0  0  0  0  0
   43.3550    5.5929    9.3468 H   0  0  0  0  0  0  0  0  0  0  0  0
   45.5023    2.3583   11.2507 H   0  0  0  0  0  0  0  0  0  0  0  0
   47.1481    4.0490    7.0540 H   0  0  0  0  0  0  0  0  0  0  0  0
   44.5942    3.0480   13.4360 H   0  0  0  0  0  0  0  0  0  0  0  0
   47.0913    3.7737    9.3799 H   0  0  0  0  0  0  0  0  0  0  0  0
   46.6220    2.0960    9.1966 H   0  0  0  0  0  0  0  0  0  0  0  0
   44.9209    4.3898    8.0790 H   0  0  0  0  0  0  0  0  0  0  0  0
   42.0584    6.8079   10.7461 H   0  0  0  0  0  0  0  0  0  0  0  0
   42.4238    5.8402   13.6489 H   0  0  0  0  0  0  0  0  0  0  0  0
   43.6501    2.1509    8.9998 H   0  0  0  0  0  0  0  0  0  0  0  0
   45.6020    2.3931    6.2313 H   0  0  0  0  0  0  0  0  0  0  0  0
   47.0546    1.7245    4.3425 H   0  0  0  0  0  0  0  0  0  0  0  0
   47.2952    3.4201    4.7689 H   0  0  0  0  0  0  0  0  0  0  0  0
   48.4933    2.2073    5.2549 H   0  0  0  0  0  0  0  0  0  0  0  0
   46.4831    0.0369    6.0463 H   0  0  0  0  0  0  0  0  0  0  0  0
   47.8269    0.4565    7.1194 H   0  0  0  0  0  0  0  0  0  0  0  0
   46.1567    0.4715    7.7208 H   0  0  0  0  0  0  0  0  0  0  0  0
   44.8633    3.3612    9.6623 H   0  0  0  0  0  0  0  0  0  0  0  0
   45.6685    2.8718    8.4613 H   0  0  0  0  0  0  0  0  0  0  0  0
   44.8880    3.6500    9.5857 H   0  0  0  0  0  0  0  0  0  0  0  0
   45.5691    2.6578    8.6455 H   0  0  0  0  0  0  0  0  0  0  0  0
  2  1  2  0
  3  1  1  0
  4  2  1  0
  5  3  2  0
  6  8  1  0
  7  5  1  0
  8  9  1  0
  9  3  1  0
 10  2  1  0
 11  4  1  0
 12  9  1  0
 13  6  1  0
 14 13  1  0
 15 13  1  0
  7  4  2  0
 17 16  2  0
 18 16  2  0
 19 16  1  0
 20 16  1  0
 22 21  2  0
 23 21  1  0
 24 22  1  0
 25 23  2  0
 26 28  1  0
 27 25  1  0
 28 29  1  0
 29 23  1  0
 30 22  1  0
 31 24  1  0
 32 29  1  0
 33 26  1  0
 34 33  1  0
 35 33  1  0
 27 24  2  0
  1 38  1  0
  5 39  1  0
  6 40  1  0
  7 41  1  0
  8 42  1  0
  8 43  1  0
  9 44  1  1
 10 45  1  0
 11 46  1  0
 12 47  1  0
 13 48  1  0
 14 49  1  0
 14 50  1  0
 14 51  1  0
 15 52  1  0
 15 53  1  0
 15 54  1  0
 19 55  1  0
 20 56  1  0
 21 57  1  0
 25 58  1  0
 26 59  1  0
 27 60  1  0
 28 61  1  0
 28 62  1  0
 29 63  1  1
 30 64  1  0
 31 65  1  0
 32 66  1  0
 33 67  1  0
 34 68  1  0
 34 69  1  0
 34 70  1  0
 35 71  1  0
 35 72  1  0
 35 73  1  0
 36 74  1  0
 36 75  1  0
 37 76  1  0
 37 77  1  0
M  END
> <Uni-Dock RESULT> 
ENERGY=   -7.641  LOWER_BOUND=    0.000  UPPER_BOUND=    0.000
INTER + INTRA:          -7.641
INTER:                  -7.641
INTRA:                   0.000
UNBOUND:                 0.000

$$$$

     RDKit          3D

 77 74  0  0  0  0  0  0  0  0999 V2000
   44.6272    4.2430   12.3596 C   0  0  0  0  0  0  0  0  0  0  0  0
   43.9849    3.6699   11.2665 C   0  0  0  0  0  0  0  0  0  0  0  0
   45.5708    5.2711   12.1640 C   0  0  0  0  0  0  0  0  0  0  0  0
   44.2807    4.0942    9.9757 C   0  0  0  0  0  0  0  0  0  0  0  0
   45.8619    5.6781   10.8492 C   0  0  0  0  0  0  0  0  0  0  0  0
   47.7903    7.7076   12.5581 N   0  0  0  0  0  0  0  0  0  0  0  0
   45.2168    5.0911    9.7566 C   0  0  0  0  0  0  0  0  0  0  0  0
   46.5784    7.3884   13.3342 C   0  0  0  0  0  0  0  0  0  0  0  0
   46.2710    5.8643   13.3739 C   0  0  2  0  0  0  0  0  0  0  0  0
   43.0497    2.6836   11.4144 O   0  0  0  0  0  0  0  0  0  0  0  0
   43.6459    3.5269    8.9085 O   0  0  0  0  0  0  0  0  0  0  0  0
   47.4804    5.1408   13.6413 O   0  0  0  0  0  0  0  0  0  0  0  0
   48.2564    9.0965   12.6534 C   0  0  0  0  0  0  0  0  0  0  0  0
   48.8271    9.4372   14.0314 C   0  0  0  0  0  0  0  0  0  0  0  0
   47.1969   10.1133   12.2275 C   0  0  0  0  0  0  0  0  0  0  0  0
   46.0811    6.8424   11.9118 S   0  0  0  0  0  0  0  0  0  0  0  0
   46.7191    6.5878   10.6455 O   0  0  0  0  0  0  0  0  0  0  0  0
   44.9302    7.6945   12.0763 O   0  0  0  0  0  0  0  0  0  0  0  0
   45.6982    5.4343   12.5795 O   0  0  0  0  0  0  0  0  0  0  0  0
   47.2332    7.3505   12.9056 O   0  0  0  0  0  0  0  0  0  0  0  0
   44.8756    4.3248   12.3144 C   0  0  0  0  0  0  0  0  0  0  0  0
   44.3670    3.3174   11.5002 C   0  0  0  0  0  0  0  0  0  0  0  0
   45.5406    5.4241   11.7387 C   0  0  0  0  0  0  0  0  0  0  0  0
   44.5037    3.3931   10.1190 C   0  0  0  0  0  0  0  0  0  0  0  0
   45.6548    5.4911   10.3373 C   0  0  0  0  0  0  0  0  0  0  0  0
   48.1847    7.8524   13.2466 N   0  0  0  0  0  0  0  0  0  0  0  0
   45.1427    4.4724    9.5289 C   0  0  0  0  0  0  0  0  0  0  0  0
   47.4323    7.1139   12.2135 C   0  0  0  0  0  0  0  0  0  0  0  0
   46.0534    6.5336   12.6421 C   0  0  1  0  0  0  0  0  0  0  0  0
   43.7095    2.2339   12.0159 O   0  0  0  0  0  0  0  0  0  0  0  0
   43.9992    2.4025    9.3274 O   0  0  0  0  0  0  0  0  0  0  0  0
   45.0665    7.5682   12.6883 O   0  0  0  0  0  0  0  0  0  0  0  0
   47.5484    9.0865   13.7278 C   0  0  0  0  0  0  0  0  0  0  0  0
   48.4276    9.6559   14.8473 C   0  0  0  0  0  0  0  0  0  0  0  0
   47.3827   10.1376   12.6286 C   0  0  0  0  0  0  0  0  0  0  0  0
   46.3773    6.3911   12.5642 O   0  0  0  0  0  0  0  0  0  0  0  0
   46.4436    6.5189   12.6090 O   0  0  0  0  0  0  0  0  0  0  0  0
   44.4062    3.9009   13.3671 H   0  0  0  0  0  0  0  0  0  0  0  0
   46.5952    6.4598   10.6559 H   0  0  0  0  0  0  0  0  0  0  0  0
   48.5267    7.0744   12.8822 H   0  0  0  0  0  0  0  0  0  0  0  0
   45.4415    5.4179    8.7449 H   0  0  0  0  0  0  0  0  0  0  0  0
   46.7360    7.7007   14.3726 H   0  0  0  0  0  0  0  0  0  0  0  0
   45.7056    7.9249   12.9461 H   0  0  0  0  0  0  0  0  0  0  0  0
   45.6221    5.7102   14.2449 H   0  0  0  0  0  0  0  0  0  0  0  0
   42.9024    2.5465   12.3649 H   0  0  0  0  0  0  0  0  0  0  0  0
   43.0290    2.8820    9.3075 H   0  0  0  0  0  0  0  0  0  0  0  0
   47.6135    4.5226   12.9001 H   0  0  0  0  0  0  0  0  0  0  0  0
   49.0834    9.1829   11.9369 H   0  0  0  0  0  0  0  0  0  0  0  0
   49.5885    8.7090   14.3322 H   0  0  0  0  0  0  0  0  0  0  0  0
   49.3033   10.4240   14.0122 H   0  0  0  0  0  0  0  0  0  0  0  0
   48.0536    9.4610   14.8065 H   0  0  0  0  0  0  0  0  0  0  0  0
   46.7830    9.8615   11.2445 H   0  0  0  0  0  0  0  0  0  0  0  0
   46.3700   10.1701   12.9430 H   0  0  0  0  0  0  0  0  0  0  0  0
   47.6370   11.1140   12.1518 H   0  0  0  0  0  0  0  0  0  0  0  0
   45.0372    5.6208   13.2779 H   0  0  0  0  0  0  0  0  0  0  0  0
   48.0786    6.9759   12.5811 H   0  0  0  0  0  0  0  0  0  0  0  0
   44.7601    4.2702   13.3926 H   0  0  0  0  0  0  0  0  0  0  0  0
   46.1405    6.3374    9.8543 H   0  0  0  0  0  0  0  0  0  0  0  0
   48.3418    7.2332   14.0415 H   0  0  0  0  0  0  0  0  0  0  0  0
   45.2358    4.5259    8.4487 H   0  0  0  0  0  0  0  0  0  0  0  0
   48.0833    6.2819   11.9160 H   0  0  0  0  0  0  0  0  0  0  0  0
   47.3235    7.7451   11.3243 H   0  0  0  0  0  0  0  0  0  0  0  0
   46.1546    6.1385   13.6603 H   0  0  0  0  0  0  0  0  0  0  0  0
   43.6233    2.3595   12.9774 H   0  0  0  0  0  0  0  0  0  0  0  0
   43.6126    1.7601    9.9547 H   0  0  0  0  0  0  0  0  0  0  0  0
   44.4328    7.4183   11.9652 H   0  0  0  0  0  0  0  0  0  0  0  0
   46.5720    8.8643   14.1712 H   0  0  0  0  0  0  0  0  0  0  0  0
   47.9951   10.5771   15.2507 H   0  0  0  0  0  0  0  0  0  0  0  0
   48.5181    8.9462   15.6765 H   0  0  0  0  0  0  0  0  0  0  0  0
   49.4358    9.8870   14.4869 H   0  0  0  0  0  0  0  0  0  0  0  0
   47.0102   11.0794   13.0472 H   0  0  0  0  0  0  0  0  0  0  0  0
   48.3358   10.3496   12.1285 H   0  0  0  0  0  0  0  0  0  0  0  0
   46.6618    9.8186   11.8690 H   0  0  0  0  0  0  0  0  0  0  0  0
   45.8038    6.2057   11.8053 H   0  0  0  0  0  0  0  0  0  0  0  0
   46.5807    7.3345   12.4781 H   0  0  0  0  0  0  0  0  0  0  0  0
   45.8867    6.0015   12.0085 H   0  0  0  0  0  0  0  0  0  0  0  0
   46.4315    7.4109   12.2301 H   0  0  0  0  0  0  0  0  0  0  0  0
  2  1  2  0
  3  1  1  0
  4  2  1  0
  5  3  2  0
  6  8  1  0
  7  5  1  0
  8  9  1  0
  9  3  1  0
 10  2  1  0
 11  4  1  0
 12  9  1  0
 13  6  1  0
 14 13  1  0
 15 13  1  0
  7  4  2  0
 17 16  2  0
 18 16  2  0
 19 16  1  0
 20 16  1  0
 22 21  2  0
 23 21  1  0
 24 22  1  0
 25 23  2  0
 26 28  1  0
 27 25  1  0
 28 29  1  0
 29 23  1  0
 30 22  1  0
 31 24  1  0
 32 29  1  0
 33 26  1  0
 34 33  1  0
 35 33  1  0
 27 24  2  0
  1 38  1  0
  5 39  1  0
  6 40  1  0
  7 41  1  0
  8 42  1  0
  8 43  1  0
  9 44  1  1
 10 45  1  0
 11 46  1  0
 12 47  1  0
 13 48  1  0
 14 49  1  0
 14 50  1  0
 14 51  1  0
 15 52  1  0
 15 53  1  0
 15 54  1  0
 19 55  1  0
 20 56  1  0
 21 57  1  0
 25 58  1  0
 26 59  1  0
 27 60  1  0
 28 61  1  0
 28 62  1  0
 29 63  1  1
 30 64  1  0
 31 65  1  0
 32 66  1  0
 33 67  1  0
 34 68  1  0
 34 69  1  0
 34 70  1  0
 35 71  1  0
 35 72  1  0
 35 73  1  0
 36 74  1  0
 36 75  1  0
 37 76  1  0
 37 77  1  0
M  END
> <Uni-Dock RESULT> 
ENERGY=   -6.534  LOWER_BOUND=    3.997  UPPER_BOUND=    6.040
INTER + INTRA:          -6.534
INTER:                  -6.534
INTRA:                   0.000
UNBOUND:                 0.000

$$$$

     RDKit          3D

 77 74  0  0  0  0  0  0  0  0999 V2000
   44.3884    6.3922   11.6587 C   0  0  0  0  0  0  0  0  0  0  0  0
   44.0792    5.0366   11.7109 C   0  0  0  0  0  0  0  0  0  0  0  0
   45.4780    6.8961   12.3966 C   0  0  0  0  0  0  0  0  0  0  0  0
   44.8305    4.1743   12.5020 C   0  0  0  0  0  0  0  0  0  0  0  0
   46.2184    6.0078   13.1978 C   0  0  0  0  0  0  0  0  0  0  0  0
   47.8426    8.8075   13.7280 N   0  0  0  0  0  0  0  0  0  0  0  0
   45.8956    4.6485   13.2495 C   0  0  0  0  0  0  0  0  0  0  0  0
   47.2777    8.8007   12.3665 C   0  0  0  0  0  0  0  0  0  0  0  0
   45.7798    8.3831   12.3366 C   0  0  2  0  0  0  0  0  0  0  0  0
   43.0424    4.5047   10.9957 O   0  0  0  0  0  0  0  0  0  0  0  0
   44.5208    2.8455   12.5474 O   0  0  0  0  0  0  0  0  0  0  0  0
   45.0732    9.0670   13.3808 O   0  0  0  0  0  0  0  0  0  0  0  0
   49.1836    9.3915   13.8549 C   0  0  0  0  0  0  0  0  0  0  0  0
   49.1926   10.9070   13.6460 C   0  0  0  0  0  0  0  0  0  0  0  0
   50.2212    8.7052   12.9659 C   0  0  0  0  0  0  0  0  0  0  0  0
   47.0854    7.2437   12.6942 S   0  0  0  0  0  0  0  0  0  0  0  0
   47.1915    6.4387   13.8843 O   0  0  0  0  0  0  0  0  0  0  0  0
   47.8098    6.9794   11.4765 O   0  0  0  0  0  0  0  0  0  0  0  0
   45.5369    7.3427   12.2848 O   0  0  0  0  0  0  0  0  0  0  0  0
   47.3821    8.7553   13.1417 O   0  0  0  0  0  0  0  0  0  0  0  0
   44.4911    6.4931   11.8817 C   0  0  0  0  0  0  0  0  0  0  0  0
   43.6986    5.3546   11.9915 C   0  0  0  0  0  0  0  0  0  0  0  0
   45.7320    6.5512   12.5443 C   0  0  0  0  0  0  0  0  0  0  0  0
   44.1279    4.2687   12.7455 C   0  0  0  0  0  0  0  0  0  0  0  0
   46.1569    5.4354   13.2898 C   0  0  0  0  0  0  0  0  0  0  0  0
   47.8280    9.6139   13.7226 N   0  0  0  0  0  0  0  0  0  0  0  0
   45.3517    4.2977   13.3957 C   0  0  0  0  0  0  0  0  0  0  0  0
   47.3384    8.2221   13.6787 C   0  0  0  0  0  0  0  0  0  0  0  0
   46.6009    7.7873   12.3792 C   0  0  1  0  0  0  0  0  0  0  0  0
   42.4886    5.2525   11.3608 O   0  0  0  0  0  0  0  0  0  0  0  0
   43.3460    3.1546   12.8454 O   0  0  0  0  0  0  0  0  0  0  0  0
   47.5398    7.5399   11.3286 O   0  0  0  0  0  0  0  0  0  0  0  0
   48.8670    9.9475   12.7385 C   0  0  0  0  0  0  0  0  0  0  0  0
   49.1776   11.4421   12.8801 C   0  0  0  0  0  0  0  0  0  0  0  0
   50.1524    9.1414   12.9346 C   0  0  0  0  0  0  0  0  0  0  0  0
   46.4989    7.8540   12.7205 O   0  0  0  0  0  0  0  0  0  0  0  0
   46.6144    7.9498   12.7356 O   0  0  0  0  0  0  0  0  0  0  0  0
   43.7919    7.0679   11.0517 H   0  0  0  0  0  0  0  0  0  0  0  0
   47.0590    6.3610   13.7935 H   0  0  0  0  0  0  0  0  0  0  0  0
   47.1854    9.3226   14.3204 H   0  0  0  0  0  0  0  0  0  0  0  0
   46.4785    3.9681   13.8644 H   0  0  0  0  0  0  0  0  0  0  0  0
   47.3246    9.8185   11.9636 H   0  0  0  0  0  0  0  0  0  0  0  0
   47.8509    8.1449   11.7021 H   0  0  0  0  0  0  0  0  0  0  0  0
   45.3784    8.7681   11.3910 H   0  0  0  0  0  0  0  0  0  0  0  0
   42.6622    5.2089   10.4449 H   0  0  0  0  0  0  0  0  0  0  0  0
   43.7661    2.7509   11.9333 H   0  0  0  0  0  0  0  0  0  0  0  0
   44.6700    8.3848   13.9475 H   0  0  0  0  0  0  0  0  0  0  0  0
   49.4894    9.2122   14.8937 H   0  0  0  0  0  0  0  0  0  0  0  0
   48.4507   11.3963   14.2869 H   0  0  0  0  0  0  0  0  0  0  0  0
   50.1745   11.3204   13.9026 H   0  0  0  0  0  0  0  0  0  0  0  0
   48.9810   11.1840   12.6076 H   0  0  0  0  0  0  0  0  0  0  0  0
   50.2061    7.6190   13.1104 H   0  0  0  0  0  0  0  0  0  0  0  0
   50.0540    8.9118   11.9036 H   0  0  0  0  0  0  0  0  0  0  0  0
   51.2291    9.0556   13.2154 H   0  0  0  0  0  0  0  0  0  0  0  0
   45.5076    7.6425   11.3527 H   0  0  0  0  0  0  0  0  0  0  0  0
   47.1442    8.8265   14.0897 H   0  0  0  0  0  0  0  0  0  0  0  0
   44.1598    7.3373   11.2847 H   0  0  0  0  0  0  0  0  0  0  0  0
   47.1209    5.4334   13.7959 H   0  0  0  0  0  0  0  0  0  0  0  0
   47.0364   10.2429   13.5895 H   0  0  0  0  0  0  0  0  0  0  0  0
   45.6814    3.4406   13.9744 H   0  0  0  0  0  0  0  0  0  0  0  0
   46.6422    8.1300   14.5221 H   0  0  0  0  0  0  0  0  0  0  0  0
   48.1679    7.5396   13.8960 H   0  0  0  0  0  0  0  0  0  0  0  0
   45.9666    8.6214   12.0553 H   0  0  0  0  0  0  0  0  0  0  0  0
   42.3623    6.0478   10.8138 H   0  0  0  0  0  0  0  0  0  0  0  0
   42.5474    3.3677   12.3234 H   0  0  0  0  0  0  0  0  0  0  0  0
   47.5464    6.5846   11.1436 H   0  0  0  0  0  0  0  0  0  0  0  0
   48.4916    9.7950   11.7210 H   0  0  0  0  0  0  0  0  0  0  0  0
   49.9441   11.7496   12.1615 H   0  0  0  0  0  0  0  0  0  0  0  0
   48.2866   12.0494   12.6883 H   0  0  0  0  0  0  0  0  0  0  0  0
   49.5421   11.6824   13.8847 H   0  0  0  0  0  0  0  0  0  0  0  0
   50.9379    9.4956   12.2576 H   0  0  0  0  0  0  0  0  0  0  0  0
   50.5311    9.2324   13.9602 H   0  0  0  0  0  0  0  0  0  0  0  0
   50.0006    8.0788   12.7195 H   0  0  0  0  0  0  0  0  0  0  0  0
   46.4834    6.8913   12.6104 H   0  0  0  0  0  0  0  0  0  0  0  0
   47.4424    8.0670   12.7793 H   0  0  0  0  0  0  0  0  0  0  0  0
   46.2387    7.0643   12.6211 H   0  0  0  0  0  0  0  0  0  0  0  0
   47.5715    7.7982   12.7535 H   0  0  0  0  0  0  0  0  0  0  0  0
  2  1  2  0
  3  1  1  0
  4  2  1  0
  5  3  2  0
  6  8  1  0
  7  5  1  0
  8  9  1  0
  9  3  1  0
 10  2  1  0
 11  4  1  0
 12  9  1  0
 13  6  1  0
 14 13  1  0
 15 13  1  0
  7  4  2  0
 17 16  2  0
 18 16  2  0
 19 16  1  0
 20 16  1  0
 22 21  2  0
 23 21  1  0
 24 22  1  0
 25 23  2  0
 26 28  1  0
 27 25  1  0
 28 29  1  0
 29 23  1  0
 30 22  1  0
 31 24  1  0
 32 29  1  0
 33 26  1  0
 34 33  1  0
 35 33  1  0
 27 24  2  0
  1 38  1  0
  5 39  1  0
  6 40  1  0
  7 41  1  0
  8 42  1  0
  8 43  1  0
  9 44  1  1
 10 45  1  0
 11 46  1  0
 12 47  1  0
 13 48  1  0
 14 49  1  0
 14 50  1  0
 14 51  1  0
 15 52  1  0
 15 53  1  0
 15 54  1  0
 19 55  1  0
 20 56  1  0
 21 57  1  0
 25 58  1  0
 26 59  1  0
 27 60  1  0
 28 61  1  0
 28 62  1  0
 29 63  1  1
 30 64  1  0
 31 65  1  0
 32 66  1  0
 33 67  1  0
 34 68  1  0
 34 69  1  0
 34 70  1  0
 35 71  1  0
 35 72  1  0
 35 73  1  0
 36 74  1  0
 36 75  1  0
 37 76  1  0
 37 77  1  0
M  END
> <Uni-Dock RESULT> 
ENERGY=   -6.436  LOWER_BOUND=    4.852  UPPER_BOUND=    6.310
INTER + INTRA:          -6.436
INTER:                  -6.436
INTRA:                   0.000
UNBOUND:                 0.000

$$$$

     RDKit          3D

 77 74  0  0  0  0  0  0  0  0999 V2000
   48.0496    9.2106   13.9008 C   0  0  0  0  0  0  0  0  0  0  0  0
   49.4364    9.3234   13.9115 C   0  0  0  0  0  0  0  0  0  0  0  0
   47.4219    8.3112   13.0161 C   0  0  0  0  0  0  0  0  0  0  0  0
   50.2100    8.5641   13.0404 C   0  0  0  0  0  0  0  0  0  0  0  0
   48.2232    7.5601   12.1369 C   0  0  0  0  0  0  0  0  0  0  0  0
   45.2411    6.4433   11.3509 N   0  0  0  0  0  0  0  0  0  0  0  0
   49.6155    7.6857   12.1499 C   0  0  0  0  0  0  0  0  0  0  0  0
   45.2810    6.8191   12.7758 C   0  0  0  0  0  0  0  0  0  0  0  0
   45.9059    8.2236   13.0122 C   0  0  2  0  0  0  0  0  0  0  0  0
   50.0851   10.1699   14.7670 O   0  0  0  0  0  0  0  0  0  0  0  0
   51.5701    8.6805   13.0574 O   0  0  0  0  0  0  0  0  0  0  0  0
   45.3659    9.1520   12.0614 O   0  0  0  0  0  0  0  0  0  0  0  0
   44.4772    5.2295   11.0368 C   0  0  0  0  0  0  0  0  0  0  0  0
   42.9695    5.4139   11.2192 C   0  0  0  0  0  0  0  0  0  0  0  0
   44.9780    3.9964   11.7895 C   0  0  0  0  0  0  0  0  0  0  0  0
   46.8599    6.8240   12.5008 S   0  0  0  0  0  0  0  0  0  0  0  0
   47.6824    6.7577   11.3198 O   0  0  0  0  0  0  0  0  0  0  0  0
   46.9763    5.9165   13.6146 O   0  0  0  0  0  0  0  0  0  0  0  0
   46.9678    8.3038   13.1121 O   0  0  0  0  0  0  0  0  0  0  0  0
   45.3380    6.8110   11.9943 O   0  0  0  0  0  0  0  0  0  0  0  0
   47.9429    9.1534   13.6646 C   0  0  0  0  0  0  0  0  0  0  0  0
   49.1856    9.7795   13.6794 C   0  0  0  0  0  0  0  0  0  0  0  0
   47.7321    8.0312   12.8411 C   0  0  0  0  0  0  0  0  0  0  0  0
   50.2249    9.2986   12.8916 C   0  0  0  0  0  0  0  0  0  0  0  0
   48.8014    7.5491   12.0628 C   0  0  0  0  0  0  0  0  0  0  0  0
   44.4453    6.5742   11.3457 N   0  0  0  0  0  0  0  0  0  0  0  0
   50.0448    8.1872   12.0832 C   0  0  0  0  0  0  0  0  0  0  0  0
   45.8902    6.8462   11.4763 C   0  0  0  0  0  0  0  0  0  0  0  0
   46.3801    7.3372   12.8693 C   0  0  1  0  0  0  0  0  0  0  0  0
   49.4367   10.8693   14.4678 O   0  0  0  0  0  0  0  0  0  0  0  0
   51.4416    9.9165   12.9145 O   0  0  0  0  0  0  0  0  0  0  0  0
   46.4550    6.2437   13.7886 O   0  0  0  0  0  0  0  0  0  0  0  0
   43.9335    5.4756   12.1767 C   0  0  0  0  0  0  0  0  0  0  0  0
   42.4158    5.4067   11.9717 C   0  0  0  0  0  0  0  0  0  0  0  0
   44.5551    4.1232   11.8229 C   0  0  0  0  0  0  0  0  0  0  0  0
   46.3404    7.4913   12.5438 O   0  0  0  0  0  0  0  0  0  0  0  0
   46.2297    7.3940   12.5119 O   0  0  0  0  0  0  0  0  0  0  0  0
   47.4450    9.8148   14.5716 H   0  0  0  0  0  0  0  0  0  0  0  0
   47.7749    6.8645   11.4288 H   0  0  0  0  0  0  0  0  0  0  0  0
   44.8455    7.2398   10.8438 H   0  0  0  0  0  0  0  0  0  0  0  0
   50.2271    7.0951   11.4732 H   0  0  0  0  0  0  0  0  0  0  0  0
   44.2535    6.8687   13.1530 H   0  0  0  0  0  0  0  0  0  0  0  0
   45.8253    6.0751   13.3675 H   0  0  0  0  0  0  0  0  0  0  0  0
   45.5493    8.5503   13.9970 H   0  0  0  0  0  0  0  0  0  0  0  0
   49.4234   10.5735   15.3528 H   0  0  0  0  0  0  0  0  0  0  0  0
   51.7497    9.3270   13.7683 H   0  0  0  0  0  0  0  0  0  0  0  0
   46.1177    9.5219   11.5644 H   0  0  0  0  0  0  0  0  0  0  0  0
   44.6472    5.0386    9.9693 H   0  0  0  0  0  0  0  0  0  0  0  0
   42.6132    6.2960   10.6757 H   0  0  0  0  0  0  0  0  0  0  0  0
   42.4300    4.5444   10.8271 H   0  0  0  0  0  0  0  0  0  0  0  0
   42.6896    5.5266   12.2721 H   0  0  0  0  0  0  0  0  0  0  0  0
   46.0597    3.8720   11.6651 H   0  0  0  0  0  0  0  0  0  0  0  0
   44.7606    4.0521   12.8613 H   0  0  0  0  0  0  0  0  0  0  0  0
   44.4968    3.0912   11.4021 H   0  0  0  0  0  0  0  0  0  0  0  0
   46.6432    8.2549   14.0350 H   0  0  0  0  0  0  0  0  0  0  0  0
   45.3341    7.1780   11.0857 H   0  0  0  0  0  0  0  0  0  0  0  0
   47.1342    9.5235   14.2874 H   0  0  0  0  0  0  0  0  0  0  0  0
   48.6838    6.6692   11.4324 H   0  0  0  0  0  0  0  0  0  0  0  0
   43.9309    7.4247   11.5738 H   0  0  0  0  0  0  0  0  0  0  0  0
   50.8660    7.8145   11.4789 H   0  0  0  0  0  0  0  0  0  0  0  0
   46.1094    7.6254   10.7351 H   0  0  0  0  0  0  0  0  0  0  0  0
   46.4550    5.9617   11.1606 H   0  0  0  0  0  0  0  0  0  0  0  0
   45.6339    8.0385   13.2622 H   0  0  0  0  0  0  0  0  0  0  0  0
   48.6489   11.0376   15.0144 H   0  0  0  0  0  0  0  0  0  0  0  0
   51.3261   10.6628   13.5353 H   0  0  0  0  0  0  0  0  0  0  0  0
   47.3927    6.0742   13.9858 H   0  0  0  0  0  0  0  0  0  0  0  0
   44.1026    5.6891   13.2375 H   0  0  0  0  0  0  0  0  0  0  0  0
   41.9778    4.6061   12.5765 H   0  0  0  0  0  0  0  0  0  0  0  0
   41.9350    6.3440   12.2716 H   0  0  0  0  0  0  0  0  0  0  0  0
   42.1611    5.2148   10.9239 H   0  0  0  0  0  0  0  0  0  0  0  0
   44.0697    3.3161   12.3833 H   0  0  0  0  0  0  0  0  0  0  0  0
   44.4468    3.8985   10.7547 H   0  0  0  0  0  0  0  0  0  0  0  0
   45.6204    4.0896   12.0729 H   0  0  0  0  0  0  0  0  0  0  0  0
   47.2911    7.3523   12.6698 H   0  0  0  0  0  0  0  0  0  0  0  0
   45.9977    6.6046   12.3560 H   0  0  0  0  0  0  0  0  0  0  0  0
   47.1552    7.6188   12.6893 H   0  0  0  0  0  0  0  0  0  0  0  0
   46.2444    6.4355   12.3685 H   0  0  0  0  0  0  0  0  0  0  0  0
  2  1  2  0
  3  1  1  0
  4  2  1  0
  5  3  2  0
  6  8  1  0
  7  5  1  0
  8  9  1  0
  9  3  1  0
 10  2  1  0
 11  4  1  0
 12  9  1  0
 13  6  1  0
 14 13  1  0
 15 13  1  0
  7  4  2  0
 17 16  2  0
 18 16  2  0
 19 16  1  0
 20 16  1  0
 22 21  2  0
 23 21  1  0
 24 22  1  0
 25 23  2  0
 26 28  1  0
 27 25  1  0
 28 29  1  0
 29 23  1  0
 30 22  1  0
 31 24  1  0
 32 29  1  0
 33 26  1  0
 34 33  1  0
 35 33  1  0
 27 24  2  0
  1 38  1  0
  5 39  1  0
  6 40  1  0
  7 41  1  0
  8 42  1  0
  8 43  1  0
  9 44  1  1
 10 45  1  0
 11 46  1  0
 12 47  1  0
 13 48  1  0
 14 49  1  0
 14 50  1  0
 14 51  1  0
 15 52  1  0
 15 53  1  0
 15 54  1  0
 19 55  1  0
 20 56  1  0
 21 57  1  0
 25 58  1  0
 26 59  1  0
 27 60  1  0
 28 61  1  0
 28 62  1  0
 29 63  1  1
 30 64  1  0
 31 65  1  0
 32 66  1  0
 33 67  1  0
 34 68  1  0
 34 69  1  0
 34 70  1  0
 35 71  1  0
 35 72  1  0
 35 73  1  0
 36 74  1  0
 36 75  1  0
 37 76  1  0
 37 77  1  0
M  END
> <Uni-Dock RESULT> 
ENERGY=   -5.997  LOWER_BOUND=    5.441  UPPER_BOUND=    6.903
INTER + INTRA:          -5.997
INTER:                  -5.997
INTRA:                   0.000
UNBOUND:                 0.000

$$$$

     RDKit          3D

 77 74  0  0  0  0  0  0  0  0999 V2000
   53.2732    3.3134   18.4173 C   0  0  0  0  0  0  0  0  0  0  0  0
   53.5338    1.9467   18.4035 C   0  0  0  0  0  0  0  0  0  0  0  0
   52.0024    3.7930   18.0422 C   0  0  0  0  0  0  0  0  0  0  0  0
   52.5506    1.0477   18.0048 C   0  0  0  0  0  0  0  0  0  0  0  0
   51.0258    2.8667   17.6331 C   0  0  0  0  0  0  0  0  0  0  0  0
   49.3437    5.6726   17.3967 N   0  0  0  0  0  0  0  0  0  0  0  0
   51.2993    1.4958   17.6155 C   0  0  0  0  0  0  0  0  0  0  0  0
   50.3374    5.7685   18.4814 C   0  0  0  0  0  0  0  0  0  0  0  0
   51.7525    5.2908   18.0474 C   0  0  2  0  0  0  0  0  0  0  0  0
   54.7469    1.4394   18.7780 O   0  0  0  0  0  0  0  0  0  0  0  0
   52.8143   -0.2917   17.9944 O   0  0  0  0  0  0  0  0  0  0  0  0
   52.0687    5.8428   16.7617 O   0  0  0  0  0  0  0  0  0  0  0  0
   48.0448    6.2999   17.6700 C   0  0  0  0  0  0  0  0  0  0  0  0
   48.1212    7.8272   17.7129 C   0  0  0  0  0  0  0  0  0  0  0  0
   47.3646    5.7454   18.9221 C   0  0  0  0  0  0  0  0  0  0  0  0
   50.3927    4.1808   18.2696 S   0  0  0  0  0  0  0  0  0  0  0  0
   49.8813    3.2735   17.2743 O   0  0  0  0  0  0  0  0  0  0  0  0
   50.1226    4.0632   19.6806 O   0  0  0  0  0  0  0  0  0  0  0  0
   51.9890    4.2502   18.1208 O   0  0  0  0  0  0  0  0  0  0  0  0
   49.9755    5.6553   17.7957 O   0  0  0  0  0  0  0  0  0  0  0  0
   53.1017    3.3974   18.2329 C   0  0  0  0  0  0  0  0  0  0  0  0
   53.7994    2.2203   17.9799 C   0  0  0  0  0  0  0  0  0  0  0  0
   51.7102    3.4472   18.0249 C   0  0  0  0  0  0  0  0  0  0  0  0
   53.1295    1.0883   17.5304 C   0  0  0  0  0  0  0  0  0  0  0  0
   51.0471    2.2861   17.5850 C   0  0  0  0  0  0  0  0  0  0  0  0
   49.3667    6.4745   17.3141 N   0  0  0  0  0  0  0  0  0  0  0  0
   51.7580    1.1096   17.3314 C   0  0  0  0  0  0  0  0  0  0  0  0
   49.8293    5.0729   17.3331 C   0  0  0  0  0  0  0  0  0  0  0  0
   50.9604    4.7298   18.3454 C   0  0  1  0  0  0  0  0  0  0  0  0
   55.1507    2.1251   18.1729 O   0  0  0  0  0  0  0  0  0  0  0  0
   53.8207   -0.0631   17.2878 O   0  0  0  0  0  0  0  0  0  0  0  0
   50.4319    4.6228   19.6705 O   0  0  0  0  0  0  0  0  0  0  0  0
   48.7268    6.9435   18.5510 C   0  0  0  0  0  0  0  0  0  0  0  0
   48.4003    8.4304   18.3697 C   0  0  0  0  0  0  0  0  0  0  0  0
   47.4439    6.1792   18.8834 C   0  0  0  0  0  0  0  0  0  0  0  0
   50.9409    4.7599   17.9848 O   0  0  0  0  0  0  0  0  0  0  0  0
   50.8281    4.8588   17.9997 O   0  0  0  0  0  0  0  0  0  0  0  0
   54.0465    4.0163   18.7150 H   0  0  0  0  0  0  0  0  0  0  0  0
   50.0361    3.1989   17.3226 H   0  0  0  0  0  0  0  0  0  0  0  0
   49.7653    6.1010   16.5680 H   0  0  0  0  0  0  0  0  0  0  0  0
   50.5360    0.7869   17.3063 H   0  0  0  0  0  0  0  0  0  0  0  0
   50.4395    6.8206   18.7697 H   0  0  0  0  0  0  0  0  0  0  0  0
   50.0180    5.2031   19.3636 H   0  0  0  0  0  0  0  0  0  0  0  0
   52.4548    5.7447   18.7576 H   0  0  0  0  0  0  0  0  0  0  0  0
   55.2981    2.1749   19.0930 H   0  0  0  0  0  0  0  0  0  0  0  0
   53.7318   -0.3612   18.3245 H   0  0  0  0  0  0  0  0  0  0  0  0
   52.2491    5.0937   16.1656 H   0  0  0  0  0  0  0  0  0  0  0  0
   47.4026    6.0377   16.8192 H   0  0  0  0  0  0  0  0  0  0  0  0
   48.6057    8.2217   16.8128 H   0  0  0  0  0  0  0  0  0  0  0  0
   47.1143    8.2570   17.7612 H   0  0  0  0  0  0  0  0  0  0  0  0
   48.6754    8.1906   18.5850 H   0  0  0  0  0  0  0  0  0  0  0  0
   47.3198    4.6508   18.8933 H   0  0  0  0  0  0  0  0  0  0  0  0
   47.8846    6.0429   19.8387 H   0  0  0  0  0  0  0  0  0  0  0  0
   46.3351    6.1143   18.9923 H   0  0  0  0  0  0  0  0  0  0  0  0
   52.3360    4.6343   18.9525 H   0  0  0  0  0  0  0  0  0  0  0  0
   49.8779    5.6272   16.8210 H   0  0  0  0  0  0  0  0  0  0  0  0
   53.6238    4.2785   18.5933 H   0  0  0  0  0  0  0  0  0  0  0  0
   49.9685    2.2787   17.4365 H   0  0  0  0  0  0  0  0  0  0  0  0
   50.1622    7.0782   17.1074 H   0  0  0  0  0  0  0  0  0  0  0  0
   51.2435    0.2172   16.9889 H   0  0  0  0  0  0  0  0  0  0  0  0
   50.1968    4.8723   16.3186 H   0  0  0  0  0  0  0  0  0  0  0  0
   48.9691    4.4098   17.4793 H   0  0  0  0  0  0  0  0  0  0  0  0
   51.6746    5.5623   18.3491 H   0  0  0  0  0  0  0  0  0  0  0  0
   55.4625    2.9618   18.5606 H   0  0  0  0  0  0  0  0  0  0  0  0
   54.7511    0.1630   17.4854 H   0  0  0  0  0  0  0  0  0  0  0  0
   50.4798    3.6902   19.9438 H   0  0  0  0  0  0  0  0  0  0  0  0
   49.4241    6.8705   19.3924 H   0  0  0  0  0  0  0  0  0  0  0  0
   47.9263    8.8367   19.2690 H   0  0  0  0  0  0  0  0  0  0  0  0
   49.3090    9.0137   18.1866 H   0  0  0  0  0  0  0  0  0  0  0  0
   47.7184    8.5913   17.5277 H   0  0  0  0  0  0  0  0  0  0  0  0
   46.9383    6.6289   19.7454 H   0  0  0  0  0  0  0  0  0  0  0  0
   46.7402    6.1903   18.0419 H   0  0  0  0  0  0  0  0  0  0  0  0
   47.6500    5.1358   19.1427 H   0  0  0  0  0  0  0  0  0  0  0  0
   50.9842    3.8120   18.1814 H   0  0  0  0  0  0  0  0  0  0  0  0
   50.0356    5.0072   18.2258 H   0  0  0  0  0  0  0  0  0  0  0  0
   51.2122    3.9724   18.0712 H   0  0  0  0  0  0  0  0  0  0  0  0
   49.9204    4.7479   18.3211 H   0  0  0  0  0  0  0  0  0  0  0  0
  2  1  2  0
  3  1  1  0
  4  2  1  0
  5  3  2  0
  6  8  1  0
  7  5  1  0
  8  9  1  0
  9  3  1  0
 10  2  1  0
 11  4  1  0
 12  9  1  0
 13  6  1  0
 14 13  1  0
 15 13  1  0
  7  4  2  0
 17 16  2  0
 18 16  2  0
 19 16  1  0
 20 16  1  0
 22 21  2  0
 23 21  1  0
 24 22  1  0
 25 23  2  0
 26 28  1  0
 27 25  1  0
 28 29  1  0
 29 23  1  0
 30 22  1  0
 31 24  1  0
 32 29  1  0
 33 26  1  0
 34 33  1  0
 35 33  1  0
 27 24  2  0
  1 38  1  0
  5 39  1  0
  6 40  1  0
  7 41  1  0
  8 42  1  0
  8 43  1  0
  9 44  1  1
 10 45  1  0
 11 46  1  0
 12 47  1  0
 13 48  1  0
 14 49  1  0
 14 50  1  0
 14 51  1  0
 15 52  1  0
 15 53  1  0
 15 54  1  0
 19 55  1  0
 20 56  1  0
 21 57  1  0
 25 58  1  0
 26 59  1  0
 27 60  1  0
 28 61  1  0
 28 62  1  0
 29 63  1  1
 30 64  1  0
 31 65  1  0
 32 66  1  0
 33 67  1  0
 34 68  1  0
 34 69  1  0
 34 70  1  0
 35 71  1  0
 35 72  1  0
 35 73  1  0
 36 74  1  0
 36 75  1  0
 37 76  1  0
 37 77  1  0
M  END
> <Uni-Dock RESULT> 
ENERGY=   -5.906  LOWER_BOUND=    9.565  UPPER_BOUND=   11.695
INTER + INTRA:          -5.906
INTER:                  -5.906
INTRA:                   0.000
UNBOUND:                 0.000

$$$$

     RDKit          3D

 77 74  0  0  0  0  0  0  0  0999 V2000
   45.1090    5.2013   13.5394 C   0  0  0  0  0  0  0  0  0  0  0  0
   43.8413    5.2263   12.9665 C   0  0  0  0  0  0  0  0  0  0  0  0
   46.1454    5.9845   12.9935 C   0  0  0  0  0  0  0  0  0  0  0  0
   43.5925    6.0091   11.8443 C   0  0  0  0  0  0  0  0  0  0  0  0
   45.8742    6.7613   11.8524 C   0  0  0  0  0  0  0  0  0  0  0  0
   49.0170    7.5341   12.3849 N   0  0  0  0  0  0  0  0  0  0  0  0
   44.5992    6.7743   11.2793 C   0  0  0  0  0  0  0  0  0  0  0  0
   48.3441    7.2430   13.6638 C   0  0  0  0  0  0  0  0  0  0  0  0
   47.5240    5.9220   13.6272 C   0  0  2  0  0  0  0  0  0  0  0  0
   42.8040    4.4962   13.4767 O   0  0  0  0  0  0  0  0  0  0  0  0
   42.3459    6.0283   11.2883 O   0  0  0  0  0  0  0  0  0  0  0  0
   48.3033    4.8940   12.9999 O   0  0  0  0  0  0  0  0  0  0  0  0
   49.9735    8.6477   12.4112 C   0  0  0  0  0  0  0  0  0  0  0  0
   51.2362    8.3260   13.2127 C   0  0  0  0  0  0  0  0  0  0  0  0
   49.3465    9.9636   12.8727 C   0  0  0  0  0  0  0  0  0  0  0  0
   47.0345    7.3785   12.7499 S   0  0  0  0  0  0  0  0  0  0  0  0
   46.7931    7.4603   11.3320 O   0  0  0  0  0  0  0  0  0  0  0  0
   46.5668    8.3529   13.7036 O   0  0  0  0  0  0  0  0  0  0  0  0
   46.5156    5.9524   13.2716 O   0  0  0  0  0  0  0  0  0  0  0  0
   48.6198    7.2136   12.9309 O   0  0  0  0  0  0  0  0  0  0  0  0
   45.3102    5.2346   13.3696 C   0  0  0  0  0  0  0  0  0  0  0  0
   44.1130    4.7357   12.8654 C   0  0  0  0  0  0  0  0  0  0  0  0
   45.9703    6.2836   12.7018 C   0  0  0  0  0  0  0  0  0  0  0  0
   43.5586    5.2725   11.7093 C   0  0  0  0  0  0  0  0  0  0  0  0
   45.3850    6.8251   11.5418 C   0  0  0  0  0  0  0  0  0  0  0  0
   49.7221    7.3254   12.7163 N   0  0  0  0  0  0  0  0  0  0  0  0
   44.1834    6.3146   11.0423 C   0  0  0  0  0  0  0  0  0  0  0  0
   48.3340    7.2046   12.2289 C   0  0  0  0  0  0  0  0  0  0  0  0
   47.2556    6.8415   13.2905 C   0  0  1  0  0  0  0  0  0  0  0  0
   43.4350    3.7209   13.4841 O   0  0  0  0  0  0  0  0  0  0  0  0
   42.3825    4.7797   11.2232 O   0  0  0  0  0  0  0  0  0  0  0  0
   46.9275    7.9861   14.0836 O   0  0  0  0  0  0  0  0  0  0  0  0
   49.9603    8.4123   13.6761 C   0  0  0  0  0  0  0  0  0  0  0  0
   51.4223    8.3199   14.1283 C   0  0  0  0  0  0  0  0  0  0  0  0
   49.6996    9.7978   13.0821 C   0  0  0  0  0  0  0  0  0  0  0  0
   47.4100    6.6666   13.0133 O   0  0  0  0  0  0  0  0  0  0  0  0
   47.5340    6.7506   13.0300 O   0  0  0  0  0  0  0  0  0  0  0  0
   45.3063    4.5782   14.4076 H   0  0  0  0  0  0  0  0  0  0  0  0
   46.6522    7.3693   11.3928 H   0  0  0  0  0  0  0  0  0  0  0  0
   49.4958    6.6758   12.0982 H   0  0  0  0  0  0  0  0  0  0  0  0
   44.3965    7.3842   10.4030 H   0  0  0  0  0  0  0  0  0  0  0  0
   49.1077    7.1132   14.4388 H   0  0  0  0  0  0  0  0  0  0  0  0
   47.6900    8.0684   13.9652 H   0  0  0  0  0  0  0  0  0  0  0  0
   47.3978    5.6165   14.6733 H   0  0  0  0  0  0  0  0  0  0  0  0
   43.1109    4.0622   14.2900 H   0  0  0  0  0  0  0  0  0  0  0  0
   41.8145    5.4427   11.8631 H   0  0  0  0  0  0  0  0  0  0  0  0
   47.7912    4.5732   12.2358 H   0  0  0  0  0  0  0  0  0  0  0  0
   50.2872    8.7953   11.3697 H   0  0  0  0  0  0  0  0  0  0  0  0
   51.6851    7.3845   12.8772 H   0  0  0  0  0  0  0  0  0  0  0  0
   51.9842    9.1152   13.0767 H   0  0  0  0  0  0  0  0  0  0  0  0
   51.0365    8.2443   14.2865 H   0  0  0  0  0  0  0  0  0  0  0  0
   48.4369   10.1868   12.3036 H   0  0  0  0  0  0  0  0  0  0  0  0
   49.0890    9.9457   13.9369 H   0  0  0  0  0  0  0  0  0  0  0  0
   50.0439   10.7943   12.7161 H   0  0  0  0  0  0  0  0  0  0  0  0
   46.4287    6.0198   14.2450 H   0  0  0  0  0  0  0  0  0  0  0  0
   48.9612    6.7986   12.1114 H   0  0  0  0  0  0  0  0  0  0  0  0
   45.7380    4.8215   14.2780 H   0  0  0  0  0  0  0  0  0  0  0  0
   45.8531    7.6531   11.0119 H   0  0  0  0  0  0  0  0  0  0  0  0
   49.9950    6.4422   13.1469 H   0  0  0  0  0  0  0  0  0  0  0  0
   43.7370    6.7326   10.1455 H   0  0  0  0  0  0  0  0  0  0  0  0
   48.3581    6.4112   11.4710 H   0  0  0  0  0  0  0  0  0  0  0  0
   48.0560    8.1217   11.6973 H   0  0  0  0  0  0  0  0  0  0  0  0
   47.6858    6.0929   13.9669 H   0  0  0  0  0  0  0  0  0  0  0  0
   43.8984    3.5062   14.3129 H   0  0  0  0  0  0  0  0  0  0  0  0
   42.1435    4.0609   11.8413 H   0  0  0  0  0  0  0  0  0  0  0  0
   46.0186    8.2576   13.8663 H   0  0  0  0  0  0  0  0  0  0  0  0
   49.3412    8.2751   14.5690 H   0  0  0  0  0  0  0  0  0  0  0  0
   51.6549    9.1056   14.8544 H   0  0  0  0  0  0  0  0  0  0  0  0
   51.6253    7.3578   14.6107 H   0  0  0  0  0  0  0  0  0  0  0  0
   52.1108    8.4279   13.2834 H   0  0  0  0  0  0  0  0  0  0  0  0
   49.9942   10.5827   13.7878 H   0  0  0  0  0  0  0  0  0  0  0  0
   50.2683    9.9517   12.1568 H   0  0  0  0  0  0  0  0  0  0  0  0
   48.6384    9.9499   12.8602 H   0  0  0  0  0  0  0  0  0  0  0  0
   46.5157    6.9053   12.7263 H   0  0  0  0  0  0  0  0  0  0  0  0
   47.8971    7.5036   12.9796 H   0  0  0  0  0  0  0  0  0  0  0  0
   46.6002    6.6282   12.8034 H   0  0  0  0  0  0  0  0  0  0  0  0
   47.6885    7.6966   12.8856 H   0  0  0  0  0  0  0  0  0  0  0  0
  2  1  2  0
  3  1  1  0
  4  2  1  0
  5  3  2  0
  6  8  1  0
  7  5  1  0
  8  9  1  0
  9  3  1  0
 10  2  1  0
 11  4  1  0
 12  9  1  0
 13  6  1  0
 14 13  1  0
 15 13  1  0
  7  4  2  0
 17 16  2  0
 18 16  2  0
 19 16  1  0
 20 16  1  0
 22 21  2  0
 23 21  1  0
 24 22  1  0
 25 23  2  0
 26 28  1  0
 27 25  1  0
 28 29  1  0
 29 23  1  0
 30 22  1  0
 31 24  1  0
 32 29  1  0
 33 26  1  0
 34 33  1  0
 35 33  1  0
 27 24  2  0
  1 38  1  0
  5 39  1  0
  6 40  1  0
  7 41  1  0
  8 42  1  0
  8 43  1  0
  9 44  1  1
 10 45  1  0
 11 46  1  0
 12 47  1  0
 13 48  1  0
 14 49  1  0
 14 50  1  0
 14 51  1  0
 15 52  1  0
 15 53  1  0
 15 54  1  0
 19 55  1  0
 20 56  1  0
 21 57  1  0
 25 58  1  0
 26 59  1  0
 27 60  1  0
 28 61  1  0
 28 62  1  0
 29 63  1  1
 30 64  1  0
 31 65  1  0
 32 66  1  0
 33 67  1  0
 34 68  1  0
 34 69  1  0
 34 70  1  0
 35 71  1  0
 35 72  1  0
 35 73  1  0
 36 74  1  0
 36 75  1  0
 37 76  1  0
 37 77  1  0
M  END
> <Uni-Dock RESULT> 
ENERGY=   -5.756  LOWER_BOUND=    4.729  UPPER_BOUND=    6.248
INTER + INTRA:          -5.756
INTER:                  -5.756
INTRA:                   0.000
UNBOUND:                 0.000

$$$$

     RDKit          3D

 77 74  0  0  0  0  0  0  0  0999 V2000
   45.2334    5.4781   13.3576 C   0  0  0  0  0  0  0  0  0  0  0  0
   43.9238    5.2023   12.9771 C   0  0  0  0  0  0  0  0  0  0  0  0
   45.9293    6.5505   12.7648 C   0  0  0  0  0  0  0  0  0  0  0  0
   43.2994    5.9699   12.0000 C   0  0  0  0  0  0  0  0  0  0  0  0
   45.2818    7.3078   11.7716 C   0  0  0  0  0  0  0  0  0  0  0  0
   48.1669    8.8590   11.9391 N   0  0  0  0  0  0  0  0  0  0  0  0
   43.9682    7.0184   11.3906 C   0  0  0  0  0  0  0  0  0  0  0  0
   47.8145    8.3027   13.2580 C   0  0  0  0  0  0  0  0  0  0  0  0
   47.3642    6.8158   13.1850 C   0  0  2  0  0  0  0  0  0  0  0  0
   43.2076    4.1833   13.5410 O   0  0  0  0  0  0  0  0  0  0  0  0
   42.0141    5.6929   11.6324 O   0  0  0  0  0  0  0  0  0  0  0  0
   48.2634    6.0862   12.3385 O   0  0  0  0  0  0  0  0  0  0  0  0
   48.7981   10.1844   11.9585 C   0  0  0  0  0  0  0  0  0  0  0  0
   50.2169   10.1571   12.5300 C   0  0  0  0  0  0  0  0  0  0  0  0
   47.9428   11.2440   12.6538 C   0  0  0  0  0  0  0  0  0  0  0  0
   46.3797    8.1470   12.5610 S   0  0  0  0  0  0  0  0  0  0  0  0
   45.8915    8.2658   11.2108 O   0  0  0  0  0  0  0  0  0  0  0  0
   45.8455    8.8851   13.6779 O   0  0  0  0  0  0  0  0  0  0  0  0
   46.3366    6.5990   12.9820 O   0  0  0  0  0  0  0  0  0  0  0  0
   47.9618    8.4035   12.4950 O   0  0  0  0  0  0  0  0  0  0  0  0
   45.3881    5.5770   13.1660 C   0  0  0  0  0  0  0  0  0  0  0  0
   44.2908    4.8122   12.7822 C   0  0  0  0  0  0  0  0  0  0  0  0
   45.6373    6.8120   12.5376 C   0  0  0  0  0  0  0  0  0  0  0  0
   43.4323    5.2638   11.7866 C   0  0  0  0  0  0  0  0  0  0  0  0
   44.7476    7.2599   11.5431 C   0  0  0  0  0  0  0  0  0  0  0  0
   48.9471    8.8245   12.1406 N   0  0  0  0  0  0  0  0  0  0  0  0
   43.6498    6.4825   11.1633 C   0  0  0  0  0  0  0  0  0  0  0  0
   47.5744    8.3698   11.8444 C   0  0  0  0  0  0  0  0  0  0  0  0
   46.8178    7.6510   12.9988 C   0  0  1  0  0  0  0  0  0  0  0  0
   44.0075    3.6089   13.3689 O   0  0  0  0  0  0  0  0  0  0  0  0
   42.3564    4.5091   11.4184 O   0  0  0  0  0  0  0  0  0  0  0  0
   46.3462    8.6021   13.9578 O   0  0  0  0  0  0  0  0  0  0  0  0
   49.0575    9.8608   13.1765 C   0  0  0  0  0  0  0  0  0  0  0  0
   50.5491   10.1335   13.4030 C   0  0  0  0  0  0  0  0  0  0  0  0
   48.3564   11.1646   12.7903 C   0  0  0  0  0  0  0  0  0  0  0  0
   46.9629    7.5455   12.6840 O   0  0  0  0  0  0  0  0  0  0  0  0
   47.0625    7.6584   12.6927 O   0  0  0  0  0  0  0  0  0  0  0  0
   45.7257    4.8688   14.1108 H   0  0  0  0  0  0  0  0  0  0  0  0
   45.7907    8.1358   11.2800 H   0  0  0  0  0  0  0  0  0  0  0  0
   48.7937    8.1857   11.4898 H   0  0  0  0  0  0  0  0  0  0  0  0
   43.4729    7.6143   10.6287 H   0  0  0  0  0  0  0  0  0  0  0  0
   48.7046    8.3268   13.8965 H   0  0  0  0  0  0  0  0  0  0  0  0
   47.0316    8.8959   13.7428 H   0  0  0  0  0  0  0  0  0  0  0  0
   47.4972    6.4106   14.1959 H   0  0  0  0  0  0  0  0  0  0  0  0
   43.7468    3.7891   14.2466 H   0  0  0  0  0  0  0  0  0  0  0  0
   41.7537    4.9445   12.2049 H   0  0  0  0  0  0  0  0  0  0  0  0
   47.7296    5.6966   11.6228 H   0  0  0  0  0  0  0  0  0  0  0  0
   48.8848   10.4883   10.9073 H   0  0  0  0  0  0  0  0  0  0  0  0
   50.8284    9.3995   12.0273 H   0  0  0  0  0  0  0  0  0  0  0  0
   50.7052   11.1269   12.3818 H   0  0  0  0  0  0  0  0  0  0  0  0
   50.2275    9.9450   13.6045 H   0  0  0  0  0  0  0  0  0  0  0  0
   46.9244   11.2549   12.2493 H   0  0  0  0  0  0  0  0  0  0  0  0
   47.8804   11.0781   13.7344 H   0  0  0  0  0  0  0  0  0  0  0  0
   48.3689   12.2414   12.4973 H   0  0  0  0  0  0  0  0  0  0  0  0
   46.3997    6.5679   13.9590 H   0  0  0  0  0  0  0  0  0  0  0  0
   48.2554    8.1582   11.5928 H   0  0  0  0  0  0  0  0  0  0  0  0
   46.0530    5.2285   13.9504 H   0  0  0  0  0  0  0  0  0  0  0  0
   44.8934    8.2207   11.0519 H   0  0  0  0  0  0  0  0  0  0  0  0
   49.5043    8.0184   12.4227 H   0  0  0  0  0  0  0  0  0  0  0  0
   42.9679    6.8298   10.3934 H   0  0  0  0  0  0  0  0  0  0  0  0
   47.6726    7.6710   11.0038 H   0  0  0  0  0  0  0  0  0  0  0  0
   46.9866    9.2146   11.4676 H   0  0  0  0  0  0  0  0  0  0  0  0
   47.5316    6.9983   13.5159 H   0  0  0  0  0  0  0  0  0  0  0  0
   44.6423    3.4664   14.0930 H   0  0  0  0  0  0  0  0  0  0  0  0
   42.4157    3.7086   11.9765 H   0  0  0  0  0  0  0  0  0  0  0  0
   45.3751    8.6335   13.9046 H   0  0  0  0  0  0  0  0  0  0  0  0
   48.6524    9.4955   14.1262 H   0  0  0  0  0  0  0  0  0  0  0  0
   50.6919   10.8965   14.1750 H   0  0  0  0  0  0  0  0  0  0  0  0
   51.0685    9.2289   13.7368 H   0  0  0  0  0  0  0  0  0  0  0  0
   51.0357   10.4859   12.4872 H   0  0  0  0  0  0  0  0  0  0  0  0
   48.5550   11.9452   13.5334 H   0  0  0  0  0  0  0  0  0  0  0  0
   48.7038   11.5347   11.8179 H   0  0  0  0  0  0  0  0  0  0  0  0
   47.2699   11.0404   12.7403 H   0  0  0  0  0  0  0  0  0  0  0  0
   46.0023    7.5544   12.5565 H   0  0  0  0  0  0  0  0  0  0  0  0
   47.2077    8.4830   12.6790 H   0  0  0  0  0  0  0  0  0  0  0  0
   46.1664    7.3054   12.5882 H   0  0  0  0  0  0  0  0  0  0  0  0
   46.9441    8.6189   12.6386 H   0  0  0  0  0  0  0  0  0  0  0  0
  2  1  2  0
  3  1  1  0
  4  2  1  0
  5  3  2  0
  6  8  1  0
  7  5  1  0
  8  9  1  0
  9  3  1  0
 10  2  1  0
 11  4  1  0
 12  9  1  0
 13  6  1  0
 14 13  1  0
 15 13  1  0
  7  4  2  0
 17 16  2  0
 18 16  2  0
 19 16  1  0
 20 16  1  0
 22 21  2  0
 23 21  1  0
 24 22  1  0
 25 23  2  0
 26 28  1  0
 27 25  1  0
 28 29  1  0
 29 23  1  0
 30 22  1  0
 31 24  1  0
 32 29  1  0
 33 26  1  0
 34 33  1  0
 35 33  1  0
 27 24  2  0
  1 38  1  0
  5 39  1  0
  6 40  1  0
  7 41  1  0
  8 42  1  0
  8 43  1  0
  9 44  1  1
 10 45  1  0
 11 46  1  0
 12 47  1  0
 13 48  1  0
 14 49  1  0
 14 50  1  0
 14 51  1  0
 15 52  1  0
 15 53  1  0
 15 54  1  0
 19 55  1  0
 20 56  1  0
 21 57  1  0
 25 58  1  0
 26 59  1  0
 27 60  1  0
 28 61  1  0
 28 62  1  0
 29 63  1  1
 30 64  1  0
 31 65  1  0
 32 66  1  0
 33 67  1  0
 34 68  1  0
 34 69  1  0
 34 70  1  0
 35 71  1  0
 35 72  1  0
 35 73  1  0
 36 74  1  0
 36 75  1  0
 37 76  1  0
 37 77  1  0
M  END
> <Uni-Dock RESULT> 
ENERGY=   -5.716  LOWER_BOUND=    4.820  UPPER_BOUND=    6.515
INTER + INTRA:          -5.716
INTER:                  -5.716
INTRA:                   0.000
UNBOUND:                 0.000

$$$$

     RDKit          3D

 77 74  0  0  0  0  0  0  0  0999 V2000
   47.5684    5.5949   14.1586 C   0  0  0  0  0  0  0  0  0  0  0  0
   46.5233    4.6793   14.0847 C   0  0  0  0  0  0  0  0  0  0  0  0
   47.5938    6.7077   13.2945 C   0  0  0  0  0  0  0  0  0  0  0  0
   45.5079    4.8459   13.1494 C   0  0  0  0  0  0  0  0  0  0  0  0
   46.5616    6.8514   12.3495 C   0  0  0  0  0  0  0  0  0  0  0  0
   48.3383    9.5372   11.7267 N   0  0  0  0  0  0  0  0  0  0  0  0
   45.5195    5.9222   12.2778 C   0  0  0  0  0  0  0  0  0  0  0  0
   48.4382    9.1846   13.1546 C   0  0  0  0  0  0  0  0  0  0  0  0
   48.7571    7.6797   13.3838 C   0  0  2  0  0  0  0  0  0  0  0  0
   46.4516    3.5972   14.9172 O   0  0  0  0  0  0  0  0  0  0  0  0
   44.4858    3.9432   13.0835 O   0  0  0  0  0  0  0  0  0  0  0  0
   49.8030    7.2724   12.4906 O   0  0  0  0  0  0  0  0  0  0  0  0
   48.2492   10.9729   11.4332 C   0  0  0  0  0  0  0  0  0  0  0  0
   49.5555   11.7178   11.7142 C   0  0  0  0  0  0  0  0  0  0  0  0
   47.0663   11.6521   12.1242 C   0  0  0  0  0  0  0  0  0  0  0  0
   47.1933    8.2469   12.7811 S   0  0  0  0  0  0  0  0  0  0  0  0
   46.5706    7.8332   11.5496 O   0  0  0  0  0  0  0  0  0  0  0  0
   46.4888    8.8861   13.8641 O   0  0  0  0  0  0  0  0  0  0  0  0
   47.9472    6.9819   13.4186 O   0  0  0  0  0  0  0  0  0  0  0  0
   48.4380    9.1719   12.3711 O   0  0  0  0  0  0  0  0  0  0  0  0
   47.6352    5.7087   13.9283 C   0  0  0  0  0  0  0  0  0  0  0  0
   47.0105    4.4663   13.8795 C   0  0  0  0  0  0  0  0  0  0  0  0
   47.1900    6.7516   13.0938 C   0  0  0  0  0  0  0  0  0  0  0  0
   45.9422    4.2495   13.0170 C   0  0  0  0  0  0  0  0  0  0  0  0
   46.0964    6.5178   12.2390 C   0  0  0  0  0  0  0  0  0  0  0  0
   49.0544    9.9053   11.7746 N   0  0  0  0  0  0  0  0  0  0  0  0
   45.4778    5.2651   12.1959 C   0  0  0  0  0  0  0  0  0  0  0  0
   48.0496    8.8250   11.8204 C   0  0  0  0  0  0  0  0  0  0  0  0
   47.8592    8.1128   13.1909 C   0  0  1  0  0  0  0  0  0  0  0  0
   47.4064    3.4262   14.6756 O   0  0  0  0  0  0  0  0  0  0  0  0
   45.3328    3.0290   12.9776 O   0  0  0  0  0  0  0  0  0  0  0  0
   47.0899    8.9299   14.0781 O   0  0  0  0  0  0  0  0  0  0  0  0
   48.7580   11.0770   12.6105 C   0  0  0  0  0  0  0  0  0  0  0  0
   49.9467   12.0387   12.4997 C   0  0  0  0  0  0  0  0  0  0  0  0
   47.4785   11.8010   12.1870 C   0  0  0  0  0  0  0  0  0  0  0  0
   48.0036    8.0187   12.8722 O   0  0  0  0  0  0  0  0  0  0  0  0
   48.0365    8.1633   12.8450 O   0  0  0  0  0  0  0  0  0  0  0  0
   48.3692    5.4562   14.8799 H   0  0  0  0  0  0  0  0  0  0  0  0
   46.5529    7.6903   11.6550 H   0  0  0  0  0  0  0  0  0  0  0  0
   49.1616    9.1417   11.2642 H   0  0  0  0  0  0  0  0  0  0  0  0
   44.7217    6.0460   11.5505 H   0  0  0  0  0  0  0  0  0  0  0  0
   49.2670    9.7486   13.5967 H   0  0  0  0  0  0  0  0  0  0  0  0
   47.5215    9.4478   13.6936 H   0  0  0  0  0  0  0  0  0  0  0  0
   49.1737    7.6107   14.3963 H   0  0  0  0  0  0  0  0  0  0  0  0
   47.1843    3.6552   15.5526 H   0  0  0  0  0  0  0  0  0  0  0  0
   44.6805    3.3035   13.7966 H   0  0  0  0  0  0  0  0  0  0  0  0
   49.4523    6.5374   11.9560 H   0  0  0  0  0  0  0  0  0  0  0  0
   48.0682   11.0453   10.3530 H   0  0  0  0  0  0  0  0  0  0  0  0
   50.4006   11.2309   11.2148 H   0  0  0  0  0  0  0  0  0  0  0  0
   49.4963   12.7449   11.3367 H   0  0  0  0  0  0  0  0  0  0  0  0
   49.7792   11.7739   12.7850 H   0  0  0  0  0  0  0  0  0  0  0  0
   46.1334   11.1111   11.9292 H   0  0  0  0  0  0  0  0  0  0  0  0
   47.2048   11.7164   13.2085 H   0  0  0  0  0  0  0  0  0  0  0  0
   46.9388   12.6730   11.7468 H   0  0  0  0  0  0  0  0  0  0  0  0
   48.1190    7.1969   14.3587 H   0  0  0  0  0  0  0  0  0  0  0  0
   48.7176    8.8962   11.4733 H   0  0  0  0  0  0  0  0  0  0  0  0
   48.4634    5.8805   14.6091 H   0  0  0  0  0  0  0  0  0  0  0  0
   45.7080    7.3068   11.5970 H   0  0  0  0  0  0  0  0  0  0  0  0
   49.9576    9.5232   12.0543 H   0  0  0  0  0  0  0  0  0  0  0  0
   44.6369    5.0877   11.5328 H   0  0  0  0  0  0  0  0  0  0  0  0
   48.3848    8.0822   11.0852 H   0  0  0  0  0  0  0  0  0  0  0  0
   47.0914    9.2059   11.4494 H   0  0  0  0  0  0  0  0  0  0  0  0
   48.8490    7.9855   13.6461 H   0  0  0  0  0  0  0  0  0  0  0  0
   48.1027    3.7491   15.2743 H   0  0  0  0  0  0  0  0  0  0  0  0
   45.8291    2.4861   13.6216 H   0  0  0  0  0  0  0  0  0  0  0  0
   46.2249    8.5048   14.2119 H   0  0  0  0  0  0  0  0  0  0  0  0
   48.6812   10.7849   13.6632 H   0  0  0  0  0  0  0  0  0  0  0  0
   49.7829   12.9313   13.1121 H   0  0  0  0  0  0  0  0  0  0  0  0
   50.8700   11.5657   12.8509 H   0  0  0  0  0  0  0  0  0  0  0  0
   50.1041   12.3641   11.4658 H   0  0  0  0  0  0  0  0  0  0  0  0
   47.3517   12.7278   12.7579 H   0  0  0  0  0  0  0  0  0  0  0  0
   47.5004   12.0661   11.1228 H   0  0  0  0  0  0  0  0  0  0  0  0
   46.5886   11.1898   12.3687 H   0  0  0  0  0  0  0  0  0  0  0  0
   47.1508    7.5627   12.9350 H   0  0  0  0  0  0  0  0  0  0  0  0
   47.7632    8.9386   12.6858 H   0  0  0  0  0  0  0  0  0  0  0  0
   47.4170    7.4290   12.9691 H   0  0  0  0  0  0  0  0  0  0  0  0
   47.4641    8.9276   12.6788 H   0  0  0  0  0  0  0  0  0  0  0  0
  2  1  2  0
  3  1  1  0
  4  2  1  0
  5  3  2  0
  6  8  1  0
  7  5  1  0
  8  9  1  0
  9  3  1  0
 10  2  1  0
 11  4  1  0
 12  9  1  0
 13  6  1  0
 14 13  1  0
 15 13  1  0
  7  4  2  0
 17 16  2  0
 18 16  2  0
 19 16  1  0
 20 16  1  0
 22 21  2  0
 23 21  1  0
 24 22  1  0
 25 23  2  0
 26 28  1  0
 27 25  1  0
 28 29  1  0
 29 23  1  0
 30 22  1  0
 31 24  1  0
 32 29  1  0
 33 26  1  0
 34 33  1  0
 35 33  1  0
 27 24  2  0
  1 38  1  0
  5 39  1  0
  6 40  1  0
  7 41  1  0
  8 42  1  0
  8 43  1  0
  9 44  1  1
 10 45  1  0
 11 46  1  0
 12 47  1  0
 13 48  1  0
 14 49  1  0
 14 50  1  0
 14 51  1  0
 15 52  1  0
 15 53  1  0
 15 54  1  0
 19 55  1  0
 20 56  1  0
 21 57  1  0
 25 58  1  0
 26 59  1  0
 27 60  1  0
 28 61  1  0
 28 62  1  0
 29 63  1  1
 30 64  1  0
 31 65  1  0
 32 66  1  0
 33 67  1  0
 34 68  1  0
 34 69  1  0
 34 70  1  0
 35 71  1  0
 35 72  1  0
 35 73  1  0
 36 74  1  0
 36 75  1  0
 37 76  1  0
 37 77  1  0
M  END
> <Uni-Dock RESULT> 
ENERGY=   -5.466  LOWER_BOUND=    5.548  UPPER_BOUND=    7.169
INTER + INTRA:          -5.466
INTER:                  -5.466
INTRA:                   0.000
UNBOUND:                 0.000

$$$$

     RDKit          3D

 77 74  0  0  0  0  0  0  0  0999 V2000
   48.5032    6.7216   20.7312 C   0  0  0  0  0  0  0  0  0  0  0  0
   48.5320    5.9771   21.9063 C   0  0  0  0  0  0  0  0  0  0  0  0
   47.9283    8.0081   20.7252 C   0  0  0  0  0  0  0  0  0  0  0  0
   47.9807    6.4885   23.0760 C   0  0  0  0  0  0  0  0  0  0  0  0
   47.3677    8.5019   21.9173 C   0  0  0  0  0  0  0  0  0  0  0  0
   46.8629   11.0432   19.9062 N   0  0  0  0  0  0  0  0  0  0  0  0
   47.3949    7.7434   23.0913 C   0  0  0  0  0  0  0  0  0  0  0  0
   48.0932   10.3292   19.5197 C   0  0  0  0  0  0  0  0  0  0  0  0
   47.8927    8.7898   19.4238 C   0  0  2  0  0  0  0  0  0  0  0  0
   49.0970    4.7332   21.9589 O   0  0  0  0  0  0  0  0  0  0  0  0
   48.0132    5.7517   24.2248 O   0  0  0  0  0  0  0  0  0  0  0  0
   46.6745    8.5105   18.7199 O   0  0  0  0  0  0  0  0  0  0  0  0
   46.9234   12.5071   19.8113 C   0  0  0  0  0  0  0  0  0  0  0  0
   46.9775   13.0058   18.3660 C   0  0  0  0  0  0  0  0  0  0  0  0
   48.0499   13.1144   20.6478 C   0  0  0  0  0  0  0  0  0  0  0  0
   47.8937    9.6620   20.9631 S   0  0  0  0  0  0  0  0  0  0  0  0
   46.8293    9.6481   21.9340 O   0  0  0  0  0  0  0  0  0  0  0  0
   49.2429   10.0778   21.2539 O   0  0  0  0  0  0  0  0  0  0  0  0
   48.0037    8.2005   20.3095 O   0  0  0  0  0  0  0  0  0  0  0  0
   47.3582   10.5169   19.7160 O   0  0  0  0  0  0  0  0  0  0  0  0
   48.2936    6.8823   20.7045 C   0  0  0  0  0  0  0  0  0  0  0  0
   48.1566    5.7707   21.5304 C   0  0  0  0  0  0  0  0  0  0  0  0
   47.8644    8.1463   21.1519 C   0  0  0  0  0  0  0  0  0  0  0  0
   47.6055    5.9012   22.7998 C   0  0  0  0  0  0  0  0  0  0  0  0
   47.3240    8.2613   22.4465 C   0  0  0  0  0  0  0  0  0  0  0  0
   46.7847   11.3051   19.1473 N   0  0  0  0  0  0  0  0  0  0  0  0
   47.1884    7.1378   23.2669 C   0  0  0  0  0  0  0  0  0  0  0  0
   46.8784   10.3673   20.2834 C   0  0  0  0  0  0  0  0  0  0  0  0
   48.0596    9.3547   20.2508 C   0  0  1  0  0  0  0  0  0  0  0  0
   48.5645    4.5246   21.1390 O   0  0  0  0  0  0  0  0  0  0  0  0
   47.4777    4.8066   23.6048 O   0  0  0  0  0  0  0  0  0  0  0  0
   49.2824    9.9986   20.6205 O   0  0  0  0  0  0  0  0  0  0  0  0
   47.9024   12.2501   19.0168 C   0  0  0  0  0  0  0  0  0  0  0  0
   47.6703   13.0702   17.7424 C   0  0  0  0  0  0  0  0  0  0  0  0
   48.0243   13.1956   20.2134 C   0  0  0  0  0  0  0  0  0  0  0  0
   47.7006    9.3296   20.2087 O   0  0  0  0  0  0  0  0  0  0  0  0
   47.6971    9.4718   20.1586 O   0  0  0  0  0  0  0  0  0  0  0  0
   48.9212    6.3154   19.8141 H   0  0  0  0  0  0  0  0  0  0  0  0
   46.9020    9.4859   21.9499 H   0  0  0  0  0  0  0  0  0  0  0  0
   46.1126   10.6901   19.3058 H   0  0  0  0  0  0  0  0  0  0  0  0
   46.9672    8.1364   24.0097 H   0  0  0  0  0  0  0  0  0  0  0  0
   48.3938   10.6661   18.5214 H   0  0  0  0  0  0  0  0  0  0  0  0
   48.9128   10.5461   20.2134 H   0  0  0  0  0  0  0  0  0  0  0  0
   48.7065    8.4189   18.7883 H   0  0  0  0  0  0  0  0  0  0  0  0
   49.4963    4.5454   21.0934 H   0  0  0  0  0  0  0  0  0  0  0  0
   48.4867    4.9336   23.9753 H   0  0  0  0  0  0  0  0  0  0  0  0
   46.1154    7.9798   19.3156 H   0  0  0  0  0  0  0  0  0  0  0  0
   45.9805   12.8723   20.2383 H   0  0  0  0  0  0  0  0  0  0  0  0
   46.1669   12.5718   17.7701 H   0  0  0  0  0  0  0  0  0  0  0  0
   46.8629   14.0952   18.3353 H   0  0  0  0  0  0  0  0  0  0  0  0
   47.9272   12.7617   17.8780 H   0  0  0  0  0  0  0  0  0  0  0  0
   48.0147   12.7481   21.6801 H   0  0  0  0  0  0  0  0  0  0  0  0
   49.0381   12.8841   20.2362 H   0  0  0  0  0  0  0  0  0  0  0  0
   47.9535   14.2054   20.6832 H   0  0  0  0  0  0  0  0  0  0  0  0
   48.8802    8.1481   19.8754 H   0  0  0  0  0  0  0  0  0  0  0  0
   46.3806   10.4502   19.7202 H   0  0  0  0  0  0  0  0  0  0  0  0
   48.7329    6.7816   19.7168 H   0  0  0  0  0  0  0  0  0  0  0  0
   47.0038    9.2261   22.8367 H   0  0  0  0  0  0  0  0  0  0  0  0
   46.7084   10.7666   18.2847 H   0  0  0  0  0  0  0  0  0  0  0  0
   46.7679    7.2299   24.2634 H   0  0  0  0  0  0  0  0  0  0  0  0
   45.9363    9.8044   20.2765 H   0  0  0  0  0  0  0  0  0  0  0  0
   46.8846   10.9343   21.2212 H   0  0  0  0  0  0  0  0  0  0  0  0
   48.1779    9.0064   19.2175 H   0  0  0  0  0  0  0  0  0  0  0  0
   48.9970    4.6047   20.2706 H   0  0  0  0  0  0  0  0  0  0  0  0
   47.8223    4.0657   23.0680 H   0  0  0  0  0  0  0  0  0  0  0  0
   49.5603    9.6521   21.4863 H   0  0  0  0  0  0  0  0  0  0  0  0
   48.8450   11.7094   18.8808 H   0  0  0  0  0  0  0  0  0  0  0  0
   48.4815   13.7894   17.5900 H   0  0  0  0  0  0  0  0  0  0  0  0
   47.6357   12.4237   16.8590 H   0  0  0  0  0  0  0  0  0  0  0  0
   46.7296   13.6291   17.7911 H   0  0  0  0  0  0  0  0  0  0  0  0
   48.7936   13.9542   20.0299 H   0  0  0  0  0  0  0  0  0  0  0  0
   47.0806   13.7194   20.4092 H   0  0  0  0  0  0  0  0  0  0  0  0
   48.3138   12.6610   21.1238 H   0  0  0  0  0  0  0  0  0  0  0  0
   47.9019    8.9703   21.0858 H   0  0  0  0  0  0  0  0  0  0  0  0
   47.7927   10.2875   20.3221 H   0  0  0  0  0  0  0  0  0  0  0  0
   47.8298    8.8036   20.8473 H   0  0  0  0  0  0  0  0  0  0  0  0
   47.8683   10.3119   20.6107 H   0  0  0  0  0  0  0  0  0  0  0  0
  2  1  2  0
  3  1  1  0
  4  2  1  0
  5  3  2  0
  6  8  1  0
  7  5  1  0
  8  9  1  0
  9  3  1  0
 10  2  1  0
 11  4  1  0
 12  9  1  0
 13  6  1  0
 14 13  1  0
 15 13  1  0
  7  4  2  0
 17 16  2  0
 18 16  2  0
 19 16  1  0
 20 16  1  0
 22 21  2  0
 23 21  1  0
 24 22  1  0
 25 23  2  0
 26 28  1  0
 27 25  1  0
 28 29  1  0
 29 23  1  0
 30 22  1  0
 31 24  1  0
 32 29  1  0
 33 26  1  0
 34 33  1  0
 35 33  1  0
 27 24  2  0
  1 38  1  0
  5 39  1  0
  6 40  1  0
  7 41  1  0
  8 42  1  0
  8 43  1  0
  9 44  1  1
 10 45  1  0
 11 46  1  0
 12 47  1  0
 13 48  1  0
 14 49  1  0
 14 50  1  0
 14 51  1  0
 15 52  1  0
 15 53  1  0
 15 54  1  0
 19 55  1  0
 20 56  1  0
 21 57  1  0
 25 58  1  0
 26 59  1  0
 27 60  1  0
 28 61  1  0
 28 62  1  0
 29 63  1  1
 30 64  1  0
 31 65  1  0
 32 66  1  0
 33 67  1  0
 34 68  1  0
 34 69  1  0
 34 70  1  0
 35 71  1  0
 35 72  1  0
 35 73  1  0
 36 74  1  0
 36 75  1  0
 37 76  1  0
 37 77  1  0
M  END
> <Uni-Dock RESULT> 
ENERGY=   -5.358  LOWER_BOUND=   11.705  UPPER_BOUND=   13.514
INTER + INTRA:          -5.358
INTER:                  -5.358
INTRA:                   0.000
UNBOUND:                 0.000

$$$$
