
     RDKit          3D

 77 74  0  0  0  0  0  0  0  0999 V2000
   48.4551    8.1932   12.0183 C   0  0  0  0  0  0  0  0  0  0  0  0
   49.7608    8.6222   12.2331 C   0  0  0  0  0  0  0  0  0  0  0  0
   47.5452    8.1588   13.0919 C   0  0  0  0  0  0  0  0  0  0  0  0
   50.1738    9.0148   13.5025 C   0  0  0  0  0  0  0  0  0  0  0  0
   47.9800    8.5574   14.3687 C   0  0  0  0  0  0  0  0  0  0  0  0
   44.5977    5.7788   12.4963 N   0  0  0  0  0  0  0  0  0  0  0  0
   49.2935    8.9882   14.5735 C   0  0  0  0  0  0  0  0  0  0  0  0
   46.0122    6.1907   12.5656 C   0  0  0  0  0  0  0  0  0  0  0  0
   46.1172    7.7004   12.8874 C   0  0  2  0  0  0  0  0  0  0  0  0
   50.6776    8.6769   11.2208 O   0  0  0  0  0  0  0  0  0  0  0  0
   51.4569    9.4371   13.7044 O   0  0  0  0  0  0  0  0  0  0  0  0
   45.5476    8.4545   11.8067 O   0  0  0  0  0  0  0  0  0  0  0  0
   44.4066    4.4547   11.8929 C   0  0  0  0  0  0  0  0  0  0  0  0
   45.0173    3.3330   12.7364 C   0  0  0  0  0  0  0  0  0  0  0  0
   42.9032    4.2185   11.7329 C   0  0  0  0  0  0  0  0  0  0  0  0
   46.9525    6.4839   12.1837 S   0  0  0  0  0  0  0  0  0  0  0  0
   47.0975    6.8800   10.8057 O   0  0  0  0  0  0  0  0  0  0  0  0
   47.5400    5.2923   12.7413 O   0  0  0  0  0  0  0  0  0  0  0  0
   45.3860    6.4114   12.5215 O   0  0  0  0  0  0  0  0  0  0  0  0
   47.4049    7.7413   13.0716 O   0  0  0  0  0  0  0  0  0  0  0  0
   47.6182    8.7070   12.5619 C   0  0  0  0  0  0  0  0  0  0  0  0
   48.6140    9.5685   12.1186 C   0  0  0  0  0  0  0  0  0  0  0  0
   47.9617    7.5372   13.2639 C   0  0  0  0  0  0  0  0  0  0  0  0
   49.9568    9.2746   12.3384 C   0  0  0  0  0  0  0  0  0  0  0  0
   49.3237    7.2747   13.5090 C   0  0  0  0  0  0  0  0  0  0  0  0
   45.2176    4.8615   13.0767 N   0  0  0  0  0  0  0  0  0  0  0  0
   50.3202    8.1407   13.0472 C   0  0  0  0  0  0  0  0  0  0  0  0
   46.0508    5.9835   12.5909 C   0  0  0  0  0  0  0  0  0  0  0  0
   46.8666    6.6097   13.7553 C   0  0  1  0  0  0  0  0  0  0  0  0
   48.2512   10.7285   11.4967 O   0  0  0  0  0  0  0  0  0  0  0  0
   50.9350   10.0835   11.8361 O   0  0  0  0  0  0  0  0  0  0  0  0
   47.3987    5.5538   14.5687 O   0  0  0  0  0  0  0  0  0  0  0  0
   44.1109    4.4853   12.1827 C   0  0  0  0  0  0  0  0  0  0  0  0
   42.9992    5.5392   12.1759 C   0  0  0  0  0  0  0  0  0  0  0  0
   44.5636    4.1401   10.7627 C   0  0  0  0  0  0  0  0  0  0  0  0
   46.9085    6.3985   12.4339 O   0  0  0  0  0  0  0  0  0  0  0  0
   46.9474    6.4284   12.4418 O   0  0  0  0  0  0  0  0  0  0  0  0
   48.1257    7.8912   11.0269 H   0  0  0  0  0  0  0  0  0  0  0  0
   47.2978    8.5356   15.2165 H   0  0  0  0  0  0  0  0  0  0  0  0
   44.1138    6.4808   11.9263 H   0  0  0  0  0  0  0  0  0  0  0  0
   49.6291    9.2970   15.5594 H   0  0  0  0  0  0  0  0  0  0  0  0
   46.4906    5.9961   11.5971 H   0  0  0  0  0  0  0  0  0  0  0  0
   46.5351    5.6154   13.3386 H   0  0  0  0  0  0  0  0  0  0  0  0
   45.5194    7.9265   13.7777 H   0  0  0  0  0  0  0  0  0  0  0  0
   50.2358    8.3999   10.3997 H   0  0  0  0  0  0  0  0  0  0  0  0
   51.8834    9.3437   12.8284 H   0  0  0  0  0  0  0  0  0  0  0  0
   45.6415    9.3896   12.0587 H   0  0  0  0  0  0  0  0  0  0  0  0
   44.8559    4.4340   10.8921 H   0  0  0  0  0  0  0  0  0  0  0  0
   44.6379    3.3555   13.7653 H   0  0  0  0  0  0  0  0  0  0  0  0
   46.1094    3.4063   12.7720 H   0  0  0  0  0  0  0  0  0  0  0  0
   44.7744    2.3534   12.3079 H   0  0  0  0  0  0  0  0  0  0  0  0
   42.4430    5.0043   11.1211 H   0  0  0  0  0  0  0  0  0  0  0  0
   42.7146    3.2606   11.2352 H   0  0  0  0  0  0  0  0  0  0  0  0
   42.3943    4.2010   12.7042 H   0  0  0  0  0  0  0  0  0  0  0  0
   45.2754    5.7315   13.2193 H   0  0  0  0  0  0  0  0  0  0  0  0
   47.1371    8.5479   12.5883 H   0  0  0  0  0  0  0  0  0  0  0  0
   46.5772    8.9600   12.3721 H   0  0  0  0  0  0  0  0  0  0  0  0
   49.6193    6.3843   14.0634 H   0  0  0  0  0  0  0  0  0  0  0  0
   45.8339    4.0484   13.1593 H   0  0  0  0  0  0  0  0  0  0  0  0
   51.3676    7.9190   13.2316 H   0  0  0  0  0  0  0  0  0  0  0  0
   46.7345    5.6021   11.8208 H   0  0  0  0  0  0  0  0  0  0  0  0
   45.4446    6.7703   12.1270 H   0  0  0  0  0  0  0  0  0  0  0  0
   46.1981    7.1885   14.4050 H   0  0  0  0  0  0  0  0  0  0  0  0
   48.9037   11.3956   11.7787 H   0  0  0  0  0  0  0  0  0  0  0  0
   50.6297   10.3544   10.9508 H   0  0  0  0  0  0  0  0  0  0  0  0
   46.6094    5.0304   14.8032 H   0  0  0  0  0  0  0  0  0  0  0  0
   43.6747    3.5742   12.6138 H   0  0  0  0  0  0  0  0  0  0  0  0
   43.2991    6.4536   11.6536 H   0  0  0  0  0  0  0  0  0  0  0  0
   42.1101    5.1470   11.6688 H   0  0  0  0  0  0  0  0  0  0  0  0
   42.7025    5.8081   13.1964 H   0  0  0  0  0  0  0  0  0  0  0  0
   43.7350    3.7084   10.1914 H   0  0  0  0  0  0  0  0  0  0  0  0
   45.3724    3.4035   10.7742 H   0  0  0  0  0  0  0  0  0  0  0  0
   44.9131    5.0250   10.2201 H   0  0  0  0  0  0  0  0  0  0  0  0
   47.1984    7.3126   12.5737 H   0  0  0  0  0  0  0  0  0  0  0  0
   45.9473    6.4696   12.3344 H   0  0  0  0  0  0  0  0  0  0  0  0
   47.1207    7.3729   12.5721 H   0  0  0  0  0  0  0  0  0  0  0  0
   45.9862    6.3794   12.3281 H   0  0  0  0  0  0  0  0  0  0  0  0
  2  1  2  0
  3  1  1  0
  4  2  1  0
  5  3  2  0
  6  8  1  0
  7  5  1  0
  8  9  1  0
  9  3  1  0
 10  2  1  0
 11  4  1  0
 12  9  1  0
 13  6  1  0
 14 13  1  0
 15 13  1  0
  7  4  2  0
 17 16  2  0
 18 16  2  0
 19 16  1  0
 20 16  1  0
 22 21  2  0
 23 21  1  0
 24 22  1  0
 25 23  2  0
 26 28  1  0
 27 25  1  0
 28 29  1  0
 29 23  1  0
 30 22  1  0
 31 24  1  0
 32 29  1  0
 33 26  1  0
 34 33  1  0
 35 33  1  0
 27 24  2  0
  1 38  1  0
  5 39  1  0
  6 40  1  0
  7 41  1  0
  8 42  1  0
  8 43  1  0
  9 44  1  6
 10 45  1  0
 11 46  1  0
 12 47  1  0
 13 48  1  0
 14 49  1  0
 14 50  1  0
 14 51  1  0
 15 52  1  0
 15 53  1  0
 15 54  1  0
 19 55  1  0
 20 56  1  0
 21 57  1  0
 25 58  1  0
 26 59  1  0
 27 60  1  0
 28 61  1  0
 28 62  1  0
 29 63  1  6
 30 64  1  0
 31 65  1  0
 32 66  1  0
 33 67  1  0
 34 68  1  0
 34 69  1  0
 34 70  1  0
 35 71  1  0
 35 72  1  0
 35 73  1  0
 36 74  1  0
 36 75  1  0
 37 76  1  0
 37 77  1  0
M  END
> <Uni-Dock RESULT> 
ENERGY=   -5.190  LOWER_BOUND=    0.000  UPPER_BOUND=    0.000
INTER + INTRA:          -5.190
INTER:                  -5.190
INTRA:                   0.000
UNBOUND:                 0.000

$$$$

     RDKit          3D

 77 74  0  0  0  0  0  0  0  0999 V2000
   48.5705   10.8614   19.4388 C   0  0  0  0  0  0  0  0  0  0  0  0
   48.6144   12.1911   19.8449 C   0  0  0  0  0  0  0  0  0  0  0  0
   47.3562   10.1518   19.4992 C   0  0  0  0  0  0  0  0  0  0  0  0
   47.4665   12.8233   20.3129 C   0  0  0  0  0  0  0  0  0  0  0  0
   46.2061   10.8057   19.9767 C   0  0  0  0  0  0  0  0  0  0  0  0
   47.8342    6.3480   19.5966 N   0  0  0  0  0  0  0  0  0  0  0  0
   46.2605   12.1423   20.3808 C   0  0  0  0  0  0  0  0  0  0  0  0
   48.0457    7.7496   20.0039 C   0  0  0  0  0  0  0  0  0  0  0  0
   47.2773    8.7053   19.0605 C   0  0  2  0  0  0  0  0  0  0  0  0
   49.7690   12.9212   19.7997 O   0  0  0  0  0  0  0  0  0  0  0  0
   47.5176   14.1298   20.7075 O   0  0  0  0  0  0  0  0  0  0  0  0
   47.8223    8.6011   17.7363 O   0  0  0  0  0  0  0  0  0  0  0  0
   48.7665    5.4104   20.2334 C   0  0  0  0  0  0  0  0  0  0  0  0
   48.5703    5.3280   21.7491 C   0  0  0  0  0  0  0  0  0  0  0  0
   48.5506    4.0295   19.6104 C   0  0  0  0  0  0  0  0  0  0  0  0
   48.5627    8.6686   20.0700 S   0  0  0  0  0  0  0  0  0  0  0  0
   49.7034    8.9349   19.2307 O   0  0  0  0  0  0  0  0  0  0  0  0
   48.6389    8.5117   21.5003 O   0  0  0  0  0  0  0  0  0  0  0  0
   47.8276    7.3557   19.5140 O   0  0  0  0  0  0  0  0  0  0  0  0
   47.4747    9.7996   19.7366 O   0  0  0  0  0  0  0  0  0  0  0  0
   47.6658   10.4916   18.8866 C   0  0  0  0  0  0  0  0  0  0  0  0
   48.0614   11.7733   18.5244 C   0  0  0  0  0  0  0  0  0  0  0  0
   47.5344   10.1541   20.2459 C   0  0  0  0  0  0  0  0  0  0  0  0
   48.3564   12.7263   19.4954 C   0  0  0  0  0  0  0  0  0  0  0  0
   47.8018   11.1419   21.2138 C   0  0  0  0  0  0  0  0  0  0  0  0
   47.8067    6.3738   20.8461 N   0  0  0  0  0  0  0  0  0  0  0  0
   48.2126   12.4257   20.8404 C   0  0  0  0  0  0  0  0  0  0  0  0
   48.1045    7.6660   20.1899 C   0  0  0  0  0  0  0  0  0  0  0  0
   47.0892    8.7560   20.6310 C   0  0  1  0  0  0  0  0  0  0  0  0
   48.1188   12.0939   17.1986 O   0  0  0  0  0  0  0  0  0  0  0  0
   48.8174   13.9606   19.1381 O   0  0  0  0  0  0  0  0  0  0  0  0
   46.8746    8.6443   22.0455 O   0  0  0  0  0  0  0  0  0  0  0  0
   48.4106    5.2001   20.1953 C   0  0  0  0  0  0  0  0  0  0  0  0
   47.7352    4.8779   18.8587 C   0  0  0  0  0  0  0  0  0  0  0  0
   49.9299    5.2996   20.0451 C   0  0  0  0  0  0  0  0  0  0  0  0
   48.3549    8.5981   20.2241 O   0  0  0  0  0  0  0  0  0  0  0  0
   48.3491    8.6474   20.2239 O   0  0  0  0  0  0  0  0  0  0  0  0
   49.4633   10.3646   19.0664 H   0  0  0  0  0  0  0  0  0  0  0  0
   45.2560   10.2783   20.0380 H   0  0  0  0  0  0  0  0  0  0  0  0
   47.9650    6.3134   18.5800 H   0  0  0  0  0  0  0  0  0  0  0  0
   45.3721   12.6477   20.7486 H   0  0  0  0  0  0  0  0  0  0  0  0
   49.1176    7.9803   19.9529 H   0  0  0  0  0  0  0  0  0  0  0  0
   47.7019    7.8991   21.0341 H   0  0  0  0  0  0  0  0  0  0  0  0
   46.2299    8.3897   18.9949 H   0  0  0  0  0  0  0  0  0  0  0  0
   50.4682   12.3553   19.4295 H   0  0  0  0  0  0  0  0  0  0  0  0
   48.4573   14.3800   20.5962 H   0  0  0  0  0  0  0  0  0  0  0  0
   47.3075    9.2197   17.1893 H   0  0  0  0  0  0  0  0  0  0  0  0
   49.7999    5.7134   20.0231 H   0  0  0  0  0  0  0  0  0  0  0  0
   47.5315    5.0852   22.0045 H   0  0  0  0  0  0  0  0  0  0  0  0
   48.8325    6.2712   22.2400 H   0  0  0  0  0  0  0  0  0  0  0  0
   49.2143    4.5516   22.1790 H   0  0  0  0  0  0  0  0  0  0  0  0
   48.6973    4.0594   18.5236 H   0  0  0  0  0  0  0  0  0  0  0  0
   49.2651    3.3063   20.0195 H   0  0  0  0  0  0  0  0  0  0  0  0
   47.5391    3.6542   19.8075 H   0  0  0  0  0  0  0  0  0  0  0  0
   47.4015    6.9199   20.2820 H   0  0  0  0  0  0  0  0  0  0  0  0
   47.5556   10.0070   18.7845 H   0  0  0  0  0  0  0  0  0  0  0  0
   47.4459    9.7660   18.1063 H   0  0  0  0  0  0  0  0  0  0  0  0
   47.6938   10.9143   22.2740 H   0  0  0  0  0  0  0  0  0  0  0  0
   48.1882    6.4277   21.7943 H   0  0  0  0  0  0  0  0  0  0  0  0
   48.4286   13.1740   21.5978 H   0  0  0  0  0  0  0  0  0  0  0  0
   49.1222    7.9716   20.4674 H   0  0  0  0  0  0  0  0  0  0  0  0
   48.0760    7.5844   19.0970 H   0  0  0  0  0  0  0  0  0  0  0  0
   46.1169    8.5675   20.1586 H   0  0  0  0  0  0  0  0  0  0  0  0
   47.8313   13.0234   17.1380 H   0  0  0  0  0  0  0  0  0  0  0  0
   49.4284   13.8125   18.3930 H   0  0  0  0  0  0  0  0  0  0  0  0
   46.6116    7.7117   22.1606 H   0  0  0  0  0  0  0  0  0  0  0  0
   48.2062    4.3509   20.8611 H   0  0  0  0  0  0  0  0  0  0  0  0
   47.9801    5.6116   18.0838 H   0  0  0  0  0  0  0  0  0  0  0  0
   48.0618    3.8960   18.4974 H   0  0  0  0  0  0  0  0  0  0  0  0
   46.6446    4.8417   18.9650 H   0  0  0  0  0  0  0  0  0  0  0  0
   50.3451    4.3417   19.7145 H   0  0  0  0  0  0  0  0  0  0  0  0
   50.4052    5.5513   20.9978 H   0  0  0  0  0  0  0  0  0  0  0  0
   50.2175    6.0564   19.3075 H   0  0  0  0  0  0  0  0  0  0  0  0
   48.0049    9.3602   19.7383 H   0  0  0  0  0  0  0  0  0  0  0  0
   48.1392    7.8406   19.6596 H   0  0  0  0  0  0  0  0  0  0  0  0
   47.9633    9.3300   19.6545 H   0  0  0  0  0  0  0  0  0  0  0  0
   48.1867    7.8214   19.7437 H   0  0  0  0  0  0  0  0  0  0  0  0
  2  1  2  0
  3  1  1  0
  4  2  1  0
  5  3  2  0
  6  8  1  0
  7  5  1  0
  8  9  1  0
  9  3  1  0
 10  2  1  0
 11  4  1  0
 12  9  1  0
 13  6  1  0
 14 13  1  0
 15 13  1  0
  7  4  2  0
 17 16  2  0
 18 16  2  0
 19 16  1  0
 20 16  1  0
 22 21  2  0
 23 21  1  0
 24 22  1  0
 25 23  2  0
 26 28  1  0
 27 25  1  0
 28 29  1  0
 29 23  1  0
 30 22  1  0
 31 24  1  0
 32 29  1  0
 33 26  1  0
 34 33  1  0
 35 33  1  0
 27 24  2  0
  1 38  1  0
  5 39  1  0
  6 40  1  0
  7 41  1  0
  8 42  1  0
  8 43  1  0
  9 44  1  6
 10 45  1  0
 11 46  1  0
 12 47  1  0
 13 48  1  0
 14 49  1  0
 14 50  1  0
 14 51  1  0
 15 52  1  0
 15 53  1  0
 15 54  1  0
 19 55  1  0
 20 56  1  0
 21 57  1  0
 25 58  1  0
 26 59  1  0
 27 60  1  0
 28 61  1  0
 28 62  1  0
 29 63  1  6
 30 64  1  0
 31 65  1  0
 32 66  1  0
 33 67  1  0
 34 68  1  0
 34 69  1  0
 34 70  1  0
 35 71  1  0
 35 72  1  0
 35 73  1  0
 36 74  1  0
 36 75  1  0
 37 76  1  0
 37 77  1  0
M  END
> <Uni-Dock RESULT> 
ENERGY=   -4.780  LOWER_BOUND=    6.641  UPPER_BOUND=    8.188
INTER + INTRA:          -4.780
INTER:                  -4.780
INTRA:                   0.000
UNBOUND:                 0.000

$$$$

     RDKit          3D

 77 74  0  0  0  0  0  0  0  0999 V2000
   44.6266    6.8488   12.5336 C   0  0  0  0  0  0  0  0  0  0  0  0
   43.7547    5.7676   12.4574 C   0  0  0  0  0  0  0  0  0  0  0  0
   45.7305    6.9193   11.6629 C   0  0  0  0  0  0  0  0  0  0  0  0
   43.9683    4.7542   11.5282 C   0  0  0  0  0  0  0  0  0  0  0  0
   45.9323    5.8853   10.7310 C   0  0  0  0  0  0  0  0  0  0  0  0
   48.5360    9.1874   12.9633 N   0  0  0  0  0  0  0  0  0  0  0  0
   45.0496    4.8042   10.6616 C   0  0  0  0  0  0  0  0  0  0  0  0
   47.5365    8.1043   13.0174 C   0  0  0  0  0  0  0  0  0  0  0  0
   46.6936    8.0855   11.7200 C   0  0  2  0  0  0  0  0  0  0  0  0
   42.6675    5.6587   13.2786 O   0  0  0  0  0  0  0  0  0  0  0  0
   43.1061    3.6972   11.4583 O   0  0  0  0  0  0  0  0  0  0  0  0
   45.9392    9.3036   11.6292 O   0  0  0  0  0  0  0  0  0  0  0  0
   49.1551    9.4727   14.2631 C   0  0  0  0  0  0  0  0  0  0  0  0
   49.9918    8.3014   14.7831 C   0  0  0  0  0  0  0  0  0  0  0  0
   50.0425   10.7093   14.1050 C   0  0  0  0  0  0  0  0  0  0  0  0
   46.6270    7.6422   13.2922 S   0  0  0  0  0  0  0  0  0  0  0  0
   45.5471    8.4151   13.8518 O   0  0  0  0  0  0  0  0  0  0  0  0
   47.3658    6.6474   14.0275 O   0  0  0  0  0  0  0  0  0  0  0  0
   47.7154    8.6599   12.6979 O   0  0  0  0  0  0  0  0  0  0  0  0
   46.0618    6.9710   11.9490 O   0  0  0  0  0  0  0  0  0  0  0  0
   45.0539    7.2699   11.5849 C   0  0  0  0  0  0  0  0  0  0  0  0
   43.7194    6.8968   11.4841 C   0  0  0  0  0  0  0  0  0  0  0  0
   45.9909    6.3846   12.1484 C   0  0  0  0  0  0  0  0  0  0  0  0
   43.2897    5.6612   11.9599 C   0  0  0  0  0  0  0  0  0  0  0  0
   45.5444    5.1241   12.5911 C   0  0  0  0  0  0  0  0  0  0  0  0
   49.0949    8.1999   13.4879 N   0  0  0  0  0  0  0  0  0  0  0  0
   44.1966    4.7623   12.4980 C   0  0  0  0  0  0  0  0  0  0  0  0
   47.6608    8.0239   13.1694 C   0  0  0  0  0  0  0  0  0  0  0  0
   47.4480    6.7959   12.2419 C   0  0  1  0  0  0  0  0  0  0  0  0
   42.8428    7.7480   10.8750 O   0  0  0  0  0  0  0  0  0  0  0  0
   41.9661    5.3282   11.9286 O   0  0  0  0  0  0  0  0  0  0  0  0
   48.2696    5.7154   12.7077 O   0  0  0  0  0  0  0  0  0  0  0  0
   49.4551    9.5378   13.9836 C   0  0  0  0  0  0  0  0  0  0  0  0
   49.3906   10.5936   12.8755 C   0  0  0  0  0  0  0  0  0  0  0  0
   48.6551    9.9686   15.2144 C   0  0  0  0  0  0  0  0  0  0  0  0
   46.8414    7.5135   13.1957 O   0  0  0  0  0  0  0  0  0  0  0  0
   46.8054    7.4833   13.1797 O   0  0  0  0  0  0  0  0  0  0  0  0
   44.4606    7.6465   13.2539 H   0  0  0  0  0  0  0  0  0  0  0  0
   46.7807    5.9133   10.0498 H   0  0  0  0  0  0  0  0  0  0  0  0
   48.0453   10.0254   12.6337 H   0  0  0  0  0  0  0  0  0  0  0  0
   45.2049    4.0061    9.9412 H   0  0  0  0  0  0  0  0  0  0  0  0
   46.8718    8.2718   13.8747 H   0  0  0  0  0  0  0  0  0  0  0  0
   48.0356    7.1362   13.1425 H   0  0  0  0  0  0  0  0  0  0  0  0
   47.3612    8.0638   10.8511 H   0  0  0  0  0  0  0  0  0  0  0  0
   42.6398    6.4476   13.8470 H   0  0  0  0  0  0  0  0  0  0  0  0
   42.4559    3.8675   12.1697 H   0  0  0  0  0  0  0  0  0  0  0  0
   45.4300    9.2379   10.8026 H   0  0  0  0  0  0  0  0  0  0  0  0
   48.3782    9.7116   15.0003 H   0  0  0  0  0  0  0  0  0  0  0  0
   50.7445    7.9911   14.0479 H   0  0  0  0  0  0  0  0  0  0  0  0
   49.3660    7.4344   15.0197 H   0  0  0  0  0  0  0  0  0  0  0  0
   50.5152    8.5816   15.7049 H   0  0  0  0  0  0  0  0  0  0  0  0
   49.4626   11.5678   13.7438 H   0  0  0  0  0  0  0  0  0  0  0  0
   50.4846   10.9917   15.0670 H   0  0  0  0  0  0  0  0  0  0  0  0
   50.8603   10.5283   13.3970 H   0  0  0  0  0  0  0  0  0  0  0  0
   48.5874    8.2167   12.7649 H   0  0  0  0  0  0  0  0  0  0  0  0
   45.4332    7.6054   11.5512 H   0  0  0  0  0  0  0  0  0  0  0  0
   45.3605    8.2436   11.2085 H   0  0  0  0  0  0  0  0  0  0  0  0
   46.2498    4.4115   13.0179 H   0  0  0  0  0  0  0  0  0  0  0  0
   49.3190    7.5290   14.2278 H   0  0  0  0  0  0  0  0  0  0  0  0
   43.8636    3.7921   12.8559 H   0  0  0  0  0  0  0  0  0  0  0  0
   47.1102    7.8804   14.1088 H   0  0  0  0  0  0  0  0  0  0  0  0
   47.2407    8.9093   12.6781 H   0  0  0  0  0  0  0  0  0  0  0  0
   47.7993    7.0326   11.2297 H   0  0  0  0  0  0  0  0  0  0  0  0
   42.2140    7.1803   10.3926 H   0  0  0  0  0  0  0  0  0  0  0  0
   41.4803    6.1406   12.1616 H   0  0  0  0  0  0  0  0  0  0  0  0
   49.1626    6.1076   12.7367 H   0  0  0  0  0  0  0  0  0  0  0  0
   50.5078    9.4701   14.2894 H   0  0  0  0  0  0  0  0  0  0  0  0
   48.3610   10.8232   12.5822 H   0  0  0  0  0  0  0  0  0  0  0  0
   49.8519   11.5276   13.2164 H   0  0  0  0  0  0  0  0  0  0  0  0
   49.9367   10.2649   11.9835 H   0  0  0  0  0  0  0  0  0  0  0  0
   49.0734   10.8867   15.6405 H   0  0  0  0  0  0  0  0  0  0  0  0
   48.6864    9.2017   15.9940 H   0  0  0  0  0  0  0  0  0  0  0  0
   47.6060   10.1664   14.9696 H   0  0  0  0  0  0  0  0  0  0  0  0
   46.1772    7.3570   12.5076 H   0  0  0  0  0  0  0  0  0  0  0  0
   47.2690    8.3400   12.9257 H   0  0  0  0  0  0  0  0  0  0  0  0
   46.1806    7.4293   12.4409 H   0  0  0  0  0  0  0  0  0  0  0  0
   47.3017    8.2980   13.0085 H   0  0  0  0  0  0  0  0  0  0  0  0
  2  1  2  0
  3  1  1  0
  4  2  1  0
  5  3  2  0
  6  8  1  0
  7  5  1  0
  8  9  1  0
  9  3  1  0
 10  2  1  0
 11  4  1  0
 12  9  1  0
 13  6  1  0
 14 13  1  0
 15 13  1  0
  7  4  2  0
 17 16  2  0
 18 16  2  0
 19 16  1  0
 20 16  1  0
 22 21  2  0
 23 21  1  0
 24 22  1  0
 25 23  2  0
 26 28  1  0
 27 25  1  0
 28 29  1  0
 29 23  1  0
 30 22  1  0
 31 24  1  0
 32 29  1  0
 33 26  1  0
 34 33  1  0
 35 33  1  0
 27 24  2  0
  1 38  1  0
  5 39  1  0
  6 40  1  0
  7 41  1  0
  8 42  1  0
  8 43  1  0
  9 44  1  6
 10 45  1  0
 11 46  1  0
 12 47  1  0
 13 48  1  0
 14 49  1  0
 14 50  1  0
 14 51  1  0
 15 52  1  0
 15 53  1  0
 15 54  1  0
 19 55  1  0
 20 56  1  0
 21 57  1  0
 25 58  1  0
 26 59  1  0
 27 60  1  0
 28 61  1  0
 28 62  1  0
 29 63  1  6
 30 64  1  0
 31 65  1  0
 32 66  1  0
 33 67  1  0
 34 68  1  0
 34 69  1  0
 34 70  1  0
 35 71  1  0
 35 72  1  0
 35 73  1  0
 36 74  1  0
 36 75  1  0
 37 76  1  0
 37 77  1  0
M  END
> <Uni-Dock RESULT> 
ENERGY=   -4.653  LOWER_BOUND=    1.966  UPPER_BOUND=    5.742
INTER + INTRA:          -4.653
INTER:                  -4.653
INTRA:                   0.000
UNBOUND:                 0.000

$$$$

     RDKit          3D

 77 74  0  0  0  0  0  0  0  0999 V2000
   45.7026    5.2659   11.6749 C   0  0  0  0  0  0  0  0  0  0  0  0
   44.8059    4.3707   11.1008 C   0  0  0  0  0  0  0  0  0  0  0  0
   45.3001    6.0523   12.7710 C   0  0  0  0  0  0  0  0  0  0  0  0
   43.5132    4.2496   11.6012 C   0  0  0  0  0  0  0  0  0  0  0  0
   43.9892    5.9184   13.2628 C   0  0  0  0  0  0  0  0  0  0  0  0
   47.4305    9.2082   13.2273 N   0  0  0  0  0  0  0  0  0  0  0  0
   43.0966    5.0150   12.6798 C   0  0  0  0  0  0  0  0  0  0  0  0
   46.5964    8.2313   12.5027 C   0  0  0  0  0  0  0  0  0  0  0  0
   46.2552    7.0318   13.4185 C   0  0  2  0  0  0  0  0  0  0  0  0
   45.1531    3.5835   10.0387 O   0  0  0  0  0  0  0  0  0  0  0  0
   42.6397    3.3665   11.0333 O   0  0  0  0  0  0  0  0  0  0  0  0
   47.4645    6.3344   13.7536 O   0  0  0  0  0  0  0  0  0  0  0  0
   48.0529   10.2060   12.3493 C   0  0  0  0  0  0  0  0  0  0  0  0
   47.0234   11.1150   11.6735 C   0  0  0  0  0  0  0  0  0  0  0  0
   49.0098   11.0504   13.1937 C   0  0  0  0  0  0  0  0  0  0  0  0
   46.4004    7.4322   11.8401 S   0  0  0  0  0  0  0  0  0  0  0  0
   47.4721    6.6066   11.3434 O   0  0  0  0  0  0  0  0  0  0  0  0
   45.6238    8.3207   11.0134 O   0  0  0  0  0  0  0  0  0  0  0  0
   46.9731    8.3256   13.0430 O   0  0  0  0  0  0  0  0  0  0  0  0
   45.3977    6.4571   12.6261 O   0  0  0  0  0  0  0  0  0  0  0  0
   45.6991    5.3987   12.7895 C   0  0  0  0  0  0  0  0  0  0  0  0
   45.5189    4.0837   12.3788 C   0  0  0  0  0  0  0  0  0  0  0  0
   44.9346    6.4275   12.2097 C   0  0  0  0  0  0  0  0  0  0  0  0
   44.6045    3.7719   11.3765 C   0  0  0  0  0  0  0  0  0  0  0  0
   43.9882    6.0887   11.2230 C   0  0  0  0  0  0  0  0  0  0  0  0
   46.6145    9.8615   12.5417 N   0  0  0  0  0  0  0  0  0  0  0  0
   43.8231    4.7639   10.8060 C   0  0  0  0  0  0  0  0  0  0  0  0
   46.5561    8.3930   12.3712 C   0  0  0  0  0  0  0  0  0  0  0  0
   45.1293    7.8583   12.6744 C   0  0  1  0  0  0  0  0  0  0  0  0
   46.2270    3.0970   13.0024 O   0  0  0  0  0  0  0  0  0  0  0  0
   44.4838    2.4903   10.9221 O   0  0  0  0  0  0  0  0  0  0  0  0
   44.1674    8.7399   12.0768 O   0  0  0  0  0  0  0  0  0  0  0  0
   47.9712   10.4084   12.7024 C   0  0  0  0  0  0  0  0  0  0  0  0
   48.5738   10.0495   14.0643 C   0  0  0  0  0  0  0  0  0  0  0  0
   48.9171   10.0410   11.5575 C   0  0  0  0  0  0  0  0  0  0  0  0
   46.2156    7.6015   11.9350 O   0  0  0  0  0  0  0  0  0  0  0  0
   46.1875    7.5611   11.9282 O   0  0  0  0  0  0  0  0  0  0  0  0
   46.7159    5.3599   11.2915 H   0  0  0  0  0  0  0  0  0  0  0  0
   43.6515    6.5180   14.1060 H   0  0  0  0  0  0  0  0  0  0  0  0
   48.1655    8.6735   13.7023 H   0  0  0  0  0  0  0  0  0  0  0  0
   42.0845    4.9108   13.0602 H   0  0  0  0  0  0  0  0  0  0  0  0
   47.1486    7.8680   11.6264 H   0  0  0  0  0  0  0  0  0  0  0  0
   45.6688    8.7063   12.1623 H   0  0  0  0  0  0  0  0  0  0  0  0
   45.8335    7.4000   14.3606 H   0  0  0  0  0  0  0  0  0  0  0  0
   46.0848    3.7622    9.8240 H   0  0  0  0  0  0  0  0  0  0  0  0
   43.1417    2.9724   10.2913 H   0  0  0  0  0  0  0  0  0  0  0  0
   47.1932    5.5945   14.3244 H   0  0  0  0  0  0  0  0  0  0  0  0
   48.6464    9.7021   11.5761 H   0  0  0  0  0  0  0  0  0  0  0  0
   46.3682   11.5937   12.4115 H   0  0  0  0  0  0  0  0  0  0  0  0
   46.3968   10.5579   10.9690 H   0  0  0  0  0  0  0  0  0  0  0  0
   47.5243   11.9059   11.1028 H   0  0  0  0  0  0  0  0  0  0  0  0
   49.7661   10.4221   13.6803 H   0  0  0  0  0  0  0  0  0  0  0  0
   49.5388   11.7765   12.5662 H   0  0  0  0  0  0  0  0  0  0  0  0
   48.4739   11.6045   13.9738 H   0  0  0  0  0  0  0  0  0  0  0  0
   46.4553    9.1581   13.0522 H   0  0  0  0  0  0  0  0  0  0  0  0
   45.9411    5.7623   13.0477 H   0  0  0  0  0  0  0  0  0  0  0  0
   46.4240    5.6135   13.5719 H   0  0  0  0  0  0  0  0  0  0  0  0
   43.3708    6.8622   10.7669 H   0  0  0  0  0  0  0  0  0  0  0  0
   46.2166   10.2746   11.6940 H   0  0  0  0  0  0  0  0  0  0  0  0
   43.0990    4.5185   10.0342 H   0  0  0  0  0  0  0  0  0  0  0  0
   46.8318    8.1510   11.3360 H   0  0  0  0  0  0  0  0  0  0  0  0
   47.2683    7.8778   13.0264 H   0  0  0  0  0  0  0  0  0  0  0  0
   44.9445    7.8921   13.7554 H   0  0  0  0  0  0  0  0  0  0  0  0
   45.6283    2.3290   13.0470 H   0  0  0  0  0  0  0  0  0  0  0  0
   45.3896    2.1315   10.8900 H   0  0  0  0  0  0  0  0  0  0  0  0
   44.4067    9.6136   12.4393 H   0  0  0  0  0  0  0  0  0  0  0  0
   47.8567   11.5007   12.6897 H   0  0  0  0  0  0  0  0  0  0  0  0
   48.8390    8.9895   14.1331 H   0  0  0  0  0  0  0  0  0  0  0  0
   49.4876   10.6295   14.2377 H   0  0  0  0  0  0  0  0  0  0  0  0
   47.8781   10.2831   14.8788 H   0  0  0  0  0  0  0  0  0  0  0  0
   49.8522   10.6055   11.6377 H   0  0  0  0  0  0  0  0  0  0  0  0
   48.4730   10.2793   10.5865 H   0  0  0  0  0  0  0  0  0  0  0  0
   49.1726    8.9760   11.5660 H   0  0  0  0  0  0  0  0  0  0  0  0
   45.9315    6.7529   12.3071 H   0  0  0  0  0  0  0  0  0  0  0  0
   46.8230    7.9581   12.6004 H   0  0  0  0  0  0  0  0  0  0  0  0
   45.9748    6.7386   12.3943 H   0  0  0  0  0  0  0  0  0  0  0  0
   46.8079    8.0129   12.5201 H   0  0  0  0  0  0  0  0  0  0  0  0
  2  1  2  0
  3  1  1  0
  4  2  1  0
  5  3  2  0
  6  8  1  0
  7  5  1  0
  8  9  1  0
  9  3  1  0
 10  2  1  0
 11  4  1  0
 12  9  1  0
 13  6  1  0
 14 13  1  0
 15 13  1  0
  7  4  2  0
 17 16  2  0
 18 16  2  0
 19 16  1  0
 20 16  1  0
 22 21  2  0
 23 21  1  0
 24 22  1  0
 25 23  2  0
 26 28  1  0
 27 25  1  0
 28 29  1  0
 29 23  1  0
 30 22  1  0
 31 24  1  0
 32 29  1  0
 33 26  1  0
 34 33  1  0
 35 33  1  0
 27 24  2  0
  1 38  1  0
  5 39  1  0
  6 40  1  0
  7 41  1  0
  8 42  1  0
  8 43  1  0
  9 44  1  6
 10 45  1  0
 11 46  1  0
 12 47  1  0
 13 48  1  0
 14 49  1  0
 14 50  1  0
 14 51  1  0
 15 52  1  0
 15 53  1  0
 15 54  1  0
 19 55  1  0
 20 56  1  0
 21 57  1  0
 25 58  1  0
 26 59  1  0
 27 60  1  0
 28 61  1  0
 28 62  1  0
 29 63  1  6
 30 64  1  0
 31 65  1  0
 32 66  1  0
 33 67  1  0
 34 68  1  0
 34 69  1  0
 34 70  1  0
 35 71  1  0
 35 72  1  0
 35 73  1  0
 36 74  1  0
 36 75  1  0
 37 76  1  0
 37 77  1  0
M  END
> <Uni-Dock RESULT> 
ENERGY=   -4.643  LOWER_BOUND=    2.119  UPPER_BOUND=    5.886
INTER + INTRA:          -4.643
INTER:                  -4.643
INTRA:                   0.000
UNBOUND:                 0.000

$$$$

     RDKit          3D

 77 74  0  0  0  0  0  0  0  0999 V2000
   47.3564   10.3033   19.8256 C   0  0  0  0  0  0  0  0  0  0  0  0
   46.9636   11.6362   19.7615 C   0  0  0  0  0  0  0  0  0  0  0  0
   48.6852    9.9509   19.5226 C   0  0  0  0  0  0  0  0  0  0  0  0
   47.8748   12.6227   19.3970 C   0  0  0  0  0  0  0  0  0  0  0  0
   49.5926   10.9606   19.1542 C   0  0  0  0  0  0  0  0  0  0  0  0
   49.0797    6.2697   18.5228 N   0  0  0  0  0  0  0  0  0  0  0  0
   49.1882   12.2969   19.0943 C   0  0  0  0  0  0  0  0  0  0  0  0
   48.5082    7.6288   18.4848 C   0  0  0  0  0  0  0  0  0  0  0  0
   49.1423    8.5094   19.5877 C   0  0  2  0  0  0  0  0  0  0  0  0
   45.6861   12.0262   20.0513 O   0  0  0  0  0  0  0  0  0  0  0  0
   47.4816   13.9294   19.3388 O   0  0  0  0  0  0  0  0  0  0  0  0
   48.7925    7.9789   20.8750 O   0  0  0  0  0  0  0  0  0  0  0  0
   48.3185    5.2966   17.7305 C   0  0  0  0  0  0  0  0  0  0  0  0
   48.3515    5.6073   16.2322 C   0  0  0  0  0  0  0  0  0  0  0  0
   48.9144    3.9097   17.9820 C   0  0  0  0  0  0  0  0  0  0  0  0
   47.7912    8.3807   18.6762 S   0  0  0  0  0  0  0  0  0  0  0  0
   46.7248    8.1593   19.6199 O   0  0  0  0  0  0  0  0  0  0  0  0
   47.5876    8.5341   17.2581 O   0  0  0  0  0  0  0  0  0  0  0  0
   48.8657    7.2022   18.8495 O   0  0  0  0  0  0  0  0  0  0  0  0
   48.6235    9.6427   19.2134 O   0  0  0  0  0  0  0  0  0  0  0  0
   48.3793   10.0567   20.2168 C   0  0  0  0  0  0  0  0  0  0  0  0
   47.7464   11.0846   20.9046 C   0  0  0  0  0  0  0  0  0  0  0  0
   48.4259   10.0759   18.8109 C   0  0  0  0  0  0  0  0  0  0  0  0
   47.1313   12.1265   20.2160 C   0  0  0  0  0  0  0  0  0  0  0  0
   47.8300   11.1568   18.1322 C   0  0  0  0  0  0  0  0  0  0  0  0
   48.9557    6.5806   17.3184 N   0  0  0  0  0  0  0  0  0  0  0  0
   47.1832   12.1804   18.8324 C   0  0  0  0  0  0  0  0  0  0  0  0
   48.4489    7.5770   18.2877 C   0  0  0  0  0  0  0  0  0  0  0  0
   49.1307    8.9558   18.0694 C   0  0  1  0  0  0  0  0  0  0  0  0
   47.7713   11.0754   22.2696 O   0  0  0  0  0  0  0  0  0  0  0  0
   46.4455   13.0945   20.8913 O   0  0  0  0  0  0  0  0  0  0  0  0
   49.1998    9.2208   16.6607 O   0  0  0  0  0  0  0  0  0  0  0  0
   48.7150    5.1786   17.6951 C   0  0  0  0  0  0  0  0  0  0  0  0
   49.5962    4.7440   18.8703 C   0  0  0  0  0  0  0  0  0  0  0  0
   47.2410    4.8601   17.9530 C   0  0  0  0  0  0  0  0  0  0  0  0
   47.9903    8.4005   18.4978 O   0  0  0  0  0  0  0  0  0  0  0  0
   47.9847    8.4484   18.5097 O   0  0  0  0  0  0  0  0  0  0  0  0
   46.6498    9.5294   20.1158 H   0  0  0  0  0  0  0  0  0  0  0  0
   50.6243   10.7142   18.9104 H   0  0  0  0  0  0  0  0  0  0  0  0
   49.0788    5.9768   19.5056 H   0  0  0  0  0  0  0  0  0  0  0  0
   49.8891   13.0768   18.8109 H   0  0  0  0  0  0  0  0  0  0  0  0
   47.4253    7.5676   18.6529 H   0  0  0  0  0  0  0  0  0  0  0  0
   48.6873    8.0860   17.5046 H   0  0  0  0  0  0  0  0  0  0  0  0
   50.2345    8.4583   19.5129 H   0  0  0  0  0  0  0  0  0  0  0  0
   45.1821   11.2359   20.3112 H   0  0  0  0  0  0  0  0  0  0  0  0
   46.5290   13.9060   19.5624 H   0  0  0  0  0  0  0  0  0  0  0  0
   49.2124    8.5675   21.5263 H   0  0  0  0  0  0  0  0  0  0  0  0
   47.2747    5.2774   18.0683 H   0  0  0  0  0  0  0  0  0  0  0  0
   49.3815    5.6946   15.8652 H   0  0  0  0  0  0  0  0  0  0  0  0
   47.8260    6.5406   16.0038 H   0  0  0  0  0  0  0  0  0  0  0  0
   47.8563    4.8116   15.6631 H   0  0  0  0  0  0  0  0  0  0  0  0
   48.8916    3.6580   19.0496 H   0  0  0  0  0  0  0  0  0  0  0  0
   48.3413    3.1420   17.4501 H   0  0  0  0  0  0  0  0  0  0  0  0
   49.9551    3.8523   17.6406 H   0  0  0  0  0  0  0  0  0  0  0  0
   49.2881    7.0699   17.9747 H   0  0  0  0  0  0  0  0  0  0  0  0
   48.6082    9.6047   20.1902 H   0  0  0  0  0  0  0  0  0  0  0  0
   48.8478    9.2531   20.7810 H   0  0  0  0  0  0  0  0  0  0  0  0
   47.8636   11.2066   17.0441 H   0  0  0  0  0  0  0  0  0  0  0  0
   48.4648    6.7488   16.4361 H   0  0  0  0  0  0  0  0  0  0  0  0
   46.7160   13.0012   18.2956 H   0  0  0  0  0  0  0  0  0  0  0  0
   47.3632    7.6735   18.1531 H   0  0  0  0  0  0  0  0  0  0  0  0
   48.6217    7.2624   19.3236 H   0  0  0  0  0  0  0  0  0  0  0  0
   50.1684    8.9147   18.4238 H   0  0  0  0  0  0  0  0  0  0  0  0
   47.8442   12.0093   22.5396 H   0  0  0  0  0  0  0  0  0  0  0  0
   45.9749   12.6359   21.6114 H   0  0  0  0  0  0  0  0  0  0  0  0
   49.6535    8.4335   16.3052 H   0  0  0  0  0  0  0  0  0  0  0  0
   49.0292    4.5785   16.8306 H   0  0  0  0  0  0  0  0  0  0  0  0
   49.2818    5.2006   19.8144 H   0  0  0  0  0  0  0  0  0  0  0  0
   49.5463    3.6565   18.9979 H   0  0  0  0  0  0  0  0  0  0  0  0
   50.6464    5.0054   18.6953 H   0  0  0  0  0  0  0  0  0  0  0  0
   47.0964    3.7800   18.0620 H   0  0  0  0  0  0  0  0  0  0  0  0
   46.6138    5.1922   17.1205 H   0  0  0  0  0  0  0  0  0  0  0  0
   46.8756    5.3363   18.8692 H   0  0  0  0  0  0  0  0  0  0  0  0
   48.2110    9.0969   19.1346 H   0  0  0  0  0  0  0  0  0  0  0  0
   48.4370    7.6141   18.8457 H   0  0  0  0  0  0  0  0  0  0  0  0
   48.2678    9.0601   19.2059 H   0  0  0  0  0  0  0  0  0  0  0  0
   48.3857    7.6030   18.7624 H   0  0  0  0  0  0  0  0  0  0  0  0
  2  1  2  0
  3  1  1  0
  4  2  1  0
  5  3  2  0
  6  8  1  0
  7  5  1  0
  8  9  1  0
  9  3  1  0
 10  2  1  0
 11  4  1  0
 12  9  1  0
 13  6  1  0
 14 13  1  0
 15 13  1  0
  7  4  2  0
 17 16  2  0
 18 16  2  0
 19 16  1  0
 20 16  1  0
 22 21  2  0
 23 21  1  0
 24 22  1  0
 25 23  2  0
 26 28  1  0
 27 25  1  0
 28 29  1  0
 29 23  1  0
 30 22  1  0
 31 24  1  0
 32 29  1  0
 33 26  1  0
 34 33  1  0
 35 33  1  0
 27 24  2  0
  1 38  1  0
  5 39  1  0
  6 40  1  0
  7 41  1  0
  8 42  1  0
  8 43  1  0
  9 44  1  6
 10 45  1  0
 11 46  1  0
 12 47  1  0
 13 48  1  0
 14 49  1  0
 14 50  1  0
 14 51  1  0
 15 52  1  0
 15 53  1  0
 15 54  1  0
 19 55  1  0
 20 56  1  0
 21 57  1  0
 25 58  1  0
 26 59  1  0
 27 60  1  0
 28 61  1  0
 28 62  1  0
 29 63  1  6
 30 64  1  0
 31 65  1  0
 32 66  1  0
 33 67  1  0
 34 68  1  0
 34 69  1  0
 34 70  1  0
 35 71  1  0
 35 72  1  0
 35 73  1  0
 36 74  1  0
 36 75  1  0
 37 76  1  0
 37 77  1  0
M  END
> <Uni-Dock RESULT> 
ENERGY=   -4.298  LOWER_BOUND=    5.848  UPPER_BOUND=    7.589
INTER + INTRA:          -4.298
INTER:                  -4.298
INTRA:                   0.000
UNBOUND:                 0.000

$$$$

     RDKit          3D

 77 74  0  0  0  0  0  0  0  0999 V2000
   49.8431    6.3061   19.2530 C   0  0  0  0  0  0  0  0  0  0  0  0
   50.6771    5.3272   18.7225 C   0  0  0  0  0  0  0  0  0  0  0  0
   48.5343    6.4535   18.7561 C   0  0  0  0  0  0  0  0  0  0  0  0
   50.2270    4.4951   17.7022 C   0  0  0  0  0  0  0  0  0  0  0  0
   48.0963    5.6051   17.7233 C   0  0  0  0  0  0  0  0  0  0  0  0
   47.0437    9.9209   19.4356 N   0  0  0  0  0  0  0  0  0  0  0  0
   48.9416    4.6240   17.1983 C   0  0  0  0  0  0  0  0  0  0  0  0
   48.0485    8.9474   18.9691 C   0  0  0  0  0  0  0  0  0  0  0  0
   47.6031    7.5070   19.3165 C   0  0  2  0  0  0  0  0  0  0  0  0
   51.9534    5.1440   19.1762 O   0  0  0  0  0  0  0  0  0  0  0  0
   51.0514    3.5350   17.1885 O   0  0  0  0  0  0  0  0  0  0  0  0
   47.5548    7.3588   20.7437 O   0  0  0  0  0  0  0  0  0  0  0  0
   47.5294   11.3059   19.4294 C   0  0  0  0  0  0  0  0  0  0  0  0
   47.8263   11.8162   18.0173 C   0  0  0  0  0  0  0  0  0  0  0  0
   46.4610   12.1865   20.0811 C   0  0  0  0  0  0  0  0  0  0  0  0
   48.9448    8.3895   19.0104 S   0  0  0  0  0  0  0  0  0  0  0  0
   49.7180    8.3255   20.2247 O   0  0  0  0  0  0  0  0  0  0  0  0
   49.3948    9.0416   17.8069 O   0  0  0  0  0  0  0  0  0  0  0  0
   47.5162    9.0303   19.3596 O   0  0  0  0  0  0  0  0  0  0  0  0
   48.5304    6.8817   18.6512 O   0  0  0  0  0  0  0  0  0  0  0  0
   48.7524    6.0765   19.3862 C   0  0  0  0  0  0  0  0  0  0  0  0
   49.5930    5.0152   19.6979 C   0  0  0  0  0  0  0  0  0  0  0  0
   48.9224    6.7767   18.1779 C   0  0  0  0  0  0  0  0  0  0  0  0
   50.6242    4.6496   18.8371 C   0  0  0  0  0  0  0  0  0  0  0  0
   49.9478    6.3694   17.3023 C   0  0  0  0  0  0  0  0  0  0  0  0
   47.4431   10.3146   18.3183 N   0  0  0  0  0  0  0  0  0  0  0  0
   50.7981    5.3084   17.6305 C   0  0  0  0  0  0  0  0  0  0  0  0
   48.1145    9.1054   18.8437 C   0  0  0  0  0  0  0  0  0  0  0  0
   47.9911    7.9256   17.8405 C   0  0  1  0  0  0  0  0  0  0  0  0
   49.3663    4.3117   20.8458 O   0  0  0  0  0  0  0  0  0  0  0  0
   51.4952    3.6562   19.1808 O   0  0  0  0  0  0  0  0  0  0  0  0
   48.2256    8.4191   16.5135 O   0  0  0  0  0  0  0  0  0  0  0  0
   47.1264   11.3320   19.3333 C   0  0  0  0  0  0  0  0  0  0  0  0
   45.9868   10.8845   20.2539 C   0  0  0  0  0  0  0  0  0  0  0  0
   48.3446   11.7947   20.1347 C   0  0  0  0  0  0  0  0  0  0  0  0
   48.7933    8.4204   18.7913 O   0  0  0  0  0  0  0  0  0  0  0  0
   48.8133    8.3759   18.7817 O   0  0  0  0  0  0  0  0  0  0  0  0
   50.1880    6.9548   20.0547 H   0  0  0  0  0  0  0  0  0  0  0  0
   47.0907    5.7015   17.3181 H   0  0  0  0  0  0  0  0  0  0  0  0
   46.7989    9.6551   20.3953 H   0  0  0  0  0  0  0  0  0  0  0  0
   48.6030    3.9680   16.4014 H   0  0  0  0  0  0  0  0  0  0  0  0
   49.0065    9.1556   19.4628 H   0  0  0  0  0  0  0  0  0  0  0  0
   48.1846    9.0359   17.8848 H   0  0  0  0  0  0  0  0  0  0  0  0
   46.5841    7.3410   18.9487 H   0  0  0  0  0  0  0  0  0  0  0  0
   52.1092    5.7761   19.8989 H   0  0  0  0  0  0  0  0  0  0  0  0
   51.8934    3.6540   17.6731 H   0  0  0  0  0  0  0  0  0  0  0  0
   47.2733    6.4413   20.9047 H   0  0  0  0  0  0  0  0  0  0  0  0
   48.4406   11.3829   20.0358 H   0  0  0  0  0  0  0  0  0  0  0  0
   46.9557   11.7010   17.3600 H   0  0  0  0  0  0  0  0  0  0  0  0
   48.6693   11.2822   17.5662 H   0  0  0  0  0  0  0  0  0  0  0  0
   48.0940   12.8792   18.0405 H   0  0  0  0  0  0  0  0  0  0  0  0
   46.2383   11.8479   21.1005 H   0  0  0  0  0  0  0  0  0  0  0  0
   46.8050   13.2249   20.1466 H   0  0  0  0  0  0  0  0  0  0  0  0
   45.5268   12.1753   19.5066 H   0  0  0  0  0  0  0  0  0  0  0  0
   47.2075    9.4963   18.5541 H   0  0  0  0  0  0  0  0  0  0  0  0
   48.3879    6.4118   19.4966 H   0  0  0  0  0  0  0  0  0  0  0  0
   47.9577    6.3427   20.0798 H   0  0  0  0  0  0  0  0  0  0  0  0
   50.0938    6.8830   16.3523 H   0  0  0  0  0  0  0  0  0  0  0  0
   48.0858   10.7425   17.6464 H   0  0  0  0  0  0  0  0  0  0  0  0
   51.5936    5.0135   16.9520 H   0  0  0  0  0  0  0  0  0  0  0  0
   49.1739    9.3405   19.0127 H   0  0  0  0  0  0  0  0  0  0  0  0
   47.6936    8.7908   19.8058 H   0  0  0  0  0  0  0  0  0  0  0  0
   46.9631    7.5419   17.8466 H   0  0  0  0  0  0  0  0  0  0  0  0
   49.5817    3.3846   20.6353 H   0  0  0  0  0  0  0  0  0  0  0  0
   51.6671    3.7691   20.1337 H   0  0  0  0  0  0  0  0  0  0  0  0
   47.5852    9.1505   16.4286 H   0  0  0  0  0  0  0  0  0  0  0  0
   46.7548   12.2033   18.7774 H   0  0  0  0  0  0  0  0  0  0  0  0
   46.2973   10.0906   20.9409 H   0  0  0  0  0  0  0  0  0  0  0  0
   45.6386   11.7279   20.8613 H   0  0  0  0  0  0  0  0  0  0  0  0
   45.1295   10.5218   19.6749 H   0  0  0  0  0  0  0  0  0  0  0  0
   48.0894   12.6630   20.7515 H   0  0  0  0  0  0  0  0  0  0  0  0
   49.1630   12.0924   19.4726 H   0  0  0  0  0  0  0  0  0  0  0  0
   48.7131   11.0106   20.8048 H   0  0  0  0  0  0  0  0  0  0  0  0
   48.7358    7.4664   18.9517 H   0  0  0  0  0  0  0  0  0  0  0  0
   48.0565    8.7890   19.3013 H   0  0  0  0  0  0  0  0  0  0  0  0
   48.6599    7.4470   19.0113 H   0  0  0  0  0  0  0  0  0  0  0  0
   48.1123    8.8529   19.2514 H   0  0  0  0  0  0  0  0  0  0  0  0
  2  1  2  0
  3  1  1  0
  4  2  1  0
  5  3  2  0
  6  8  1  0
  7  5  1  0
  8  9  1  0
  9  3  1  0
 10  2  1  0
 11  4  1  0
 12  9  1  0
 13  6  1  0
 14 13  1  0
 15 13  1  0
  7  4  2  0
 17 16  2  0
 18 16  2  0
 19 16  1  0
 20 16  1  0
 22 21  2  0
 23 21  1  0
 24 22  1  0
 25 23  2  0
 26 28  1  0
 27 25  1  0
 28 29  1  0
 29 23  1  0
 30 22  1  0
 31 24  1  0
 32 29  1  0
 33 26  1  0
 34 33  1  0
 35 33  1  0
 27 24  2  0
  1 38  1  0
  5 39  1  0
  6 40  1  0
  7 41  1  0
  8 42  1  0
  8 43  1  0
  9 44  1  6
 10 45  1  0
 11 46  1  0
 12 47  1  0
 13 48  1  0
 14 49  1  0
 14 50  1  0
 14 51  1  0
 15 52  1  0
 15 53  1  0
 15 54  1  0
 19 55  1  0
 20 56  1  0
 21 57  1  0
 25 58  1  0
 26 59  1  0
 27 60  1  0
 28 61  1  0
 28 62  1  0
 29 63  1  6
 30 64  1  0
 31 65  1  0
 32 66  1  0
 33 67  1  0
 34 68  1  0
 34 69  1  0
 34 70  1  0
 35 71  1  0
 35 72  1  0
 35 73  1  0
 36 74  1  0
 36 75  1  0
 37 76  1  0
 37 77  1  0
M  END
> <Uni-Dock RESULT> 
ENERGY=   -4.184  LOWER_BOUND=    5.689  UPPER_BOUND=    8.003
INTER + INTRA:          -4.184
INTER:                  -4.184
INTRA:                   0.000
UNBOUND:                 0.000

$$$$

     RDKit          3D

 77 74  0  0  0  0  0  0  0  0999 V2000
   48.9286    9.5541   14.3791 C   0  0  0  0  0  0  0  0  0  0  0  0
   49.6680   10.7285   14.2833 C   0  0  0  0  0  0  0  0  0  0  0  0
   49.4907    8.3373   13.9490 C   0  0  0  0  0  0  0  0  0  0  0  0
   50.9582   10.7085   13.7625 C   0  0  0  0  0  0  0  0  0  0  0  0
   50.7953    8.3355   13.4235 C   0  0  0  0  0  0  0  0  0  0  0  0
   46.8626    5.6691   13.1241 N   0  0  0  0  0  0  0  0  0  0  0  0
   51.5303    9.5207   13.3329 C   0  0  0  0  0  0  0  0  0  0  0  0
   47.5087    6.9939   13.0728 C   0  0  0  0  0  0  0  0  0  0  0  0
   48.7115    7.0432   14.0448 C   0  0  2  0  0  0  0  0  0  0  0  0
   49.1659   11.9322   14.6924 O   0  0  0  0  0  0  0  0  0  0  0  0
   51.6783   11.8656   13.6741 O   0  0  0  0  0  0  0  0  0  0  0  0
   48.2366    6.8966   15.3917 O   0  0  0  0  0  0  0  0  0  0  0  0
   45.5442    5.6399   12.4797 C   0  0  0  0  0  0  0  0  0  0  0  0
   45.6236    5.8904   10.9719 C   0  0  0  0  0  0  0  0  0  0  0  0
   44.9181    4.2685   12.7417 C   0  0  0  0  0  0  0  0  0  0  0  0
   47.6309    8.0183   13.3004 S   0  0  0  0  0  0  0  0  0  0  0  0
   46.8830    8.6303   14.3693 O   0  0  0  0  0  0  0  0  0  0  0  0
   47.4479    8.3396   11.9077 O   0  0  0  0  0  0  0  0  0  0  0  0
   47.4629    6.4273   13.4188 O   0  0  0  0  0  0  0  0  0  0  0  0
   49.1828    8.1959   13.6670 O   0  0  0  0  0  0  0  0  0  0  0  0
   49.4530    8.6040   14.6661 C   0  0  0  0  0  0  0  0  0  0  0  0
   49.8955    9.7229   15.3607 C   0  0  0  0  0  0  0  0  0  0  0  0
   49.3329    8.6483   13.2651 C   0  0  0  0  0  0  0  0  0  0  0  0
   50.1986   10.9029   14.6872 C   0  0  0  0  0  0  0  0  0  0  0  0
   49.6790    9.8390   12.5970 C   0  0  0  0  0  0  0  0  0  0  0  0
   46.8746    6.0239   11.9255 N   0  0  0  0  0  0  0  0  0  0  0  0
   50.1106   10.9649   13.3057 C   0  0  0  0  0  0  0  0  0  0  0  0
   47.4082    7.0138   12.8869 C   0  0  0  0  0  0  0  0  0  0  0  0
   48.8615    7.4172   12.5144 C   0  0  1  0  0  0  0  0  0  0  0  0
   50.0647    9.6334   16.7125 O   0  0  0  0  0  0  0  0  0  0  0  0
   50.5602   12.0229   15.3788 O   0  0  0  0  0  0  0  0  0  0  0  0
   48.9405    7.6062   11.0940 O   0  0  0  0  0  0  0  0  0  0  0  0
   45.7087    5.2659   12.4068 C   0  0  0  0  0  0  0  0  0  0  0  0
   46.0918    4.2615   13.4981 C   0  0  0  0  0  0  0  0  0  0  0  0
   44.5429    6.1533   12.8469 C   0  0  0  0  0  0  0  0  0  0  0  0
   47.7541    7.8900   13.0998 O   0  0  0  0  0  0  0  0  0  0  0  0
   47.7879    7.9251   13.1095 O   0  0  0  0  0  0  0  0  0  0  0  0
   47.9222    9.5634   14.7911 H   0  0  0  0  0  0  0  0  0  0  0  0
   51.2512    7.4090   13.0795 H   0  0  0  0  0  0  0  0  0  0  0  0
   46.7571    5.4307   14.1159 H   0  0  0  0  0  0  0  0  0  0  0  0
   52.5382    9.5192   12.9280 H   0  0  0  0  0  0  0  0  0  0  0  0
   46.7796    7.7605   13.3651 H   0  0  0  0  0  0  0  0  0  0  0  0
   47.8537    7.2061   12.0540 H   0  0  0  0  0  0  0  0  0  0  0  0
   49.3733    6.1915   13.8505 H   0  0  0  0  0  0  0  0  0  0  0  0
   48.2753   11.7797   15.0524 H   0  0  0  0  0  0  0  0  0  0  0  0
   51.0686   12.5563   14.0045 H   0  0  0  0  0  0  0  0  0  0  0  0
   49.0279    6.9366   15.9566 H   0  0  0  0  0  0  0  0  0  0  0  0
   44.8919    6.3966   12.9336 H   0  0  0  0  0  0  0  0  0  0  0  0
   46.3147    5.1902   10.4868 H   0  0  0  0  0  0  0  0  0  0  0  0
   45.9572    6.9098   10.7510 H   0  0  0  0  0  0  0  0  0  0  0  0
   44.6373    5.7672   10.5089 H   0  0  0  0  0  0  0  0  0  0  0  0
   44.8392    4.0695   13.8177 H   0  0  0  0  0  0  0  0  0  0  0  0
   43.9067    4.2203   12.3227 H   0  0  0  0  0  0  0  0  0  0  0  0
   45.5104    3.4640   12.2890 H   0  0  0  0  0  0  0  0  0  0  0  0
   47.5351    6.0641   12.5110 H   0  0  0  0  0  0  0  0  0  0  0  0
   49.2587    8.1360   14.6399 H   0  0  0  0  0  0  0  0  0  0  0  0
   49.2192    7.6968   15.2191 H   0  0  0  0  0  0  0  0  0  0  0  0
   49.6107    9.8981   11.5110 H   0  0  0  0  0  0  0  0  0  0  0  0
   46.5790    6.5456   11.0959 H   0  0  0  0  0  0  0  0  0  0  0  0
   50.3614   11.8813   12.7788 H   0  0  0  0  0  0  0  0  0  0  0  0
   46.7603    7.9004   12.8703 H   0  0  0  0  0  0  0  0  0  0  0  0
   47.4053    6.6280   13.9131 H   0  0  0  0  0  0  0  0  0  0  0  0
   49.5457    6.5927   12.7514 H   0  0  0  0  0  0  0  0  0  0  0  0
   50.8456   10.1793   16.9185 H   0  0  0  0  0  0  0  0  0  0  0  0
   49.9945   12.0415   16.1725 H   0  0  0  0  0  0  0  0  0  0  0  0
   48.6015    6.7644   10.7355 H   0  0  0  0  0  0  0  0  0  0  0  0
   45.3603    4.6761   11.5482 H   0  0  0  0  0  0  0  0  0  0  0  0
   46.3416    4.7534   14.4439 H   0  0  0  0  0  0  0  0  0  0  0  0
   45.2569    3.5785   13.6928 H   0  0  0  0  0  0  0  0  0  0  0  0
   46.9495    3.6515   13.1912 H   0  0  0  0  0  0  0  0  0  0  0  0
   43.6500    5.5472   13.0334 H   0  0  0  0  0  0  0  0  0  0  0  0
   44.2878    6.8829   12.0727 H   0  0  0  0  0  0  0  0  0  0  0  0
   44.7710    6.6975   13.7696 H   0  0  0  0  0  0  0  0  0  0  0  0
   48.4955    8.1513   13.6666 H   0  0  0  0  0  0  0  0  0  0  0  0
   47.4938    7.0207   13.4396 H   0  0  0  0  0  0  0  0  0  0  0  0
   48.5131    8.0810   13.7331 H   0  0  0  0  0  0  0  0  0  0  0  0
   47.4424    7.0559   13.3634 H   0  0  0  0  0  0  0  0  0  0  0  0
  2  1  2  0
  3  1  1  0
  4  2  1  0
  5  3  2  0
  6  8  1  0
  7  5  1  0
  8  9  1  0
  9  3  1  0
 10  2  1  0
 11  4  1  0
 12  9  1  0
 13  6  1  0
 14 13  1  0
 15 13  1  0
  7  4  2  0
 17 16  2  0
 18 16  2  0
 19 16  1  0
 20 16  1  0
 22 21  2  0
 23 21  1  0
 24 22  1  0
 25 23  2  0
 26 28  1  0
 27 25  1  0
 28 29  1  0
 29 23  1  0
 30 22  1  0
 31 24  1  0
 32 29  1  0
 33 26  1  0
 34 33  1  0
 35 33  1  0
 27 24  2  0
  1 38  1  0
  5 39  1  0
  6 40  1  0
  7 41  1  0
  8 42  1  0
  8 43  1  0
  9 44  1  6
 10 45  1  0
 11 46  1  0
 12 47  1  0
 13 48  1  0
 14 49  1  0
 14 50  1  0
 14 51  1  0
 15 52  1  0
 15 53  1  0
 15 54  1  0
 19 55  1  0
 20 56  1  0
 21 57  1  0
 25 58  1  0
 26 59  1  0
 27 60  1  0
 28 61  1  0
 28 62  1  0
 29 63  1  6
 30 64  1  0
 31 65  1  0
 32 66  1  0
 33 67  1  0
 34 68  1  0
 34 69  1  0
 34 70  1  0
 35 71  1  0
 35 72  1  0
 35 73  1  0
 36 74  1  0
 36 75  1  0
 37 76  1  0
 37 77  1  0
M  END
> <Uni-Dock RESULT> 
ENERGY=   -4.040  LOWER_BOUND=    1.677  UPPER_BOUND=    2.974
INTER + INTRA:          -4.040
INTER:                  -4.040
INTRA:                   0.000
UNBOUND:                 0.000

$$$$

     RDKit          3D

 77 74  0  0  0  0  0  0  0  0999 V2000
   50.3766    8.6296   12.6092 C   0  0  0  0  0  0  0  0  0  0  0  0
   51.6802    8.6743   13.0926 C   0  0  0  0  0  0  0  0  0  0  0  0
   49.3146    9.0717   13.4206 C   0  0  0  0  0  0  0  0  0  0  0  0
   51.9407    9.1504   14.3739 C   0  0  0  0  0  0  0  0  0  0  0  0
   49.5958    9.5482   14.7137 C   0  0  0  0  0  0  0  0  0  0  0  0
   45.9172    7.6309   12.3774 N   0  0  0  0  0  0  0  0  0  0  0  0
   50.9091    9.5903   15.1894 C   0  0  0  0  0  0  0  0  0  0  0  0
   47.3439    7.5997   12.7498 C   0  0  0  0  0  0  0  0  0  0  0  0
   47.8866    9.0386   12.9199 C   0  0  2  0  0  0  0  0  0  0  0  0
   52.7431    8.2603   12.3397 O   0  0  0  0  0  0  0  0  0  0  0  0
   53.2237    9.1932   14.8401 O   0  0  0  0  0  0  0  0  0  0  0  0
   47.8318    9.7167   11.6557 O   0  0  0  0  0  0  0  0  0  0  0  0
   45.4139    6.3396   11.8945 C   0  0  0  0  0  0  0  0  0  0  0  0
   45.4295    5.2616   12.9809 C   0  0  0  0  0  0  0  0  0  0  0  0
   43.9827    6.5453   11.3935 C   0  0  0  0  0  0  0  0  0  0  0  0
   48.3840    7.5181   12.5831 S   0  0  0  0  0  0  0  0  0  0  0  0
   48.9247    7.5898   11.2493 O   0  0  0  0  0  0  0  0  0  0  0  0
   48.4112    6.3289   13.3963 O   0  0  0  0  0  0  0  0  0  0  0  0
   46.8511    7.9878   12.5278 O   0  0  0  0  0  0  0  0  0  0  0  0
   49.0485    8.7203   13.4121 O   0  0  0  0  0  0  0  0  0  0  0  0
   49.6722    9.4642   12.8685 C   0  0  0  0  0  0  0  0  0  0  0  0
   50.9673    9.8856   12.5942 C   0  0  0  0  0  0  0  0  0  0  0  0
   49.4537    8.3961   13.7576 C   0  0  0  0  0  0  0  0  0  0  0  0
   52.0599    9.2441   13.1711 C   0  0  0  0  0  0  0  0  0  0  0  0
   50.5695    7.7828   14.3602 C   0  0  0  0  0  0  0  0  0  0  0  0
   46.0624    6.6925   13.1905 N   0  0  0  0  0  0  0  0  0  0  0  0
   51.8705    8.2048   14.0678 C   0  0  0  0  0  0  0  0  0  0  0  0
   47.3044    7.3990   12.8064 C   0  0  0  0  0  0  0  0  0  0  0  0
   48.0353    7.9520   14.0608 C   0  0  1  0  0  0  0  0  0  0  0  0
   51.1488   10.9652   11.7784 O   0  0  0  0  0  0  0  0  0  0  0  0
   53.3329    9.6108   12.8414 O   0  0  0  0  0  0  0  0  0  0  0  0
   48.0067    6.9537   15.0915 O   0  0  0  0  0  0  0  0  0  0  0  0
   45.0947    6.5115   12.0967 C   0  0  0  0  0  0  0  0  0  0  0  0
   44.4292    7.8326   11.6988 C   0  0  0  0  0  0  0  0  0  0  0  0
   45.6765    5.7892   10.8800 C   0  0  0  0  0  0  0  0  0  0  0  0
   48.2649    7.4977   12.8225 O   0  0  0  0  0  0  0  0  0  0  0  0
   48.3092    7.5154   12.8364 O   0  0  0  0  0  0  0  0  0  0  0  0
   50.1683    8.2641   11.6063 H   0  0  0  0  0  0  0  0  0  0  0  0
   48.7924    9.8913   15.3629 H   0  0  0  0  0  0  0  0  0  0  0  0
   45.8223    8.3286   11.6318 H   0  0  0  0  0  0  0  0  0  0  0  0
   51.1264    9.9593   16.1877 H   0  0  0  0  0  0  0  0  0  0  0  0
   47.9107    7.0938   11.9575 H   0  0  0  0  0  0  0  0  0  0  0  0
   47.4772    7.0460   13.6866 H   0  0  0  0  0  0  0  0  0  0  0  0
   47.2362    9.5957   13.6038 H   0  0  0  0  0  0  0  0  0  0  0  0
   52.4061    7.9837   11.4702 H   0  0  0  0  0  0  0  0  0  0  0  0
   53.7585    8.8148   14.1130 H   0  0  0  0  0  0  0  0  0  0  0  0
   48.1840   10.6090   11.8190 H   0  0  0  0  0  0  0  0  0  0  0  0
   46.0190    5.9991   11.0449 H   0  0  0  0  0  0  0  0  0  0  0  0
   44.8837    5.5877   13.8747 H   0  0  0  0  0  0  0  0  0  0  0  0
   46.4519    5.0054   13.2780 H   0  0  0  0  0  0  0  0  0  0  0  0
   44.9601    4.3404   12.6157 H   0  0  0  0  0  0  0  0  0  0  0  0
   43.9462    7.3065   10.6044 H   0  0  0  0  0  0  0  0  0  0  0  0
   43.5844    5.6151   10.9728 H   0  0  0  0  0  0  0  0  0  0  0  0
   43.3157    6.8627   12.2042 H   0  0  0  0  0  0  0  0  0  0  0  0
   46.3812    7.5146   13.2466 H   0  0  0  0  0  0  0  0  0  0  0  0
   49.1706    9.4663   12.7920 H   0  0  0  0  0  0  0  0  0  0  0  0
   48.8376    9.9814   12.3999 H   0  0  0  0  0  0  0  0  0  0  0  0
   50.4306    6.9632   15.0648 H   0  0  0  0  0  0  0  0  0  0  0  0
   46.3384    5.7608   13.5120 H   0  0  0  0  0  0  0  0  0  0  0  0
   52.7227    7.7139   14.5293 H   0  0  0  0  0  0  0  0  0  0  0  0
   47.9576    6.6928   12.2765 H   0  0  0  0  0  0  0  0  0  0  0  0
   47.1045    8.2327   12.1232 H   0  0  0  0  0  0  0  0  0  0  0  0
   47.4867    8.8158   14.4568 H   0  0  0  0  0  0  0  0  0  0  0  0
   51.9185   11.4429   12.1384 H   0  0  0  0  0  0  0  0  0  0  0  0
   53.3192    9.7931   11.8839 H   0  0  0  0  0  0  0  0  0  0  0  0
   47.0571    6.7472   15.1789 H   0  0  0  0  0  0  0  0  0  0  0  0
   44.3000    5.8717   12.5034 H   0  0  0  0  0  0  0  0  0  0  0  0
   45.1176    8.5000   11.1703 H   0  0  0  0  0  0  0  0  0  0  0  0
   43.5793    7.6421   11.0333 H   0  0  0  0  0  0  0  0  0  0  0  0
   44.0444    8.3624   12.5781 H   0  0  0  0  0  0  0  0  0  0  0  0
   44.8818    5.5314   10.1720 H   0  0  0  0  0  0  0  0  0  0  0  0
   46.1695    4.8574   11.1725 H   0  0  0  0  0  0  0  0  0  0  0  0
   46.4047    6.4102   10.3474 H   0  0  0  0  0  0  0  0  0  0  0  0
   48.8127    8.2902   12.9287 H   0  0  0  0  0  0  0  0  0  0  0  0
   47.4244    7.8374   12.4805 H   0  0  0  0  0  0  0  0  0  0  0  0
   48.7618    8.3698   12.9012 H   0  0  0  0  0  0  0  0  0  0  0  0
   47.4309    7.7401   12.4940 H   0  0  0  0  0  0  0  0  0  0  0  0
  2  1  2  0
  3  1  1  0
  4  2  1  0
  5  3  2  0
  6  8  1  0
  7  5  1  0
  8  9  1  0
  9  3  1  0
 10  2  1  0
 11  4  1  0
 12  9  1  0
 13  6  1  0
 14 13  1  0
 15 13  1  0
  7  4  2  0
 17 16  2  0
 18 16  2  0
 19 16  1  0
 20 16  1  0
 22 21  2  0
 23 21  1  0
 24 22  1  0
 25 23  2  0
 26 28  1  0
 27 25  1  0
 28 29  1  0
 29 23  1  0
 30 22  1  0
 31 24  1  0
 32 29  1  0
 33 26  1  0
 34 33  1  0
 35 33  1  0
 27 24  2  0
  1 38  1  0
  5 39  1  0
  6 40  1  0
  7 41  1  0
  8 42  1  0
  8 43  1  0
  9 44  1  6
 10 45  1  0
 11 46  1  0
 12 47  1  0
 13 48  1  0
 14 49  1  0
 14 50  1  0
 14 51  1  0
 15 52  1  0
 15 53  1  0
 15 54  1  0
 19 55  1  0
 20 56  1  0
 21 57  1  0
 25 58  1  0
 26 59  1  0
 27 60  1  0
 28 61  1  0
 28 62  1  0
 29 63  1  6
 30 64  1  0
 31 65  1  0
 32 66  1  0
 33 67  1  0
 34 68  1  0
 34 69  1  0
 34 70  1  0
 35 71  1  0
 35 72  1  0
 35 73  1  0
 36 74  1  0
 36 75  1  0
 37 76  1  0
 37 77  1  0
M  END
> <Uni-Dock RESULT> 
ENERGY=   -3.968  LOWER_BOUND=    1.476  UPPER_BOUND=    2.111
INTER + INTRA:          -3.968
INTER:                  -3.968
INTRA:                   0.000
UNBOUND:                 0.000

$$$$

     RDKit          3D

 77 74  0  0  0  0  0  0  0  0999 V2000
   48.7635    7.6194   20.4571 C   0  0  0  0  0  0  0  0  0  0  0  0
   49.1660    6.3079   20.6875 C   0  0  0  0  0  0  0  0  0  0  0  0
   47.6680    7.8759   19.6111 C   0  0  0  0  0  0  0  0  0  0  0  0
   48.4946    5.2485   20.0850 C   0  0  0  0  0  0  0  0  0  0  0  0
   47.0020    6.7933   19.0089 C   0  0  0  0  0  0  0  0  0  0  0  0
   47.6654   11.4347   18.1823 N   0  0  0  0  0  0  0  0  0  0  0  0
   47.4134    5.4794   19.2481 C   0  0  0  0  0  0  0  0  0  0  0  0
   48.2208   10.1086   18.5111 C   0  0  0  0  0  0  0  0  0  0  0  0
   47.2050    9.2922   19.3450 C   0  0  2  0  0  0  0  0  0  0  0  0
   50.2206    6.0102   21.5045 O   0  0  0  0  0  0  0  0  0  0  0  0
   48.8947    3.9636   20.3184 O   0  0  0  0  0  0  0  0  0  0  0  0
   46.9944    9.9464   20.6055 O   0  0  0  0  0  0  0  0  0  0  0  0
   48.6699   12.3758   17.6731 C   0  0  0  0  0  0  0  0  0  0  0  0
   49.2527   11.9389   16.3270 C   0  0  0  0  0  0  0  0  0  0  0  0
   48.0050   13.7462   17.5261 C   0  0  0  0  0  0  0  0  0  0  0  0
   48.8080    9.4136   19.0480 S   0  0  0  0  0  0  0  0  0  0  0  0
   49.3959    9.7683   20.3149 O   0  0  0  0  0  0  0  0  0  0  0  0
   49.5723    9.1521   17.8548 O   0  0  0  0  0  0  0  0  0  0  0  0
   47.7404   10.5452   18.6570 O   0  0  0  0  0  0  0  0  0  0  0  0
   47.8460    8.1597   19.3245 O   0  0  0  0  0  0  0  0  0  0  0  0
   47.6668    7.8448   20.3765 C   0  0  0  0  0  0  0  0  0  0  0  0
   47.9791    6.9124   21.3580 C   0  0  0  0  0  0  0  0  0  0  0  0
   48.1958    7.7051   19.0804 C   0  0  0  0  0  0  0  0  0  0  0  0
   48.8345    5.8496   21.0814 C   0  0  0  0  0  0  0  0  0  0  0  0
   49.0302    6.6032   18.8089 C   0  0  0  0  0  0  0  0  0  0  0  0
   48.2722   11.0304   17.1669 N   0  0  0  0  0  0  0  0  0  0  0  0
   49.3500    5.6770   19.8069 C   0  0  0  0  0  0  0  0  0  0  0  0
   48.3544   10.1466   18.3506 C   0  0  0  0  0  0  0  0  0  0  0  0
   47.8383    8.7210   18.0120 C   0  0  1  0  0  0  0  0  0  0  0  0
   47.4016    7.0350   22.5891 O   0  0  0  0  0  0  0  0  0  0  0  0
   49.1995    4.9785   22.0671 O   0  0  0  0  0  0  0  0  0  0  0  0
   48.3511    8.3352   16.7283 O   0  0  0  0  0  0  0  0  0  0  0  0
   48.3205   12.4697   17.4696 C   0  0  0  0  0  0  0  0  0  0  0  0
   47.0322   12.9554   18.1410 C   0  0  0  0  0  0  0  0  0  0  0  0
   49.5582   12.8846   18.2674 C   0  0  0  0  0  0  0  0  0  0  0  0
   48.6989    9.3685   18.8073 O   0  0  0  0  0  0  0  0  0  0  0  0
   48.6998    9.3222   18.8251 O   0  0  0  0  0  0  0  0  0  0  0  0
   49.2810    8.4505   20.9304 H   0  0  0  0  0  0  0  0  0  0  0  0
   46.1552    6.9646   18.3469 H   0  0  0  0  0  0  0  0  0  0  0  0
   47.2630   11.8088   19.0482 H   0  0  0  0  0  0  0  0  0  0  0  0
   46.8984    4.6431   18.7839 H   0  0  0  0  0  0  0  0  0  0  0  0
   49.1411   10.2396   19.0947 H   0  0  0  0  0  0  0  0  0  0  0  0
   48.4615    9.5619   17.5918 H   0  0  0  0  0  0  0  0  0  0  0  0
   46.2368    9.2802   18.8316 H   0  0  0  0  0  0  0  0  0  0  0  0
   50.5650    6.8446   21.8669 H   0  0  0  0  0  0  0  0  0  0  0  0
   49.6739    4.0550   20.9037 H   0  0  0  0  0  0  0  0  0  0  0  0
   46.3540    9.3937   21.0863 H   0  0  0  0  0  0  0  0  0  0  0  0
   49.4860   12.4773   18.3995 H   0  0  0  0  0  0  0  0  0  0  0  0
   48.4619   11.7680   15.5863 H   0  0  0  0  0  0  0  0  0  0  0  0
   49.8378   11.0182   16.4224 H   0  0  0  0  0  0  0  0  0  0  0  0
   49.9259   12.7085   15.9311 H   0  0  0  0  0  0  0  0  0  0  0  0
   47.5887   14.0877   18.4819 H   0  0  0  0  0  0  0  0  0  0  0  0
   48.7346   14.4952   17.1981 H   0  0  0  0  0  0  0  0  0  0  0  0
   47.1922   13.7208   16.7901 H   0  0  0  0  0  0  0  0  0  0  0  0
   47.7082   10.5815   17.6778 H   0  0  0  0  0  0  0  0  0  0  0  0
   47.4625    8.2805   20.2157 H   0  0  0  0  0  0  0  0  0  0  0  0
   46.9990    8.6677   20.6223 H   0  0  0  0  0  0  0  0  0  0  0  0
   49.4423    6.4604   17.8102 H   0  0  0  0  0  0  0  0  0  0  0  0
   49.0814   10.8143   16.5785 H   0  0  0  0  0  0  0  0  0  0  0  0
   50.0059    4.8392   19.5872 H   0  0  0  0  0  0  0  0  0  0  0  0
   49.4023   10.0955   18.6754 H   0  0  0  0  0  0  0  0  0  0  0  0
   47.7715   10.5378   19.1927 H   0  0  0  0  0  0  0  0  0  0  0  0
   46.7458    8.7379   17.9120 H   0  0  0  0  0  0  0  0  0  0  0  0
   47.2376    6.1247   22.8967 H   0  0  0  0  0  0  0  0  0  0  0  0
   49.3308    5.5198   22.8672 H   0  0  0  0  0  0  0  0  0  0  0  0
   48.0706    9.0654   16.1449 H   0  0  0  0  0  0  0  0  0  0  0  0
   48.3768   12.9780   16.4976 H   0  0  0  0  0  0  0  0  0  0  0  0
   46.9419   12.5966   19.1714 H   0  0  0  0  0  0  0  0  0  0  0  0
   47.0116   14.0509   18.1708 H   0  0  0  0  0  0  0  0  0  0  0  0
   46.1472   12.6262   17.5839 H   0  0  0  0  0  0  0  0  0  0  0  0
   49.6318   13.9760   18.3192 H   0  0  0  0  0  0  0  0  0  0  0  0
   50.4739   12.5165   17.7953 H   0  0  0  0  0  0  0  0  0  0  0  0
   49.5260   12.5066   19.2949 H   0  0  0  0  0  0  0  0  0  0  0  0
   48.2477    8.7176   19.3658 H   0  0  0  0  0  0  0  0  0  0  0  0
   48.1391   10.1572   18.8667 H   0  0  0  0  0  0  0  0  0  0  0  0
   48.1663    8.7573   19.4042 H   0  0  0  0  0  0  0  0  0  0  0  0
   48.2196   10.1639   18.8105 H   0  0  0  0  0  0  0  0  0  0  0  0
  2  1  2  0
  3  1  1  0
  4  2  1  0
  5  3  2  0
  6  8  1  0
  7  5  1  0
  8  9  1  0
  9  3  1  0
 10  2  1  0
 11  4  1  0
 12  9  1  0
 13  6  1  0
 14 13  1  0
 15 13  1  0
  7  4  2  0
 17 16  2  0
 18 16  2  0
 19 16  1  0
 20 16  1  0
 22 21  2  0
 23 21  1  0
 24 22  1  0
 25 23  2  0
 26 28  1  0
 27 25  1  0
 28 29  1  0
 29 23  1  0
 30 22  1  0
 31 24  1  0
 32 29  1  0
 33 26  1  0
 34 33  1  0
 35 33  1  0
 27 24  2  0
  1 38  1  0
  5 39  1  0
  6 40  1  0
  7 41  1  0
  8 42  1  0
  8 43  1  0
  9 44  1  6
 10 45  1  0
 11 46  1  0
 12 47  1  0
 13 48  1  0
 14 49  1  0
 14 50  1  0
 14 51  1  0
 15 52  1  0
 15 53  1  0
 15 54  1  0
 19 55  1  0
 20 56  1  0
 21 57  1  0
 25 58  1  0
 26 59  1  0
 27 60  1  0
 28 61  1  0
 28 62  1  0
 29 63  1  6
 30 64  1  0
 31 65  1  0
 32 66  1  0
 33 67  1  0
 34 68  1  0
 34 69  1  0
 34 70  1  0
 35 71  1  0
 35 72  1  0
 35 73  1  0
 36 74  1  0
 36 75  1  0
 37 76  1  0
 37 77  1  0
M  END
> <Uni-Dock RESULT> 
ENERGY=   -3.953  LOWER_BOUND=    6.042  UPPER_BOUND=    8.556
INTER + INTRA:          -3.953
INTER:                  -3.953
INTRA:                   0.000
UNBOUND:                 0.000

$$$$
