
     RDKit          3D

 77 74  0  0  0  0  0  0  0  0999 V2000
   45.3955    5.4853   13.2176 C   0  0  0  0  0  0  0  0  0  0  0  0
   44.1439    4.9466   12.9378 C   0  0  0  0  0  0  0  0  0  0  0  0
   45.8761    6.5599   12.4496 C   0  0  0  0  0  0  0  0  0  0  0  0
   43.3680    5.4649   11.9047 C   0  0  0  0  0  0  0  0  0  0  0  0
   45.0773    7.0722   11.4082 C   0  0  0  0  0  0  0  0  0  0  0  0
   48.1528    9.0436   14.2886 N   0  0  0  0  0  0  0  0  0  0  0  0
   43.8238    6.5230   11.1347 C   0  0  0  0  0  0  0  0  0  0  0  0
   47.0861    8.5885   13.3743 C   0  0  0  0  0  0  0  0  0  0  0  0
   47.2321    7.1733   12.7577 C   0  0  2  0  0  0  0  0  0  0  0  0
   43.6295    3.9012   13.6539 O   0  0  0  0  0  0  0  0  0  0  0  0
   42.1383    4.9332   11.6407 O   0  0  0  0  0  0  0  0  0  0  0  0
   47.9796    7.2249   11.5396 O   0  0  0  0  0  0  0  0  0  0  0  0
   49.4694    9.3481   13.7084 C   0  0  0  0  0  0  0  0  0  0  0  0
   49.4508   10.1361   12.3987 C   0  0  0  0  0  0  0  0  0  0  0  0
   50.3679    8.1159   13.6259 C   0  0  0  0  0  0  0  0  0  0  0  0
   46.9961    7.2754   13.1320 S   0  0  0  0  0  0  0  0  0  0  0  0
   46.7700    8.3809   14.0308 O   0  0  0  0  0  0  0  0  0  0  0  0
   46.9998    5.9004   13.5635 O   0  0  0  0  0  0  0  0  0  0  0  0
   45.8971    7.3786   11.9674 O   0  0  0  0  0  0  0  0  0  0  0  0
   48.3494    7.5861   12.3261 O   0  0  0  0  0  0  0  0  0  0  0  0
   44.4675    6.2288   12.9507 C   0  0  0  0  0  0  0  0  0  0  0  0
   43.6614    5.2645   12.3539 C   0  0  0  0  0  0  0  0  0  0  0  0
   45.5825    6.7326   12.2568 C   0  0  0  0  0  0  0  0  0  0  0  0
   43.9544    4.7914   11.0786 C   0  0  0  0  0  0  0  0  0  0  0  0
   45.8578    6.2489   10.9624 C   0  0  0  0  0  0  0  0  0  0  0  0
   48.6750    7.9651   14.2243 N   0  0  0  0  0  0  0  0  0  0  0  0
   45.0453    5.2769   10.3749 C   0  0  0  0  0  0  0  0  0  0  0  0
   47.8712    7.1802   13.2729 C   0  0  0  0  0  0  0  0  0  0  0  0
   46.4792    7.7685   12.9076 C   0  0  1  0  0  0  0  0  0  0  0  0
   42.5645    4.7462   12.9876 O   0  0  0  0  0  0  0  0  0  0  0  0
   43.1609    3.8402   10.5052 O   0  0  0  0  0  0  0  0  0  0  0  0
   46.5636    8.8857   12.0237 O   0  0  0  0  0  0  0  0  0  0  0  0
   49.2159    9.2390   13.7423 C   0  0  0  0  0  0  0  0  0  0  0  0
   49.9223    9.9191   14.9209 C   0  0  0  0  0  0  0  0  0  0  0  0
   50.2081    9.0601   12.5909 C   0  0  0  0  0  0  0  0  0  0  0  0
   47.0328    7.1167   13.0125 O   0  0  0  0  0  0  0  0  0  0  0  0
   47.0313    7.1157   13.0121 O   0  0  0  0  0  0  0  0  0  0  0  0
   46.0004    5.0869   14.0266 H   0  0  0  0  0  0  0  0  0  0  0  0
   45.4332    7.9066   10.8051 H   0  0  0  0  0  0  0  0  0  0  0  0
   47.8138    9.8996   14.7308 H   0  0  0  0  0  0  0  0  0  0  0  0
   43.2081    6.9190   10.3327 H   0  0  0  0  0  0  0  0  0  0  0  0
   46.9162    9.3358   12.5894 H   0  0  0  0  0  0  0  0  0  0  0  0
   46.1766    8.5921   13.9910 H   0  0  0  0  0  0  0  0  0  0  0  0
   47.7758    6.5196   13.4499 H   0  0  0  0  0  0  0  0  0  0  0  0
   44.2850    3.6371   14.3244 H   0  0  0  0  0  0  0  0  0  0  0  0
   42.0318    4.2192   12.3011 H   0  0  0  0  0  0  0  0  0  0  0  0
   47.8103    6.3915   11.0641 H   0  0  0  0  0  0  0  0  0  0  0  0
   49.9542   10.0039   14.4455 H   0  0  0  0  0  0  0  0  0  0  0  0
   49.0771    9.5451   11.5592 H   0  0  0  0  0  0  0  0  0  0  0  0
   50.4630   10.4652   12.1399 H   0  0  0  0  0  0  0  0  0  0  0  0
   48.8288   11.0317   12.4909 H   0  0  0  0  0  0  0  0  0  0  0  0
   51.3937    8.4098   13.3741 H   0  0  0  0  0  0  0  0  0  0  0  0
   50.4072    7.5957   14.5886 H   0  0  0  0  0  0  0  0  0  0  0  0
   50.0451    7.4028   12.8686 H   0  0  0  0  0  0  0  0  0  0  0  0
   45.2131    6.6994   12.1580 H   0  0  0  0  0  0  0  0  0  0  0  0
   48.3078    8.5122   12.0151 H   0  0  0  0  0  0  0  0  0  0  0  0
   44.2409    6.5943   13.9479 H   0  0  0  0  0  0  0  0  0  0  0  0
   46.7056    6.6333   10.3995 H   0  0  0  0  0  0  0  0  0  0  0  0
   48.1232    8.1326   15.0677 H   0  0  0  0  0  0  0  0  0  0  0  0
   45.2588    4.9071    9.3774 H   0  0  0  0  0  0  0  0  0  0  0  0
   47.7125    6.2065   13.7552 H   0  0  0  0  0  0  0  0  0  0  0  0
   48.4549    6.9693   12.3698 H   0  0  0  0  0  0  0  0  0  0  0  0
   45.9967    8.1344   13.8219 H   0  0  0  0  0  0  0  0  0  0  0  0
   42.4450    5.2281   13.8251 H   0  0  0  0  0  0  0  0  0  0  0  0
   42.4557    3.6811   11.1665 H   0  0  0  0  0  0  0  0  0  0  0  0
   47.4483    8.8849   11.6276 H   0  0  0  0  0  0  0  0  0  0  0  0
   48.4064    9.9067   13.4270 H   0  0  0  0  0  0  0  0  0  0  0  0
   49.2216   10.1094   15.7434 H   0  0  0  0  0  0  0  0  0  0  0  0
   50.7439    9.3045   15.3079 H   0  0  0  0  0  0  0  0  0  0  0  0
   50.3417   10.8853   14.6167 H   0  0  0  0  0  0  0  0  0  0  0  0
   51.0043    8.3541   12.8515 H   0  0  0  0  0  0  0  0  0  0  0  0
   50.6807   10.0166   12.3393 H   0  0  0  0  0  0  0  0  0  0  0  0
   49.7173    8.6986   11.6846 H   0  0  0  0  0  0  0  0  0  0  0  0
   47.5036    7.9340   12.7895 H   0  0  0  0  0  0  0  0  0  0  0  0
   46.2634    7.1205   12.4235 H   0  0  0  0  0  0  0  0  0  0  0  0
   47.5053    7.9318   12.7923 H   0  0  0  0  0  0  0  0  0  0  0  0
   46.2633    7.1238   12.4211 H   0  0  0  0  0  0  0  0  0  0  0  0
  2  1  2  0
  3  1  1  0
  4  2  1  0
  5  3  2  0
  6  8  1  0
  7  5  1  0
  8  9  1  0
  9  3  1  0
 10  2  1  0
 11  4  1  0
 12  9  1  0
 13  6  1  0
 14 13  1  0
 15 13  1  0
  7  4  2  0
 17 16  2  0
 18 16  2  0
 19 16  1  0
 20 16  1  0
 22 21  2  0
 23 21  1  0
 24 22  1  0
 25 23  2  0
 26 28  1  0
 27 25  1  0
 28 29  1  0
 29 23  1  0
 30 22  1  0
 31 24  1  0
 32 29  1  0
 33 26  1  0
 34 33  1  0
 35 33  1  0
 27 24  2  0
  1 38  1  0
  5 39  1  0
  6 40  1  0
  7 41  1  0
  8 42  1  0
  8 43  1  0
  9 44  1  6
 10 45  1  0
 11 46  1  0
 12 47  1  0
 13 48  1  0
 14 49  1  0
 14 50  1  0
 14 51  1  0
 15 52  1  0
 15 53  1  0
 15 54  1  0
 19 55  1  0
 20 56  1  0
 21 57  1  0
 25 58  1  0
 26 59  1  0
 27 60  1  0
 28 61  1  0
 28 62  1  0
 29 63  1  1
 30 64  1  0
 31 65  1  0
 32 66  1  0
 33 67  1  0
 34 68  1  0
 34 69  1  0
 34 70  1  0
 35 71  1  0
 35 72  1  0
 35 73  1  0
 36 74  1  0
 36 75  1  0
 37 76  1  0
 37 77  1  0
M  END
> <Uni-Dock RESULT> 
ENERGY=   -6.336  LOWER_BOUND=    0.000  UPPER_BOUND=    0.000
INTER + INTRA:          -6.336
INTER:                  -6.336
INTRA:                   0.000
UNBOUND:                 0.000

$$$$

     RDKit          3D

 77 74  0  0  0  0  0  0  0  0999 V2000
   48.6763    7.0581   12.6281 C   0  0  0  0  0  0  0  0  0  0  0  0
   49.6831    8.0126   12.5272 C   0  0  0  0  0  0  0  0  0  0  0  0
   47.3340    7.4465   12.4759 C   0  0  0  0  0  0  0  0  0  0  0  0
   49.3688    9.3456   12.2771 C   0  0  0  0  0  0  0  0  0  0  0  0
   47.0341    8.7996   12.2227 C   0  0  0  0  0  0  0  0  0  0  0  0
   44.9982    4.8209   10.9316 N   0  0  0  0  0  0  0  0  0  0  0  0
   48.0520    9.7495   12.1254 C   0  0  0  0  0  0  0  0  0  0  0  0
   45.5801    6.1564   11.1743 C   0  0  0  0  0  0  0  0  0  0  0  0
   46.2245    6.4112   12.5615 C   0  0  2  0  0  0  0  0  0  0  0  0
   51.0043    7.6884   12.6671 O   0  0  0  0  0  0  0  0  0  0  0  0
   50.3641   10.2747   12.1744 O   0  0  0  0  0  0  0  0  0  0  0  0
   45.2500    6.8856   13.4945 O   0  0  0  0  0  0  0  0  0  0  0  0
   43.7670    4.4679   11.6542 C   0  0  0  0  0  0  0  0  0  0  0  0
   42.7020    5.5623   11.7242 C   0  0  0  0  0  0  0  0  0  0  0  0
   44.0517    3.8537   13.0233 C   0  0  0  0  0  0  0  0  0  0  0  0
   46.4460    6.2802   12.1873 S   0  0  0  0  0  0  0  0  0  0  0  0
   46.1782    5.8298   10.8432 O   0  0  0  0  0  0  0  0  0  0  0  0
   47.5714    5.8195   12.9605 O   0  0  0  0  0  0  0  0  0  0  0  0
   46.5589    7.8801   12.1376 O   0  0  0  0  0  0  0  0  0  0  0  0
   45.0973    6.0788   13.0345 O   0  0  0  0  0  0  0  0  0  0  0  0
   48.6065    7.9160   11.7653 C   0  0  0  0  0  0  0  0  0  0  0  0
   49.5144    8.7960   12.3461 C   0  0  0  0  0  0  0  0  0  0  0  0
   47.3114    7.7957   12.3008 C   0  0  0  0  0  0  0  0  0  0  0  0
   49.1516    9.5526   13.4560 C   0  0  0  0  0  0  0  0  0  0  0  0
   46.9589    8.5773   13.4188 C   0  0  0  0  0  0  0  0  0  0  0  0
   45.4082    4.4435   11.9943 N   0  0  0  0  0  0  0  0  0  0  0  0
   47.8796    9.4534   13.9975 C   0  0  0  0  0  0  0  0  0  0  0  0
   46.0469    5.6121   12.6221 C   0  0  0  0  0  0  0  0  0  0  0  0
   46.3218    6.8236   11.6874 C   0  0  1  0  0  0  0  0  0  0  0  0
   50.7844    8.9499   11.8595 O   0  0  0  0  0  0  0  0  0  0  0  0
   50.0523   10.4077   14.0223 O   0  0  0  0  0  0  0  0  0  0  0  0
   45.1395    7.5546   11.3643 O   0  0  0  0  0  0  0  0  0  0  0  0
   44.0076    4.5913   11.5894 C   0  0  0  0  0  0  0  0  0  0  0  0
   43.5915    3.2992   10.8766 C   0  0  0  0  0  0  0  0  0  0  0  0
   43.0738    4.8391   12.7764 C   0  0  0  0  0  0  0  0  0  0  0  0
   46.4857    6.3348   12.3777 O   0  0  0  0  0  0  0  0  0  0  0  0
   46.4872    6.3360   12.3779 O   0  0  0  0  0  0  0  0  0  0  0  0
   48.9189    6.0168   12.8173 H   0  0  0  0  0  0  0  0  0  0  0  0
   45.9995    9.1172   12.0993 H   0  0  0  0  0  0  0  0  0  0  0  0
   44.7860    4.7711    9.9337 H   0  0  0  0  0  0  0  0  0  0  0  0
   47.8203   10.7921   11.9290 H   0  0  0  0  0  0  0  0  0  0  0  0
   44.8460    6.9372   10.9405 H   0  0  0  0  0  0  0  0  0  0  0  0
   46.3698    6.2531   10.4162 H   0  0  0  0  0  0  0  0  0  0  0  0
   46.6334    5.4752   12.9600 H   0  0  0  0  0  0  0  0  0  0  0  0
   51.0675    6.7343   12.8535 H   0  0  0  0  0  0  0  0  0  0  0  0
   51.1897    9.7669   12.3078 H   0  0  0  0  0  0  0  0  0  0  0  0
   45.7363    7.2831   14.2394 H   0  0  0  0  0  0  0  0  0  0  0  0
   43.3214    3.6538   11.0651 H   0  0  0  0  0  0  0  0  0  0  0  0
   42.9951    6.3914   12.3725 H   0  0  0  0  0  0  0  0  0  0  0  0
   41.7654    5.1550   12.1200 H   0  0  0  0  0  0  0  0  0  0  0  0
   42.4896    5.9642   10.7288 H   0  0  0  0  0  0  0  0  0  0  0  0
   43.1342    3.4293   13.4475 H   0  0  0  0  0  0  0  0  0  0  0  0
   44.7783    3.0386   12.9424 H   0  0  0  0  0  0  0  0  0  0  0  0
   44.4322    4.5762   13.7440 H   0  0  0  0  0  0  0  0  0  0  0  0
   47.5149    8.1014   12.1890 H   0  0  0  0  0  0  0  0  0  0  0  0
   44.3543    6.4295   12.5042 H   0  0  0  0  0  0  0  0  0  0  0  0
   48.8918    7.3224   10.9018 H   0  0  0  0  0  0  0  0  0  0  0  0
   45.9589    8.5133   13.8424 H   0  0  0  0  0  0  0  0  0  0  0  0
   45.9625    4.1552   11.1859 H   0  0  0  0  0  0  0  0  0  0  0  0
   47.6050   10.0551   14.8576 H   0  0  0  0  0  0  0  0  0  0  0  0
   47.0116    5.2509   13.0026 H   0  0  0  0  0  0  0  0  0  0  0  0
   45.4796    5.9225   13.5066 H   0  0  0  0  0  0  0  0  0  0  0  0
   46.7259    6.4552   10.7369 H   0  0  0  0  0  0  0  0  0  0  0  0
   50.8605    8.4228   11.0445 H   0  0  0  0  0  0  0  0  0  0  0  0
   50.8508   10.3267   13.4603 H   0  0  0  0  0  0  0  0  0  0  0  0
   44.4520    7.3035   11.9998 H   0  0  0  0  0  0  0  0  0  0  0  0
   43.9001    5.4050   10.8635 H   0  0  0  0  0  0  0  0  0  0  0  0
   44.2104    3.1228    9.9880 H   0  0  0  0  0  0  0  0  0  0  0  0
   43.6840    2.4274   11.5354 H   0  0  0  0  0  0  0  0  0  0  0  0
   42.5486    3.3582   10.5439 H   0  0  0  0  0  0  0  0  0  0  0  0
   43.1936    4.0726   13.5498 H   0  0  0  0  0  0  0  0  0  0  0  0
   42.0272    4.8232   12.4513 H   0  0  0  0  0  0  0  0  0  0  0  0
   43.2506    5.8145   13.2351 H   0  0  0  0  0  0  0  0  0  0  0  0
   45.5482    6.2853   12.1372 H   0  0  0  0  0  0  0  0  0  0  0  0
   46.7038    7.2741   12.2807 H   0  0  0  0  0  0  0  0  0  0  0  0
   45.5498    6.2818   12.1382 H   0  0  0  0  0  0  0  0  0  0  0  0
   46.7006    7.2762   12.2795 H   0  0  0  0  0  0  0  0  0  0  0  0
  2  1  2  0
  3  1  1  0
  4  2  1  0
  5  3  2  0
  6  8  1  0
  7  5  1  0
  8  9  1  0
  9  3  1  0
 10  2  1  0
 11  4  1  0
 12  9  1  0
 13  6  1  0
 14 13  1  0
 15 13  1  0
  7  4  2  0
 17 16  2  0
 18 16  2  0
 19 16  1  0
 20 16  1  0
 22 21  2  0
 23 21  1  0
 24 22  1  0
 25 23  2  0
 26 28  1  0
 27 25  1  0
 28 29  1  0
 29 23  1  0
 30 22  1  0
 31 24  1  0
 32 29  1  0
 33 26  1  0
 34 33  1  0
 35 33  1  0
 27 24  2  0
  1 38  1  0
  5 39  1  0
  6 40  1  0
  7 41  1  0
  8 42  1  0
  8 43  1  0
  9 44  1  6
 10 45  1  0
 11 46  1  0
 12 47  1  0
 13 48  1  0
 14 49  1  0
 14 50  1  0
 14 51  1  0
 15 52  1  0
 15 53  1  0
 15 54  1  0
 19 55  1  0
 20 56  1  0
 21 57  1  0
 25 58  1  0
 26 59  1  0
 27 60  1  0
 28 61  1  0
 28 62  1  0
 29 63  1  1
 30 64  1  0
 31 65  1  0
 32 66  1  0
 33 67  1  0
 34 68  1  0
 34 69  1  0
 34 70  1  0
 35 71  1  0
 35 72  1  0
 35 73  1  0
 36 74  1  0
 36 75  1  0
 37 76  1  0
 37 77  1  0
M  END
> <Uni-Dock RESULT> 
ENERGY=   -6.192  LOWER_BOUND=    1.952  UPPER_BOUND=    5.766
INTER + INTRA:          -6.192
INTER:                  -6.192
INTRA:                   0.000
UNBOUND:                 0.000

$$$$

     RDKit          3D

 77 74  0  0  0  0  0  0  0  0999 V2000
   47.5833    9.6142   18.7654 C   0  0  0  0  0  0  0  0  0  0  0  0
   47.2475   10.8338   19.3441 C   0  0  0  0  0  0  0  0  0  0  0  0
   47.9099    8.5222   19.5879 C   0  0  0  0  0  0  0  0  0  0  0  0
   47.2333   10.9772   20.7287 C   0  0  0  0  0  0  0  0  0  0  0  0
   47.8899    8.6851   20.9872 C   0  0  0  0  0  0  0  0  0  0  0  0
   46.9775    5.0595   18.2187 N   0  0  0  0  0  0  0  0  0  0  0  0
   47.5533    9.9137   21.5574 C   0  0  0  0  0  0  0  0  0  0  0  0
   47.1370    6.1345   19.2186 C   0  0  0  0  0  0  0  0  0  0  0  0
   48.2574    7.1775   18.9706 C   0  0  2  0  0  0  0  0  0  0  0  0
   46.9220   11.9273   18.5901 O   0  0  0  0  0  0  0  0  0  0  0  0
   46.8971   12.1767   21.2881 O   0  0  0  0  0  0  0  0  0  0  0  0
   49.4944    6.7384   19.5382 O   0  0  0  0  0  0  0  0  0  0  0  0
   48.0254    4.0304   18.1452 C   0  0  0  0  0  0  0  0  0  0  0  0
   48.5345    3.5052   19.4875 C   0  0  0  0  0  0  0  0  0  0  0  0
   49.1674    4.4286   17.2126 C   0  0  0  0  0  0  0  0  0  0  0  0
   47.8214    7.2248   18.8524 S   0  0  0  0  0  0  0  0  0  0  0  0
   46.6021    6.4564   18.7893 O   0  0  0  0  0  0  0  0  0  0  0  0
   48.1436    8.2656   17.9092 O   0  0  0  0  0  0  0  0  0  0  0  0
   47.8814    7.9008   20.3064 O   0  0  0  0  0  0  0  0  0  0  0  0
   49.0384    6.1808   18.9323 O   0  0  0  0  0  0  0  0  0  0  0  0
   46.8702    9.6342   19.7535 C   0  0  0  0  0  0  0  0  0  0  0  0
   47.2018   10.9230   20.1595 C   0  0  0  0  0  0  0  0  0  0  0  0
   47.7836    8.5833   19.9532 C   0  0  0  0  0  0  0  0  0  0  0  0
   48.4324   11.1798   20.7558 C   0  0  0  0  0  0  0  0  0  0  0  0
   49.0208    8.8605   20.5678 C   0  0  0  0  0  0  0  0  0  0  0  0
   47.8115    5.5733   17.5257 N   0  0  0  0  0  0  0  0  0  0  0  0
   49.3458   10.1588   20.9664 C   0  0  0  0  0  0  0  0  0  0  0  0
   48.3004    6.7417   18.2762 C   0  0  0  0  0  0  0  0  0  0  0  0
   47.4396    7.1789   19.4948 C   0  0  1  0  0  0  0  0  0  0  0  0
   46.3457   11.9773   19.9892 O   0  0  0  0  0  0  0  0  0  0  0  0
   48.7504   12.4492   21.1440 O   0  0  0  0  0  0  0  0  0  0  0  0
   47.5840    6.3090   20.6169 O   0  0  0  0  0  0  0  0  0  0  0  0
   47.8974    4.2723   18.1948 C   0  0  0  0  0  0  0  0  0  0  0  0
   47.2453    3.2332   17.2750 C   0  0  0  0  0  0  0  0  0  0  0  0
   49.3401    3.8548   18.4890 C   0  0  0  0  0  0  0  0  0  0  0  0
   47.9927    7.3318   18.8523 O   0  0  0  0  0  0  0  0  0  0  0  0
   47.9926    7.3336   18.8528 O   0  0  0  0  0  0  0  0  0  0  0  0
   47.5896    9.4979   17.6859 H   0  0  0  0  0  0  0  0  0  0  0  0
   48.1374    7.8484   21.6393 H   0  0  0  0  0  0  0  0  0  0  0  0
   46.1020    4.5819   18.4396 H   0  0  0  0  0  0  0  0  0  0  0  0
   47.5369   10.0383   22.6360 H   0  0  0  0  0  0  0  0  0  0  0  0
   47.2247    5.7058   20.2245 H   0  0  0  0  0  0  0  0  0  0  0  0
   46.1758    6.6669   19.2044 H   0  0  0  0  0  0  0  0  0  0  0  0
   48.4163    7.3045   17.8932 H   0  0  0  0  0  0  0  0  0  0  0  0
   46.9915   11.6828   17.6497 H   0  0  0  0  0  0  0  0  0  0  0  0
   46.7097   12.7601   20.5253 H   0  0  0  0  0  0  0  0  0  0  0  0
   50.0739    7.5192   19.6010 H   0  0  0  0  0  0  0  0  0  0  0  0
   47.5421    3.1747   17.6527 H   0  0  0  0  0  0  0  0  0  0  0  0
   49.1244    4.2468   20.0313 H   0  0  0  0  0  0  0  0  0  0  0  0
   49.1743    2.6295   19.3338 H   0  0  0  0  0  0  0  0  0  0  0  0
   47.7019    3.1944   20.1260 H   0  0  0  0  0  0  0  0  0  0  0  0
   49.8264    3.5713   17.0312 H   0  0  0  0  0  0  0  0  0  0  0  0
   48.7828    4.7527   16.2400 H   0  0  0  0  0  0  0  0  0  0  0  0
   49.7875    5.2284   17.6151 H   0  0  0  0  0  0  0  0  0  0  0  0
   47.6398    8.8465   20.1928 H   0  0  0  0  0  0  0  0  0  0  0  0
   48.8112    5.5054   19.6020 H   0  0  0  0  0  0  0  0  0  0  0  0
   45.9114    9.4353   19.2840 H   0  0  0  0  0  0  0  0  0  0  0  0
   49.7381    8.0625   20.7466 H   0  0  0  0  0  0  0  0  0  0  0  0
   46.8447    5.7409   17.2410 H   0  0  0  0  0  0  0  0  0  0  0  0
   50.2987   10.3693   21.4406 H   0  0  0  0  0  0  0  0  0  0  0  0
   48.3137    7.5698   17.5552 H   0  0  0  0  0  0  0  0  0  0  0  0
   49.3452    6.5912   18.5704 H   0  0  0  0  0  0  0  0  0  0  0  0
   46.3804    7.1450   19.2127 H   0  0  0  0  0  0  0  0  0  0  0  0
   45.5062   11.6300   19.6390 H   0  0  0  0  0  0  0  0  0  0  0  0
   47.9551   12.9772   20.9233 H   0  0  0  0  0  0  0  0  0  0  0  0
   48.3829    5.7773   20.4797 H   0  0  0  0  0  0  0  0  0  0  0  0
   47.3215    4.2795   19.1269 H   0  0  0  0  0  0  0  0  0  0  0  0
   46.1921    3.4779   17.0891 H   0  0  0  0  0  0  0  0  0  0  0  0
   47.7576    3.1731   16.3073 H   0  0  0  0  0  0  0  0  0  0  0  0
   47.2753    2.2373   17.7321 H   0  0  0  0  0  0  0  0  0  0  0  0
   49.9611    3.8888   17.5871 H   0  0  0  0  0  0  0  0  0  0  0  0
   49.3718    2.8300   18.8764 H   0  0  0  0  0  0  0  0  0  0  0  0
   49.8023    4.4955   19.2433 H   0  0  0  0  0  0  0  0  0  0  0  0
   48.0657    6.4146   19.1566 H   0  0  0  0  0  0  0  0  0  0  0  0
   47.9149    7.8453   19.6704 H   0  0  0  0  0  0  0  0  0  0  0  0
   48.0658    6.4150   19.1526 H   0  0  0  0  0  0  0  0  0  0  0  0
   47.9150    7.8429   19.6736 H   0  0  0  0  0  0  0  0  0  0  0  0
  2  1  2  0
  3  1  1  0
  4  2  1  0
  5  3  2  0
  6  8  1  0
  7  5  1  0
  8  9  1  0
  9  3  1  0
 10  2  1  0
 11  4  1  0
 12  9  1  0
 13  6  1  0
 14 13  1  0
 15 13  1  0
  7  4  2  0
 17 16  2  0
 18 16  2  0
 19 16  1  0
 20 16  1  0
 22 21  2  0
 23 21  1  0
 24 22  1  0
 25 23  2  0
 26 28  1  0
 27 25  1  0
 28 29  1  0
 29 23  1  0
 30 22  1  0
 31 24  1  0
 32 29  1  0
 33 26  1  0
 34 33  1  0
 35 33  1  0
 27 24  2  0
  1 38  1  0
  5 39  1  0
  6 40  1  0
  7 41  1  0
  8 42  1  0
  8 43  1  0
  9 44  1  6
 10 45  1  0
 11 46  1  0
 12 47  1  0
 13 48  1  0
 14 49  1  0
 14 50  1  0
 14 51  1  0
 15 52  1  0
 15 53  1  0
 15 54  1  0
 19 55  1  0
 20 56  1  0
 21 57  1  0
 25 58  1  0
 26 59  1  0
 27 60  1  0
 28 61  1  0
 28 62  1  0
 29 63  1  1
 30 64  1  0
 31 65  1  0
 32 66  1  0
 33 67  1  0
 34 68  1  0
 34 69  1  0
 34 70  1  0
 35 71  1  0
 35 72  1  0
 35 73  1  0
 36 74  1  0
 36 75  1  0
 37 76  1  0
 37 77  1  0
M  END
> <Uni-Dock RESULT> 
ENERGY=   -5.520  LOWER_BOUND=    6.187  UPPER_BOUND=    8.662
INTER + INTRA:          -5.520
INTER:                  -5.520
INTRA:                   0.000
UNBOUND:                 0.000

$$$$

     RDKit          3D

 77 74  0  0  0  0  0  0  0  0999 V2000
   45.6014    5.7299   10.8786 C   0  0  0  0  0  0  0  0  0  0  0  0
   44.6564    4.7626   10.5525 C   0  0  0  0  0  0  0  0  0  0  0  0
   45.8904    5.9902   12.2293 C   0  0  0  0  0  0  0  0  0  0  0  0
   43.9982    4.0538   11.5537 C   0  0  0  0  0  0  0  0  0  0  0  0
   45.2151    5.2631   13.2295 C   0  0  0  0  0  0  0  0  0  0  0  0
   49.4928    7.0757   12.9897 N   0  0  0  0  0  0  0  0  0  0  0  0
   44.2674    4.2961   12.8912 C   0  0  0  0  0  0  0  0  0  0  0  0
   48.2126    6.3643   13.1791 C   0  0  0  0  0  0  0  0  0  0  0  0
   46.9363    7.0285   12.6007 C   0  0  2  0  0  0  0  0  0  0  0  0
   44.3380    4.4706    9.2550 O   0  0  0  0  0  0  0  0  0  0  0  0
   43.0760    3.1023   11.2239 O   0  0  0  0  0  0  0  0  0  0  0  0
   46.3525    7.9212   13.5533 O   0  0  0  0  0  0  0  0  0  0  0  0
   49.7045    8.3194   13.7454 C   0  0  0  0  0  0  0  0  0  0  0  0
   49.2677    8.2882   15.2100 C   0  0  0  0  0  0  0  0  0  0  0  0
   49.1664    9.5453   13.0105 C   0  0  0  0  0  0  0  0  0  0  0  0
   47.1877    6.7130   12.3922 S   0  0  0  0  0  0  0  0  0  0  0  0
   48.4427    6.0184   12.5455 O   0  0  0  0  0  0  0  0  0  0  0  0
   46.6307    7.0542   11.1076 O   0  0  0  0  0  0  0  0  0  0  0  0
   46.0704    5.8470   13.1514 O   0  0  0  0  0  0  0  0  0  0  0  0
   47.2557    8.0276   13.3112 O   0  0  0  0  0  0  0  0  0  0  0  0
   45.5761    4.6814   11.4993 C   0  0  0  0  0  0  0  0  0  0  0  0
   44.2857    4.3132   11.1317 C   0  0  0  0  0  0  0  0  0  0  0  0
   45.7666    5.6955   12.4552 C   0  0  0  0  0  0  0  0  0  0  0  0
   43.1836    4.9454   11.6987 C   0  0  0  0  0  0  0  0  0  0  0  0
   44.6385    6.3175   13.0258 C   0  0  0  0  0  0  0  0  0  0  0  0
   48.9412    7.8991   12.3134 N   0  0  0  0  0  0  0  0  0  0  0  0
   43.3477    5.9441   12.6457 C   0  0  0  0  0  0  0  0  0  0  0  0
   47.5135    7.5396   12.3187 C   0  0  0  0  0  0  0  0  0  0  0  0
   47.1698    6.1182   12.8466 C   0  0  1  0  0  0  0  0  0  0  0  0
   44.0496    3.3307   10.2086 O   0  0  0  0  0  0  0  0  0  0  0  0
   41.9220    4.5813   11.3258 O   0  0  0  0  0  0  0  0  0  0  0  0
   47.2741    6.0132   14.2660 O   0  0  0  0  0  0  0  0  0  0  0  0
   49.5770    8.1082   13.6171 C   0  0  0  0  0  0  0  0  0  0  0  0
   51.0676    8.3692   13.3701 C   0  0  0  0  0  0  0  0  0  0  0  0
   48.9756    9.2883   14.3838 C   0  0  0  0  0  0  0  0  0  0  0  0
   47.0157    6.8151   12.3641 O   0  0  0  0  0  0  0  0  0  0  0  0
   47.0143    6.8141   12.3634 O   0  0  0  0  0  0  0  0  0  0  0  0
   46.1205    6.2802   10.0998 H   0  0  0  0  0  0  0  0  0  0  0  0
   45.4291    5.4502   14.2810 H   0  0  0  0  0  0  0  0  0  0  0  0
   50.2318    6.4267   13.2657 H   0  0  0  0  0  0  0  0  0  0  0  0
   43.7481    3.7351   13.6625 H   0  0  0  0  0  0  0  0  0  0  0  0
   48.0716    6.1143   14.2378 H   0  0  0  0  0  0  0  0  0  0  0  0
   48.3532    5.4047   12.6624 H   0  0  0  0  0  0  0  0  0  0  0  0
   47.1928    7.6173   11.7121 H   0  0  0  0  0  0  0  0  0  0  0  0
   44.8602    5.0518    8.6731 H   0  0  0  0  0  0  0  0  0  0  0  0
   43.0597    3.1038   10.2457 H   0  0  0  0  0  0  0  0  0  0  0  0
   45.4380    8.0916   13.2632 H   0  0  0  0  0  0  0  0  0  0  0  0
   50.7953    8.4542   13.7611 H   0  0  0  0  0  0  0  0  0  0  0  0
   48.1814    8.2557   15.3227 H   0  0  0  0  0  0  0  0  0  0  0  0
   49.6223    9.1843   15.7305 H   0  0  0  0  0  0  0  0  0  0  0  0
   49.6917    7.4208   15.7252 H   0  0  0  0  0  0  0  0  0  0  0  0
   49.5082   10.4636   13.5023 H   0  0  0  0  0  0  0  0  0  0  0  0
   49.5328    9.5748   11.9791 H   0  0  0  0  0  0  0  0  0  0  0  0
   48.0782    9.5833   12.9844 H   0  0  0  0  0  0  0  0  0  0  0  0
   45.5552    5.3752   12.4604 H   0  0  0  0  0  0  0  0  0  0  0  0
   47.6037    7.7645   14.1863 H   0  0  0  0  0  0  0  0  0  0  0  0
   46.4360    4.1907   11.0530 H   0  0  0  0  0  0  0  0  0  0  0  0
   44.7592    7.0942   13.7779 H   0  0  0  0  0  0  0  0  0  0  0  0
   49.4618    7.1881   11.7964 H   0  0  0  0  0  0  0  0  0  0  0  0
   42.4806    6.4238   13.0877 H   0  0  0  0  0  0  0  0  0  0  0  0
   47.1912    7.5998   11.2707 H   0  0  0  0  0  0  0  0  0  0  0  0
   46.9339    8.3035   12.8488 H   0  0  0  0  0  0  0  0  0  0  0  0
   47.8876    5.4010   12.4308 H   0  0  0  0  0  0  0  0  0  0  0  0
   44.9047    2.9327    9.9669 H   0  0  0  0  0  0  0  0  0  0  0  0
   42.0588    3.8546   10.6830 H   0  0  0  0  0  0  0  0  0  0  0  0
   47.2830    6.9115   14.6305 H   0  0  0  0  0  0  0  0  0  0  0  0
   49.5088    7.2018   14.2289 H   0  0  0  0  0  0  0  0  0  0  0  0
   51.5390    7.5150   12.8683 H   0  0  0  0  0  0  0  0  0  0  0  0
   51.2237    9.2589   12.7485 H   0  0  0  0  0  0  0  0  0  0  0  0
   51.5961    8.5259   14.3177 H   0  0  0  0  0  0  0  0  0  0  0  0
   48.9768   10.2029   13.7807 H   0  0  0  0  0  0  0  0  0  0  0  0
   49.5527    9.4890   15.2938 H   0  0  0  0  0  0  0  0  0  0  0  0
   47.9479    9.0886   14.6952 H   0  0  0  0  0  0  0  0  0  0  0  0
   47.5250    7.0509   13.1542 H   0  0  0  0  0  0  0  0  0  0  0  0
   46.3504    6.1909   12.6909 H   0  0  0  0  0  0  0  0  0  0  0  0
   47.5262    7.0527   13.1509 H   0  0  0  0  0  0  0  0  0  0  0  0
   46.3508    6.1903   12.6949 H   0  0  0  0  0  0  0  0  0  0  0  0
  2  1  2  0
  3  1  1  0
  4  2  1  0
  5  3  2  0
  6  8  1  0
  7  5  1  0
  8  9  1  0
  9  3  1  0
 10  2  1  0
 11  4  1  0
 12  9  1  0
 13  6  1  0
 14 13  1  0
 15 13  1  0
  7  4  2  0
 17 16  2  0
 18 16  2  0
 19 16  1  0
 20 16  1  0
 22 21  2  0
 23 21  1  0
 24 22  1  0
 25 23  2  0
 26 28  1  0
 27 25  1  0
 28 29  1  0
 29 23  1  0
 30 22  1  0
 31 24  1  0
 32 29  1  0
 33 26  1  0
 34 33  1  0
 35 33  1  0
 27 24  2  0
  1 38  1  0
  5 39  1  0
  6 40  1  0
  7 41  1  0
  8 42  1  0
  8 43  1  0
  9 44  1  6
 10 45  1  0
 11 46  1  0
 12 47  1  0
 13 48  1  0
 14 49  1  0
 14 50  1  0
 14 51  1  0
 15 52  1  0
 15 53  1  0
 15 54  1  0
 19 55  1  0
 20 56  1  0
 21 57  1  0
 25 58  1  0
 26 59  1  0
 27 60  1  0
 28 61  1  0
 28 62  1  0
 29 63  1  1
 30 64  1  0
 31 65  1  0
 32 66  1  0
 33 67  1  0
 34 68  1  0
 34 69  1  0
 34 70  1  0
 35 71  1  0
 35 72  1  0
 35 73  1  0
 36 74  1  0
 36 75  1  0
 37 76  1  0
 37 77  1  0
M  END
> <Uni-Dock RESULT> 
ENERGY=   -5.504  LOWER_BOUND=    1.166  UPPER_BOUND=    2.273
INTER + INTRA:          -5.504
INTER:                  -5.504
INTRA:                   0.000
UNBOUND:                 0.000

$$$$

     RDKit          3D

 77 74  0  0  0  0  0  0  0  0999 V2000
   47.4975    8.7721   13.9281 C   0  0  0  0  0  0  0  0  0  0  0  0
   48.6543    9.3425   14.4489 C   0  0  0  0  0  0  0  0  0  0  0  0
   47.5933    7.6363   13.1056 C   0  0  0  0  0  0  0  0  0  0  0  0
   49.9017    8.7959   14.1604 C   0  0  0  0  0  0  0  0  0  0  0  0
   48.8638    7.0961   12.8245 C   0  0  0  0  0  0  0  0  0  0  0  0
   44.6534    5.1762   13.3023 N   0  0  0  0  0  0  0  0  0  0  0  0
   50.0183    7.6775   13.3506 C   0  0  0  0  0  0  0  0  0  0  0  0
   46.0598    5.6189   13.2188 C   0  0  0  0  0  0  0  0  0  0  0  0
   46.3366    6.9889   12.5473 C   0  0  2  0  0  0  0  0  0  0  0  0
   48.6172   10.4474   15.2539 O   0  0  0  0  0  0  0  0  0  0  0  0
   51.0316    9.3595   14.6805 O   0  0  0  0  0  0  0  0  0  0  0  0
   46.5090    6.8367   11.1358 O   0  0  0  0  0  0  0  0  0  0  0  0
   43.9819    4.7865   12.0533 C   0  0  0  0  0  0  0  0  0  0  0  0
   44.8070    3.9248   11.0976 C   0  0  0  0  0  0  0  0  0  0  0  0
   43.3364    5.9754   11.3445 C   0  0  0  0  0  0  0  0  0  0  0  0
   46.2880    6.9181   12.9933 S   0  0  0  0  0  0  0  0  0  0  0  0
   45.9000    5.8768   13.9131 O   0  0  0  0  0  0  0  0  0  0  0  0
   46.0241    8.3148   13.2313 O   0  0  0  0  0  0  0  0  0  0  0  0
   47.8724    6.7907   12.7736 O   0  0  0  0  0  0  0  0  0  0  0  0
   45.7282    6.5078   11.5457 O   0  0  0  0  0  0  0  0  0  0  0  0
   48.3861    8.0515   14.3481 C   0  0  0  0  0  0  0  0  0  0  0  0
   49.3937    9.0104   14.3150 C   0  0  0  0  0  0  0  0  0  0  0  0
   47.9421    7.4644   13.1495 C   0  0  0  0  0  0  0  0  0  0  0  0
   49.9602    9.3963   13.1041 C   0  0  0  0  0  0  0  0  0  0  0  0
   48.5345    7.8605   11.9340 C   0  0  0  0  0  0  0  0  0  0  0  0
   44.2903    6.2275   12.8522 N   0  0  0  0  0  0  0  0  0  0  0  0
   49.5413    8.8279   11.9114 C   0  0  0  0  0  0  0  0  0  0  0  0
   45.5157    6.9868   12.5532 C   0  0  0  0  0  0  0  0  0  0  0  0
   46.8296    6.4337   13.1736 C   0  0  1  0  0  0  0  0  0  0  0  0
   49.8610    9.6078   15.4543 O   0  0  0  0  0  0  0  0  0  0  0  0
   50.9433   10.3430   13.0822 O   0  0  0  0  0  0  0  0  0  0  0  0
   47.3075    5.2643   12.5097 O   0  0  0  0  0  0  0  0  0  0  0  0
   44.1599    4.9074   12.2295 C   0  0  0  0  0  0  0  0  0  0  0  0
   42.8699    4.2698   12.7588 C   0  0  0  0  0  0  0  0  0  0  0  0
   44.1003    4.9794   10.7019 C   0  0  0  0  0  0  0  0  0  0  0  0
   46.3344    7.0680   12.8660 O   0  0  0  0  0  0  0  0  0  0  0  0
   46.3359    7.0691   12.8666 O   0  0  0  0  0  0  0  0  0  0  0  0
   46.5228    9.1928   14.1562 H   0  0  0  0  0  0  0  0  0  0  0  0
   48.9558    6.2146   12.1913 H   0  0  0  0  0  0  0  0  0  0  0  0
   44.6391    4.3614   13.9182 H   0  0  0  0  0  0  0  0  0  0  0  0
   50.9971    7.2600   13.1346 H   0  0  0  0  0  0  0  0  0  0  0  0
   46.6771    4.8344   12.7640 H   0  0  0  0  0  0  0  0  0  0  0  0
   46.3881    5.6873   14.2653 H   0  0  0  0  0  0  0  0  0  0  0  0
   45.4839    7.6599   12.7043 H   0  0  0  0  0  0  0  0  0  0  0  0
   47.6883   10.7241   15.3518 H   0  0  0  0  0  0  0  0  0  0  0  0
   50.7079   10.1144   15.2121 H   0  0  0  0  0  0  0  0  0  0  0  0
   46.9418    7.6470   10.8111 H   0  0  0  0  0  0  0  0  0  0  0  0
   43.1403    4.1562   12.3738 H   0  0  0  0  0  0  0  0  0  0  0  0
   45.6251    4.4802   10.6328 H   0  0  0  0  0  0  0  0  0  0  0  0
   44.1738    3.5414   10.2902 H   0  0  0  0  0  0  0  0  0  0  0  0
   45.2318    3.0613   11.6188 H   0  0  0  0  0  0  0  0  0  0  0  0
   42.6884    5.6270   10.5316 H   0  0  0  0  0  0  0  0  0  0  0  0
   42.7096    6.5489   12.0351 H   0  0  0  0  0  0  0  0  0  0  0  0
   44.0641    6.6553   10.9035 H   0  0  0  0  0  0  0  0  0  0  0  0
   48.2930    7.5064   13.2994 H   0  0  0  0  0  0  0  0  0  0  0  0
   45.9493    5.5674   11.3938 H   0  0  0  0  0  0  0  0  0  0  0  0
   47.9412    7.7541   15.2931 H   0  0  0  0  0  0  0  0  0  0  0  0
   48.2189    7.4107   10.9951 H   0  0  0  0  0  0  0  0  0  0  0  0
   44.1968    6.1315   13.8650 H   0  0  0  0  0  0  0  0  0  0  0  0
   49.9967    9.1302   10.9742 H   0  0  0  0  0  0  0  0  0  0  0  0
   45.3452    7.9924   12.9599 H   0  0  0  0  0  0  0  0  0  0  0  0
   45.6218    7.1214   11.4710 H   0  0  0  0  0  0  0  0  0  0  0  0
   46.6367    6.1411   14.2128 H   0  0  0  0  0  0  0  0  0  0  0  0
   49.4309    9.1807   16.2163 H   0  0  0  0  0  0  0  0  0  0  0  0
   51.0848   10.5682   14.0253 H   0  0  0  0  0  0  0  0  0  0  0  0
   46.8613    5.2070   11.6510 H   0  0  0  0  0  0  0  0  0  0  0  0
   44.9862    4.2549   12.5328 H   0  0  0  0  0  0  0  0  0  0  0  0
   42.9059    4.1556   13.8494 H   0  0  0  0  0  0  0  0  0  0  0  0
   41.9893    4.8730   12.5077 H   0  0  0  0  0  0  0  0  0  0  0  0
   42.7257    3.2717   12.3288 H   0  0  0  0  0  0  0  0  0  0  0  0
   43.3187    5.6674   10.3614 H   0  0  0  0  0  0  0  0  0  0  0  0
   43.8817    3.9920   10.2793 H   0  0  0  0  0  0  0  0  0  0  0  0
   45.0504    5.3066   10.2736 H   0  0  0  0  0  0  0  0  0  0  0  0
   46.1003    6.2212   12.4570 H   0  0  0  0  0  0  0  0  0  0  0  0
   47.3033    7.0602   12.8841 H   0  0  0  0  0  0  0  0  0  0  0  0
   46.0972    6.2234   12.4580 H   0  0  0  0  0  0  0  0  0  0  0  0
   47.3048    7.0568   12.8826 H   0  0  0  0  0  0  0  0  0  0  0  0
  2  1  2  0
  3  1  1  0
  4  2  1  0
  5  3  2  0
  6  8  1  0
  7  5  1  0
  8  9  1  0
  9  3  1  0
 10  2  1  0
 11  4  1  0
 12  9  1  0
 13  6  1  0
 14 13  1  0
 15 13  1  0
  7  4  2  0
 17 16  2  0
 18 16  2  0
 19 16  1  0
 20 16  1  0
 22 21  2  0
 23 21  1  0
 24 22  1  0
 25 23  2  0
 26 28  1  0
 27 25  1  0
 28 29  1  0
 29 23  1  0
 30 22  1  0
 31 24  1  0
 32 29  1  0
 33 26  1  0
 34 33  1  0
 35 33  1  0
 27 24  2  0
  1 38  1  0
  5 39  1  0
  6 40  1  0
  7 41  1  0
  8 42  1  0
  8 43  1  0
  9 44  1  6
 10 45  1  0
 11 46  1  0
 12 47  1  0
 13 48  1  0
 14 49  1  0
 14 50  1  0
 14 51  1  0
 15 52  1  0
 15 53  1  0
 15 54  1  0
 19 55  1  0
 20 56  1  0
 21 57  1  0
 25 58  1  0
 26 59  1  0
 27 60  1  0
 28 61  1  0
 28 62  1  0
 29 63  1  1
 30 64  1  0
 31 65  1  0
 32 66  1  0
 33 67  1  0
 34 68  1  0
 34 69  1  0
 34 70  1  0
 35 71  1  0
 35 72  1  0
 35 73  1  0
 36 74  1  0
 36 75  1  0
 37 76  1  0
 37 77  1  0
M  END
> <Uni-Dock RESULT> 
ENERGY=   -5.481  LOWER_BOUND=    1.865  UPPER_BOUND=    5.742
INTER + INTRA:          -5.481
INTER:                  -5.481
INTRA:                   0.000
UNBOUND:                 0.000

$$$$

     RDKit          3D

 77 74  0  0  0  0  0  0  0  0999 V2000
   44.6696    7.2950   12.3099 C   0  0  0  0  0  0  0  0  0  0  0  0
   43.7919    6.4292   11.6658 C   0  0  0  0  0  0  0  0  0  0  0  0
   45.9907    6.8851   12.5596 C   0  0  0  0  0  0  0  0  0  0  0  0
   44.2142    5.1635   11.2687 C   0  0  0  0  0  0  0  0  0  0  0  0
   46.4012    5.6009   12.1504 C   0  0  0  0  0  0  0  0  0  0  0  0
   48.6400    9.6624   12.5162 N   0  0  0  0  0  0  0  0  0  0  0  0
   45.5118    4.7394   11.5066 C   0  0  0  0  0  0  0  0  0  0  0  0
   48.0505    8.3338   12.2548 C   0  0  0  0  0  0  0  0  0  0  0  0
   46.9674    7.8283   13.2426 C   0  0  2  0  0  0  0  0  0  0  0  0
   42.4968    6.7780   11.3989 O   0  0  0  0  0  0  0  0  0  0  0  0
   43.3472    4.3223   10.6322 O   0  0  0  0  0  0  0  0  0  0  0  0
   47.5653    7.1274   14.3364 O   0  0  0  0  0  0  0  0  0  0  0  0
   49.5272    9.8018   13.6808 C   0  0  0  0  0  0  0  0  0  0  0  0
   50.5320    8.6687   13.8886 C   0  0  0  0  0  0  0  0  0  0  0  0
   48.7606   10.1329   14.9596 C   0  0  0  0  0  0  0  0  0  0  0  0
   46.8879    8.0437   12.8508 S   0  0  0  0  0  0  0  0  0  0  0  0
   47.5976    8.7489   11.8115 O   0  0  0  0  0  0  0  0  0  0  0  0
   45.5490    8.3863   13.2593 O   0  0  0  0  0  0  0  0  0  0  0  0
   46.8480    6.4954   12.4313 O   0  0  0  0  0  0  0  0  0  0  0  0
   47.8456    8.0038   14.1386 O   0  0  0  0  0  0  0  0  0  0  0  0
   45.0643    6.6312   11.3671 C   0  0  0  0  0  0  0  0  0  0  0  0
   44.0371    5.6931   11.3956 C   0  0  0  0  0  0  0  0  0  0  0  0
   46.0840    6.5788   12.3346 C   0  0  0  0  0  0  0  0  0  0  0  0
   44.0090    4.7080   12.3778 C   0  0  0  0  0  0  0  0  0  0  0  0
   46.0442    5.5680   13.3154 C   0  0  0  0  0  0  0  0  0  0  0  0
   47.8712    9.8310   13.4219 N   0  0  0  0  0  0  0  0  0  0  0  0
   45.0057    4.6348   13.3383 C   0  0  0  0  0  0  0  0  0  0  0  0
   47.0882    8.5888   13.5272 C   0  0  0  0  0  0  0  0  0  0  0  0
   47.1963    7.6099   12.3242 C   0  0  1  0  0  0  0  0  0  0  0  0
   43.0247    5.7014   10.4746 O   0  0  0  0  0  0  0  0  0  0  0  0
   42.9930    3.7968   12.4008 O   0  0  0  0  0  0  0  0  0  0  0  0
   48.4382    6.9077   12.2901 O   0  0  0  0  0  0  0  0  0  0  0  0
   49.3286    9.7056   13.5116 C   0  0  0  0  0  0  0  0  0  0  0  0
   49.9296   11.0965   13.2766 C   0  0  0  0  0  0  0  0  0  0  0  0
   49.7922    9.1757   14.8704 C   0  0  0  0  0  0  0  0  0  0  0  0
   46.7854    7.9529   12.9993 O   0  0  0  0  0  0  0  0  0  0  0  0
   46.7840    7.9518   12.9987 O   0  0  0  0  0  0  0  0  0  0  0  0
   44.3447    8.2849   12.6155 H   0  0  0  0  0  0  0  0  0  0  0  0
   47.4222    5.2684   12.3334 H   0  0  0  0  0  0  0  0  0  0  0  0
   49.1881    9.9071   11.6897 H   0  0  0  0  0  0  0  0  0  0  0  0
   45.8291    3.7502   11.1904 H   0  0  0  0  0  0  0  0  0  0  0  0
   48.8432    7.5850   12.1350 H   0  0  0  0  0  0  0  0  0  0  0  0
   47.5813    8.4319   11.2660 H   0  0  0  0  0  0  0  0  0  0  0  0
   46.4164    8.6798   13.6591 H   0  0  0  0  0  0  0  0  0  0  0  0
   42.3433    7.6750   11.7464 H   0  0  0  0  0  0  0  0  0  0  0  0
   42.5125    4.8290   10.5712 H   0  0  0  0  0  0  0  0  0  0  0  0
   46.8603    6.6076   14.7633 H   0  0  0  0  0  0  0  0  0  0  0  0
   50.1267   10.6986   13.4692 H   0  0  0  0  0  0  0  0  0  0  0  0
   50.0548    7.7381   14.2046 H   0  0  0  0  0  0  0  0  0  0  0  0
   51.2568    8.9422   14.6630 H   0  0  0  0  0  0  0  0  0  0  0  0
   51.0930    8.4714   12.9700 H   0  0  0  0  0  0  0  0  0  0  0  0
   49.4570   10.4181   15.7570 H   0  0  0  0  0  0  0  0  0  0  0  0
   48.0847   10.9797   14.8020 H   0  0  0  0  0  0  0  0  0  0  0  0
   48.1730    9.2956   15.3334 H   0  0  0  0  0  0  0  0  0  0  0  0
   45.9422    6.3124   12.0974 H   0  0  0  0  0  0  0  0  0  0  0  0
   48.7379    7.7362   13.8411 H   0  0  0  0  0  0  0  0  0  0  0  0
   45.0832    7.4026   10.6030 H   0  0  0  0  0  0  0  0  0  0  0  0
   46.8288    5.4973   14.0656 H   0  0  0  0  0  0  0  0  0  0  0  0
   47.6283   10.3050   12.5501 H   0  0  0  0  0  0  0  0  0  0  0  0
   44.9781    3.8566   14.0939 H   0  0  0  0  0  0  0  0  0  0  0  0
   46.0409    8.9077   13.6125 H   0  0  0  0  0  0  0  0  0  0  0  0
   47.3172    8.0769   14.4686 H   0  0  0  0  0  0  0  0  0  0  0  0
   47.1414    8.1847   11.3919 H   0  0  0  0  0  0  0  0  0  0  0  0
   43.2243    6.3882    9.8140 H   0  0  0  0  0  0  0  0  0  0  0  0
   42.4411    4.0286   11.6251 H   0  0  0  0  0  0  0  0  0  0  0  0
   48.8503    6.9905   13.1636 H   0  0  0  0  0  0  0  0  0  0  0  0
   49.7090    9.0551   12.7162 H   0  0  0  0  0  0  0  0  0  0  0  0
   49.6578   11.4805   12.2855 H   0  0  0  0  0  0  0  0  0  0  0  0
   49.5850   11.8169   14.0281 H   0  0  0  0  0  0  0  0  0  0  0  0
   51.0241   11.0594   13.3255 H   0  0  0  0  0  0  0  0  0  0  0  0
   49.3849    9.7709   15.6950 H   0  0  0  0  0  0  0  0  0  0  0  0
   50.8853    9.2102   14.9433 H   0  0  0  0  0  0  0  0  0  0  0  0
   49.4949    8.1358   15.0235 H   0  0  0  0  0  0  0  0  0  0  0  0
   47.7456    8.0078   13.1183 H   0  0  0  0  0  0  0  0  0  0  0  0
   46.6438    7.0649   12.6380 H   0  0  0  0  0  0  0  0  0  0  0  0
   47.7437    8.0111   13.1194 H   0  0  0  0  0  0  0  0  0  0  0  0
   46.6473    7.0629   12.6376 H   0  0  0  0  0  0  0  0  0  0  0  0
  2  1  2  0
  3  1  1  0
  4  2  1  0
  5  3  2  0
  6  8  1  0
  7  5  1  0
  8  9  1  0
  9  3  1  0
 10  2  1  0
 11  4  1  0
 12  9  1  0
 13  6  1  0
 14 13  1  0
 15 13  1  0
  7  4  2  0
 17 16  2  0
 18 16  2  0
 19 16  1  0
 20 16  1  0
 22 21  2  0
 23 21  1  0
 24 22  1  0
 25 23  2  0
 26 28  1  0
 27 25  1  0
 28 29  1  0
 29 23  1  0
 30 22  1  0
 31 24  1  0
 32 29  1  0
 33 26  1  0
 34 33  1  0
 35 33  1  0
 27 24  2  0
  1 38  1  0
  5 39  1  0
  6 40  1  0
  7 41  1  0
  8 42  1  0
  8 43  1  0
  9 44  1  6
 10 45  1  0
 11 46  1  0
 12 47  1  0
 13 48  1  0
 14 49  1  0
 14 50  1  0
 14 51  1  0
 15 52  1  0
 15 53  1  0
 15 54  1  0
 19 55  1  0
 20 56  1  0
 21 57  1  0
 25 58  1  0
 26 59  1  0
 27 60  1  0
 28 61  1  0
 28 62  1  0
 29 63  1  1
 30 64  1  0
 31 65  1  0
 32 66  1  0
 33 67  1  0
 34 68  1  0
 34 69  1  0
 34 70  1  0
 35 71  1  0
 35 72  1  0
 35 73  1  0
 36 74  1  0
 36 75  1  0
 37 76  1  0
 37 77  1  0
M  END
> <Uni-Dock RESULT> 
ENERGY=   -5.351  LOWER_BOUND=    1.019  UPPER_BOUND=    1.993
INTER + INTRA:          -5.351
INTER:                  -5.351
INTRA:                   0.000
UNBOUND:                 0.000

$$$$

     RDKit          3D

 77 74  0  0  0  0  0  0  0  0999 V2000
   47.3823    5.0400   18.5825 C   0  0  0  0  0  0  0  0  0  0  0  0
   47.5866    3.9257   17.7753 C   0  0  0  0  0  0  0  0  0  0  0  0
   48.3357    6.0727   18.5943 C   0  0  0  0  0  0  0  0  0  0  0  0
   48.7265    3.8290   16.9820 C   0  0  0  0  0  0  0  0  0  0  0  0
   49.4832    5.9584   17.7848 C   0  0  0  0  0  0  0  0  0  0  0  0
   46.9648    9.6078   19.1926 N   0  0  0  0  0  0  0  0  0  0  0  0
   49.6793    4.8351   16.9801 C   0  0  0  0  0  0  0  0  0  0  0  0
   47.8014    8.5524   18.5865 C   0  0  0  0  0  0  0  0  0  0  0  0
   48.1155    7.3063   19.4543 C   0  0  2  0  0  0  0  0  0  0  0  0
   46.6910    2.8933   17.7267 O   0  0  0  0  0  0  0  0  0  0  0  0
   48.9160    2.7339   16.1887 O   0  0  0  0  0  0  0  0  0  0  0  0
   49.2953    7.5157   20.2350 O   0  0  0  0  0  0  0  0  0  0  0  0
   47.5533   10.4132   20.2731 C   0  0  0  0  0  0  0  0  0  0  0  0
   48.9949   10.8703   20.0500 C   0  0  0  0  0  0  0  0  0  0  0  0
   47.3581    9.7750   21.6468 C   0  0  0  0  0  0  0  0  0  0  0  0
   47.7769    7.3404   19.1535 S   0  0  0  0  0  0  0  0  0  0  0  0
   47.1267    8.3269   18.3259 O   0  0  0  0  0  0  0  0  0  0  0  0
   47.0775    6.2294   19.7479 O   0  0  0  0  0  0  0  0  0  0  0  0
   48.9720    6.7090   18.2887 O   0  0  0  0  0  0  0  0  0  0  0  0
   48.5865    8.1324   20.2914 O   0  0  0  0  0  0  0  0  0  0  0  0
   47.8221    5.1871   17.4555 C   0  0  0  0  0  0  0  0  0  0  0  0
   48.2373    3.8712   17.2767 C   0  0  0  0  0  0  0  0  0  0  0  0
   48.5683    6.0480   18.2805 C   0  0  0  0  0  0  0  0  0  0  0  0
   49.3814    3.4002   17.9131 C   0  0  0  0  0  0  0  0  0  0  0  0
   49.7296    5.5561   18.9087 C   0  0  0  0  0  0  0  0  0  0  0  0
   46.7944    8.9227   20.1628 N   0  0  0  0  0  0  0  0  0  0  0  0
   50.1343    4.2320   18.7269 C   0  0  0  0  0  0  0  0  0  0  0  0
   47.5927    7.7048   19.9460 C   0  0  0  0  0  0  0  0  0  0  0  0
   48.1119    7.4780   18.4983 C   0  0  1  0  0  0  0  0  0  0  0  0
   47.5465    2.9969   16.4819 O   0  0  0  0  0  0  0  0  0  0  0  0
   49.7759    2.1054   17.7364 O   0  0  0  0  0  0  0  0  0  0  0  0
   49.1997    8.3368   18.1579 O   0  0  0  0  0  0  0  0  0  0  0  0
   47.5060   10.2021   20.0984 C   0  0  0  0  0  0  0  0  0  0  0  0
   46.4672   11.3194   20.2510 C   0  0  0  0  0  0  0  0  0  0  0  0
   48.5665   10.3425   21.1929 C   0  0  0  0  0  0  0  0  0  0  0  0
   47.8609    7.2024   19.2749 O   0  0  0  0  0  0  0  0  0  0  0  0
   47.8611    7.2007   19.2742 O   0  0  0  0  0  0  0  0  0  0  0  0
   46.4913    5.1208   19.1978 H   0  0  0  0  0  0  0  0  0  0  0  0
   50.2306    6.7508   17.7797 H   0  0  0  0  0  0  0  0  0  0  0  0
   46.7148   10.2513   18.4398 H   0  0  0  0  0  0  0  0  0  0  0  0
   50.5633    4.7482   16.3555 H   0  0  0  0  0  0  0  0  0  0  0  0
   48.7256    8.9860   18.1850 H   0  0  0  0  0  0  0  0  0  0  0  0
   47.2265    8.2148   17.7129 H   0  0  0  0  0  0  0  0  0  0  0  0
   47.2893    7.1191   20.1503 H   0  0  0  0  0  0  0  0  0  0  0  0
   45.9610    3.0918   18.3405 H   0  0  0  0  0  0  0  0  0  0  0  0
   48.1290    2.1750   16.3483 H   0  0  0  0  0  0  0  0  0  0  0  0
   49.5983    6.6402   20.5367 H   0  0  0  0  0  0  0  0  0  0  0  0
   46.9487   11.3309   20.2981 H   0  0  0  0  0  0  0  0  0  0  0  0
   49.7092   10.0455   20.1045 H   0  0  0  0  0  0  0  0  0  0  0  0
   49.2831   11.6014   20.8130 H   0  0  0  0  0  0  0  0  0  0  0  0
   49.1041   11.3544   19.0747 H   0  0  0  0  0  0  0  0  0  0  0  0
   47.6320   10.4836   22.4374 H   0  0  0  0  0  0  0  0  0  0  0  0
   46.3096    9.5022   21.8056 H   0  0  0  0  0  0  0  0  0  0  0  0
   47.9659    8.8831   21.7929 H   0  0  0  0  0  0  0  0  0  0  0  0
   48.6698    5.8246   17.9853 H   0  0  0  0  0  0  0  0  0  0  0  0
   49.0788    8.8585   19.8594 H   0  0  0  0  0  0  0  0  0  0  0  0
   46.9265    5.5528   16.9622 H   0  0  0  0  0  0  0  0  0  0  0  0
   50.3319    6.2061   19.5398 H   0  0  0  0  0  0  0  0  0  0  0  0
   46.0195    8.9359   19.4970 H   0  0  0  0  0  0  0  0  0  0  0  0
   51.0298    3.8561   19.2108 H   0  0  0  0  0  0  0  0  0  0  0  0
   46.9294    6.8686   20.2039 H   0  0  0  0  0  0  0  0  0  0  0  0
   48.4163    7.6600   20.6674 H   0  0  0  0  0  0  0  0  0  0  0  0
   47.3055    7.7068   17.7912 H   0  0  0  0  0  0  0  0  0  0  0  0
   46.8273    3.4888   16.0474 H   0  0  0  0  0  0  0  0  0  0  0  0
   49.1183    1.7341   17.1121 H   0  0  0  0  0  0  0  0  0  0  0  0
   49.5599    8.7004   18.9811 H   0  0  0  0  0  0  0  0  0  0  0  0
   47.9743   10.3336   19.1166 H   0  0  0  0  0  0  0  0  0  0  0  0
   45.7220   11.2767   19.4469 H   0  0  0  0  0  0  0  0  0  0  0  0
   45.9391   11.2509   21.2096 H   0  0  0  0  0  0  0  0  0  0  0  0
   46.9466   12.3041   20.2025 H   0  0  0  0  0  0  0  0  0  0  0  0
   48.1445   10.1628   22.1878 H   0  0  0  0  0  0  0  0  0  0  0  0
   48.9907   11.3532   21.1890 H   0  0  0  0  0  0  0  0  0  0  0  0
   49.3962    9.6476   21.0457 H   0  0  0  0  0  0  0  0  0  0  0  0
   48.2292    8.0970   19.3311 H   0  0  0  0  0  0  0  0  0  0  0  0
   48.4622    6.7381   18.6733 H   0  0  0  0  0  0  0  0  0  0  0  0
   48.2259    8.0965   19.3333 H   0  0  0  0  0  0  0  0  0  0  0  0
   48.4652    6.7405   18.6721 H   0  0  0  0  0  0  0  0  0  0  0  0
  2  1  2  0
  3  1  1  0
  4  2  1  0
  5  3  2  0
  6  8  1  0
  7  5  1  0
  8  9  1  0
  9  3  1  0
 10  2  1  0
 11  4  1  0
 12  9  1  0
 13  6  1  0
 14 13  1  0
 15 13  1  0
  7  4  2  0
 17 16  2  0
 18 16  2  0
 19 16  1  0
 20 16  1  0
 22 21  2  0
 23 21  1  0
 24 22  1  0
 25 23  2  0
 26 28  1  0
 27 25  1  0
 28 29  1  0
 29 23  1  0
 30 22  1  0
 31 24  1  0
 32 29  1  0
 33 26  1  0
 34 33  1  0
 35 33  1  0
 27 24  2  0
  1 38  1  0
  5 39  1  0
  6 40  1  0
  7 41  1  0
  8 42  1  0
  8 43  1  0
  9 44  1  6
 10 45  1  0
 11 46  1  0
 12 47  1  0
 13 48  1  0
 14 49  1  0
 14 50  1  0
 14 51  1  0
 15 52  1  0
 15 53  1  0
 15 54  1  0
 19 55  1  0
 20 56  1  0
 21 57  1  0
 25 58  1  0
 26 59  1  0
 27 60  1  0
 28 61  1  0
 28 62  1  0
 29 63  1  1
 30 64  1  0
 31 65  1  0
 32 66  1  0
 33 67  1  0
 34 68  1  0
 34 69  1  0
 34 70  1  0
 35 71  1  0
 35 72  1  0
 35 73  1  0
 36 74  1  0
 36 75  1  0
 37 76  1  0
 37 77  1  0
M  END
> <Uni-Dock RESULT> 
ENERGY=   -4.946  LOWER_BOUND=    5.975  UPPER_BOUND=    7.157
INTER + INTRA:          -4.946
INTER:                  -4.946
INTRA:                   0.000
UNBOUND:                 0.000

$$$$

     RDKit          3D

 77 74  0  0  0  0  0  0  0  0999 V2000
   46.9079   11.0310   21.0206 C   0  0  0  0  0  0  0  0  0  0  0  0
   47.0146   12.3453   20.5777 C   0  0  0  0  0  0  0  0  0  0  0  0
   47.8509   10.0778   20.5990 C   0  0  0  0  0  0  0  0  0  0  0  0
   48.0471   12.7196   19.7222 C   0  0  0  0  0  0  0  0  0  0  0  0
   48.8896   10.4742   19.7335 C   0  0  0  0  0  0  0  0  0  0  0  0
   48.6392    7.2818   23.1080 N   0  0  0  0  0  0  0  0  0  0  0  0
   48.9862   11.7952   19.2936 C   0  0  0  0  0  0  0  0  0  0  0  0
   48.9053    8.3121   22.0840 C   0  0  0  0  0  0  0  0  0  0  0  0
   47.7602    8.6430   21.0921 C   0  0  2  0  0  0  0  0  0  0  0  0
   46.1241   13.3114   20.9572 O   0  0  0  0  0  0  0  0  0  0  0  0
   48.1470   14.0133   19.2968 O   0  0  0  0  0  0  0  0  0  0  0  0
   47.8112    7.7811   19.9521 O   0  0  0  0  0  0  0  0  0  0  0  0
   48.5189    5.8859   22.6611 C   0  0  0  0  0  0  0  0  0  0  0  0
   49.5508    5.4283   21.6302 C   0  0  0  0  0  0  0  0  0  0  0  0
   47.0932    5.5287   22.2459 C   0  0  0  0  0  0  0  0  0  0  0  0
   47.8507    8.8683   21.4759 S   0  0  0  0  0  0  0  0  0  0  0  0
   48.6847    8.7666   22.6486 O   0  0  0  0  0  0  0  0  0  0  0  0
   46.5327    9.4507   21.4975 O   0  0  0  0  0  0  0  0  0  0  0  0
   48.6835    9.6804   20.3706 O   0  0  0  0  0  0  0  0  0  0  0  0
   47.7783    7.4070   20.8151 O   0  0  0  0  0  0  0  0  0  0  0  0
   48.0053   11.5577   20.9610 C   0  0  0  0  0  0  0  0  0  0  0  0
   47.6380   12.5875   20.1005 C   0  0  0  0  0  0  0  0  0  0  0  0
   48.1707   10.2543   20.4585 C   0  0  0  0  0  0  0  0  0  0  0  0
   47.4275   12.3353   18.7485 C   0  0  0  0  0  0  0  0  0  0  0  0
   47.9630   10.0200   19.0848 C   0  0  0  0  0  0  0  0  0  0  0  0
   47.4967    7.2115   22.7478 N   0  0  0  0  0  0  0  0  0  0  0  0
   47.5891   11.0597   18.2309 C   0  0  0  0  0  0  0  0  0  0  0  0
   47.3759    8.1238   21.5986 C   0  0  0  0  0  0  0  0  0  0  0  0
   48.5505    9.1213   21.3927 C   0  0  1  0  0  0  0  0  0  0  0  0
   47.4676   13.8719   20.5415 O   0  0  0  0  0  0  0  0  0  0  0  0
   47.0605   13.3515   17.9143 O   0  0  0  0  0  0  0  0  0  0  0  0
   49.7213    8.4986   20.8655 O   0  0  0  0  0  0  0  0  0  0  0  0
   48.5175    6.1640   22.6581 C   0  0  0  0  0  0  0  0  0  0  0  0
   48.5283    5.4106   23.9935 C   0  0  0  0  0  0  0  0  0  0  0  0
   48.2498    5.1758   21.5205 C   0  0  0  0  0  0  0  0  0  0  0  0
   47.7269    8.8801   21.3168 O   0  0  0  0  0  0  0  0  0  0  0  0
   47.7266    8.8819   21.3161 O   0  0  0  0  0  0  0  0  0  0  0  0
   46.1070   10.7375   21.6925 H   0  0  0  0  0  0  0  0  0  0  0  0
   49.6305    9.7491   19.3994 H   0  0  0  0  0  0  0  0  0  0  0  0
   49.4160    7.3197   23.7701 H   0  0  0  0  0  0  0  0  0  0  0  0
   49.7876   12.1004   18.6275 H   0  0  0  0  0  0  0  0  0  0  0  0
   49.8295    8.0770   21.5419 H   0  0  0  0  0  0  0  0  0  0  0  0
   49.1213    9.2222   22.6607 H   0  0  0  0  0  0  0  0  0  0  0  0
   46.7898    8.4885   21.5784 H   0  0  0  0  0  0  0  0  0  0  0  0
   45.4557   12.9018   21.5356 H   0  0  0  0  0  0  0  0  0  0  0  0
   47.3958   14.4718   19.7244 H   0  0  0  0  0  0  0  0  0  0  0  0
   47.2692    8.1945   19.2559 H   0  0  0  0  0  0  0  0  0  0  0  0
   48.7105    5.2867   23.5626 H   0  0  0  0  0  0  0  0  0  0  0  0
   49.3969    5.8876   20.6509 H   0  0  0  0  0  0  0  0  0  0  0  0
   49.4941    4.3430   21.4931 H   0  0  0  0  0  0  0  0  0  0  0  0
   50.5662    5.6637   21.9634 H   0  0  0  0  0  0  0  0  0  0  0  0
   46.9984    4.4455   22.1058 H   0  0  0  0  0  0  0  0  0  0  0  0
   46.3762    5.8189   23.0209 H   0  0  0  0  0  0  0  0  0  0  0  0
   46.7907    5.9992   21.3114 H   0  0  0  0  0  0  0  0  0  0  0  0
   48.3167   10.5917   20.3481 H   0  0  0  0  0  0  0  0  0  0  0  0
   48.6871    7.0477   20.7803 H   0  0  0  0  0  0  0  0  0  0  0  0
   48.1650   11.7543   22.0170 H   0  0  0  0  0  0  0  0  0  0  0  0
   48.0989    9.0239   18.6692 H   0  0  0  0  0  0  0  0  0  0  0  0
   47.6538    7.7614   23.5945 H   0  0  0  0  0  0  0  0  0  0  0  0
   47.4310   10.8767   17.1731 H   0  0  0  0  0  0  0  0  0  0  0  0
   46.4632    8.7067   21.7806 H   0  0  0  0  0  0  0  0  0  0  0  0
   47.1829    7.5538   20.6829 H   0  0  0  0  0  0  0  0  0  0  0  0
   48.8355    9.5407   22.3650 H   0  0  0  0  0  0  0  0  0  0  0  0
   47.7265   13.9050   21.4795 H   0  0  0  0  0  0  0  0  0  0  0  0
   47.0394   14.1435   18.4908 H   0  0  0  0  0  0  0  0  0  0  0  0
   49.4618    7.6388   20.5006 H   0  0  0  0  0  0  0  0  0  0  0  0
   49.5126    6.6052   22.5326 H   0  0  0  0  0  0  0  0  0  0  0  0
   48.7711    6.0850   24.8241 H   0  0  0  0  0  0  0  0  0  0  0  0
   47.5567    4.9473   24.2031 H   0  0  0  0  0  0  0  0  0  0  0  0
   49.2832    4.6158   23.9845 H   0  0  0  0  0  0  0  0  0  0  0  0
   47.2405    4.7543   21.5824 H   0  0  0  0  0  0  0  0  0  0  0  0
   48.9613    4.3430   21.5600 H   0  0  0  0  0  0  0  0  0  0  0  0
   48.3619    5.6450   20.5405 H   0  0  0  0  0  0  0  0  0  0  0  0
   48.3096    8.1063   21.3440 H   0  0  0  0  0  0  0  0  0  0  0  0
   48.1924    9.5047   20.7403 H   0  0  0  0  0  0  0  0  0  0  0  0
   48.3063    8.1059   21.3461 H   0  0  0  0  0  0  0  0  0  0  0  0
   48.1959    9.5032   20.7390 H   0  0  0  0  0  0  0  0  0  0  0  0
  2  1  2  0
  3  1  1  0
  4  2  1  0
  5  3  2  0
  6  8  1  0
  7  5  1  0
  8  9  1  0
  9  3  1  0
 10  2  1  0
 11  4  1  0
 12  9  1  0
 13  6  1  0
 14 13  1  0
 15 13  1  0
  7  4  2  0
 17 16  2  0
 18 16  2  0
 19 16  1  0
 20 16  1  0
 22 21  2  0
 23 21  1  0
 24 22  1  0
 25 23  2  0
 26 28  1  0
 27 25  1  0
 28 29  1  0
 29 23  1  0
 30 22  1  0
 31 24  1  0
 32 29  1  0
 33 26  1  0
 34 33  1  0
 35 33  1  0
 27 24  2  0
  1 38  1  0
  5 39  1  0
  6 40  1  0
  7 41  1  0
  8 42  1  0
  8 43  1  0
  9 44  1  6
 10 45  1  0
 11 46  1  0
 12 47  1  0
 13 48  1  0
 14 49  1  0
 14 50  1  0
 14 51  1  0
 15 52  1  0
 15 53  1  0
 15 54  1  0
 19 55  1  0
 20 56  1  0
 21 57  1  0
 25 58  1  0
 26 59  1  0
 27 60  1  0
 28 61  1  0
 28 62  1  0
 29 63  1  1
 30 64  1  0
 31 65  1  0
 32 66  1  0
 33 67  1  0
 34 68  1  0
 34 69  1  0
 34 70  1  0
 35 71  1  0
 35 72  1  0
 35 73  1  0
 36 74  1  0
 36 75  1  0
 37 76  1  0
 37 77  1  0
M  END
> <Uni-Dock RESULT> 
ENERGY=   -4.938  LOWER_BOUND=    7.915  UPPER_BOUND=    9.950
INTER + INTRA:          -4.938
INTER:                  -4.938
INTRA:                   0.000
UNBOUND:                 0.000

$$$$
