
     RDKit          3D

 77 74  0  0  0  0  0  0  0  0999 V2000
   48.1269    9.3959   12.1113 C   0  0  0  0  0  0  0  0  0  0  0  0
   49.1088   10.1585   11.4802 C   0  0  0  0  0  0  0  0  0  0  0  0
   48.4605    8.1699   12.7129 C   0  0  0  0  0  0  0  0  0  0  0  0
   50.4280    9.7101   11.4391 C   0  0  0  0  0  0  0  0  0  0  0  0
   49.7922    7.7290   12.6624 C   0  0  0  0  0  0  0  0  0  0  0  0
   45.5094    5.7507   13.0527 N   0  0  0  0  0  0  0  0  0  0  0  0
   50.7737    8.4966   12.0286 C   0  0  0  0  0  0  0  0  0  0  0  0
   46.4706    6.6301   12.3669 C   0  0  0  0  0  0  0  0  0  0  0  0
   47.4024    7.3231   13.3901 C   0  0  2  0  0  0  0  0  0  0  0  0
   48.7865   11.3526   10.8986 O   0  0  0  0  0  0  0  0  0  0  0  0
   51.3760   10.4706   10.8144 O   0  0  0  0  0  0  0  0  0  0  0  0
   46.6203    8.1502   14.2644 O   0  0  0  0  0  0  0  0  0  0  0  0
   44.5166    5.1626   12.1498 C   0  0  0  0  0  0  0  0  0  0  0  0
   43.8725    3.9790   12.8752 C   0  0  0  0  0  0  0  0  0  0  0  0
   43.4363    6.1641   11.7353 C   0  0  0  0  0  0  0  0  0  0  0  0
   47.3526    7.1357   12.3916 S   0  0  0  0  0  0  0  0  0  0  0  0
   47.6250    6.5896   13.6969 O   0  0  0  0  0  0  0  0  0  0  0  0
   48.2764    7.0747   11.2875 O   0  0  0  0  0  0  0  0  0  0  0  0
   46.9526    8.6799   12.5627 O   0  0  0  0  0  0  0  0  0  0  0  0
   45.9560    6.5037   11.9189 O   0  0  0  0  0  0  0  0  0  0  0  0
   48.2647    9.8507   12.3774 C   0  0  0  0  0  0  0  0  0  0  0  0
   49.5562   10.3638   12.4374 C   0  0  0  0  0  0  0  0  0  0  0  0
   48.0511    8.4994   12.0327 C   0  0  0  0  0  0  0  0  0  0  0  0
   50.6470    9.5517   12.1532 C   0  0  0  0  0  0  0  0  0  0  0  0
   49.1709    7.6958   11.7517 C   0  0  0  0  0  0  0  0  0  0  0  0
   45.0101    6.0814   11.5304 N   0  0  0  0  0  0  0  0  0  0  0  0
   50.4663    8.2217   11.8119 C   0  0  0  0  0  0  0  0  0  0  0  0
   46.4269    6.4930   11.6034 C   0  0  0  0  0  0  0  0  0  0  0  0
   46.6195    7.9925   11.9709 C   0  0  1  0  0  0  0  0  0  0  0  0
   49.8016   11.6665   12.7731 O   0  0  0  0  0  0  0  0  0  0  0  0
   51.9126   10.0597   12.2091 O   0  0  0  0  0  0  0  0  0  0  0  0
   46.0028    8.2450   13.2420 O   0  0  0  0  0  0  0  0  0  0  0  0
   44.5683    5.3121   12.7021 C   0  0  0  0  0  0  0  0  0  0  0  0
   45.0556    3.8637   12.6167 C   0  0  0  0  0  0  0  0  0  0  0  0
   43.0376    5.3338   12.7567 C   0  0  0  0  0  0  0  0  0  0  0  0
   47.1819    7.0299   12.4235 O   0  0  0  0  0  0  0  0  0  0  0  0
   47.1678    7.0198   12.4231 O   0  0  0  0  0  0  0  0  0  0  0  0
   47.0974    9.7436   12.1450 H   0  0  0  0  0  0  0  0  0  0  0  0
   50.0749    6.7805   13.1148 H   0  0  0  0  0  0  0  0  0  0  0  0
   45.0493    6.2988   13.7849 H   0  0  0  0  0  0  0  0  0  0  0  0
   51.7960    8.1323   12.0026 H   0  0  0  0  0  0  0  0  0  0  0  0
   47.0683    6.0417   11.6608 H   0  0  0  0  0  0  0  0  0  0  0  0
   45.9330    7.3997   11.8017 H   0  0  0  0  0  0  0  0  0  0  0  0
   47.8825    6.5659   14.0228 H   0  0  0  0  0  0  0  0  0  0  0  0
   47.8361   11.5120   11.0073 H   0  0  0  0  0  0  0  0  0  0  0  0
   52.2360   10.0295   10.8890 H   0  0  0  0  0  0  0  0  0  0  0  0
   47.2507    8.7129   14.7479 H   0  0  0  0  0  0  0  0  0  0  0  0
   45.0124    4.7715   11.2522 H   0  0  0  0  0  0  0  0  0  0  0  0
   43.3407    4.2984   13.7788 H   0  0  0  0  0  0  0  0  0  0  0  0
   43.1529    3.4713   12.2237 H   0  0  0  0  0  0  0  0  0  0  0  0
   44.6277    3.2414   13.1685 H   0  0  0  0  0  0  0  0  0  0  0  0
   42.6726    5.6722   11.1231 H   0  0  0  0  0  0  0  0  0  0  0  0
   42.9365    6.5990   12.6087 H   0  0  0  0  0  0  0  0  0  0  0  0
   43.8499    6.9828   11.1387 H   0  0  0  0  0  0  0  0  0  0  0  0
   47.0642    9.1055   11.6874 H   0  0  0  0  0  0  0  0  0  0  0  0
   45.4467    6.2919   12.7286 H   0  0  0  0  0  0  0  0  0  0  0  0
   47.4079   10.4841   12.5954 H   0  0  0  0  0  0  0  0  0  0  0  0
   49.0654    6.6500   11.4755 H   0  0  0  0  0  0  0  0  0  0  0  0
   44.4366    6.9261   11.4585 H   0  0  0  0  0  0  0  0  0  0  0  0
   51.3272    7.5972   11.5919 H   0  0  0  0  0  0  0  0  0  0  0  0
   46.9796    5.8653   12.3131 H   0  0  0  0  0  0  0  0  0  0  0  0
   46.8625    6.3147   10.6122 H   0  0  0  0  0  0  0  0  0  0  0  0
   46.0849    8.5982   11.2270 H   0  0  0  0  0  0  0  0  0  0  0  0
   48.9521   12.0869   12.9913 H   0  0  0  0  0  0  0  0  0  0  0  0
   51.7896   10.9922   12.4788 H   0  0  0  0  0  0  0  0  0  0  0  0
   46.6075    7.8918   13.9183 H   0  0  0  0  0  0  0  0  0  0  0  0
   44.9411    5.7700   13.6265 H   0  0  0  0  0  0  0  0  0  0  0  0
   44.6881    3.2844   13.4711 H   0  0  0  0  0  0  0  0  0  0  0  0
   44.6965    3.3749   11.7038 H   0  0  0  0  0  0  0  0  0  0  0  0
   46.1484    3.7987   12.6267 H   0  0  0  0  0  0  0  0  0  0  0  0
   42.6735    4.7700   13.6231 H   0  0  0  0  0  0  0  0  0  0  0  0
   42.5956    4.8902   11.8572 H   0  0  0  0  0  0  0  0  0  0  0  0
   42.6607    6.3586   12.8485 H   0  0  0  0  0  0  0  0  0  0  0  0
   47.4516    7.9508   12.2891 H   0  0  0  0  0  0  0  0  0  0  0  0
   46.2266    7.0398   12.2618 H   0  0  0  0  0  0  0  0  0  0  0  0
   47.4771    7.9295   12.2975 H   0  0  0  0  0  0  0  0  0  0  0  0
   46.2151    7.0712   12.2538 H   0  0  0  0  0  0  0  0  0  0  0  0
  2  1  2  0
  3  1  1  0
  4  2  1  0
  5  3  2  0
  6  8  1  0
  7  5  1  0
  8  9  1  0
  9  3  1  0
 10  2  1  0
 11  4  1  0
 12  9  1  0
 13  6  1  0
 14 13  1  0
 15 13  1  0
  7  4  2  0
 17 16  2  0
 18 16  2  0
 19 16  1  0
 20 16  1  0
 22 21  2  0
 23 21  1  0
 24 22  1  0
 25 23  2  0
 26 28  1  0
 27 25  1  0
 28 29  1  0
 29 23  1  0
 30 22  1  0
 31 24  1  0
 32 29  1  0
 33 26  1  0
 34 33  1  0
 35 33  1  0
 27 24  2  0
  1 38  1  0
  5 39  1  0
  6 40  1  0
  7 41  1  0
  8 42  1  0
  8 43  1  0
  9 44  1  6
 10 45  1  0
 11 46  1  0
 12 47  1  0
 13 48  1  0
 14 49  1  0
 14 50  1  0
 14 51  1  0
 15 52  1  0
 15 53  1  0
 15 54  1  0
 19 55  1  0
 20 56  1  0
 21 57  1  0
 25 58  1  0
 26 59  1  0
 27 60  1  0
 28 61  1  0
 28 62  1  0
 29 63  1  1
 30 64  1  0
 31 65  1  0
 32 66  1  0
 33 67  1  0
 34 68  1  0
 34 69  1  0
 34 70  1  0
 35 71  1  0
 35 72  1  0
 35 73  1  0
 36 74  1  0
 36 75  1  0
 37 76  1  0
 37 77  1  0
M  END
> <Uni-Dock RESULT> 
ENERGY=   -5.784  LOWER_BOUND=    0.000  UPPER_BOUND=    0.000
INTER + INTRA:          -5.784
INTER:                  -5.784
INTRA:                   0.000
UNBOUND:                 0.000

$$$$

     RDKit          3D

 77 74  0  0  0  0  0  0  0  0999 V2000
   45.7692    5.4647   12.7999 C   0  0  0  0  0  0  0  0  0  0  0  0
   44.8712    4.4964   12.3529 C   0  0  0  0  0  0  0  0  0  0  0  0
   45.5420    6.8237   12.5210 C   0  0  0  0  0  0  0  0  0  0  0  0
   43.7426    4.8683   11.6240 C   0  0  0  0  0  0  0  0  0  0  0  0
   44.4029    7.1843   11.7843 C   0  0  0  0  0  0  0  0  0  0  0  0
   48.7115    8.9748   12.5831 N   0  0  0  0  0  0  0  0  0  0  0  0
   43.5050    6.2104   11.3377 C   0  0  0  0  0  0  0  0  0  0  0  0
   47.8240    7.8787   12.1607 C   0  0  0  0  0  0  0  0  0  0  0  0
   46.5158    7.8863   12.9878 C   0  0  2  0  0  0  0  0  0  0  0  0
   45.0889    3.1752   12.6270 O   0  0  0  0  0  0  0  0  0  0  0  0
   42.8749    3.9047   11.1928 O   0  0  0  0  0  0  0  0  0  0  0  0
   46.8253    7.6712   14.3728 O   0  0  0  0  0  0  0  0  0  0  0  0
   50.0205    8.9459   11.9256 C   0  0  0  0  0  0  0  0  0  0  0  0
   50.6637   10.3221   12.1105 C   0  0  0  0  0  0  0  0  0  0  0  0
   50.9398    7.8651   12.4989 C   0  0  0  0  0  0  0  0  0  0  0  0
   46.8862    7.4867   12.1289 S   0  0  0  0  0  0  0  0  0  0  0  0
   46.3735    8.6702   12.7712 O   0  0  0  0  0  0  0  0  0  0  0  0
   46.3496    6.9395   10.9087 O   0  0  0  0  0  0  0  0  0  0  0  0
   46.8887    6.2913   13.1987 O   0  0  0  0  0  0  0  0  0  0  0  0
   48.4595    7.7265   11.9274 O   0  0  0  0  0  0  0  0  0  0  0  0
   45.4694    5.2366   13.1934 C   0  0  0  0  0  0  0  0  0  0  0  0
   44.1369    4.8648   13.0483 C   0  0  0  0  0  0  0  0  0  0  0  0
   46.0500    6.1651   12.3039 C   0  0  0  0  0  0  0  0  0  0  0  0
   43.3673    5.4002   12.0230 C   0  0  0  0  0  0  0  0  0  0  0  0
   45.2506    6.6958   11.2752 C   0  0  0  0  0  0  0  0  0  0  0  0
   49.5434    7.8461   11.7405 N   0  0  0  0  0  0  0  0  0  0  0  0
   43.9117    6.3134   11.1355 C   0  0  0  0  0  0  0  0  0  0  0  0
   48.1111    7.5680   11.5091 C   0  0  0  0  0  0  0  0  0  0  0  0
   47.5128    6.5285   12.5001 C   0  0  1  0  0  0  0  0  0  0  0  0
   43.5393    3.9722   13.8946 O   0  0  0  0  0  0  0  0  0  0  0  0
   42.0613    5.0299   11.8813 O   0  0  0  0  0  0  0  0  0  0  0  0
   47.6744    7.0144   13.8409 O   0  0  0  0  0  0  0  0  0  0  0  0
   49.7835    9.1291   12.4158 C   0  0  0  0  0  0  0  0  0  0  0  0
   49.6548   10.2941   11.4314 C   0  0  0  0  0  0  0  0  0  0  0  0
   51.1952    9.1161   13.0101 C   0  0  0  0  0  0  0  0  0  0  0  0
   47.0589    7.5896   12.1596 O   0  0  0  0  0  0  0  0  0  0  0  0
   47.0743    7.5975   12.1591 O   0  0  0  0  0  0  0  0  0  0  0  0
   46.6500    5.1772   13.3689 H   0  0  0  0  0  0  0  0  0  0  0  0
   44.2078    8.2289   11.5497 H   0  0  0  0  0  0  0  0  0  0  0  0
   48.8185    8.9181   13.5998 H   0  0  0  0  0  0  0  0  0  0  0  0
   42.6322    6.5157   10.7690 H   0  0  0  0  0  0  0  0  0  0  0  0
   47.5892    7.9857   11.0951 H   0  0  0  0  0  0  0  0  0  0  0  0
   48.3271    6.9160   12.3052 H   0  0  0  0  0  0  0  0  0  0  0  0
   46.0446    8.8752   12.9227 H   0  0  0  0  0  0  0  0  0  0  0  0
   45.9135    3.0873   13.1296 H   0  0  0  0  0  0  0  0  0  0  0  0
   42.1414    4.3272   10.7203 H   0  0  0  0  0  0  0  0  0  0  0  0
   45.9801    7.4824   14.8176 H   0  0  0  0  0  0  0  0  0  0  0  0
   49.8944    8.7807   10.8481 H   0  0  0  0  0  0  0  0  0  0  0  0
   50.8368   10.5496   13.1686 H   0  0  0  0  0  0  0  0  0  0  0  0
   51.6287   10.3705   11.5942 H   0  0  0  0  0  0  0  0  0  0  0  0
   50.0279   11.1108   11.6932 H   0  0  0  0  0  0  0  0  0  0  0  0
   51.9316    7.9214   12.0371 H   0  0  0  0  0  0  0  0  0  0  0  0
   51.0675    7.9802   13.5816 H   0  0  0  0  0  0  0  0  0  0  0  0
   50.5518    6.8599   12.3083 H   0  0  0  0  0  0  0  0  0  0  0  0
   46.9449    5.4531   12.6946 H   0  0  0  0  0  0  0  0  0  0  0  0
   48.7494    8.3438   12.6307 H   0  0  0  0  0  0  0  0  0  0  0  0
   46.0763    4.8169   13.9923 H   0  0  0  0  0  0  0  0  0  0  0  0
   45.6467    7.4101   10.5583 H   0  0  0  0  0  0  0  0  0  0  0  0
   49.9237    7.0944   12.3217 H   0  0  0  0  0  0  0  0  0  0  0  0
   43.2997    6.7247   10.3382 H   0  0  0  0  0  0  0  0  0  0  0  0
   47.5231    8.4932   11.5452 H   0  0  0  0  0  0  0  0  0  0  0  0
   48.0235    7.1729   10.4892 H   0  0  0  0  0  0  0  0  0  0  0  0
   48.0982    5.6030   12.4196 H   0  0  0  0  0  0  0  0  0  0  0  0
   44.1838    3.7298   14.5815 H   0  0  0  0  0  0  0  0  0  0  0  0
   41.9045    4.4023   12.6154 H   0  0  0  0  0  0  0  0  0  0  0  0
   46.9899    7.6936   13.9739 H   0  0  0  0  0  0  0  0  0  0  0  0
   49.0754    9.2681   13.2420 H   0  0  0  0  0  0  0  0  0  0  0  0
   49.8762   11.2441   11.9304 H   0  0  0  0  0  0  0  0  0  0  0  0
   50.3531   10.1874   10.5933 H   0  0  0  0  0  0  0  0  0  0  0  0
   48.6433   10.3718   11.0198 H   0  0  0  0  0  0  0  0  0  0  0  0
   51.4067   10.0599   13.5253 H   0  0  0  0  0  0  0  0  0  0  0  0
   51.9579    8.9780   12.2352 H   0  0  0  0  0  0  0  0  0  0  0  0
   51.3074    8.3088   13.7425 H   0  0  0  0  0  0  0  0  0  0  0  0
   46.6524    6.7537   12.4334 H   0  0  0  0  0  0  0  0  0  0  0  0
   47.9966    7.4757   12.3757 H   0  0  0  0  0  0  0  0  0  0  0  0
   46.6306    6.7766   12.4200 H   0  0  0  0  0  0  0  0  0  0  0  0
   48.0030    7.4449   12.3896 H   0  0  0  0  0  0  0  0  0  0  0  0
  2  1  2  0
  3  1  1  0
  4  2  1  0
  5  3  2  0
  6  8  1  0
  7  5  1  0
  8  9  1  0
  9  3  1  0
 10  2  1  0
 11  4  1  0
 12  9  1  0
 13  6  1  0
 14 13  1  0
 15 13  1  0
  7  4  2  0
 17 16  2  0
 18 16  2  0
 19 16  1  0
 20 16  1  0
 22 21  2  0
 23 21  1  0
 24 22  1  0
 25 23  2  0
 26 28  1  0
 27 25  1  0
 28 29  1  0
 29 23  1  0
 30 22  1  0
 31 24  1  0
 32 29  1  0
 33 26  1  0
 34 33  1  0
 35 33  1  0
 27 24  2  0
  1 38  1  0
  5 39  1  0
  6 40  1  0
  7 41  1  0
  8 42  1  0
  8 43  1  0
  9 44  1  6
 10 45  1  0
 11 46  1  0
 12 47  1  0
 13 48  1  0
 14 49  1  0
 14 50  1  0
 14 51  1  0
 15 52  1  0
 15 53  1  0
 15 54  1  0
 19 55  1  0
 20 56  1  0
 21 57  1  0
 25 58  1  0
 26 59  1  0
 27 60  1  0
 28 61  1  0
 28 62  1  0
 29 63  1  1
 30 64  1  0
 31 65  1  0
 32 66  1  0
 33 67  1  0
 34 68  1  0
 34 69  1  0
 34 70  1  0
 35 71  1  0
 35 72  1  0
 35 73  1  0
 36 74  1  0
 36 75  1  0
 37 76  1  0
 37 77  1  0
M  END
> <Uni-Dock RESULT> 
ENERGY=   -5.563  LOWER_BOUND=    1.917  UPPER_BOUND=    6.061
INTER + INTRA:          -5.563
INTER:                  -5.563
INTRA:                   0.000
UNBOUND:                 0.000

$$$$

     RDKit          3D

 77 74  0  0  0  0  0  0  0  0999 V2000
   45.3786    5.5949   11.1172 C   0  0  0  0  0  0  0  0  0  0  0  0
   44.2413    4.8787   10.7463 C   0  0  0  0  0  0  0  0  0  0  0  0
   45.9115    5.4570   12.4108 C   0  0  0  0  0  0  0  0  0  0  0  0
   43.6228    4.0225   11.6559 C   0  0  0  0  0  0  0  0  0  0  0  0
   45.2777    4.5932   13.3176 C   0  0  0  0  0  0  0  0  0  0  0  0
   48.0130    8.4494   13.5536 N   0  0  0  0  0  0  0  0  0  0  0  0
   44.1374    3.8770   12.9418 C   0  0  0  0  0  0  0  0  0  0  0  0
   46.8217    7.7363   13.0639 C   0  0  0  0  0  0  0  0  0  0  0  0
   47.1384    6.2390   12.8333 C   0  0  2  0  0  0  0  0  0  0  0  0
   43.7247    5.0087    9.4876 O   0  0  0  0  0  0  0  0  0  0  0  0
   42.5079    3.3304   11.2746 O   0  0  0  0  0  0  0  0  0  0  0  0
   48.1513    6.1151   11.8238 O   0  0  0  0  0  0  0  0  0  0  0  0
   47.8142    9.8963   13.6712 C   0  0  0  0  0  0  0  0  0  0  0  0
   48.9283   10.4473   14.5639 C   0  0  0  0  0  0  0  0  0  0  0  0
   47.8426   10.6032   12.3143 C   0  0  0  0  0  0  0  0  0  0  0  0
   46.3341    6.8540   12.9305 S   0  0  0  0  0  0  0  0  0  0  0  0
   47.4002    6.1657   13.6129 O   0  0  0  0  0  0  0  0  0  0  0  0
   44.9411    6.7147   13.2720 O   0  0  0  0  0  0  0  0  0  0  0  0
   46.4497    6.5373   11.3621 O   0  0  0  0  0  0  0  0  0  0  0  0
   46.7095    8.4133   12.9610 O   0  0  0  0  0  0  0  0  0  0  0  0
   45.4720    5.1909   10.7639 C   0  0  0  0  0  0  0  0  0  0  0  0
   44.8118    3.9667   10.7801 C   0  0  0  0  0  0  0  0  0  0  0  0
   45.4809    6.0097   11.9127 C   0  0  0  0  0  0  0  0  0  0  0  0
   44.1509    3.5417   11.9259 C   0  0  0  0  0  0  0  0  0  0  0  0
   44.8073    5.5574   13.0618 C   0  0  0  0  0  0  0  0  0  0  0  0
   46.9042    9.5024   12.9724 N   0  0  0  0  0  0  0  0  0  0  0  0
   44.1435    4.3255   13.0676 C   0  0  0  0  0  0  0  0  0  0  0  0
   46.2086    8.2088   13.1304 C   0  0  0  0  0  0  0  0  0  0  0  0
   46.2076    7.3427   11.8380 C   0  0  1  0  0  0  0  0  0  0  0  0
   44.7867    3.1445    9.6877 O   0  0  0  0  0  0  0  0  0  0  0  0
   43.5008    2.3416   11.9367 O   0  0  0  0  0  0  0  0  0  0  0  0
   47.5643    7.0884   11.4448 O   0  0  0  0  0  0  0  0  0  0  0  0
   48.2404    9.5210   13.5841 C   0  0  0  0  0  0  0  0  0  0  0  0
   48.1412    9.6917   15.1019 C   0  0  0  0  0  0  0  0  0  0  0  0
   49.0376   10.6863   12.9900 C   0  0  0  0  0  0  0  0  0  0  0  0
   46.4611    7.0088   12.9658 O   0  0  0  0  0  0  0  0  0  0  0  0
   46.4692    7.0236   12.9698 O   0  0  0  0  0  0  0  0  0  0  0  0
   45.8631    6.2630   10.4094 H   0  0  0  0  0  0  0  0  0  0  0  0
   45.6667    4.4739   14.3269 H   0  0  0  0  0  0  0  0  0  0  0  0
   48.7867    8.2436   12.9154 H   0  0  0  0  0  0  0  0  0  0  0  0
   43.6656    3.2164   13.6625 H   0  0  0  0  0  0  0  0  0  0  0  0
   46.0087    7.8350   13.7928 H   0  0  0  0  0  0  0  0  0  0  0  0
   46.4879    8.1761   12.1173 H   0  0  0  0  0  0  0  0  0  0  0  0
   47.5566    5.8055   13.7506 H   0  0  0  0  0  0  0  0  0  0  0  0
   44.2623    5.6427    8.9881 H   0  0  0  0  0  0  0  0  0  0  0  0
   42.2137    2.7728   12.0109 H   0  0  0  0  0  0  0  0  0  0  0  0
   48.1726    5.1758   11.5691 H   0  0  0  0  0  0  0  0  0  0  0  0
   46.8579   10.1033   14.1682 H   0  0  0  0  0  0  0  0  0  0  0  0
   49.9181   10.2906   14.1199 H   0  0  0  0  0  0  0  0  0  0  0  0
   48.7987   11.5231   14.7246 H   0  0  0  0  0  0  0  0  0  0  0  0
   48.9170    9.9644   15.5474 H   0  0  0  0  0  0  0  0  0  0  0  0
   47.7661   11.6880   12.4459 H   0  0  0  0  0  0  0  0  0  0  0  0
   48.7736   10.3963   11.7738 H   0  0  0  0  0  0  0  0  0  0  0  0
   47.0063   10.2955   11.6792 H   0  0  0  0  0  0  0  0  0  0  0  0
   45.5811    6.7472   10.9606 H   0  0  0  0  0  0  0  0  0  0  0  0
   47.6860    8.4738   13.0111 H   0  0  0  0  0  0  0  0  0  0  0  0
   45.9872    5.5289    9.8679 H   0  0  0  0  0  0  0  0  0  0  0  0
   44.7767    6.1491   13.9729 H   0  0  0  0  0  0  0  0  0  0  0  0
   47.0001    9.6919   11.9712 H   0  0  0  0  0  0  0  0  0  0  0  0
   43.6232    3.9821   13.9569 H   0  0  0  0  0  0  0  0  0  0  0  0
   46.6379    7.6335   13.9598 H   0  0  0  0  0  0  0  0  0  0  0  0
   45.1702    8.4361   13.4027 H   0  0  0  0  0  0  0  0  0  0  0  0
   45.7432    7.9290   11.0339 H   0  0  0  0  0  0  0  0  0  0  0  0
   45.3300    3.5516    8.9912 H   0  0  0  0  0  0  0  0  0  0  0  0
   43.6550    1.9724   11.0438 H   0  0  0  0  0  0  0  0  0  0  0  0
   47.8988    6.3928   12.0381 H   0  0  0  0  0  0  0  0  0  0  0  0
   48.7822    8.5953   13.3544 H   0  0  0  0  0  0  0  0  0  0  0  0
   49.1405    9.7474   15.5478 H   0  0  0  0  0  0  0  0  0  0  0  0
   47.6069   10.6116   15.3660 H   0  0  0  0  0  0  0  0  0  0  0  0
   47.6213    8.8522   15.5747 H   0  0  0  0  0  0  0  0  0  0  0  0
   50.0433   10.7277   13.4235 H   0  0  0  0  0  0  0  0  0  0  0  0
   48.5491   11.6486   13.1818 H   0  0  0  0  0  0  0  0  0  0  0  0
   49.1506   10.5748   11.9058 H   0  0  0  0  0  0  0  0  0  0  0  0
   46.0770    6.5421   12.2085 H   0  0  0  0  0  0  0  0  0  0  0  0
   46.7912    7.8374   12.5871 H   0  0  0  0  0  0  0  0  0  0  0  0
   46.0748    6.5252   12.2383 H   0  0  0  0  0  0  0  0  0  0  0  0
   46.7853    7.8394   12.5533 H   0  0  0  0  0  0  0  0  0  0  0  0
  2  1  2  0
  3  1  1  0
  4  2  1  0
  5  3  2  0
  6  8  1  0
  7  5  1  0
  8  9  1  0
  9  3  1  0
 10  2  1  0
 11  4  1  0
 12  9  1  0
 13  6  1  0
 14 13  1  0
 15 13  1  0
  7  4  2  0
 17 16  2  0
 18 16  2  0
 19 16  1  0
 20 16  1  0
 22 21  2  0
 23 21  1  0
 24 22  1  0
 25 23  2  0
 26 28  1  0
 27 25  1  0
 28 29  1  0
 29 23  1  0
 30 22  1  0
 31 24  1  0
 32 29  1  0
 33 26  1  0
 34 33  1  0
 35 33  1  0
 27 24  2  0
  1 38  1  0
  5 39  1  0
  6 40  1  0
  7 41  1  0
  8 42  1  0
  8 43  1  0
  9 44  1  6
 10 45  1  0
 11 46  1  0
 12 47  1  0
 13 48  1  0
 14 49  1  0
 14 50  1  0
 14 51  1  0
 15 52  1  0
 15 53  1  0
 15 54  1  0
 19 55  1  0
 20 56  1  0
 21 57  1  0
 25 58  1  0
 26 59  1  0
 27 60  1  0
 28 61  1  0
 28 62  1  0
 29 63  1  1
 30 64  1  0
 31 65  1  0
 32 66  1  0
 33 67  1  0
 34 68  1  0
 34 69  1  0
 34 70  1  0
 35 71  1  0
 35 72  1  0
 35 73  1  0
 36 74  1  0
 36 75  1  0
 37 76  1  0
 37 77  1  0
M  END
> <Uni-Dock RESULT> 
ENERGY=   -5.531  LOWER_BOUND=    2.291  UPPER_BOUND=    6.047
INTER + INTRA:          -5.531
INTER:                  -5.531
INTRA:                   0.000
UNBOUND:                 0.000

$$$$

     RDKit          3D

 77 74  0  0  0  0  0  0  0  0999 V2000
   49.0600    7.8717   12.3606 C   0  0  0  0  0  0  0  0  0  0  0  0
   50.4161    7.9142   12.6818 C   0  0  0  0  0  0  0  0  0  0  0  0
   48.0892    7.9768   13.3720 C   0  0  0  0  0  0  0  0  0  0  0  0
   50.8195    8.0588   14.0083 C   0  0  0  0  0  0  0  0  0  0  0  0
   48.5090    8.1198   14.7037 C   0  0  0  0  0  0  0  0  0  0  0  0
   44.7023    6.4475   12.4409 N   0  0  0  0  0  0  0  0  0  0  0  0
   49.8697    8.1619   15.0216 C   0  0  0  0  0  0  0  0  0  0  0  0
   46.1553    6.4854   12.6749 C   0  0  0  0  0  0  0  0  0  0  0  0
   46.6121    7.9182   13.0404 C   0  0  2  0  0  0  0  0  0  0  0  0
   51.3608    7.8164   11.6990 O   0  0  0  0  0  0  0  0  0  0  0  0
   52.1531    8.0965   14.3036 O   0  0  0  0  0  0  0  0  0  0  0  0
   46.3363    8.8018   11.9434 O   0  0  0  0  0  0  0  0  0  0  0  0
   44.2258    5.1455   11.9673 C   0  0  0  0  0  0  0  0  0  0  0  0
   42.7095    5.1038   12.1699 C   0  0  0  0  0  0  0  0  0  0  0  0
   44.5566    4.9021   10.4931 C   0  0  0  0  0  0  0  0  0  0  0  0
   46.9546    6.9615   13.0853 S   0  0  0  0  0  0  0  0  0  0  0  0
   46.0699    7.9413   13.6626 O   0  0  0  0  0  0  0  0  0  0  0  0
   47.9479    6.2362   13.8360 O   0  0  0  0  0  0  0  0  0  0  0  0
   47.7247    7.6396   11.8521 O   0  0  0  0  0  0  0  0  0  0  0  0
   46.0215    5.9018   12.3240 O   0  0  0  0  0  0  0  0  0  0  0  0
   49.3134    8.3294   12.2086 C   0  0  0  0  0  0  0  0  0  0  0  0
   50.3151    8.9529   12.9452 C   0  0  0  0  0  0  0  0  0  0  0  0
   48.4410    7.4106   12.8292 C   0  0  0  0  0  0  0  0  0  0  0  0
   50.4690    8.6726   14.2972 C   0  0  0  0  0  0  0  0  0  0  0  0
   48.6143    7.1446   14.1996 C   0  0  0  0  0  0  0  0  0  0  0  0
   45.4275    5.1272   11.8031 N   0  0  0  0  0  0  0  0  0  0  0  0
   49.6269    7.7747   14.9317 C   0  0  0  0  0  0  0  0  0  0  0  0
   46.4186    5.7548   12.7011 C   0  0  0  0  0  0  0  0  0  0  0  0
   47.3708    6.7490   11.9762 C   0  0  1  0  0  0  0  0  0  0  0  0
   51.1752    9.8526   12.3788 O   0  0  0  0  0  0  0  0  0  0  0  0
   51.4556    9.2834   15.0157 O   0  0  0  0  0  0  0  0  0  0  0  0
   46.5875    7.7839   11.3636 O   0  0  0  0  0  0  0  0  0  0  0  0
   44.0807    5.7004   11.9346 C   0  0  0  0  0  0  0  0  0  0  0  0
   43.3797    5.1606   13.1836 C   0  0  0  0  0  0  0  0  0  0  0  0
   43.2652    5.3316   10.6915 C   0  0  0  0  0  0  0  0  0  0  0  0
   46.7761    6.8979   13.0116 O   0  0  0  0  0  0  0  0  0  0  0  0
   46.7620    6.8894   13.0062 O   0  0  0  0  0  0  0  0  0  0  0  0
   48.7429    7.7594   11.3267 H   0  0  0  0  0  0  0  0  0  0  0  0
   47.7773    8.1967   15.5056 H   0  0  0  0  0  0  0  0  0  0  0  0
   44.4738    7.1817   11.7648 H   0  0  0  0  0  0  0  0  0  0  0  0
   50.1678    8.2721   16.0596 H   0  0  0  0  0  0  0  0  0  0  0  0
   46.4152    5.7954   13.4863 H   0  0  0  0  0  0  0  0  0  0  0  0
   46.6861    6.1657   11.7710 H   0  0  0  0  0  0  0  0  0  0  0  0
   46.0261    8.2854   13.8925 H   0  0  0  0  0  0  0  0  0  0  0  0
   50.9179    7.7128   10.8425 H   0  0  0  0  0  0  0  0  0  0  0  0
   52.2629    8.2169   15.2593 H   0  0  0  0  0  0  0  0  0  0  0  0
   46.8142    9.6293   12.1296 H   0  0  0  0  0  0  0  0  0  0  0  0
   44.6638    4.3432   12.5746 H   0  0  0  0  0  0  0  0  0  0  0  0
   42.2002    5.8716   11.5762 H   0  0  0  0  0  0  0  0  0  0  0  0
   42.3066    4.1289   11.8749 H   0  0  0  0  0  0  0  0  0  0  0  0
   42.4507    5.2616   13.2228 H   0  0  0  0  0  0  0  0  0  0  0  0
   44.1218    3.9554   10.1542 H   0  0  0  0  0  0  0  0  0  0  0  0
   44.1588    5.7004    9.8557 H   0  0  0  0  0  0  0  0  0  0  0  0
   45.6360    4.8399   10.3247 H   0  0  0  0  0  0  0  0  0  0  0  0
   48.5134    7.0888   11.6665 H   0  0  0  0  0  0  0  0  0  0  0  0
   45.2044    6.3740   12.0610 H   0  0  0  0  0  0  0  0  0  0  0  0
   49.1920    8.5432   11.1493 H   0  0  0  0  0  0  0  0  0  0  0  0
   47.9752    6.4419   14.7277 H   0  0  0  0  0  0  0  0  0  0  0  0
   45.7452    5.2562   10.8388 H   0  0  0  0  0  0  0  0  0  0  0  0
   49.7574    7.5640   15.9890 H   0  0  0  0  0  0  0  0  0  0  0  0
   45.9216    6.2626   13.5367 H   0  0  0  0  0  0  0  0  0  0  0  0
   47.0184    4.9430   13.1313 H   0  0  0  0  0  0  0  0  0  0  0  0
   47.8791    6.2075   11.1674 H   0  0  0  0  0  0  0  0  0  0  0  0
   50.9107    9.9803   11.4515 H   0  0  0  0  0  0  0  0  0  0  0  0
   51.9000    9.8698   14.3708 H   0  0  0  0  0  0  0  0  0  0  0  0
   46.3239    8.3911   12.0773 H   0  0  0  0  0  0  0  0  0  0  0  0
   44.1312    6.7949   11.9873 H   0  0  0  0  0  0  0  0  0  0  0  0
   42.3611    5.5583   13.2538 H   0  0  0  0  0  0  0  0  0  0  0  0
   43.3094    4.0671   13.1606 H   0  0  0  0  0  0  0  0  0  0  0  0
   43.9033    5.4458   14.1018 H   0  0  0  0  0  0  0  0  0  0  0  0
   42.2532    5.7471   10.7556 H   0  0  0  0  0  0  0  0  0  0  0  0
   43.1758    4.2454   10.5753 H   0  0  0  0  0  0  0  0  0  0  0  0
   43.7286    5.7317    9.7827 H   0  0  0  0  0  0  0  0  0  0  0  0
   47.6200    7.2385   12.6789 H   0  0  0  0  0  0  0  0  0  0  0  0
   46.3624    6.4965   12.2327 H   0  0  0  0  0  0  0  0  0  0  0  0
   47.6145    7.2440   12.7123 H   0  0  0  0  0  0  0  0  0  0  0  0
   46.3820    6.4994   12.2047 H   0  0  0  0  0  0  0  0  0  0  0  0
  2  1  2  0
  3  1  1  0
  4  2  1  0
  5  3  2  0
  6  8  1  0
  7  5  1  0
  8  9  1  0
  9  3  1  0
 10  2  1  0
 11  4  1  0
 12  9  1  0
 13  6  1  0
 14 13  1  0
 15 13  1  0
  7  4  2  0
 17 16  2  0
 18 16  2  0
 19 16  1  0
 20 16  1  0
 22 21  2  0
 23 21  1  0
 24 22  1  0
 25 23  2  0
 26 28  1  0
 27 25  1  0
 28 29  1  0
 29 23  1  0
 30 22  1  0
 31 24  1  0
 32 29  1  0
 33 26  1  0
 34 33  1  0
 35 33  1  0
 27 24  2  0
  1 38  1  0
  5 39  1  0
  6 40  1  0
  7 41  1  0
  8 42  1  0
  8 43  1  0
  9 44  1  6
 10 45  1  0
 11 46  1  0
 12 47  1  0
 13 48  1  0
 14 49  1  0
 14 50  1  0
 14 51  1  0
 15 52  1  0
 15 53  1  0
 15 54  1  0
 19 55  1  0
 20 56  1  0
 21 57  1  0
 25 58  1  0
 26 59  1  0
 27 60  1  0
 28 61  1  0
 28 62  1  0
 29 63  1  1
 30 64  1  0
 31 65  1  0
 32 66  1  0
 33 67  1  0
 34 68  1  0
 34 69  1  0
 34 70  1  0
 35 71  1  0
 35 72  1  0
 35 73  1  0
 36 74  1  0
 36 75  1  0
 37 76  1  0
 37 77  1  0
M  END
> <Uni-Dock RESULT> 
ENERGY=   -5.411  LOWER_BOUND=    1.362  UPPER_BOUND=    2.156
INTER + INTRA:          -5.411
INTER:                  -5.411
INTRA:                   0.000
UNBOUND:                 0.000

$$$$

     RDKit          3D

 77 74  0  0  0  0  0  0  0  0999 V2000
   44.3695   12.5873    9.1283 C   0  0  0  0  0  0  0  0  0  0  0  0
   45.1756   13.2126    8.1780 C   0  0  0  0  0  0  0  0  0  0  0  0
   43.7239   11.3765    8.8228 C   0  0  0  0  0  0  0  0  0  0  0  0
   45.3455   12.6431    6.9171 C   0  0  0  0  0  0  0  0  0  0  0  0
   43.9018   10.8150    7.5487 C   0  0  0  0  0  0  0  0  0  0  0  0
   40.6116   10.6940   10.9499 N   0  0  0  0  0  0  0  0  0  0  0  0
   44.7108   11.4451    6.5986 C   0  0  0  0  0  0  0  0  0  0  0  0
   41.4848   11.4293   10.0202 C   0  0  0  0  0  0  0  0  0  0  0  0
   42.8336   10.6922    9.8399 C   0  0  2  0  0  0  0  0  0  0  0  0
   45.8071   14.3877    8.4753 O   0  0  0  0  0  0  0  0  0  0  0  0
   46.1380   13.2718    5.9982 O   0  0  0  0  0  0  0  0  0  0  0  0
   43.5156   10.6288   11.1014 O   0  0  0  0  0  0  0  0  0  0  0  0
   39.3688   11.4046   11.2615 C   0  0  0  0  0  0  0  0  0  0  0  0
   38.3929   10.3915   11.8642 C   0  0  0  0  0  0  0  0  0  0  0  0
   39.5849   12.5596   12.2419 C   0  0  0  0  0  0  0  0  0  0  0  0
   42.2829   11.4195    9.3901 S   0  0  0  0  0  0  0  0  0  0  0  0
   42.4371   10.0044    9.6134 O   0  0  0  0  0  0  0  0  0  0  0  0
   42.2068   12.0221    8.0835 O   0  0  0  0  0  0  0  0  0  0  0  0
   43.4535   12.1859   10.1749 O   0  0  0  0  0  0  0  0  0  0  0  0
   40.9954   11.8730   10.2327 O   0  0  0  0  0  0  0  0  0  0  0  0
   44.9030   12.5660    9.2362 C   0  0  0  0  0  0  0  0  0  0  0  0
   45.8930   12.4157    8.2707 C   0  0  0  0  0  0  0  0  0  0  0  0
   43.5681   12.2126    8.9476 C   0  0  0  0  0  0  0  0  0  0  0  0
   45.5753   11.9212    7.0119 C   0  0  0  0  0  0  0  0  0  0  0  0
   43.2707   11.7116    7.6672 C   0  0  0  0  0  0  0  0  0  0  0  0
   40.1024   12.2386   10.7740 N   0  0  0  0  0  0  0  0  0  0  0  0
   44.2730   11.5666    6.7014 C   0  0  0  0  0  0  0  0  0  0  0  0
   41.0664   11.9902    9.6825 C   0  0  0  0  0  0  0  0  0  0  0  0
   42.5234   12.4072   10.0344 C   0  0  1  0  0  0  0  0  0  0  0  0
   47.1979   12.7425    8.5165 O   0  0  0  0  0  0  0  0  0  0  0  0
   46.5486   11.7788    6.0658 O   0  0  0  0  0  0  0  0  0  0  0  0
   42.9497   11.6806   11.1964 O   0  0  0  0  0  0  0  0  0  0  0  0
   39.7215   11.0191   11.5003 C   0  0  0  0  0  0  0  0  0  0  0  0
   38.6989   10.2075   10.7013 C   0  0  0  0  0  0  0  0  0  0  0  0
   39.1153   11.4185   12.8491 C   0  0  0  0  0  0  0  0  0  0  0  0
   42.1356   11.3875    9.5266 O   0  0  0  0  0  0  0  0  0  0  0  0
   42.1213   11.3867    9.5362 O   0  0  0  0  0  0  0  0  0  0  0  0
   44.2357   13.0293   10.1126 H   0  0  0  0  0  0  0  0  0  0  0  0
   43.4078    9.8817    7.2853 H   0  0  0  0  0  0  0  0  0  0  0  0
   41.1454   10.5117   11.8044 H   0  0  0  0  0  0  0  0  0  0  0  0
   44.8309   10.9905    5.6202 H   0  0  0  0  0  0  0  0  0  0  0  0
   40.9855   11.5309    9.0494 H   0  0  0  0  0  0  0  0  0  0  0  0
   41.6814   12.4342   10.4106 H   0  0  0  0  0  0  0  0  0  0  0  0
   42.6484    9.6552    9.5323 H   0  0  0  0  0  0  0  0  0  0  0  0
   45.5793   14.6499    9.3807 H   0  0  0  0  0  0  0  0  0  0  0  0
   46.1640   12.7420    5.1868 H   0  0  0  0  0  0  0  0  0  0  0  0
   44.4272   10.3475   10.9077 H   0  0  0  0  0  0  0  0  0  0  0  0
   38.9176   11.7914   10.3389 H   0  0  0  0  0  0  0  0  0  0  0  0
   38.7721    9.9732   12.8037 H   0  0  0  0  0  0  0  0  0  0  0  0
   37.4260   10.8624   12.0722 H   0  0  0  0  0  0  0  0  0  0  0  0
   38.2123    9.5620   11.1716 H   0  0  0  0  0  0  0  0  0  0  0  0
   38.6272   13.0193   12.5093 H   0  0  0  0  0  0  0  0  0  0  0  0
   40.0615   12.2161   13.1674 H   0  0  0  0  0  0  0  0  0  0  0  0
   40.2109   13.3463   11.8099 H   0  0  0  0  0  0  0  0  0  0  0  0
   43.5230   13.0823    9.7855 H   0  0  0  0  0  0  0  0  0  0  0  0
   40.9103   11.2520   10.9856 H   0  0  0  0  0  0  0  0  0  0  0  0
   45.1470   12.9563   10.2215 H   0  0  0  0  0  0  0  0  0  0  0  0
   42.2591   11.4289    7.3880 H   0  0  0  0  0  0  0  0  0  0  0  0
   40.5312   12.8923   11.4346 H   0  0  0  0  0  0  0  0  0  0  0  0
   44.0374   11.1813    5.7138 H   0  0  0  0  0  0  0  0  0  0  0  0
   41.0475   10.9368    9.3774 H   0  0  0  0  0  0  0  0  0  0  0  0
   40.7303   12.5791    8.8198 H   0  0  0  0  0  0  0  0  0  0  0  0
   42.5188   13.4718   10.3033 H   0  0  0  0  0  0  0  0  0  0  0  0
   47.2692   13.0213    9.4456 H   0  0  0  0  0  0  0  0  0  0  0  0
   47.3680   12.0734    6.5123 H   0  0  0  0  0  0  0  0  0  0  0  0
   43.1668   10.7804   10.8961 H   0  0  0  0  0  0  0  0  0  0  0  0
   40.6038   10.3993   11.7020 H   0  0  0  0  0  0  0  0  0  0  0  0
   38.3869    9.3217   11.2656 H   0  0  0  0  0  0  0  0  0  0  0  0
   37.8012   10.7982   10.4855 H   0  0  0  0  0  0  0  0  0  0  0  0
   39.1092    9.8573    9.7486 H   0  0  0  0  0  0  0  0  0  0  0  0
   38.8219   10.5299   13.4196 H   0  0  0  0  0  0  0  0  0  0  0  0
   38.2249   12.0449   12.7216 H   0  0  0  0  0  0  0  0  0  0  0  0
   39.8369   11.9763   13.4563 H   0  0  0  0  0  0  0  0  0  0  0  0
   42.9589   11.8927    9.4504 H   0  0  0  0  0  0  0  0  0  0  0  0
   41.6807   11.7937   10.2796 H   0  0  0  0  0  0  0  0  0  0  0  0
   42.9553   11.8677    9.4272 H   0  0  0  0  0  0  0  0  0  0  0  0
   41.6988   11.8195   10.2933 H   0  0  0  0  0  0  0  0  0  0  0  0
  2  1  2  0
  3  1  1  0
  4  2  1  0
  5  3  2  0
  6  8  1  0
  7  5  1  0
  8  9  1  0
  9  3  1  0
 10  2  1  0
 11  4  1  0
 12  9  1  0
 13  6  1  0
 14 13  1  0
 15 13  1  0
  7  4  2  0
 17 16  2  0
 18 16  2  0
 19 16  1  0
 20 16  1  0
 22 21  2  0
 23 21  1  0
 24 22  1  0
 25 23  2  0
 26 28  1  0
 27 25  1  0
 28 29  1  0
 29 23  1  0
 30 22  1  0
 31 24  1  0
 32 29  1  0
 33 26  1  0
 34 33  1  0
 35 33  1  0
 27 24  2  0
  1 38  1  0
  5 39  1  0
  6 40  1  0
  7 41  1  0
  8 42  1  0
  8 43  1  0
  9 44  1  6
 10 45  1  0
 11 46  1  0
 12 47  1  0
 13 48  1  0
 14 49  1  0
 14 50  1  0
 14 51  1  0
 15 52  1  0
 15 53  1  0
 15 54  1  0
 19 55  1  0
 20 56  1  0
 21 57  1  0
 25 58  1  0
 26 59  1  0
 27 60  1  0
 28 61  1  0
 28 62  1  0
 29 63  1  1
 30 64  1  0
 31 65  1  0
 32 66  1  0
 33 67  1  0
 34 68  1  0
 34 69  1  0
 34 70  1  0
 35 71  1  0
 35 72  1  0
 35 73  1  0
 36 74  1  0
 36 75  1  0
 37 76  1  0
 37 77  1  0
M  END
> <Uni-Dock RESULT> 
ENERGY=   -5.355  LOWER_BOUND=    6.099  UPPER_BOUND=    7.224
INTER + INTRA:          -5.355
INTER:                  -5.355
INTRA:                   0.000
UNBOUND:                 0.000

$$$$

     RDKit          3D

 77 74  0  0  0  0  0  0  0  0999 V2000
   47.7317    8.2277   14.1657 C   0  0  0  0  0  0  0  0  0  0  0  0
   48.0951    9.4656   14.6942 C   0  0  0  0  0  0  0  0  0  0  0  0
   47.7568    8.0162   12.7761 C   0  0  0  0  0  0  0  0  0  0  0  0
   48.4837   10.5036   13.8487 C   0  0  0  0  0  0  0  0  0  0  0  0
   48.1479    9.0705   11.9359 C   0  0  0  0  0  0  0  0  0  0  0  0
   45.4526    5.1944   11.5910 N   0  0  0  0  0  0  0  0  0  0  0  0
   48.5114   10.3103   12.4698 C   0  0  0  0  0  0  0  0  0  0  0  0
   45.8208    6.4599   12.2471 C   0  0  0  0  0  0  0  0  0  0  0  0
   47.3513    6.6812   12.1857 C   0  0  2  0  0  0  0  0  0  0  0  0
   48.0752    9.6711   16.0453 O   0  0  0  0  0  0  0  0  0  0  0  0
   48.8345   11.7104   14.3853 O   0  0  0  0  0  0  0  0  0  0  0  0
   48.0153    5.6261   12.8972 O   0  0  0  0  0  0  0  0  0  0  0  0
   44.0314    4.8644   11.7260 C   0  0  0  0  0  0  0  0  0  0  0  0
   43.7004    3.7989   10.6785 C   0  0  0  0  0  0  0  0  0  0  0  0
   43.6816    4.3428   13.1215 C   0  0  0  0  0  0  0  0  0  0  0  0
   46.5000    7.2067   12.3694 S   0  0  0  0  0  0  0  0  0  0  0  0
   47.3379    6.6044   11.3638 O   0  0  0  0  0  0  0  0  0  0  0  0
   46.0960    8.5898   12.3541 O   0  0  0  0  0  0  0  0  0  0  0  0
   47.1655    6.9451   13.8054 O   0  0  0  0  0  0  0  0  0  0  0  0
   45.1833    6.2956   12.4666 O   0  0  0  0  0  0  0  0  0  0  0  0
   48.2097    8.2296   14.4270 C   0  0  0  0  0  0  0  0  0  0  0  0
   49.1144    9.2858   14.3992 C   0  0  0  0  0  0  0  0  0  0  0  0
   47.2134    8.1198   13.4341 C   0  0  0  0  0  0  0  0  0  0  0  0
   49.0419   10.2449   13.3967 C   0  0  0  0  0  0  0  0  0  0  0  0
   47.1612    9.1012   12.4276 C   0  0  0  0  0  0  0  0  0  0  0  0
   44.2436    5.7191   12.5601 N   0  0  0  0  0  0  0  0  0  0  0  0
   48.0740   10.1617   12.4097 C   0  0  0  0  0  0  0  0  0  0  0  0
   45.1701    6.8579   12.3949 C   0  0  0  0  0  0  0  0  0  0  0  0
   46.2431    6.9528   13.5174 C   0  0  1  0  0  0  0  0  0  0  0  0
   50.0963    9.4214   15.3413 O   0  0  0  0  0  0  0  0  0  0  0  0
   49.9289   11.2819   13.3750 O   0  0  0  0  0  0  0  0  0  0  0  0
   47.0082    5.7386   13.5364 O   0  0  0  0  0  0  0  0  0  0  0  0
   44.5355    4.5978   11.6560 C   0  0  0  0  0  0  0  0  0  0  0  0
   44.0206    4.8894   10.2445 C   0  0  0  0  0  0  0  0  0  0  0  0
   43.8540    3.3378   12.1984 C   0  0  0  0  0  0  0  0  0  0  0  0
   46.3919    7.0399   12.3265 O   0  0  0  0  0  0  0  0  0  0  0  0
   46.3802    7.0277   12.3229 O   0  0  0  0  0  0  0  0  0  0  0  0
   47.4287    7.4165   14.8230 H   0  0  0  0  0  0  0  0  0  0  0  0
   48.1694    8.9343   10.8564 H   0  0  0  0  0  0  0  0  0  0  0  0
   46.0335    4.4524   11.9914 H   0  0  0  0  0  0  0  0  0  0  0  0
   48.8090   11.1094   11.7981 H   0  0  0  0  0  0  0  0  0  0  0  0
   45.3059    7.2930   11.7541 H   0  0  0  0  0  0  0  0  0  0  0  0
   45.5092    6.4387   13.2975 H   0  0  0  0  0  0  0  0  0  0  0  0
   47.6911    6.6179   11.1442 H   0  0  0  0  0  0  0  0  0  0  0  0
   47.7764    8.8601   16.4851 H   0  0  0  0  0  0  0  0  0  0  0  0
   49.0925   12.3122   13.6704 H   0  0  0  0  0  0  0  0  0  0  0  0
   48.9407    5.9079   13.0067 H   0  0  0  0  0  0  0  0  0  0  0  0
   43.4195    5.7481   11.5050 H   0  0  0  0  0  0  0  0  0  0  0  0
   44.2657    2.8752   10.8475 H   0  0  0  0  0  0  0  0  0  0  0  0
   42.6340    3.5496   10.7041 H   0  0  0  0  0  0  0  0  0  0  0  0
   43.9299    4.1576    9.6690 H   0  0  0  0  0  0  0  0  0  0  0  0
   42.6306    4.0365   13.1635 H   0  0  0  0  0  0  0  0  0  0  0  0
   44.2944    3.4744   13.3902 H   0  0  0  0  0  0  0  0  0  0  0  0
   43.8251    5.1096   13.8887 H   0  0  0  0  0  0  0  0  0  0  0  0
   46.7724    7.5918   14.4277 H   0  0  0  0  0  0  0  0  0  0  0  0
   45.4387    5.3900   12.1939 H   0  0  0  0  0  0  0  0  0  0  0  0
   48.2607    7.4790   15.2122 H   0  0  0  0  0  0  0  0  0  0  0  0
   46.4117    9.0698   11.6412 H   0  0  0  0  0  0  0  0  0  0  0  0
   44.3155    5.3879   13.5258 H   0  0  0  0  0  0  0  0  0  0  0  0
   48.0277   10.9177   11.6314 H   0  0  0  0  0  0  0  0  0  0  0  0
   45.6627    6.8212   11.4156 H   0  0  0  0  0  0  0  0  0  0  0  0
   44.5606    7.7701   12.4124 H   0  0  0  0  0  0  0  0  0  0  0  0
   45.7234    7.0217   14.4823 H   0  0  0  0  0  0  0  0  0  0  0  0
   50.0502    8.6544   15.9376 H   0  0  0  0  0  0  0  0  0  0  0  0
   50.5106   11.1219   14.1453 H   0  0  0  0  0  0  0  0  0  0  0  0
   47.6308    5.7918   12.7900 H   0  0  0  0  0  0  0  0  0  0  0  0
   45.6145    4.4034   11.6193 H   0  0  0  0  0  0  0  0  0  0  0  0
   44.2030    4.0334    9.5852 H   0  0  0  0  0  0  0  0  0  0  0  0
   42.9421    5.0849   10.2455 H   0  0  0  0  0  0  0  0  0  0  0  0
   44.5199    5.7551    9.7977 H   0  0  0  0  0  0  0  0  0  0  0  0
   44.0543    2.4792   11.5476 H   0  0  0  0  0  0  0  0  0  0  0  0
   42.7671    3.4635   12.2640 H   0  0  0  0  0  0  0  0  0  0  0  0
   44.2261    3.0873   13.1981 H   0  0  0  0  0  0  0  0  0  0  0  0
   46.8569    7.4309   13.0814 H   0  0  0  0  0  0  0  0  0  0  0  0
   45.8200    6.3678   12.7267 H   0  0  0  0  0  0  0  0  0  0  0  0
   46.8653    7.4443   13.0509 H   0  0  0  0  0  0  0  0  0  0  0  0
   45.8234    6.3666   12.7608 H   0  0  0  0  0  0  0  0  0  0  0  0
  2  1  2  0
  3  1  1  0
  4  2  1  0
  5  3  2  0
  6  8  1  0
  7  5  1  0
  8  9  1  0
  9  3  1  0
 10  2  1  0
 11  4  1  0
 12  9  1  0
 13  6  1  0
 14 13  1  0
 15 13  1  0
  7  4  2  0
 17 16  2  0
 18 16  2  0
 19 16  1  0
 20 16  1  0
 22 21  2  0
 23 21  1  0
 24 22  1  0
 25 23  2  0
 26 28  1  0
 27 25  1  0
 28 29  1  0
 29 23  1  0
 30 22  1  0
 31 24  1  0
 32 29  1  0
 33 26  1  0
 34 33  1  0
 35 33  1  0
 27 24  2  0
  1 38  1  0
  5 39  1  0
  6 40  1  0
  7 41  1  0
  8 42  1  0
  8 43  1  0
  9 44  1  6
 10 45  1  0
 11 46  1  0
 12 47  1  0
 13 48  1  0
 14 49  1  0
 14 50  1  0
 14 51  1  0
 15 52  1  0
 15 53  1  0
 15 54  1  0
 19 55  1  0
 20 56  1  0
 21 57  1  0
 25 58  1  0
 26 59  1  0
 27 60  1  0
 28 61  1  0
 28 62  1  0
 29 63  1  1
 30 64  1  0
 31 65  1  0
 32 66  1  0
 33 67  1  0
 34 68  1  0
 34 69  1  0
 34 70  1  0
 35 71  1  0
 35 72  1  0
 35 73  1  0
 36 74  1  0
 36 75  1  0
 37 76  1  0
 37 77  1  0
M  END
> <Uni-Dock RESULT> 
ENERGY=   -5.249  LOWER_BOUND=    1.467  UPPER_BOUND=    2.456
INTER + INTRA:          -5.249
INTER:                  -5.249
INTRA:                   0.000
UNBOUND:                 0.000

$$$$

     RDKit          3D

 77 74  0  0  0  0  0  0  0  0999 V2000
   45.8682    6.5642   12.5089 C   0  0  0  0  0  0  0  0  0  0  0  0
   44.7190    5.7849   12.6343 C   0  0  0  0  0  0  0  0  0  0  0  0
   47.1300    6.0172   12.8005 C   0  0  0  0  0  0  0  0  0  0  0  0
   44.8122    4.4583   13.0521 C   0  0  0  0  0  0  0  0  0  0  0  0
   47.2095    4.6808   13.2223 C   0  0  0  0  0  0  0  0  0  0  0  0
   49.7769    8.6247   13.7341 N   0  0  0  0  0  0  0  0  0  0  0  0
   46.0548    3.9027   13.3469 C   0  0  0  0  0  0  0  0  0  0  0  0
   48.5070    7.8861   13.8307 C   0  0  0  0  0  0  0  0  0  0  0  0
   48.3865    6.8554   12.6825 C   0  0  2  0  0  0  0  0  0  0  0  0
   43.4921    6.3143   12.3471 O   0  0  0  0  0  0  0  0  0  0  0  0
   43.6744    3.7108   13.1709 O   0  0  0  0  0  0  0  0  0  0  0  0
   48.3822    7.5427   11.4224 O   0  0  0  0  0  0  0  0  0  0  0  0
   49.8955    9.7035   14.7184 C   0  0  0  0  0  0  0  0  0  0  0  0
   51.3722   10.0964   14.8014 C   0  0  0  0  0  0  0  0  0  0  0  0
   49.0554   10.9280   14.3489 C   0  0  0  0  0  0  0  0  0  0  0  0
   47.9617    7.0643   13.5828 S   0  0  0  0  0  0  0  0  0  0  0  0
   49.1062    6.5150   12.9012 O   0  0  0  0  0  0  0  0  0  0  0  0
   47.1996    6.3498   14.5752 O   0  0  0  0  0  0  0  0  0  0  0  0
   46.9105    7.5684   12.4808 O   0  0  0  0  0  0  0  0  0  0  0  0
   48.4388    8.4582   14.2174 O   0  0  0  0  0  0  0  0  0  0  0  0
   45.6382    6.4240   12.0354 C   0  0  0  0  0  0  0  0  0  0  0  0
   45.0337    5.1954   11.7906 C   0  0  0  0  0  0  0  0  0  0  0  0
   46.5462    6.5697   13.1053 C   0  0  0  0  0  0  0  0  0  0  0  0
   45.3145    4.1021   12.6006 C   0  0  0  0  0  0  0  0  0  0  0  0
   46.8169    5.4482   13.9102 C   0  0  0  0  0  0  0  0  0  0  0  0
   48.7175    9.4150   14.6980 N   0  0  0  0  0  0  0  0  0  0  0  0
   46.2016    4.2170   13.6578 C   0  0  0  0  0  0  0  0  0  0  0  0
   48.1784    8.0519   14.5150 C   0  0  0  0  0  0  0  0  0  0  0  0
   47.1700    7.9365   13.3358 C   0  0  1  0  0  0  0  0  0  0  0  0
   44.1532    5.0157   10.7598 O   0  0  0  0  0  0  0  0  0  0  0  0
   44.7163    2.8992   12.3598 O   0  0  0  0  0  0  0  0  0  0  0  0
   47.8224    8.3381   12.1221 O   0  0  0  0  0  0  0  0  0  0  0  0
   50.0897    9.5686   14.1948 C   0  0  0  0  0  0  0  0  0  0  0  0
   51.0994    8.9725   15.1787 C   0  0  0  0  0  0  0  0  0  0  0  0
   50.3806   11.0605   14.0055 C   0  0  0  0  0  0  0  0  0  0  0  0
   48.0950    7.2161   13.6065 O   0  0  0  0  0  0  0  0  0  0  0  0
   48.1053    7.2290   13.6117 O   0  0  0  0  0  0  0  0  0  0  0  0
   45.7981    7.5991   12.1828 H   0  0  0  0  0  0  0  0  0  0  0  0
   48.1736    4.2358   13.4603 H   0  0  0  0  0  0  0  0  0  0  0  0
   49.8526    8.9960   12.7829 H   0  0  0  0  0  0  0  0  0  0  0  0
   46.1437    2.8721   13.6761 H   0  0  0  0  0  0  0  0  0  0  0  0
   48.4536    7.3716   14.7975 H   0  0  0  0  0  0  0  0  0  0  0  0
   47.6648    8.5843   13.7679 H   0  0  0  0  0  0  0  0  0  0  0  0
   49.2686    6.2026   12.6794 H   0  0  0  0  0  0  0  0  0  0  0  0
   43.6007    7.2408   12.0821 H   0  0  0  0  0  0  0  0  0  0  0  0
   43.9122    2.8142   13.4527 H   0  0  0  0  0  0  0  0  0  0  0  0
   48.1046    6.8912   10.7544 H   0  0  0  0  0  0  0  0  0  0  0  0
   49.5926    9.3411   15.7090 H   0  0  0  0  0  0  0  0  0  0  0  0
   51.7421   10.4863   13.8461 H   0  0  0  0  0  0  0  0  0  0  0  0
   51.5245   10.8702   15.5616 H   0  0  0  0  0  0  0  0  0  0  0  0
   51.9913    9.2362   15.0795 H   0  0  0  0  0  0  0  0  0  0  0  0
   49.2260   11.7397   15.0646 H   0  0  0  0  0  0  0  0  0  0  0  0
   49.3103   11.3028   13.3507 H   0  0  0  0  0  0  0  0  0  0  0  0
   47.9844   10.7045   14.3639 H   0  0  0  0  0  0  0  0  0  0  0  0
   46.0428    7.6540   12.9277 H   0  0  0  0  0  0  0  0  0  0  0  0
   49.1705    8.7937   13.6591 H   0  0  0  0  0  0  0  0  0  0  0  0
   45.4182    7.2832   11.4060 H   0  0  0  0  0  0  0  0  0  0  0  0
   47.5033    5.5041   14.7510 H   0  0  0  0  0  0  0  0  0  0  0  0
   48.1099   10.0677   14.1956 H   0  0  0  0  0  0  0  0  0  0  0  0
   46.4127    3.3550   14.2838 H   0  0  0  0  0  0  0  0  0  0  0  0
   48.9897    7.3263   14.3791 H   0  0  0  0  0  0  0  0  0  0  0  0
   47.6631    7.7848   15.4462 H   0  0  0  0  0  0  0  0  0  0  0  0
   46.3530    8.6483   13.5136 H   0  0  0  0  0  0  0  0  0  0  0  0
   44.1007    5.8480   10.2594 H   0  0  0  0  0  0  0  0  0  0  0  0
   44.1570    3.0579   11.5728 H   0  0  0  0  0  0  0  0  0  0  0  0
   48.3874    7.5929   11.8516 H   0  0  0  0  0  0  0  0  0  0  0  0
   50.1987    9.0813   13.2182 H   0  0  0  0  0  0  0  0  0  0  0  0
   52.1228    9.1272   14.8189 H   0  0  0  0  0  0  0  0  0  0  0  0
   51.0191    9.4413   16.1661 H   0  0  0  0  0  0  0  0  0  0  0  0
   50.9596    7.8940   15.3050 H   0  0  0  0  0  0  0  0  0  0  0  0
   51.3980   11.2112   13.6271 H   0  0  0  0  0  0  0  0  0  0  0  0
   50.2873   11.6125   14.9478 H   0  0  0  0  0  0  0  0  0  0  0  0
   49.6904   11.5082   13.2817 H   0  0  0  0  0  0  0  0  0  0  0  0
   47.2384    7.0608   13.1810 H   0  0  0  0  0  0  0  0  0  0  0  0
   48.1652    8.1817   13.6457 H   0  0  0  0  0  0  0  0  0  0  0  0
   47.2556    7.0323   13.1894 H   0  0  0  0  0  0  0  0  0  0  0  0
   48.1378    8.1972   13.6322 H   0  0  0  0  0  0  0  0  0  0  0  0
  2  1  2  0
  3  1  1  0
  4  2  1  0
  5  3  2  0
  6  8  1  0
  7  5  1  0
  8  9  1  0
  9  3  1  0
 10  2  1  0
 11  4  1  0
 12  9  1  0
 13  6  1  0
 14 13  1  0
 15 13  1  0
  7  4  2  0
 17 16  2  0
 18 16  2  0
 19 16  1  0
 20 16  1  0
 22 21  2  0
 23 21  1  0
 24 22  1  0
 25 23  2  0
 26 28  1  0
 27 25  1  0
 28 29  1  0
 29 23  1  0
 30 22  1  0
 31 24  1  0
 32 29  1  0
 33 26  1  0
 34 33  1  0
 35 33  1  0
 27 24  2  0
  1 38  1  0
  5 39  1  0
  6 40  1  0
  7 41  1  0
  8 42  1  0
  8 43  1  0
  9 44  1  6
 10 45  1  0
 11 46  1  0
 12 47  1  0
 13 48  1  0
 14 49  1  0
 14 50  1  0
 14 51  1  0
 15 52  1  0
 15 53  1  0
 15 54  1  0
 19 55  1  0
 20 56  1  0
 21 57  1  0
 25 58  1  0
 26 59  1  0
 27 60  1  0
 28 61  1  0
 28 62  1  0
 29 63  1  1
 30 64  1  0
 31 65  1  0
 32 66  1  0
 33 67  1  0
 34 68  1  0
 34 69  1  0
 34 70  1  0
 35 71  1  0
 35 72  1  0
 35 73  1  0
 36 74  1  0
 36 75  1  0
 37 76  1  0
 37 77  1  0
M  END
> <Uni-Dock RESULT> 
ENERGY=   -5.243  LOWER_BOUND=    2.344  UPPER_BOUND=    5.885
INTER + INTRA:          -5.243
INTER:                  -5.243
INTRA:                   0.000
UNBOUND:                 0.000

$$$$

     RDKit          3D

 77 74  0  0  0  0  0  0  0  0999 V2000
   47.5793    5.7778   13.5286 C   0  0  0  0  0  0  0  0  0  0  0  0
   46.9536    4.5392   13.3935 C   0  0  0  0  0  0  0  0  0  0  0  0
   46.9209    6.9517   13.1227 C   0  0  0  0  0  0  0  0  0  0  0  0
   45.6715    4.4553   12.8528 C   0  0  0  0  0  0  0  0  0  0  0  0
   45.6311    6.8529   12.5779 C   0  0  0  0  0  0  0  0  0  0  0  0
   49.2830    9.8511   12.2917 N   0  0  0  0  0  0  0  0  0  0  0  0
   45.0072    5.6091   12.4440 C   0  0  0  0  0  0  0  0  0  0  0  0
   48.7087    8.4990   12.1953 C   0  0  0  0  0  0  0  0  0  0  0  0
   47.5931    8.3035   13.2501 C   0  0  2  0  0  0  0  0  0  0  0  0
   47.5911    3.3976   13.7915 O   0  0  0  0  0  0  0  0  0  0  0  0
   45.0753    3.2322   12.7266 O   0  0  0  0  0  0  0  0  0  0  0  0
   48.1518    8.4338   14.5658 O   0  0  0  0  0  0  0  0  0  0  0  0
   50.4305   10.0574   11.4044 C   0  0  0  0  0  0  0  0  0  0  0  0
   50.6564   11.5658   11.2800 C   0  0  0  0  0  0  0  0  0  0  0  0
   51.7026    9.3862   11.9271 C   0  0  0  0  0  0  0  0  0  0  0  0
   47.9353    7.8699   12.3960 S   0  0  0  0  0  0  0  0  0  0  0  0
   47.1946    8.9675   12.9640 O   0  0  0  0  0  0  0  0  0  0  0  0
   47.4124    6.9872   11.3843 O   0  0  0  0  0  0  0  0  0  0  0  0
   48.4490    6.9332   13.5928 O   0  0  0  0  0  0  0  0  0  0  0  0
   49.3194    8.4839   11.8662 O   0  0  0  0  0  0  0  0  0  0  0  0
   47.4217    5.5525   13.9988 C   0  0  0  0  0  0  0  0  0  0  0  0
   46.2533    4.8157   14.1626 C   0  0  0  0  0  0  0  0  0  0  0  0
   47.5638    6.4262   12.9003 C   0  0  0  0  0  0  0  0  0  0  0  0
   45.2180    4.9296   13.2431 C   0  0  0  0  0  0  0  0  0  0  0  0
   46.5013    6.5270   11.9839 C   0  0  0  0  0  0  0  0  0  0  0  0
   50.2794    8.8552   11.4604 N   0  0  0  0  0  0  0  0  0  0  0  0
   45.3308    5.7795   12.1556 C   0  0  0  0  0  0  0  0  0  0  0  0
   48.9764    8.1645   11.5471 C   0  0  0  0  0  0  0  0  0  0  0  0
   48.8652    7.1994   12.7623 C   0  0  1  0  0  0  0  0  0  0  0  0
   46.0781    3.9635   15.2176 O   0  0  0  0  0  0  0  0  0  0  0  0
   44.0746    4.2020   13.4050 O   0  0  0  0  0  0  0  0  0  0  0  0
   49.0701    7.9449   13.9715 O   0  0  0  0  0  0  0  0  0  0  0  0
   50.2243   10.2556   11.9027 C   0  0  0  0  0  0  0  0  0  0  0  0
   49.6131   11.1449   10.8172 C   0  0  0  0  0  0  0  0  0  0  0  0
   51.6475   10.7308   12.2111 C   0  0  0  0  0  0  0  0  0  0  0  0
   48.0723    8.0193   12.3792 O   0  0  0  0  0  0  0  0  0  0  0  0
   48.0844    8.0308   12.3747 O   0  0  0  0  0  0  0  0  0  0  0  0
   48.5791    5.8459   13.9503 H   0  0  0  0  0  0  0  0  0  0  0  0
   45.1027    7.7461   12.2502 H   0  0  0  0  0  0  0  0  0  0  0  0
   49.5498   10.0102   13.2674 H   0  0  0  0  0  0  0  0  0  0  0  0
   44.0097    5.5601   12.0185 H   0  0  0  0  0  0  0  0  0  0  0  0
   48.2992    8.3443   11.1901 H   0  0  0  0  0  0  0  0  0  0  0  0
   49.4902    7.7499   12.3654 H   0  0  0  0  0  0  0  0  0  0  0  0
   46.8456    9.1003   13.1476 H   0  0  0  0  0  0  0  0  0  0  0  0
   48.4690    3.6274   14.1334 H   0  0  0  0  0  0  0  0  0  0  0  0
   44.1885    3.3489   12.3526 H   0  0  0  0  0  0  0  0  0  0  0  0
   47.4755    8.1080   15.1856 H   0  0  0  0  0  0  0  0  0  0  0  0
   50.2026    9.6724   10.4024 H   0  0  0  0  0  0  0  0  0  0  0  0
   50.9073   12.0190   12.2460 H   0  0  0  0  0  0  0  0  0  0  0  0
   51.4771   11.7781   10.5861 H   0  0  0  0  0  0  0  0  0  0  0  0
   49.7613   12.0652   10.8930 H   0  0  0  0  0  0  0  0  0  0  0  0
   52.5542    9.6230   11.2799 H   0  0  0  0  0  0  0  0  0  0  0  0
   51.9476    9.7253   12.9403 H   0  0  0  0  0  0  0  0  0  0  0  0
   51.6067    8.2964   11.9481 H   0  0  0  0  0  0  0  0  0  0  0  0
   48.6768    6.0643   13.2017 H   0  0  0  0  0  0  0  0  0  0  0  0
   49.5129    9.2731   12.4135 H   0  0  0  0  0  0  0  0  0  0  0  0
   48.2359    5.4633   14.7142 H   0  0  0  0  0  0  0  0  0  0  0  0
   46.5582    7.1797   11.1168 H   0  0  0  0  0  0  0  0  0  0  0  0
   50.9464    8.3515   12.0511 H   0  0  0  0  0  0  0  0  0  0  0  0
   44.5145    5.8597   11.4438 H   0  0  0  0  0  0  0  0  0  0  0  0
   48.1523    8.8879   11.5739 H   0  0  0  0  0  0  0  0  0  0  0  0
   48.8615    7.5828   10.6239 H   0  0  0  0  0  0  0  0  0  0  0  0
   49.6804    6.4669   12.6929 H   0  0  0  0  0  0  0  0  0  0  0  0
   46.8588    4.0319   15.7935 H   0  0  0  0  0  0  0  0  0  0  0  0
   44.2203    3.6989   14.2314 H   0  0  0  0  0  0  0  0  0  0  0  0
   48.2421    8.4271   14.1433 H   0  0  0  0  0  0  0  0  0  0  0  0
   49.6360   10.3457   12.8241 H   0  0  0  0  0  0  0  0  0  0  0  0
   49.6133   12.1934   11.1353 H   0  0  0  0  0  0  0  0  0  0  0  0
   50.1809   11.0805    9.8819 H   0  0  0  0  0  0  0  0  0  0  0  0
   48.5752   10.8716   10.6012 H   0  0  0  0  0  0  0  0  0  0  0  0
   51.6426   11.7737   12.5476 H   0  0  0  0  0  0  0  0  0  0  0  0
   52.2947   10.6654   11.3289 H   0  0  0  0  0  0  0  0  0  0  0  0
   52.1002   10.1297   13.0076 H   0  0  0  0  0  0  0  0  0  0  0  0
   47.9767    7.1687   12.8333 H   0  0  0  0  0  0  0  0  0  0  0  0
   49.0226    8.2031   12.4241 H   0  0  0  0  0  0  0  0  0  0  0  0
   47.9474    7.1820   12.8214 H   0  0  0  0  0  0  0  0  0  0  0  0
   49.0398    8.1782   12.4404 H   0  0  0  0  0  0  0  0  0  0  0  0
  2  1  2  0
  3  1  1  0
  4  2  1  0
  5  3  2  0
  6  8  1  0
  7  5  1  0
  8  9  1  0
  9  3  1  0
 10  2  1  0
 11  4  1  0
 12  9  1  0
 13  6  1  0
 14 13  1  0
 15 13  1  0
  7  4  2  0
 17 16  2  0
 18 16  2  0
 19 16  1  0
 20 16  1  0
 22 21  2  0
 23 21  1  0
 24 22  1  0
 25 23  2  0
 26 28  1  0
 27 25  1  0
 28 29  1  0
 29 23  1  0
 30 22  1  0
 31 24  1  0
 32 29  1  0
 33 26  1  0
 34 33  1  0
 35 33  1  0
 27 24  2  0
  1 38  1  0
  5 39  1  0
  6 40  1  0
  7 41  1  0
  8 42  1  0
  8 43  1  0
  9 44  1  6
 10 45  1  0
 11 46  1  0
 12 47  1  0
 13 48  1  0
 14 49  1  0
 14 50  1  0
 14 51  1  0
 15 52  1  0
 15 53  1  0
 15 54  1  0
 19 55  1  0
 20 56  1  0
 21 57  1  0
 25 58  1  0
 26 59  1  0
 27 60  1  0
 28 61  1  0
 28 62  1  0
 29 63  1  1
 30 64  1  0
 31 65  1  0
 32 66  1  0
 33 67  1  0
 34 68  1  0
 34 69  1  0
 34 70  1  0
 35 71  1  0
 35 72  1  0
 35 73  1  0
 36 74  1  0
 36 75  1  0
 37 76  1  0
 37 77  1  0
M  END
> <Uni-Dock RESULT> 
ENERGY=   -5.198  LOWER_BOUND=    2.085  UPPER_BOUND=    5.931
INTER + INTRA:          -5.198
INTER:                  -5.198
INTRA:                   0.000
UNBOUND:                 0.000

$$$$

     RDKit          3D

 77 74  0  0  0  0  0  0  0  0999 V2000
   48.3428   10.4850   21.0448 C   0  0  0  0  0  0  0  0  0  0  0  0
   47.8106   11.6639   21.5652 C   0  0  0  0  0  0  0  0  0  0  0  0
   48.1866   10.1790   19.6816 C   0  0  0  0  0  0  0  0  0  0  0  0
   47.1176   12.5467   20.7384 C   0  0  0  0  0  0  0  0  0  0  0  0
   47.4849   11.0755   18.8606 C   0  0  0  0  0  0  0  0  0  0  0  0
   48.4421    6.4397   18.8883 N   0  0  0  0  0  0  0  0  0  0  0  0
   46.9526   12.2565   19.3864 C   0  0  0  0  0  0  0  0  0  0  0  0
   47.9230    7.6574   19.5328 C   0  0  0  0  0  0  0  0  0  0  0  0
   48.7470    8.8953   19.1041 C   0  0  2  0  0  0  0  0  0  0  0  0
   47.9654   11.9645   22.8895 O   0  0  0  0  0  0  0  0  0  0  0  0
   46.6016   13.6963   21.2672 O   0  0  0  0  0  0  0  0  0  0  0  0
   50.1073    8.7356   19.5335 O   0  0  0  0  0  0  0  0  0  0  0  0
   47.7850    5.2146   19.3511 C   0  0  0  0  0  0  0  0  0  0  0  0
   48.0926    4.1109   18.3367 C   0  0  0  0  0  0  0  0  0  0  0  0
   48.2595    4.7852   20.7412 C   0  0  0  0  0  0  0  0  0  0  0  0
   47.8559    8.6720   19.5407 S   0  0  0  0  0  0  0  0  0  0  0  0
   48.6014    8.7274   18.3089 O   0  0  0  0  0  0  0  0  0  0  0  0
   46.5914    9.3325   19.7436 O   0  0  0  0  0  0  0  0  0  0  0  0
   48.8144    9.1522   20.7342 O   0  0  0  0  0  0  0  0  0  0  0  0
   47.6772    7.1171   19.8922 O   0  0  0  0  0  0  0  0  0  0  0  0
   48.7142   10.8614   21.1756 C   0  0  0  0  0  0  0  0  0  0  0  0
   48.5360   12.2307   21.0075 C   0  0  0  0  0  0  0  0  0  0  0  0
   47.9116    9.9465   20.4621 C   0  0  0  0  0  0  0  0  0  0  0  0
   47.5625   12.7097   20.1397 C   0  0  0  0  0  0  0  0  0  0  0  0
   46.9343   10.4548   19.5872 C   0  0  0  0  0  0  0  0  0  0  0  0
   47.5021    6.0612   20.1724 N   0  0  0  0  0  0  0  0  0  0  0  0
   46.7605   11.8341   19.4269 C   0  0  0  0  0  0  0  0  0  0  0  0
   47.2463    7.4851   19.8733 C   0  0  0  0  0  0  0  0  0  0  0  0
   48.1400    8.4613   20.6910 C   0  0  1  0  0  0  0  0  0  0  0  0
   49.2987   13.1465   21.6779 O   0  0  0  0  0  0  0  0  0  0  0  0
   47.3879   14.0539   19.9804 O   0  0  0  0  0  0  0  0  0  0  0  0
   49.5190    8.1755   20.4142 O   0  0  0  0  0  0  0  0  0  0  0  0
   48.2896    5.3826   19.1337 C   0  0  0  0  0  0  0  0  0  0  0  0
   47.4134    5.0338   17.9282 C   0  0  0  0  0  0  0  0  0  0  0  0
   48.8808    4.0988   19.7241 C   0  0  0  0  0  0  0  0  0  0  0  0
   47.8957    8.4746   19.5129 O   0  0  0  0  0  0  0  0  0  0  0  0
   47.8960    8.4573   19.5113 O   0  0  0  0  0  0  0  0  0  0  0  0
   48.8840    9.7951   21.6875 H   0  0  0  0  0  0  0  0  0  0  0  0
   47.3447   10.8586   17.8034 H   0  0  0  0  0  0  0  0  0  0  0  0
   49.4497    6.3960   19.0651 H   0  0  0  0  0  0  0  0  0  0  0  0
   46.4132   12.9324   18.7302 H   0  0  0  0  0  0  0  0  0  0  0  0
   46.8712    7.7991   19.2576 H   0  0  0  0  0  0  0  0  0  0  0  0
   47.9808    7.5552   20.6223 H   0  0  0  0  0  0  0  0  0  0  0  0
   48.7706    8.9608   18.0089 H   0  0  0  0  0  0  0  0  0  0  0  0
   48.4583   11.2498   23.3214 H   0  0  0  0  0  0  0  0  0  0  0  0
   46.1686   14.2026   20.5630 H   0  0  0  0  0  0  0  0  0  0  0  0
   50.5331    9.6047   19.4280 H   0  0  0  0  0  0  0  0  0  0  0  0
   46.6970    5.3568   19.3670 H   0  0  0  0  0  0  0  0  0  0  0  0
   49.1669    3.9013   18.2792 H   0  0  0  0  0  0  0  0  0  0  0  0
   47.5831    3.1807   18.6109 H   0  0  0  0  0  0  0  0  0  0  0  0
   47.7474    4.3919   17.3355 H   0  0  0  0  0  0  0  0  0  0  0  0
   47.8049    3.8291   21.0226 H   0  0  0  0  0  0  0  0  0  0  0  0
   49.3482    4.6605   20.7725 H   0  0  0  0  0  0  0  0  0  0  0  0
   47.9795    5.5137   21.5081 H   0  0  0  0  0  0  0  0  0  0  0  0
   48.2372    9.3959   21.4874 H   0  0  0  0  0  0  0  0  0  0  0  0
   48.4330    6.6418   19.4891 H   0  0  0  0  0  0  0  0  0  0  0  0
   49.4725   10.4825   21.8568 H   0  0  0  0  0  0  0  0  0  0  0  0
   46.2843    9.7967   19.0166 H   0  0  0  0  0  0  0  0  0  0  0  0
   48.0137    6.0089   21.0573 H   0  0  0  0  0  0  0  0  0  0  0  0
   46.0030   12.2209   18.7516 H   0  0  0  0  0  0  0  0  0  0  0  0
   47.3649    7.6861   18.8016 H   0  0  0  0  0  0  0  0  0  0  0  0
   46.1950    7.6792   20.1207 H   0  0  0  0  0  0  0  0  0  0  0  0
   47.9771    8.2613   21.7584 H   0  0  0  0  0  0  0  0  0  0  0  0
   49.9613   12.6627   22.2003 H   0  0  0  0  0  0  0  0  0  0  0  0
   48.0628   14.4584   20.5620 H   0  0  0  0  0  0  0  0  0  0  0  0
   49.7120    8.5611   19.5414 H   0  0  0  0  0  0  0  0  0  0  0  0
   49.1247    6.0151   18.8086 H   0  0  0  0  0  0  0  0  0  0  0  0
   47.9956    4.4908   17.1752 H   0  0  0  0  0  0  0  0  0  0  0  0
   46.5694    4.3978   18.2188 H   0  0  0  0  0  0  0  0  0  0  0  0
   47.0102    5.9286   17.4432 H   0  0  0  0  0  0  0  0  0  0  0  0
   49.4785    3.5678   18.9746 H   0  0  0  0  0  0  0  0  0  0  0  0
   48.0968    3.4170   20.0733 H   0  0  0  0  0  0  0  0  0  0  0  0
   49.5379    4.3208   20.5724 H   0  0  0  0  0  0  0  0  0  0  0  0
   48.0935    9.1727   20.1551 H   0  0  0  0  0  0  0  0  0  0  0  0
   48.1011    7.6551   19.9875 H   0  0  0  0  0  0  0  0  0  0  0  0
   48.0821    9.1840   20.1247 H   0  0  0  0  0  0  0  0  0  0  0  0
   48.1122    7.6611   20.0194 H   0  0  0  0  0  0  0  0  0  0  0  0
  2  1  2  0
  3  1  1  0
  4  2  1  0
  5  3  2  0
  6  8  1  0
  7  5  1  0
  8  9  1  0
  9  3  1  0
 10  2  1  0
 11  4  1  0
 12  9  1  0
 13  6  1  0
 14 13  1  0
 15 13  1  0
  7  4  2  0
 17 16  2  0
 18 16  2  0
 19 16  1  0
 20 16  1  0
 22 21  2  0
 23 21  1  0
 24 22  1  0
 25 23  2  0
 26 28  1  0
 27 25  1  0
 28 29  1  0
 29 23  1  0
 30 22  1  0
 31 24  1  0
 32 29  1  0
 33 26  1  0
 34 33  1  0
 35 33  1  0
 27 24  2  0
  1 38  1  0
  5 39  1  0
  6 40  1  0
  7 41  1  0
  8 42  1  0
  8 43  1  0
  9 44  1  6
 10 45  1  0
 11 46  1  0
 12 47  1  0
 13 48  1  0
 14 49  1  0
 14 50  1  0
 14 51  1  0
 15 52  1  0
 15 53  1  0
 15 54  1  0
 19 55  1  0
 20 56  1  0
 21 57  1  0
 25 58  1  0
 26 59  1  0
 27 60  1  0
 28 61  1  0
 28 62  1  0
 29 63  1  1
 30 64  1  0
 31 65  1  0
 32 66  1  0
 33 67  1  0
 34 68  1  0
 34 69  1  0
 34 70  1  0
 35 71  1  0
 35 72  1  0
 35 73  1  0
 36 74  1  0
 36 75  1  0
 37 76  1  0
 37 77  1  0
M  END
> <Uni-Dock RESULT> 
ENERGY=   -5.141  LOWER_BOUND=    7.235  UPPER_BOUND=    8.515
INTER + INTRA:          -5.141
INTER:                  -5.141
INTRA:                   0.000
UNBOUND:                 0.000

$$$$
