
     RDKit          3D

 26 25  0  0  0  0  0  0  0  0999 V2000
   45.8676    2.9376    8.2785 Cl  0  0  0  0  0  0  0  0  0  0  0  0
   44.3947    3.5034    8.9251 C   0  0  1  0  0  0  0  0  0  0  0  0
   45.5148    2.8730    8.2062 C   0  0  0  0  0  0  0  0  0  0  0  0
   44.8001    4.2461   10.1658 C   0  0  2  0  0  0  0  0  0  0  0  0
   45.6070    5.4003    9.9099 N   0  0  0  0  0  0  0  0  0  0  0  0
   43.6632    4.3709    8.1228 O   0  0  0  0  0  0  0  0  0  0  0  0
   46.3312    3.6541    7.3927 C   0  0  0  0  0  0  0  0  0  0  0  0
   45.8120    1.5188    8.2926 C   0  0  0  0  0  0  0  0  0  0  0  0
   45.3730    3.3630   11.2407 C   0  0  0  0  0  0  0  0  0  0  0  0
   46.8829    0.9622    7.5946 C   0  0  0  0  0  0  0  0  0  0  0  0
   47.3966    3.1228    6.6932 C   0  0  0  0  0  0  0  0  0  0  0  0
   47.6836    1.7718    6.7866 C   0  0  0  0  0  0  0  0  0  0  0  0
   45.4847    3.5839    9.4206 H   0  0  0  0  0  0  0  0  0  0  0  0
   43.7039    2.6946    9.2454 H   0  0  0  0  0  0  0  0  0  0  0  0
   43.8319    4.6468   10.5884 H   0  0  0  0  0  0  0  0  0  0  0  0
   45.0607    6.1621    9.4534 H   0  0  0  0  0  0  0  0  0  0  0  0
   46.1235    5.6788   10.7601 H   0  0  0  0  0  0  0  0  0  0  0  0
   42.6842    4.1329    8.0970 H   0  0  0  0  0  0  0  0  0  0  0  0
   46.0865    4.7261    7.3317 H   0  0  0  0  0  0  0  0  0  0  0  0
   45.1967    0.8830    8.9166 H   0  0  0  0  0  0  0  0  0  0  0  0
   46.2192    2.7532   10.9229 H   0  0  0  0  0  0  0  0  0  0  0  0
   44.5435    2.7470   11.6914 H   0  0  0  0  0  0  0  0  0  0  0  0
   45.6913    4.0534   12.0626 H   0  0  0  0  0  0  0  0  0  0  0  0
   47.0863   -0.1077    7.6870 H   0  0  0  0  0  0  0  0  0  0  0  0
   48.0163    3.7626    6.0647 H   0  0  0  0  0  0  0  0  0  0  0  0
   48.5242    1.3388    6.2377 H   0  0  0  0  0  0  0  0  0  0  0  0
  3  2  1  0
  4  2  1  0
  5  4  1  0
  6  2  1  0
  7  3  2  0
  8  3  1  0
  9  4  1  0
 10  8  2  0
 11  7  1  0
 12 11  2  0
 12 10  1  0
  1 13  1  0
  2 14  1  6
  4 15  1  6
  5 16  1  0
  5 17  1  0
  6 18  1  0
  7 19  1  0
  8 20  1  0
  9 21  1  0
  9 22  1  0
  9 23  1  0
 10 24  1  0
 11 25  1  0
 12 26  1  0
M  END
> <Uni-Dock RESULT> 
ENERGY=   -4.740  LOWER_BOUND=    0.000  UPPER_BOUND=    0.000
INTER + INTRA:          -4.740
INTER:                  -4.740
INTRA:                   0.000
UNBOUND:                 0.000

$$$$

     RDKit          3D

 26 25  0  0  0  0  0  0  0  0999 V2000
   45.1135    3.6262    9.5344 Cl  0  0  0  0  0  0  0  0  0  0  0  0
   43.9326    4.1341   10.6546 C   0  0  1  0  0  0  0  0  0  0  0  0
   44.7488    3.6024    9.5502 C   0  0  0  0  0  0  0  0  0  0  0  0
   44.7262    4.5608   11.8562 C   0  0  2  0  0  0  0  0  0  0  0  0
   45.5763    5.6870   11.6161 N   0  0  0  0  0  0  0  0  0  0  0  0
   43.1330    5.2017   10.2645 O   0  0  0  0  0  0  0  0  0  0  0  0
   45.4215    4.4860    8.7103 C   0  0  0  0  0  0  0  0  0  0  0  0
   44.8910    2.2452    9.2906 C   0  0  0  0  0  0  0  0  0  0  0  0
   45.4406    3.4291   12.5434 C   0  0  0  0  0  0  0  0  0  0  0  0
   45.6744    1.7841    8.2334 C   0  0  0  0  0  0  0  0  0  0  0  0
   46.2022    4.0501    7.6581 C   0  0  0  0  0  0  0  0  0  0  0  0
   46.3368    2.6952    7.4084 C   0  0  0  0  0  0  0  0  0  0  0  0
   45.1139    4.0327   10.8396 H   0  0  0  0  0  0  0  0  0  0  0  0
   43.2522    3.3226   10.9900 H   0  0  0  0  0  0  0  0  0  0  0  0
   43.9528    4.9231   12.5957 H   0  0  0  0  0  0  0  0  0  0  0  0
   45.0292    6.5643   11.4812 H   0  0  0  0  0  0  0  0  0  0  0  0
   46.3212    5.7392   12.3300 H   0  0  0  0  0  0  0  0  0  0  0  0
   42.1580    5.0404   10.4619 H   0  0  0  0  0  0  0  0  0  0  0  0
   45.3017    5.5594    8.9254 H   0  0  0  0  0  0  0  0  0  0  0  0
   44.3812    1.5311    9.9247 H   0  0  0  0  0  0  0  0  0  0  0  0
   46.0980    2.8484   11.8958 H   0  0  0  0  0  0  0  0  0  0  0  0
   44.6837    2.7861   13.0765 H   0  0  0  0  0  0  0  0  0  0  0  0
   46.0383    3.9017   13.3638 H   0  0  0  0  0  0  0  0  0  0  0  0
   45.7628    0.7086    8.0595 H   0  0  0  0  0  0  0  0  0  0  0  0
   46.7157    4.7689    7.0193 H   0  0  0  0  0  0  0  0  0  0  0  0
   46.9519    2.3373    6.5785 H   0  0  0  0  0  0  0  0  0  0  0  0
  3  2  1  0
  4  2  1  0
  5  4  1  0
  6  2  1  0
  7  3  2  0
  8  3  1  0
  9  4  1  0
 10  8  2  0
 11  7  1  0
 12 11  2  0
 12 10  1  0
  1 13  1  0
  2 14  1  6
  4 15  1  6
  5 16  1  0
  5 17  1  0
  6 18  1  0
  7 19  1  0
  8 20  1  0
  9 21  1  0
  9 22  1  0
  9 23  1  0
 10 24  1  0
 11 25  1  0
 12 26  1  0
M  END
> <Uni-Dock RESULT> 
ENERGY=   -4.653  LOWER_BOUND=    1.389  UPPER_BOUND=    1.751
INTER + INTRA:          -4.653
INTER:                  -4.653
INTRA:                   0.000
UNBOUND:                 0.000

$$$$

     RDKit          3D

 26 25  0  0  0  0  0  0  0  0999 V2000
   45.0968    3.8720    9.7012 Cl  0  0  0  0  0  0  0  0  0  0  0  0
   43.9723    4.4562   10.8421 C   0  0  1  0  0  0  0  0  0  0  0  0
   44.7325    3.8581    9.7317 C   0  0  0  0  0  0  0  0  0  0  0  0
   44.8215    4.9128   11.9936 C   0  0  2  0  0  0  0  0  0  0  0  0
   45.6882    6.0061   11.6736 N   0  0  0  0  0  0  0  0  0  0  0  0
   43.1838    5.5264   10.4368 O   0  0  0  0  0  0  0  0  0  0  0  0
   45.3930    4.6883    8.8300 C   0  0  0  0  0  0  0  0  0  0  0  0
   44.8325    2.4880    9.5255 C   0  0  0  0  0  0  0  0  0  0  0  0
   45.5349    3.7934   12.7015 C   0  0  0  0  0  0  0  0  0  0  0  0
   45.5633    1.9632    8.4604 C   0  0  0  0  0  0  0  0  0  0  0  0
   46.1220    4.1890    7.7689 C   0  0  0  0  0  0  0  0  0  0  0  0
   46.2148    2.8218    7.5728 C   0  0  0  0  0  0  0  0  0  0  0  0
   45.1572    4.3328   10.9868 H   0  0  0  0  0  0  0  0  0  0  0  0
   43.2864    3.6770   11.2373 H   0  0  0  0  0  0  0  0  0  0  0  0
   44.0860    5.3254   12.7453 H   0  0  0  0  0  0  0  0  0  0  0  0
   45.1571    6.8905   11.5217 H   0  0  0  0  0  0  0  0  0  0  0  0
   46.4610    6.0694   12.3561 H   0  0  0  0  0  0  0  0  0  0  0  0
   42.2135    5.3982   10.6774 H   0  0  0  0  0  0  0  0  0  0  0  0
   45.3070    5.7724    9.0031 H   0  0  0  0  0  0  0  0  0  0  0  0
   44.3307    1.8143   10.2085 H   0  0  0  0  0  0  0  0  0  0  0  0
   46.1530    3.1695   12.0553 H   0  0  0  0  0  0  0  0  0  0  0  0
   44.7841    3.1927   13.2898 H   0  0  0  0  0  0  0  0  0  0  0  0
   46.1748    4.2848   13.4779 H   0  0  0  0  0  0  0  0  0  0  0  0
   45.6194    0.8795    8.3298 H   0  0  0  0  0  0  0  0  0  0  0  0
   46.6274    4.8670    7.0809 H   0  0  0  0  0  0  0  0  0  0  0  0
   46.7888    2.4138    6.7365 H   0  0  0  0  0  0  0  0  0  0  0  0
  3  2  1  0
  4  2  1  0
  5  4  1  0
  6  2  1  0
  7  3  2  0
  8  3  1  0
  9  4  1  0
 10  8  2  0
 11  7  1  0
 12 11  2  0
 12 10  1  0
  1 13  1  0
  2 14  1  6
  4 15  1  6
  5 16  1  0
  5 17  1  0
  6 18  1  0
  7 19  1  0
  8 20  1  0
  9 21  1  0
  9 22  1  0
  9 23  1  0
 10 24  1  0
 11 25  1  0
 12 26  1  0
M  END
> <Uni-Dock RESULT> 
ENERGY=   -4.490  LOWER_BOUND=    1.548  UPPER_BOUND=    1.988
INTER + INTRA:          -4.490
INTER:                  -4.490
INTRA:                   0.000
UNBOUND:                 0.000

$$$$

     RDKit          3D

 26 25  0  0  0  0  0  0  0  0999 V2000
   44.3940    4.0847   10.5193 Cl  0  0  0  0  0  0  0  0  0  0  0  0
   43.3995    4.7044   11.7580 C   0  0  1  0  0  0  0  0  0  0  0  0
   44.0397    4.0506   10.6042 C   0  0  0  0  0  0  0  0  0  0  0  0
   44.3645    5.3242   12.7276 C   0  0  2  0  0  0  0  0  0  0  0  0
   45.0907    6.4341   12.1895 N   0  0  0  0  0  0  0  0  0  0  0  0
   42.4817    5.6777   11.3814 O   0  0  0  0  0  0  0  0  0  0  0  0
   44.5009    4.8294    9.5462 C   0  0  0  0  0  0  0  0  0  0  0  0
   44.2150    2.6761   10.5058 C   0  0  0  0  0  0  0  0  0  0  0  0
   45.2545    4.3267   13.4178 C   0  0  0  0  0  0  0  0  0  0  0  0
   44.8270    2.0977    9.3946 C   0  0  0  0  0  0  0  0  0  0  0  0
   45.1096    4.2766    8.4369 C   0  0  0  0  0  0  0  0  0  0  0  0
   45.2791    2.9055    8.3493 C   0  0  0  0  0  0  0  0  0  0  0  0
   44.5989    4.6714   11.7369 H   0  0  0  0  0  0  0  0  0  0  0  0
   42.8381    3.9254   12.3163 H   0  0  0  0  0  0  0  0  0  0  0  0
   43.7125    5.7604   13.5407 H   0  0  0  0  0  0  0  0  0  0  0  0
   44.4770    7.2639   12.0409 H   0  0  0  0  0  0  0  0  0  0  0  0
   45.9447    6.6126   12.7426 H   0  0  0  0  0  0  0  0  0  0  0  0
   41.5677    5.5120   11.7725 H   0  0  0  0  0  0  0  0  0  0  0  0
   44.3568    5.9176    9.6349 H   0  0  0  0  0  0  0  0  0  0  0  0
   43.8677    2.0416   11.3113 H   0  0  0  0  0  0  0  0  0  0  0  0
   45.8217    3.6835   12.7444 H   0  0  0  0  0  0  0  0  0  0  0  0
   44.6425    3.7396   14.1603 H   0  0  0  0  0  0  0  0  0  0  0  0
   45.9575    4.9312   14.0456 H   0  0  0  0  0  0  0  0  0  0  0  0
   44.9475    1.0122    9.3521 H   0  0  0  0  0  0  0  0  0  0  0  0
   45.4595    4.9152    7.6256 H   0  0  0  0  0  0  0  0  0  0  0  0
   45.7594    2.4554    7.4764 H   0  0  0  0  0  0  0  0  0  0  0  0
  3  2  1  0
  4  2  1  0
  5  4  1  0
  6  2  1  0
  7  3  2  0
  8  3  1  0
  9  4  1  0
 10  8  2  0
 11  7  1  0
 12 11  2  0
 12 10  1  0
  1 13  1  0
  2 14  1  6
  4 15  1  6
  5 16  1  0
  5 17  1  0
  6 18  1  0
  7 19  1  0
  8 20  1  0
  9 21  1  0
  9 22  1  0
  9 23  1  0
 10 24  1  0
 11 25  1  0
 12 26  1  0
M  END
> <Uni-Dock RESULT> 
ENERGY=   -4.306  LOWER_BOUND=    2.270  UPPER_BOUND=    3.002
INTER + INTRA:          -4.306
INTER:                  -4.306
INTRA:                   0.000
UNBOUND:                 0.000

$$$$

     RDKit          3D

 26 25  0  0  0  0  0  0  0  0999 V2000
   44.7045    4.3035   10.5313 Cl  0  0  0  0  0  0  0  0  0  0  0  0
   44.9508    5.1606   11.9847 C   0  0  1  0  0  0  0  0  0  0  0  0
   44.9995    4.4294   10.7073 C   0  0  0  0  0  0  0  0  0  0  0  0
   43.5712    5.5880   12.3967 C   0  0  2  0  0  0  0  0  0  0  0  0
   42.6972    4.4973   12.7056 N   0  0  0  0  0  0  0  0  0  0  0  0
   45.5116    4.4434   13.0346 O   0  0  0  0  0  0  0  0  0  0  0  0
   44.6444    3.0834   10.6760 C   0  0  0  0  0  0  0  0  0  0  0  0
   45.3862    5.0132    9.5076 C   0  0  0  0  0  0  0  0  0  0  0  0
   42.9441    6.5899   11.4659 C   0  0  0  0  0  0  0  0  0  0  0  0
   45.4183    4.2839    8.3197 C   0  0  0  0  0  0  0  0  0  0  0  0
   44.6692    2.3434    9.5105 C   0  0  0  0  0  0  0  0  0  0  0  0
   45.0563    2.9353    8.3206 C   0  0  0  0  0  0  0  0  0  0  0  0
   43.9223    5.0376   11.3786 H   0  0  0  0  0  0  0  0  0  0  0  0
   45.5521    6.0867   11.8644 H   0  0  0  0  0  0  0  0  0  0  0  0
   43.7214    6.1358   13.3733 H   0  0  0  0  0  0  0  0  0  0  0  0
   42.9733    4.0173   13.5891 H   0  0  0  0  0  0  0  0  0  0  0  0
   41.7100    4.7979   12.6589 H   0  0  0  0  0  0  0  0  0  0  0  0
   46.2470    4.9550   13.4964 H   0  0  0  0  0  0  0  0  0  0  0  0
   44.3395    2.6311   11.6326 H   0  0  0  0  0  0  0  0  0  0  0  0
   45.6687    6.0583    9.4970 H   0  0  0  0  0  0  0  0  0  0  0  0
   42.9004    6.2742   10.4232 H   0  0  0  0  0  0  0  0  0  0  0  0
   43.4602    7.5838   11.5936 H   0  0  0  0  0  0  0  0  0  0  0  0
   41.9075    6.7573   11.8546 H   0  0  0  0  0  0  0  0  0  0  0  0
   45.7281    4.7771    7.3948 H   0  0  0  0  0  0  0  0  0  0  0  0
   44.3849    1.2910    9.5207 H   0  0  0  0  0  0  0  0  0  0  0  0
   45.0802    2.3603    7.3910 H   0  0  0  0  0  0  0  0  0  0  0  0
  3  2  1  0
  4  2  1  0
  5  4  1  0
  6  2  1  0
  7  3  2  0
  8  3  1  0
  9  4  1  0
 10  8  2  0
 11  7  1  0
 12 11  2  0
 12 10  1  0
  1 13  1  0
  2 14  1  6
  4 15  1  6
  5 16  1  0
  5 17  1  0
  6 18  1  0
  7 19  1  0
  8 20  1  0
  9 21  1  0
  9 22  1  0
  9 23  1  0
 10 24  1  0
 11 25  1  0
 12 26  1  0
M  END
> <Uni-Dock RESULT> 
ENERGY=   -3.996  LOWER_BOUND=    2.685  UPPER_BOUND=    3.731
INTER + INTRA:          -3.996
INTER:                  -3.996
INTRA:                   0.000
UNBOUND:                 0.000

$$$$

     RDKit          3D

 26 25  0  0  0  0  0  0  0  0999 V2000
   45.2926    4.7859   11.6683 Cl  0  0  0  0  0  0  0  0  0  0  0  0
   43.8800    4.6354   10.7253 C   0  0  1  0  0  0  0  0  0  0  0  0
   44.9673    4.9533   11.6662 C   0  0  0  0  0  0  0  0  0  0  0  0
   44.2903    3.7417    9.5901 C   0  0  2  0  0  0  0  0  0  0  0  0
   44.6543    2.4192    9.9993 N   0  0  0  0  0  0  0  0  0  0  0  0
   42.7805    4.0602   11.3512 O   0  0  0  0  0  0  0  0  0  0  0  0
   45.3377    4.0147   12.6255 C   0  0  0  0  0  0  0  0  0  0  0  0
   45.6598    6.1575   11.6540 C   0  0  0  0  0  0  0  0  0  0  0  0
   45.3009    4.3629    8.6648 C   0  0  0  0  0  0  0  0  0  0  0  0
   46.6838    6.4180   12.5637 C   0  0  0  0  0  0  0  0  0  0  0  0
   46.3487    4.2528   13.5353 C   0  0  0  0  0  0  0  0  0  0  0  0
   47.0322    5.4563   13.5142 C   0  0  0  0  0  0  0  0  0  0  0  0
   44.9747    4.2171   10.4666 H   0  0  0  0  0  0  0  0  0  0  0  0
   43.5360    5.5906   10.2747 H   0  0  0  0  0  0  0  0  0  0  0  0
   43.3528    3.6154    8.9725 H   0  0  0  0  0  0  0  0  0  0  0  0
   43.8284    1.8731   10.3262 H   0  0  0  0  0  0  0  0  0  0  0  0
   45.2262    1.9583    9.2729 H   0  0  0  0  0  0  0  0  0  0  0  0
   41.9302    4.5716   11.1747 H   0  0  0  0  0  0  0  0  0  0  0  0
   44.7821    3.0638   12.6259 H   0  0  0  0  0  0  0  0  0  0  0  0
   45.3968    6.9093   10.9207 H   0  0  0  0  0  0  0  0  0  0  0  0
   46.2068    4.7187    9.1563 H   0  0  0  0  0  0  0  0  0  0  0  0
   44.7970    5.1669    8.0563 H   0  0  0  0  0  0  0  0  0  0  0  0
   45.5609    3.5668    7.9217 H   0  0  0  0  0  0  0  0  0  0  0  0
   47.2064    7.3771   12.5240 H   0  0  0  0  0  0  0  0  0  0  0  0
   46.6139    3.4960   14.2739 H   0  0  0  0  0  0  0  0  0  0  0  0
   47.8346    5.6572   14.2292 H   0  0  0  0  0  0  0  0  0  0  0  0
  3  2  1  0
  4  2  1  0
  5  4  1  0
  6  2  1  0
  7  3  2  0
  8  3  1  0
  9  4  1  0
 10  8  2  0
 11  7  1  0
 12 11  2  0
 12 10  1  0
  1 13  1  0
  2 14  1  6
  4 15  1  6
  5 16  1  0
  5 17  1  0
  6 18  1  0
  7 19  1  0
  8 20  1  0
  9 21  1  0
  9 22  1  0
  9 23  1  0
 10 24  1  0
 11 25  1  0
 12 26  1  0
M  END
> <Uni-Dock RESULT> 
ENERGY=   -3.815  LOWER_BOUND=    2.816  UPPER_BOUND=    4.920
INTER + INTRA:          -3.815
INTER:                  -3.815
INTRA:                   0.000
UNBOUND:                 0.000

$$$$

     RDKit          3D

 26 25  0  0  0  0  0  0  0  0999 V2000
   45.2892    5.3354   12.5262 Cl  0  0  0  0  0  0  0  0  0  0  0  0
   43.6133    5.3106   12.2131 C   0  0  1  0  0  0  0  0  0  0  0  0
   45.0118    5.5623   12.5998 C   0  0  0  0  0  0  0  0  0  0  0  0
   43.4357    4.1665   11.2566 C   0  0  2  0  0  0  0  0  0  0  0  0
   43.7687    2.8910   11.8143 N   0  0  0  0  0  0  0  0  0  0  0  0
   42.7859    5.0900   13.3077 O   0  0  0  0  0  0  0  0  0  0  0  0
   45.6120    4.7522   13.5600 C   0  0  0  0  0  0  0  0  0  0  0  0
   45.7838    6.5796   12.0532 C   0  0  0  0  0  0  0  0  0  0  0  0
   44.0704    4.3968    9.9121 C   0  0  0  0  0  0  0  0  0  0  0  0
   47.1054    6.7833   12.4481 C   0  0  0  0  0  0  0  0  0  0  0  0
   46.9191    4.9369   13.9649 C   0  0  0  0  0  0  0  0  0  0  0  0
   47.6794    5.9539   13.4136 C   0  0  0  0  0  0  0  0  0  0  0  0
   44.4604    4.6402   11.6905 H   0  0  0  0  0  0  0  0  0  0  0  0
   43.2382    6.2210   11.6990 H   0  0  0  0  0  0  0  0  0  0  0  0
   42.3235    4.1260   11.0625 H   0  0  0  0  0  0  0  0  0  0  0  0
   43.0774    2.5901   12.5345 H   0  0  0  0  0  0  0  0  0  0  0  0
   43.9507    2.2030   11.0655 H   0  0  0  0  0  0  0  0  0  0  0  0
   42.0026    5.7238   13.3279 H   0  0  0  0  0  0  0  0  0  0  0  0
   44.9908    3.9490   13.9864 H   0  0  0  0  0  0  0  0  0  0  0  0
   45.3475    7.2278   11.3039 H   0  0  0  0  0  0  0  0  0  0  0  0
   45.1321    4.6424    9.9483 H   0  0  0  0  0  0  0  0  0  0  0  0
   43.4694    5.1661    9.3486 H   0  0  0  0  0  0  0  0  0  0  0  0
   43.9210    3.4462    9.3396 H   0  0  0  0  0  0  0  0  0  0  0  0
   47.6822    7.5941   11.9959 H   0  0  0  0  0  0  0  0  0  0  0  0
   47.3589    4.2845   14.7195 H   0  0  0  0  0  0  0  0  0  0  0  0
   48.7154    6.1107   13.7257 H   0  0  0  0  0  0  0  0  0  0  0  0
  3  2  1  0
  4  2  1  0
  5  4  1  0
  6  2  1  0
  7  3  2  0
  8  3  1  0
  9  4  1  0
 10  8  2  0
 11  7  1  0
 12 11  2  0
 12 10  1  0
  1 13  1  0
  2 14  1  6
  4 15  1  6
  5 16  1  0
  5 17  1  0
  6 18  1  0
  7 19  1  0
  8 20  1  0
  9 21  1  0
  9 22  1  0
  9 23  1  0
 10 24  1  0
 11 25  1  0
 12 26  1  0
M  END
> <Uni-Dock RESULT> 
ENERGY=   -3.792  LOWER_BOUND=    3.912  UPPER_BOUND=    5.549
INTER + INTRA:          -3.792
INTER:                  -3.792
INTRA:                   0.000
UNBOUND:                 0.000

$$$$

     RDKit          3D

 26 25  0  0  0  0  0  0  0  0999 V2000
   44.9596    6.5765   12.0206 Cl  0  0  0  0  0  0  0  0  0  0  0  0
   44.4994    5.1882   11.1441 C   0  0  1  0  0  0  0  0  0  0  0  0
   45.1201    6.3710   11.7639 C   0  0  0  0  0  0  0  0  0  0  0  0
   43.2469    4.7208   11.8285 C   0  0  2  0  0  0  0  0  0  0  0  0
   42.1585    5.6457   11.7349 N   0  0  0  0  0  0  0  0  0  0  0  0
   44.2101    5.3780    9.7981 O   0  0  0  0  0  0  0  0  0  0  0  0
   44.5895    7.6332   11.5112 C   0  0  0  0  0  0  0  0  0  0  0  0
   46.2255    6.3021   12.6025 C   0  0  0  0  0  0  0  0  0  0  0  0
   43.4715    4.2275   13.2319 C   0  0  0  0  0  0  0  0  0  0  0  0
   46.7824    7.4479   13.1690 C   0  0  0  0  0  0  0  0  0  0  0  0
   45.1258    8.7802   12.0621 C   0  0  0  0  0  0  0  0  0  0  0  0
   46.2275    8.6998   12.8964 C   0  0  0  0  0  0  0  0  0  0  0  0
   43.9976    5.6137   12.1477 H   0  0  0  0  0  0  0  0  0  0  0  0
   45.2304    4.3542   11.2061 H   0  0  0  0  0  0  0  0  0  0  0  0
   42.9199    3.8146   11.2385 H   0  0  0  0  0  0  0  0  0  0  0  0
   41.7828    5.7056   10.7641 H   0  0  0  0  0  0  0  0  0  0  0  0
   41.4552    5.4551   12.4671 H   0  0  0  0  0  0  0  0  0  0  0  0
   44.6361    4.6761    9.2136 H   0  0  0  0  0  0  0  0  0  0  0  0
   43.7134    7.6760   10.8452 H   0  0  0  0  0  0  0  0  0  0  0  0
   46.6628    5.3359   12.8197 H   0  0  0  0  0  0  0  0  0  0  0  0
   43.9668    4.9422   13.8897 H   0  0  0  0  0  0  0  0  0  0  0  0
   44.0069    3.2363   13.1921 H   0  0  0  0  0  0  0  0  0  0  0  0
   42.4552    3.9841   13.6339 H   0  0  0  0  0  0  0  0  0  0  0  0
   47.6524    7.3548   13.8241 H   0  0  0  0  0  0  0  0  0  0  0  0
   44.6858    9.7534   11.8437 H   0  0  0  0  0  0  0  0  0  0  0  0
   46.6616    9.6005   13.3389 H   0  0  0  0  0  0  0  0  0  0  0  0
  3  2  1  0
  4  2  1  0
  5  4  1  0
  6  2  1  0
  7  3  2  0
  8  3  1  0
  9  4  1  0
 10  8  2  0
 11  7  1  0
 12 11  2  0
 12 10  1  0
  1 13  1  0
  2 14  1  6
  4 15  1  6
  5 16  1  0
  5 17  1  0
  6 18  1  0
  7 19  1  0
  8 20  1  0
  9 21  1  0
  9 22  1  0
  9 23  1  0
 10 24  1  0
 11 25  1  0
 12 26  1  0
M  END
> <Uni-Dock RESULT> 
ENERGY=   -3.312  LOWER_BOUND=    4.367  UPPER_BOUND=    5.760
INTER + INTRA:          -3.312
INTER:                  -3.312
INTRA:                   0.000
UNBOUND:                 0.000

$$$$

     RDKit          3D

 26 25  0  0  0  0  0  0  0  0999 V2000
   51.1781    3.3455   17.9963 Cl  0  0  0  0  0  0  0  0  0  0  0  0
   50.1407    4.6217   17.5463 C   0  0  1  0  0  0  0  0  0  0  0  0
   51.0541    3.4740   17.6770 C   0  0  0  0  0  0  0  0  0  0  0  0
   49.5370    5.0784   18.8434 C   0  0  2  0  0  0  0  0  0  0  0  0
   50.4886    5.6265   19.7615 N   0  0  0  0  0  0  0  0  0  0  0  0
   50.7414    5.7186   16.9403 O   0  0  0  0  0  0  0  0  0  0  0  0
   52.3533    3.6825   18.1324 C   0  0  0  0  0  0  0  0  0  0  0  0
   50.6906    2.1696   17.3671 C   0  0  0  0  0  0  0  0  0  0  0  0
   48.6324    4.0602   19.4824 C   0  0  0  0  0  0  0  0  0  0  0  0
   51.5875    1.1111   17.5055 C   0  0  0  0  0  0  0  0  0  0  0  0
   53.2568    2.6484   18.2766 C   0  0  0  0  0  0  0  0  0  0  0  0
   52.8838    1.3523   17.9648 C   0  0  0  0  0  0  0  0  0  0  0  0
   50.2607    4.1321   18.6353 H   0  0  0  0  0  0  0  0  0  0  0  0
   49.2992    4.3081   16.8925 H   0  0  0  0  0  0  0  0  0  0  0  0
   48.8663    5.9416   18.5583 H   0  0  0  0  0  0  0  0  0  0  0  0
   50.8552    6.5470   19.4369 H   0  0  0  0  0  0  0  0  0  0  0  0
   50.1123    5.6179   20.7236 H   0  0  0  0  0  0  0  0  0  0  0  0
   50.2340    6.0309   16.1274 H   0  0  0  0  0  0  0  0  0  0  0  0
   52.6306    4.7203   18.3751 H   0  0  0  0  0  0  0  0  0  0  0  0
   49.6876    1.9727   17.0102 H   0  0  0  0  0  0  0  0  0  0  0  0
   49.0936    3.0867   19.6511 H   0  0  0  0  0  0  0  0  0  0  0  0
   47.6799    3.9874   18.8839 H   0  0  0  0  0  0  0  0  0  0  0  0
   48.3185    4.5052   20.4607 H   0  0  0  0  0  0  0  0  0  0  0  0
   51.2657    0.0978   17.2519 H   0  0  0  0  0  0  0  0  0  0  0  0
   54.2668    2.8462   18.6360 H   0  0  0  0  0  0  0  0  0  0  0  0
   53.5898    0.5248   18.0746 H   0  0  0  0  0  0  0  0  0  0  0  0
  3  2  1  0
  4  2  1  0
  5  4  1  0
  6  2  1  0
  7  3  2  0
  8  3  1  0
  9  4  1  0
 10  8  2  0
 11  7  1  0
 12 11  2  0
 12 10  1  0
  1 13  1  0
  2 14  1  6
  4 15  1  6
  5 16  1  0
  5 17  1  0
  6 18  1  0
  7 19  1  0
  8 20  1  0
  9 21  1  0
  9 22  1  0
  9 23  1  0
 10 24  1  0
 11 25  1  0
 12 26  1  0
M  END
> <Uni-Dock RESULT> 
ENERGY=   -3.067  LOWER_BOUND=   10.503  UPPER_BOUND=   11.104
INTER + INTRA:          -3.067
INTER:                  -3.067
INTRA:                   0.000
UNBOUND:                 0.000

$$$$
