
     RDKit          3D

 26 25  0  0  0  0  0  0  0  0999 V2000
   45.9006    2.9961    8.0720 Cl  0  0  0  0  0  0  0  0  0  0  0  0
   45.0161    4.0681    8.6676 C   0  0  1  0  0  0  0  0  0  0  0  0
   45.8802    3.1630    7.9206 C   0  0  0  0  0  0  0  0  0  0  0  0
   44.6506    3.6720   10.0482 C   0  0  2  0  0  0  0  0  0  0  0  0
   43.8863    2.4671   10.1798 N   0  0  0  0  0  0  0  0  0  0  0  0
   45.7504    5.2742    8.7941 O   0  0  0  0  0  0  0  0  0  0  0  0
   46.1337    1.8539    8.2065 C   0  0  0  0  0  0  0  0  0  0  0  0
   46.5224    3.6829    6.7875 C   0  0  0  0  0  0  0  0  0  0  0  0
   43.7753    4.7781   10.6279 C   0  0  0  0  0  0  0  0  0  0  0  0
   47.3560    2.8843    6.0298 C   0  0  0  0  0  0  0  0  0  0  0  0
   46.9722    1.0466    7.4463 C   0  0  0  0  0  0  0  0  0  0  0  0
   47.6029    1.5557    6.3341 C   0  0  0  0  0  0  0  0  0  0  0  0
   45.0494    3.5430    9.0161 H   0  0  0  0  0  0  0  0  0  0  0  0
   44.0784    4.3402    8.1013 H   0  0  0  0  0  0  0  0  0  0  0  0
   45.5715    3.6754   10.6734 H   0  0  0  0  0  0  0  0  0  0  0  0
   42.8618    2.6757   10.0396 H   0  0  0  0  0  0  0  0  0  0  0  0
   44.0694    1.9392   11.0484 H   0  0  0  0  0  0  0  0  0  0  0  0
   46.5965    5.0186    9.2430 H   0  0  0  0  0  0  0  0  0  0  0  0
   45.6740    1.4115    9.0531 H   0  0  0  0  0  0  0  0  0  0  0  0
   46.3720    4.6991    6.5019 H   0  0  0  0  0  0  0  0  0  0  0  0
   44.2305    5.7722   10.4936 H   0  0  0  0  0  0  0  0  0  0  0  0
   43.5678    4.5827   11.7188 H   0  0  0  0  0  0  0  0  0  0  0  0
   42.7822    4.7052   10.1247 H   0  0  0  0  0  0  0  0  0  0  0  0
   47.8333    3.3241    5.1618 H   0  0  0  0  0  0  0  0  0  0  0  0
   47.1404    0.0112    7.7169 H   0  0  0  0  0  0  0  0  0  0  0  0
   48.2562    0.9927    5.7101 H   0  0  0  0  0  0  0  0  0  0  0  0
  3  2  1  0
  4  2  1  0
  5  4  1  0
  6  2  1  0
  7  3  2  0
  8  3  1  0
  9  4  1  0
 10  8  2  0
 11  7  1  0
 12 11  2  0
 12 10  1  0
  1 13  1  0
  2 14  1  6
  4 15  1  1
  5 16  1  0
  5 17  1  0
  6 18  1  0
  7 19  1  0
  8 20  1  0
  9 21  1  0
  9 22  1  0
  9 23  1  0
 10 24  1  0
 11 25  1  0
 12 26  1  0
M  END
> <Uni-Dock RESULT> 
ENERGY=   -6.285  LOWER_BOUND=    0.000  UPPER_BOUND=    0.000
INTER + INTRA:          -6.285
INTER:                  -6.285
INTRA:                   0.000
UNBOUND:                 0.000

$$$$

     RDKit          3D

 26 25  0  0  0  0  0  0  0  0999 V2000
   45.9491    2.8088    8.0988 Cl  0  0  0  0  0  0  0  0  0  0  0  0
   45.2099    2.6242    9.4049 C   0  0  1  0  0  0  0  0  0  0  0  0
   46.0076    2.6080    8.1853 C   0  0  0  0  0  0  0  0  0  0  0  0
   44.3230    3.7919    9.6198 C   0  0  2  0  0  0  0  0  0  0  0  0
   44.9710    5.0628    9.7548 N   0  0  0  0  0  0  0  0  0  0  0  0
   44.3513    1.5000    9.3104 O   0  0  0  0  0  0  0  0  0  0  0  0
   46.2854    3.6705    7.3768 C   0  0  0  0  0  0  0  0  0  0  0  0
   46.5512    1.3759    7.7940 C   0  0  0  0  0  0  0  0  0  0  0  0
   43.5793    3.5695   10.9326 C   0  0  0  0  0  0  0  0  0  0  0  0
   47.3185    1.2836    6.6496 C   0  0  0  0  0  0  0  0  0  0  0  0
   47.0573    3.5818    6.2240 C   0  0  0  0  0  0  0  0  0  0  0  0
   47.5913    2.3732    5.8390 C   0  0  0  0  0  0  0  0  0  0  0  0
   45.1427    3.1991    9.1534 H   0  0  0  0  0  0  0  0  0  0  0  0
   45.8307    2.4565   10.3325 H   0  0  0  0  0  0  0  0  0  0  0  0
   43.5327    3.7858    8.8361 H   0  0  0  0  0  0  0  0  0  0  0  0
   45.2841    5.2010   10.7527 H   0  0  0  0  0  0  0  0  0  0  0  0
   44.4225    5.8610    9.3960 H   0  0  0  0  0  0  0  0  0  0  0  0
   43.8484    1.6262    8.4655 H   0  0  0  0  0  0  0  0  0  0  0  0
   45.8980    4.6252    7.6267 H   0  0  0  0  0  0  0  0  0  0  0  0
   46.3765    0.5006    8.3770 H   0  0  0  0  0  0  0  0  0  0  0  0
   43.1159    2.5711   10.9756 H   0  0  0  0  0  0  0  0  0  0  0  0
   42.8025    4.3725   11.0840 H   0  0  0  0  0  0  0  0  0  0  0  0
   44.3180    3.7197   11.7550 H   0  0  0  0  0  0  0  0  0  0  0  0
   47.7203    0.3132    6.3818 H   0  0  0  0  0  0  0  0  0  0  0  0
   47.2485    4.4575    5.6156 H   0  0  0  0  0  0  0  0  0  0  0  0
   48.1898    2.2367    4.9693 H   0  0  0  0  0  0  0  0  0  0  0  0
  3  2  1  0
  4  2  1  0
  5  4  1  0
  6  2  1  0
  7  3  2  0
  8  3  1  0
  9  4  1  0
 10  8  2  0
 11  7  1  0
 12 11  2  0
 12 10  1  0
  1 13  1  0
  2 14  1  6
  4 15  1  1
  5 16  1  0
  5 17  1  0
  6 18  1  0
  7 19  1  0
  8 20  1  0
  9 21  1  0
  9 22  1  0
  9 23  1  0
 10 24  1  0
 11 25  1  0
 12 26  1  0
M  END
> <Uni-Dock RESULT> 
ENERGY=   -5.807  LOWER_BOUND=    1.601  UPPER_BOUND=    2.076
INTER + INTRA:          -5.807
INTER:                  -5.807
INTRA:                   0.000
UNBOUND:                 0.000

$$$$

     RDKit          3D

 26 25  0  0  0  0  0  0  0  0999 V2000
   45.1671    3.2725    9.0434 Cl  0  0  0  0  0  0  0  0  0  0  0  0
   44.3309    4.2699    9.8130 C   0  0  1  0  0  0  0  0  0  0  0  0
   45.1472    3.4597    8.9179 C   0  0  0  0  0  0  0  0  0  0  0  0
   43.9939    3.6902   11.1347 C   0  0  2  0  0  0  0  0  0  0  0  0
   43.1996    2.4976   11.1190 N   0  0  0  0  0  0  0  0  0  0  0  0
   45.1028    5.4275   10.0852 O   0  0  0  0  0  0  0  0  0  0  0  0
   45.3713    2.1175    9.0071 C   0  0  0  0  0  0  0  0  0  0  0  0
   45.7714    4.1200    7.8496 C   0  0  0  0  0  0  0  0  0  0  0  0
   43.1675    4.7233   11.8932 C   0  0  0  0  0  0  0  0  0  0  0  0
   46.5598    3.4175    6.9599 C   0  0  0  0  0  0  0  0  0  0  0  0
   46.1643    1.4066    8.1136 C   0  0  0  0  0  0  0  0  0  0  0  0
   46.7773    2.0535    7.0648 C   0  0  0  0  0  0  0  0  0  0  0  0
   44.3592    3.6998   10.0824 H   0  0  0  0  0  0  0  0  0  0  0  0
   43.3856    4.6424    9.3215 H   0  0  0  0  0  0  0  0  0  0  0  0
   44.9320    3.5822   11.7240 H   0  0  0  0  0  0  0  0  0  0  0  0
   42.1778    2.7488   11.0429 H   0  0  0  0  0  0  0  0  0  0  0  0
   43.3922    1.8471   11.8977 H   0  0  0  0  0  0  0  0  0  0  0  0
   45.9537    5.0901   10.4658 H   0  0  0  0  0  0  0  0  0  0  0  0
   44.9234    1.5702    9.7969 H   0  0  0  0  0  0  0  0  0  0  0  0
   45.6420    5.1698    7.7158 H   0  0  0  0  0  0  0  0  0  0  0  0
   43.6468    5.7150   11.8863 H   0  0  0  0  0  0  0  0  0  0  0  0
   42.9857    4.3796   12.9515 H   0  0  0  0  0  0  0  0  0  0  0  0
   42.1587    4.7468   11.4171 H   0  0  0  0  0  0  0  0  0  0  0  0
   47.0245    3.9648    6.1479 H   0  0  0  0  0  0  0  0  0  0  0  0
   46.3105    0.3395    8.2292 H   0  0  0  0  0  0  0  0  0  0  0  0
   47.3962    1.5694    6.3466 H   0  0  0  0  0  0  0  0  0  0  0  0
  3  2  1  0
  4  2  1  0
  5  4  1  0
  6  2  1  0
  7  3  2  0
  8  3  1  0
  9  4  1  0
 10  8  2  0
 11  7  1  0
 12 11  2  0
 12 10  1  0
  1 13  1  0
  2 14  1  6
  4 15  1  1
  5 16  1  0
  5 17  1  0
  6 18  1  0
  7 19  1  0
  8 20  1  0
  9 21  1  0
  9 22  1  0
  9 23  1  0
 10 24  1  0
 11 25  1  0
 12 26  1  0
M  END
> <Uni-Dock RESULT> 
ENERGY=   -5.390  LOWER_BOUND=    1.048  UPPER_BOUND=    1.281
INTER + INTRA:          -5.390
INTER:                  -5.390
INTRA:                   0.000
UNBOUND:                 0.000

$$$$

     RDKit          3D

 26 25  0  0  0  0  0  0  0  0999 V2000
   45.5816    3.1643    8.4523 Cl  0  0  0  0  0  0  0  0  0  0  0  0
   46.2143    2.2644    7.4148 C   0  0  1  0  0  0  0  0  0  0  0  0
   45.4871    2.9594    8.4695 C   0  0  0  0  0  0  0  0  0  0  0  0
   47.2664    3.0261    6.7011 C   0  0  2  0  0  0  0  0  0  0  0  0
   46.8264    4.1699    5.9586 N   0  0  0  0  0  0  0  0  0  0  0  0
   46.8834    1.1935    8.0591 O   0  0  0  0  0  0  0  0  0  0  0  0
   45.4261    4.3072    8.6680 C   0  0  0  0  0  0  0  0  0  0  0  0
   44.7719    2.1684    9.3802 C   0  0  0  0  0  0  0  0  0  0  0  0
   47.8970    2.0896    5.6758 C   0  0  0  0  0  0  0  0  0  0  0  0
   44.0586    2.7568   10.4058 C   0  0  0  0  0  0  0  0  0  0  0  0
   44.7092    4.9035    9.6991 C   0  0  0  0  0  0  0  0  0  0  0  0
   44.0069    4.1282   10.5935 C   0  0  0  0  0  0  0  0  0  0  0  0
   46.3862    2.8697    7.3657 H   0  0  0  0  0  0  0  0  0  0  0  0
   45.5285    1.7842    6.6579 H   0  0  0  0  0  0  0  0  0  0  0  0
   48.0838    3.2598    7.4194 H   0  0  0  0  0  0  0  0  0  0  0  0
   46.4897    3.8701    5.0048 H   0  0  0  0  0  0  0  0  0  0  0  0
   47.5142    4.9391    5.9137 H   0  0  0  0  0  0  0  0  0  0  0  0
   47.4422    1.6183    8.7591 H   0  0  0  0  0  0  0  0  0  0  0  0
   45.9495    4.9510    8.0081 H   0  0  0  0  0  0  0  0  0  0  0  0
   44.7732    1.1062    9.2879 H   0  0  0  0  0  0  0  0  0  0  0  0
   48.1901    1.1281    6.1265 H   0  0  0  0  0  0  0  0  0  0  0  0
   48.7848    2.5839    5.1873 H   0  0  0  0  0  0  0  0  0  0  0  0
   47.1518    1.9537    4.8568 H   0  0  0  0  0  0  0  0  0  0  0  0
   43.5193    2.1103   11.0884 H   0  0  0  0  0  0  0  0  0  0  0  0
   44.6931    5.9807    9.8130 H   0  0  0  0  0  0  0  0  0  0  0  0
   43.4389    4.5205   11.4038 H   0  0  0  0  0  0  0  0  0  0  0  0
  3  2  1  0
  4  2  1  0
  5  4  1  0
  6  2  1  0
  7  3  2  0
  8  3  1  0
  9  4  1  0
 10  8  2  0
 11  7  1  0
 12 11  2  0
 12 10  1  0
  1 13  1  0
  2 14  1  6
  4 15  1  1
  5 16  1  0
  5 17  1  0
  6 18  1  0
  7 19  1  0
  8 20  1  0
  9 21  1  0
  9 22  1  0
  9 23  1  0
 10 24  1  0
 11 25  1  0
 12 26  1  0
M  END
> <Uni-Dock RESULT> 
ENERGY=   -4.772  LOWER_BOUND=    2.181  UPPER_BOUND=    4.413
INTER + INTRA:          -4.772
INTER:                  -4.772
INTRA:                   0.000
UNBOUND:                 0.000

$$$$

     RDKit          3D

 26 25  0  0  0  0  0  0  0  0999 V2000
   45.5815    3.1642    8.4524 Cl  0  0  0  0  0  0  0  0  0  0  0  0
   46.2143    2.2644    7.4150 C   0  0  1  0  0  0  0  0  0  0  0  0
   45.4871    2.9593    8.4695 C   0  0  0  0  0  0  0  0  0  0  0  0
   47.2663    3.0260    6.7011 C   0  0  2  0  0  0  0  0  0  0  0  0
   46.8262    4.1698    5.9585 N   0  0  0  0  0  0  0  0  0  0  0  0
   46.8837    1.1935    8.0593 O   0  0  0  0  0  0  0  0  0  0  0  0
   45.4258    4.3072    8.6679 C   0  0  0  0  0  0  0  0  0  0  0  0
   44.7720    2.1683    9.3803 C   0  0  0  0  0  0  0  0  0  0  0  0
   47.8972    2.0896    5.6760 C   0  0  0  0  0  0  0  0  0  0  0  0
   44.0586    2.7567   10.4058 C   0  0  0  0  0  0  0  0  0  0  0  0
   44.7088    4.9034    9.6989 C   0  0  0  0  0  0  0  0  0  0  0  0
   44.0066    4.1282   10.5933 C   0  0  0  0  0  0  0  0  0  0  0  0
   46.3862    2.8697    7.3658 H   0  0  0  0  0  0  0  0  0  0  0  0
   45.5287    1.7839    6.6580 H   0  0  0  0  0  0  0  0  0  0  0  0
   48.0837    3.2600    7.4194 H   0  0  0  0  0  0  0  0  0  0  0  0
   46.4896    3.8698    5.0048 H   0  0  0  0  0  0  0  0  0  0  0  0
   47.5139    4.9390    5.9136 H   0  0  0  0  0  0  0  0  0  0  0  0
   47.4424    1.6186    8.7593 H   0  0  0  0  0  0  0  0  0  0  0  0
   45.9492    4.9509    8.0079 H   0  0  0  0  0  0  0  0  0  0  0  0
   44.7734    1.1061    9.2882 H   0  0  0  0  0  0  0  0  0  0  0  0
   48.1903    1.1282    6.1268 H   0  0  0  0  0  0  0  0  0  0  0  0
   48.7849    2.5840    5.1874 H   0  0  0  0  0  0  0  0  0  0  0  0
   47.1519    1.9535    4.8570 H   0  0  0  0  0  0  0  0  0  0  0  0
   43.5193    2.1102   11.0885 H   0  0  0  0  0  0  0  0  0  0  0  0
   44.6926    5.9806    9.8127 H   0  0  0  0  0  0  0  0  0  0  0  0
   43.4386    4.5205   11.4036 H   0  0  0  0  0  0  0  0  0  0  0  0
  3  2  1  0
  4  2  1  0
  5  4  1  0
  6  2  1  0
  7  3  2  0
  8  3  1  0
  9  4  1  0
 10  8  2  0
 11  7  1  0
 12 11  2  0
 12 10  1  0
  1 13  1  0
  2 14  1  6
  4 15  1  1
  5 16  1  0
  5 17  1  0
  6 18  1  0
  7 19  1  0
  8 20  1  0
  9 21  1  0
  9 22  1  0
  9 23  1  0
 10 24  1  0
 11 25  1  0
 12 26  1  0
M  END
> <Uni-Dock RESULT> 
ENERGY=   -4.772  LOWER_BOUND=    2.181  UPPER_BOUND=    4.413
INTER + INTRA:          -4.772
INTER:                  -4.772
INTRA:                   0.000
UNBOUND:                 0.000

$$$$

     RDKit          3D

 26 25  0  0  0  0  0  0  0  0999 V2000
   44.8830    4.6214   10.4571 Cl  0  0  0  0  0  0  0  0  0  0  0  0
   45.1094    6.0463   10.9097 C   0  0  1  0  0  0  0  0  0  0  0  0
   44.9304    4.7467   10.2748 C   0  0  0  0  0  0  0  0  0  0  0  0
   45.0015    6.1001   12.3868 C   0  0  2  0  0  0  0  0  0  0  0  0
   43.7278    5.7490   12.9418 N   0  0  0  0  0  0  0  0  0  0  0  0
   46.4380    6.4362   10.6057 O   0  0  0  0  0  0  0  0  0  0  0  0
   44.3617    3.6381   10.8291 C   0  0  0  0  0  0  0  0  0  0  0  0
   45.3871    4.6121    8.9557 C   0  0  0  0  0  0  0  0  0  0  0  0
   45.2513    7.5425   12.8143 C   0  0  0  0  0  0  0  0  0  0  0  0
   45.2510    3.4104    8.2893 C   0  0  0  0  0  0  0  0  0  0  0  0
   44.2228    2.4266   10.1617 C   0  0  0  0  0  0  0  0  0  0  0  0
   44.6706    2.2932    8.8672 C   0  0  0  0  0  0  0  0  0  0  0  0
   44.9010    5.6641   11.3667 H   0  0  0  0  0  0  0  0  0  0  0  0
   44.4477    6.8436   10.4620 H   0  0  0  0  0  0  0  0  0  0  0  0
   45.8438    5.5194   12.8252 H   0  0  0  0  0  0  0  0  0  0  0  0
   43.0888    6.5883   12.9310 H   0  0  0  0  0  0  0  0  0  0  0  0
   43.7771    5.2986   13.8699 H   0  0  0  0  0  0  0  0  0  0  0  0
   47.0104    5.7051   10.9529 H   0  0  0  0  0  0  0  0  0  0  0  0
   44.0003    3.6857   11.8246 H   0  0  0  0  0  0  0  0  0  0  0  0
   45.8430    5.4367    8.4567 H   0  0  0  0  0  0  0  0  0  0  0  0
   46.1694    7.9497   12.3617 H   0  0  0  0  0  0  0  0  0  0  0  0
   45.2989    7.6157   13.9384 H   0  0  0  0  0  0  0  0  0  0  0  0
   44.3490    8.1300   12.5219 H   0  0  0  0  0  0  0  0  0  0  0  0
   45.6169    3.3475    7.2709 H   0  0  0  0  0  0  0  0  0  0  0  0
   43.7629    1.5748   10.6481 H   0  0  0  0  0  0  0  0  0  0  0  0
   44.5951    1.3952    8.3005 H   0  0  0  0  0  0  0  0  0  0  0  0
  3  2  1  0
  4  2  1  0
  5  4  1  0
  6  2  1  0
  7  3  2  0
  8  3  1  0
  9  4  1  0
 10  8  2  0
 11  7  1  0
 12 11  2  0
 12 10  1  0
  1 13  1  0
  2 14  1  6
  4 15  1  1
  5 16  1  0
  5 17  1  0
  6 18  1  0
  7 19  1  0
  8 20  1  0
  9 21  1  0
  9 22  1  0
  9 23  1  0
 10 24  1  0
 11 25  1  0
 12 26  1  0
M  END
> <Uni-Dock RESULT> 
ENERGY=   -3.858  LOWER_BOUND=    2.489  UPPER_BOUND=    3.405
INTER + INTRA:          -3.858
INTER:                  -3.858
INTRA:                   0.000
UNBOUND:                 0.000

$$$$

     RDKit          3D

 26 25  0  0  0  0  0  0  0  0999 V2000
   50.8482    2.7756   17.6792 Cl  0  0  0  0  0  0  0  0  0  0  0  0
   49.7338    3.7855   17.5229 C   0  0  1  0  0  0  0  0  0  0  0  0
   50.9345    2.9819   17.7140 C   0  0  0  0  0  0  0  0  0  0  0  0
   48.4677    3.0614   17.2597 C   0  0  2  0  0  0  0  0  0  0  0  0
   48.4191    2.2890   16.0537 N   0  0  0  0  0  0  0  0  0  0  0  0
   49.5383    4.4711   18.7483 O   0  0  0  0  0  0  0  0  0  0  0  0
   51.1064    1.6746   17.3659 C   0  0  0  0  0  0  0  0  0  0  0  0
   52.0336    3.6095   18.3178 C   0  0  0  0  0  0  0  0  0  0  0  0
   47.3616    4.1026   17.1246 C   0  0  0  0  0  0  0  0  0  0  0  0
   53.2057    2.9112   18.5309 C   0  0  0  0  0  0  0  0  0  0  0  0
   52.2846    0.9681   17.5786 C   0  0  0  0  0  0  0  0  0  0  0  0
   53.3640    1.5829   18.1711 C   0  0  0  0  0  0  0  0  0  0  0  0
   49.5684    3.1973   17.3646 H   0  0  0  0  0  0  0  0  0  0  0  0
   49.8685    4.5893   16.7420 H   0  0  0  0  0  0  0  0  0  0  0  0
   48.2008    2.4731   18.1660 H   0  0  0  0  0  0  0  0  0  0  0  0
   48.1559    2.9089   15.2417 H   0  0  0  0  0  0  0  0  0  0  0  0
   47.8317    1.4417   16.1138 H   0  0  0  0  0  0  0  0  0  0  0  0
   49.4758    3.7611   19.4373 H   0  0  0  0  0  0  0  0  0  0  0  0
   50.3061    1.1526   16.9066 H   0  0  0  0  0  0  0  0  0  0  0  0
   51.9731    4.6310   18.6172 H   0  0  0  0  0  0  0  0  0  0  0  0
   47.3678    4.8165   17.9633 H   0  0  0  0  0  0  0  0  0  0  0  0
   46.3565    3.5983   17.0422 H   0  0  0  0  0  0  0  0  0  0  0  0
   47.5127    4.6132   16.1442 H   0  0  0  0  0  0  0  0  0  0  0  0
   54.0319    3.4325   19.0004 H   0  0  0  0  0  0  0  0  0  0  0  0
   52.3697   -0.0706   17.2830 H   0  0  0  0  0  0  0  0  0  0  0  0
   54.2932    1.1001   18.3624 H   0  0  0  0  0  0  0  0  0  0  0  0
  3  2  1  0
  4  2  1  0
  5  4  1  0
  6  2  1  0
  7  3  2  0
  8  3  1  0
  9  4  1  0
 10  8  2  0
 11  7  1  0
 12 11  2  0
 12 10  1  0
  1 13  1  0
  2 14  1  6
  4 15  1  1
  5 16  1  0
  5 17  1  0
  6 18  1  0
  7 19  1  0
  8 20  1  0
  9 21  1  0
  9 22  1  0
  9 23  1  0
 10 24  1  0
 11 25  1  0
 12 26  1  0
M  END
> <Uni-Dock RESULT> 
ENERGY=   -3.531  LOWER_BOUND=   10.105  UPPER_BOUND=   10.791
INTER + INTRA:          -3.531
INTER:                  -3.531
INTRA:                   0.000
UNBOUND:                 0.000

$$$$

     RDKit          3D

 26 25  0  0  0  0  0  0  0  0999 V2000
   45.5195    5.6249   12.8313 Cl  0  0  0  0  0  0  0  0  0  0  0  0
   44.9617    4.2195   12.8420 C   0  0  1  0  0  0  0  0  0  0  0  0
   45.6379    5.5030   12.9808 C   0  0  0  0  0  0  0  0  0  0  0  0
   43.8841    4.1266   11.8288 C   0  0  2  0  0  0  0  0  0  0  0  0
   42.7411    4.9642   12.0417 N   0  0  0  0  0  0  0  0  0  0  0  0
   45.9634    3.3074   12.4242 O   0  0  0  0  0  0  0  0  0  0  0  0
   45.1963    6.7119   12.5298 C   0  0  0  0  0  0  0  0  0  0  0  0
   46.8720    5.5061   13.6467 C   0  0  0  0  0  0  0  0  0  0  0  0
   43.3542    2.6967   11.8503 C   0  0  0  0  0  0  0  0  0  0  0  0
   47.5705    6.6851   13.8167 C   0  0  0  0  0  0  0  0  0  0  0  0
   45.8963    7.9010   12.6988 C   0  0  0  0  0  0  0  0  0  0  0  0
   47.1075    7.9052   13.3522 C   0  0  0  0  0  0  0  0  0  0  0  0
   44.6232    4.6251   12.4967 H   0  0  0  0  0  0  0  0  0  0  0  0
   44.5783    3.8215   13.8261 H   0  0  0  0  0  0  0  0  0  0  0  0
   44.3351    4.2518   10.8190 H   0  0  0  0  0  0  0  0  0  0  0  0
   42.0688    4.4914   12.7032 H   0  0  0  0  0  0  0  0  0  0  0  0
   42.2834    5.2890   11.1746 H   0  0  0  0  0  0  0  0  0  0  0  0
   46.3337    3.6913   11.5886 H   0  0  0  0  0  0  0  0  0  0  0  0
   44.2690    6.7654   12.0188 H   0  0  0  0  0  0  0  0  0  0  0  0
   47.2810    4.5979   14.0272 H   0  0  0  0  0  0  0  0  0  0  0  0
   44.1689    1.9580   11.7873 H   0  0  0  0  0  0  0  0  0  0  0  0
   42.6137    2.5404   11.0145 H   0  0  0  0  0  0  0  0  0  0  0  0
   42.7625    2.5825   12.7892 H   0  0  0  0  0  0  0  0  0  0  0  0
   48.5205    6.6448   14.3368 H   0  0  0  0  0  0  0  0  0  0  0  0
   45.5009    8.8361   12.3208 H   0  0  0  0  0  0  0  0  0  0  0  0
   47.6933    8.7791   13.5148 H   0  0  0  0  0  0  0  0  0  0  0  0
  3  2  1  0
  4  2  1  0
  5  4  1  0
  6  2  1  0
  7  3  2  0
  8  3  1  0
  9  4  1  0
 10  8  2  0
 11  7  1  0
 12 11  2  0
 12 10  1  0
  1 13  1  0
  2 14  1  6
  4 15  1  1
  5 16  1  0
  5 17  1  0
  6 18  1  0
  7 19  1  0
  8 20  1  0
  9 21  1  0
  9 22  1  0
  9 23  1  0
 10 24  1  0
 11 25  1  0
 12 26  1  0
M  END
> <Uni-Dock RESULT> 
ENERGY=   -3.407  LOWER_BOUND=    4.844  UPPER_BOUND=    6.129
INTER + INTRA:          -3.407
INTER:                  -3.407
INTRA:                   0.000
UNBOUND:                 0.000

$$$$

     RDKit          3D

 26 25  0  0  0  0  0  0  0  0999 V2000
   44.5354    6.7762   12.1845 Cl  0  0  0  0  0  0  0  0  0  0  0  0
   45.4502    7.9796   12.1480 C   0  0  1  0  0  0  0  0  0  0  0  0
   44.7456    6.7065   12.2308 C   0  0  0  0  0  0  0  0  0  0  0  0
   44.6359    9.1896   11.8845 C   0  0  2  0  0  0  0  0  0  0  0  0
   43.9475    9.2283   10.6283 N   0  0  0  0  0  0  0  0  0  0  0  0
   46.0292    8.1755   13.4271 O   0  0  0  0  0  0  0  0  0  0  0  0
   43.4861    6.4393   11.7814 C   0  0  0  0  0  0  0  0  0  0  0  0
   45.4256    5.6383   12.8334 C   0  0  0  0  0  0  0  0  0  0  0  0
   45.5811   10.3864   11.8711 C   0  0  0  0  0  0  0  0  0  0  0  0
   44.8216    4.4017   12.9469 C   0  0  0  0  0  0  0  0  0  0  0  0
   42.8746    5.1959   11.8937 C   0  0  0  0  0  0  0  0  0  0  0  0
   43.5409    4.1468   12.4848 C   0  0  0  0  0  0  0  0  0  0  0  0
   44.8620    8.1010   11.9541 H   0  0  0  0  0  0  0  0  0  0  0  0
   46.3148    7.9516   11.4230 H   0  0  0  0  0  0  0  0  0  0  0  0
   43.9649    9.3619   12.7556 H   0  0  0  0  0  0  0  0  0  0  0  0
   44.5961    9.5819    9.8752 H   0  0  0  0  0  0  0  0  0  0  0  0
   43.0490    9.7371   10.6504 H   0  0  0  0  0  0  0  0  0  0  0  0
   45.2706    8.1441   14.0645 H   0  0  0  0  0  0  0  0  0  0  0  0
   42.9278    7.2124   11.3182 H   0  0  0  0  0  0  0  0  0  0  0  0
   46.4145    5.7724   13.2087 H   0  0  0  0  0  0  0  0  0  0  0  0
   46.2330   10.4022   12.7588 H   0  0  0  0  0  0  0  0  0  0  0  0
   44.9960   11.3471   11.7933 H   0  0  0  0  0  0  0  0  0  0  0  0
   46.1697   10.3261   10.9252 H   0  0  0  0  0  0  0  0  0  0  0  0
   45.3809    3.6023   13.4190 H   0  0  0  0  0  0  0  0  0  0  0  0
   41.8706    5.0357   11.5197 H   0  0  0  0  0  0  0  0  0  0  0  0
   43.1308    3.1714   12.6023 H   0  0  0  0  0  0  0  0  0  0  0  0
  3  2  1  0
  4  2  1  0
  5  4  1  0
  6  2  1  0
  7  3  2  0
  8  3  1  0
  9  4  1  0
 10  8  2  0
 11  7  1  0
 12 11  2  0
 12 10  1  0
  1 13  1  0
  2 14  1  6
  4 15  1  1
  5 16  1  0
  5 17  1  0
  6 18  1  0
  7 19  1  0
  8 20  1  0
  9 21  1  0
  9 22  1  0
  9 23  1  0
 10 24  1  0
 11 25  1  0
 12 26  1  0
M  END
> <Uni-Dock RESULT> 
ENERGY=   -3.390  LOWER_BOUND=    5.747  UPPER_BOUND=    6.409
INTER + INTRA:          -3.390
INTER:                  -3.390
INTRA:                   0.000
UNBOUND:                 0.000

$$$$
