
     RDKit          3D

 26 25  0  0  0  0  0  0  0  0999 V2000
   45.0089    3.7987    9.7929 Cl  0  0  0  0  0  0  0  0  0  0  0  0
   43.8169    4.3413   10.8367 C   0  0  1  0  0  0  0  0  0  0  0  0
   44.6309    3.8074    9.7116 C   0  0  0  0  0  0  0  0  0  0  0  0
   44.7444    4.6985   11.9759 C   0  0  2  0  0  0  0  0  0  0  0  0
   43.9208    5.0744   13.1089 N   0  0  0  0  0  0  0  0  0  0  0  0
   42.9968    5.3854   10.4603 O   0  0  0  0  0  0  0  0  0  0  0  0
   45.2924    4.5897    8.8121 C   0  0  0  0  0  0  0  0  0  0  0  0
   44.7456    2.4239    9.5385 C   0  0  0  0  0  0  0  0  0  0  0  0
   45.6885    5.7919   11.5893 C   0  0  0  0  0  0  0  0  0  0  0  0
   45.4766    1.8621    8.5281 C   0  0  0  0  0  0  0  0  0  0  0  0
   46.0348    4.0280    7.7860 C   0  0  0  0  0  0  0  0  0  0  0  0
   46.1408    2.6630    7.6249 C   0  0  0  0  0  0  0  0  0  0  0  0
   44.8473    4.6742   10.8387 H   0  0  0  0  0  0  0  0  0  0  0  0
   43.1649    3.5078   11.2269 H   0  0  0  0  0  0  0  0  0  0  0  0
   45.3304    3.8194   12.2573 H   0  0  0  0  0  0  0  0  0  0  0  0
   44.3546    4.8847   14.0275 H   0  0  0  0  0  0  0  0  0  0  0  0
   43.4948    5.9975   12.9847 H   0  0  0  0  0  0  0  0  0  0  0  0
   42.2571    5.4809   11.1059 H   0  0  0  0  0  0  0  0  0  0  0  0
   45.2410    5.6635    8.8938 H   0  0  0  0  0  0  0  0  0  0  0  0
   44.2174    1.7855   10.2568 H   0  0  0  0  0  0  0  0  0  0  0  0
   45.2389    6.6504   11.0796 H   0  0  0  0  0  0  0  0  0  0  0  0
   46.1856    6.1572   12.5304 H   0  0  0  0  0  0  0  0  0  0  0  0
   46.4737    5.3583   10.9283 H   0  0  0  0  0  0  0  0  0  0  0  0
   45.5701    0.7926    8.3877 H   0  0  0  0  0  0  0  0  0  0  0  0
   46.5357    4.6943    7.1054 H   0  0  0  0  0  0  0  0  0  0  0  0
   46.7214    2.2166    6.8225 H   0  0  0  0  0  0  0  0  0  0  0  0
  3  2  1  0
  4  2  1  0
  5  4  1  0
  6  2  1  0
  7  3  2  0
  8  3  1  0
  9  4  1  0
 10  8  2  0
 11  7  1  0
 12 11  2  0
 12 10  1  0
  1 13  1  0
  2 14  1  1
  4 15  1  6
  5 16  1  0
  5 17  1  0
  6 18  1  0
  7 19  1  0
  8 20  1  0
  9 21  1  0
  9 22  1  0
  9 23  1  0
 10 24  1  0
 11 25  1  0
 12 26  1  0
M  END
> <Uni-Dock RESULT> 
ENERGY=   -4.636  LOWER_BOUND=    0.000  UPPER_BOUND=    0.000
INTER + INTRA:          -4.636
INTER:                  -4.636
INTRA:                   0.000
UNBOUND:                 0.000

$$$$

     RDKit          3D

 26 25  0  0  0  0  0  0  0  0999 V2000
   46.0226    3.4175    8.0005 Cl  0  0  0  0  0  0  0  0  0  0  0  0
   46.6207    3.2095    6.4501 C   0  0  1  0  0  0  0  0  0  0  0  0
   45.8770    3.5837    7.6832 C   0  0  0  0  0  0  0  0  0  0  0  0
   47.7399    2.2666    6.8296 C   0  0  2  0  0  0  0  0  0  0  0  0
   48.5380    2.0345    5.6411 N   0  0  0  0  0  0  0  0  0  0  0  0
   45.8026    2.7055    5.4596 O   0  0  0  0  0  0  0  0  0  0  0  0
   44.9124    2.8086    8.2554 C   0  0  0  0  0  0  0  0  0  0  0  0
   46.1610    4.7972    8.3188 C   0  0  0  0  0  0  0  0  0  0  0  0
   47.2092    0.9901    7.3995 C   0  0  0  0  0  0  0  0  0  0  0  0
   45.5184    5.2061    9.4549 C   0  0  0  0  0  0  0  0  0  0  0  0
   44.2571    3.2161    9.4061 C   0  0  0  0  0  0  0  0  0  0  0  0
   44.5452    4.4142   10.0241 C   0  0  0  0  0  0  0  0  0  0  0  0
   46.7024    2.4873    7.2529 H   0  0  0  0  0  0  0  0  0  0  0  0
   47.1265    4.1342    6.0489 H   0  0  0  0  0  0  0  0  0  0  0  0
   48.3771    2.7418    7.5804 H   0  0  0  0  0  0  0  0  0  0  0  0
   49.5319    1.8272    5.8337 H   0  0  0  0  0  0  0  0  0  0  0  0
   48.0626    1.4207    4.9730 H   0  0  0  0  0  0  0  0  0  0  0  0
   46.2459    2.7903    4.5825 H   0  0  0  0  0  0  0  0  0  0  0  0
   44.6494    1.8624    7.8106 H   0  0  0  0  0  0  0  0  0  0  0  0
   46.9354    5.4282    7.8667 H   0  0  0  0  0  0  0  0  0  0  0  0
   46.3892    0.5252    6.8426 H   0  0  0  0  0  0  0  0  0  0  0  0
   48.0648    0.2606    7.4482 H   0  0  0  0  0  0  0  0  0  0  0  0
   46.8636    1.1888    8.4399 H   0  0  0  0  0  0  0  0  0  0  0  0
   45.7326    6.1436    9.9525 H   0  0  0  0  0  0  0  0  0  0  0  0
   43.5046    2.5636    9.8134 H   0  0  0  0  0  0  0  0  0  0  0  0
   44.0349    4.7393   10.9265 H   0  0  0  0  0  0  0  0  0  0  0  0
  3  2  1  0
  4  2  1  0
  5  4  1  0
  6  2  1  0
  7  3  2  0
  8  3  1  0
  9  4  1  0
 10  8  2  0
 11  7  1  0
 12 11  2  0
 12 10  1  0
  1 13  1  0
  2 14  1  1
  4 15  1  6
  5 16  1  0
  5 17  1  0
  6 18  1  0
  7 19  1  0
  8 20  1  0
  9 21  1  0
  9 22  1  0
  9 23  1  0
 10 24  1  0
 11 25  1  0
 12 26  1  0
M  END
> <Uni-Dock RESULT> 
ENERGY=   -4.382  LOWER_BOUND=    3.482  UPPER_BOUND=    4.931
INTER + INTRA:          -4.382
INTER:                  -4.382
INTRA:                   0.000
UNBOUND:                 0.000

$$$$

     RDKit          3D

 26 25  0  0  0  0  0  0  0  0999 V2000
   44.6943    4.6469   10.0547 Cl  0  0  0  0  0  0  0  0  0  0  0  0
   45.1501    5.9459   11.0083 C   0  0  1  0  0  0  0  0  0  0  0  0
   45.0503    4.7047   10.1941 C   0  0  0  0  0  0  0  0  0  0  0  0
   43.7923    6.6099   11.0436 C   0  0  2  0  0  0  0  0  0  0  0  0
   43.9473    7.8868   11.7135 N   0  0  0  0  0  0  0  0  0  0  0  0
   45.6759    5.7251   12.2650 O   0  0  0  0  0  0  0  0  0  0  0  0
   44.5790    3.5174   10.6705 C   0  0  0  0  0  0  0  0  0  0  0  0
   45.4556    4.7232    8.8552 C   0  0  0  0  0  0  0  0  0  0  0  0
   42.7791    5.7458   11.7239 C   0  0  0  0  0  0  0  0  0  0  0  0
   45.3919    3.6215    8.0471 C   0  0  0  0  0  0  0  0  0  0  0  0
   44.5116    2.3972    9.8580 C   0  0  0  0  0  0  0  0  0  0  0  0
   44.9138    2.4270    8.5397 C   0  0  0  0  0  0  0  0  0  0  0  0
   44.1519    5.5294   10.9565 H   0  0  0  0  0  0  0  0  0  0  0  0
   45.8269    6.6685   10.4682 H   0  0  0  0  0  0  0  0  0  0  0  0
   43.4538    6.8003   10.0215 H   0  0  0  0  0  0  0  0  0  0  0  0
   43.2756    8.6093   11.4058 H   0  0  0  0  0  0  0  0  0  0  0  0
   44.0724    7.7776   12.7242 H   0  0  0  0  0  0  0  0  0  0  0  0
   46.0359    6.5673   12.6311 H   0  0  0  0  0  0  0  0  0  0  0  0
   44.2522    3.4411   11.6951 H   0  0  0  0  0  0  0  0  0  0  0  0
   45.8363    5.6734    8.4621 H   0  0  0  0  0  0  0  0  0  0  0  0
   43.0945    5.3000   12.6729 H   0  0  0  0  0  0  0  0  0  0  0  0
   41.8682    6.3789   11.9134 H   0  0  0  0  0  0  0  0  0  0  0  0
   42.4926    4.9267   11.0251 H   0  0  0  0  0  0  0  0  0  0  0  0
   45.7036    3.6280    7.0102 H   0  0  0  0  0  0  0  0  0  0  0  0
   44.1310    1.4870   10.2878 H   0  0  0  0  0  0  0  0  0  0  0  0
   44.8634    1.5521    7.8976 H   0  0  0  0  0  0  0  0  0  0  0  0
  3  2  1  0
  4  2  1  0
  5  4  1  0
  6  2  1  0
  7  3  2  0
  8  3  1  0
  9  4  1  0
 10  8  2  0
 11  7  1  0
 12 11  2  0
 12 10  1  0
  1 13  1  0
  2 14  1  1
  4 15  1  6
  5 16  1  0
  5 17  1  0
  6 18  1  0
  7 19  1  0
  8 20  1  0
  9 21  1  0
  9 22  1  0
  9 23  1  0
 10 24  1  0
 11 25  1  0
 12 26  1  0
M  END
> <Uni-Dock RESULT> 
ENERGY=   -3.985  LOWER_BOUND=    1.685  UPPER_BOUND=    2.366
INTER + INTRA:          -3.985
INTER:                  -3.985
INTRA:                   0.000
UNBOUND:                 0.000

$$$$

     RDKit          3D

 26 25  0  0  0  0  0  0  0  0999 V2000
   39.2999   12.0734   13.5199 Cl  0  0  0  0  0  0  0  0  0  0  0  0
   39.9827   12.1350   11.9919 C   0  0  1  0  0  0  0  0  0  0  0  0
   39.4430   12.3922   13.3543 C   0  0  0  0  0  0  0  0  0  0  0  0
   39.7941   10.6706   11.6671 C   0  0  2  0  0  0  0  0  0  0  0  0
   40.4578   10.4139   10.4034 N   0  0  0  0  0  0  0  0  0  0  0  0
   39.4498   12.9735   11.0342 O   0  0  0  0  0  0  0  0  0  0  0  0
   38.1218   12.5924   13.6246 C   0  0  0  0  0  0  0  0  0  0  0  0
   40.3170   12.4371   14.4458 C   0  0  0  0  0  0  0  0  0  0  0  0
   38.3451   10.3044   11.6171 C   0  0  0  0  0  0  0  0  0  0  0  0
   39.8925   12.6679   15.7253 C   0  0  0  0  0  0  0  0  0  0  0  0
   37.6843   12.8268   14.9181 C   0  0  0  0  0  0  0  0  0  0  0  0
   38.5547   12.8689   15.9863 C   0  0  0  0  0  0  0  0  0  0  0  0
   39.2288   11.4260   12.3107 H   0  0  0  0  0  0  0  0  0  0  0  0
   41.0983   12.2983   12.0179 H   0  0  0  0  0  0  0  0  0  0  0  0
   40.2780   10.0621   12.4359 H   0  0  0  0  0  0  0  0  0  0  0  0
   40.8110    9.4483   10.3005 H   0  0  0  0  0  0  0  0  0  0  0  0
   39.9359   10.7983    9.6104 H   0  0  0  0  0  0  0  0  0  0  0  0
   40.0489   13.0130   10.2516 H   0  0  0  0  0  0  0  0  0  0  0  0
   37.4001   12.5699   12.8240 H   0  0  0  0  0  0  0  0  0  0  0  0
   41.3820   12.2773   14.2392 H   0  0  0  0  0  0  0  0  0  0  0  0
   37.7018   10.9849   11.0497 H   0  0  0  0  0  0  0  0  0  0  0  0
   38.2715    9.2795   11.1581 H   0  0  0  0  0  0  0  0  0  0  0  0
   37.9634   10.2443   12.6621 H   0  0  0  0  0  0  0  0  0  0  0  0
   40.5627   12.7041   16.5750 H   0  0  0  0  0  0  0  0  0  0  0  0
   36.6300   12.9780   15.0722 H   0  0  0  0  0  0  0  0  0  0  0  0
   38.2178   13.0523   17.0028 H   0  0  0  0  0  0  0  0  0  0  0  0
  3  2  1  0
  4  2  1  0
  5  4  1  0
  6  2  1  0
  7  3  2  0
  8  3  1  0
  9  4  1  0
 10  8  2  0
 11  7  1  0
 12 11  2  0
 12 10  1  0
  1 13  1  0
  2 14  1  1
  4 15  1  6
  5 16  1  0
  5 17  1  0
  6 18  1  0
  7 19  1  0
  8 20  1  0
  9 21  1  0
  9 22  1  0
  9 23  1  0
 10 24  1  0
 11 25  1  0
 12 26  1  0
M  END
> <Uni-Dock RESULT> 
ENERGY=   -3.365  LOWER_BOUND=    9.339  UPPER_BOUND=   11.070
INTER + INTRA:          -3.365
INTER:                  -3.365
INTRA:                   0.000
UNBOUND:                 0.000

$$$$

     RDKit          3D

 26 25  0  0  0  0  0  0  0  0999 V2000
   45.4797    6.2988   12.6095 Cl  0  0  0  0  0  0  0  0  0  0  0  0
   45.1956    4.8586   11.8033 C   0  0  1  0  0  0  0  0  0  0  0  0
   45.6556    6.1898   12.2828 C   0  0  0  0  0  0  0  0  0  0  0  0
   44.1524    4.3343   12.7637 C   0  0  2  0  0  0  0  0  0  0  0  0
   43.8291    2.9791   12.3609 N   0  0  0  0  0  0  0  0  0  0  0  0
   44.7623    4.8781   10.4933 O   0  0  0  0  0  0  0  0  0  0  0  0
   44.9854    7.3549   12.0539 C   0  0  0  0  0  0  0  0  0  0  0  0
   46.8429    6.2867   13.0163 C   0  0  0  0  0  0  0  0  0  0  0  0
   42.9408    5.2104   12.7859 C   0  0  0  0  0  0  0  0  0  0  0  0
   47.3263    7.4757   13.4892 C   0  0  0  0  0  0  0  0  0  0  0  0
   45.4688    8.5630   12.5296 C   0  0  0  0  0  0  0  0  0  0  0  0
   46.6403    8.6466   13.2514 C   0  0  0  0  0  0  0  0  0  0  0  0
   44.4786    5.3762   12.4284 H   0  0  0  0  0  0  0  0  0  0  0  0
   46.0616    4.1397   11.8744 H   0  0  0  0  0  0  0  0  0  0  0  0
   44.5719    4.2989   13.7727 H   0  0  0  0  0  0  0  0  0  0  0  0
   43.5279    2.3681   13.1380 H   0  0  0  0  0  0  0  0  0  0  0  0
   43.2568    2.9569   11.5117 H   0  0  0  0  0  0  0  0  0  0  0  0
   44.7929    3.9673   10.1159 H   0  0  0  0  0  0  0  0  0  0  0  0
   44.0642    7.3438   11.4939 H   0  0  0  0  0  0  0  0  0  0  0  0
   47.3897    5.3554   13.2061 H   0  0  0  0  0  0  0  0  0  0  0  0
   42.5517    5.5090   11.8070 H   0  0  0  0  0  0  0  0  0  0  0  0
   42.1318    4.6539   13.3357 H   0  0  0  0  0  0  0  0  0  0  0  0
   43.1848    6.1298   13.3661 H   0  0  0  0  0  0  0  0  0  0  0  0
   48.2442    7.5587   14.0574 H   0  0  0  0  0  0  0  0  0  0  0  0
   44.8979    9.4505   12.3186 H   0  0  0  0  0  0  0  0  0  0  0  0
   47.0244    9.5909   13.6271 H   0  0  0  0  0  0  0  0  0  0  0  0
  3  2  1  0
  4  2  1  0
  5  4  1  0
  6  2  1  0
  7  3  2  0
  8  3  1  0
  9  4  1  0
 10  8  2  0
 11  7  1  0
 12 11  2  0
 12 10  1  0
  1 13  1  0
  2 14  1  1
  4 15  1  6
  5 16  1  0
  5 17  1  0
  6 18  1  0
  7 19  1  0
  8 20  1  0
  9 21  1  0
  9 22  1  0
  9 23  1  0
 10 24  1  0
 11 25  1  0
 12 26  1  0
M  END
> <Uni-Dock RESULT> 
ENERGY=   -3.329  LOWER_BOUND=    3.073  UPPER_BOUND=    4.743
INTER + INTRA:          -3.329
INTER:                  -3.329
INTRA:                   0.000
UNBOUND:                 0.000

$$$$

     RDKit          3D

 26 25  0  0  0  0  0  0  0  0999 V2000
   45.6701    7.0670   12.1549 Cl  0  0  0  0  0  0  0  0  0  0  0  0
   44.3937    6.1155   12.6747 C   0  0  1  0  0  0  0  0  0  0  0  0
   45.5975    6.9766   12.5238 C   0  0  0  0  0  0  0  0  0  0  0  0
   43.8161    5.8495   11.3031 C   0  0  2  0  0  0  0  0  0  0  0  0
   42.5663    5.1367   11.4856 N   0  0  0  0  0  0  0  0  0  0  0  0
   44.6431    4.9612   13.3887 O   0  0  0  0  0  0  0  0  0  0  0  0
   46.8331    6.5064   12.1907 C   0  0  0  0  0  0  0  0  0  0  0  0
   45.4891    8.3563   12.7284 C   0  0  0  0  0  0  0  0  0  0  0  0
   44.7725    5.0822   10.4471 C   0  0  0  0  0  0  0  0  0  0  0  0
   46.5519    9.2087   12.6067 C   0  0  0  0  0  0  0  0  0  0  0  0
   47.9144    7.3637   12.0656 C   0  0  0  0  0  0  0  0  0  0  0  0
   47.7960    8.7219   12.2696 C   0  0  0  0  0  0  0  0  0  0  0  0
   44.8672    6.0483   11.7032 H   0  0  0  0  0  0  0  0  0  0  0  0
   43.6057    6.7044   13.2263 H   0  0  0  0  0  0  0  0  0  0  0  0
   43.5972    6.8004   10.8099 H   0  0  0  0  0  0  0  0  0  0  0  0
   41.8720    5.3039   10.7388 H   0  0  0  0  0  0  0  0  0  0  0  0
   42.7168    4.1621   11.7621 H   0  0  0  0  0  0  0  0  0  0  0  0
   43.7994    4.6027   13.7528 H   0  0  0  0  0  0  0  0  0  0  0  0
   46.9790    5.4518   12.0210 H   0  0  0  0  0  0  0  0  0  0  0  0
   44.4995    8.7448   12.9967 H   0  0  0  0  0  0  0  0  0  0  0  0
   45.2440    4.2147   10.9205 H   0  0  0  0  0  0  0  0  0  0  0  0
   44.2061    4.7290    9.5411 H   0  0  0  0  0  0  0  0  0  0  0  0
   45.5725    5.7786   10.1060 H   0  0  0  0  0  0  0  0  0  0  0  0
   46.4759   10.2773   12.7635 H   0  0  0  0  0  0  0  0  0  0  0  0
   48.8659    6.9366   11.8006 H   0  0  0  0  0  0  0  0  0  0  0  0
   48.6400    9.3991   12.1731 H   0  0  0  0  0  0  0  0  0  0  0  0
  3  2  1  0
  4  2  1  0
  5  4  1  0
  6  2  1  0
  7  3  2  0
  8  3  1  0
  9  4  1  0
 10  8  2  0
 11  7  1  0
 12 11  2  0
 12 10  1  0
  1 13  1  0
  2 14  1  1
  4 15  1  6
  5 16  1  0
  5 17  1  0
  6 18  1  0
  7 19  1  0
  8 20  1  0
  9 21  1  0
  9 22  1  0
  9 23  1  0
 10 24  1  0
 11 25  1  0
 12 26  1  0
M  END
> <Uni-Dock RESULT> 
ENERGY=   -3.316  LOWER_BOUND=    2.772  UPPER_BOUND=    4.940
INTER + INTRA:          -3.316
INTER:                  -3.316
INTRA:                   0.000
UNBOUND:                 0.000

$$$$

     RDKit          3D

 26 25  0  0  0  0  0  0  0  0999 V2000
   44.6899    5.3112   11.6267 Cl  0  0  0  0  0  0  0  0  0  0  0  0
   44.5219    6.9195   12.0625 C   0  0  1  0  0  0  0  0  0  0  0  0
   44.3786    5.5287   11.5540 C   0  0  0  0  0  0  0  0  0  0  0  0
   45.8776    7.0561   12.7174 C   0  0  2  0  0  0  0  0  0  0  0  0
   45.9355    8.3678   13.3334 N   0  0  0  0  0  0  0  0  0  0  0  0
   44.2921    7.8740   11.0927 O   0  0  0  0  0  0  0  0  0  0  0  0
   44.8970    5.0934   10.3705 C   0  0  0  0  0  0  0  0  0  0  0  0
   43.6758    4.5858   12.3119 C   0  0  0  0  0  0  0  0  0  0  0  0
   46.9835    6.8573   11.7307 C   0  0  0  0  0  0  0  0  0  0  0  0
   43.5046    3.2902   11.9081 C   0  0  0  0  0  0  0  0  0  0  0  0
   44.7276    3.7826    9.9549 C   0  0  0  0  0  0  0  0  0  0  0  0
   44.0331    2.8618   10.7101 C   0  0  0  0  0  0  0  0  0  0  0  0
   45.4627    6.4217   11.8632 H   0  0  0  0  0  0  0  0  0  0  0  0
   43.7695    7.0723   12.8886 H   0  0  0  0  0  0  0  0  0  0  0  0
   45.9783    6.3049   13.5054 H   0  0  0  0  0  0  0  0  0  0  0  0
   46.5475    8.4173   14.1645 H   0  0  0  0  0  0  0  0  0  0  0  0
   46.0429    9.1136   12.6396 H   0  0  0  0  0  0  0  0  0  0  0  0
   44.0621    8.7346   11.5164 H   0  0  0  0  0  0  0  0  0  0  0  0
   45.4483    5.7745    9.7425 H   0  0  0  0  0  0  0  0  0  0  0  0
   43.2548    4.9257   13.2656 H   0  0  0  0  0  0  0  0  0  0  0  0
   46.8776    7.3951   10.7829 H   0  0  0  0  0  0  0  0  0  0  0  0
   47.9393    7.1893   12.2234 H   0  0  0  0  0  0  0  0  0  0  0  0
   47.0661    5.7677   11.5130 H   0  0  0  0  0  0  0  0  0  0  0  0
   42.9621    2.5549   12.4890 H   0  0  0  0  0  0  0  0  0  0  0  0
   45.1588    3.4950    9.0118 H   0  0  0  0  0  0  0  0  0  0  0  0
   43.8969    1.8327   10.3896 H   0  0  0  0  0  0  0  0  0  0  0  0
  3  2  1  0
  4  2  1  0
  5  4  1  0
  6  2  1  0
  7  3  2  0
  8  3  1  0
  9  4  1  0
 10  8  2  0
 11  7  1  0
 12 11  2  0
 12 10  1  0
  1 13  1  0
  2 14  1  1
  4 15  1  6
  5 16  1  0
  5 17  1  0
  6 18  1  0
  7 19  1  0
  8 20  1  0
  9 21  1  0
  9 22  1  0
  9 23  1  0
 10 24  1  0
 11 25  1  0
 12 26  1  0
M  END
> <Uni-Dock RESULT> 
ENERGY=   -3.274  LOWER_BOUND=    2.227  UPPER_BOUND=    3.006
INTER + INTRA:          -3.274
INTER:                  -3.274
INTRA:                   0.000
UNBOUND:                 0.000

$$$$

     RDKit          3D

 26 25  0  0  0  0  0  0  0  0999 V2000
   39.2554   11.8159   13.1465 Cl  0  0  0  0  0  0  0  0  0  0  0  0
   38.5460   13.1176   13.9256 C   0  0  1  0  0  0  0  0  0  0  0  0
   39.0958   12.1199   12.9686 C   0  0  0  0  0  0  0  0  0  0  0  0
   38.7932   12.6231   15.3327 C   0  0  2  0  0  0  0  0  0  0  0  0
   38.1209   13.5329   16.2403 N   0  0  0  0  0  0  0  0  0  0  0  0
   39.0262   14.3931   13.7093 O   0  0  0  0  0  0  0  0  0  0  0  0
   40.4113   12.0458   12.6179 C   0  0  0  0  0  0  0  0  0  0  0  0
   38.2384   11.1870   12.3756 C   0  0  0  0  0  0  0  0  0  0  0  0
   40.2557   12.5247   15.6282 C   0  0  0  0  0  0  0  0  0  0  0  0
   38.6730   10.2412   11.4882 C   0  0  0  0  0  0  0  0  0  0  0  0
   40.8589   11.0907   11.7197 C   0  0  0  0  0  0  0  0  0  0  0  0
   40.0048   10.1761   11.1414 C   0  0  0  0  0  0  0  0  0  0  0  0
   39.3352   12.4994   14.3351 H   0  0  0  0  0  0  0  0  0  0  0  0
   37.4249   13.1411   13.8052 H   0  0  0  0  0  0  0  0  0  0  0  0
   38.3487   11.6315   15.4532 H   0  0  0  0  0  0  0  0  0  0  0  0
   37.8086   13.0950   17.1227 H   0  0  0  0  0  0  0  0  0  0  0  0
   38.6127   14.4277   16.3214 H   0  0  0  0  0  0  0  0  0  0  0  0
   38.4134   15.0548   14.1087 H   0  0  0  0  0  0  0  0  0  0  0  0
   41.1203   12.7387   13.0418 H   0  0  0  0  0  0  0  0  0  0  0  0
   37.1782   11.2380   12.6510 H   0  0  0  0  0  0  0  0  0  0  0  0
   40.8594   13.3899   15.3352 H   0  0  0  0  0  0  0  0  0  0  0  0
   40.3666   12.3728   16.7377 H   0  0  0  0  0  0  0  0  0  0  0  0
   40.6565   11.6218   15.1129 H   0  0  0  0  0  0  0  0  0  0  0  0
   38.0157    9.5160   11.0252 H   0  0  0  0  0  0  0  0  0  0  0  0
   41.9080   11.0792   11.4799 H   0  0  0  0  0  0  0  0  0  0  0  0
   40.3498    9.4248   10.4365 H   0  0  0  0  0  0  0  0  0  0  0  0
  3  2  1  0
  4  2  1  0
  5  4  1  0
  6  2  1  0
  7  3  2  0
  8  3  1  0
  9  4  1  0
 10  8  2  0
 11  7  1  0
 12 11  2  0
 12 10  1  0
  1 13  1  0
  2 14  1  1
  4 15  1  6
  5 16  1  0
  5 17  1  0
  6 18  1  0
  7 19  1  0
  8 20  1  0
  9 21  1  0
  9 22  1  0
  9 23  1  0
 10 24  1  0
 11 25  1  0
 12 26  1  0
M  END
> <Uni-Dock RESULT> 
ENERGY=   -3.255  LOWER_BOUND=    9.292  UPPER_BOUND=   10.414
INTER + INTRA:          -3.255
INTER:                  -3.255
INTRA:                   0.000
UNBOUND:                 0.000

$$$$

     RDKit          3D

 26 25  0  0  0  0  0  0  0  0999 V2000
   45.5908    5.0337   11.6533 Cl  0  0  0  0  0  0  0  0  0  0  0  0
   44.3568    5.2156   10.5358 C   0  0  1  0  0  0  0  0  0  0  0  0
   45.2974    5.2834   11.6866 C   0  0  0  0  0  0  0  0  0  0  0  0
   44.8498    4.1606    9.5716 C   0  0  2  0  0  0  0  0  0  0  0  0
   44.0054    4.2159    8.3938 N   0  0  0  0  0  0  0  0  0  0  0  0
   43.0459    5.0239   10.9220 O   0  0  0  0  0  0  0  0  0  0  0  0
   45.2673    4.4259   12.7461 C   0  0  0  0  0  0  0  0  0  0  0  0
   46.2844    6.2745   11.7137 C   0  0  0  0  0  0  0  0  0  0  0  0
   44.8414    2.8023   10.1970 C   0  0  0  0  0  0  0  0  0  0  0  0
   47.1828    6.3969   12.7377 C   0  0  0  0  0  0  0  0  0  0  0  0
   46.1740    4.5437   13.7870 C   0  0  0  0  0  0  0  0  0  0  0  0
   47.1427    5.5244   13.8033 C   0  0  0  0  0  0  0  0  0  0  0  0
   44.9190    4.3052   10.7024 H   0  0  0  0  0  0  0  0  0  0  0  0
   44.4164    6.1915    9.9736 H   0  0  0  0  0  0  0  0  0  0  0  0
   45.8737    4.3951    9.2682 H   0  0  0  0  0  0  0  0  0  0  0  0
   44.4773    3.9242    7.5220 H   0  0  0  0  0  0  0  0  0  0  0  0
   43.0772    3.8193    8.5676 H   0  0  0  0  0  0  0  0  0  0  0  0
   42.4377    5.3176   10.2032 H   0  0  0  0  0  0  0  0  0  0  0  0
   44.5286    3.6414   12.7817 H   0  0  0  0  0  0  0  0  0  0  0  0
   46.3173    6.9694   10.8661 H   0  0  0  0  0  0  0  0  0  0  0  0
   43.9293    2.5345   10.7403 H   0  0  0  0  0  0  0  0  0  0  0  0
   44.9992    2.0509    9.3743 H   0  0  0  0  0  0  0  0  0  0  0  0
   45.7046    2.7350   10.8982 H   0  0  0  0  0  0  0  0  0  0  0  0
   47.9494    7.1611   12.7658 H   0  0  0  0  0  0  0  0  0  0  0  0
   46.1030    3.8389   14.5971 H   0  0  0  0  0  0  0  0  0  0  0  0
   47.8564    5.6219   14.6166 H   0  0  0  0  0  0  0  0  0  0  0  0
  3  2  1  0
  4  2  1  0
  5  4  1  0
  6  2  1  0
  7  3  2  0
  8  3  1  0
  9  4  1  0
 10  8  2  0
 11  7  1  0
 12 11  2  0
 12 10  1  0
  1 13  1  0
  2 14  1  1
  4 15  1  6
  5 16  1  0
  5 17  1  0
  6 18  1  0
  7 19  1  0
  8 20  1  0
  9 21  1  0
  9 22  1  0
  9 23  1  0
 10 24  1  0
 11 25  1  0
 12 26  1  0
M  END
> <Uni-Dock RESULT> 
ENERGY=   -3.228  LOWER_BOUND=    2.022  UPPER_BOUND=    4.245
INTER + INTRA:          -3.228
INTER:                  -3.228
INTRA:                   0.000
UNBOUND:                 0.000

$$$$
