
     RDKit          3D

 26 25  0  0  0  0  0  0  0  0999 V2000
   46.0367    3.0522    7.8585 Cl  0  0  0  0  0  0  0  0  0  0  0  0
   45.0982    2.8473    9.2206 C   0  0  1  0  0  0  0  0  0  0  0  0
   45.9850    2.7079    8.0734 C   0  0  0  0  0  0  0  0  0  0  0  0
   44.5273    4.2099    9.3562 C   0  0  2  0  0  0  0  0  0  0  0  0
   45.5322    5.2153    9.4400 N   0  0  0  0  0  0  0  0  0  0  0  0
   44.1426    1.8287    9.1692 O   0  0  0  0  0  0  0  0  0  0  0  0
   46.5590    1.4455    7.8607 C   0  0  0  0  0  0  0  0  0  0  0  0
   46.3167    3.6740    7.1623 C   0  0  0  0  0  0  0  0  0  0  0  0
   43.6966    4.3411   10.6372 C   0  0  0  0  0  0  0  0  0  0  0  0
   47.1679    3.4271    6.0919 C   0  0  0  0  0  0  0  0  0  0  0  0
   47.4032    1.2003    6.7990 C   0  0  0  0  0  0  0  0  0  0  0  0
   47.7267    2.1847    5.8911 C   0  0  0  0  0  0  0  0  0  0  0  0
   45.3084    3.3981    8.9790 H   0  0  0  0  0  0  0  0  0  0  0  0
   45.7379    2.6755   10.1343 H   0  0  0  0  0  0  0  0  0  0  0  0
   43.7791    4.3999    8.5419 H   0  0  0  0  0  0  0  0  0  0  0  0
   45.2150    6.1328    9.7615 H   0  0  0  0  0  0  0  0  0  0  0  0
   46.4605    4.8931    9.7233 H   0  0  0  0  0  0  0  0  0  0  0  0
   44.4090    1.1734    8.4838 H   0  0  0  0  0  0  0  0  0  0  0  0
   46.3638    0.6118    8.5213 H   0  0  0  0  0  0  0  0  0  0  0  0
   45.9216    4.6541    7.2433 H   0  0  0  0  0  0  0  0  0  0  0  0
   44.2480    3.9525   11.5121 H   0  0  0  0  0  0  0  0  0  0  0  0
   43.5567    5.4338   10.7930 H   0  0  0  0  0  0  0  0  0  0  0  0
   42.6866    3.9036   10.5273 H   0  0  0  0  0  0  0  0  0  0  0  0
   47.4005    4.2174    5.4010 H   0  0  0  0  0  0  0  0  0  0  0  0
   47.8292    0.2262    6.6581 H   0  0  0  0  0  0  0  0  0  0  0  0
   48.3778    2.0485    5.0479 H   0  0  0  0  0  0  0  0  0  0  0  0
  3  2  1  0
  4  2  1  0
  5  4  1  0
  6  2  1  0
  7  3  2  0
  8  3  1  0
  9  4  1  0
 10  8  2  0
 11  7  1  0
 12 11  2  0
 12 10  1  0
  1 13  1  0
  2 14  1  6
  4 15  1  1
  5 16  1  0
  5 17  1  0
  6 18  1  0
  7 19  1  0
  8 20  1  0
  9 21  1  0
  9 22  1  0
  9 23  1  0
 10 24  1  0
 11 25  1  0
 12 26  1  0
M  END
> <Uni-Dock RESULT> 
ENERGY=   -6.112  LOWER_BOUND=    0.000  UPPER_BOUND=    0.000
INTER + INTRA:          -6.112
INTER:                  -6.112
INTRA:                   0.000
UNBOUND:                 0.000

$$$$

     RDKit          3D

 26 25  0  0  0  0  0  0  0  0999 V2000
   46.0865    2.8192    7.9149 Cl  0  0  0  0  0  0  0  0  0  0  0  0
   45.2030    4.0605    8.5906 C   0  0  1  0  0  0  0  0  0  0  0  0
   46.0354    3.1963    7.7646 C   0  0  0  0  0  0  0  0  0  0  0  0
   44.7374    3.4058    9.8378 C   0  0  2  0  0  0  0  0  0  0  0  0
   44.0224    2.2004    9.5855 N   0  0  0  0  0  0  0  0  0  0  0  0
   45.8805    5.2657    8.7951 O   0  0  0  0  0  0  0  0  0  0  0  0
   46.5321    3.7408    6.5708 C   0  0  0  0  0  0  0  0  0  0  0  0
   46.4028    1.9044    8.0281 C   0  0  0  0  0  0  0  0  0  0  0  0
   43.7736    4.3087   10.6149 C   0  0  0  0  0  0  0  0  0  0  0  0
   47.2158    1.1721    7.1713 C   0  0  0  0  0  0  0  0  0  0  0  0
   47.3387    3.0147    5.7210 C   0  0  0  0  0  0  0  0  0  0  0  0
   47.6986    1.7148    6.0015 C   0  0  0  0  0  0  0  0  0  0  0  0
   45.1593    3.4398    8.7277 H   0  0  0  0  0  0  0  0  0  0  0  0
   44.2794    4.2822    7.9810 H   0  0  0  0  0  0  0  0  0  0  0  0
   45.5951    3.2703   10.5483 H   0  0  0  0  0  0  0  0  0  0  0  0
   43.4858    1.8305   10.3737 H   0  0  0  0  0  0  0  0  0  0  0  0
   43.6371    2.1011    8.6435 H   0  0  0  0  0  0  0  0  0  0  0  0
   46.6588    5.3023    8.1925 H   0  0  0  0  0  0  0  0  0  0  0  0
   46.3023    4.7528    6.2667 H   0  0  0  0  0  0  0  0  0  0  0  0
   46.0783    1.4181    8.9121 H   0  0  0  0  0  0  0  0  0  0  0  0
   42.9881    4.7166    9.9540 H   0  0  0  0  0  0  0  0  0  0  0  0
   43.2724    3.6457   11.3545 H   0  0  0  0  0  0  0  0  0  0  0  0
   44.3051    5.0870   11.1943 H   0  0  0  0  0  0  0  0  0  0  0  0
   47.4783    0.1595    7.4195 H   0  0  0  0  0  0  0  0  0  0  0  0
   47.7058    3.4538    4.8140 H   0  0  0  0  0  0  0  0  0  0  0  0
   48.3230    1.1048    5.3759 H   0  0  0  0  0  0  0  0  0  0  0  0
  3  2  1  0
  4  2  1  0
  5  4  1  0
  6  2  1  0
  7  3  2  0
  8  3  1  0
  9  4  1  0
 10  8  2  0
 11  7  1  0
 12 11  2  0
 12 10  1  0
  1 13  1  0
  2 14  1  6
  4 15  1  1
  5 16  1  0
  5 17  1  0
  6 18  1  0
  7 19  1  0
  8 20  1  0
  9 21  1  0
  9 22  1  0
  9 23  1  0
 10 24  1  0
 11 25  1  0
 12 26  1  0
M  END
> <Uni-Dock RESULT> 
ENERGY=   -5.935  LOWER_BOUND=    1.583  UPPER_BOUND=    2.068
INTER + INTRA:          -5.935
INTER:                  -5.935
INTRA:                   0.000
UNBOUND:                 0.000

$$$$

     RDKit          3D

 26 25  0  0  0  0  0  0  0  0999 V2000
   44.9036    3.5409    9.6600 Cl  0  0  0  0  0  0  0  0  0  0  0  0
   44.3771    4.8639   10.5263 C   0  0  1  0  0  0  0  0  0  0  0  0
   44.9435    3.9350    9.5577 C   0  0  0  0  0  0  0  0  0  0  0  0
   43.8001    4.1895   11.7150 C   0  0  2  0  0  0  0  0  0  0  0  0
   42.8005    3.2363   11.3684 N   0  0  0  0  0  0  0  0  0  0  0  0
   45.3390    5.8320   10.8278 O   0  0  0  0  0  0  0  0  0  0  0  0
   45.5247    4.4891    8.4072 C   0  0  0  0  0  0  0  0  0  0  0  0
   44.9854    2.5699    9.6475 C   0  0  0  0  0  0  0  0  0  0  0  0
   43.1147    5.1938   12.6477 C   0  0  0  0  0  0  0  0  0  0  0  0
   45.5650    1.7764    8.6648 C   0  0  0  0  0  0  0  0  0  0  0  0
   46.0999    3.7023    7.4324 C   0  0  0  0  0  0  0  0  0  0  0  0
   46.1331    2.3292    7.5388 C   0  0  0  0  0  0  0  0  0  0  0  0
   44.1843    4.2603   10.5931 H   0  0  0  0  0  0  0  0  0  0  0  0
   43.5203    5.3791   10.0028 H   0  0  0  0  0  0  0  0  0  0  0  0
   44.6176    3.7604   12.3526 H   0  0  0  0  0  0  0  0  0  0  0  0
   42.2122    2.9113   12.1392 H   0  0  0  0  0  0  0  0  0  0  0  0
   42.3751    3.3541   10.4460 H   0  0  0  0  0  0  0  0  0  0  0  0
   46.0838    5.7542   10.1880 H   0  0  0  0  0  0  0  0  0  0  0  0
   45.5452    5.5567    8.2364 H   0  0  0  0  0  0  0  0  0  0  0  0
   44.5763    2.0691   10.4872 H   0  0  0  0  0  0  0  0  0  0  0  0
   42.4363    5.8610   12.0865 H   0  0  0  0  0  0  0  0  0  0  0  0
   42.4862    4.5845   13.3343 H   0  0  0  0  0  0  0  0  0  0  0  0
   43.8399    5.7393   13.2802 H   0  0  0  0  0  0  0  0  0  0  0  0
   45.5745    0.7074    8.7781 H   0  0  0  0  0  0  0  0  0  0  0  0
   46.5379    4.1503    6.5619 H   0  0  0  0  0  0  0  0  0  0  0  0
   46.5673    1.6700    6.8106 H   0  0  0  0  0  0  0  0  0  0  0  0
  3  2  1  0
  4  2  1  0
  5  4  1  0
  6  2  1  0
  7  3  2  0
  8  3  1  0
  9  4  1  0
 10  8  2  0
 11  7  1  0
 12 11  2  0
 12 10  1  0
  1 13  1  0
  2 14  1  6
  4 15  1  1
  5 16  1  0
  5 17  1  0
  6 18  1  0
  7 19  1  0
  8 20  1  0
  9 21  1  0
  9 22  1  0
  9 23  1  0
 10 24  1  0
 11 25  1  0
 12 26  1  0
M  END
> <Uni-Dock RESULT> 
ENERGY=   -4.764  LOWER_BOUND=    2.136  UPPER_BOUND=    2.996
INTER + INTRA:          -4.764
INTER:                  -4.764
INTRA:                   0.000
UNBOUND:                 0.000

$$$$

     RDKit          3D

 26 25  0  0  0  0  0  0  0  0999 V2000
   45.7889    3.2389    8.2901 Cl  0  0  0  0  0  0  0  0  0  0  0  0
   46.4818    2.0961    7.2942 C   0  0  1  0  0  0  0  0  0  0  0  0
   45.7276    2.8345    8.2982 C   0  0  0  0  0  0  0  0  0  0  0  0
   47.3551    2.9623    6.4647 C   0  0  2  0  0  0  0  0  0  0  0  0
   46.6303    3.9988    5.8104 N   0  0  0  0  0  0  0  0  0  0  0  0
   47.1519    1.0452    7.9265 O   0  0  0  0  0  0  0  0  0  0  0  0
   44.8853    2.0904    9.1380 C   0  0  0  0  0  0  0  0  0  0  0  0
   45.7558    4.1836    8.5271 C   0  0  0  0  0  0  0  0  0  0  0  0
   48.0376    2.1617    5.3505 C   0  0  0  0  0  0  0  0  0  0  0  0
   45.0002    4.7853    9.5262 C   0  0  0  0  0  0  0  0  0  0  0  0
   44.1358    2.6869   10.1292 C   0  0  0  0  0  0  0  0  0  0  0  0
   44.1760    4.0468   10.3458 C   0  0  0  0  0  0  0  0  0  0  0  0
   46.4452    2.7237    7.1904 H   0  0  0  0  0  0  0  0  0  0  0  0
   45.7177    1.6480    6.5948 H   0  0  0  0  0  0  0  0  0  0  0  0
   48.2164    3.3428    7.0750 H   0  0  0  0  0  0  0  0  0  0  0  0
   47.1270    4.4783    5.0560 H   0  0  0  0  0  0  0  0  0  0  0  0
   45.6245    3.8430    5.7106 H   0  0  0  0  0  0  0  0  0  0  0  0
   46.8118    0.9554    8.8465 H   0  0  0  0  0  0  0  0  0  0  0  0
   44.7881    1.0176    9.0424 H   0  0  0  0  0  0  0  0  0  0  0  0
   46.3709    4.8197    7.9437 H   0  0  0  0  0  0  0  0  0  0  0  0
   47.3089    1.5360    4.8047 H   0  0  0  0  0  0  0  0  0  0  0  0
   48.4269    2.9180    4.6334 H   0  0  0  0  0  0  0  0  0  0  0  0
   48.9121    1.5935    5.7194 H   0  0  0  0  0  0  0  0  0  0  0  0
   45.0541    5.8495    9.6693 H   0  0  0  0  0  0  0  0  0  0  0  0
   43.4994    2.0958   10.7584 H   0  0  0  0  0  0  0  0  0  0  0  0
   43.6140    4.5622   11.1020 H   0  0  0  0  0  0  0  0  0  0  0  0
  3  2  1  0
  4  2  1  0
  5  4  1  0
  6  2  1  0
  7  3  2  0
  8  3  1  0
  9  4  1  0
 10  8  2  0
 11  7  1  0
 12 11  2  0
 12 10  1  0
  1 13  1  0
  2 14  1  6
  4 15  1  1
  5 16  1  0
  5 17  1  0
  6 18  1  0
  7 19  1  0
  8 20  1  0
  9 21  1  0
  9 22  1  0
  9 23  1  0
 10 24  1  0
 11 25  1  0
 12 26  1  0
M  END
> <Uni-Dock RESULT> 
ENERGY=   -4.554  LOWER_BOUND=    1.698  UPPER_BOUND=    3.965
INTER + INTRA:          -4.554
INTER:                  -4.554
INTRA:                   0.000
UNBOUND:                 0.000

$$$$

     RDKit          3D

 26 25  0  0  0  0  0  0  0  0999 V2000
   44.5971    6.7689   12.0679 Cl  0  0  0  0  0  0  0  0  0  0  0  0
   43.5643    5.6048   11.4711 C   0  0  1  0  0  0  0  0  0  0  0  0
   44.2859    6.8245   11.8083 C   0  0  0  0  0  0  0  0  0  0  0  0
   44.0839    4.4052   12.1723 C   0  0  2  0  0  0  0  0  0  0  0  0
   45.4701    4.1896   11.9280 N   0  0  0  0  0  0  0  0  0  0  0  0
   42.1980    5.8311   11.6592 O   0  0  0  0  0  0  0  0  0  0  0  0
   43.8509    8.0117   11.2001 C   0  0  0  0  0  0  0  0  0  0  0  0
   45.3429    6.9490   12.6689 C   0  0  0  0  0  0  0  0  0  0  0  0
   43.3733    3.1323   11.7003 C   0  0  0  0  0  0  0  0  0  0  0  0
   45.9520    8.1709   12.9282 C   0  0  0  0  0  0  0  0  0  0  0  0
   44.4547    9.2238   11.4573 C   0  0  0  0  0  0  0  0  0  0  0  0
   45.5182    9.3311   12.3265 C   0  0  0  0  0  0  0  0  0  0  0  0
   44.1343    5.5105   11.7397 H   0  0  0  0  0  0  0  0  0  0  0  0
   43.7378    5.4322   10.3694 H   0  0  0  0  0  0  0  0  0  0  0  0
   43.8300    4.4537   13.2642 H   0  0  0  0  0  0  0  0  0  0  0  0
   45.8278    3.2679   12.1894 H   0  0  0  0  0  0  0  0  0  0  0  0
   45.8496    4.6414   11.0927 H   0  0  0  0  0  0  0  0  0  0  0  0
   42.0484    6.7950   11.7962 H   0  0  0  0  0  0  0  0  0  0  0  0
   43.0240    8.0255   10.5032 H   0  0  0  0  0  0  0  0  0  0  0  0
   45.7304    6.1037   13.1773 H   0  0  0  0  0  0  0  0  0  0  0  0
   43.3412    3.0786   10.5974 H   0  0  0  0  0  0  0  0  0  0  0  0
   44.0048    2.2876   12.0545 H   0  0  0  0  0  0  0  0  0  0  0  0
   42.3809    3.0076   12.1731 H   0  0  0  0  0  0  0  0  0  0  0  0
   46.7801    8.2206   13.6120 H   0  0  0  0  0  0  0  0  0  0  0  0
   44.1033   10.1174   10.9795 H   0  0  0  0  0  0  0  0  0  0  0  0
   46.0246   10.2482   12.5625 H   0  0  0  0  0  0  0  0  0  0  0  0
  3  2  1  0
  4  2  1  0
  5  4  1  0
  6  2  1  0
  7  3  2  0
  8  3  1  0
  9  4  1  0
 10  8  2  0
 11  7  1  0
 12 11  2  0
 12 10  1  0
  1 13  1  0
  2 14  1  6
  4 15  1  1
  5 16  1  0
  5 17  1  0
  6 18  1  0
  7 19  1  0
  8 20  1  0
  9 21  1  0
  9 22  1  0
  9 23  1  0
 10 24  1  0
 11 25  1  0
 12 26  1  0
M  END
> <Uni-Dock RESULT> 
ENERGY=   -3.369  LOWER_BOUND=    5.055  UPPER_BOUND=    6.409
INTER + INTRA:          -3.369
INTER:                  -3.369
INTRA:                   0.000
UNBOUND:                 0.000

$$$$

     RDKit          3D

 26 25  0  0  0  0  0  0  0  0999 V2000
   44.8418    5.9625   12.5400 Cl  0  0  0  0  0  0  0  0  0  0  0  0
   46.1417    7.0010   12.6396 C   0  0  1  0  0  0  0  0  0  0  0  0
   45.2369    5.8613   12.5722 C   0  0  0  0  0  0  0  0  0  0  0  0
   45.4393    8.3075   12.6163 C   0  0  2  0  0  0  0  0  0  0  0  0
   44.6097    8.4591   11.4688 N   0  0  0  0  0  0  0  0  0  0  0  0
   46.9928    6.8279   13.7346 O   0  0  0  0  0  0  0  0  0  0  0  0
   45.8166    4.5841   12.6034 C   0  0  0  0  0  0  0  0  0  0  0  0
   43.8708    5.8934   12.4937 C   0  0  0  0  0  0  0  0  0  0  0  0
   46.4325    9.4735   12.5712 C   0  0  0  0  0  0  0  0  0  0  0  0
   43.1004    4.7378   12.4470 C   0  0  0  0  0  0  0  0  0  0  0  0
   45.0527    3.4377   12.5572 C   0  0  0  0  0  0  0  0  0  0  0  0
   43.6782    3.4883   12.4779 C   0  0  0  0  0  0  0  0  0  0  0  0
   45.5552    7.1394   12.4327 H   0  0  0  0  0  0  0  0  0  0  0  0
   46.7701    6.9583   11.7031 H   0  0  0  0  0  0  0  0  0  0  0  0
   44.8918    8.4708   13.5820 H   0  0  0  0  0  0  0  0  0  0  0  0
   44.2855    9.4103   11.2793 H   0  0  0  0  0  0  0  0  0  0  0  0
   44.8324    7.8525   10.6762 H   0  0  0  0  0  0  0  0  0  0  0  0
   46.8931    5.9094   14.0762 H   0  0  0  0  0  0  0  0  0  0  0  0
   46.8874    4.4453   12.6641 H   0  0  0  0  0  0  0  0  0  0  0  0
   43.3506    6.8165   12.4731 H   0  0  0  0  0  0  0  0  0  0  0  0
   47.1981    9.3158   11.7907 H   0  0  0  0  0  0  0  0  0  0  0  0
   45.8357   10.3642   12.2742 H   0  0  0  0  0  0  0  0  0  0  0  0
   46.8618    9.6957   13.5663 H   0  0  0  0  0  0  0  0  0  0  0  0
   42.0296    4.8117   12.3852 H   0  0  0  0  0  0  0  0  0  0  0  0
   45.5200    2.4727   12.5825 H   0  0  0  0  0  0  0  0  0  0  0  0
   43.0361    2.6283   12.4391 H   0  0  0  0  0  0  0  0  0  0  0  0
  3  2  1  0
  4  2  1  0
  5  4  1  0
  6  2  1  0
  7  3  2  0
  8  3  1  0
  9  4  1  0
 10  8  2  0
 11  7  1  0
 12 11  2  0
 12 10  1  0
  1 13  1  0
  2 14  1  6
  4 15  1  1
  5 16  1  0
  5 17  1  0
  6 18  1  0
  7 19  1  0
  8 20  1  0
  9 21  1  0
  9 22  1  0
  9 23  1  0
 10 24  1  0
 11 25  1  0
 12 26  1  0
M  END
> <Uni-Dock RESULT> 
ENERGY=   -3.330  LOWER_BOUND=    5.404  UPPER_BOUND=    6.218
INTER + INTRA:          -3.330
INTER:                  -3.330
INTRA:                   0.000
UNBOUND:                 0.000

$$$$

     RDKit          3D

 26 25  0  0  0  0  0  0  0  0999 V2000
   45.3434    4.9732   12.7174 Cl  0  0  0  0  0  0  0  0  0  0  0  0
   46.1930    6.3450   13.1351 C   0  0  1  0  0  0  0  0  0  0  0  0
   45.2221    5.3615   12.6744 C   0  0  0  0  0  0  0  0  0  0  0  0
   47.4499    5.7359   13.6352 C   0  0  2  0  0  0  0  0  0  0  0  0
   47.2220    4.8025   14.6862 N   0  0  0  0  0  0  0  0  0  0  0  0
   46.3784    7.2926   12.1247 O   0  0  0  0  0  0  0  0  0  0  0  0
   44.0079    5.8517   12.1706 C   0  0  0  0  0  0  0  0  0  0  0  0
   45.3645    4.0003   12.6650 C   0  0  0  0  0  0  0  0  0  0  0  0
   48.3911    6.7970   14.2151 C   0  0  0  0  0  0  0  0  0  0  0  0
   44.3729    3.1512   12.1884 C   0  0  0  0  0  0  0  0  0  0  0  0
   43.0243    5.0097   11.6976 C   0  0  0  0  0  0  0  0  0  0  0  0
   43.1842    3.6414   11.6957 C   0  0  0  0  0  0  0  0  0  0  0  0
   46.2994    5.7509   13.3393 H   0  0  0  0  0  0  0  0  0  0  0  0
   45.7173    6.8667   14.0155 H   0  0  0  0  0  0  0  0  0  0  0  0
   48.0387    5.3058   12.7823 H   0  0  0  0  0  0  0  0  0  0  0  0
   48.0491    4.5267   15.2207 H   0  0  0  0  0  0  0  0  0  0  0  0
   46.3315    4.8981   15.1800 H   0  0  0  0  0  0  0  0  0  0  0  0
   45.6860    7.1663   11.4356 H   0  0  0  0  0  0  0  0  0  0  0  0
   43.7922    6.9107   12.1328 H   0  0  0  0  0  0  0  0  0  0  0  0
   46.2535    3.5458   13.0205 H   0  0  0  0  0  0  0  0  0  0  0  0
   47.8577    7.4634   14.9163 H   0  0  0  0  0  0  0  0  0  0  0  0
   49.1493    6.2352   14.8044 H   0  0  0  0  0  0  0  0  0  0  0  0
   48.9421    7.3431   13.4264 H   0  0  0  0  0  0  0  0  0  0  0  0
   44.5290    2.0875   12.2009 H   0  0  0  0  0  0  0  0  0  0  0  0
   42.1046    5.4093   11.3173 H   0  0  0  0  0  0  0  0  0  0  0  0
   42.4520    2.9409   11.3399 H   0  0  0  0  0  0  0  0  0  0  0  0
  3  2  1  0
  4  2  1  0
  5  4  1  0
  6  2  1  0
  7  3  2  0
  8  3  1  0
  9  4  1  0
 10  8  2  0
 11  7  1  0
 12 11  2  0
 12 10  1  0
  1 13  1  0
  2 14  1  6
  4 15  1  1
  5 16  1  0
  5 17  1  0
  6 18  1  0
  7 19  1  0
  8 20  1  0
  9 21  1  0
  9 22  1  0
  9 23  1  0
 10 24  1  0
 11 25  1  0
 12 26  1  0
M  END
> <Uni-Dock RESULT> 
ENERGY=   -3.278  LOWER_BOUND=    5.285  UPPER_BOUND=    6.222
INTER + INTRA:          -3.278
INTER:                  -3.278
INTRA:                   0.000
UNBOUND:                 0.000

$$$$

     RDKit          3D

 26 25  0  0  0  0  0  0  0  0999 V2000
   50.0413    3.3290   17.8307 Cl  0  0  0  0  0  0  0  0  0  0  0  0
   51.2995    2.3084   17.4389 C   0  0  1  0  0  0  0  0  0  0  0  0
   50.0277    3.0041   17.5824 C   0  0  0  0  0  0  0  0  0  0  0  0
   52.3855    2.9004   18.2581 C   0  0  2  0  0  0  0  0  0  0  0  0
   52.5928    4.2799   17.9723 N   0  0  0  0  0  0  0  0  0  0  0  0
   51.0881    0.9458   17.6667 O   0  0  0  0  0  0  0  0  0  0  0  0
   48.9399    2.5015   16.8526 C   0  0  0  0  0  0  0  0  0  0  0  0
   49.7660    4.0959   18.3652 C   0  0  0  0  0  0  0  0  0  0  0  0
   53.7269    2.2110   17.9872 C   0  0  0  0  0  0  0  0  0  0  0  0
   48.5049    4.6755   18.4371 C   0  0  0  0  0  0  0  0  0  0  0  0
   47.6890    3.0760   16.9239 C   0  0  0  0  0  0  0  0  0  0  0  0
   47.4431    4.1753   17.7170 C   0  0  0  0  0  0  0  0  0  0  0  0
   51.3433    2.8933   17.6877 H   0  0  0  0  0  0  0  0  0  0  0  0
   51.6063    2.4352   16.3603 H   0  0  0  0  0  0  0  0  0  0  0  0
   52.2051    2.6970   19.3467 H   0  0  0  0  0  0  0  0  0  0  0  0
   53.4637    4.6801   18.3290 H   0  0  0  0  0  0  0  0  0  0  0  0
   52.2411    4.6041   17.0684 H   0  0  0  0  0  0  0  0  0  0  0  0
   50.1191    0.7708   17.6887 H   0  0  0  0  0  0  0  0  0  0  0  0
   49.0374    1.6425   16.2028 H   0  0  0  0  0  0  0  0  0  0  0  0
   50.5288    4.5351   18.9555 H   0  0  0  0  0  0  0  0  0  0  0  0
   53.9216    2.1286   16.9029 H   0  0  0  0  0  0  0  0  0  0  0  0
   54.5022    2.8864   18.4121 H   0  0  0  0  0  0  0  0  0  0  0  0
   53.8172    1.2469   18.5221 H   0  0  0  0  0  0  0  0  0  0  0  0
   48.3461    5.5330   19.0658 H   0  0  0  0  0  0  0  0  0  0  0  0
   46.8734    2.6728   16.3560 H   0  0  0  0  0  0  0  0  0  0  0  0
   46.4900    4.6615   17.8094 H   0  0  0  0  0  0  0  0  0  0  0  0
  3  2  1  0
  4  2  1  0
  5  4  1  0
  6  2  1  0
  7  3  2  0
  8  3  1  0
  9  4  1  0
 10  8  2  0
 11  7  1  0
 12 11  2  0
 12 10  1  0
  1 13  1  0
  2 14  1  6
  4 15  1  1
  5 16  1  0
  5 17  1  0
  6 18  1  0
  7 19  1  0
  8 20  1  0
  9 21  1  0
  9 22  1  0
  9 23  1  0
 10 24  1  0
 11 25  1  0
 12 26  1  0
M  END
> <Uni-Dock RESULT> 
ENERGY=   -3.241  LOWER_BOUND=   10.061  UPPER_BOUND=   11.204
INTER + INTRA:          -3.241
INTER:                  -3.241
INTRA:                   0.000
UNBOUND:                 0.000

$$$$

     RDKit          3D

 26 25  0  0  0  0  0  0  0  0999 V2000
   45.3260    5.2772   12.7819 Cl  0  0  0  0  0  0  0  0  0  0  0  0
   46.8695    5.1718   13.4020 C   0  0  1  0  0  0  0  0  0  0  0  0
   45.5428    4.9367   12.8482 C   0  0  0  0  0  0  0  0  0  0  0  0
   47.1533    6.6065   13.6512 C   0  0  2  0  0  0  0  0  0  0  0  0
   47.0080    7.4017   12.4789 N   0  0  0  0  0  0  0  0  0  0  0  0
   47.0344    4.3525   14.5222 O   0  0  0  0  0  0  0  0  0  0  0  0
   45.1846    3.6041   12.5945 C   0  0  0  0  0  0  0  0  0  0  0  0
   44.5907    5.8753   12.5553 C   0  0  0  0  0  0  0  0  0  0  0  0
   48.5965    6.8155   14.1220 C   0  0  0  0  0  0  0  0  0  0  0  0
   43.3457    5.5369   12.0386 C   0  0  0  0  0  0  0  0  0  0  0  0
   43.9498    3.2682   12.0822 C   0  0  0  0  0  0  0  0  0  0  0  0
   43.0030    4.2261   11.7927 C   0  0  0  0  0  0  0  0  0  0  0  0
   46.5915    5.6871   13.1506 H   0  0  0  0  0  0  0  0  0  0  0  0
   47.6028    4.8322   12.6143 H   0  0  0  0  0  0  0  0  0  0  0  0
   46.5425    6.9783   14.5158 H   0  0  0  0  0  0  0  0  0  0  0  0
   47.4066    8.3421   12.5294 H   0  0  0  0  0  0  0  0  0  0  0  0
   47.0587    6.8974   11.5907 H   0  0  0  0  0  0  0  0  0  0  0  0
   46.2975    3.6997   14.5534 H   0  0  0  0  0  0  0  0  0  0  0  0
   45.8626    2.7845   12.7895 H   0  0  0  0  0  0  0  0  0  0  0  0
   44.7751    6.9053   12.7235 H   0  0  0  0  0  0  0  0  0  0  0  0
   49.3105    6.2818   13.4695 H   0  0  0  0  0  0  0  0  0  0  0  0
   48.7942    7.9044   14.0079 H   0  0  0  0  0  0  0  0  0  0  0  0
   48.7245    6.5797   15.1952 H   0  0  0  0  0  0  0  0  0  0  0  0
   42.6289    6.3088   11.8233 H   0  0  0  0  0  0  0  0  0  0  0  0
   43.7000    2.2417   11.8971 H   0  0  0  0  0  0  0  0  0  0  0  0
   42.0277    4.0203   11.3929 H   0  0  0  0  0  0  0  0  0  0  0  0
  3  2  1  0
  4  2  1  0
  5  4  1  0
  6  2  1  0
  7  3  2  0
  8  3  1  0
  9  4  1  0
 10  8  2  0
 11  7  1  0
 12 11  2  0
 12 10  1  0
  1 13  1  0
  2 14  1  6
  4 15  1  1
  5 16  1  0
  5 17  1  0
  6 18  1  0
  7 19  1  0
  8 20  1  0
  9 21  1  0
  9 22  1  0
  9 23  1  0
 10 24  1  0
 11 25  1  0
 12 26  1  0
M  END
> <Uni-Dock RESULT> 
ENERGY=   -3.235  LOWER_BOUND=    5.254  UPPER_BOUND=    6.071
INTER + INTRA:          -3.235
INTER:                  -3.235
INTRA:                   0.000
UNBOUND:                 0.000

$$$$
