
     RDKit          3D

 26 25  0  0  0  0  0  0  0  0999 V2000
   45.7463    2.9278    8.0268 Cl  0  0  0  0  0  0  0  0  0  0  0  0
   45.0380    4.0755    8.6866 C   0  0  1  0  0  0  0  0  0  0  0  0
   45.8955    3.1718    7.9278 C   0  0  0  0  0  0  0  0  0  0  0  0
   44.6815    3.6702   10.0727 C   0  0  2  0  0  0  0  0  0  0  0  0
   43.9013    2.4604   10.1572 N   0  0  0  0  0  0  0  0  0  0  0  0
   45.7801    5.2778    8.8244 O   0  0  0  0  0  0  0  0  0  0  0  0
   46.1466    1.8536    8.2152 C   0  0  0  0  0  0  0  0  0  0  0  0
   46.5288    3.6839    6.7940 C   0  0  0  0  0  0  0  0  0  0  0  0
   43.7705    4.7946   10.5884 C   0  0  0  0  0  0  0  0  0  0  0  0
   47.3527    2.8996    6.0216 C   0  0  0  0  0  0  0  0  0  0  0  0
   46.9730    1.0480    7.4497 C   0  0  0  0  0  0  0  0  0  0  0  0
   47.5925    1.5775    6.3266 C   0  0  0  0  0  0  0  0  0  0  0  0
   45.0814    3.5783    9.0410 H   0  0  0  0  0  0  0  0  0  0  0  0
   44.1107    4.3081    8.1301 H   0  0  0  0  0  0  0  0  0  0  0  0
   45.5656    3.5917   10.7431 H   0  0  0  0  0  0  0  0  0  0  0  0
   42.9993    2.6338    9.6472 H   0  0  0  0  0  0  0  0  0  0  0  0
   43.6594    2.3337   11.1756 H   0  0  0  0  0  0  0  0  0  0  0  0
   46.4528    5.0798    9.5233 H   0  0  0  0  0  0  0  0  0  0  0  0
   45.6914    1.4030    9.0730 H   0  0  0  0  0  0  0  0  0  0  0  0
   46.3718    4.7240    6.5098 H   0  0  0  0  0  0  0  0  0  0  0  0
   42.8454    4.7857   10.0037 H   0  0  0  0  0  0  0  0  0  0  0  0
   44.3144    5.7361   10.3330 H   0  0  0  0  0  0  0  0  0  0  0  0
   43.6422    4.7228   11.6852 H   0  0  0  0  0  0  0  0  0  0  0  0
   47.8163    3.3666    5.1471 H   0  0  0  0  0  0  0  0  0  0  0  0
   47.1548    0.0008    7.7025 H   0  0  0  0  0  0  0  0  0  0  0  0
   48.2423    0.9888    5.7029 H   0  0  0  0  0  0  0  0  0  0  0  0
  3  2  1  0
  4  2  1  0
  5  4  1  0
  6  2  1  0
  7  3  2  0
  8  3  1  0
  9  4  1  0
 10  8  2  0
 11  7  1  0
 12 11  2  0
 12 10  1  0
  1 13  1  0
  2 14  1  1
  4 15  1  6
  5 16  1  0
  5 17  1  0
  6 18  1  0
  7 19  1  0
  8 20  1  0
  9 21  1  0
  9 22  1  0
  9 23  1  0
 10 24  1  0
 11 25  1  0
 12 26  1  0
M  END
> <Uni-Dock RESULT> 
ENERGY=   -6.320  LOWER_BOUND=    0.000  UPPER_BOUND=    0.000
INTER + INTRA:          -6.320
INTER:                  -6.320
INTRA:                   0.000
UNBOUND:                 0.000

$$$$

     RDKit          3D

 26 25  0  0  0  0  0  0  0  0999 V2000
   46.0806    2.8855    8.1736 Cl  0  0  0  0  0  0  0  0  0  0  0  0
   45.2109    2.6031    9.3645 C   0  0  1  0  0  0  0  0  0  0  0  0
   46.0163    2.5908    8.1483 C   0  0  0  0  0  0  0  0  0  0  0  0
   44.3050    3.7653    9.5678 C   0  0  2  0  0  0  0  0  0  0  0  0
   44.9821    5.0309    9.7072 N   0  0  0  0  0  0  0  0  0  0  0  0
   44.3579    1.4726    9.2672 O   0  0  0  0  0  0  0  0  0  0  0  0
   46.2796    3.6641    7.3346 C   0  0  0  0  0  0  0  0  0  0  0  0
   46.5825    1.3747    7.7622 C   0  0  0  0  0  0  0  0  0  0  0  0
   43.6253    3.5013   10.9200 C   0  0  0  0  0  0  0  0  0  0  0  0
   47.3564    1.2756    6.6299 C   0  0  0  0  0  0  0  0  0  0  0  0
   47.0562    3.5841    6.1908 C   0  0  0  0  0  0  0  0  0  0  0  0
   47.6096    2.3651    5.8254 C   0  0  0  0  0  0  0  0  0  0  0  0
   45.1146    3.1543    9.1162 H   0  0  0  0  0  0  0  0  0  0  0  0
   45.8430    2.4782   10.2636 H   0  0  0  0  0  0  0  0  0  0  0  0
   43.5201    3.8464    8.7839 H   0  0  0  0  0  0  0  0  0  0  0  0
   45.5933    4.9662   10.5593 H   0  0  0  0  0  0  0  0  0  0  0  0
   44.2357    5.7452    9.9176 H   0  0  0  0  0  0  0  0  0  0  0  0
   43.6603    1.7388    8.6172 H   0  0  0  0  0  0  0  0  0  0  0  0
   45.8722    4.6241    7.5764 H   0  0  0  0  0  0  0  0  0  0  0  0
   46.4123    0.4829    8.3647 H   0  0  0  0  0  0  0  0  0  0  0  0
   44.3868    3.5472   11.7047 H   0  0  0  0  0  0  0  0  0  0  0  0
   43.2780    2.4415   10.8575 H   0  0  0  0  0  0  0  0  0  0  0  0
   42.7561    4.1719   11.0592 H   0  0  0  0  0  0  0  0  0  0  0  0
   47.7685    0.2912    6.3873 H   0  0  0  0  0  0  0  0  0  0  0  0
   47.2495    4.4558    5.5613 H   0  0  0  0  0  0  0  0  0  0  0  0
   48.2192    2.2564    4.9455 H   0  0  0  0  0  0  0  0  0  0  0  0
  3  2  1  0
  4  2  1  0
  5  4  1  0
  6  2  1  0
  7  3  2  0
  8  3  1  0
  9  4  1  0
 10  8  2  0
 11  7  1  0
 12 11  2  0
 12 10  1  0
  1 13  1  0
  2 14  1  1
  4 15  1  6
  5 16  1  0
  5 17  1  0
  6 18  1  0
  7 19  1  0
  8 20  1  0
  9 21  1  0
  9 22  1  0
  9 23  1  0
 10 24  1  0
 11 25  1  0
 12 26  1  0
M  END
> <Uni-Dock RESULT> 
ENERGY=   -5.765  LOWER_BOUND=    1.614  UPPER_BOUND=    2.088
INTER + INTRA:          -5.765
INTER:                  -5.765
INTRA:                   0.000
UNBOUND:                 0.000

$$$$

     RDKit          3D

 26 25  0  0  0  0  0  0  0  0999 V2000
   45.9303    3.0502    8.3668 Cl  0  0  0  0  0  0  0  0  0  0  0  0
   46.8546    3.2760    7.2054 C   0  0  1  0  0  0  0  0  0  0  0  0
   45.8569    3.3268    8.2682 C   0  0  0  0  0  0  0  0  0  0  0  0
   46.9847    1.9975    6.4562 C   0  0  2  0  0  0  0  0  0  0  0  0
   47.4197    0.8798    7.2568 N   0  0  0  0  0  0  0  0  0  0  0  0
   46.4370    4.2348    6.2454 O   0  0  0  0  0  0  0  0  0  0  0  0
   45.2544    2.2519    8.8723 C   0  0  0  0  0  0  0  0  0  0  0  0
   45.4676    4.5864    8.7274 C   0  0  0  0  0  0  0  0  0  0  0  0
   48.1099    2.2502    5.4410 C   0  0  0  0  0  0  0  0  0  0  0  0
   44.5338    4.7239    9.7273 C   0  0  0  0  0  0  0  0  0  0  0  0
   44.3123    2.3703    9.8804 C   0  0  0  0  0  0  0  0  0  0  0  0
   43.9398    3.6320   10.3218 C   0  0  0  0  0  0  0  0  0  0  0  0
   46.6574    2.6984    7.2526 H   0  0  0  0  0  0  0  0  0  0  0  0
   47.8515    3.5774    7.5782 H   0  0  0  0  0  0  0  0  0  0  0  0
   46.0600    1.7226    5.9026 H   0  0  0  0  0  0  0  0  0  0  0  0
   48.3733    1.1147    7.6297 H   0  0  0  0  0  0  0  0  0  0  0  0
   47.5398    0.0687    6.5939 H   0  0  0  0  0  0  0  0  0  0  0  0
   45.6831    3.8035    5.7704 H   0  0  0  0  0  0  0  0  0  0  0  0
   45.5097    1.2593    8.5629 H   0  0  0  0  0  0  0  0  0  0  0  0
   45.9078    5.4818    8.2897 H   0  0  0  0  0  0  0  0  0  0  0  0
   49.0450    2.3965    5.9905 H   0  0  0  0  0  0  0  0  0  0  0  0
   47.8473    3.2276    4.9685 H   0  0  0  0  0  0  0  0  0  0  0  0
   48.1285    1.4557    4.6709 H   0  0  0  0  0  0  0  0  0  0  0  0
   44.2759    5.7411   10.0378 H   0  0  0  0  0  0  0  0  0  0  0  0
   43.8487    1.4962   10.3438 H   0  0  0  0  0  0  0  0  0  0  0  0
   43.2122    3.7714   11.1022 H   0  0  0  0  0  0  0  0  0  0  0  0
  3  2  1  0
  4  2  1  0
  5  4  1  0
  6  2  1  0
  7  3  2  0
  8  3  1  0
  9  4  1  0
 10  8  2  0
 11  7  1  0
 12 11  2  0
 12 10  1  0
  1 13  1  0
  2 14  1  1
  4 15  1  6
  5 16  1  0
  5 17  1  0
  6 18  1  0
  7 19  1  0
  8 20  1  0
  9 21  1  0
  9 22  1  0
  9 23  1  0
 10 24  1  0
 11 25  1  0
 12 26  1  0
M  END
> <Uni-Dock RESULT> 
ENERGY=   -4.837  LOWER_BOUND=    1.818  UPPER_BOUND=    3.992
INTER + INTRA:          -4.837
INTER:                  -4.837
INTRA:                   0.000
UNBOUND:                 0.000

$$$$

     RDKit          3D

 26 25  0  0  0  0  0  0  0  0999 V2000
   45.5032    3.2101    8.2912 Cl  0  0  0  0  0  0  0  0  0  0  0  0
   46.2580    2.2682    7.3982 C   0  0  1  0  0  0  0  0  0  0  0  0
   45.5232    2.9559    8.4542 C   0  0  0  0  0  0  0  0  0  0  0  0
   47.3181    3.0393    6.6952 C   0  0  2  0  0  0  0  0  0  0  0  0
   46.8346    4.1798    5.9571 N   0  0  0  0  0  0  0  0  0  0  0  0
   46.9335    1.1973    8.0402 O   0  0  0  0  0  0  0  0  0  0  0  0
   45.4676    4.3119    8.6580 C   0  0  0  0  0  0  0  0  0  0  0  0
   44.7995    2.1702    9.3529 C   0  0  0  0  0  0  0  0  0  0  0  0
   47.8800    2.0674    5.6463 C   0  0  0  0  0  0  0  0  0  0  0  0
   44.0784    2.7381   10.3768 C   0  0  0  0  0  0  0  0  0  0  0  0
   44.7472    4.9022    9.6829 C   0  0  0  0  0  0  0  0  0  0  0  0
   44.0348    4.1024   10.5650 C   0  0  0  0  0  0  0  0  0  0  0  0
   46.4494    2.8484    7.3597 H   0  0  0  0  0  0  0  0  0  0  0  0
   45.5692    1.8370    6.6477 H   0  0  0  0  0  0  0  0  0  0  0  0
   48.1452    3.3541    7.3689 H   0  0  0  0  0  0  0  0  0  0  0  0
   46.1780    3.8198    5.2202 H   0  0  0  0  0  0  0  0  0  0  0  0
   47.6690    4.5837    5.4547 H   0  0  0  0  0  0  0  0  0  0  0  0
   47.6957    1.6238    8.5063 H   0  0  0  0  0  0  0  0  0  0  0  0
   46.0031    4.9679    8.0029 H   0  0  0  0  0  0  0  0  0  0  0  0
   44.8016    1.0858    9.2472 H   0  0  0  0  0  0  0  0  0  0  0  0
   47.0952    1.8589    4.9126 H   0  0  0  0  0  0  0  0  0  0  0  0
   48.0653    1.1216    6.2107 H   0  0  0  0  0  0  0  0  0  0  0  0
   48.8327    2.4475    5.2307 H   0  0  0  0  0  0  0  0  0  0  0  0
   43.5347    2.0621   11.0439 H   0  0  0  0  0  0  0  0  0  0  0  0
   44.7208    5.9856    9.8212 H   0  0  0  0  0  0  0  0  0  0  0  0
   43.4614    4.5174   11.3754 H   0  0  0  0  0  0  0  0  0  0  0  0
  3  2  1  0
  4  2  1  0
  5  4  1  0
  6  2  1  0
  7  3  2  0
  8  3  1  0
  9  4  1  0
 10  8  2  0
 11  7  1  0
 12 11  2  0
 12 10  1  0
  1 13  1  0
  2 14  1  1
  4 15  1  6
  5 16  1  0
  5 17  1  0
  6 18  1  0
  7 19  1  0
  8 20  1  0
  9 21  1  0
  9 22  1  0
  9 23  1  0
 10 24  1  0
 11 25  1  0
 12 26  1  0
M  END
> <Uni-Dock RESULT> 
ENERGY=   -4.792  LOWER_BOUND=    2.182  UPPER_BOUND=    4.401
INTER + INTRA:          -4.792
INTER:                  -4.792
INTRA:                   0.000
UNBOUND:                 0.000

$$$$

     RDKit          3D

 26 25  0  0  0  0  0  0  0  0999 V2000
   44.9148    3.8863    9.7660 Cl  0  0  0  0  0  0  0  0  0  0  0  0
   44.0665    3.9724   11.0018 C   0  0  1  0  0  0  0  0  0  0  0  0
   44.7760    3.6176    9.7777 C   0  0  0  0  0  0  0  0  0  0  0  0
   43.5000    5.3452   11.0852 C   0  0  2  0  0  0  0  0  0  0  0  0
   44.4846    6.3984   11.0565 N   0  0  0  0  0  0  0  0  0  0  0  0
   42.9488    3.0991   11.0602 O   0  0  0  0  0  0  0  0  0  0  0  0
   45.2614    4.4893    8.8355 C   0  0  0  0  0  0  0  0  0  0  0  0
   44.9911    2.2612    9.5272 C   0  0  0  0  0  0  0  0  0  0  0  0
   42.8482    5.4172   12.4746 C   0  0  0  0  0  0  0  0  0  0  0  0
   45.6525    1.8406    8.3974 C   0  0  0  0  0  0  0  0  0  0  0  0
   45.9298    4.0850    7.6920 C   0  0  0  0  0  0  0  0  0  0  0  0
   46.1328    2.7316    7.4626 C   0  0  0  0  0  0  0  0  0  0  0  0
   44.1012    4.4989   10.6915 H   0  0  0  0  0  0  0  0  0  0  0  0
   44.6924    3.7867   11.8947 H   0  0  0  0  0  0  0  0  0  0  0  0
   42.7214    5.5412   10.3154 H   0  0  0  0  0  0  0  0  0  0  0  0
   45.1034    6.2708   11.8959 H   0  0  0  0  0  0  0  0  0  0  0  0
   43.9580    7.3010   11.1969 H   0  0  0  0  0  0  0  0  0  0  0  0
   42.3088    3.4646   10.3992 H   0  0  0  0  0  0  0  0  0  0  0  0
   45.1265    5.5428    8.9699 H   0  0  0  0  0  0  0  0  0  0  0  0
   44.6308    1.5162   10.2358 H   0  0  0  0  0  0  0  0  0  0  0  0
   43.6368    5.3492   13.2304 H   0  0  0  0  0  0  0  0  0  0  0  0
   42.2386    4.4841   12.5474 H   0  0  0  0  0  0  0  0  0  0  0  0
   42.1881    6.3020   12.5523 H   0  0  0  0  0  0  0  0  0  0  0  0
   45.7857    0.7624    8.2650 H   0  0  0  0  0  0  0  0  0  0  0  0
   46.3059    4.8019    6.9583 H   0  0  0  0  0  0  0  0  0  0  0  0
   46.6467    2.3721    6.5882 H   0  0  0  0  0  0  0  0  0  0  0  0
  3  2  1  0
  4  2  1  0
  5  4  1  0
  6  2  1  0
  7  3  2  0
  8  3  1  0
  9  4  1  0
 10  8  2  0
 11  7  1  0
 12 11  2  0
 12 10  1  0
  1 13  1  0
  2 14  1  1
  4 15  1  6
  5 16  1  0
  5 17  1  0
  6 18  1  0
  7 19  1  0
  8 20  1  0
  9 21  1  0
  9 22  1  0
  9 23  1  0
 10 24  1  0
 11 25  1  0
 12 26  1  0
M  END
> <Uni-Dock RESULT> 
ENERGY=   -4.773  LOWER_BOUND=    2.116  UPPER_BOUND=    2.958
INTER + INTRA:          -4.773
INTER:                  -4.773
INTRA:                   0.000
UNBOUND:                 0.000

$$$$

     RDKit          3D

 26 25  0  0  0  0  0  0  0  0999 V2000
   44.8085    4.7773   10.4454 Cl  0  0  0  0  0  0  0  0  0  0  0  0
   45.2521    6.1347   10.9092 C   0  0  1  0  0  0  0  0  0  0  0  0
   45.0391    4.8452   10.2615 C   0  0  0  0  0  0  0  0  0  0  0  0
   45.1711    6.1708   12.3941 C   0  0  2  0  0  0  0  0  0  0  0  0
   43.8736    5.8377   12.9280 N   0  0  0  0  0  0  0  0  0  0  0  0
   46.5869    6.5021   10.5954 O   0  0  0  0  0  0  0  0  0  0  0  0
   44.4587    3.7364   10.8247 C   0  0  0  0  0  0  0  0  0  0  0  0
   45.4610    4.7112    8.9376 C   0  0  0  0  0  0  0  0  0  0  0  0
   45.4128    7.6421   12.7647 C   0  0  0  0  0  0  0  0  0  0  0  0
   45.2969    3.5302    8.2526 C   0  0  0  0  0  0  0  0  0  0  0  0
   44.2848    2.5389   10.1513 C   0  0  0  0  0  0  0  0  0  0  0  0
   44.7115    2.4276    8.8356 C   0  0  0  0  0  0  0  0  0  0  0  0
   45.0733    5.7667   11.3646 H   0  0  0  0  0  0  0  0  0  0  0  0
   44.5782    6.9070   10.4934 H   0  0  0  0  0  0  0  0  0  0  0  0
   45.9488    5.5466   12.8867 H   0  0  0  0  0  0  0  0  0  0  0  0
   43.1939    6.5527   12.5666 H   0  0  0  0  0  0  0  0  0  0  0  0
   43.9380    5.9742   13.9714 H   0  0  0  0  0  0  0  0  0  0  0  0
   47.1484    5.9386   11.1847 H   0  0  0  0  0  0  0  0  0  0  0  0
   44.1159    3.7757   11.8381 H   0  0  0  0  0  0  0  0  0  0  0  0
   45.9301    5.5542    8.4311 H   0  0  0  0  0  0  0  0  0  0  0  0
   44.5768    8.2365   12.3834 H   0  0  0  0  0  0  0  0  0  0  0  0
   46.3194    7.9333   12.1810 H   0  0  0  0  0  0  0  0  0  0  0  0
   45.6164    7.7449   13.8476 H   0  0  0  0  0  0  0  0  0  0  0  0
   45.6510    3.4960    7.2176 H   0  0  0  0  0  0  0  0  0  0  0  0
   43.8189    1.6717   10.6252 H   0  0  0  0  0  0  0  0  0  0  0  0
   44.5967    1.5170    8.2739 H   0  0  0  0  0  0  0  0  0  0  0  0
  3  2  1  0
  4  2  1  0
  5  4  1  0
  6  2  1  0
  7  3  2  0
  8  3  1  0
  9  4  1  0
 10  8  2  0
 11  7  1  0
 12 11  2  0
 12 10  1  0
  1 13  1  0
  2 14  1  1
  4 15  1  6
  5 16  1  0
  5 17  1  0
  6 18  1  0
  7 19  1  0
  8 20  1  0
  9 21  1  0
  9 22  1  0
  9 23  1  0
 10 24  1  0
 11 25  1  0
 12 26  1  0
M  END
> <Uni-Dock RESULT> 
ENERGY=   -3.968  LOWER_BOUND=    2.512  UPPER_BOUND=    3.438
INTER + INTRA:          -3.968
INTER:                  -3.968
INTRA:                   0.000
UNBOUND:                 0.000

$$$$

     RDKit          3D

 26 25  0  0  0  0  0  0  0  0999 V2000
   44.6549    4.5047   10.5130 Cl  0  0  0  0  0  0  0  0  0  0  0  0
   45.5924    4.3661    9.3485 C   0  0  1  0  0  0  0  0  0  0  0  0
   44.7830    4.7779   10.4900 C   0  0  0  0  0  0  0  0  0  0  0  0
   44.9295    3.5307    8.3116 C   0  0  2  0  0  0  0  0  0  0  0  0
   44.4878    2.2402    8.7794 N   0  0  0  0  0  0  0  0  0  0  0  0
   45.9574    5.5683    8.6875 O   0  0  0  0  0  0  0  0  0  0  0  0
   43.5897    4.2264   10.8840 C   0  0  0  0  0  0  0  0  0  0  0  0
   45.2570    5.8352   11.2686 C   0  0  0  0  0  0  0  0  0  0  0  0
   46.0270    3.2485    7.2742 C   0  0  0  0  0  0  0  0  0  0  0  0
   44.5566    6.2852   12.3630 C   0  0  0  0  0  0  0  0  0  0  0  0
   42.8701    4.6657   11.9826 C   0  0  0  0  0  0  0  0  0  0  0  0
   43.3596    5.7182   12.7428 C   0  0  0  0  0  0  0  0  0  0  0  0
   45.0685    4.0572    9.2791 H   0  0  0  0  0  0  0  0  0  0  0  0
   46.5202    3.8617    9.6776 H   0  0  0  0  0  0  0  0  0  0  0  0
   44.0872    4.0528    7.8065 H   0  0  0  0  0  0  0  0  0  0  0  0
   45.3400    1.7145    9.0975 H   0  0  0  0  0  0  0  0  0  0  0  0
   44.1099    1.7322    7.9364 H   0  0  0  0  0  0  0  0  0  0  0  0
   45.1398    5.8481    8.2044 H   0  0  0  0  0  0  0  0  0  0  0  0
   43.1728    3.4132   10.3264 H   0  0  0  0  0  0  0  0  0  0  0  0
   46.1990    6.3178   11.0101 H   0  0  0  0  0  0  0  0  0  0  0  0
   46.7952    2.6266    7.7441 H   0  0  0  0  0  0  0  0  0  0  0  0
   46.4865    4.2465    7.0730 H   0  0  0  0  0  0  0  0  0  0  0  0
   45.5899    2.8433    6.3417 H   0  0  0  0  0  0  0  0  0  0  0  0
   44.9871    7.1179   12.9277 H   0  0  0  0  0  0  0  0  0  0  0  0
   41.9219    4.2072   12.2734 H   0  0  0  0  0  0  0  0  0  0  0  0
   42.8345    6.0922   13.6044 H   0  0  0  0  0  0  0  0  0  0  0  0
  3  2  1  0
  4  2  1  0
  5  4  1  0
  6  2  1  0
  7  3  2  0
  8  3  1  0
  9  4  1  0
 10  8  2  0
 11  7  1  0
 12 11  2  0
 12 10  1  0
  1 13  1  0
  2 14  1  1
  4 15  1  6
  5 16  1  0
  5 17  1  0
  6 18  1  0
  7 19  1  0
  8 20  1  0
  9 21  1  0
  9 22  1  0
  9 23  1  0
 10 24  1  0
 11 25  1  0
 12 26  1  0
M  END
> <Uni-Dock RESULT> 
ENERGY=   -3.925  LOWER_BOUND=    1.681  UPPER_BOUND=    4.804
INTER + INTRA:          -3.925
INTER:                  -3.925
INTRA:                   0.000
UNBOUND:                 0.000

$$$$

     RDKit          3D

 26 25  0  0  0  0  0  0  0  0999 V2000
   50.7578    2.8029   17.7735 Cl  0  0  0  0  0  0  0  0  0  0  0  0
   49.3346    2.6457   17.3214 C   0  0  1  0  0  0  0  0  0  0  0  0
   50.7654    2.5603   17.5926 C   0  0  0  0  0  0  0  0  0  0  0  0
   48.7684    4.0000   17.0807 C   0  0  2  0  0  0  0  0  0  0  0  0
   48.8594    4.8927   18.2096 N   0  0  0  0  0  0  0  0  0  0  0  0
   49.1338    1.9324   16.1106 O   0  0  0  0  0  0  0  0  0  0  0  0
   51.5861    3.5933   17.9702 C   0  0  0  0  0  0  0  0  0  0  0  0
   51.3731    1.3105   17.4604 C   0  0  0  0  0  0  0  0  0  0  0  0
   47.2677    3.7631   16.8524 C   0  0  0  0  0  0  0  0  0  0  0  0
   52.7169    1.1421   17.6986 C   0  0  0  0  0  0  0  0  0  0  0  0
   52.9410    3.4433   18.2144 C   0  0  0  0  0  0  0  0  0  0  0  0
   53.5249    2.1920   18.0771 C   0  0  0  0  0  0  0  0  0  0  0  0
   49.5114    3.2293   17.3751 H   0  0  0  0  0  0  0  0  0  0  0  0
   48.7470    2.1458   18.1141 H   0  0  0  0  0  0  0  0  0  0  0  0
   49.1927    4.4941   16.1791 H   0  0  0  0  0  0  0  0  0  0  0  0
   48.3057    4.4639   18.9927 H   0  0  0  0  0  0  0  0  0  0  0  0
   48.3604    5.7781   17.9289 H   0  0  0  0  0  0  0  0  0  0  0  0
   49.4620    2.5413   15.4023 H   0  0  0  0  0  0  0  0  0  0  0  0
   51.1796    4.5767   18.0870 H   0  0  0  0  0  0  0  0  0  0  0  0
   50.7777    0.4478   17.1633 H   0  0  0  0  0  0  0  0  0  0  0  0
   46.8301    3.3936   17.7850 H   0  0  0  0  0  0  0  0  0  0  0  0
   47.2248    2.9272   16.1127 H   0  0  0  0  0  0  0  0  0  0  0  0
   46.7892    4.6650   16.4255 H   0  0  0  0  0  0  0  0  0  0  0  0
   53.1267    0.1347   17.5757 H   0  0  0  0  0  0  0  0  0  0  0  0
   53.5708    4.2842   18.5142 H   0  0  0  0  0  0  0  0  0  0  0  0
   54.5732    2.0290   18.2565 H   0  0  0  0  0  0  0  0  0  0  0  0
  3  2  1  0
  4  2  1  0
  5  4  1  0
  6  2  1  0
  7  3  2  0
  8  3  1  0
  9  4  1  0
 10  8  2  0
 11  7  1  0
 12 11  2  0
 12 10  1  0
  1 13  1  0
  2 14  1  1
  4 15  1  6
  5 16  1  0
  5 17  1  0
  6 18  1  0
  7 19  1  0
  8 20  1  0
  9 21  1  0
  9 22  1  0
  9 23  1  0
 10 24  1  0
 11 25  1  0
 12 26  1  0
M  END
> <Uni-Dock RESULT> 
ENERGY=   -3.643  LOWER_BOUND=   10.011  UPPER_BOUND=   10.769
INTER + INTRA:          -3.643
INTER:                  -3.643
INTRA:                   0.000
UNBOUND:                 0.000

$$$$

     RDKit          3D

 26 25  0  0  0  0  0  0  0  0999 V2000
   45.3821    5.6441   12.9307 Cl  0  0  0  0  0  0  0  0  0  0  0  0
   44.9580    4.2098   12.7990 C   0  0  1  0  0  0  0  0  0  0  0  0
   45.6414    5.4893   12.9523 C   0  0  0  0  0  0  0  0  0  0  0  0
   43.8813    4.1329   11.7755 C   0  0  2  0  0  0  0  0  0  0  0  0
   42.7495    4.9875   12.0364 N   0  0  0  0  0  0  0  0  0  0  0  0
   45.9546    3.2956   12.3674 O   0  0  0  0  0  0  0  0  0  0  0  0
   45.2001    6.7079   12.5009 C   0  0  0  0  0  0  0  0  0  0  0  0
   46.8655    5.4902   13.6234 C   0  0  0  0  0  0  0  0  0  0  0  0
   43.3517    2.6938   11.8703 C   0  0  0  0  0  0  0  0  0  0  0  0
   47.5745    6.6531   13.8125 C   0  0  0  0  0  0  0  0  0  0  0  0
   45.8998    7.8893   12.6817 C   0  0  0  0  0  0  0  0  0  0  0  0
   47.1147    7.8674   13.3517 C   0  0  0  0  0  0  0  0  0  0  0  0
   44.6379    4.5932   12.4451 H   0  0  0  0  0  0  0  0  0  0  0  0
   44.5606    3.8505   13.7668 H   0  0  0  0  0  0  0  0  0  0  0  0
   44.2516    4.3092   10.7417 H   0  0  0  0  0  0  0  0  0  0  0  0
   42.3282    4.6788   12.9480 H   0  0  0  0  0  0  0  0  0  0  0  0
   42.0408    4.7796   11.2840 H   0  0  0  0  0  0  0  0  0  0  0  0
   46.0963    3.5106   11.4114 H   0  0  0  0  0  0  0  0  0  0  0  0
   44.2687    6.7726   11.9771 H   0  0  0  0  0  0  0  0  0  0  0  0
   47.2728    4.5554   14.0073 H   0  0  0  0  0  0  0  0  0  0  0  0
   42.8755    2.5642   12.8471 H   0  0  0  0  0  0  0  0  0  0  0  0
   44.2687    2.0561   11.8620 H   0  0  0  0  0  0  0  0  0  0  0  0
   42.7193    2.4506   10.9954 H   0  0  0  0  0  0  0  0  0  0  0  0
   48.5266    6.5799   14.3471 H   0  0  0  0  0  0  0  0  0  0  0  0
   45.5239    8.8460   12.3113 H   0  0  0  0  0  0  0  0  0  0  0  0
   47.6921    8.7606   13.5150 H   0  0  0  0  0  0  0  0  0  0  0  0
  3  2  1  0
  4  2  1  0
  5  4  1  0
  6  2  1  0
  7  3  2  0
  8  3  1  0
  9  4  1  0
 10  8  2  0
 11  7  1  0
 12 11  2  0
 12 10  1  0
  1 13  1  0
  2 14  1  1
  4 15  1  6
  5 16  1  0
  5 17  1  0
  6 18  1  0
  7 19  1  0
  8 20  1  0
  9 21  1  0
  9 22  1  0
  9 23  1  0
 10 24  1  0
 11 25  1  0
 12 26  1  0
M  END
> <Uni-Dock RESULT> 
ENERGY=   -3.391  LOWER_BOUND=    4.843  UPPER_BOUND=    6.117
INTER + INTRA:          -3.391
INTER:                  -3.391
INTRA:                   0.000
UNBOUND:                 0.000

$$$$
