
     RDKit          3D

 26 25  0  0  0  0  0  0  0  0999 V2000
   45.8924    3.0453    8.2402 Cl  0  0  0  0  0  0  0  0  0  0  0  0
   44.9350    4.2536    8.7020 C   0  0  1  0  0  0  0  0  0  0  0  0
   45.7751    3.2304    8.0581 C   0  0  0  0  0  0  0  0  0  0  0  0
   44.2134    3.7608    9.9246 C   0  0  2  0  0  0  0  0  0  0  0  0
   43.3387    4.8669   10.3503 N   0  0  0  0  0  0  0  0  0  0  0  0
   45.6760    5.3773    9.0040 O   0  0  0  0  0  0  0  0  0  0  0  0
   45.7551    1.8971    8.3847 C   0  0  0  0  0  0  0  0  0  0  0  0
   46.6373    3.6421    7.0618 C   0  0  0  0  0  0  0  0  0  0  0  0
   45.1152    3.5450   11.1102 C   0  0  0  0  0  0  0  0  0  0  0  0
   47.4731    2.7764    6.3863 C   0  0  0  0  0  0  0  0  0  0  0  0
   46.5859    1.0153    7.7181 C   0  0  0  0  0  0  0  0  0  0  0  0
   47.4516    1.4365    6.7162 C   0  0  0  0  0  0  0  0  0  0  0  0
   45.2029    3.7032    9.2396 H   0  0  0  0  0  0  0  0  0  0  0  0
   44.1601    4.5405    7.9595 H   0  0  0  0  0  0  0  0  0  0  0  0
   43.5372    2.9161    9.7070 H   0  0  0  0  0  0  0  0  0  0  0  0
   42.7889    5.1482    9.4981 H   0  0  0  0  0  0  0  0  0  0  0  0
   44.0155    5.6765   10.4899 H   0  0  0  0  0  0  0  0  0  0  0  0
   45.2125    6.2136    8.6973 H   0  0  0  0  0  0  0  0  0  0  0  0
   45.0958    1.5499    9.1538 H   0  0  0  0  0  0  0  0  0  0  0  0
   46.6845    4.6982    6.7702 H   0  0  0  0  0  0  0  0  0  0  0  0
   44.4591    3.0949   11.9046 H   0  0  0  0  0  0  0  0  0  0  0  0
   45.9637    2.8829   10.9507 H   0  0  0  0  0  0  0  0  0  0  0  0
   45.4496    4.5403   11.4591 H   0  0  0  0  0  0  0  0  0  0  0  0
   48.1351    3.1704    5.6037 H   0  0  0  0  0  0  0  0  0  0  0  0
   46.5804   -0.0344    7.9646 H   0  0  0  0  0  0  0  0  0  0  0  0
   48.1051    0.7835    6.1825 H   0  0  0  0  0  0  0  0  0  0  0  0
  3  2  1  0
  4  2  1  0
  5  4  1  0
  6  2  1  0
  7  3  2  0
  8  3  1  0
  9  4  1  0
 10  8  2  0
 11  7  1  0
 12 11  2  0
 12 10  1  0
  1 13  1  0
  2 14  1  1
  4 15  1  1
  5 16  1  0
  5 17  1  0
  6 18  1  0
  7 19  1  0
  8 20  1  0
  9 21  1  0
  9 22  1  0
  9 23  1  0
 10 24  1  0
 11 25  1  0
 12 26  1  0
M  END
> <Uni-Dock RESULT> 
ENERGY=   -6.056  LOWER_BOUND=    0.000  UPPER_BOUND=    0.000
INTER + INTRA:          -6.056
INTER:                  -6.056
INTRA:                   0.000
UNBOUND:                 0.000

$$$$

     RDKit          3D

 26 25  0  0  0  0  0  0  0  0999 V2000
   45.8930    3.0438    8.2361 Cl  0  0  0  0  0  0  0  0  0  0  0  0
   44.9383    4.2549    8.6962 C   0  0  1  0  0  0  0  0  0  0  0  0
   45.7762    3.2291    8.0538 C   0  0  0  0  0  0  0  0  0  0  0  0
   44.2148    3.7650    9.9188 C   0  0  2  0  0  0  0  0  0  0  0  0
   43.3424    4.8736   10.3429 N   0  0  0  0  0  0  0  0  0  0  0  0
   45.6818    5.3771    8.9976 O   0  0  0  0  0  0  0  0  0  0  0  0
   45.7528    1.8961    8.3817 C   0  0  0  0  0  0  0  0  0  0  0  0
   46.6401    3.6377    7.0577 C   0  0  0  0  0  0  0  0  0  0  0  0
   45.1153    3.5480   11.1052 C   0  0  0  0  0  0  0  0  0  0  0  0
   47.4742    2.7693    6.3835 C   0  0  0  0  0  0  0  0  0  0  0  0
   46.5819    1.0117    7.7164 C   0  0  0  0  0  0  0  0  0  0  0  0
   47.4492    1.4298    6.7146 C   0  0  0  0  0  0  0  0  0  0  0  0
   45.2045    3.7043    9.2345 H   0  0  0  0  0  0  0  0  0  0  0  0
   44.1645    4.5430    7.9530 H   0  0  0  0  0  0  0  0  0  0  0  0
   43.5366    2.9217    9.7016 H   0  0  0  0  0  0  0  0  0  0  0  0
   42.7939    5.1554    9.4902 H   0  0  0  0  0  0  0  0  0  0  0  0
   44.0211    5.6817   10.4822 H   0  0  0  0  0  0  0  0  0  0  0  0
   45.2205    6.2142    8.6899 H   0  0  0  0  0  0  0  0  0  0  0  0
   45.0922    1.5512    9.1506 H   0  0  0  0  0  0  0  0  0  0  0  0
   46.6900    4.6934    6.7652 H   0  0  0  0  0  0  0  0  0  0  0  0
   44.4576    3.1003   11.8996 H   0  0  0  0  0  0  0  0  0  0  0  0
   45.9622    2.8838   10.9468 H   0  0  0  0  0  0  0  0  0  0  0  0
   45.4518    4.5428   11.4534 H   0  0  0  0  0  0  0  0  0  0  0  0
   48.1377    3.1610    5.6010 H   0  0  0  0  0  0  0  0  0  0  0  0
   46.5737   -0.0378    7.9638 H   0  0  0  0  0  0  0  0  0  0  0  0
   48.1015    0.7748    6.1819 H   0  0  0  0  0  0  0  0  0  0  0  0
  3  2  1  0
  4  2  1  0
  5  4  1  0
  6  2  1  0
  7  3  2  0
  8  3  1  0
  9  4  1  0
 10  8  2  0
 11  7  1  0
 12 11  2  0
 12 10  1  0
  1 13  1  0
  2 14  1  1
  4 15  1  1
  5 16  1  0
  5 17  1  0
  6 18  1  0
  7 19  1  0
  8 20  1  0
  9 21  1  0
  9 22  1  0
  9 23  1  0
 10 24  1  0
 11 25  1  0
 12 26  1  0
M  END
> <Uni-Dock RESULT> 
ENERGY=   -6.053  LOWER_BOUND=    0.007  UPPER_BOUND=    0.007
INTER + INTRA:          -6.053
INTER:                  -6.053
INTRA:                   0.000
UNBOUND:                 0.000

$$$$

     RDKit          3D

 26 25  0  0  0  0  0  0  0  0999 V2000
   44.5571    3.7042   10.1437 Cl  0  0  0  0  0  0  0  0  0  0  0  0
   44.0305    3.3376   11.6196 C   0  0  1  0  0  0  0  0  0  0  0  0
   44.6493    3.4785   10.2912 C   0  0  0  0  0  0  0  0  0  0  0  0
   43.7045    4.6493   12.2763 C   0  0  2  0  0  0  0  0  0  0  0  0
   43.2196    4.3153   13.6265 N   0  0  0  0  0  0  0  0  0  0  0  0
   42.9052    2.5423   11.5543 O   0  0  0  0  0  0  0  0  0  0  0  0
   45.0965    4.6671    9.7696 C   0  0  0  0  0  0  0  0  0  0  0  0
   44.7872    2.3396    9.5235 C   0  0  0  0  0  0  0  0  0  0  0  0
   42.5390    5.3646   11.6473 C   0  0  0  0  0  0  0  0  0  0  0  0
   45.3510    2.3462    8.2639 C   0  0  0  0  0  0  0  0  0  0  0  0
   45.6641    4.6923    8.5089 C   0  0  0  0  0  0  0  0  0  0  0  0
   45.7998    3.5420    7.7414 C   0  0  0  0  0  0  0  0  0  0  0  0
   43.7954    4.0246   11.2501 H   0  0  0  0  0  0  0  0  0  0  0  0
   44.7771    2.8268   12.2643 H   0  0  0  0  0  0  0  0  0  0  0  0
   44.5967    5.2805   12.4304 H   0  0  0  0  0  0  0  0  0  0  0  0
   43.9491    3.6867   14.0509 H   0  0  0  0  0  0  0  0  0  0  0  0
   42.4023    3.6595   13.4394 H   0  0  0  0  0  0  0  0  0  0  0  0
   42.9125    1.8399   12.2718 H   0  0  0  0  0  0  0  0  0  0  0  0
   45.0022    5.5663   10.3434 H   0  0  0  0  0  0  0  0  0  0  0  0
   44.4432    1.3699    9.9027 H   0  0  0  0  0  0  0  0  0  0  0  0
   42.4770    6.3545   12.1768 H   0  0  0  0  0  0  0  0  0  0  0  0
   42.6139    5.5517   10.5782 H   0  0  0  0  0  0  0  0  0  0  0  0
   41.6264    4.7861   11.8851 H   0  0  0  0  0  0  0  0  0  0  0  0
   45.4302    1.4035    7.7063 H   0  0  0  0  0  0  0  0  0  0  0  0
   46.0194    5.6188    8.0871 H   0  0  0  0  0  0  0  0  0  0  0  0
   46.2326    3.5261    6.7662 H   0  0  0  0  0  0  0  0  0  0  0  0
  3  2  1  0
  4  2  1  0
  5  4  1  0
  6  2  1  0
  7  3  2  0
  8  3  1  0
  9  4  1  0
 10  8  2  0
 11  7  1  0
 12 11  2  0
 12 10  1  0
  1 13  1  0
  2 14  1  1
  4 15  1  1
  5 16  1  0
  5 17  1  0
  6 18  1  0
  7 19  1  0
  8 20  1  0
  9 21  1  0
  9 22  1  0
  9 23  1  0
 10 24  1  0
 11 25  1  0
 12 26  1  0
M  END
> <Uni-Dock RESULT> 
ENERGY=   -4.983  LOWER_BOUND=    2.224  UPPER_BOUND=    3.228
INTER + INTRA:          -4.983
INTER:                  -4.983
INTRA:                   0.000
UNBOUND:                 0.000

$$$$

     RDKit          3D

 26 25  0  0  0  0  0  0  0  0999 V2000
   44.0901    4.0892   10.6506 Cl  0  0  0  0  0  0  0  0  0  0  0  0
   44.4585    3.0544    9.4744 C   0  0  1  0  0  0  0  0  0  0  0  0
   43.9789    3.8275   10.6318 C   0  0  0  0  0  0  0  0  0  0  0  0
   44.7440    3.8958    8.2625 C   0  0  2  0  0  0  0  0  0  0  0  0
   45.0842    2.9501    7.1855 N   0  0  0  0  0  0  0  0  0  0  0  0
   45.5680    2.3066    9.8101 O   0  0  0  0  0  0  0  0  0  0  0  0
   43.6109    5.1491   10.5790 C   0  0  0  0  0  0  0  0  0  0  0  0
   43.8952    3.1781   11.8471 C   0  0  0  0  0  0  0  0  0  0  0  0
   45.9811    4.7428    8.3951 C   0  0  0  0  0  0  0  0  0  0  0  0
   43.4607    3.7970   13.0014 C   0  0  0  0  0  0  0  0  0  0  0  0
   43.1730    5.7852   11.7262 C   0  0  0  0  0  0  0  0  0  0  0  0
   43.0913    5.1255   12.9462 C   0  0  0  0  0  0  0  0  0  0  0  0
   44.7436    3.8175    9.4647 H   0  0  0  0  0  0  0  0  0  0  0  0
   43.6407    2.3545    9.2001 H   0  0  0  0  0  0  0  0  0  0  0  0
   43.8541    4.4423    7.9056 H   0  0  0  0  0  0  0  0  0  0  0  0
   44.3031    2.2454    7.1590 H   0  0  0  0  0  0  0  0  0  0  0  0
   45.9025    2.4015    7.5888 H   0  0  0  0  0  0  0  0  0  0  0  0
   45.4744    1.3557    9.5013 H   0  0  0  0  0  0  0  0  0  0  0  0
   43.6657    5.6776    9.6493 H   0  0  0  0  0  0  0  0  0  0  0  0
   44.1795    2.1224   11.9327 H   0  0  0  0  0  0  0  0  0  0  0  0
   46.0102    5.3740    7.4651 H   0  0  0  0  0  0  0  0  0  0  0  0
   46.0176    5.4031    9.2590 H   0  0  0  0  0  0  0  0  0  0  0  0
   46.8533    4.0621    8.3798 H   0  0  0  0  0  0  0  0  0  0  0  0
   43.4184    3.2216   13.9358 H   0  0  0  0  0  0  0  0  0  0  0  0
   42.8810    6.8228   11.6989 H   0  0  0  0  0  0  0  0  0  0  0  0
   42.7582    5.5858   13.8493 H   0  0  0  0  0  0  0  0  0  0  0  0
  3  2  1  0
  4  2  1  0
  5  4  1  0
  6  2  1  0
  7  3  2  0
  8  3  1  0
  9  4  1  0
 10  8  2  0
 11  7  1  0
 12 11  2  0
 12 10  1  0
  1 13  1  0
  2 14  1  1
  4 15  1  1
  5 16  1  0
  5 17  1  0
  6 18  1  0
  7 19  1  0
  8 20  1  0
  9 21  1  0
  9 22  1  0
  9 23  1  0
 10 24  1  0
 11 25  1  0
 12 26  1  0
M  END
> <Uni-Dock RESULT> 
ENERGY=   -3.937  LOWER_BOUND=    2.682  UPPER_BOUND=    4.962
INTER + INTRA:          -3.937
INTER:                  -3.937
INTRA:                   0.000
UNBOUND:                 0.000

$$$$

     RDKit          3D

 26 25  0  0  0  0  0  0  0  0999 V2000
   46.1434    2.6986    7.9217 Cl  0  0  0  0  0  0  0  0  0  0  0  0
   45.4782    2.4396    9.3641 C   0  0  1  0  0  0  0  0  0  0  0  0
   46.2415    2.5056    8.1069 C   0  0  0  0  0  0  0  0  0  0  0  0
   44.9208    3.7645    9.8025 C   0  0  2  0  0  0  0  0  0  0  0  0
   44.3090    3.5285   11.1215 N   0  0  0  0  0  0  0  0  0  0  0  0
   44.4705    1.5016    9.2771 O   0  0  0  0  0  0  0  0  0  0  0  0
   46.6108    3.6741    7.4880 C   0  0  0  0  0  0  0  0  0  0  0  0
   46.6078    1.3134    7.5153 C   0  0  0  0  0  0  0  0  0  0  0  0
   43.7705    4.2432    8.9581 C   0  0  0  0  0  0  0  0  0  0  0  0
   47.3237    1.2478    6.3374 C   0  0  0  0  0  0  0  0  0  0  0  0
   47.3285    3.6272    6.3068 C   0  0  0  0  0  0  0  0  0  0  0  0
   47.6939    2.4235    5.7167 C   0  0  0  0  0  0  0  0  0  0  0  0
   45.2142    3.0424    8.8838 H   0  0  0  0  0  0  0  0  0  0  0  0
   46.1903    2.1093   10.1501 H   0  0  0  0  0  0  0  0  0  0  0  0
   45.7066    4.5207    9.9722 H   0  0  0  0  0  0  0  0  0  0  0  0
   45.0461    3.0543   11.7040 H   0  0  0  0  0  0  0  0  0  0  0  0
   43.6040    2.7540   10.9310 H   0  0  0  0  0  0  0  0  0  0  0  0
   44.4673    0.8941   10.0766 H   0  0  0  0  0  0  0  0  0  0  0  0
   46.3402    4.6135    7.9248 H   0  0  0  0  0  0  0  0  0  0  0  0
   46.3329    0.3574    7.9770 H   0  0  0  0  0  0  0  0  0  0  0  0
   43.5267    5.2710    9.3431 H   0  0  0  0  0  0  0  0  0  0  0  0
   43.9594    4.3134    7.8890 H   0  0  0  0  0  0  0  0  0  0  0  0
   42.9082    3.5815    9.1652 H   0  0  0  0  0  0  0  0  0  0  0  0
   47.5825    0.2655    5.9204 H   0  0  0  0  0  0  0  0  0  0  0  0
   47.6250    4.5372    5.8102 H   0  0  0  0  0  0  0  0  0  0  0  0
   48.2469    2.3516    4.8071 H   0  0  0  0  0  0  0  0  0  0  0  0
  3  2  1  0
  4  2  1  0
  5  4  1  0
  6  2  1  0
  7  3  2  0
  8  3  1  0
  9  4  1  0
 10  8  2  0
 11  7  1  0
 12 11  2  0
 12 10  1  0
  1 13  1  0
  2 14  1  1
  4 15  1  1
  5 16  1  0
  5 17  1  0
  6 18  1  0
  7 19  1  0
  8 20  1  0
  9 21  1  0
  9 22  1  0
  9 23  1  0
 10 24  1  0
 11 25  1  0
 12 26  1  0
M  END
> <Uni-Dock RESULT> 
ENERGY=   -3.775  LOWER_BOUND=    1.485  UPPER_BOUND=    2.169
INTER + INTRA:          -3.775
INTER:                  -3.775
INTRA:                   0.000
UNBOUND:                 0.000

$$$$

     RDKit          3D

 26 25  0  0  0  0  0  0  0  0999 V2000
   50.4608    3.1006   17.6043 Cl  0  0  0  0  0  0  0  0  0  0  0  0
   49.4474    4.2972   17.2421 C   0  0  1  0  0  0  0  0  0  0  0  0
   50.5462    3.3526   17.5022 C   0  0  0  0  0  0  0  0  0  0  0  0
   48.1760    3.6355   16.7907 C   0  0  2  0  0  0  0  0  0  0  0  0
   47.2463    4.7296   16.4615 N   0  0  0  0  0  0  0  0  0  0  0  0
   49.2091    5.0882   18.3469 O   0  0  0  0  0  0  0  0  0  0  0  0
   50.5154    2.0212   17.1685 C   0  0  0  0  0  0  0  0  0  0  0  0
   51.6790    3.8407   18.1218 C   0  0  0  0  0  0  0  0  0  0  0  0
   47.4666    2.8840   17.8850 C   0  0  0  0  0  0  0  0  0  0  0  0
   52.7726    3.0527   18.4172 C   0  0  0  0  0  0  0  0  0  0  0  0
   51.6024    1.2166   17.4571 C   0  0  0  0  0  0  0  0  0  0  0  0
   52.7396    1.7146   18.0810 C   0  0  0  0  0  0  0  0  0  0  0  0
   49.1678    3.5672   17.4713 H   0  0  0  0  0  0  0  0  0  0  0  0
   49.7848    4.9551   16.4130 H   0  0  0  0  0  0  0  0  0  0  0  0
   48.3035    3.0644   15.8549 H   0  0  0  0  0  0  0  0  0  0  0  0
   47.7658    5.3652   15.8030 H   0  0  0  0  0  0  0  0  0  0  0  0
   47.1971    5.2911   17.3645 H   0  0  0  0  0  0  0  0  0  0  0  0
   49.1495    6.0584   18.0953 H   0  0  0  0  0  0  0  0  0  0  0  0
   49.6492    1.6156   16.6868 H   0  0  0  0  0  0  0  0  0  0  0  0
   51.7445    4.8981   18.4049 H   0  0  0  0  0  0  0  0  0  0  0  0
   46.5996    2.3747   17.3821 H   0  0  0  0  0  0  0  0  0  0  0  0
   48.0535    2.1292   18.4042 H   0  0  0  0  0  0  0  0  0  0  0  0
   47.0654    3.6314   18.5954 H   0  0  0  0  0  0  0  0  0  0  0  0
   53.6425    3.5051   18.9117 H   0  0  0  0  0  0  0  0  0  0  0  0
   51.5916    0.1694   17.2005 H   0  0  0  0  0  0  0  0  0  0  0  0
   53.5949    1.1223   18.3178 H   0  0  0  0  0  0  0  0  0  0  0  0
  3  2  1  0
  4  2  1  0
  5  4  1  0
  6  2  1  0
  7  3  2  0
  8  3  1  0
  9  4  1  0
 10  8  2  0
 11  7  1  0
 12 11  2  0
 12 10  1  0
  1 13  1  0
  2 14  1  1
  4 15  1  1
  5 16  1  0
  5 17  1  0
  6 18  1  0
  7 19  1  0
  8 20  1  0
  9 21  1  0
  9 22  1  0
  9 23  1  0
 10 24  1  0
 11 25  1  0
 12 26  1  0
M  END
> <Uni-Dock RESULT> 
ENERGY=   -3.386  LOWER_BOUND=    9.168  UPPER_BOUND=   10.323
INTER + INTRA:          -3.386
INTER:                  -3.386
INTRA:                   0.000
UNBOUND:                 0.000

$$$$

     RDKit          3D

 26 25  0  0  0  0  0  0  0  0999 V2000
   44.6410    6.8834   12.0560 Cl  0  0  0  0  0  0  0  0  0  0  0  0
   43.7052    5.8513   11.2505 C   0  0  1  0  0  0  0  0  0  0  0  0
   44.5674    6.9191   11.7830 C   0  0  0  0  0  0  0  0  0  0  0  0
   43.9892    4.4970   11.8364 C   0  0  2  0  0  0  0  0  0  0  0  0
   43.1310    3.5514   11.1020 N   0  0  0  0  0  0  0  0  0  0  0  0
   42.3729    6.1718   11.4097 O   0  0  0  0  0  0  0  0  0  0  0  0
   45.6706    6.7004   12.5705 C   0  0  0  0  0  0  0  0  0  0  0  0
   44.2426    8.2232   11.4681 C   0  0  0  0  0  0  0  0  0  0  0  0
   43.5366    4.3515   13.2645 C   0  0  0  0  0  0  0  0  0  0  0  0
   44.9744    9.3072   11.9082 C   0  0  0  0  0  0  0  0  0  0  0  0
   46.4156    7.7750   13.0205 C   0  0  0  0  0  0  0  0  0  0  0  0
   46.0829    9.0853   12.6997 C   0  0  0  0  0  0  0  0  0  0  0  0
   43.9502    5.6885   12.0102 H   0  0  0  0  0  0  0  0  0  0  0  0
   43.9168    5.7865   10.1619 H   0  0  0  0  0  0  0  0  0  0  0  0
   45.0243    4.1623   11.6505 H   0  0  0  0  0  0  0  0  0  0  0  0
   43.3127    3.7261   10.0803 H   0  0  0  0  0  0  0  0  0  0  0  0
   42.1515    3.9400   11.2521 H   0  0  0  0  0  0  0  0  0  0  0  0
   41.8591    6.0301   10.5587 H   0  0  0  0  0  0  0  0  0  0  0  0
   45.9459    5.6987   12.8303 H   0  0  0  0  0  0  0  0  0  0  0  0
   43.3694    8.4417   10.8416 H   0  0  0  0  0  0  0  0  0  0  0  0
   43.8954    3.3363   13.5881 H   0  0  0  0  0  0  0  0  0  0  0  0
   43.9206    5.0902   13.9649 H   0  0  0  0  0  0  0  0  0  0  0  0
   42.4302    4.3444   13.2635 H   0  0  0  0  0  0  0  0  0  0  0  0
   44.6604   10.3194   11.6206 H   0  0  0  0  0  0  0  0  0  0  0  0
   47.2843    7.6175   13.6396 H   0  0  0  0  0  0  0  0  0  0  0  0
   46.6354    9.9363   13.0297 H   0  0  0  0  0  0  0  0  0  0  0  0
  3  2  1  0
  4  2  1  0
  5  4  1  0
  6  2  1  0
  7  3  2  0
  8  3  1  0
  9  4  1  0
 10  8  2  0
 11  7  1  0
 12 11  2  0
 12 10  1  0
  1 13  1  0
  2 14  1  1
  4 15  1  1
  5 16  1  0
  5 17  1  0
  6 18  1  0
  7 19  1  0
  8 20  1  0
  9 21  1  0
  9 22  1  0
  9 23  1  0
 10 24  1  0
 11 25  1  0
 12 26  1  0
M  END
> <Uni-Dock RESULT> 
ENERGY=   -3.382  LOWER_BOUND=    4.723  UPPER_BOUND=    6.043
INTER + INTRA:          -3.382
INTER:                  -3.382
INTRA:                   0.000
UNBOUND:                 0.000

$$$$

     RDKit          3D

 26 25  0  0  0  0  0  0  0  0999 V2000
   44.9579    5.6469   12.3222 Cl  0  0  0  0  0  0  0  0  0  0  0  0
   45.0724    7.2237   12.6229 C   0  0  1  0  0  0  0  0  0  0  0  0
   44.7403    5.8043   12.4173 C   0  0  0  0  0  0  0  0  0  0  0  0
   46.4879    7.4539   13.0717 C   0  0  2  0  0  0  0  0  0  0  0  0
   46.5952    8.8975   13.3446 N   0  0  0  0  0  0  0  0  0  0  0  0
   44.8049    7.9593   11.4870 O   0  0  0  0  0  0  0  0  0  0  0  0
   45.5465    4.7597   12.7961 C   0  0  0  0  0  0  0  0  0  0  0  0
   43.5396    5.5086   11.8037 C   0  0  0  0  0  0  0  0  0  0  0  0
   47.5083    7.2203   11.9902 C   0  0  0  0  0  0  0  0  0  0  0  0
   43.1197    4.2174   11.5572 C   0  0  0  0  0  0  0  0  0  0  0  0
   45.1416    3.4592   12.5569 C   0  0  0  0  0  0  0  0  0  0  0  0
   43.9317    3.1687   11.9387 C   0  0  0  0  0  0  0  0  0  0  0  0
   45.7289    6.7890   12.4136 H   0  0  0  0  0  0  0  0  0  0  0  0
   44.4091    7.5899   13.4353 H   0  0  0  0  0  0  0  0  0  0  0  0
   46.7165    6.9544   14.0290 H   0  0  0  0  0  0  0  0  0  0  0  0
   45.7984    9.1318   13.9909 H   0  0  0  0  0  0  0  0  0  0  0  0
   46.3087    9.3445   12.4220 H   0  0  0  0  0  0  0  0  0  0  0  0
   44.2816    8.7884   11.7038 H   0  0  0  0  0  0  0  0  0  0  0  0
   46.4835    4.9599   13.2743 H   0  0  0  0  0  0  0  0  0  0  0  0
   42.8661    6.3134   11.4855 H   0  0  0  0  0  0  0  0  0  0  0  0
   48.5069    7.3381   12.4933 H   0  0  0  0  0  0  0  0  0  0  0  0
   47.4797    6.2449   11.5091 H   0  0  0  0  0  0  0  0  0  0  0  0
   47.3965    8.0320   11.2468 H   0  0  0  0  0  0  0  0  0  0  0  0
   42.1522    4.0523   11.0646 H   0  0  0  0  0  0  0  0  0  0  0  0
   45.7650    2.6295   12.8492 H   0  0  0  0  0  0  0  0  0  0  0  0
   43.5892    2.1780   11.7394 H   0  0  0  0  0  0  0  0  0  0  0  0
  3  2  1  0
  4  2  1  0
  5  4  1  0
  6  2  1  0
  7  3  2  0
  8  3  1  0
  9  4  1  0
 10  8  2  0
 11  7  1  0
 12 11  2  0
 12 10  1  0
  1 13  1  0
  2 14  1  1
  4 15  1  1
  5 16  1  0
  5 17  1  0
  6 18  1  0
  7 19  1  0
  8 20  1  0
  9 21  1  0
  9 22  1  0
  9 23  1  0
 10 24  1  0
 11 25  1  0
 12 26  1  0
M  END
> <Uni-Dock RESULT> 
ENERGY=   -3.324  LOWER_BOUND=    4.782  UPPER_BOUND=    5.466
INTER + INTRA:          -3.324
INTER:                  -3.324
INTRA:                   0.000
UNBOUND:                 0.000

$$$$

     RDKit          3D

 26 25  0  0  0  0  0  0  0  0999 V2000
   45.2593    5.9506   12.5852 Cl  0  0  0  0  0  0  0  0  0  0  0  0
   46.8071    5.7441   12.9744 C   0  0  1  0  0  0  0  0  0  0  0  0
   45.3903    5.6977   12.5773 C   0  0  0  0  0  0  0  0  0  0  0  0
   47.5004    7.0210   12.5908 C   0  0  2  0  0  0  0  0  0  0  0  0
   48.9169    6.8347   12.9492 N   0  0  0  0  0  0  0  0  0  0  0  0
   46.9449    5.5125   14.3274 O   0  0  0  0  0  0  0  0  0  0  0  0
   44.7896    6.6138   11.7499 C   0  0  0  0  0  0  0  0  0  0  0  0
   44.6191    4.6646   13.0709 C   0  0  0  0  0  0  0  0  0  0  0  0
   47.0784    8.2069   13.4161 C   0  0  0  0  0  0  0  0  0  0  0  0
   43.2807    4.5158   12.7697 C   0  0  0  0  0  0  0  0  0  0  0  0
   43.4491    6.4802   11.4375 C   0  0  0  0  0  0  0  0  0  0  0  0
   42.6787    5.4379   11.9378 C   0  0  0  0  0  0  0  0  0  0  0  0
   46.4790    6.4892   12.9450 H   0  0  0  0  0  0  0  0  0  0  0  0
   47.3160    4.9205   12.4297 H   0  0  0  0  0  0  0  0  0  0  0  0
   47.4919    7.1982   11.5015 H   0  0  0  0  0  0  0  0  0  0  0  0
   49.2127    5.9272   12.5060 H   0  0  0  0  0  0  0  0  0  0  0  0
   48.8801    6.6056   13.9881 H   0  0  0  0  0  0  0  0  0  0  0  0
   47.6556    4.8271   14.5098 H   0  0  0  0  0  0  0  0  0  0  0  0
   45.3640    7.4255   11.3525 H   0  0  0  0  0  0  0  0  0  0  0  0
   45.0599    3.9114   13.7349 H   0  0  0  0  0  0  0  0  0  0  0  0
   47.6029    9.0896   12.9579 H   0  0  0  0  0  0  0  0  0  0  0  0
   46.0112    8.4168   13.4400 H   0  0  0  0  0  0  0  0  0  0  0  0
   47.4759    8.0591   14.4380 H   0  0  0  0  0  0  0  0  0  0  0  0
   42.7251    3.6703   13.1967 H   0  0  0  0  0  0  0  0  0  0  0  0
   42.9648    7.1926   10.7889 H   0  0  0  0  0  0  0  0  0  0  0  0
   41.6432    5.3053   11.7170 H   0  0  0  0  0  0  0  0  0  0  0  0
  3  2  1  0
  4  2  1  0
  5  4  1  0
  6  2  1  0
  7  3  2  0
  8  3  1  0
  9  4  1  0
 10  8  2  0
 11  7  1  0
 12 11  2  0
 12 10  1  0
  1 13  1  0
  2 14  1  1
  4 15  1  1
  5 16  1  0
  5 17  1  0
  6 18  1  0
  7 19  1  0
  8 20  1  0
  9 21  1  0
  9 22  1  0
  9 23  1  0
 10 24  1  0
 11 25  1  0
 12 26  1  0
M  END
> <Uni-Dock RESULT> 
ENERGY=   -3.295  LOWER_BOUND=    5.576  UPPER_BOUND=    6.233
INTER + INTRA:          -3.295
INTER:                  -3.295
INTRA:                   0.000
UNBOUND:                 0.000

$$$$
