
     RDKit          3D

 26 25  0  0  0  0  0  0  0  0999 V2000
   46.0839    2.9981    8.1286 Cl  0  0  0  0  0  0  0  0  0  0  0  0
   45.0622    4.0597    8.6590 C   0  0  1  0  0  0  0  0  0  0  0  0
   45.9125    3.1503    7.8914 C   0  0  0  0  0  0  0  0  0  0  0  0
   44.6710    3.6446   10.0217 C   0  0  2  0  0  0  0  0  0  0  0  0
   43.9341    2.4285   10.1449 N   0  0  0  0  0  0  0  0  0  0  0  0
   45.7635    5.2827    8.8061 O   0  0  0  0  0  0  0  0  0  0  0  0
   46.1678    1.8453    8.1683 C   0  0  0  0  0  0  0  0  0  0  0  0
   46.5294    3.6785    6.7482 C   0  0  0  0  0  0  0  0  0  0  0  0
   43.7496    4.7567   10.5447 C   0  0  0  0  0  0  0  0  0  0  0  0
   47.3439    2.8886    5.9712 C   0  0  0  0  0  0  0  0  0  0  0  0
   46.9923    1.0369    7.3861 C   0  0  0  0  0  0  0  0  0  0  0  0
   47.5946    1.5642    6.2643 C   0  0  0  0  0  0  0  0  0  0  0  0
   45.1222    3.5366    8.9562 H   0  0  0  0  0  0  0  0  0  0  0  0
   44.1455    4.2653    8.0480 H   0  0  0  0  0  0  0  0  0  0  0  0
   45.5821    3.5886   10.6475 H   0  0  0  0  0  0  0  0  0  0  0  0
   43.2651    2.4518   10.9645 H   0  0  0  0  0  0  0  0  0  0  0  0
   43.4612    2.1453    9.2591 H   0  0  0  0  0  0  0  0  0  0  0  0
   46.6777    5.2281    8.4284 H   0  0  0  0  0  0  0  0  0  0  0  0
   45.7284    1.3948    9.0212 H   0  0  0  0  0  0  0  0  0  0  0  0
   46.3801    4.7061    6.4562 H   0  0  0  0  0  0  0  0  0  0  0  0
   43.3085    4.4887   11.5223 H   0  0  0  0  0  0  0  0  0  0  0  0
   44.3395    5.6943   10.5649 H   0  0  0  0  0  0  0  0  0  0  0  0
   42.9576    4.8759    9.7699 H   0  0  0  0  0  0  0  0  0  0  0  0
   47.8281    3.2823    5.0841 H   0  0  0  0  0  0  0  0  0  0  0  0
   47.1472   -0.0093    7.6793 H   0  0  0  0  0  0  0  0  0  0  0  0
   48.2306    0.9318    5.6652 H   0  0  0  0  0  0  0  0  0  0  0  0
  3  2  1  0
  4  2  1  0
  5  4  1  0
  6  2  1  0
  7  3  2  0
  8  3  1  0
  9  4  1  0
 10  8  2  0
 11  7  1  0
 12 11  2  0
 12 10  1  0
  1 13  1  0
  2 14  1  1
  4 15  1  6
  5 16  1  0
  5 17  1  0
  6 18  1  0
  7 19  1  0
  8 20  1  0
  9 21  1  0
  9 22  1  0
  9 23  1  0
 10 24  1  0
 11 25  1  0
 12 26  1  0
M  END
> <Uni-Dock RESULT> 
ENERGY=   -6.177  LOWER_BOUND=    0.000  UPPER_BOUND=    0.000
INTER + INTRA:          -6.177
INTER:                  -6.177
INTRA:                   0.000
UNBOUND:                 0.000

$$$$

     RDKit          3D

 26 25  0  0  0  0  0  0  0  0999 V2000
   45.8213    2.7889    7.9766 Cl  0  0  0  0  0  0  0  0  0  0  0  0
   45.1794    2.6047    9.3930 C   0  0  1  0  0  0  0  0  0  0  0  0
   46.0021    2.6067    8.1838 C   0  0  0  0  0  0  0  0  0  0  0  0
   44.3186    3.7801    9.6372 C   0  0  2  0  0  0  0  0  0  0  0  0
   44.9661    5.0460    9.7617 N   0  0  0  0  0  0  0  0  0  0  0  0
   44.3094    1.4881    9.3192 O   0  0  0  0  0  0  0  0  0  0  0  0
   46.2821    3.6733    7.3910 C   0  0  0  0  0  0  0  0  0  0  0  0
   46.5628    1.3797    7.8010 C   0  0  0  0  0  0  0  0  0  0  0  0
   43.6322    3.5175   10.9860 C   0  0  0  0  0  0  0  0  0  0  0  0
   47.3499    1.2967    6.6764 C   0  0  0  0  0  0  0  0  0  0  0  0
   47.0791    3.5985    6.2489 C   0  0  0  0  0  0  0  0  0  0  0  0
   47.6262    2.3886    5.8799 C   0  0  0  0  0  0  0  0  0  0  0  0
   45.1454    3.1450    9.1240 H   0  0  0  0  0  0  0  0  0  0  0  0
   45.8614    2.4465   10.2681 H   0  0  0  0  0  0  0  0  0  0  0  0
   43.5584    3.8322    8.8346 H   0  0  0  0  0  0  0  0  0  0  0  0
   44.4467    5.6939   10.4177 H   0  0  0  0  0  0  0  0  0  0  0  0
   45.9770    4.9658   10.0066 H   0  0  0  0  0  0  0  0  0  0  0  0
   44.3993    1.0104    8.4560 H   0  0  0  0  0  0  0  0  0  0  0  0
   45.8833    4.6252    7.6328 H   0  0  0  0  0  0  0  0  0  0  0  0
   46.3906    0.4826    8.3748 H   0  0  0  0  0  0  0  0  0  0  0  0
   43.0460    4.3940   11.3179 H   0  0  0  0  0  0  0  0  0  0  0  0
   43.0292    2.5944   10.8773 H   0  0  0  0  0  0  0  0  0  0  0  0
   44.4573    3.2962   11.7017 H   0  0  0  0  0  0  0  0  0  0  0  0
   47.7907    0.3552    6.3672 H   0  0  0  0  0  0  0  0  0  0  0  0
   47.2571    4.5086    5.6618 H   0  0  0  0  0  0  0  0  0  0  0  0
   48.2412    2.3400    4.9953 H   0  0  0  0  0  0  0  0  0  0  0  0
  3  2  1  0
  4  2  1  0
  5  4  1  0
  6  2  1  0
  7  3  2  0
  8  3  1  0
  9  4  1  0
 10  8  2  0
 11  7  1  0
 12 11  2  0
 12 10  1  0
  1 13  1  0
  2 14  1  1
  4 15  1  6
  5 16  1  0
  5 17  1  0
  6 18  1  0
  7 19  1  0
  8 20  1  0
  9 21  1  0
  9 22  1  0
  9 23  1  0
 10 24  1  0
 11 25  1  0
 12 26  1  0
M  END
> <Uni-Dock RESULT> 
ENERGY=   -5.957  LOWER_BOUND=    1.615  UPPER_BOUND=    2.085
INTER + INTRA:          -5.957
INTER:                  -5.957
INTRA:                   0.000
UNBOUND:                 0.000

$$$$

     RDKit          3D

 26 25  0  0  0  0  0  0  0  0999 V2000
   45.6166    3.1132    8.2130 Cl  0  0  0  0  0  0  0  0  0  0  0  0
   46.8292    3.2801    7.2363 C   0  0  1  0  0  0  0  0  0  0  0  0
   45.8397    3.3350    8.3120 C   0  0  0  0  0  0  0  0  0  0  0  0
   46.9905    1.9987    6.5193 C   0  0  2  0  0  0  0  0  0  0  0  0
   47.3803    0.8647    7.2933 N   0  0  0  0  0  0  0  0  0  0  0  0
   46.4538    4.2344    6.2578 O   0  0  0  0  0  0  0  0  0  0  0  0
   45.2384    2.2798    8.9201 C   0  0  0  0  0  0  0  0  0  0  0  0
   45.4722    4.6099    8.7658 C   0  0  0  0  0  0  0  0  0  0  0  0
   48.1199    2.2314    5.5047 C   0  0  0  0  0  0  0  0  0  0  0  0
   44.5484    4.7480    9.7751 C   0  0  0  0  0  0  0  0  0  0  0  0
   44.3007    2.4104    9.9442 C   0  0  0  0  0  0  0  0  0  0  0  0
   43.9452    3.6672   10.3841 C   0  0  0  0  0  0  0  0  0  0  0  0
   46.6140    2.7256    7.3441 H   0  0  0  0  0  0  0  0  0  0  0  0
   47.8142    3.6015    7.6636 H   0  0  0  0  0  0  0  0  0  0  0  0
   46.0479    1.7738    5.9846 H   0  0  0  0  0  0  0  0  0  0  0  0
   47.9648    0.1840    6.7323 H   0  0  0  0  0  0  0  0  0  0  0  0
   47.8349    1.1226    8.1962 H   0  0  0  0  0  0  0  0  0  0  0  0
   45.5894    4.6649    6.4790 H   0  0  0  0  0  0  0  0  0  0  0  0
   45.4781    1.2932    8.6158 H   0  0  0  0  0  0  0  0  0  0  0  0
   45.9019    5.5017    8.3371 H   0  0  0  0  0  0  0  0  0  0  0  0
   48.3978    1.2942    4.9883 H   0  0  0  0  0  0  0  0  0  0  0  0
   47.7892    3.0360    4.8186 H   0  0  0  0  0  0  0  0  0  0  0  0
   48.9759    2.6279    6.0979 H   0  0  0  0  0  0  0  0  0  0  0  0
   44.2538    5.7270   10.1371 H   0  0  0  0  0  0  0  0  0  0  0  0
   43.8608    1.5059   10.3834 H   0  0  0  0  0  0  0  0  0  0  0  0
   43.2193    3.7588   11.1765 H   0  0  0  0  0  0  0  0  0  0  0  0
  3  2  1  0
  4  2  1  0
  5  4  1  0
  6  2  1  0
  7  3  2  0
  8  3  1  0
  9  4  1  0
 10  8  2  0
 11  7  1  0
 12 11  2  0
 12 10  1  0
  1 13  1  0
  2 14  1  1
  4 15  1  6
  5 16  1  0
  5 17  1  0
  6 18  1  0
  7 19  1  0
  8 20  1  0
  9 21  1  0
  9 22  1  0
  9 23  1  0
 10 24  1  0
 11 25  1  0
 12 26  1  0
M  END
> <Uni-Dock RESULT> 
ENERGY=   -5.061  LOWER_BOUND=    1.803  UPPER_BOUND=    3.998
INTER + INTRA:          -5.061
INTER:                  -5.061
INTRA:                   0.000
UNBOUND:                 0.000

$$$$

     RDKit          3D

 26 25  0  0  0  0  0  0  0  0999 V2000
   44.6347    3.8168    9.5354 Cl  0  0  0  0  0  0  0  0  0  0  0  0
   44.0538    3.9604   10.9825 C   0  0  1  0  0  0  0  0  0  0  0  0
   44.7773    3.6195    9.7580 C   0  0  0  0  0  0  0  0  0  0  0  0
   43.5247    5.3342   11.1050 C   0  0  2  0  0  0  0  0  0  0  0  0
   44.4698    6.4025   11.0518 N   0  0  0  0  0  0  0  0  0  0  0  0
   42.9332    3.0973   11.0742 O   0  0  0  0  0  0  0  0  0  0  0  0
   45.2626    4.4853    8.8309 C   0  0  0  0  0  0  0  0  0  0  0  0
   44.9951    2.2559    9.5136 C   0  0  0  0  0  0  0  0  0  0  0  0
   42.8775    5.4060   12.4961 C   0  0  0  0  0  0  0  0  0  0  0  0
   45.6683    1.8518    8.3846 C   0  0  0  0  0  0  0  0  0  0  0  0
   45.9464    4.0845    7.6832 C   0  0  0  0  0  0  0  0  0  0  0  0
   46.1559    2.7424    7.4508 C   0  0  0  0  0  0  0  0  0  0  0  0
   44.1375    4.4581   10.6497 H   0  0  0  0  0  0  0  0  0  0  0  0
   44.7275    3.7355   11.8494 H   0  0  0  0  0  0  0  0  0  0  0  0
   42.7536    5.4850   10.3255 H   0  0  0  0  0  0  0  0  0  0  0  0
   44.1662    7.2297   11.6377 H   0  0  0  0  0  0  0  0  0  0  0  0
   45.4429    6.0990   11.2740 H   0  0  0  0  0  0  0  0  0  0  0  0
   42.8507    2.5183   10.2746 H   0  0  0  0  0  0  0  0  0  0  0  0
   45.1253    5.5278    8.9647 H   0  0  0  0  0  0  0  0  0  0  0  0
   44.6426    1.5014   10.1992 H   0  0  0  0  0  0  0  0  0  0  0  0
   42.5459    6.4334   12.7343 H   0  0  0  0  0  0  0  0  0  0  0  0
   42.0607    4.6579   12.5211 H   0  0  0  0  0  0  0  0  0  0  0  0
   43.6645    5.0666   13.2084 H   0  0  0  0  0  0  0  0  0  0  0  0
   45.8446    0.8011    8.1814 H   0  0  0  0  0  0  0  0  0  0  0  0
   46.3068    4.8486    6.9827 H   0  0  0  0  0  0  0  0  0  0  0  0
   46.6856    2.4415    6.5608 H   0  0  0  0  0  0  0  0  0  0  0  0
  3  2  1  0
  4  2  1  0
  5  4  1  0
  6  2  1  0
  7  3  2  0
  8  3  1  0
  9  4  1  0
 10  8  2  0
 11  7  1  0
 12 11  2  0
 12 10  1  0
  1 13  1  0
  2 14  1  1
  4 15  1  6
  5 16  1  0
  5 17  1  0
  6 18  1  0
  7 19  1  0
  8 20  1  0
  9 21  1  0
  9 22  1  0
  9 23  1  0
 10 24  1  0
 11 25  1  0
 12 26  1  0
M  END
> <Uni-Dock RESULT> 
ENERGY=   -4.881  LOWER_BOUND=    2.133  UPPER_BOUND=    2.981
INTER + INTRA:          -4.881
INTER:                  -4.881
INTRA:                   0.000
UNBOUND:                 0.000

$$$$

     RDKit          3D

 26 25  0  0  0  0  0  0  0  0999 V2000
   44.4630    4.7923   10.3525 Cl  0  0  0  0  0  0  0  0  0  0  0  0
   45.5798    4.3910    9.3309 C   0  0  1  0  0  0  0  0  0  0  0  0
   44.7673    4.7894   10.4798 C   0  0  0  0  0  0  0  0  0  0  0  0
   44.9484    3.5271    8.3125 C   0  0  2  0  0  0  0  0  0  0  0  0
   44.4656    2.2560    8.7466 N   0  0  0  0  0  0  0  0  0  0  0  0
   45.9761    5.5719    8.6544 O   0  0  0  0  0  0  0  0  0  0  0  0
   43.5862    4.2441   10.8704 C   0  0  0  0  0  0  0  0  0  0  0  0
   45.2573    5.8444   11.2628 C   0  0  0  0  0  0  0  0  0  0  0  0
   46.0461    3.2360    7.2783 C   0  0  0  0  0  0  0  0  0  0  0  0
   44.5534    6.2789   12.3614 C   0  0  0  0  0  0  0  0  0  0  0  0
   42.8656    4.6781   11.9829 C   0  0  0  0  0  0  0  0  0  0  0  0
   43.3546    5.7157   12.7469 C   0  0  0  0  0  0  0  0  0  0  0  0
   45.0537    4.0933    9.3218 H   0  0  0  0  0  0  0  0  0  0  0  0
   46.5062    3.8979    9.7241 H   0  0  0  0  0  0  0  0  0  0  0  0
   44.1245    4.0908    7.8348 H   0  0  0  0  0  0  0  0  0  0  0  0
   44.5281    1.5264    7.9827 H   0  0  0  0  0  0  0  0  0  0  0  0
   44.9057    1.9333    9.6357 H   0  0  0  0  0  0  0  0  0  0  0  0
   45.5672    6.3793    9.0573 H   0  0  0  0  0  0  0  0  0  0  0  0
   43.1688    3.4442   10.3141 H   0  0  0  0  0  0  0  0  0  0  0  0
   46.1882    6.3338   11.0227 H   0  0  0  0  0  0  0  0  0  0  0  0
   45.7066    2.5010    6.5255 H   0  0  0  0  0  0  0  0  0  0  0  0
   46.3581    4.2061    6.8436 H   0  0  0  0  0  0  0  0  0  0  0  0
   46.9076    2.8383    7.8626 H   0  0  0  0  0  0  0  0  0  0  0  0
   44.9191    7.0936   12.9770 H   0  0  0  0  0  0  0  0  0  0  0  0
   41.9180    4.1833   12.2310 H   0  0  0  0  0  0  0  0  0  0  0  0
   42.7908    6.0448   13.6054 H   0  0  0  0  0  0  0  0  0  0  0  0
  3  2  1  0
  4  2  1  0
  5  4  1  0
  6  2  1  0
  7  3  2  0
  8  3  1  0
  9  4  1  0
 10  8  2  0
 11  7  1  0
 12 11  2  0
 12 10  1  0
  1 13  1  0
  2 14  1  1
  4 15  1  6
  5 16  1  0
  5 17  1  0
  6 18  1  0
  7 19  1  0
  8 20  1  0
  9 21  1  0
  9 22  1  0
  9 23  1  0
 10 24  1  0
 11 25  1  0
 12 26  1  0
M  END
> <Uni-Dock RESULT> 
ENERGY=   -3.989  LOWER_BOUND=    1.715  UPPER_BOUND=    4.841
INTER + INTRA:          -3.989
INTER:                  -3.989
INTRA:                   0.000
UNBOUND:                 0.000

$$$$

     RDKit          3D

 26 25  0  0  0  0  0  0  0  0999 V2000
   50.9096    2.8089   17.4632 Cl  0  0  0  0  0  0  0  0  0  0  0  0
   49.3610    2.6150   17.3358 C   0  0  1  0  0  0  0  0  0  0  0  0
   50.7945    2.5400   17.6157 C   0  0  0  0  0  0  0  0  0  0  0  0
   48.7673    3.9561   17.1590 C   0  0  2  0  0  0  0  0  0  0  0  0
   48.8687    4.8624   18.2569 N   0  0  0  0  0  0  0  0  0  0  0  0
   49.1219    1.9160   16.1262 O   0  0  0  0  0  0  0  0  0  0  0  0
   51.6030    3.5599   18.0042 C   0  0  0  0  0  0  0  0  0  0  0  0
   51.4003    1.2838   17.4693 C   0  0  0  0  0  0  0  0  0  0  0  0
   47.2658    3.7184   16.9392 C   0  0  0  0  0  0  0  0  0  0  0  0
   52.7445    1.1284   17.7143 C   0  0  0  0  0  0  0  0  0  0  0  0
   52.9669    3.4116   18.2549 C   0  0  0  0  0  0  0  0  0  0  0  0
   53.5542    2.1734   18.1084 C   0  0  0  0  0  0  0  0  0  0  0  0
   49.5800    3.1707   17.4293 H   0  0  0  0  0  0  0  0  0  0  0  0
   48.8254    2.0690   18.1550 H   0  0  0  0  0  0  0  0  0  0  0  0
   49.2086    4.4198   16.2561 H   0  0  0  0  0  0  0  0  0  0  0  0
   48.0441    5.5240   18.3021 H   0  0  0  0  0  0  0  0  0  0  0  0
   49.0393    4.3836   19.1680 H   0  0  0  0  0  0  0  0  0  0  0  0
   49.9653    1.6011   15.7125 H   0  0  0  0  0  0  0  0  0  0  0  0
   51.1979    4.5313   18.1294 H   0  0  0  0  0  0  0  0  0  0  0  0
   50.8306    0.4201   17.1641 H   0  0  0  0  0  0  0  0  0  0  0  0
   46.7070    4.6717   16.9065 H   0  0  0  0  0  0  0  0  0  0  0  0
   47.1574    3.1076   16.0212 H   0  0  0  0  0  0  0  0  0  0  0  0
   46.9346    3.0922   17.7994 H   0  0  0  0  0  0  0  0  0  0  0  0
   53.2277    0.1635   17.6055 H   0  0  0  0  0  0  0  0  0  0  0  0
   53.5507    4.2875   18.5656 H   0  0  0  0  0  0  0  0  0  0  0  0
   54.6095    2.0679   18.3044 H   0  0  0  0  0  0  0  0  0  0  0  0
  3  2  1  0
  4  2  1  0
  5  4  1  0
  6  2  1  0
  7  3  2  0
  8  3  1  0
  9  4  1  0
 10  8  2  0
 11  7  1  0
 12 11  2  0
 12 10  1  0
  1 13  1  0
  2 14  1  1
  4 15  1  6
  5 16  1  0
  5 17  1  0
  6 18  1  0
  7 19  1  0
  8 20  1  0
  9 21  1  0
  9 22  1  0
  9 23  1  0
 10 24  1  0
 11 25  1  0
 12 26  1  0
M  END
> <Uni-Dock RESULT> 
ENERGY=   -3.698  LOWER_BOUND=   10.041  UPPER_BOUND=   10.797
INTER + INTRA:          -3.698
INTER:                  -3.698
INTRA:                   0.000
UNBOUND:                 0.000

$$$$

     RDKit          3D

 26 25  0  0  0  0  0  0  0  0999 V2000
   44.8427    6.1963   12.3990 Cl  0  0  0  0  0  0  0  0  0  0  0  0
   44.0465    5.0568   11.6779 C   0  0  1  0  0  0  0  0  0  0  0  0
   44.7986    6.2464   12.0760 C   0  0  0  0  0  0  0  0  0  0  0  0
   44.2773    3.8137   12.4417 C   0  0  2  0  0  0  0  0  0  0  0  0
   45.6064    3.2935   12.4518 N   0  0  0  0  0  0  0  0  0  0  0  0
   42.6675    5.3538   11.8163 O   0  0  0  0  0  0  0  0  0  0  0  0
   45.8869    6.2882   12.8874 C   0  0  0  0  0  0  0  0  0  0  0  0
   44.3516    7.4742   11.5668 C   0  0  0  0  0  0  0  0  0  0  0  0
   43.4058    2.7447   11.7658 C   0  0  0  0  0  0  0  0  0  0  0  0
   45.0045    8.6399   11.8926 C   0  0  0  0  0  0  0  0  0  0  0  0
   46.5552    7.4654   13.2231 C   0  0  0  0  0  0  0  0  0  0  0  0
   46.1091    8.6678   12.7183 C   0  0  0  0  0  0  0  0  0  0  0  0
   44.4580    4.9080   12.0950 H   0  0  0  0  0  0  0  0  0  0  0  0
   44.2473    4.8757   10.5903 H   0  0  0  0  0  0  0  0  0  0  0  0
   43.9354    3.9717   13.4825 H   0  0  0  0  0  0  0  0  0  0  0  0
   45.6182    2.2377   12.5219 H   0  0  0  0  0  0  0  0  0  0  0  0
   46.1877    3.6416   11.6584 H   0  0  0  0  0  0  0  0  0  0  0  0
   42.5240    6.2519   12.2090 H   0  0  0  0  0  0  0  0  0  0  0  0
   46.2670    5.3894   13.3012 H   0  0  0  0  0  0  0  0  0  0  0  0
   43.4940    7.5306   10.9149 H   0  0  0  0  0  0  0  0  0  0  0  0
   43.5908    1.7428   12.1950 H   0  0  0  0  0  0  0  0  0  0  0  0
   42.3516    3.0757   11.8474 H   0  0  0  0  0  0  0  0  0  0  0  0
   43.6832    2.7730   10.6869 H   0  0  0  0  0  0  0  0  0  0  0  0
   44.6711    9.5972   11.5070 H   0  0  0  0  0  0  0  0  0  0  0  0
   47.4282    7.4130   13.8861 H   0  0  0  0  0  0  0  0  0  0  0  0
   46.6320    9.5732   12.9831 H   0  0  0  0  0  0  0  0  0  0  0  0
  3  2  1  0
  4  2  1  0
  5  4  1  0
  6  2  1  0
  7  3  2  0
  8  3  1  0
  9  4  1  0
 10  8  2  0
 11  7  1  0
 12 11  2  0
 12 10  1  0
  1 13  1  0
  2 14  1  1
  4 15  1  6
  5 16  1  0
  5 17  1  0
  6 18  1  0
  7 19  1  0
  8 20  1  0
  9 21  1  0
  9 22  1  0
  9 23  1  0
 10 24  1  0
 11 25  1  0
 12 26  1  0
M  END
> <Uni-Dock RESULT> 
ENERGY=   -3.440  LOWER_BOUND=    4.854  UPPER_BOUND=    6.032
INTER + INTRA:          -3.440
INTER:                  -3.440
INTRA:                   0.000
UNBOUND:                 0.000

$$$$

     RDKit          3D

 26 25  0  0  0  0  0  0  0  0999 V2000
   44.8046    5.9209   12.4882 Cl  0  0  0  0  0  0  0  0  0  0  0  0
   46.0148    6.9142   12.5146 C   0  0  1  0  0  0  0  0  0  0  0  0
   45.0718    5.8119   12.3284 C   0  0  0  0  0  0  0  0  0  0  0  0
   45.4580    8.2754   12.6534 C   0  0  2  0  0  0  0  0  0  0  0  0
   44.6814    8.7747   11.5649 N   0  0  0  0  0  0  0  0  0  0  0  0
   46.7407    6.6624   13.7057 O   0  0  0  0  0  0  0  0  0  0  0  0
   43.7591    5.9108   11.9939 C   0  0  0  0  0  0  0  0  0  0  0  0
   45.5733    4.5155   12.5130 C   0  0  0  0  0  0  0  0  0  0  0  0
   46.6718    9.2088   12.7749 C   0  0  0  0  0  0  0  0  0  0  0  0
   44.7514    3.4242   12.3558 C   0  0  0  0  0  0  0  0  0  0  0  0
   42.9183    4.8098   11.8324 C   0  0  0  0  0  0  0  0  0  0  0  0
   43.4194    3.5392   12.0158 C   0  0  0  0  0  0  0  0  0  0  0  0
   45.4571    7.1339   12.4358 H   0  0  0  0  0  0  0  0  0  0  0  0
   46.7417    6.8876   11.6619 H   0  0  0  0  0  0  0  0  0  0  0  0
   44.8593    8.3174   13.5833 H   0  0  0  0  0  0  0  0  0  0  0  0
   44.7660    9.8249   11.4667 H   0  0  0  0  0  0  0  0  0  0  0  0
   44.8703    8.2791   10.6666 H   0  0  0  0  0  0  0  0  0  0  0  0
   46.4084    5.8545   14.1730 H   0  0  0  0  0  0  0  0  0  0  0  0
   43.3272    6.8670   11.8433 H   0  0  0  0  0  0  0  0  0  0  0  0
   46.6048    4.3474   12.7800 H   0  0  0  0  0  0  0  0  0  0  0  0
   46.3658   10.2711   12.7719 H   0  0  0  0  0  0  0  0  0  0  0  0
   47.2309    8.9095   13.6834 H   0  0  0  0  0  0  0  0  0  0  0  0
   47.3147    8.9772   11.8946 H   0  0  0  0  0  0  0  0  0  0  0  0
   45.1242    2.4152   12.4951 H   0  0  0  0  0  0  0  0  0  0  0  0
   41.8679    4.9759   11.5608 H   0  0  0  0  0  0  0  0  0  0  0  0
   42.7621    2.6936   11.8888 H   0  0  0  0  0  0  0  0  0  0  0  0
  3  2  1  0
  4  2  1  0
  5  4  1  0
  6  2  1  0
  7  3  2  0
  8  3  1  0
  9  4  1  0
 10  8  2  0
 11  7  1  0
 12 11  2  0
 12 10  1  0
  1 13  1  0
  2 14  1  1
  4 15  1  6
  5 16  1  0
  5 17  1  0
  6 18  1  0
  7 19  1  0
  8 20  1  0
  9 21  1  0
  9 22  1  0
  9 23  1  0
 10 24  1  0
 11 25  1  0
 12 26  1  0
M  END
> <Uni-Dock RESULT> 
ENERGY=   -3.370  LOWER_BOUND=    5.251  UPPER_BOUND=    6.036
INTER + INTRA:          -3.370
INTER:                  -3.370
INTRA:                   0.000
UNBOUND:                 0.000

$$$$

     RDKit          3D

 26 25  0  0  0  0  0  0  0  0999 V2000
   45.0183    5.6579   12.2472 Cl  0  0  0  0  0  0  0  0  0  0  0  0
   45.1703    7.1754   12.6023 C   0  0  1  0  0  0  0  0  0  0  0  0
   44.7584    5.7860   12.4048 C   0  0  0  0  0  0  0  0  0  0  0  0
   46.6157    7.4481   12.7387 C   0  0  2  0  0  0  0  0  0  0  0  0
   47.2979    6.8152   13.8209 N   0  0  0  0  0  0  0  0  0  0  0  0
   44.7342    7.9174   11.4761 O   0  0  0  0  0  0  0  0  0  0  0  0
   45.5159    4.6761   12.6022 C   0  0  0  0  0  0  0  0  0  0  0  0
   43.4432    5.5748   11.9665 C   0  0  0  0  0  0  0  0  0  0  0  0
   46.7301    8.9595   12.9878 C   0  0  0  0  0  0  0  0  0  0  0  0
   42.9777    4.2978   11.7575 C   0  0  0  0  0  0  0  0  0  0  0  0
   45.0522    3.3775   12.3928 C   0  0  0  0  0  0  0  0  0  0  0  0
   43.7582    3.1790   11.9620 C   0  0  0  0  0  0  0  0  0  0  0  0
   45.6472    6.8098   12.6686 H   0  0  0  0  0  0  0  0  0  0  0  0
   44.6247    7.5676   13.4993 H   0  0  0  0  0  0  0  0  0  0  0  0
   47.1143    7.1874   11.7857 H   0  0  0  0  0  0  0  0  0  0  0  0
   48.0998    7.4036   14.1822 H   0  0  0  0  0  0  0  0  0  0  0  0
   46.6573    6.5109   14.5861 H   0  0  0  0  0  0  0  0  0  0  0  0
   44.3212    7.3334   10.7906 H   0  0  0  0  0  0  0  0  0  0  0  0
   46.5180    4.7773   12.9323 H   0  0  0  0  0  0  0  0  0  0  0  0
   42.7744    6.4015   11.7853 H   0  0  0  0  0  0  0  0  0  0  0  0
   47.7712    9.2531   13.2161 H   0  0  0  0  0  0  0  0  0  0  0  0
   46.3065    9.4746   12.1032 H   0  0  0  0  0  0  0  0  0  0  0  0
   46.0585    9.1704   13.8517 H   0  0  0  0  0  0  0  0  0  0  0  0
   41.9632    4.1180   11.4187 H   0  0  0  0  0  0  0  0  0  0  0  0
   45.7291    2.5332   12.5758 H   0  0  0  0  0  0  0  0  0  0  0  0
   43.4081    2.1714   11.8027 H   0  0  0  0  0  0  0  0  0  0  0  0
  3  2  1  0
  4  2  1  0
  5  4  1  0
  6  2  1  0
  7  3  2  0
  8  3  1  0
  9  4  1  0
 10  8  2  0
 11  7  1  0
 12 11  2  0
 12 10  1  0
  1 13  1  0
  2 14  1  1
  4 15  1  6
  5 16  1  0
  5 17  1  0
  6 18  1  0
  7 19  1  0
  8 20  1  0
  9 21  1  0
  9 22  1  0
  9 23  1  0
 10 24  1  0
 11 25  1  0
 12 26  1  0
M  END
> <Uni-Dock RESULT> 
ENERGY=   -3.310  LOWER_BOUND=    5.081  UPPER_BOUND=    5.799
INTER + INTRA:          -3.310
INTER:                  -3.310
INTRA:                   0.000
UNBOUND:                 0.000

$$$$
