
     RDKit          3D

 26 25  0  0  0  0  0  0  0  0999 V2000
   46.0299    2.9278    7.8500 Cl  0  0  0  0  0  0  0  0  0  0  0  0
   45.0656    3.9062    8.5930 C   0  0  1  0  0  0  0  0  0  0  0  0
   45.9758    3.1190    7.7656 C   0  0  0  0  0  0  0  0  0  0  0  0
   44.7013    3.2580    9.8782 C   0  0  2  0  0  0  0  0  0  0  0  0
   44.0274    2.0147    9.6227 N   0  0  0  0  0  0  0  0  0  0  0  0
   45.6995    5.1562    8.8325 O   0  0  0  0  0  0  0  0  0  0  0  0
   46.4858    3.7324    6.6144 C   0  0  0  0  0  0  0  0  0  0  0  0
   46.3989    1.8380    7.9982 C   0  0  0  0  0  0  0  0  0  0  0  0
   43.8525    4.1656   10.7647 C   0  0  0  0  0  0  0  0  0  0  0  0
   47.2828    1.1648    7.1545 C   0  0  0  0  0  0  0  0  0  0  0  0
   47.3612    3.0781    5.7708 C   0  0  0  0  0  0  0  0  0  0  0  0
   47.7736    1.7865    6.0258 C   0  0  0  0  0  0  0  0  0  0  0  0
   45.1259    3.2357    8.8285 H   0  0  0  0  0  0  0  0  0  0  0  0
   44.1278    4.1682    8.0378 H   0  0  0  0  0  0  0  0  0  0  0  0
   45.6371    3.1027   10.4947 H   0  0  0  0  0  0  0  0  0  0  0  0
   43.7710    1.9229    8.5939 H   0  0  0  0  0  0  0  0  0  0  0  0
   43.1040    1.9289   10.1127 H   0  0  0  0  0  0  0  0  0  0  0  0
   45.5553    5.6827    8.0106 H   0  0  0  0  0  0  0  0  0  0  0  0
   46.2180    4.7417    6.3349 H   0  0  0  0  0  0  0  0  0  0  0  0
   46.0694    1.2852    8.8590 H   0  0  0  0  0  0  0  0  0  0  0  0
   44.5029    4.9059   11.2316 H   0  0  0  0  0  0  0  0  0  0  0  0
   42.9832    4.5866   10.2326 H   0  0  0  0  0  0  0  0  0  0  0  0
   43.4660    3.4832   11.5700 H   0  0  0  0  0  0  0  0  0  0  0  0
   47.5958    0.1525    7.3692 H   0  0  0  0  0  0  0  0  0  0  0  0
   47.7597    3.5473    4.8784 H   0  0  0  0  0  0  0  0  0  0  0  0
   48.4553    1.2356    5.3962 H   0  0  0  0  0  0  0  0  0  0  0  0
  3  2  1  0
  4  2  1  0
  5  4  1  0
  6  2  1  0
  7  3  2  0
  8  3  1  0
  9  4  1  0
 10  8  2  0
 11  7  1  0
 12 11  2  0
 12 10  1  0
  1 13  1  0
  2 14  1  6
  4 15  1  1
  5 16  1  0
  5 17  1  0
  6 18  1  0
  7 19  1  0
  8 20  1  0
  9 21  1  0
  9 22  1  0
  9 23  1  0
 10 24  1  0
 11 25  1  0
 12 26  1  0
M  END
> <Uni-Dock RESULT> 
ENERGY=   -6.067  LOWER_BOUND=    0.000  UPPER_BOUND=    0.000
INTER + INTRA:          -6.067
INTER:                  -6.067
INTRA:                   0.000
UNBOUND:                 0.000

$$$$

     RDKit          3D

 26 25  0  0  0  0  0  0  0  0999 V2000
   46.0213    2.9440    7.8615 Cl  0  0  0  0  0  0  0  0  0  0  0  0
   45.0827    3.9612    8.5851 C   0  0  1  0  0  0  0  0  0  0  0  0
   45.9731    3.1353    7.7739 C   0  0  0  0  0  0  0  0  0  0  0  0
   44.6947    3.3436    9.8784 C   0  0  2  0  0  0  0  0  0  0  0  0
   43.9861    2.1164    9.6389 N   0  0  0  0  0  0  0  0  0  0  0  0
   45.7516    5.1958    8.8084 O   0  0  0  0  0  0  0  0  0  0  0  0
   46.5054    3.7160    6.6158 C   0  0  0  0  0  0  0  0  0  0  0  0
   46.3581    1.8464    8.0279 C   0  0  0  0  0  0  0  0  0  0  0  0
   43.8689    4.2888   10.7471 C   0  0  0  0  0  0  0  0  0  0  0  0
   47.2256    1.1351    7.1986 C   0  0  0  0  0  0  0  0  0  0  0  0
   47.3649    3.0238    5.7862 C   0  0  0  0  0  0  0  0  0  0  0  0
   47.7386    1.7249    6.0627 C   0  0  0  0  0  0  0  0  0  0  0  0
   45.1227    3.2929    8.8310 H   0  0  0  0  0  0  0  0  0  0  0  0
   44.1552    4.2415    8.0217 H   0  0  0  0  0  0  0  0  0  0  0  0
   45.6231    3.1708   10.5013 H   0  0  0  0  0  0  0  0  0  0  0  0
   43.7313    2.0163    8.6104 H   0  0  0  0  0  0  0  0  0  0  0  0
   43.0587    2.0649   10.1259 H   0  0  0  0  0  0  0  0  0  0  0  0
   45.6260    5.7136    7.9779 H   0  0  0  0  0  0  0  0  0  0  0  0
   46.2680    4.7282    6.3197 H   0  0  0  0  0  0  0  0  0  0  0  0
   46.0092    1.3166    8.8955 H   0  0  0  0  0  0  0  0  0  0  0  0
   44.5386    5.0171   11.2056 H   0  0  0  0  0  0  0  0  0  0  0  0
   43.0143    4.7264   10.2048 H   0  0  0  0  0  0  0  0  0  0  0  0
   43.4595    3.6302   11.5610 H   0  0  0  0  0  0  0  0  0  0  0  0
   47.5082    0.1176    7.4300 H   0  0  0  0  0  0  0  0  0  0  0  0
   47.7803    3.4675    4.8885 H   0  0  0  0  0  0  0  0  0  0  0  0
   48.4067    1.1449    5.4446 H   0  0  0  0  0  0  0  0  0  0  0  0
  3  2  1  0
  4  2  1  0
  5  4  1  0
  6  2  1  0
  7  3  2  0
  8  3  1  0
  9  4  1  0
 10  8  2  0
 11  7  1  0
 12 11  2  0
 12 10  1  0
  1 13  1  0
  2 14  1  6
  4 15  1  1
  5 16  1  0
  5 17  1  0
  6 18  1  0
  7 19  1  0
  8 20  1  0
  9 21  1  0
  9 22  1  0
  9 23  1  0
 10 24  1  0
 11 25  1  0
 12 26  1  0
M  END
> <Uni-Dock RESULT> 
ENERGY=   -6.055  LOWER_BOUND=    0.073  UPPER_BOUND=    0.073
INTER + INTRA:          -6.055
INTER:                  -6.055
INTRA:                   0.000
UNBOUND:                 0.000

$$$$

     RDKit          3D

 26 25  0  0  0  0  0  0  0  0999 V2000
   46.0016    2.8894    8.0202 Cl  0  0  0  0  0  0  0  0  0  0  0  0
   45.1708    2.8831    9.3426 C   0  0  1  0  0  0  0  0  0  0  0  0
   45.9931    2.7153    8.1474 C   0  0  0  0  0  0  0  0  0  0  0  0
   44.5208    4.2139    9.4486 C   0  0  2  0  0  0  0  0  0  0  0  0
   45.5231    5.2419    9.5111 N   0  0  0  0  0  0  0  0  0  0  0  0
   44.1894    1.8547    9.3183 O   0  0  0  0  0  0  0  0  0  0  0  0
   46.5092    1.4368    7.9009 C   0  0  0  0  0  0  0  0  0  0  0  0
   46.3101    3.6763    7.2256 C   0  0  0  0  0  0  0  0  0  0  0  0
   43.5740    4.3028   10.6426 C   0  0  0  0  0  0  0  0  0  0  0  0
   47.0974    3.4215    6.1024 C   0  0  0  0  0  0  0  0  0  0  0  0
   47.2896    1.1705    6.7935 C   0  0  0  0  0  0  0  0  0  0  0  0
   47.5962    2.1558    5.8778 C   0  0  0  0  0  0  0  0  0  0  0  0
   45.2863    3.5036    9.0104 H   0  0  0  0  0  0  0  0  0  0  0  0
   45.7588    2.6889   10.2769 H   0  0  0  0  0  0  0  0  0  0  0  0
   43.8304    4.3620    8.5646 H   0  0  0  0  0  0  0  0  0  0  0  0
   46.4908    4.8241    9.6583 H   0  0  0  0  0  0  0  0  0  0  0  0
   45.4103    5.8894   10.3284 H   0  0  0  0  0  0  0  0  0  0  0  0
   44.6531    1.0449    9.6388 H   0  0  0  0  0  0  0  0  0  0  0  0
   46.3214    0.6039    8.5639 H   0  0  0  0  0  0  0  0  0  0  0  0
   45.9560    4.6865    7.3227 H   0  0  0  0  0  0  0  0  0  0  0  0
   42.6483    3.7827   10.3944 H   0  0  0  0  0  0  0  0  0  0  0  0
   44.0466    3.9777   11.5844 H   0  0  0  0  0  0  0  0  0  0  0  0
   43.3447    5.3995   10.7331 H   0  0  0  0  0  0  0  0  0  0  0  0
   47.3283    4.2053    5.3946 H   0  0  0  0  0  0  0  0  0  0  0  0
   47.6920    0.1832    6.5969 H   0  0  0  0  0  0  0  0  0  0  0  0
   48.2014    1.9950    4.9988 H   0  0  0  0  0  0  0  0  0  0  0  0
  3  2  1  0
  4  2  1  0
  5  4  1  0
  6  2  1  0
  7  3  2  0
  8  3  1  0
  9  4  1  0
 10  8  2  0
 11  7  1  0
 12 11  2  0
 12 10  1  0
  1 13  1  0
  2 14  1  6
  4 15  1  1
  5 16  1  0
  5 17  1  0
  6 18  1  0
  7 19  1  0
  8 20  1  0
  9 21  1  0
  9 22  1  0
  9 23  1  0
 10 24  1  0
 11 25  1  0
 12 26  1  0
M  END
> <Uni-Dock RESULT> 
ENERGY=   -5.847  LOWER_BOUND=    1.568  UPPER_BOUND=    2.068
INTER + INTRA:          -5.847
INTER:                  -5.847
INTRA:                   0.000
UNBOUND:                 0.000

$$$$

     RDKit          3D

 26 25  0  0  0  0  0  0  0  0999 V2000
   44.8717    3.6922    9.5229 Cl  0  0  0  0  0  0  0  0  0  0  0  0
   44.1033    3.8484   10.8736 C   0  0  1  0  0  0  0  0  0  0  0  0
   44.8424    3.5250    9.6562 C   0  0  0  0  0  0  0  0  0  0  0  0
   43.6636    5.2642   10.9571 C   0  0  2  0  0  0  0  0  0  0  0  0
   44.8096    6.1314   10.9486 N   0  0  0  0  0  0  0  0  0  0  0  0
   42.9794    2.9787   10.9194 O   0  0  0  0  0  0  0  0  0  0  0  0
   45.1519    2.1770    9.4352 C   0  0  0  0  0  0  0  0  0  0  0  0
   45.2616    4.4009    8.6913 C   0  0  0  0  0  0  0  0  0  0  0  0
   42.7897    5.5282   12.1804 C   0  0  0  0  0  0  0  0  0  0  0  0
   45.9561    3.9989    7.5501 C   0  0  0  0  0  0  0  0  0  0  0  0
   45.8385    1.7651    8.3104 C   0  0  0  0  0  0  0  0  0  0  0  0
   46.2512    2.6667    7.3512 C   0  0  0  0  0  0  0  0  0  0  0  0
   44.2965    4.4347   10.5163 H   0  0  0  0  0  0  0  0  0  0  0  0
   44.6931    3.5947   11.7923 H   0  0  0  0  0  0  0  0  0  0  0  0
   42.9679    5.4890   10.0938 H   0  0  0  0  0  0  0  0  0  0  0  0
   45.7094    5.5773   11.0753 H   0  0  0  0  0  0  0  0  0  0  0  0
   44.8276    6.8115   11.7468 H   0  0  0  0  0  0  0  0  0  0  0  0
   43.3299    2.1180   11.2507 H   0  0  0  0  0  0  0  0  0  0  0  0
   44.8690    1.4010   10.1326 H   0  0  0  0  0  0  0  0  0  0  0  0
   45.0661    5.4551    8.7664 H   0  0  0  0  0  0  0  0  0  0  0  0
   41.7876    5.1461   11.9833 H   0  0  0  0  0  0  0  0  0  0  0  0
   43.2462    5.1627   13.1153 H   0  0  0  0  0  0  0  0  0  0  0  0
   42.7302    6.6491   12.2415 H   0  0  0  0  0  0  0  0  0  0  0  0
   46.2723    4.7186    6.8081 H   0  0  0  0  0  0  0  0  0  0  0  0
   46.0810    0.7234    8.1335 H   0  0  0  0  0  0  0  0  0  0  0  0
   46.7897    2.3919    6.4572 H   0  0  0  0  0  0  0  0  0  0  0  0
  3  2  1  0
  4  2  1  0
  5  4  1  0
  6  2  1  0
  7  3  2  0
  8  3  1  0
  9  4  1  0
 10  8  2  0
 11  7  1  0
 12 11  2  0
 12 10  1  0
  1 13  1  0
  2 14  1  6
  4 15  1  1
  5 16  1  0
  5 17  1  0
  6 18  1  0
  7 19  1  0
  8 20  1  0
  9 21  1  0
  9 22  1  0
  9 23  1  0
 10 24  1  0
 11 25  1  0
 12 26  1  0
M  END
> <Uni-Dock RESULT> 
ENERGY=   -4.639  LOWER_BOUND=    2.148  UPPER_BOUND=    3.010
INTER + INTRA:          -4.639
INTER:                  -4.639
INTRA:                   0.000
UNBOUND:                 0.000

$$$$

     RDKit          3D

 26 25  0  0  0  0  0  0  0  0999 V2000
   44.5982    4.7109   10.5100 Cl  0  0  0  0  0  0  0  0  0  0  0  0
   45.6493    4.4013    9.3972 C   0  0  1  0  0  0  0  0  0  0  0  0
   44.7974    4.7938   10.5165 C   0  0  0  0  0  0  0  0  0  0  0  0
   44.9786    3.5252    8.4036 C   0  0  2  0  0  0  0  0  0  0  0  0
   44.5656    2.3014    9.0337 N   0  0  0  0  0  0  0  0  0  0  0  0
   46.0964    5.5999    8.7766 O   0  0  0  0  0  0  0  0  0  0  0  0
   45.3110    5.7436   11.4086 C   0  0  0  0  0  0  0  0  0  0  0  0
   43.5347    4.3397   10.7878 C   0  0  0  0  0  0  0  0  0  0  0  0
   45.8615    3.2426    7.1910 C   0  0  0  0  0  0  0  0  0  0  0  0
   42.7869    4.7810   11.8798 C   0  0  0  0  0  0  0  0  0  0  0  0
   44.5820    6.1892   12.4931 C   0  0  0  0  0  0  0  0  0  0  0  0
   43.3109    5.7167   12.7466 C   0  0  0  0  0  0  0  0  0  0  0  0
   45.0486    4.0176    9.4212 H   0  0  0  0  0  0  0  0  0  0  0  0
   46.5878    3.9005    9.7506 H   0  0  0  0  0  0  0  0  0  0  0  0
   44.0989    4.0773    7.9550 H   0  0  0  0  0  0  0  0  0  0  0  0
   44.9899    2.2094   10.0054 H   0  0  0  0  0  0  0  0  0  0  0  0
   44.9012    1.4399    8.5386 H   0  0  0  0  0  0  0  0  0  0  0  0
   46.8347    5.9267    9.3437 H   0  0  0  0  0  0  0  0  0  0  0  0
   46.2976    6.1689   11.2894 H   0  0  0  0  0  0  0  0  0  0  0  0
   43.0510    3.6153   10.1582 H   0  0  0  0  0  0  0  0  0  0  0  0
   45.8541    4.1183    6.5413 H   0  0  0  0  0  0  0  0  0  0  0  0
   46.8665    2.8858    7.4713 H   0  0  0  0  0  0  0  0  0  0  0  0
   45.3361    2.4058    6.6549 H   0  0  0  0  0  0  0  0  0  0  0  0
   41.7920    4.4002   12.0639 H   0  0  0  0  0  0  0  0  0  0  0  0
   44.9737    6.9241   13.1872 H   0  0  0  0  0  0  0  0  0  0  0  0
   42.7042    6.0350   13.5804 H   0  0  0  0  0  0  0  0  0  0  0  0
  3  2  1  0
  4  2  1  0
  5  4  1  0
  6  2  1  0
  7  3  2  0
  8  3  1  0
  9  4  1  0
 10  8  2  0
 11  7  1  0
 12 11  2  0
 12 10  1  0
  1 13  1  0
  2 14  1  6
  4 15  1  1
  5 16  1  0
  5 17  1  0
  6 18  1  0
  7 19  1  0
  8 20  1  0
  9 21  1  0
  9 22  1  0
  9 23  1  0
 10 24  1  0
 11 25  1  0
 12 26  1  0
M  END
> <Uni-Dock RESULT> 
ENERGY=   -3.769  LOWER_BOUND=    1.795  UPPER_BOUND=    4.964
INTER + INTRA:          -3.769
INTER:                  -3.769
INTRA:                   0.000
UNBOUND:                 0.000

$$$$

     RDKit          3D

 26 25  0  0  0  0  0  0  0  0999 V2000
   50.9054    2.7302   17.6658 Cl  0  0  0  0  0  0  0  0  0  0  0  0
   49.7014    3.7208   17.5747 C   0  0  1  0  0  0  0  0  0  0  0  0
   50.9305    2.9419   17.6997 C   0  0  0  0  0  0  0  0  0  0  0  0
   48.4980    2.9079   17.2652 C   0  0  2  0  0  0  0  0  0  0  0  0
   48.6724    2.2401   16.0047 N   0  0  0  0  0  0  0  0  0  0  0  0
   49.5252    4.4166   18.8020 O   0  0  0  0  0  0  0  0  0  0  0  0
   52.0736    3.6183   18.1439 C   0  0  0  0  0  0  0  0  0  0  0  0
   51.0887    1.6074   17.4384 C   0  0  0  0  0  0  0  0  0  0  0  0
   47.2194    3.7415   17.2678 C   0  0  0  0  0  0  0  0  0  0  0  0
   52.3041    0.9411   17.5970 C   0  0  0  0  0  0  0  0  0  0  0  0
   53.2826    2.9714   18.3055 C   0  0  0  0  0  0  0  0  0  0  0  0
   53.4181    1.6252   18.0354 C   0  0  0  0  0  0  0  0  0  0  0  0
   49.6190    3.0541   17.3351 H   0  0  0  0  0  0  0  0  0  0  0  0
   49.8034    4.5292   16.8050 H   0  0  0  0  0  0  0  0  0  0  0  0
   48.3223    2.1694   18.1041 H   0  0  0  0  0  0  0  0  0  0  0  0
   49.5239    2.6149   15.4879 H   0  0  0  0  0  0  0  0  0  0  0  0
   47.8861    2.4040   15.3302 H   0  0  0  0  0  0  0  0  0  0  0  0
   50.1316    5.1931   18.7502 H   0  0  0  0  0  0  0  0  0  0  0  0
   52.0617    4.6733   18.3790 H   0  0  0  0  0  0  0  0  0  0  0  0
   50.2691    1.0004   17.0996 H   0  0  0  0  0  0  0  0  0  0  0  0
   46.9251    3.9273   18.3012 H   0  0  0  0  0  0  0  0  0  0  0  0
   47.3010    4.6462   16.6425 H   0  0  0  0  0  0  0  0  0  0  0  0
   46.4492    3.0687   16.8012 H   0  0  0  0  0  0  0  0  0  0  0  0
   52.3929   -0.1144   17.3808 H   0  0  0  0  0  0  0  0  0  0  0  0
   54.1710    3.4891   18.6490 H   0  0  0  0  0  0  0  0  0  0  0  0
   54.3414    1.0777   18.1466 H   0  0  0  0  0  0  0  0  0  0  0  0
  3  2  1  0
  4  2  1  0
  5  4  1  0
  6  2  1  0
  7  3  2  0
  8  3  1  0
  9  4  1  0
 10  8  2  0
 11  7  1  0
 12 11  2  0
 12 10  1  0
  1 13  1  0
  2 14  1  6
  4 15  1  1
  5 16  1  0
  5 17  1  0
  6 18  1  0
  7 19  1  0
  8 20  1  0
  9 21  1  0
  9 22  1  0
  9 23  1  0
 10 24  1  0
 11 25  1  0
 12 26  1  0
M  END
> <Uni-Dock RESULT> 
ENERGY=   -3.669  LOWER_BOUND=   10.134  UPPER_BOUND=   10.891
INTER + INTRA:          -3.669
INTER:                  -3.669
INTRA:                   0.000
UNBOUND:                 0.000

$$$$

     RDKit          3D

 26 25  0  0  0  0  0  0  0  0999 V2000
   50.8636    2.6950   17.6230 Cl  0  0  0  0  0  0  0  0  0  0  0  0
   49.3491    2.5238   17.2819 C   0  0  1  0  0  0  0  0  0  0  0  0
   50.7772    2.5005   17.5869 C   0  0  0  0  0  0  0  0  0  0  0  0
   48.7592    3.8859   17.2480 C   0  0  2  0  0  0  0  0  0  0  0  0
   48.8982    4.5090   18.5355 N   0  0  0  0  0  0  0  0  0  0  0  0
   49.1836    1.8825   16.0237 O   0  0  0  0  0  0  0  0  0  0  0  0
   51.4334    1.2676   17.4817 C   0  0  0  0  0  0  0  0  0  0  0  0
   51.5564    3.5631   17.9578 C   0  0  0  0  0  0  0  0  0  0  0  0
   47.2989    3.8739   16.8035 C   0  0  0  0  0  0  0  0  0  0  0  0
   52.9218    3.4490   18.2204 C   0  0  0  0  0  0  0  0  0  0  0  0
   52.7840    1.1402   17.7385 C   0  0  0  0  0  0  0  0  0  0  0  0
   53.5492    2.2260   18.1114 C   0  0  0  0  0  0  0  0  0  0  0  0
   49.5801    3.1549   17.5206 H   0  0  0  0  0  0  0  0  0  0  0  0
   48.7651    1.8909   17.9993 H   0  0  0  0  0  0  0  0  0  0  0  0
   49.2670    4.4911   16.4382 H   0  0  0  0  0  0  0  0  0  0  0  0
   49.2133    3.8052   19.2690 H   0  0  0  0  0  0  0  0  0  0  0  0
   47.9963    4.8780   18.9233 H   0  0  0  0  0  0  0  0  0  0  0  0
   49.2204    0.9157   16.2177 H   0  0  0  0  0  0  0  0  0  0  0  0
   50.9144    0.3633   17.1964 H   0  0  0  0  0  0  0  0  0  0  0  0
   51.1469    4.5517   18.0592 H   0  0  0  0  0  0  0  0  0  0  0  0
   47.2639    3.7462   15.7211 H   0  0  0  0  0  0  0  0  0  0  0  0
   46.6878    3.1535   17.3722 H   0  0  0  0  0  0  0  0  0  0  0  0
   46.9274    4.9070   17.0452 H   0  0  0  0  0  0  0  0  0  0  0  0
   53.5069    4.3102   18.5116 H   0  0  0  0  0  0  0  0  0  0  0  0
   53.2978    0.1890   17.6589 H   0  0  0  0  0  0  0  0  0  0  0  0
   54.6064    2.1749   18.3220 H   0  0  0  0  0  0  0  0  0  0  0  0
  3  2  1  0
  4  2  1  0
  5  4  1  0
  6  2  1  0
  7  3  2  0
  8  3  1  0
  9  4  1  0
 10  8  2  0
 11  7  1  0
 12 11  2  0
 12 10  1  0
  1 13  1  0
  2 14  1  6
  4 15  1  1
  5 16  1  0
  5 17  1  0
  6 18  1  0
  7 19  1  0
  8 20  1  0
  9 21  1  0
  9 22  1  0
  9 23  1  0
 10 24  1  0
 11 25  1  0
 12 26  1  0
M  END
> <Uni-Dock RESULT> 
ENERGY=   -3.658  LOWER_BOUND=   10.101  UPPER_BOUND=   10.920
INTER + INTRA:          -3.658
INTER:                  -3.658
INTRA:                   0.000
UNBOUND:                 0.000

$$$$

     RDKit          3D

 26 25  0  0  0  0  0  0  0  0999 V2000
   44.8185    3.4863   10.2677 Cl  0  0  0  0  0  0  0  0  0  0  0  0
   44.9553    2.8830    8.8337 C   0  0  1  0  0  0  0  0  0  0  0  0
   44.6920    3.3249   10.2005 C   0  0  0  0  0  0  0  0  0  0  0  0
   46.0662    3.6077    8.1663 C   0  0  2  0  0  0  0  0  0  0  0  0
   45.7496    5.0066    8.0750 N   0  0  0  0  0  0  0  0  0  0  0  0
   45.2404    1.4914    8.8957 O   0  0  0  0  0  0  0  0  0  0  0  0
   43.7661    2.5832   10.9450 C   0  0  0  0  0  0  0  0  0  0  0  0
   45.2635    4.3885   10.8456 C   0  0  0  0  0  0  0  0  0  0  0  0
   46.3897    3.0316    6.7903 C   0  0  0  0  0  0  0  0  0  0  0  0
   44.9577    4.7318   12.1628 C   0  0  0  0  0  0  0  0  0  0  0  0
   43.4542    2.9115   12.2493 C   0  0  0  0  0  0  0  0  0  0  0  0
   44.0431    3.9887   12.8787 C   0  0  0  0  0  0  0  0  0  0  0  0
   45.2924    3.4930    8.9853 H   0  0  0  0  0  0  0  0  0  0  0  0
   44.0373    2.9539    8.1945 H   0  0  0  0  0  0  0  0  0  0  0  0
   47.0228    3.4366    8.7454 H   0  0  0  0  0  0  0  0  0  0  0  0
   44.7309    5.1854    8.3258 H   0  0  0  0  0  0  0  0  0  0  0  0
   45.8332    5.3937    7.1039 H   0  0  0  0  0  0  0  0  0  0  0  0
   44.3616    1.0488    8.9676 H   0  0  0  0  0  0  0  0  0  0  0  0
   43.2552    1.7237   10.5340 H   0  0  0  0  0  0  0  0  0  0  0  0
   45.9907    5.0144   10.3613 H   0  0  0  0  0  0  0  0  0  0  0  0
   46.9628    2.1132    6.9217 H   0  0  0  0  0  0  0  0  0  0  0  0
   45.4965    2.9296    6.1518 H   0  0  0  0  0  0  0  0  0  0  0  0
   47.0633    3.7990    6.3201 H   0  0  0  0  0  0  0  0  0  0  0  0
   45.4286    5.5793   12.6410 H   0  0  0  0  0  0  0  0  0  0  0  0
   42.7386    2.3416   12.8309 H   0  0  0  0  0  0  0  0  0  0  0  0
   43.8311    4.2832   13.8951 H   0  0  0  0  0  0  0  0  0  0  0  0
  3  2  1  0
  4  2  1  0
  5  4  1  0
  6  2  1  0
  7  3  2  0
  8  3  1  0
  9  4  1  0
 10  8  2  0
 11  7  1  0
 12 11  2  0
 12 10  1  0
  1 13  1  0
  2 14  1  6
  4 15  1  1
  5 16  1  0
  5 17  1  0
  6 18  1  0
  7 19  1  0
  8 20  1  0
  9 21  1  0
  9 22  1  0
  9 23  1  0
 10 24  1  0
 11 25  1  0
 12 26  1  0
M  END
> <Uni-Dock RESULT> 
ENERGY=   -3.595  LOWER_BOUND=    2.126  UPPER_BOUND=    4.851
INTER + INTRA:          -3.595
INTER:                  -3.595
INTRA:                   0.000
UNBOUND:                 0.000

$$$$

     RDKit          3D

 26 25  0  0  0  0  0  0  0  0999 V2000
   45.6741    5.7874   13.0091 Cl  0  0  0  0  0  0  0  0  0  0  0  0
   45.1945    4.3018   13.0546 C   0  0  1  0  0  0  0  0  0  0  0  0
   45.7843    5.6364   13.1169 C   0  0  0  0  0  0  0  0  0  0  0  0
   43.9582    4.2236   12.2361 C   0  0  2  0  0  0  0  0  0  0  0  0
   42.9472    5.0764   12.7982 N   0  0  0  0  0  0  0  0  0  0  0  0
   46.1900    3.4328   12.5298 O   0  0  0  0  0  0  0  0  0  0  0  0
   47.0336    5.7549   13.7389 C   0  0  0  0  0  0  0  0  0  0  0  0
   45.2511    6.7952   12.6201 C   0  0  0  0  0  0  0  0  0  0  0  0
   43.4466    2.7924   12.0946 C   0  0  0  0  0  0  0  0  0  0  0  0
   45.8939    8.0297   12.7162 C   0  0  0  0  0  0  0  0  0  0  0  0
   47.6810    6.9700   13.8409 C   0  0  0  0  0  0  0  0  0  0  0  0
   47.1236    8.1252   13.3327 C   0  0  0  0  0  0  0  0  0  0  0  0
   44.7506    4.8004   12.8035 H   0  0  0  0  0  0  0  0  0  0  0  0
   44.9804    3.8987   14.0783 H   0  0  0  0  0  0  0  0  0  0  0  0
   44.1992    4.5145   11.1697 H   0  0  0  0  0  0  0  0  0  0  0  0
   43.2321    5.4224   13.7634 H   0  0  0  0  0  0  0  0  0  0  0  0
   42.0356    4.5881   12.9735 H   0  0  0  0  0  0  0  0  0  0  0  0
   46.7879    3.2337   13.2890 H   0  0  0  0  0  0  0  0  0  0  0  0
   47.5455    4.9040   14.1661 H   0  0  0  0  0  0  0  0  0  0  0  0
   44.3001    6.8066   12.1193 H   0  0  0  0  0  0  0  0  0  0  0  0
   44.0610    2.2726   11.3588 H   0  0  0  0  0  0  0  0  0  0  0  0
   43.3546    2.2764   13.0647 H   0  0  0  0  0  0  0  0  0  0  0  0
   42.4135    2.9086   11.6670 H   0  0  0  0  0  0  0  0  0  0  0  0
   45.4428    8.9254   12.3125 H   0  0  0  0  0  0  0  0  0  0  0  0
   48.6480    7.0685   14.3210 H   0  0  0  0  0  0  0  0  0  0  0  0
   47.5915    9.0960   13.3888 H   0  0  0  0  0  0  0  0  0  0  0  0
  3  2  1  0
  4  2  1  0
  5  4  1  0
  6  2  1  0
  7  3  2  0
  8  3  1  0
  9  4  1  0
 10  8  2  0
 11  7  1  0
 12 11  2  0
 12 10  1  0
  1 13  1  0
  2 14  1  6
  4 15  1  1
  5 16  1  0
  5 17  1  0
  6 18  1  0
  7 19  1  0
  8 20  1  0
  9 21  1  0
  9 22  1  0
  9 23  1  0
 10 24  1  0
 11 25  1  0
 12 26  1  0
M  END
> <Uni-Dock RESULT> 
ENERGY=   -3.359  LOWER_BOUND=    5.314  UPPER_BOUND=    6.423
INTER + INTRA:          -3.359
INTER:                  -3.359
INTRA:                   0.000
UNBOUND:                 0.000

$$$$
