
     RDKit          3D

 26 25  0  0  0  0  0  0  0  0999 V2000
   46.0470    3.1211    8.3108 Cl  0  0  0  0  0  0  0  0  0  0  0  0
   44.9037    4.2668    8.7178 C   0  0  1  0  0  0  0  0  0  0  0  0
   45.7439    3.2628    8.0652 C   0  0  0  0  0  0  0  0  0  0  0  0
   44.1744    3.7406    9.9285 C   0  0  2  0  0  0  0  0  0  0  0  0
   43.2784    4.7508   10.4562 N   0  0  0  0  0  0  0  0  0  0  0  0
   45.6617    5.3897    9.0171 O   0  0  0  0  0  0  0  0  0  0  0  0
   46.6007    3.6577    7.0710 C   0  0  0  0  0  0  0  0  0  0  0  0
   45.7382    1.9105    8.3843 C   0  0  0  0  0  0  0  0  0  0  0  0
   45.2050    3.4704   11.0003 C   0  0  0  0  0  0  0  0  0  0  0  0
   46.5499    1.0055    7.7388 C   0  0  0  0  0  0  0  0  0  0  0  0
   47.4339    2.7550    6.4022 C   0  0  0  0  0  0  0  0  0  0  0  0
   47.4144    1.4144    6.7333 C   0  0  0  0  0  0  0  0  0  0  0  0
   45.4621    3.7295    9.3885 H   0  0  0  0  0  0  0  0  0  0  0  0
   44.1116    4.5839    7.9907 H   0  0  0  0  0  0  0  0  0  0  0  0
   43.5821    2.8623    9.6336 H   0  0  0  0  0  0  0  0  0  0  0  0
   43.7083    5.2713   11.2741 H   0  0  0  0  0  0  0  0  0  0  0  0
   42.9563    5.4114    9.7205 H   0  0  0  0  0  0  0  0  0  0  0  0
   45.1129    6.2118    8.9892 H   0  0  0  0  0  0  0  0  0  0  0  0
   46.6827    4.6960    6.7442 H   0  0  0  0  0  0  0  0  0  0  0  0
   45.0837    1.5630    9.1543 H   0  0  0  0  0  0  0  0  0  0  0  0
   46.2453    3.6692   10.6433 H   0  0  0  0  0  0  0  0  0  0  0  0
   45.0724    4.1151   11.9089 H   0  0  0  0  0  0  0  0  0  0  0  0
   45.1693    2.4324   11.3905 H   0  0  0  0  0  0  0  0  0  0  0  0
   46.5457   -0.0464    7.9868 H   0  0  0  0  0  0  0  0  0  0  0  0
   48.1007    3.1027    5.6192 H   0  0  0  0  0  0  0  0  0  0  0  0
   48.0337    0.6896    6.2487 H   0  0  0  0  0  0  0  0  0  0  0  0
  3  2  1  0
  4  2  1  0
  5  4  1  0
  6  2  1  0
  7  3  2  0
  8  3  1  0
  9  4  1  0
 10  8  2  0
 11  7  1  0
 12 11  2  0
 12 10  1  0
  1 13  1  0
  2 14  1  1
  4 15  1  1
  5 16  1  0
  5 17  1  0
  6 18  1  0
  7 19  1  0
  8 20  1  0
  9 21  1  0
  9 22  1  0
  9 23  1  0
 10 24  1  0
 11 25  1  0
 12 26  1  0
M  END
> <Uni-Dock RESULT> 
ENERGY=   -5.787  LOWER_BOUND=    0.000  UPPER_BOUND=    0.000
INTER + INTRA:          -5.787
INTER:                  -5.787
INTRA:                   0.000
UNBOUND:                 0.000

$$$$

     RDKit          3D

 26 25  0  0  0  0  0  0  0  0999 V2000
   45.9047    3.1006    8.4720 Cl  0  0  0  0  0  0  0  0  0  0  0  0
   44.6955    4.1302    8.9853 C   0  0  1  0  0  0  0  0  0  0  0  0
   45.5795    3.2279    8.2475 C   0  0  0  0  0  0  0  0  0  0  0  0
   44.0708    3.4931   10.2012 C   0  0  2  0  0  0  0  0  0  0  0  0
   43.1246    4.4025   10.8171 N   0  0  0  0  0  0  0  0  0  0  0  0
   45.3759    5.2968    9.3035 O   0  0  0  0  0  0  0  0  0  0  0  0
   46.3524    3.7350    7.2355 C   0  0  0  0  0  0  0  0  0  0  0  0
   45.6969    1.8669    8.5011 C   0  0  0  0  0  0  0  0  0  0  0  0
   45.1711    3.2606   11.2107 C   0  0  0  0  0  0  0  0  0  0  0  0
   46.5451    1.0605    7.7766 C   0  0  0  0  0  0  0  0  0  0  0  0
   47.2206    2.9337    6.4869 C   0  0  0  0  0  0  0  0  0  0  0  0
   47.3238    1.5826    6.7536 C   0  0  0  0  0  0  0  0  0  0  0  0
   45.3272    3.6110    9.6032 H   0  0  0  0  0  0  0  0  0  0  0  0
   43.8460    4.4135    8.3111 H   0  0  0  0  0  0  0  0  0  0  0  0
   43.5363    2.5834    9.8917 H   0  0  0  0  0  0  0  0  0  0  0  0
   43.5516    4.9196   11.6387 H   0  0  0  0  0  0  0  0  0  0  0  0
   42.7153    5.0666   10.1295 H   0  0  0  0  0  0  0  0  0  0  0  0
   44.7629    6.0718    9.3402 H   0  0  0  0  0  0  0  0  0  0  0  0
   46.3355    4.7900    6.9557 H   0  0  0  0  0  0  0  0  0  0  0  0
   45.1108    1.4333    9.2825 H   0  0  0  0  0  0  0  0  0  0  0  0
   46.1735    3.5591   10.8167 H   0  0  0  0  0  0  0  0  0  0  0  0
   45.0327    3.8515   12.1544 H   0  0  0  0  0  0  0  0  0  0  0  0
   45.2372    2.2069   11.5518 H   0  0  0  0  0  0  0  0  0  0  0  0
   46.6366    0.0018    7.9736 H   0  0  0  0  0  0  0  0  0  0  0  0
   47.8183    3.3689    5.6920 H   0  0  0  0  0  0  0  0  0  0  0  0
   47.9741    0.9329    6.2070 H   0  0  0  0  0  0  0  0  0  0  0  0
  3  2  1  0
  4  2  1  0
  5  4  1  0
  6  2  1  0
  7  3  2  0
  8  3  1  0
  9  4  1  0
 10  8  2  0
 11  7  1  0
 12 11  2  0
 12 10  1  0
  1 13  1  0
  2 14  1  1
  4 15  1  1
  5 16  1  0
  5 17  1  0
  6 18  1  0
  7 19  1  0
  8 20  1  0
  9 21  1  0
  9 22  1  0
  9 23  1  0
 10 24  1  0
 11 25  1  0
 12 26  1  0
M  END
> <Uni-Dock RESULT> 
ENERGY=   -5.695  LOWER_BOUND=    0.311  UPPER_BOUND=    0.311
INTER + INTRA:          -5.695
INTER:                  -5.695
INTRA:                   0.000
UNBOUND:                 0.000

$$$$

     RDKit          3D

 26 25  0  0  0  0  0  0  0  0999 V2000
   44.3869    3.6226   10.0571 Cl  0  0  0  0  0  0  0  0  0  0  0  0
   44.0221    3.2647   11.6459 C   0  0  1  0  0  0  0  0  0  0  0  0
   44.6332    3.4251   10.3265 C   0  0  0  0  0  0  0  0  0  0  0  0
   43.7161    4.5754   12.3263 C   0  0  2  0  0  0  0  0  0  0  0  0
   43.2194    4.3431   13.6683 N   0  0  0  0  0  0  0  0  0  0  0  0
   42.8979    2.4575   11.5470 O   0  0  0  0  0  0  0  0  0  0  0  0
   44.7877    2.3224    9.5272 C   0  0  0  0  0  0  0  0  0  0  0  0
   45.0780    4.6367    9.8122 C   0  0  0  0  0  0  0  0  0  0  0  0
   42.5972    5.2386   11.5570 C   0  0  0  0  0  0  0  0  0  0  0  0
   45.6469    4.7338    8.5626 C   0  0  0  0  0  0  0  0  0  0  0  0
   45.3630    2.3985    8.2545 C   0  0  0  0  0  0  0  0  0  0  0  0
   45.7994    3.6119    7.7601 C   0  0  0  0  0  0  0  0  0  0  0  0
   43.5454    3.9725   11.0784 H   0  0  0  0  0  0  0  0  0  0  0  0
   44.7556    2.7345   12.3072 H   0  0  0  0  0  0  0  0  0  0  0  0
   44.6401    5.1682   12.3893 H   0  0  0  0  0  0  0  0  0  0  0  0
   42.1604    4.3819   13.7095 H   0  0  0  0  0  0  0  0  0  0  0  0
   43.5767    3.4527   14.0695 H   0  0  0  0  0  0  0  0  0  0  0  0
   42.7516    1.9415   12.3778 H   0  0  0  0  0  0  0  0  0  0  0  0
   44.4720    1.3242    9.8359 H   0  0  0  0  0  0  0  0  0  0  0  0
   44.9751    5.5198   10.4051 H   0  0  0  0  0  0  0  0  0  0  0  0
   42.2963    4.6468   10.6579 H   0  0  0  0  0  0  0  0  0  0  0  0
   41.6603    5.3599   12.1622 H   0  0  0  0  0  0  0  0  0  0  0  0
   42.8451    6.2671   11.2226 H   0  0  0  0  0  0  0  0  0  0  0  0
   45.9930    5.6760    8.1623 H   0  0  0  0  0  0  0  0  0  0  0  0
   45.4699    1.5045    7.6481 H   0  0  0  0  0  0  0  0  0  0  0  0
   46.2448    3.7165    6.7935 H   0  0  0  0  0  0  0  0  0  0  0  0
  3  2  1  0
  4  2  1  0
  5  4  1  0
  6  2  1  0
  7  3  2  0
  8  3  1  0
  9  4  1  0
 10  8  2  0
 11  7  1  0
 12 11  2  0
 12 10  1  0
  1 13  1  0
  2 14  1  1
  4 15  1  1
  5 16  1  0
  5 17  1  0
  6 18  1  0
  7 19  1  0
  8 20  1  0
  9 21  1  0
  9 22  1  0
  9 23  1  0
 10 24  1  0
 11 25  1  0
 12 26  1  0
M  END
> <Uni-Dock RESULT> 
ENERGY=   -4.944  LOWER_BOUND=    2.223  UPPER_BOUND=    3.235
INTER + INTRA:          -4.944
INTER:                  -4.944
INTRA:                   0.000
UNBOUND:                 0.000

$$$$

     RDKit          3D

 26 25  0  0  0  0  0  0  0  0999 V2000
   45.3445    5.3143   12.2028 Cl  0  0  0  0  0  0  0  0  0  0  0  0
   44.7057    3.8268   12.6088 C   0  0  1  0  0  0  0  0  0  0  0  0
   45.1680    5.2140   12.5649 C   0  0  0  0  0  0  0  0  0  0  0  0
   43.6397    3.5193   11.5873 C   0  0  2  0  0  0  0  0  0  0  0  0
   43.1500    2.1659   11.7610 N   0  0  0  0  0  0  0  0  0  0  0  0
   45.7898    2.9676   12.5009 O   0  0  0  0  0  0  0  0  0  0  0  0
   46.2612    5.5741   13.3091 C   0  0  0  0  0  0  0  0  0  0  0  0
   44.5695    6.2147   11.8094 C   0  0  0  0  0  0  0  0  0  0  0  0
   44.2857    3.5763   10.2222 C   0  0  0  0  0  0  0  0  0  0  0  0
   45.0445    7.5066   11.8031 C   0  0  0  0  0  0  0  0  0  0  0  0
   46.7604    6.8807   13.3173 C   0  0  0  0  0  0  0  0  0  0  0  0
   46.1520    7.8622   12.5598 C   0  0  0  0  0  0  0  0  0  0  0  0
   44.8846    4.1485   11.6523 H   0  0  0  0  0  0  0  0  0  0  0  0
   44.2372    3.6475   13.6112 H   0  0  0  0  0  0  0  0  0  0  0  0
   42.8022    4.2185   11.7250 H   0  0  0  0  0  0  0  0  0  0  0  0
   43.6123    1.4894   11.0879 H   0  0  0  0  0  0  0  0  0  0  0  0
   43.2442    1.8385   12.7435 H   0  0  0  0  0  0  0  0  0  0  0  0
   45.6287    2.1225   12.9883 H   0  0  0  0  0  0  0  0  0  0  0  0
   46.8041    4.8649   13.9366 H   0  0  0  0  0  0  0  0  0  0  0  0
   43.7144    5.9738   11.2155 H   0  0  0  0  0  0  0  0  0  0  0  0
   45.3616    3.8737   10.2780 H   0  0  0  0  0  0  0  0  0  0  0  0
   44.2758    2.5884    9.6905 H   0  0  0  0  0  0  0  0  0  0  0  0
   43.7742    4.2708    9.5242 H   0  0  0  0  0  0  0  0  0  0  0  0
   44.5791    8.2852   11.2156 H   0  0  0  0  0  0  0  0  0  0  0  0
   47.6287    7.1309   13.9189 H   0  0  0  0  0  0  0  0  0  0  0  0
   46.4995    8.8733   12.5360 H   0  0  0  0  0  0  0  0  0  0  0  0
  3  2  1  0
  4  2  1  0
  5  4  1  0
  6  2  1  0
  7  3  2  0
  8  3  1  0
  9  4  1  0
 10  8  2  0
 11  7  1  0
 12 11  2  0
 12 10  1  0
  1 13  1  0
  2 14  1  1
  4 15  1  1
  5 16  1  0
  5 17  1  0
  6 18  1  0
  7 19  1  0
  8 20  1  0
  9 21  1  0
  9 22  1  0
  9 23  1  0
 10 24  1  0
 11 25  1  0
 12 26  1  0
M  END
> <Uni-Dock RESULT> 
ENERGY=   -3.481  LOWER_BOUND=    3.556  UPPER_BOUND=    5.545
INTER + INTRA:          -3.481
INTER:                  -3.481
INTRA:                   0.000
UNBOUND:                 0.000

$$$$

     RDKit          3D

 26 25  0  0  0  0  0  0  0  0999 V2000
   44.5303    6.7989   12.1858 Cl  0  0  0  0  0  0  0  0  0  0  0  0
   43.7072    5.7084   11.2271 C   0  0  1  0  0  0  0  0  0  0  0  0
   44.5723    6.7530   11.7754 C   0  0  0  0  0  0  0  0  0  0  0  0
   44.0036    4.3364   11.7786 C   0  0  2  0  0  0  0  0  0  0  0  0
   43.1901    3.3384   11.1123 N   0  0  0  0  0  0  0  0  0  0  0  0
   42.3769    6.0612   11.4030 O   0  0  0  0  0  0  0  0  0  0  0  0
   44.2859    8.0650   11.5008 C   0  0  0  0  0  0  0  0  0  0  0  0
   45.6856    6.5098   12.5702 C   0  0  0  0  0  0  0  0  0  0  0  0
   43.5942    4.3310   13.2333 C   0  0  0  0  0  0  0  0  0  0  0  0
   46.4678    7.5302   13.0617 C   0  0  0  0  0  0  0  0  0  0  0  0
   45.0672    9.1171   11.9899 C   0  0  0  0  0  0  0  0  0  0  0  0
   46.1703    8.8557   12.7785 C   0  0  0  0  0  0  0  0  0  0  0  0
   43.8075    5.6380   12.2447 H   0  0  0  0  0  0  0  0  0  0  0  0
   43.8923    5.6470   10.1233 H   0  0  0  0  0  0  0  0  0  0  0  0
   45.0637    4.1031   11.6024 H   0  0  0  0  0  0  0  0  0  0  0  0
   42.3302    3.0872   11.6798 H   0  0  0  0  0  0  0  0  0  0  0  0
   42.9302    3.6258   10.1473 H   0  0  0  0  0  0  0  0  0  0  0  0
   41.8096    5.6963   10.6799 H   0  0  0  0  0  0  0  0  0  0  0  0
   43.4345    8.3644   10.8868 H   0  0  0  0  0  0  0  0  0  0  0  0
   45.9421    5.4997   12.8068 H   0  0  0  0  0  0  0  0  0  0  0  0
   43.2234    5.3302   13.5697 H   0  0  0  0  0  0  0  0  0  0  0  0
   42.7597    3.6135   13.4516 H   0  0  0  0  0  0  0  0  0  0  0  0
   44.4110    4.0209   13.9171 H   0  0  0  0  0  0  0  0  0  0  0  0
   47.3339    7.3413   13.6799 H   0  0  0  0  0  0  0  0  0  0  0  0
   44.8111   10.1450   11.7525 H   0  0  0  0  0  0  0  0  0  0  0  0
   46.7953    9.6283   13.1736 H   0  0  0  0  0  0  0  0  0  0  0  0
  3  2  1  0
  4  2  1  0
  5  4  1  0
  6  2  1  0
  7  3  2  0
  8  3  1  0
  9  4  1  0
 10  8  2  0
 11  7  1  0
 12 11  2  0
 12 10  1  0
  1 13  1  0
  2 14  1  1
  4 15  1  1
  5 16  1  0
  5 17  1  0
  6 18  1  0
  7 19  1  0
  8 20  1  0
  9 21  1  0
  9 22  1  0
  9 23  1  0
 10 24  1  0
 11 25  1  0
 12 26  1  0
M  END
> <Uni-Dock RESULT> 
ENERGY=   -3.428  LOWER_BOUND=    4.628  UPPER_BOUND=    5.946
INTER + INTRA:          -3.428
INTER:                  -3.428
INTRA:                   0.000
UNBOUND:                 0.000

$$$$

     RDKit          3D

 26 25  0  0  0  0  0  0  0  0999 V2000
   50.4388    3.1379   17.7988 Cl  0  0  0  0  0  0  0  0  0  0  0  0
   49.4278    4.3368   17.2277 C   0  0  1  0  0  0  0  0  0  0  0  0
   50.5250    3.4067   17.4945 C   0  0  0  0  0  0  0  0  0  0  0  0
   48.1654    3.6546   16.7636 C   0  0  2  0  0  0  0  0  0  0  0  0
   47.1606    4.6385   16.4113 N   0  0  0  0  0  0  0  0  0  0  0  0
   49.2066    5.1330   18.3422 O   0  0  0  0  0  0  0  0  0  0  0  0
   51.6623    3.8763   18.0984 C   0  0  0  0  0  0  0  0  0  0  0  0
   50.5001    2.0548   17.1750 C   0  0  0  0  0  0  0  0  0  0  0  0
   47.6149    2.8696   17.9317 C   0  0  0  0  0  0  0  0  0  0  0  0
   51.5608    1.2212   17.4479 C   0  0  0  0  0  0  0  0  0  0  0  0
   52.7516    3.0469   18.3848 C   0  0  0  0  0  0  0  0  0  0  0  0
   52.7085    1.7054   18.0596 C   0  0  0  0  0  0  0  0  0  0  0  0
   49.1250    3.5209   17.7691 H   0  0  0  0  0  0  0  0  0  0  0  0
   49.7411    5.0141   16.3914 H   0  0  0  0  0  0  0  0  0  0  0  0
   48.3939    3.0491   15.8746 H   0  0  0  0  0  0  0  0  0  0  0  0
   46.4677    4.7944   17.1988 H   0  0  0  0  0  0  0  0  0  0  0  0
   47.5837    5.5368   16.1023 H   0  0  0  0  0  0  0  0  0  0  0  0
   48.8709    6.0267   18.0846 H   0  0  0  0  0  0  0  0  0  0  0  0
   51.7839    4.9211   18.3902 H   0  0  0  0  0  0  0  0  0  0  0  0
   49.6308    1.6503   16.7029 H   0  0  0  0  0  0  0  0  0  0  0  0
   48.2768    2.9324   18.8301 H   0  0  0  0  0  0  0  0  0  0  0  0
   46.6114    3.2371   18.2734 H   0  0  0  0  0  0  0  0  0  0  0  0
   47.4521    1.7967   17.7007 H   0  0  0  0  0  0  0  0  0  0  0  0
   51.5417    0.1696   17.1994 H   0  0  0  0  0  0  0  0  0  0  0  0
   53.6371    3.4526   18.8641 H   0  0  0  0  0  0  0  0  0  0  0  0
   53.5174    1.0352   18.2598 H   0  0  0  0  0  0  0  0  0  0  0  0
  3  2  1  0
  4  2  1  0
  5  4  1  0
  6  2  1  0
  7  3  2  0
  8  3  1  0
  9  4  1  0
 10  8  2  0
 11  7  1  0
 12 11  2  0
 12 10  1  0
  1 13  1  0
  2 14  1  1
  4 15  1  1
  5 16  1  0
  5 17  1  0
  6 18  1  0
  7 19  1  0
  8 20  1  0
  9 21  1  0
  9 22  1  0
  9 23  1  0
 10 24  1  0
 11 25  1  0
 12 26  1  0
M  END
> <Uni-Dock RESULT> 
ENERGY=   -3.335  LOWER_BOUND=    9.143  UPPER_BOUND=   10.312
INTER + INTRA:          -3.335
INTER:                  -3.335
INTRA:                   0.000
UNBOUND:                 0.000

$$$$

     RDKit          3D

 26 25  0  0  0  0  0  0  0  0999 V2000
   50.4388    3.1382   17.7989 Cl  0  0  0  0  0  0  0  0  0  0  0  0
   49.4277    4.3369   17.2276 C   0  0  1  0  0  0  0  0  0  0  0  0
   50.5249    3.4069   17.4945 C   0  0  0  0  0  0  0  0  0  0  0  0
   48.1653    3.6546   16.7635 C   0  0  2  0  0  0  0  0  0  0  0  0
   47.1605    4.6384   16.4112 N   0  0  0  0  0  0  0  0  0  0  0  0
   49.2065    5.1333   18.3420 O   0  0  0  0  0  0  0  0  0  0  0  0
   51.6622    3.8766   18.0984 C   0  0  0  0  0  0  0  0  0  0  0  0
   50.5001    2.0550   17.1751 C   0  0  0  0  0  0  0  0  0  0  0  0
   47.6149    2.8697   17.9318 C   0  0  0  0  0  0  0  0  0  0  0  0
   51.5609    1.2215   17.4481 C   0  0  0  0  0  0  0  0  0  0  0  0
   52.7515    3.0473   18.3848 C   0  0  0  0  0  0  0  0  0  0  0  0
   52.7085    1.7058   18.0598 C   0  0  0  0  0  0  0  0  0  0  0  0
   49.1250    3.5211   17.7691 H   0  0  0  0  0  0  0  0  0  0  0  0
   49.7410    5.0142   16.3912 H   0  0  0  0  0  0  0  0  0  0  0  0
   48.3939    3.0491   15.8746 H   0  0  0  0  0  0  0  0  0  0  0  0
   46.4676    4.7944   17.1987 H   0  0  0  0  0  0  0  0  0  0  0  0
   47.5835    5.5367   16.1021 H   0  0  0  0  0  0  0  0  0  0  0  0
   48.8707    6.0270   18.0843 H   0  0  0  0  0  0  0  0  0  0  0  0
   51.7838    4.9215   18.3900 H   0  0  0  0  0  0  0  0  0  0  0  0
   49.6308    1.6504   16.7031 H   0  0  0  0  0  0  0  0  0  0  0  0
   48.2767    2.9327   18.8302 H   0  0  0  0  0  0  0  0  0  0  0  0
   46.6113    3.2372   18.2735 H   0  0  0  0  0  0  0  0  0  0  0  0
   47.4521    1.7968   17.7009 H   0  0  0  0  0  0  0  0  0  0  0  0
   51.5418    0.1699   17.1998 H   0  0  0  0  0  0  0  0  0  0  0  0
   53.6370    3.4532   18.8641 H   0  0  0  0  0  0  0  0  0  0  0  0
   53.5175    1.0356   18.2601 H   0  0  0  0  0  0  0  0  0  0  0  0
  3  2  1  0
  4  2  1  0
  5  4  1  0
  6  2  1  0
  7  3  2  0
  8  3  1  0
  9  4  1  0
 10  8  2  0
 11  7  1  0
 12 11  2  0
 12 10  1  0
  1 13  1  0
  2 14  1  1
  4 15  1  1
  5 16  1  0
  5 17  1  0
  6 18  1  0
  7 19  1  0
  8 20  1  0
  9 21  1  0
  9 22  1  0
  9 23  1  0
 10 24  1  0
 11 25  1  0
 12 26  1  0
M  END
> <Uni-Dock RESULT> 
ENERGY=   -3.335  LOWER_BOUND=    9.143  UPPER_BOUND=   10.312
INTER + INTRA:          -3.335
INTER:                  -3.335
INTRA:                   0.000
UNBOUND:                 0.000

$$$$

     RDKit          3D

 26 25  0  0  0  0  0  0  0  0999 V2000
   45.1845    5.9791   12.7586 Cl  0  0  0  0  0  0  0  0  0  0  0  0
   46.8230    5.7351   12.9619 C   0  0  1  0  0  0  0  0  0  0  0  0
   45.4105    5.6766   12.5861 C   0  0  0  0  0  0  0  0  0  0  0  0
   47.5088    7.0016   12.5145 C   0  0  2  0  0  0  0  0  0  0  0  0
   48.9249    6.9431   12.8191 N   0  0  0  0  0  0  0  0  0  0  0  0
   46.9536    5.5301   14.3280 O   0  0  0  0  0  0  0  0  0  0  0  0
   44.6292    4.6706   13.0921 C   0  0  0  0  0  0  0  0  0  0  0  0
   44.7885    6.5835   11.7369 C   0  0  0  0  0  0  0  0  0  0  0  0
   46.9361    8.1414   13.3248 C   0  0  0  0  0  0  0  0  0  0  0  0
   43.4541    6.4838   11.4144 C   0  0  0  0  0  0  0  0  0  0  0  0
   43.2715    4.5506   12.7776 C   0  0  0  0  0  0  0  0  0  0  0  0
   42.6707    5.4617   11.9315 C   0  0  0  0  0  0  0  0  0  0  0  0
   46.3308    6.6129   13.1558 H   0  0  0  0  0  0  0  0  0  0  0  0
   47.3555    4.8940   12.4466 H   0  0  0  0  0  0  0  0  0  0  0  0
   47.3855    7.1082   11.4270 H   0  0  0  0  0  0  0  0  0  0  0  0
   49.1564    7.4538   13.7192 H   0  0  0  0  0  0  0  0  0  0  0  0
   49.2806    5.9661   12.8416 H   0  0  0  0  0  0  0  0  0  0  0  0
   47.8120    5.0897   14.5450 H   0  0  0  0  0  0  0  0  0  0  0  0
   45.0193    3.9070   13.7676 H   0  0  0  0  0  0  0  0  0  0  0  0
   45.3640    7.3825   11.3216 H   0  0  0  0  0  0  0  0  0  0  0  0
   46.1244    7.8015   14.0139 H   0  0  0  0  0  0  0  0  0  0  0  0
   47.6976    8.6384   13.9821 H   0  0  0  0  0  0  0  0  0  0  0  0
   46.5322    8.9639   12.6994 H   0  0  0  0  0  0  0  0  0  0  0  0
   42.9701    7.1890   10.7539 H   0  0  0  0  0  0  0  0  0  0  0  0
   42.6823    3.7408   13.1967 H   0  0  0  0  0  0  0  0  0  0  0  0
   41.6366    5.4084   11.6640 H   0  0  0  0  0  0  0  0  0  0  0  0
  3  2  1  0
  4  2  1  0
  5  4  1  0
  6  2  1  0
  7  3  2  0
  8  3  1  0
  9  4  1  0
 10  8  2  0
 11  7  1  0
 12 11  2  0
 12 10  1  0
  1 13  1  0
  2 14  1  1
  4 15  1  1
  5 16  1  0
  5 17  1  0
  6 18  1  0
  7 19  1  0
  8 20  1  0
  9 21  1  0
  9 22  1  0
  9 23  1  0
 10 24  1  0
 11 25  1  0
 12 26  1  0
M  END
> <Uni-Dock RESULT> 
ENERGY=   -3.323  LOWER_BOUND=    5.575  UPPER_BOUND=    6.226
INTER + INTRA:          -3.323
INTER:                  -3.323
INTRA:                   0.000
UNBOUND:                 0.000

$$$$

     RDKit          3D

 26 25  0  0  0  0  0  0  0  0999 V2000
   45.8490    6.8888   12.3048 Cl  0  0  0  0  0  0  0  0  0  0  0  0
   45.1726    5.4659   12.8554 C   0  0  1  0  0  0  0  0  0  0  0  0
   45.9172    6.7119   12.6740 C   0  0  0  0  0  0  0  0  0  0  0  0
   43.6766    5.6518   12.8122 C   0  0  2  0  0  0  0  0  0  0  0  0
   43.0043    4.4023   13.1098 N   0  0  0  0  0  0  0  0  0  0  0  0
   45.6044    4.5231   11.9335 O   0  0  0  0  0  0  0  0  0  0  0  0
   47.2763    6.6555   12.5054 C   0  0  0  0  0  0  0  0  0  0  0  0
   45.3379    7.9747   12.6594 C   0  0  0  0  0  0  0  0  0  0  0  0
   43.3033    6.0198   11.3947 C   0  0  0  0  0  0  0  0  0  0  0  0
   46.0847    9.1177   12.4849 C   0  0  0  0  0  0  0  0  0  0  0  0
   48.0540    7.8042   12.3266 C   0  0  0  0  0  0  0  0  0  0  0  0
   47.4603    9.0510   12.3150 C   0  0  0  0  0  0  0  0  0  0  0  0
   44.8056    6.0310   12.0832 H   0  0  0  0  0  0  0  0  0  0  0  0
   45.4072    5.0655   13.8758 H   0  0  0  0  0  0  0  0  0  0  0  0
   43.3883    6.3969   13.5677 H   0  0  0  0  0  0  0  0  0  0  0  0
   42.6980    3.8991   12.2281 H   0  0  0  0  0  0  0  0  0  0  0  0
   43.5804    3.7818   13.7134 H   0  0  0  0  0  0  0  0  0  0  0  0
   45.5243    3.6056   12.2932 H   0  0  0  0  0  0  0  0  0  0  0  0
   47.8291    5.7142   12.5009 H   0  0  0  0  0  0  0  0  0  0  0  0
   44.2805    8.0607   12.7877 H   0  0  0  0  0  0  0  0  0  0  0  0
   44.2002    6.1160   10.7349 H   0  0  0  0  0  0  0  0  0  0  0  0
   42.6492    5.2539   10.9003 H   0  0  0  0  0  0  0  0  0  0  0  0
   42.7243    6.9637   11.3253 H   0  0  0  0  0  0  0  0  0  0  0  0
   45.6344   10.1000   12.4735 H   0  0  0  0  0  0  0  0  0  0  0  0
   49.1286    7.7225   12.1959 H   0  0  0  0  0  0  0  0  0  0  0  0
   48.0157    9.9551   12.1815 H   0  0  0  0  0  0  0  0  0  0  0  0
  3  2  1  0
  4  2  1  0
  5  4  1  0
  6  2  1  0
  7  3  2  0
  8  3  1  0
  9  4  1  0
 10  8  2  0
 11  7  1  0
 12 11  2  0
 12 10  1  0
  1 13  1  0
  2 14  1  1
  4 15  1  1
  5 16  1  0
  5 17  1  0
  6 18  1  0
  7 19  1  0
  8 20  1  0
  9 21  1  0
  9 22  1  0
  9 23  1  0
 10 24  1  0
 11 25  1  0
 12 26  1  0
M  END
> <Uni-Dock RESULT> 
ENERGY=   -3.298  LOWER_BOUND=    5.213  UPPER_BOUND=    6.152
INTER + INTRA:          -3.298
INTER:                  -3.298
INTRA:                   0.000
UNBOUND:                 0.000

$$$$
