
     RDKit          3D

 26 25  0  0  0  0  0  0  0  0999 V2000
   45.7981    2.9416    8.0891 Cl  0  0  0  0  0  0  0  0  0  0  0  0
   44.4956    3.3989    8.8579 C   0  0  1  0  0  0  0  0  0  0  0  0
   45.6393    2.8931    8.0577 C   0  0  0  0  0  0  0  0  0  0  0  0
   44.9352    4.1389   10.1105 C   0  0  2  0  0  0  0  0  0  0  0  0
   43.7582    4.4584   10.8586 N   0  0  0  0  0  0  0  0  0  0  0  0
   43.6498    4.2039    8.0980 O   0  0  0  0  0  0  0  0  0  0  0  0
   46.3700    3.6918    7.1961 C   0  0  0  0  0  0  0  0  0  0  0  0
   46.0361    1.5676    8.1406 C   0  0  0  0  0  0  0  0  0  0  0  0
   45.7400    5.3523    9.7294 C   0  0  0  0  0  0  0  0  0  0  0  0
   47.0888    1.0511    7.4212 C   0  0  0  0  0  0  0  0  0  0  0  0
   47.4340    3.2074    6.4569 C   0  0  0  0  0  0  0  0  0  0  0  0
   47.8010    1.8780    6.5661 C   0  0  0  0  0  0  0  0  0  0  0  0
   45.3283    3.8929    8.9682 H   0  0  0  0  0  0  0  0  0  0  0  0
   43.8890    2.4930    9.1539 H   0  0  0  0  0  0  0  0  0  0  0  0
   45.5407    3.4634   10.7491 H   0  0  0  0  0  0  0  0  0  0  0  0
   42.8654    4.2863   10.3467 H   0  0  0  0  0  0  0  0  0  0  0  0
   43.7647    4.1589   11.8458 H   0  0  0  0  0  0  0  0  0  0  0  0
   42.8183    3.7282    7.8296 H   0  0  0  0  0  0  0  0  0  0  0  0
   46.1150    4.7339    7.0822 H   0  0  0  0  0  0  0  0  0  0  0  0
   45.4829    0.9088    8.8100 H   0  0  0  0  0  0  0  0  0  0  0  0
   45.1785    5.9120    8.9480 H   0  0  0  0  0  0  0  0  0  0  0  0
   45.8670    5.9772   10.6539 H   0  0  0  0  0  0  0  0  0  0  0  0
   46.7428    5.0897    9.3693 H   0  0  0  0  0  0  0  0  0  0  0  0
   47.3276   -0.0014    7.5508 H   0  0  0  0  0  0  0  0  0  0  0  0
   47.9730    3.8840    5.7940 H   0  0  0  0  0  0  0  0  0  0  0  0
   48.6215    1.4594    6.0104 H   0  0  0  0  0  0  0  0  0  0  0  0
  3  2  1  0
  4  2  1  0
  5  4  1  0
  6  2  1  0
  7  3  2  0
  8  3  1  0
  9  4  1  0
 10  8  2  0
 11  7  1  0
 12 11  2  0
 12 10  1  0
  1 13  1  0
  2 14  1  1
  4 15  1  6
  5 16  1  0
  5 17  1  0
  6 18  1  0
  7 19  1  0
  8 20  1  0
  9 21  1  0
  9 22  1  0
  9 23  1  0
 10 24  1  0
 11 25  1  0
 12 26  1  0
M  END
> <Uni-Dock RESULT> 
ENERGY=   -5.186  LOWER_BOUND=    0.000  UPPER_BOUND=    0.000
INTER + INTRA:          -5.186
INTER:                  -5.186
INTRA:                   0.000
UNBOUND:                 0.000

$$$$

     RDKit          3D

 26 25  0  0  0  0  0  0  0  0999 V2000
   44.8565    3.7449    9.6586 Cl  0  0  0  0  0  0  0  0  0  0  0  0
   43.8761    4.2554   10.7878 C   0  0  1  0  0  0  0  0  0  0  0  0
   44.6883    3.7290    9.6619 C   0  0  0  0  0  0  0  0  0  0  0  0
   44.7223    4.6727   11.9792 C   0  0  2  0  0  0  0  0  0  0  0  0
   43.8296    5.0332   13.0377 N   0  0  0  0  0  0  0  0  0  0  0  0
   43.0601    5.3109   10.3865 O   0  0  0  0  0  0  0  0  0  0  0  0
   45.3527    4.5453    8.7638 C   0  0  0  0  0  0  0  0  0  0  0  0
   44.8210    2.3648    9.4557 C   0  0  0  0  0  0  0  0  0  0  0  0
   45.6473    5.7910   11.5804 C   0  0  0  0  0  0  0  0  0  0  0  0
   45.5622    1.8279    8.4287 C   0  0  0  0  0  0  0  0  0  0  0  0
   46.1068    4.0413    7.7196 C   0  0  0  0  0  0  0  0  0  0  0  0
   46.2162    2.6732    7.5456 C   0  0  0  0  0  0  0  0  0  0  0  0
   44.7937    4.5812   10.7518 H   0  0  0  0  0  0  0  0  0  0  0  0
   43.1826    3.4193   11.0979 H   0  0  0  0  0  0  0  0  0  0  0  0
   45.3077    3.8035   12.3432 H   0  0  0  0  0  0  0  0  0  0  0  0
   42.8292    5.1031   12.7491 H   0  0  0  0  0  0  0  0  0  0  0  0
   43.9960    4.5603   13.9393 H   0  0  0  0  0  0  0  0  0  0  0  0
   42.1120    5.0317   10.2733 H   0  0  0  0  0  0  0  0  0  0  0  0
   45.2919    5.6177    8.8649 H   0  0  0  0  0  0  0  0  0  0  0  0
   44.3110    1.6913   10.1444 H   0  0  0  0  0  0  0  0  0  0  0  0
   45.0490    6.5672   11.0525 H   0  0  0  0  0  0  0  0  0  0  0  0
   46.0991    6.2069   12.5208 H   0  0  0  0  0  0  0  0  0  0  0  0
   46.4715    5.4422   10.9455 H   0  0  0  0  0  0  0  0  0  0  0  0
   45.6091    0.7451    8.3454 H   0  0  0  0  0  0  0  0  0  0  0  0
   46.6083    4.7332    7.0432 H   0  0  0  0  0  0  0  0  0  0  0  0
   46.7918    2.2382    6.7477 H   0  0  0  0  0  0  0  0  0  0  0  0
  3  2  1  0
  4  2  1  0
  5  4  1  0
  6  2  1  0
  7  3  2  0
  8  3  1  0
  9  4  1  0
 10  8  2  0
 11  7  1  0
 12 11  2  0
 12 10  1  0
  1 13  1  0
  2 14  1  1
  4 15  1  6
  5 16  1  0
  5 17  1  0
  6 18  1  0
  7 19  1  0
  8 20  1  0
  9 21  1  0
  9 22  1  0
  9 23  1  0
 10 24  1  0
 11 25  1  0
 12 26  1  0
M  END
> <Uni-Dock RESULT> 
ENERGY=   -4.743  LOWER_BOUND=    1.602  UPPER_BOUND=    2.092
INTER + INTRA:          -4.743
INTER:                  -4.743
INTRA:                   0.000
UNBOUND:                 0.000

$$$$

     RDKit          3D

 26 25  0  0  0  0  0  0  0  0999 V2000
   45.9081    3.5373    7.9073 Cl  0  0  0  0  0  0  0  0  0  0  0  0
   46.6133    3.2401    6.5249 C   0  0  1  0  0  0  0  0  0  0  0  0
   45.8822    3.6174    7.7608 C   0  0  0  0  0  0  0  0  0  0  0  0
   47.7703    2.2916    6.7919 C   0  0  2  0  0  0  0  0  0  0  0  0
   48.4717    2.1082    5.5583 N   0  0  0  0  0  0  0  0  0  0  0  0
   45.7606    2.6976    5.5660 O   0  0  0  0  0  0  0  0  0  0  0  0
   44.9339    2.8041    8.3553 C   0  0  0  0  0  0  0  0  0  0  0  0
   46.1232    4.8290    8.3895 C   0  0  0  0  0  0  0  0  0  0  0  0
   47.2501    1.0039    7.3722 C   0  0  0  0  0  0  0  0  0  0  0  0
   45.4733    5.2240    9.5358 C   0  0  0  0  0  0  0  0  0  0  0  0
   44.2607    3.1680    9.5075 C   0  0  0  0  0  0  0  0  0  0  0  0
   44.5281    4.3858   10.1069 C   0  0  0  0  0  0  0  0  0  0  0  0
   46.6664    2.5926    7.2511 H   0  0  0  0  0  0  0  0  0  0  0  0
   47.0130    4.2011    6.0858 H   0  0  0  0  0  0  0  0  0  0  0  0
   48.4864    2.7657    7.4940 H   0  0  0  0  0  0  0  0  0  0  0  0
   47.9812    2.4993    4.7245 H   0  0  0  0  0  0  0  0  0  0  0  0
   49.4875    2.2846    5.5947 H   0  0  0  0  0  0  0  0  0  0  0  0
   45.5482    3.3455    4.8415 H   0  0  0  0  0  0  0  0  0  0  0  0
   44.6963    1.8468    7.9183 H   0  0  0  0  0  0  0  0  0  0  0  0
   46.8645    5.4956    7.9487 H   0  0  0  0  0  0  0  0  0  0  0  0
   46.4060    0.6513    6.7378 H   0  0  0  0  0  0  0  0  0  0  0  0
   48.0942    0.2632    7.3607 H   0  0  0  0  0  0  0  0  0  0  0  0
   46.9267    1.1185    8.4145 H   0  0  0  0  0  0  0  0  0  0  0  0
   45.7278    6.1926    9.9584 H   0  0  0  0  0  0  0  0  0  0  0  0
   43.5237    2.4859    9.9308 H   0  0  0  0  0  0  0  0  0  0  0  0
   44.0285    4.7088   11.0032 H   0  0  0  0  0  0  0  0  0  0  0  0
  3  2  1  0
  4  2  1  0
  5  4  1  0
  6  2  1  0
  7  3  2  0
  8  3  1  0
  9  4  1  0
 10  8  2  0
 11  7  1  0
 12 11  2  0
 12 10  1  0
  1 13  1  0
  2 14  1  1
  4 15  1  6
  5 16  1  0
  5 17  1  0
  6 18  1  0
  7 19  1  0
  8 20  1  0
  9 21  1  0
  9 22  1  0
  9 23  1  0
 10 24  1  0
 11 25  1  0
 12 26  1  0
M  END
> <Uni-Dock RESULT> 
ENERGY=   -4.615  LOWER_BOUND=    2.495  UPPER_BOUND=    4.257
INTER + INTRA:          -4.615
INTER:                  -4.615
INTRA:                   0.000
UNBOUND:                 0.000

$$$$

     RDKit          3D

 26 25  0  0  0  0  0  0  0  0999 V2000
   44.9466    4.6502   10.0702 Cl  0  0  0  0  0  0  0  0  0  0  0  0
   45.1603    5.9174   10.9895 C   0  0  1  0  0  0  0  0  0  0  0  0
   45.0941    4.7138   10.1228 C   0  0  0  0  0  0  0  0  0  0  0  0
   43.8266    6.6379   11.0991 C   0  0  2  0  0  0  0  0  0  0  0  0
   44.0455    7.8407   11.8425 N   0  0  0  0  0  0  0  0  0  0  0  0
   45.6461    5.6132   12.2593 O   0  0  0  0  0  0  0  0  0  0  0  0
   44.5978    3.4973   10.5566 C   0  0  0  0  0  0  0  0  0  0  0  0
   45.5358    4.7561    8.8097 C   0  0  0  0  0  0  0  0  0  0  0  0
   42.8074    5.7296   11.7327 C   0  0  0  0  0  0  0  0  0  0  0  0
   45.4949    3.6696    7.9670 C   0  0  0  0  0  0  0  0  0  0  0  0
   44.5412    2.3839    9.7379 C   0  0  0  0  0  0  0  0  0  0  0  0
   44.9916    2.4644    8.4323 C   0  0  0  0  0  0  0  0  0  0  0  0
   44.2800    5.5054   10.9202 H   0  0  0  0  0  0  0  0  0  0  0  0
   45.9192    6.6082   10.5173 H   0  0  0  0  0  0  0  0  0  0  0  0
   43.4870    6.9487   10.0898 H   0  0  0  0  0  0  0  0  0  0  0  0
   44.9864    7.9028   12.2894 H   0  0  0  0  0  0  0  0  0  0  0  0
   43.7136    8.7075   11.3922 H   0  0  0  0  0  0  0  0  0  0  0  0
   46.5948    5.8892   12.3754 H   0  0  0  0  0  0  0  0  0  0  0  0
   44.2375    3.3933   11.5681 H   0  0  0  0  0  0  0  0  0  0  0  0
   45.9333    5.6988    8.4337 H   0  0  0  0  0  0  0  0  0  0  0  0
   43.2547    5.2915   12.6531 H   0  0  0  0  0  0  0  0  0  0  0  0
   41.9087    6.3543   11.9845 H   0  0  0  0  0  0  0  0  0  0  0  0
   42.4763    4.9365   11.0504 H   0  0  0  0  0  0  0  0  0  0  0  0
   45.8637    3.7968    6.9524 H   0  0  0  0  0  0  0  0  0  0  0  0
   44.1398    1.4517   10.1347 H   0  0  0  0  0  0  0  0  0  0  0  0
   44.9662    1.6240    7.7613 H   0  0  0  0  0  0  0  0  0  0  0  0
  3  2  1  0
  4  2  1  0
  5  4  1  0
  6  2  1  0
  7  3  2  0
  8  3  1  0
  9  4  1  0
 10  8  2  0
 11  7  1  0
 12 11  2  0
 12 10  1  0
  1 13  1  0
  2 14  1  1
  4 15  1  6
  5 16  1  0
  5 17  1  0
  6 18  1  0
  7 19  1  0
  8 20  1  0
  9 21  1  0
  9 22  1  0
  9 23  1  0
 10 24  1  0
 11 25  1  0
 12 26  1  0
M  END
> <Uni-Dock RESULT> 
ENERGY=   -3.976  LOWER_BOUND=    2.485  UPPER_BOUND=    3.539
INTER + INTRA:          -3.976
INTER:                  -3.976
INTRA:                   0.000
UNBOUND:                 0.000

$$$$

     RDKit          3D

 26 25  0  0  0  0  0  0  0  0999 V2000
   50.6123    2.8532   17.7071 Cl  0  0  0  0  0  0  0  0  0  0  0  0
   49.2077    3.3178   17.1522 C   0  0  1  0  0  0  0  0  0  0  0  0
   50.5685    2.8727   17.5451 C   0  0  0  0  0  0  0  0  0  0  0  0
   48.2243    3.2973   18.3108 C   0  0  2  0  0  0  0  0  0  0  0  0
   46.9317    3.6146   17.7855 N   0  0  0  0  0  0  0  0  0  0  0  0
   49.2275    4.5801   16.5629 O   0  0  0  0  0  0  0  0  0  0  0  0
   51.4766    3.6963   18.1863 C   0  0  0  0  0  0  0  0  0  0  0  0
   50.9997    1.5819   17.2818 C   0  0  0  0  0  0  0  0  0  0  0  0
   48.6777    4.2538   19.3808 C   0  0  0  0  0  0  0  0  0  0  0  0
   52.2494    1.1214   17.6262 C   0  0  0  0  0  0  0  0  0  0  0  0
   52.7413    3.2681   18.5474 C   0  0  0  0  0  0  0  0  0  0  0  0
   53.1364    1.9720   18.2680 C   0  0  0  0  0  0  0  0  0  0  0  0
   49.4288    3.4441   18.0927 H   0  0  0  0  0  0  0  0  0  0  0  0
   48.8568    2.6008   16.3529 H   0  0  0  0  0  0  0  0  0  0  0  0
   48.1538    2.2693   18.7215 H   0  0  0  0  0  0  0  0  0  0  0  0
   46.9414    3.9499   16.7975 H   0  0  0  0  0  0  0  0  0  0  0  0
   46.1822    2.9443   18.0159 H   0  0  0  0  0  0  0  0  0  0  0  0
   49.1342    4.5351   15.5735 H   0  0  0  0  0  0  0  0  0  0  0  0
   51.2071    4.7141   18.4212 H   0  0  0  0  0  0  0  0  0  0  0  0
   50.3100    0.9049   16.7776 H   0  0  0  0  0  0  0  0  0  0  0  0
   48.9153    5.2289   18.8993 H   0  0  0  0  0  0  0  0  0  0  0  0
   47.8336    4.3657   20.1132 H   0  0  0  0  0  0  0  0  0  0  0  0
   49.5463    3.8762   19.9349 H   0  0  0  0  0  0  0  0  0  0  0  0
   52.4999    0.0929   17.3792 H   0  0  0  0  0  0  0  0  0  0  0  0
   53.4142    3.9619   19.0508 H   0  0  0  0  0  0  0  0  0  0  0  0
   54.1098    1.5972   18.5308 H   0  0  0  0  0  0  0  0  0  0  0  0
  3  2  1  0
  4  2  1  0
  5  4  1  0
  6  2  1  0
  7  3  2  0
  8  3  1  0
  9  4  1  0
 10  8  2  0
 11  7  1  0
 12 11  2  0
 12 10  1  0
  1 13  1  0
  2 14  1  1
  4 15  1  6
  5 16  1  0
  5 17  1  0
  6 18  1  0
  7 19  1  0
  8 20  1  0
  9 21  1  0
  9 22  1  0
  9 23  1  0
 10 24  1  0
 11 25  1  0
 12 26  1  0
M  END
> <Uni-Dock RESULT> 
ENERGY=   -3.485  LOWER_BOUND=   10.016  UPPER_BOUND=   10.763
INTER + INTRA:          -3.485
INTER:                  -3.485
INTRA:                   0.000
UNBOUND:                 0.000

$$$$

     RDKit          3D

 26 25  0  0  0  0  0  0  0  0999 V2000
   39.1812   11.9133   13.0083 Cl  0  0  0  0  0  0  0  0  0  0  0  0
   38.5344   13.0173   13.9355 C   0  0  1  0  0  0  0  0  0  0  0  0
   39.0777   12.0380   12.9606 C   0  0  0  0  0  0  0  0  0  0  0  0
   38.7778   12.6079   15.3787 C   0  0  2  0  0  0  0  0  0  0  0  0
   38.1004   13.5508   16.2150 N   0  0  0  0  0  0  0  0  0  0  0  0
   39.0313   14.2993   13.7108 O   0  0  0  0  0  0  0  0  0  0  0  0
   40.4139   11.9881   12.6053 C   0  0  0  0  0  0  0  0  0  0  0  0
   38.2516   11.1079   12.3493 C   0  0  0  0  0  0  0  0  0  0  0  0
   40.2574   12.5381   15.6459 C   0  0  0  0  0  0  0  0  0  0  0  0
   38.7062   10.1802   11.4410 C   0  0  0  0  0  0  0  0  0  0  0  0
   40.9067   11.0697   11.6960 C   0  0  0  0  0  0  0  0  0  0  0  0
   40.0514   10.1563   11.1061 C   0  0  0  0  0  0  0  0  0  0  0  0
   39.2801   12.4806   14.2600 H   0  0  0  0  0  0  0  0  0  0  0  0
   37.4221   13.0712   13.7460 H   0  0  0  0  0  0  0  0  0  0  0  0
   38.3075   11.6217   15.5706 H   0  0  0  0  0  0  0  0  0  0  0  0
   37.7363   14.3877   15.7093 H   0  0  0  0  0  0  0  0  0  0  0  0
   37.4588   13.1443   16.9131 H   0  0  0  0  0  0  0  0  0  0  0  0
   38.3673   14.8866   13.2593 H   0  0  0  0  0  0  0  0  0  0  0  0
   41.1130   12.6838   13.0426 H   0  0  0  0  0  0  0  0  0  0  0  0
   37.1922   11.1180   12.6056 H   0  0  0  0  0  0  0  0  0  0  0  0
   40.7242   13.4766   15.2711 H   0  0  0  0  0  0  0  0  0  0  0  0
   40.3956   12.4396   16.7561 H   0  0  0  0  0  0  0  0  0  0  0  0
   40.7235   11.6623   15.1771 H   0  0  0  0  0  0  0  0  0  0  0  0
   37.9843    9.4896   11.0125 H   0  0  0  0  0  0  0  0  0  0  0  0
   41.9694   11.0777   11.4548 H   0  0  0  0  0  0  0  0  0  0  0  0
   40.3915    9.4250   10.3943 H   0  0  0  0  0  0  0  0  0  0  0  0
  3  2  1  0
  4  2  1  0
  5  4  1  0
  6  2  1  0
  7  3  2  0
  8  3  1  0
  9  4  1  0
 10  8  2  0
 11  7  1  0
 12 11  2  0
 12 10  1  0
  1 13  1  0
  2 14  1  1
  4 15  1  6
  5 16  1  0
  5 17  1  0
  6 18  1  0
  7 19  1  0
  8 20  1  0
  9 21  1  0
  9 22  1  0
  9 23  1  0
 10 24  1  0
 11 25  1  0
 12 26  1  0
M  END
> <Uni-Dock RESULT> 
ENERGY=   -3.262  LOWER_BOUND=   10.660  UPPER_BOUND=   12.107
INTER + INTRA:          -3.262
INTER:                  -3.262
INTRA:                   0.000
UNBOUND:                 0.000

$$$$

     RDKit          3D

 26 25  0  0  0  0  0  0  0  0999 V2000
   45.7973    4.6070   12.6723 Cl  0  0  0  0  0  0  0  0  0  0  0  0
   45.0984    3.3799   11.9633 C   0  0  1  0  0  0  0  0  0  0  0  0
   45.8735    4.4773   12.5953 C   0  0  0  0  0  0  0  0  0  0  0  0
   43.6234    3.4154   12.3281 C   0  0  2  0  0  0  0  0  0  0  0  0
   43.0134    2.2458   11.7739 N   0  0  0  0  0  0  0  0  0  0  0  0
   45.2493    3.3724   10.5784 O   0  0  0  0  0  0  0  0  0  0  0  0
   45.8953    5.7689   12.0998 C   0  0  0  0  0  0  0  0  0  0  0  0
   46.6268    4.2519   13.7368 C   0  0  0  0  0  0  0  0  0  0  0  0
   43.0063    4.6950   11.8311 C   0  0  0  0  0  0  0  0  0  0  0  0
   47.3608    5.2345   14.3597 C   0  0  0  0  0  0  0  0  0  0  0  0
   46.6215    6.7820   12.6993 C   0  0  0  0  0  0  0  0  0  0  0  0
   47.3617    6.5190   13.8381 C   0  0  0  0  0  0  0  0  0  0  0  0
   44.5827    4.1765   12.1847 H   0  0  0  0  0  0  0  0  0  0  0  0
   45.5514    2.4147   12.3364 H   0  0  0  0  0  0  0  0  0  0  0  0
   43.5099    3.3384   13.4289 H   0  0  0  0  0  0  0  0  0  0  0  0
   43.6254    1.7137   11.1173 H   0  0  0  0  0  0  0  0  0  0  0  0
   42.4737    1.6696   12.4379 H   0  0  0  0  0  0  0  0  0  0  0  0
   45.8706    2.6587   10.2713 H   0  0  0  0  0  0  0  0  0  0  0  0
   45.3318    6.0144   11.2132 H   0  0  0  0  0  0  0  0  0  0  0  0
   46.6330    3.2454   14.1553 H   0  0  0  0  0  0  0  0  0  0  0  0
   43.2960    4.8310   10.7649 H   0  0  0  0  0  0  0  0  0  0  0  0
   41.8923    4.5939   11.9319 H   0  0  0  0  0  0  0  0  0  0  0  0
   43.3133    5.5636   12.4273 H   0  0  0  0  0  0  0  0  0  0  0  0
   47.9215    4.9646   15.2510 H   0  0  0  0  0  0  0  0  0  0  0  0
   46.6007    7.7808   12.2638 H   0  0  0  0  0  0  0  0  0  0  0  0
   47.9406    7.2764   14.3365 H   0  0  0  0  0  0  0  0  0  0  0  0
  3  2  1  0
  4  2  1  0
  5  4  1  0
  6  2  1  0
  7  3  2  0
  8  3  1  0
  9  4  1  0
 10  8  2  0
 11  7  1  0
 12 11  2  0
 12 10  1  0
  1 13  1  0
  2 14  1  1
  4 15  1  6
  5 16  1  0
  5 17  1  0
  6 18  1  0
  7 19  1  0
  8 20  1  0
  9 21  1  0
  9 22  1  0
  9 23  1  0
 10 24  1  0
 11 25  1  0
 12 26  1  0
M  END
> <Uni-Dock RESULT> 
ENERGY=   -3.173  LOWER_BOUND=    4.309  UPPER_BOUND=    5.418
INTER + INTRA:          -3.173
INTER:                  -3.173
INTRA:                   0.000
UNBOUND:                 0.000

$$$$

     RDKit          3D

 26 25  0  0  0  0  0  0  0  0999 V2000
   48.5435    4.6662   19.1232 Cl  0  0  0  0  0  0  0  0  0  0  0  0
   49.3444    3.8241   18.0527 C   0  0  1  0  0  0  0  0  0  0  0  0
   48.7114    4.6521   19.1100 C   0  0  0  0  0  0  0  0  0  0  0  0
   48.3484    2.9359   17.3255 C   0  0  2  0  0  0  0  0  0  0  0  0
   49.0887    2.0983   16.4323 N   0  0  0  0  0  0  0  0  0  0  0  0
   50.0476    4.6044   17.1376 O   0  0  0  0  0  0  0  0  0  0  0  0
   48.0283    5.8252   18.8426 C   0  0  0  0  0  0  0  0  0  0  0  0
   48.7772    4.2780   20.4430 C   0  0  0  0  0  0  0  0  0  0  0  0
   47.3241    3.7870   16.6242 C   0  0  0  0  0  0  0  0  0  0  0  0
   48.2068    5.0098   21.4587 C   0  0  0  0  0  0  0  0  0  0  0  0
   47.4425    6.5867   19.8377 C   0  0  0  0  0  0  0  0  0  0  0  0
   47.5289    6.1811   21.1575 C   0  0  0  0  0  0  0  0  0  0  0  0
   48.3989    4.0165   17.9169 H   0  0  0  0  0  0  0  0  0  0  0  0
   50.1111    3.1769   18.5718 H   0  0  0  0  0  0  0  0  0  0  0  0
   47.8518    2.2604   18.0520 H   0  0  0  0  0  0  0  0  0  0  0  0
   50.0929    2.3628   16.3305 H   0  0  0  0  0  0  0  0  0  0  0  0
   48.9061    1.0867   16.5185 H   0  0  0  0  0  0  0  0  0  0  0  0
   51.0304    4.5662   17.2872 H   0  0  0  0  0  0  0  0  0  0  0  0
   47.9391    6.1760   17.8263 H   0  0  0  0  0  0  0  0  0  0  0  0
   49.3078    3.3586   20.6908 H   0  0  0  0  0  0  0  0  0  0  0  0
   47.8602    4.5727   16.0460 H   0  0  0  0  0  0  0  0  0  0  0  0
   46.7400    3.1160   15.9386 H   0  0  0  0  0  0  0  0  0  0  0  0
   46.6123    4.2423   17.3243 H   0  0  0  0  0  0  0  0  0  0  0  0
   48.3097    4.6382   22.4750 H   0  0  0  0  0  0  0  0  0  0  0  0
   46.9169    7.5022   19.5670 H   0  0  0  0  0  0  0  0  0  0  0  0
   47.0885    6.7422   21.9626 H   0  0  0  0  0  0  0  0  0  0  0  0
  3  2  1  0
  4  2  1  0
  5  4  1  0
  6  2  1  0
  7  3  2  0
  8  3  1  0
  9  4  1  0
 10  8  2  0
 11  7  1  0
 12 11  2  0
 12 10  1  0
  1 13  1  0
  2 14  1  1
  4 15  1  6
  5 16  1  0
  5 17  1  0
  6 18  1  0
  7 19  1  0
  8 20  1  0
  9 21  1  0
  9 22  1  0
  9 23  1  0
 10 24  1  0
 11 25  1  0
 12 26  1  0
M  END
> <Uni-Dock RESULT> 
ENERGY=   -3.066  LOWER_BOUND=   10.006  UPPER_BOUND=   11.640
INTER + INTRA:          -3.066
INTER:                  -3.066
INTRA:                   0.000
UNBOUND:                 0.000

$$$$

     RDKit          3D

 26 25  0  0  0  0  0  0  0  0999 V2000
   46.4122    9.2102   12.5079 Cl  0  0  0  0  0  0  0  0  0  0  0  0
   46.9633    8.0024   13.3648 C   0  0  1  0  0  0  0  0  0  0  0  0
   46.3708    9.1713   12.6670 C   0  0  0  0  0  0  0  0  0  0  0  0
   47.7251    7.0809   12.4265 C   0  0  2  0  0  0  0  0  0  0  0  0
   48.1315    5.9358   13.1819 N   0  0  0  0  0  0  0  0  0  0  0  0
   47.7822    8.3929   14.4221 O   0  0  0  0  0  0  0  0  0  0  0  0
   47.0991   10.2983   12.3297 C   0  0  0  0  0  0  0  0  0  0  0  0
   45.0306    9.1860   12.3134 C   0  0  0  0  0  0  0  0  0  0  0  0
   48.8811    7.8229   11.8112 C   0  0  0  0  0  0  0  0  0  0  0  0
   44.4351   10.2435   11.6658 C   0  0  0  0  0  0  0  0  0  0  0  0
   46.5343   11.3801   11.6787 C   0  0  0  0  0  0  0  0  0  0  0  0
   45.1927   11.3585   11.3416 C   0  0  0  0  0  0  0  0  0  0  0  0
   47.4178    8.2690   12.5451 H   0  0  0  0  0  0  0  0  0  0  0  0
   46.1011    7.4358   13.8247 H   0  0  0  0  0  0  0  0  0  0  0  0
   47.0434    6.7098   11.6339 H   0  0  0  0  0  0  0  0  0  0  0  0
   47.9867    6.0281   14.2111 H   0  0  0  0  0  0  0  0  0  0  0  0
   47.8684    5.0227   12.7802 H   0  0  0  0  0  0  0  0  0  0  0  0
   47.3402    8.2719   15.3051 H   0  0  0  0  0  0  0  0  0  0  0  0
   48.1480   10.3544   12.5758 H   0  0  0  0  0  0  0  0  0  0  0  0
   44.4259    8.3143   12.5635 H   0  0  0  0  0  0  0  0  0  0  0  0
   49.4399    8.3358   12.6259 H   0  0  0  0  0  0  0  0  0  0  0  0
   49.5320    7.0663   11.2961 H   0  0  0  0  0  0  0  0  0  0  0  0
   48.5546    8.5464   11.0535 H   0  0  0  0  0  0  0  0  0  0  0  0
   43.3772   10.1658   11.4282 H   0  0  0  0  0  0  0  0  0  0  0  0
   47.1578   12.2410   11.4383 H   0  0  0  0  0  0  0  0  0  0  0  0
   44.7127   12.1772   10.8353 H   0  0  0  0  0  0  0  0  0  0  0  0
  3  2  1  0
  4  2  1  0
  5  4  1  0
  6  2  1  0
  7  3  2  0
  8  3  1  0
  9  4  1  0
 10  8  2  0
 11  7  1  0
 12 11  2  0
 12 10  1  0
  1 13  1  0
  2 14  1  1
  4 15  1  6
  5 16  1  0
  5 17  1  0
  6 18  1  0
  7 19  1  0
  8 20  1  0
  9 21  1  0
  9 22  1  0
  9 23  1  0
 10 24  1  0
 11 25  1  0
 12 26  1  0
M  END
> <Uni-Dock RESULT> 
ENERGY=   -2.898  LOWER_BOUND=    6.711  UPPER_BOUND=    8.074
INTER + INTRA:          -2.898
INTER:                  -2.898
INTRA:                   0.000
UNBOUND:                 0.000

$$$$
