
     RDKit          3D

 48 48  0  0  0  0  0  0  0  0999 V2000
   -0.2777   -0.9722   -0.0227 C   0  0  0  0  0  0  0  0  0  0  0  0
   -1.5529   -0.4252   -0.1485 C   0  0  0  0  0  0  0  0  0  0  0  0
    0.8336   -0.1274    0.1030 C   0  0  0  0  0  0  0  0  0  0  0  0
   -2.6568   -1.2178   -0.2658 O   0  0  0  0  0  0  0  0  0  0  0  0
   -0.6398    1.7975   -0.0519 C   0  0  0  0  0  0  0  0  0  0  0  0
   -1.7413    0.9512   -0.1616 C   0  0  0  0  0  0  0  0  0  0  0  0
    0.6433    1.2609    0.0748 C   0  0  0  0  0  0  0  0  0  0  0  0
    2.2162   -0.7005    0.2050 C   0  0  0  0  0  0  0  0  0  0  0  0
    0.0426    1.0541   -0.0690 C   0  0  0  0  0  0  0  0  0  0  0  0
   -0.6170   -0.1808   -0.0355 C   0  0  0  0  0  0  0  0  0  0  0  0
   -0.6189    2.2470   -0.1490 O   0  0  0  0  0  0  0  0  0  0  0  0
   -2.1123   -0.2958   -0.0850 C   0  0  0  0  0  0  0  0  0  0  0  0
    1.4337    1.1282   -0.0214 C   0  0  0  0  0  0  0  0  0  0  0  0
    0.1611   -1.3465    0.0475 C   0  0  0  0  0  0  0  0  0  0  0  0
    1.5556   -1.2753    0.0953 C   0  0  0  0  0  0  0  0  0  0  0  0
    2.1922   -0.0374    0.0609 C   0  0  0  0  0  0  0  0  0  0  0  0
   -1.8142    0.1373    0.0706 C   0  0  0  0  0  0  0  0  0  0  0  0
    0.9719    0.0039   -0.0696 C   0  0  0  0  0  0  0  0  0  0  0  0
   -1.1817   -1.0983    0.1591 C   0  0  0  0  0  0  0  0  0  0  0  0
   -1.0763    1.3049   -0.0774 C   0  0  0  0  0  0  0  0  0  0  0  0
    0.2124   -1.1626    0.0941 C   0  0  0  0  0  0  0  0  0  0  0  0
    0.3164    1.2398   -0.1422 C   0  0  0  0  0  0  0  0  0  0  0  0
   -3.1722    0.2463    0.1301 O   0  0  0  0  0  0  0  0  0  0  0  0
    2.4701   -0.0636   -0.1052 C   0  0  0  0  0  0  0  0  0  0  0  0
   -0.1366   -2.0488   -0.0208 H   0  0  0  0  0  0  0  0  0  0  0  0
   -2.3730   -2.1459   -0.2382 H   0  0  0  0  0  0  0  0  0  0  0  0
   -0.7803    2.8749   -0.0678 H   0  0  0  0  0  0  0  0  0  0  0  0
   -2.7415    1.3625   -0.2612 H   0  0  0  0  0  0  0  0  0  0  0  0
    1.4945    1.9339    0.1521 H   0  0  0  0  0  0  0  0  0  0  0  0
    2.2010   -1.6676    0.7185 H   0  0  0  0  0  0  0  0  0  0  0  0
    2.8723   -0.0385    0.7800 H   0  0  0  0  0  0  0  0  0  0  0  0
    2.6392   -0.8369   -0.7949 H   0  0  0  0  0  0  0  0  0  0  0  0
   -1.5733    2.0819   -0.1763 H   0  0  0  0  0  0  0  0  0  0  0  0
   -2.4393   -1.3404   -0.0482 H   0  0  0  0  0  0  0  0  0  0  0  0
   -2.4949    0.1374   -1.0148 H   0  0  0  0  0  0  0  0  0  0  0  0
   -2.5604    0.2207    0.7699 H   0  0  0  0  0  0  0  0  0  0  0  0
    1.9248    2.0970   -0.0487 H   0  0  0  0  0  0  0  0  0  0  0  0
   -0.3142   -2.3248    0.0758 H   0  0  0  0  0  0  0  0  0  0  0  0
    2.1441   -2.1870    0.1595 H   0  0  0  0  0  0  0  0  0  0  0  0
    3.2764    0.0215    0.0979 H   0  0  0  0  0  0  0  0  0  0  0  0
   -1.7497   -2.0148    0.2809 H   0  0  0  0  0  0  0  0  0  0  0  0
   -1.5828    2.2637   -0.1393 H   0  0  0  0  0  0  0  0  0  0  0  0
    0.7044   -2.1296    0.1711 H   0  0  0  0  0  0  0  0  0  0  0  0
    0.8858    2.1599   -0.2507 H   0  0  0  0  0  0  0  0  0  0  0  0
   -3.5476   -0.6433    0.2315 H   0  0  0  0  0  0  0  0  0  0  0  0
    2.8831    0.7454   -0.7169 H   0  0  0  0  0  0  0  0  0  0  0  0
    2.8081   -1.0078   -0.5450 H   0  0  0  0  0  0  0  0  0  0  0  0
    2.8724    0.0186    0.9091 H   0  0  0  0  0  0  0  0  0  0  0  0
  2  1  2  0
  3  1  1  0
  4  2  1  0
  5  7  1  0
  6  2  1  0
  7  3  2  0
  8  3  1  0
  6  5  2  0
 10  9  2  0
 11  9  1  0
 12 10  1  0
 13  9  1  0
 14 10  1  0
 15 14  2  0
 16 13  2  0
 16 15  1  0
 18 21  2  0
 19 17  2  0
 20 17  1  0
 21 19  1  0
 22 20  2  0
 23 17  1  0
 24 18  1  0
 22 18  1  0
  1 25  1  0
  4 26  1  0
  5 27  1  0
  6 28  1  0
  7 29  1  0
  8 30  1  0
  8 31  1  0
  8 32  1  0
 11 33  1  0
 12 34  1  0
 12 35  1  0
 12 36  1  0
 13 37  1  0
 14 38  1  0
 15 39  1  0
 16 40  1  0
 19 41  1  0
 20 42  1  0
 21 43  1  0
 22 44  1  0
 23 45  1  0
 24 46  1  0
 24 47  1  0
 24 48  1  0
M  END
$$$$
