
     RDKit          3D

 48 48  0  0  0  0  0  0  0  0999 V2000
   -0.0743   -1.0472   -0.2171 C   0  0  0  0  0  0  0  0  0  0  0  0
    1.2993   -0.8444   -0.3076 C   0  0  0  0  0  0  0  0  0  0  0  0
   -0.9246    0.0265    0.0741 C   0  0  0  0  0  0  0  0  0  0  0  0
    2.0822   -1.9223   -0.6005 O   0  0  0  0  0  0  0  0  0  0  0  0
    1.0114    1.4874    0.2022 C   0  0  0  0  0  0  0  0  0  0  0  0
    1.8508    0.4161   -0.1026 C   0  0  0  0  0  0  0  0  0  0  0  0
   -0.3690    1.2933    0.2955 C   0  0  0  0  0  0  0  0  0  0  0  0
   -2.4024   -0.1910    0.2070 C   0  0  0  0  0  0  0  0  0  0  0  0
   -0.1438   -1.0307   -0.1792 C   0  0  0  0  0  0  0  0  0  0  0  0
    0.6003    0.1556   -0.1703 C   0  0  0  0  0  0  0  0  0  0  0  0
    0.3634   -2.2219   -0.6161 O   0  0  0  0  0  0  0  0  0  0  0  0
    2.0234    0.2161   -0.6423 C   0  0  0  0  0  0  0  0  0  0  0  0
   -1.4646   -1.0549    0.2659 C   0  0  0  0  0  0  0  0  0  0  0  0
   -0.0198    1.3242    0.3000 C   0  0  0  0  0  0  0  0  0  0  0  0
   -1.3434    1.3030    0.7468 C   0  0  0  0  0  0  0  0  0  0  0  0
   -2.0661    0.1129    0.7297 C   0  0  0  0  0  0  0  0  0  0  0  0
    1.8202   -0.0033   -0.0465 C   0  0  0  0  0  0  0  0  0  0  0  0
   -0.9715   -0.0756   -0.0067 C   0  0  0  0  0  0  0  0  0  0  0  0
    1.1213    0.9219    0.7217 C   0  0  0  0  0  0  0  0  0  0  0  0
    1.1460   -0.9558   -0.8002 C   0  0  0  0  0  0  0  0  0  0  0  0
   -0.2753    0.8875    0.7362 C   0  0  0  0  0  0  0  0  0  0  0  0
   -0.2492   -0.9894   -0.7852 C   0  0  0  0  0  0  0  0  0  0  0  0
    3.1831   -0.0056   -0.0904 O   0  0  0  0  0  0  0  0  0  0  0  0
   -2.4715   -0.0896   -0.0167 C   0  0  0  0  0  0  0  0  0  0  0  0
   -0.4765   -2.0445   -0.3752 H   0  0  0  0  0  0  0  0  0  0  0  0
    3.0078   -1.6306   -0.6306 H   0  0  0  0  0  0  0  0  0  0  0  0
    1.4308    2.4759    0.3707 H   0  0  0  0  0  0  0  0  0  0  0  0
    2.9209    0.5817   -0.1710 H   0  0  0  0  0  0  0  0  0  0  0  0
   -1.0095    2.1375    0.5413 H   0  0  0  0  0  0  0  0  0  0  0  0
   -2.6507   -0.4527    1.2401 H   0  0  0  0  0  0  0  0  0  0  0  0
   -2.7395   -0.9968   -0.4535 H   0  0  0  0  0  0  0  0  0  0  0  0
   -2.9567    0.7110   -0.0729 H   0  0  0  0  0  0  0  0  0  0  0  0
    1.2808   -2.0935   -0.9005 H   0  0  0  0  0  0  0  0  0  0  0  0
    2.0865   -0.0799   -1.6943 H   0  0  0  0  0  0  0  0  0  0  0  0
    2.4348    1.2276   -0.5585 H   0  0  0  0  0  0  0  0  0  0  0  0
    2.6513   -0.4467   -0.0382 H   0  0  0  0  0  0  0  0  0  0  0  0
   -2.0235   -1.9865    0.2502 H   0  0  0  0  0  0  0  0  0  0  0  0
    0.5252    2.2656    0.3226 H   0  0  0  0  0  0  0  0  0  0  0  0
   -1.8093    2.2162    1.1079 H   0  0  0  0  0  0  0  0  0  0  0  0
   -3.0955    0.0929    1.0764 H   0  0  0  0  0  0  0  0  0  0  0  0
    1.6394    1.6731    1.3087 H   0  0  0  0  0  0  0  0  0  0  0  0
    1.7041   -1.6686   -1.4003 H   0  0  0  0  0  0  0  0  0  0  0  0
   -0.8191    1.6172    1.3320 H   0  0  0  0  0  0  0  0  0  0  0  0
   -0.7682   -1.7339   -1.3843 H   0  0  0  0  0  0  0  0  0  0  0  0
    3.5101    0.7075    0.4816 H   0  0  0  0  0  0  0  0  0  0  0  0
   -2.8716    0.2644    0.9393 H   0  0  0  0  0  0  0  0  0  0  0  0
   -2.8516   -1.1048   -0.1713 H   0  0  0  0  0  0  0  0  0  0  0  0
   -2.8462    0.5548   -0.8178 H   0  0  0  0  0  0  0  0  0  0  0  0
  2  1  2  0
  3  1  1  0
  4  2  1  0
  5  7  1  0
  6  2  1  0
  7  3  2  0
  8  3  1  0
  6  5  2  0
 10  9  2  0
 11  9  1  0
 12 10  1  0
 13  9  1  0
 14 10  1  0
 15 14  2  0
 16 13  2  0
 16 15  1  0
 18 21  2  0
 19 17  2  0
 20 17  1  0
 21 19  1  0
 22 20  2  0
 23 17  1  0
 24 18  1  0
 22 18  1  0
  1 25  1  0
  4 26  1  0
  5 27  1  0
  6 28  1  0
  7 29  1  0
  8 30  1  0
  8 31  1  0
  8 32  1  0
 11 33  1  0
 12 34  1  0
 12 35  1  0
 12 36  1  0
 13 37  1  0
 14 38  1  0
 15 39  1  0
 16 40  1  0
 19 41  1  0
 20 42  1  0
 21 43  1  0
 22 44  1  0
 23 45  1  0
 24 46  1  0
 24 47  1  0
 24 48  1  0
M  END
$$$$
