
     RDKit          2D

 24 24  0  0  0  0  0  0  0  0999 V2000
    0.7875   -0.0917    0.0000 C   0  0  0  0  0  0  0  0  0  0  0  0
    0.0792    0.3083    0.0000 C   0  0  0  0  0  0  0  0  0  0  0  0
    0.7875   -0.9042    0.0000 C   0  0  0  0  0  0  0  0  0  0  0  0
    0.0792    1.1208    0.0000 O   0  0  0  0  0  0  0  0  0  0  0  0
   -0.6208   -0.9042    0.0000 C   0  0  0  0  0  0  0  0  0  0  0  0
   -0.6208   -0.0917    0.0000 C   0  0  0  0  0  0  0  0  0  0  0  0
    0.0792   -1.3167    0.0000 C   0  0  0  0  0  0  0  0  0  0  0  0
    1.4875   -1.3167    0.0000 C   0  0  0  0  0  0  0  0  0  0  0  0
   -2.7750   -1.9667    0.0000 C   0  0  0  0  0  0  0  0  0  0  0  0
   -2.0708   -2.3667    0.0000 C   0  0  0  0  0  0  0  0  0  0  0  0
   -2.7750   -1.1542    0.0000 O   0  0  0  0  0  0  0  0  0  0  0  0
   -1.3708   -1.9667    0.0000 C   0  0  0  0  0  0  0  0  0  0  0  0
   -3.4833   -2.3667    0.0000 C   0  0  0  0  0  0  0  0  0  0  0  0
   -2.0708   -3.1792    0.0000 C   0  0  0  0  0  0  0  0  0  0  0  0
   -2.7750   -3.5917    0.0000 C   0  0  0  0  0  0  0  0  0  0  0  0
   -3.4833   -3.1792    0.0000 C   0  0  0  0  0  0  0  0  0  0  0  0
    2.7667    2.6875    0.0000 C   0  0  0  0  0  0  0  0  0  0  0  0
    2.7667    1.0625    0.0000 C   0  0  0  0  0  0  0  0  0  0  0  0
    2.0625    2.2833    0.0000 C   0  0  0  0  0  0  0  0  0  0  0  0
    3.4750    2.2833    0.0000 C   0  0  0  0  0  0  0  0  0  0  0  0
    2.0625    1.4750    0.0000 C   0  0  0  0  0  0  0  0  0  0  0  0
    3.4750    1.4750    0.0000 C   0  0  0  0  0  0  0  0  0  0  0  0
    2.7667    3.5000    0.0000 O   0  0  0  0  0  0  0  0  0  0  0  0
    2.7667    0.2583    0.0000 C   0  0  0  0  0  0  0  0  0  0  0  0
  2  1  1  0
  3  1  2  0
  4  2  1  0
  5  7  2  0
  6  2  2  0
  7  3  1  0
  8  3  1  0
  6  5  1  0
 10  9  1  0
 11  9  1  0
 12 10  1  0
 13  9  2  0
 14 10  2  0
 15 14  1  0
 16 13  1  0
 16 15  2  0
 18 21  2  0
 19 17  2  0
 20 17  1  0
 21 19  1  0
 22 20  2  0
 23 17  1  0
 24 18  1  0
 22 18  1  0
M  END
> <chembl_id>
CHEMBL1410808

> <chembl_pref_name>
CRESOL
