
     RDKit          3D

 48 48  0  0  0  0  0  0  0  0999 V2000
   -0.3392   -0.8755    0.3759 C   0  0  0  0  0  0  0  0  0  0  0  0
   -1.5448   -0.4448   -0.1739 C   0  0  0  0  0  0  0  0  0  0  0  0
    0.8112   -0.0870    0.2368 C   0  0  0  0  0  0  0  0  0  0  0  0
   -2.6818   -1.1902   -0.0633 O   0  0  0  0  0  0  0  0  0  0  0  0
   -0.4922    1.5607   -0.9824 C   0  0  0  0  0  0  0  0  0  0  0  0
   -1.6284    0.7645   -0.8527 C   0  0  0  0  0  0  0  0  0  0  0  0
    0.7218    1.1396   -0.4355 C   0  0  0  0  0  0  0  0  0  0  0  0
    2.1087   -0.5206    0.8523 C   0  0  0  0  0  0  0  0  0  0  0  0
   -0.0304    1.0256   -0.2499 C   0  0  0  0  0  0  0  0  0  0  0  0
    0.6077   -0.1593    0.1376 C   0  0  0  0  0  0  0  0  0  0  0  0
    0.6363    2.2056   -0.4225 O   0  0  0  0  0  0  0  0  0  0  0  0
    2.0841   -0.2303    0.3964 C   0  0  0  0  0  0  0  0  0  0  0  0
   -1.4043    1.0597   -0.4832 C   0  0  0  0  0  0  0  0  0  0  0  0
   -0.1741   -1.3160    0.2858 C   0  0  0  0  0  0  0  0  0  0  0  0
   -1.5513   -1.2848    0.0527 C   0  0  0  0  0  0  0  0  0  0  0  0
   -2.1666   -0.0964   -0.3319 C   0  0  0  0  0  0  0  0  0  0  0  0
    1.8073    0.1359   -0.1741 C   0  0  0  0  0  0  0  0  0  0  0  0
   -0.9671    0.0068    0.1190 C   0  0  0  0  0  0  0  0  0  0  0  0
    1.0705    1.3097   -0.0781 C   0  0  0  0  0  0  0  0  0  0  0  0
    1.1790   -1.1044   -0.1351 C   0  0  0  0  0  0  0  0  0  0  0  0
   -0.3166    1.2463    0.0630 C   0  0  0  0  0  0  0  0  0  0  0  0
   -0.2095   -1.1669    0.0062 C   0  0  0  0  0  0  0  0  0  0  0  0
    3.1597    0.2434   -0.3115 O   0  0  0  0  0  0  0  0  0  0  0  0
   -2.4610   -0.0614    0.2367 C   0  0  0  0  0  0  0  0  0  0  0  0
   -0.2824   -1.8181    0.9119 H   0  0  0  0  0  0  0  0  0  0  0  0
   -2.4714   -2.0004    0.4286 H   0  0  0  0  0  0  0  0  0  0  0  0
   -0.5529    2.5104   -1.5068 H   0  0  0  0  0  0  0  0  0  0  0  0
   -2.5754    1.0870   -1.2751 H   0  0  0  0  0  0  0  0  0  0  0  0
    1.5988    1.7750   -0.5382 H   0  0  0  0  0  0  0  0  0  0  0  0
    2.9601   -0.1384    0.2794 H   0  0  0  0  0  0  0  0  0  0  0  0
    2.1779   -0.1494    1.8794 H   0  0  0  0  0  0  0  0  0  0  0  0
    2.1898   -1.6126    0.8638 H   0  0  0  0  0  0  0  0  0  0  0  0
    1.5777    2.0710   -0.2362 H   0  0  0  0  0  0  0  0  0  0  0  0
    2.6404    0.0386   -0.5073 H   0  0  0  0  0  0  0  0  0  0  0  0
    2.3591    0.4487    1.2099 H   0  0  0  0  0  0  0  0  0  0  0  0
    2.3956   -1.2388    0.6883 H   0  0  0  0  0  0  0  0  0  0  0  0
   -1.8789    1.9899   -0.7831 H   0  0  0  0  0  0  0  0  0  0  0  0
    0.2849   -2.2559    0.5855 H   0  0  0  0  0  0  0  0  0  0  0  0
   -2.1428   -2.1889    0.1718 H   0  0  0  0  0  0  0  0  0  0  0  0
   -3.2374   -0.0687   -0.5139 H   0  0  0  0  0  0  0  0  0  0  0  0
    1.5733    2.2716   -0.1159 H   0  0  0  0  0  0  0  0  0  0  0  0
    1.7459   -2.0261   -0.2155 H   0  0  0  0  0  0  0  0  0  0  0  0
   -0.8856    2.1706    0.1299 H   0  0  0  0  0  0  0  0  0  0  0  0
   -0.6986   -2.1382    0.0288 H   0  0  0  0  0  0  0  0  0  0  0  0
    3.5352   -0.6504   -0.3638 H   0  0  0  0  0  0  0  0  0  0  0  0
   -2.9152   -0.0582   -0.7590 H   0  0  0  0  0  0  0  0  0  0  0  0
   -2.7701   -0.9699    0.7643 H   0  0  0  0  0  0  0  0  0  0  0  0
   -2.8474    0.7911    0.8051 H   0  0  0  0  0  0  0  0  0  0  0  0
  2  1  2  0
  3  1  1  0
  4  2  1  0
  5  7  1  0
  6  2  1  0
  7  3  2  0
  8  3  1  0
  6  5  2  0
 10  9  2  0
 11  9  1  0
 12 10  1  0
 13  9  1  0
 14 10  1  0
 15 14  2  0
 16 13  2  0
 16 15  1  0
 18 21  2  0
 19 17  2  0
 20 17  1  0
 21 19  1  0
 22 20  2  0
 23 17  1  0
 24 18  1  0
 22 18  1  0
  1 25  1  0
  4 26  1  0
  5 27  1  0
  6 28  1  0
  7 29  1  0
  8 30  1  0
  8 31  1  0
  8 32  1  0
 11 33  1  0
 12 34  1  0
 12 35  1  0
 12 36  1  0
 13 37  1  0
 14 38  1  0
 15 39  1  0
 16 40  1  0
 19 41  1  0
 20 42  1  0
 21 43  1  0
 22 44  1  0
 23 45  1  0
 24 46  1  0
 24 47  1  0
 24 48  1  0
M  END
$$$$
