
     RDKit          3D

 48 48  0  0  0  0  0  0  0  0999 V2000
   -0.2884   -0.9660    0.0803 C   0  0  0  0  0  0  0  0  0  0  0  0
   -1.5537   -0.4256   -0.1389 C   0  0  0  0  0  0  0  0  0  0  0  0
    0.8345   -0.1274    0.0952 C   0  0  0  0  0  0  0  0  0  0  0  0
   -2.6669   -1.2134   -0.1666 O   0  0  0  0  0  0  0  0  0  0  0  0
   -0.6131    1.7814   -0.3059 C   0  0  0  0  0  0  0  0  0  0  0  0
   -1.7231    0.9395   -0.3339 C   0  0  0  0  0  0  0  0  0  0  0  0
    0.6602    1.2514   -0.0871 C   0  0  0  0  0  0  0  0  0  0  0  0
    2.1993   -0.6893    0.3637 C   0  0  0  0  0  0  0  0  0  0  0  0
   -0.0546    0.9928   -0.0297 C   0  0  0  0  0  0  0  0  0  0  0  0
   -0.6657   -0.2537   -0.2002 C   0  0  0  0  0  0  0  0  0  0  0  0
   -0.7889    2.1206   -0.2690 O   0  0  0  0  0  0  0  0  0  0  0  0
   -2.0979   -0.3570   -0.6366 C   0  0  0  0  0  0  0  0  0  0  0  0
    1.2760    1.0940    0.3757 C   0  0  0  0  0  0  0  0  0  0  0  0
    0.0875   -1.4098    0.0452 C   0  0  0  0  0  0  0  0  0  0  0  0
    1.4202   -1.3153    0.4514 C   0  0  0  0  0  0  0  0  0  0  0  0
    2.0136   -0.0648    0.6164 C   0  0  0  0  0  0  0  0  0  0  0  0
   -1.8198   -0.0093   -0.0588 C   0  0  0  0  0  0  0  0  0  0  0  0
    0.9692    0.0853    0.0541 C   0  0  0  0  0  0  0  0  0  0  0  0
   -1.1728    1.2200   -0.0584 C   0  0  0  0  0  0  0  0  0  0  0  0
   -1.0949   -1.1954   -0.0127 C   0  0  0  0  0  0  0  0  0  0  0  0
    0.2212    1.2683   -0.0074 C   0  0  0  0  0  0  0  0  0  0  0  0
    0.3004   -1.1462    0.0384 C   0  0  0  0  0  0  0  0  0  0  0  0
   -3.1825   -0.0108   -0.1100 O   0  0  0  0  0  0  0  0  0  0  0  0
    2.4683    0.1358    0.0747 C   0  0  0  0  0  0  0  0  0  0  0  0
   -0.1638   -2.0329    0.2396 H   0  0  0  0  0  0  0  0  0  0  0  0
   -2.3957   -2.1339   -0.0194 H   0  0  0  0  0  0  0  0  0  0  0  0
   -0.7401    2.8507   -0.4516 H   0  0  0  0  0  0  0  0  0  0  0  0
   -2.7159    1.3459   -0.5028 H   0  0  0  0  0  0  0  0  0  0  0  0
    1.5165    1.9217   -0.0605 H   0  0  0  0  0  0  0  0  0  0  0  0
    2.3953   -0.6974    1.4402 H   0  0  0  0  0  0  0  0  0  0  0  0
    2.9721   -0.0930   -0.1326 H   0  0  0  0  0  0  0  0  0  0  0  0
    2.2828   -1.7118   -0.0195 H   0  0  0  0  0  0  0  0  0  0  0  0
   -0.2271    2.8955   -0.1075 H   0  0  0  0  0  0  0  0  0  0  0  0
   -2.2302    0.1110   -1.6175 H   0  0  0  0  0  0  0  0  0  0  0  0
   -2.7525    0.1334    0.0911 H   0  0  0  0  0  0  0  0  0  0  0  0
   -2.4176   -1.4010   -0.7207 H   0  0  0  0  0  0  0  0  0  0  0  0
    1.7517    2.0604    0.5084 H   0  0  0  0  0  0  0  0  0  0  0  0
   -0.3601   -2.3932   -0.0787 H   0  0  0  0  0  0  0  0  0  0  0  0
    1.9947   -2.2189    0.6389 H   0  0  0  0  0  0  0  0  0  0  0  0
    3.0510    0.0058    0.9326 H   0  0  0  0  0  0  0  0  0  0  0  0
   -1.7509    2.1385   -0.1006 H   0  0  0  0  0  0  0  0  0  0  0  0
   -1.5917   -2.1601   -0.0187 H   0  0  0  0  0  0  0  0  0  0  0  0
    0.7190    2.2351   -0.0151 H   0  0  0  0  0  0  0  0  0  0  0  0
    0.8647   -2.0757    0.0667 H   0  0  0  0  0  0  0  0  0  0  0  0
   -3.4892   -0.9319   -0.1019 H   0  0  0  0  0  0  0  0  0  0  0  0
    2.8805   -0.7222    0.6160 H   0  0  0  0  0  0  0  0  0  0  0  0
    2.8569    0.1290   -0.9483 H   0  0  0  0  0  0  0  0  0  0  0  0
    2.8217    1.0396    0.5820 H   0  0  0  0  0  0  0  0  0  0  0  0
  2  1  2  0
  3  1  1  0
  4  2  1  0
  5  7  1  0
  6  2  1  0
  7  3  2  0
  8  3  1  0
  6  5  2  0
 10  9  2  0
 11  9  1  0
 12 10  1  0
 13  9  1  0
 14 10  1  0
 15 14  2  0
 16 13  2  0
 16 15  1  0
 18 21  2  0
 19 17  2  0
 20 17  1  0
 21 19  1  0
 22 20  2  0
 23 17  1  0
 24 18  1  0
 22 18  1  0
  1 25  1  0
  4 26  1  0
  5 27  1  0
  6 28  1  0
  7 29  1  0
  8 30  1  0
  8 31  1  0
  8 32  1  0
 11 33  1  0
 12 34  1  0
 12 35  1  0
 12 36  1  0
 13 37  1  0
 14 38  1  0
 15 39  1  0
 16 40  1  0
 19 41  1  0
 20 42  1  0
 21 43  1  0
 22 44  1  0
 23 45  1  0
 24 46  1  0
 24 47  1  0
 24 48  1  0
M  END
$$$$
