
     RDKit          3D

 48 48  0  0  0  0  0  0  0  0999 V2000
   -0.1023   -1.0027    0.0830 C   0  0  0  0  0  0  0  0  0  0  0  0
   -1.4438   -0.7112   -0.1549 C   0  0  0  0  0  0  0  0  0  0  0  0
    0.8356    0.0367    0.1487 C   0  0  0  0  0  0  0  0  0  0  0  0
   -2.3841   -1.6974   -0.2182 O   0  0  0  0  0  0  0  0  0  0  0  0
   -0.9390    1.6362   -0.2898 C   0  0  0  0  0  0  0  0  0  0  0  0
   -1.8680    0.5988   -0.3392 C   0  0  0  0  0  0  0  0  0  0  0  0
    0.4083    1.3564   -0.0520 C   0  0  0  0  0  0  0  0  0  0  0  0
    2.2886   -0.2636    0.3702 C   0  0  0  0  0  0  0  0  0  0  0  0
    0.2463   -0.9604    0.0801 C   0  0  0  0  0  0  0  0  0  0  0  0
    0.6312    0.3711   -0.1075 C   0  0  0  0  0  0  0  0  0  0  0  0
    1.2126   -1.9272    0.0849 O   0  0  0  0  0  0  0  0  0  0  0  0
    2.0739    0.7368   -0.3000 C   0  0  0  0  0  0  0  0  0  0  0  0
   -1.0931   -1.3054    0.2593 C   0  0  0  0  0  0  0  0  0  0  0  0
   -0.3599    1.3620   -0.1124 C   0  0  0  0  0  0  0  0  0  0  0  0
   -1.7028    1.0232    0.0666 C   0  0  0  0  0  0  0  0  0  0  0  0
   -2.0687   -0.3089    0.2522 C   0  0  0  0  0  0  0  0  0  0  0  0
   -1.8194   -0.0694   -0.0080 C   0  0  0  0  0  0  0  0  0  0  0  0
    0.9732   -0.0414   -0.0244 C   0  0  0  0  0  0  0  0  0  0  0  0
   -1.1456    1.1455    0.0607 C   0  0  0  0  0  0  0  0  0  0  0  0
   -1.1200   -1.2677   -0.0755 C   0  0  0  0  0  0  0  0  0  0  0  0
    0.2514    1.1571    0.0578 C   0  0  0  0  0  0  0  0  0  0  0  0
    0.2757   -1.2551   -0.0784 C   0  0  0  0  0  0  0  0  0  0  0  0
   -3.1818   -0.1273   -0.0072 O   0  0  0  0  0  0  0  0  0  0  0  0
    2.4730   -0.0291    0.0068 C   0  0  0  0  0  0  0  0  0  0  0  0
    0.2238   -2.0295    0.2186 H   0  0  0  0  0  0  0  0  0  0  0  0
   -1.9450   -2.5505   -0.0696 H   0  0  0  0  0  0  0  0  0  0  0  0
   -1.2639    2.6623   -0.4394 H   0  0  0  0  0  0  0  0  0  0  0  0
   -2.9170    0.8101   -0.5245 H   0  0  0  0  0  0  0  0  0  0  0  0
    1.1233    2.1758   -0.0236 H   0  0  0  0  0  0  0  0  0  0  0  0
    2.7864   -0.4315   -0.5898 H   0  0  0  0  0  0  0  0  0  0  0  0
    2.4123   -1.1549    0.9943 H   0  0  0  0  0  0  0  0  0  0  0  0
    2.7848    0.5650    0.8863 H   0  0  0  0  0  0  0  0  0  0  0  0
    0.7876   -2.7886    0.2248 H   0  0  0  0  0  0  0  0  0  0  0  0
    2.4745    0.2437   -1.1915 H   0  0  0  0  0  0  0  0  0  0  0  0
    2.6608    0.4386    0.5748 H   0  0  0  0  0  0  0  0  0  0  0  0
    2.2000    1.8166   -0.4324 H   0  0  0  0  0  0  0  0  0  0  0  0
   -1.3935   -2.3380    0.4050 H   0  0  0  0  0  0  0  0  0  0  0  0
   -0.0916    2.4061   -0.2560 H   0  0  0  0  0  0  0  0  0  0  0  0
   -2.4628    1.8003    0.0609 H   0  0  0  0  0  0  0  0  0  0  0  0
   -3.1145   -0.5698    0.3912 H   0  0  0  0  0  0  0  0  0  0  0  0
   -1.6836    2.0858    0.1198 H   0  0  0  0  0  0  0  0  0  0  0  0
   -1.6589   -2.2095   -0.1229 H   0  0  0  0  0  0  0  0  0  0  0  0
    0.7755    2.1083    0.1193 H   0  0  0  0  0  0  0  0  0  0  0  0
    0.8144   -2.1987   -0.1240 H   0  0  0  0  0  0  0  0  0  0  0  0
   -3.5278    0.7786    0.0415 H   0  0  0  0  0  0  0  0  0  0  0  0
    2.8261   -0.0838    1.0411 H   0  0  0  0  0  0  0  0  0  0  0  0
    2.8656    0.8835   -0.4539 H   0  0  0  0  0  0  0  0  0  0  0  0
    2.8823   -0.8768   -0.5528 H   0  0  0  0  0  0  0  0  0  0  0  0
  2  1  2  0
  3  1  1  0
  4  2  1  0
  5  7  1  0
  6  2  1  0
  7  3  2  0
  8  3  1  0
  6  5  2  0
 10  9  2  0
 11  9  1  0
 12 10  1  0
 13  9  1  0
 14 10  1  0
 15 14  2  0
 16 13  2  0
 16 15  1  0
 18 21  2  0
 19 17  2  0
 20 17  1  0
 21 19  1  0
 22 20  2  0
 23 17  1  0
 24 18  1  0
 22 18  1  0
  1 25  1  0
  4 26  1  0
  5 27  1  0
  6 28  1  0
  7 29  1  0
  8 30  1  0
  8 31  1  0
  8 32  1  0
 11 33  1  0
 12 34  1  0
 12 35  1  0
 12 36  1  0
 13 37  1  0
 14 38  1  0
 15 39  1  0
 16 40  1  0
 19 41  1  0
 20 42  1  0
 21 43  1  0
 22 44  1  0
 23 45  1  0
 24 46  1  0
 24 47  1  0
 24 48  1  0
M  END
$$$$
