
     RDKit          3D

 48 48  0  0  0  0  0  0  0  0999 V2000
    0.0952   -0.9930    0.3527 C   0  0  0  0  0  0  0  0  0  0  0  0
    1.4271   -0.6549    0.1341 C   0  0  0  0  0  0  0  0  0  0  0  0
   -0.9189   -0.0703    0.0684 C   0  0  0  0  0  0  0  0  0  0  0  0
    2.3763   -1.5875    0.4341 O   0  0  0  0  0  0  0  0  0  0  0  0
    0.7679    1.5109   -0.6753 C   0  0  0  0  0  0  0  0  0  0  0  0
    1.7736    0.5920   -0.3760 C   0  0  0  0  0  0  0  0  0  0  0  0
   -0.5721    1.1802   -0.4594 C   0  0  0  0  0  0  0  0  0  0  0  0
   -2.3583   -0.4399    0.2693 C   0  0  0  0  0  0  0  0  0  0  0  0
   -0.0892    0.9148   -0.5683 C   0  0  0  0  0  0  0  0  0  0  0  0
    0.4534    0.0645    0.4032 C   0  0  0  0  0  0  0  0  0  0  0  0
    0.3197    2.2078   -0.7351 O   0  0  0  0  0  0  0  0  0  0  0  0
    1.5344    0.5063    1.3456 C   0  0  0  0  0  0  0  0  0  0  0  0
   -1.0930    0.4749   -1.4297 C   0  0  0  0  0  0  0  0  0  0  0  0
   -0.0409   -1.2469    0.4879 C   0  0  0  0  0  0  0  0  0  0  0  0
   -1.0469   -1.6905   -0.3741 C   0  0  0  0  0  0  0  0  0  0  0  0
   -1.5732   -0.8292   -1.3333 C   0  0  0  0  0  0  0  0  0  0  0  0
    1.7977    0.2846    0.0507 C   0  0  0  0  0  0  0  0  0  0  0  0
   -0.9712   -0.0699   -0.0378 C   0  0  0  0  0  0  0  0  0  0  0  0
    1.2758   -0.9864   -0.1655 C   0  0  0  0  0  0  0  0  0  0  0  0
    0.9583    1.3766    0.2319 C   0  0  0  0  0  0  0  0  0  0  0  0
   -0.1096   -1.1627   -0.2042 C   0  0  0  0  0  0  0  0  0  0  0  0
   -0.4256    1.1996    0.1931 C   0  0  0  0  0  0  0  0  0  0  0  0
    3.1431    0.5020    0.0967 O   0  0  0  0  0  0  0  0  0  0  0  0
   -2.4583   -0.2665   -0.0458 C   0  0  0  0  0  0  0  0  0  0  0  0
   -0.1464   -1.9772    0.7456 H   0  0  0  0  0  0  0  0  0  0  0  0
    3.2491   -1.2134    0.2321 H   0  0  0  0  0  0  0  0  0  0  0  0
    1.0255    2.4861   -1.0803 H   0  0  0  0  0  0  0  0  0  0  0  0
    2.8099    0.8624   -0.5496 H   0  0  0  0  0  0  0  0  0  0  0  0
   -1.3452    1.9051   -0.7048 H   0  0  0  0  0  0  0  0  0  0  0  0
   -2.9593    0.4445    0.5057 H   0  0  0  0  0  0  0  0  0  0  0  0
   -2.4691   -1.1399    1.1041 H   0  0  0  0  0  0  0  0  0  0  0  0
   -2.7553   -0.9052   -0.6382 H   0  0  0  0  0  0  0  0  0  0  0  0
    1.0147    2.4088   -0.0905 H   0  0  0  0  0  0  0  0  0  0  0  0
    2.4264    0.8048    0.7856 H   0  0  0  0  0  0  0  0  0  0  0  0
    1.1864    1.3476    1.9535 H   0  0  0  0  0  0  0  0  0  0  0  0
    1.8275   -0.2969    2.0301 H   0  0  0  0  0  0  0  0  0  0  0  0
   -1.4999    1.1515   -2.1762 H   0  0  0  0  0  0  0  0  0  0  0  0
    0.3552   -1.9375    1.2295 H   0  0  0  0  0  0  0  0  0  0  0  0
   -1.4190   -2.7088   -0.2959 H   0  0  0  0  0  0  0  0  0  0  0  0
   -2.3556   -1.1711   -2.0051 H   0  0  0  0  0  0  0  0  0  0  0  0
    1.9238   -1.8460   -0.3019 H   0  0  0  0  0  0  0  0  0  0  0  0
    1.3792    2.3626    0.4057 H   0  0  0  0  0  0  0  0  0  0  0  0
   -0.5146   -2.1591   -0.3659 H   0  0  0  0  0  0  0  0  0  0  0  0
   -1.0745    2.0592    0.3434 H   0  0  0  0  0  0  0  0  0  0  0  0
    3.5961   -0.3446   -0.0468 H   0  0  0  0  0  0  0  0  0  0  0  0
   -2.9688    0.6293   -0.4147 H   0  0  0  0  0  0  0  0  0  0  0  0
   -2.7391   -1.0945   -0.7052 H   0  0  0  0  0  0  0  0  0  0  0  0
   -2.8123   -0.4843    0.9665 H   0  0  0  0  0  0  0  0  0  0  0  0
  2  1  2  0
  3  1  1  0
  4  2  1  0
  5  7  1  0
  6  2  1  0
  7  3  2  0
  8  3  1  0
  6  5  2  0
 10  9  2  0
 11  9  1  0
 12 10  1  0
 13  9  1  0
 14 10  1  0
 15 14  2  0
 16 13  2  0
 16 15  1  0
 18 21  2  0
 19 17  2  0
 20 17  1  0
 21 19  1  0
 22 20  2  0
 23 17  1  0
 24 18  1  0
 22 18  1  0
  1 25  1  0
  4 26  1  0
  5 27  1  0
  6 28  1  0
  7 29  1  0
  8 30  1  0
  8 31  1  0
  8 32  1  0
 11 33  1  0
 12 34  1  0
 12 35  1  0
 12 36  1  0
 13 37  1  0
 14 38  1  0
 15 39  1  0
 16 40  1  0
 19 41  1  0
 20 42  1  0
 21 43  1  0
 22 44  1  0
 23 45  1  0
 24 46  1  0
 24 47  1  0
 24 48  1  0
M  END
$$$$
