
     RDKit          3D

 48 48  0  0  0  0  0  0  0  0999 V2000
    0.4444   -0.9063   -0.0629 C   0  0  0  0  0  0  0  0  0  0  0  0
    1.6098   -0.1484    0.0290 C   0  0  0  0  0  0  0  0  0  0  0  0
   -0.8035   -0.2681   -0.0643 C   0  0  0  0  0  0  0  0  0  0  0  0
    2.8407   -0.7362    0.0262 O   0  0  0  0  0  0  0  0  0  0  0  0
    0.3176    1.8765    0.1442 C   0  0  0  0  0  0  0  0  0  0  0  0
    1.5551    1.2361    0.1301 C   0  0  0  0  0  0  0  0  0  0  0  0
   -0.8575    1.1276    0.0526 C   0  0  0  0  0  0  0  0  0  0  0  0
   -2.0683   -1.0723   -0.1284 C   0  0  0  0  0  0  0  0  0  0  0  0
   -0.0228    1.0542    0.0581 C   0  0  0  0  0  0  0  0  0  0  0  0
    0.6080   -0.1961    0.0744 C   0  0  0  0  0  0  0  0  0  0  0  0
    0.6544    2.2295    0.2222 O   0  0  0  0  0  0  0  0  0  0  0  0
    2.0873   -0.3481    0.2745 C   0  0  0  0  0  0  0  0  0  0  0  0
   -1.3997    1.1629   -0.1300 C   0  0  0  0  0  0  0  0  0  0  0  0
   -0.1844   -1.3413   -0.1041 C   0  0  0  0  0  0  0  0  0  0  0  0
   -1.5646   -1.2354   -0.2929 C   0  0  0  0  0  0  0  0  0  0  0  0
   -2.1726    0.0173   -0.3059 C   0  0  0  0  0  0  0  0  0  0  0  0
    1.8104   -0.1943    0.0057 C   0  0  0  0  0  0  0  0  0  0  0  0
   -0.9707    0.0510   -0.0677 C   0  0  0  0  0  0  0  0  0  0  0  0
    1.0547   -1.1364   -0.6808 C   0  0  0  0  0  0  0  0  0  0  0  0
    1.1980    0.8660    0.6655 C   0  0  0  0  0  0  0  0  0  0  0  0
   -0.3356   -1.0177   -0.7136 C   0  0  0  0  0  0  0  0  0  0  0  0
   -0.1937    0.9841    0.6321 C   0  0  0  0  0  0  0  0  0  0  0  0
    3.1652   -0.3484    0.0128 O   0  0  0  0  0  0  0  0  0  0  0  0
   -2.4668    0.1602   -0.0741 C   0  0  0  0  0  0  0  0  0  0  0  0
    0.4939   -1.9887   -0.1340 H   0  0  0  0  0  0  0  0  0  0  0  0
    2.7224   -1.6967   -0.0515 H   0  0  0  0  0  0  0  0  0  0  0  0
    0.2683    2.9587    0.2293 H   0  0  0  0  0  0  0  0  0  0  0  0
    2.4723    1.8131    0.2019 H   0  0  0  0  0  0  0  0  0  0  0  0
   -1.8165    1.6406    0.0722 H   0  0  0  0  0  0  0  0  0  0  0  0
   -2.3908   -1.3433    0.8816 H   0  0  0  0  0  0  0  0  0  0  0  0
   -2.8682   -0.5047   -0.6154 H   0  0  0  0  0  0  0  0  0  0  0  0
   -1.9197   -1.9878   -0.7106 H   0  0  0  0  0  0  0  0  0  0  0  0
    1.5970    2.0408    0.3445 H   0  0  0  0  0  0  0  0  0  0  0  0
    2.3921   -1.3999    0.2562 H   0  0  0  0  0  0  0  0  0  0  0  0
    2.6324    0.1674   -0.5227 H   0  0  0  0  0  0  0  0  0  0  0  0
    2.3827    0.0644    1.2446 H   0  0  0  0  0  0  0  0  0  0  0  0
   -1.8685    2.1430   -0.1392 H   0  0  0  0  0  0  0  0  0  0  0  0
    0.2686   -2.3305   -0.0977 H   0  0  0  0  0  0  0  0  0  0  0  0
   -2.1644   -2.1315   -0.4298 H   0  0  0  0  0  0  0  0  0  0  0  0
   -3.2456    0.1032   -0.4524 H   0  0  0  0  0  0  0  0  0  0  0  0
    1.5455   -1.9627   -1.1867 H   0  0  0  0  0  0  0  0  0  0  0  0
    1.7799    1.6030    1.2092 H   0  0  0  0  0  0  0  0  0  0  0  0
   -0.9191   -1.7642   -1.2473 H   0  0  0  0  0  0  0  0  0  0  0  0
   -0.6701    1.8102    1.1554 H   0  0  0  0  0  0  0  0  0  0  0  0
    3.5544    0.3788    0.5250 H   0  0  0  0  0  0  0  0  0  0  0  0
   -2.8848   -0.2539   -0.9978 H   0  0  0  0  0  0  0  0  0  0  0  0
   -2.8852   -0.3831    0.7786 H   0  0  0  0  0  0  0  0  0  0  0  0
   -2.7821    1.2073   -0.0164 H   0  0  0  0  0  0  0  0  0  0  0  0
  2  1  2  0
  3  1  1  0
  4  2  1  0
  5  7  1  0
  6  2  1  0
  7  3  2  0
  8  3  1  0
  6  5  2  0
 10  9  2  0
 11  9  1  0
 12 10  1  0
 13  9  1  0
 14 10  1  0
 15 14  2  0
 16 13  2  0
 16 15  1  0
 18 21  2  0
 19 17  2  0
 20 17  1  0
 21 19  1  0
 22 20  2  0
 23 17  1  0
 24 18  1  0
 22 18  1  0
  1 25  1  0
  4 26  1  0
  5 27  1  0
  6 28  1  0
  7 29  1  0
  8 30  1  0
  8 31  1  0
  8 32  1  0
 11 33  1  0
 12 34  1  0
 12 35  1  0
 12 36  1  0
 13 37  1  0
 14 38  1  0
 15 39  1  0
 16 40  1  0
 19 41  1  0
 20 42  1  0
 21 43  1  0
 22 44  1  0
 23 45  1  0
 24 46  1  0
 24 47  1  0
 24 48  1  0
M  END
$$$$
