
     RDKit          3D

101102  0  0  0  0  0  0  0  0999 V2000
   47.4729   14.0539   17.1026 C   0  0  0  0  0  0  0  0  0  0  0  0
   48.2477   13.6106   18.2516 N   0  0  0  0  0  0  0  0  0  0  0  0
   49.4652   12.8482   17.9533 C   0  0  1  0  0  0  0  0  0  0  0  0
   49.9551   12.5578   19.3765 C   0  0  0  0  0  0  0  0  0  0  0  0
   48.6739   12.5029   20.2195 C   0  0  0  0  0  0  0  0  0  0  0  0
   47.5405   12.7602   19.2192 C   0  0  2  0  0  0  0  0  0  0  0  0
   47.0210   11.4502   18.5923 C   0  0  0  0  0  0  0  0  0  0  0  0
   48.1114   10.6561   17.8471 C   0  0  1  0  0  0  0  0  0  0  0  0
   49.1645   11.5542   17.1685 C   0  0  0  0  0  0  0  0  0  0  0  0
   48.8131    9.8037   18.7801 O   0  0  0  0  0  0  0  0  0  0  0  0
   48.2523    8.5934   19.0470 C   0  0  0  0  0  0  0  0  0  0  0  0
   47.2209    8.1577   18.5494 O   0  0  0  0  0  0  0  0  0  0  0  0
   49.0738    7.8564   20.0897 C   0  0  2  0  0  0  0  0  0  0  0  0
   49.0172    6.3373   19.8323 C   0  0  0  0  0  0  0  0  0  0  0  0
   47.7040    5.7832   19.8961 O   0  0  0  0  0  0  0  0  0  0  0  0
   48.6915    8.2561   21.5064 C   0  0  0  0  0  0  0  0  0  0  0  0
   49.6589    8.8045   22.3686 C   0  0  0  0  0  0  0  0  0  0  0  0
   49.3212    9.1896   23.6727 C   0  0  0  0  0  0  0  0  0  0  0  0
   48.0147    9.0272   24.1326 C   0  0  0  0  0  0  0  0  0  0  0  0
   47.0463    8.4828   23.2905 C   0  0  0  0  0  0  0  0  0  0  0  0
   47.3810    8.1018   21.9862 C   0  0  0  0  0  0  0  0  0  0  0  0
   47.4334   14.2825   16.2391 C   0  0  0  0  0  0  0  0  0  0  0  0
   47.5544   13.1344   17.1367 N   0  0  0  0  0  0  0  0  0  0  0  0
   48.6385   12.2212   16.7435 C   0  0  1  0  0  0  0  0  0  0  0  0
   49.9258   12.8586   17.2718 C   0  0  0  0  0  0  0  0  0  0  0  0
   49.4748   13.7279   18.4348 C   0  0  0  0  0  0  0  0  0  0  0  0
   47.9562   13.5279   18.4965 C   0  0  2  0  0  0  0  0  0  0  0  0
   47.5815   12.3743   19.4384 C   0  0  0  0  0  0  0  0  0  0  0  0
   47.7897   10.9644   18.8528 C   0  0  1  0  0  0  0  0  0  0  0  0
   48.3638   10.8725   17.4251 C   0  0  0  0  0  0  0  0  0  0  0  0
   48.6413   10.1848   19.7253 O   0  0  0  0  0  0  0  0  0  0  0  0
   48.0367    9.6474   20.8285 C   0  0  0  0  0  0  0  0  0  0  0  0
   46.8600    9.8371   21.1193 O   0  0  0  0  0  0  0  0  0  0  0  0
   49.0171    8.8417   21.6757 C   0  0  2  0  0  0  0  0  0  0  0  0
   50.3524    8.5205   20.9813 C   0  0  0  0  0  0  0  0  0  0  0  0
   50.2157    7.8642   19.7235 O   0  0  0  0  0  0  0  0  0  0  0  0
   48.3620    7.6073   22.2858 C   0  0  0  0  0  0  0  0  0  0  0  0
   48.0216    7.5965   23.6505 C   0  0  0  0  0  0  0  0  0  0  0  0
   47.4013    6.4826   24.2250 C   0  0  0  0  0  0  0  0  0  0  0  0
   47.1083    5.3673   23.4456 C   0  0  0  0  0  0  0  0  0  0  0  0
   47.4384    5.3638   22.0923 C   0  0  0  0  0  0  0  0  0  0  0  0
   48.0603    6.4737   21.5152 C   0  0  0  0  0  0  0  0  0  0  0  0
   47.9947   10.2624   19.5444 S   0  0  0  0  0  0  0  0  0  0  0  0
   46.8786   10.7953   20.2814 O   0  0  0  0  0  0  0  0  0  0  0  0
   49.0547   11.4469   19.3062 O   0  0  0  0  0  0  0  0  0  0  0  0
   48.8013    9.3278   20.5661 O   0  0  0  0  0  0  0  0  0  0  0  0
   47.8681    9.5660   18.2886 O   0  0  0  0  0  0  0  0  0  0  0  0
   48.0152   10.2924   19.6822 O   0  0  0  0  0  0  0  0  0  0  0  0
   48.0164   10.3039   19.6734 O   0  0  0  0  0  0  0  0  0  0  0  0
   46.6167   14.6558   17.4317 H   0  0  0  0  0  0  0  0  0  0  0  0
   47.0839   13.2392   16.4813 H   0  0  0  0  0  0  0  0  0  0  0  0
   48.0865   14.7015   16.4641 H   0  0  0  0  0  0  0  0  0  0  0  0
   50.2038   13.4529   17.4154 H   0  0  0  0  0  0  0  0  0  0  0  0
   50.5948   13.3725   19.7447 H   0  0  0  0  0  0  0  0  0  0  0  0
   50.5362   11.6346   19.4476 H   0  0  0  0  0  0  0  0  0  0  0  0
   48.7038   13.2949   20.9814 H   0  0  0  0  0  0  0  0  0  0  0  0
   48.5691   11.5526   20.7479 H   0  0  0  0  0  0  0  0  0  0  0  0
   46.7172   13.2998   19.7007 H   0  0  0  0  0  0  0  0  0  0  0  0
   46.2096   11.6818   17.8905 H   0  0  0  0  0  0  0  0  0  0  0  0
   46.5813   10.8357   19.3864 H   0  0  0  0  0  0  0  0  0  0  0  0
   47.6569   10.0252   17.0742 H   0  0  0  0  0  0  0  0  0  0  0  0
   48.8158   11.8192   16.1629 H   0  0  0  0  0  0  0  0  0  0  0  0
   50.0983   10.9952   17.0356 H   0  0  0  0  0  0  0  0  0  0  0  0
   50.1233    8.1354   19.9189 H   0  0  0  0  0  0  0  0  0  0  0  0
   49.4149    6.1148   18.8352 H   0  0  0  0  0  0  0  0  0  0  0  0
   49.6356    5.7987   20.5610 H   0  0  0  0  0  0  0  0  0  0  0  0
   47.1463    6.2807   19.2614 H   0  0  0  0  0  0  0  0  0  0  0  0
   50.6860    8.9417   22.0348 H   0  0  0  0  0  0  0  0  0  0  0  0
   50.0802    9.6087   24.3287 H   0  0  0  0  0  0  0  0  0  0  0  0
   47.7519    9.3253   25.1465 H   0  0  0  0  0  0  0  0  0  0  0  0
   46.0255    8.3566   23.6494 H   0  0  0  0  0  0  0  0  0  0  0  0
   46.6006    7.6789   21.3546 H   0  0  0  0  0  0  0  0  0  0  0  0
   48.3528   14.8734   16.1441 H   0  0  0  0  0  0  0  0  0  0  0  0
   46.6380   14.9525   16.5873 H   0  0  0  0  0  0  0  0  0  0  0  0
   47.1427   13.9437   15.2403 H   0  0  0  0  0  0  0  0  0  0  0  0
   48.6895   12.0618   15.6595 H   0  0  0  0  0  0  0  0  0  0  0  0
   50.6721   12.1207   17.5837 H   0  0  0  0  0  0  0  0  0  0  0  0
   50.3849   13.4889   16.5001 H   0  0  0  0  0  0  0  0  0  0  0  0
   49.7120   14.7787   18.2167 H   0  0  0  0  0  0  0  0  0  0  0  0
   49.9892   13.4642   19.3660 H   0  0  0  0  0  0  0  0  0  0  0  0
   47.4572   14.4431   18.8492 H   0  0  0  0  0  0  0  0  0  0  0  0
   46.5098   12.4757   19.6729 H   0  0  0  0  0  0  0  0  0  0  0  0
   48.1072   12.4919   20.3953 H   0  0  0  0  0  0  0  0  0  0  0  0
   46.8122   10.4675   18.8117 H   0  0  0  0  0  0  0  0  0  0  0  0
   47.6297   10.3303   16.8072 H   0  0  0  0  0  0  0  0  0  0  0  0
   49.2735   10.2567   17.4088 H   0  0  0  0  0  0  0  0  0  0  0  0
   49.2809    9.5159   22.5034 H   0  0  0  0  0  0  0  0  0  0  0  0
   50.9675    7.8747   21.6148 H   0  0  0  0  0  0  0  0  0  0  0  0
   50.9238    9.4393   20.8122 H   0  0  0  0  0  0  0  0  0  0  0  0
   49.8200    8.5102   19.1073 H   0  0  0  0  0  0  0  0  0  0  0  0
   48.2261    8.4594   24.2818 H   0  0  0  0  0  0  0  0  0  0  0  0
   47.1335    6.4925   25.2788 H   0  0  0  0  0  0  0  0  0  0  0  0
   46.6145    4.5052   23.8860 H   0  0  0  0  0  0  0  0  0  0  0  0
   47.2084    4.4957   21.4803 H   0  0  0  0  0  0  0  0  0  0  0  0
   48.2957    6.4445   20.4532 H   0  0  0  0  0  0  0  0  0  0  0  0
   49.6906   11.1304   18.6281 H   0  0  0  0  0  0  0  0  0  0  0  0
   48.5876    9.6406   21.4709 H   0  0  0  0  0  0  0  0  0  0  0  0
   48.6346   10.9197   19.2789 H   0  0  0  0  0  0  0  0  0  0  0  0
   48.5825    9.7176   20.2185 H   0  0  0  0  0  0  0  0  0  0  0  0
   48.5544    9.7110   20.2196 H   0  0  0  0  0  0  0  0  0  0  0  0
   48.6614   10.9148   19.2867 H   0  0  0  0  0  0  0  0  0  0  0  0
  1  2  1  0
  3  2  1  0
  3  4  1  0
  4  5  1  0
  6  5  1  0
  6  2  1  0
  6  7  1  0
  7  8  1  0
  8  9  1  0
  3  9  1  0
  8 10  1  0
 10 11  1  0
 11 12  2  0
 11 13  1  0
 13 14  1  0
 14 15  1  0
 13 16  1  0
 16 17  2  0
 17 18  1  0
 18 19  2  0
 19 20  1  0
 20 21  2  0
 16 21  1  0
 22 23  1  0
 24 23  1  0
 24 25  1  0
 25 26  1  0
 27 26  1  0
 27 23  1  0
 27 28  1  0
 28 29  1  0
 29 30  1  0
 24 30  1  0
 29 31  1  0
 31 32  1  0
 32 33  2  0
 32 34  1  0
 34 35  1  0
 35 36  1  0
 34 37  1  0
 37 38  2  0
 38 39  1  0
 39 40  2  0
 40 41  1  0
 41 42  2  0
 37 42  1  0
 43 44  2  0
 43 45  1  0
 43 46  1  0
 43 47  2  0
  1 50  1  0
  1 51  1  0
  1 52  1  0
  3 53  1  1
  4 54  1  0
  4 55  1  0
  5 56  1  0
  5 57  1  0
  6 58  1  6
  7 59  1  0
  7 60  1  0
  8 61  1  1
  9 62  1  0
  9 63  1  0
 13 64  1  6
 14 65  1  0
 14 66  1  0
 15 67  1  0
 17 68  1  0
 18 69  1  0
 19 70  1  0
 20 71  1  0
 21 72  1  0
 22 73  1  0
 22 74  1  0
 22 75  1  0
 24 76  1  1
 25 77  1  0
 25 78  1  0
 26 79  1  0
 26 80  1  0
 27 81  1  6
 28 82  1  0
 28 83  1  0
 29 84  1  1
 30 85  1  0
 30 86  1  0
 34 87  1  6
 35 88  1  0
 35 89  1  0
 36 90  1  0
 38 91  1  0
 39 92  1  0
 40 93  1  0
 41 94  1  0
 42 95  1  0
 45 96  1  0
 46 97  1  0
 48 98  1  0
 48 99  1  0
 49100  1  0
 49101  1  0
M  END
> <Uni-Dock RESULT> 
ENERGY=   -5.964  LOWER_BOUND=    0.000  UPPER_BOUND=    0.000
INTER + INTRA:          -5.964
INTER:                  -5.964
INTRA:                   0.000
UNBOUND:                 0.000

$$$$

     RDKit          3D

101102  0  0  0  0  0  0  0  0999 V2000
   48.1060   11.5341   21.3538 C   0  0  0  0  0  0  0  0  0  0  0  0
   49.1088   11.0496   20.4175 N   0  0  0  0  0  0  0  0  0  0  0  0
   48.7304   11.0682   19.0001 C   0  0  1  0  0  0  0  0  0  0  0  0
   49.9998   10.4776   18.3759 C   0  0  0  0  0  0  0  0  0  0  0  0
   50.5658    9.5517   19.4610 C   0  0  0  0  0  0  0  0  0  0  0  0
   49.5781    9.6730   20.6278 C   0  0  2  0  0  0  0  0  0  0  0  0
   48.4420    8.6348   20.5271 C   0  0  0  0  0  0  0  0  0  0  0  0
   47.6233    8.7504   19.2266 C   0  0  1  0  0  0  0  0  0  0  0  0
   47.4872   10.1991   18.7177 C   0  0  0  0  0  0  0  0  0  0  0  0
   48.2658    7.9878   18.1802 O   0  0  0  0  0  0  0  0  0  0  0  0
   47.9804    6.6588   18.1257 C   0  0  0  0  0  0  0  0  0  0  0  0
   47.2119    6.0612   18.8698 O   0  0  0  0  0  0  0  0  0  0  0  0
   48.7837    5.9976   17.0200 C   0  0  2  0  0  0  0  0  0  0  0  0
   47.9765    4.8408   16.3975 C   0  0  0  0  0  0  0  0  0  0  0  0
   47.6381    3.8042   17.3176 O   0  0  0  0  0  0  0  0  0  0  0  0
   50.1755    5.5978   17.4846 C   0  0  0  0  0  0  0  0  0  0  0  0
   51.3107    6.1152   16.8338 C   0  0  0  0  0  0  0  0  0  0  0  0
   52.6004    5.7673   17.2566 C   0  0  0  0  0  0  0  0  0  0  0  0
   52.7714    4.8949   18.3311 C   0  0  0  0  0  0  0  0  0  0  0  0
   51.6559    4.3724   18.9838 C   0  0  0  0  0  0  0  0  0  0  0  0
   50.3672    4.7225   18.5656 C   0  0  0  0  0  0  0  0  0  0  0  0
   47.3928   12.0452   21.5261 C   0  0  0  0  0  0  0  0  0  0  0  0
   47.8084   10.8081   20.8662 N   0  0  0  0  0  0  0  0  0  0  0  0
   47.2677   10.6849   19.5037 C   0  0  1  0  0  0  0  0  0  0  0  0
   48.1763   11.5435   18.6208 C   0  0  0  0  0  0  0  0  0  0  0  0
   49.4994   11.5966   19.3680 C   0  0  0  0  0  0  0  0  0  0  0  0
   49.2603   10.7608   20.6307 C   0  0  2  0  0  0  0  0  0  0  0  0
   49.6422    9.2900   20.4090 C   0  0  0  0  0  0  0  0  0  0  0  0
   48.6131    8.4651   19.6123 C   0  0  1  0  0  0  0  0  0  0  0  0
   47.3532    9.2013   19.1154 C   0  0  0  0  0  0  0  0  0  0  0  0
   49.2489    7.8495   18.4673 O   0  0  0  0  0  0  0  0  0  0  0  0
   49.9736    6.7174   18.7214 C   0  0  0  0  0  0  0  0  0  0  0  0
   50.1389    6.2537   19.8452 O   0  0  0  0  0  0  0  0  0  0  0  0
   50.5953    6.1458   17.4507 C   0  0  2  0  0  0  0  0  0  0  0  0
   50.0341    6.7303   16.1423 C   0  0  0  0  0  0  0  0  0  0  0  0
   48.6172    6.6368   16.0190 O   0  0  0  0  0  0  0  0  0  0  0  0
   50.6020    4.6210   17.4559 C   0  0  0  0  0  0  0  0  0  0  0  0
   51.8001    3.9261   17.7007 C   0  0  0  0  0  0  0  0  0  0  0  0
   51.8239    2.5282   17.7306 C   0  0  0  0  0  0  0  0  0  0  0  0
   50.6530    1.8054   17.5214 C   0  0  0  0  0  0  0  0  0  0  0  0
   49.4586    2.4797   17.2789 C   0  0  0  0  0  0  0  0  0  0  0  0
   49.4311    3.8761   17.2460 C   0  0  0  0  0  0  0  0  0  0  0  0
   49.0174    7.7081   19.0863 S   0  0  0  0  0  0  0  0  0  0  0  0
   49.7279    7.3724   20.2927 O   0  0  0  0  0  0  0  0  0  0  0  0
   49.3924    9.2180   18.6826 O   0  0  0  0  0  0  0  0  0  0  0  0
   49.7260    6.8883   17.9058 O   0  0  0  0  0  0  0  0  0  0  0  0
   47.5889    7.5856   18.9359 O   0  0  0  0  0  0  0  0  0  0  0  0
   49.1579    7.6867   19.0761 O   0  0  0  0  0  0  0  0  0  0  0  0
   49.1542    7.7000   19.0805 O   0  0  0  0  0  0  0  0  0  0  0  0
   48.5059   11.5272   22.3753 H   0  0  0  0  0  0  0  0  0  0  0  0
   47.1775   10.9520   21.3591 H   0  0  0  0  0  0  0  0  0  0  0  0
   47.8497   12.5756   21.1227 H   0  0  0  0  0  0  0  0  0  0  0  0
   48.5688   12.0884   18.6342 H   0  0  0  0  0  0  0  0  0  0  0  0
   50.7327   11.2671   18.1569 H   0  0  0  0  0  0  0  0  0  0  0  0
   49.8078    9.9474   17.4395 H   0  0  0  0  0  0  0  0  0  0  0  0
   51.5624    9.9063   19.7603 H   0  0  0  0  0  0  0  0  0  0  0  0
   50.6831    8.5252   19.1062 H   0  0  0  0  0  0  0  0  0  0  0  0
   50.0995    9.5690   21.5859 H   0  0  0  0  0  0  0  0  0  0  0  0
   47.7656    8.7545   21.3831 H   0  0  0  0  0  0  0  0  0  0  0  0
   48.8786    7.6328   20.6117 H   0  0  0  0  0  0  0  0  0  0  0  0
   46.6142    8.3497   19.3791 H   0  0  0  0  0  0  0  0  0  0  0  0
   46.6121   10.6639   19.1878 H   0  0  0  0  0  0  0  0  0  0  0  0
   47.2945   10.1963   17.6383 H   0  0  0  0  0  0  0  0  0  0  0  0
   48.8835    6.7403   16.2156 H   0  0  0  0  0  0  0  0  0  0  0  0
   47.0374    5.2249   15.9821 H   0  0  0  0  0  0  0  0  0  0  0  0
   48.5357    4.3785   15.5746 H   0  0  0  0  0  0  0  0  0  0  0  0
   47.1588    4.2218   18.0641 H   0  0  0  0  0  0  0  0  0  0  0  0
   51.2053    6.7977   15.9922 H   0  0  0  0  0  0  0  0  0  0  0  0
   53.4682    6.1721   16.7418 H   0  0  0  0  0  0  0  0  0  0  0  0
   53.7735    4.6232   18.6594 H   0  0  0  0  0  0  0  0  0  0  0  0
   51.7894    3.6915   19.8238 H   0  0  0  0  0  0  0  0  0  0  0  0
   49.5173    4.2956   19.0968 H   0  0  0  0  0  0  0  0  0  0  0  0
   47.6587   12.9559   20.9752 H   0  0  0  0  0  0  0  0  0  0  0  0
   47.8443   12.1120   22.5233 H   0  0  0  0  0  0  0  0  0  0  0  0
   46.3087   12.0414   21.6727 H   0  0  0  0  0  0  0  0  0  0  0  0
   46.2217   11.0066   19.4296 H   0  0  0  0  0  0  0  0  0  0  0  0
   48.2979   11.1390   17.6107 H   0  0  0  0  0  0  0  0  0  0  0  0
   47.7689   12.5576   18.5252 H   0  0  0  0  0  0  0  0  0  0  0  0
   49.7233   12.6383   19.6375 H   0  0  0  0  0  0  0  0  0  0  0  0
   50.3309   11.2331   18.7535 H   0  0  0  0  0  0  0  0  0  0  0  0
   49.8500   11.1518   21.4735 H   0  0  0  0  0  0  0  0  0  0  0  0
   49.7385    8.8217   21.4015 H   0  0  0  0  0  0  0  0  0  0  0  0
   50.6403    9.2310   19.9548 H   0  0  0  0  0  0  0  0  0  0  0  0
   48.2487    7.6599   20.2628 H   0  0  0  0  0  0  0  0  0  0  0  0
   46.4783    8.6918   19.5511 H   0  0  0  0  0  0  0  0  0  0  0  0
   47.2429    9.0959   18.0274 H   0  0  0  0  0  0  0  0  0  0  0  0
   51.6428    6.4785   17.4856 H   0  0  0  0  0  0  0  0  0  0  0  0
   50.4658    6.2172   15.2779 H   0  0  0  0  0  0  0  0  0  0  0  0
   50.3028    7.7881   16.0523 H   0  0  0  0  0  0  0  0  0  0  0  0
   48.2336    7.2370   16.6871 H   0  0  0  0  0  0  0  0  0  0  0  0
   52.7288    4.4646   17.8812 H   0  0  0  0  0  0  0  0  0  0  0  0
   52.7552    2.0043   17.9322 H   0  0  0  0  0  0  0  0  0  0  0  0
   50.6656    0.7192   17.5569 H   0  0  0  0  0  0  0  0  0  0  0  0
   48.5420    1.9184   17.1181 H   0  0  0  0  0  0  0  0  0  0  0  0
   48.4804    4.3737   17.0649 H   0  0  0  0  0  0  0  0  0  0  0  0
   48.7459    9.5011   17.9998 H   0  0  0  0  0  0  0  0  0  0  0  0
   50.6407    6.6927   18.2013 H   0  0  0  0  0  0  0  0  0  0  0  0
   49.1107    8.6209   18.8215 H   0  0  0  0  0  0  0  0  0  0  0  0
   49.5196    7.2494   18.2901 H   0  0  0  0  0  0  0  0  0  0  0  0
   49.5141    7.2316   18.3122 H   0  0  0  0  0  0  0  0  0  0  0  0
   49.1200    8.6253   18.7950 H   0  0  0  0  0  0  0  0  0  0  0  0
  1  2  1  0
  3  2  1  0
  3  4  1  0
  4  5  1  0
  6  5  1  0
  6  2  1  0
  6  7  1  0
  7  8  1  0
  8  9  1  0
  3  9  1  0
  8 10  1  0
 10 11  1  0
 11 12  2  0
 11 13  1  0
 13 14  1  0
 14 15  1  0
 13 16  1  0
 16 17  2  0
 17 18  1  0
 18 19  2  0
 19 20  1  0
 20 21  2  0
 16 21  1  0
 22 23  1  0
 24 23  1  0
 24 25  1  0
 25 26  1  0
 27 26  1  0
 27 23  1  0
 27 28  1  0
 28 29  1  0
 29 30  1  0
 24 30  1  0
 29 31  1  0
 31 32  1  0
 32 33  2  0
 32 34  1  0
 34 35  1  0
 35 36  1  0
 34 37  1  0
 37 38  2  0
 38 39  1  0
 39 40  2  0
 40 41  1  0
 41 42  2  0
 37 42  1  0
 43 44  2  0
 43 45  1  0
 43 46  1  0
 43 47  2  0
  1 50  1  0
  1 51  1  0
  1 52  1  0
  3 53  1  1
  4 54  1  0
  4 55  1  0
  5 56  1  0
  5 57  1  0
  6 58  1  6
  7 59  1  0
  7 60  1  0
  8 61  1  1
  9 62  1  0
  9 63  1  0
 13 64  1  6
 14 65  1  0
 14 66  1  0
 15 67  1  0
 17 68  1  0
 18 69  1  0
 19 70  1  0
 20 71  1  0
 21 72  1  0
 22 73  1  0
 22 74  1  0
 22 75  1  0
 24 76  1  1
 25 77  1  0
 25 78  1  0
 26 79  1  0
 26 80  1  0
 27 81  1  6
 28 82  1  0
 28 83  1  0
 29 84  1  1
 30 85  1  0
 30 86  1  0
 34 87  1  6
 35 88  1  0
 35 89  1  0
 36 90  1  0
 38 91  1  0
 39 92  1  0
 40 93  1  0
 41 94  1  0
 42 95  1  0
 45 96  1  0
 46 97  1  0
 48 98  1  0
 48 99  1  0
 49100  1  0
 49101  1  0
M  END
> <Uni-Dock RESULT> 
ENERGY=   -5.438  LOWER_BOUND=    2.669  UPPER_BOUND=    4.640
INTER + INTRA:          -5.438
INTER:                  -5.438
INTRA:                   0.000
UNBOUND:                 0.000

$$$$

     RDKit          3D

101102  0  0  0  0  0  0  0  0999 V2000
   47.5613   12.9462   20.7889 C   0  0  0  0  0  0  0  0  0  0  0  0
   48.3770   11.7469   20.9047 N   0  0  0  0  0  0  0  0  0  0  0  0
   49.5912   11.7106   20.0819 C   0  0  1  0  0  0  0  0  0  0  0  0
   50.1295   10.3259   20.4594 C   0  0  0  0  0  0  0  0  0  0  0  0
   48.8768    9.5064   20.7974 C   0  0  0  0  0  0  0  0  0  0  0  0
   47.7093   10.4775   20.5846 C   0  0  2  0  0  0  0  0  0  0  0  0
   47.1819   10.4309   19.1360 C   0  0  0  0  0  0  0  0  0  0  0  0
   48.2550   10.7751   18.0848 C   0  0  1  0  0  0  0  0  0  0  0  0
   49.2772   11.8195   18.5751 C   0  0  0  0  0  0  0  0  0  0  0  0
   48.9943    9.5823   17.7385 O   0  0  0  0  0  0  0  0  0  0  0  0
   48.4537    8.7814   16.7810 C   0  0  0  0  0  0  0  0  0  0  0  0
   47.4108    8.9956   16.1745 O   0  0  0  0  0  0  0  0  0  0  0  0
   49.3152    7.5464   16.5864 C   0  0  2  0  0  0  0  0  0  0  0  0
   49.2645    7.0914   15.1141 C   0  0  0  0  0  0  0  0  0  0  0  0
   47.9592    6.7419   14.6561 O   0  0  0  0  0  0  0  0  0  0  0  0
   48.9753    6.4489   17.5828 C   0  0  0  0  0  0  0  0  0  0  0  0
   49.9649    5.9578   18.4542 C   0  0  0  0  0  0  0  0  0  0  0  0
   49.6661    4.9557   19.3867 C   0  0  0  0  0  0  0  0  0  0  0  0
   48.3767    4.4290   19.4566 C   0  0  0  0  0  0  0  0  0  0  0  0
   47.3867    4.9040   18.5978 C   0  0  0  0  0  0  0  0  0  0  0  0
   47.6825    5.9080   17.6689 C   0  0  0  0  0  0  0  0  0  0  0  0
   47.4918   13.8185   20.6050 C   0  0  0  0  0  0  0  0  0  0  0  0
   47.6524   12.5051   19.9824 N   0  0  0  0  0  0  0  0  0  0  0  0
   48.7317   12.4813   18.9831 C   0  0  1  0  0  0  0  0  0  0  0  0
   50.0294   12.3388   19.7819 C   0  0  0  0  0  0  0  0  0  0  0  0
   49.6082   11.6767   21.0841 C   0  0  0  0  0  0  0  0  0  0  0  0
   48.0943   11.4814   20.9428 C   0  0  2  0  0  0  0  0  0  0  0  0
   47.7609   10.1097   20.3382 C   0  0  0  0  0  0  0  0  0  0  0  0
   47.9632   10.0054   18.8143 C   0  0  1  0  0  0  0  0  0  0  0  0
   48.4916   11.2575   18.0867 C   0  0  0  0  0  0  0  0  0  0  0  0
   48.8497    8.9042   18.5049 O   0  0  0  0  0  0  0  0  0  0  0  0
   48.2861    7.6579   18.5248 C   0  0  0  0  0  0  0  0  0  0  0  0
   47.1177    7.4447   18.8323 O   0  0  0  0  0  0  0  0  0  0  0  0
   49.3007    6.5718   18.1799 C   0  0  2  0  0  0  0  0  0  0  0  0
   50.6158    7.0914   17.5724 C   0  0  0  0  0  0  0  0  0  0  0  0
   50.4446    7.9146   16.4215 O   0  0  0  0  0  0  0  0  0  0  0  0
   48.6772    5.4506   17.3558 C   0  0  0  0  0  0  0  0  0  0  0  0
   48.3812    4.2164   17.9619 C   0  0  0  0  0  0  0  0  0  0  0  0
   47.7901    3.1823   17.2291 C   0  0  0  0  0  0  0  0  0  0  0  0
   47.4825    3.3669   15.8844 C   0  0  0  0  0  0  0  0  0  0  0  0
   47.7687    4.5842   15.2707 C   0  0  0  0  0  0  0  0  0  0  0  0
   48.3612    5.6189   15.9987 C   0  0  0  0  0  0  0  0  0  0  0  0
   48.1969    9.0792   18.4970 S   0  0  0  0  0  0  0  0  0  0  0  0
   47.1003    8.6240   19.3113 O   0  0  0  0  0  0  0  0  0  0  0  0
   49.2376    9.8594   19.4412 O   0  0  0  0  0  0  0  0  0  0  0  0
   49.0447    7.7737   18.1165 O   0  0  0  0  0  0  0  0  0  0  0  0
   48.0362    9.8829   17.3111 O   0  0  0  0  0  0  0  0  0  0  0  0
   48.2216    8.9704   18.5856 O   0  0  0  0  0  0  0  0  0  0  0  0
   48.2224    8.9835   18.5919 O   0  0  0  0  0  0  0  0  0  0  0  0
   46.7107   12.8948   21.4798 H   0  0  0  0  0  0  0  0  0  0  0  0
   47.1600   13.1217   19.7843 H   0  0  0  0  0  0  0  0  0  0  0  0
   48.1479   13.8276   21.0763 H   0  0  0  0  0  0  0  0  0  0  0  0
   50.3064   12.4871   20.3755 H   0  0  0  0  0  0  0  0  0  0  0  0
   50.7732   10.3846   21.3486 H   0  0  0  0  0  0  0  0  0  0  0  0
   50.7211    9.8665   19.6631 H   0  0  0  0  0  0  0  0  0  0  0  0
   48.9239    9.1833   21.8472 H   0  0  0  0  0  0  0  0  0  0  0  0
   48.7979    8.6040   20.1868 H   0  0  0  0  0  0  0  0  0  0  0  0
   46.8970   10.2631   21.2882 H   0  0  0  0  0  0  0  0  0  0  0  0
   46.3462   11.1347   19.0324 H   0  0  0  0  0  0  0  0  0  0  0  0
   46.7738    9.4313   18.9469 H   0  0  0  0  0  0  0  0  0  0  0  0
   47.7815   11.1664   17.1765 H   0  0  0  0  0  0  0  0  0  0  0  0
   48.8937   12.8247   18.3619 H   0  0  0  0  0  0  0  0  0  0  0  0
   50.2114   11.7176   18.0102 H   0  0  0  0  0  0  0  0  0  0  0  0
   50.3561    7.8590   16.7521 H   0  0  0  0  0  0  0  0  0  0  0  0
   49.6317    7.8945   14.4646 H   0  0  0  0  0  0  0  0  0  0  0  0
   49.9111    6.2192   14.9569 H   0  0  0  0  0  0  0  0  0  0  0  0
   47.3767    7.5137   14.8186 H   0  0  0  0  0  0  0  0  0  0  0  0
   50.9794    6.3514   18.4202 H   0  0  0  0  0  0  0  0  0  0  0  0
   50.4419    4.5837   20.0512 H   0  0  0  0  0  0  0  0  0  0  0  0
   48.1441    3.6494   20.1803 H   0  0  0  0  0  0  0  0  0  0  0  0
   46.3791    4.4931   18.6528 H   0  0  0  0  0  0  0  0  0  0  0  0
   46.8860    6.2558   17.0121 H   0  0  0  0  0  0  0  0  0  0  0  0
   48.4021   14.1994   21.0844 H   0  0  0  0  0  0  0  0  0  0  0  0
   46.7019   13.7826   21.3650 H   0  0  0  0  0  0  0  0  0  0  0  0
   47.1721   14.5481   19.8552 H   0  0  0  0  0  0  0  0  0  0  0  0
   48.7490   13.3790   18.3530 H   0  0  0  0  0  0  0  0  0  0  0  0
   50.7921   11.7534   19.2584 H   0  0  0  0  0  0  0  0  0  0  0  0
   50.4574   13.3262   19.9950 H   0  0  0  0  0  0  0  0  0  0  0  0
   49.8285   12.3516   21.9231 H   0  0  0  0  0  0  0  0  0  0  0  0
   50.1549   10.7439   21.2641 H   0  0  0  0  0  0  0  0  0  0  0  0
   47.5986   11.5616   21.9219 H   0  0  0  0  0  0  0  0  0  0  0  0
   46.6965    9.9105   20.5409 H   0  0  0  0  0  0  0  0  0  0  0  0
   48.3162    9.3258   20.8703 H   0  0  0  0  0  0  0  0  0  0  0  0
   46.9895    9.7863   18.3581 H   0  0  0  0  0  0  0  0  0  0  0  0
   47.7429   11.5410   17.3291 H   0  0  0  0  0  0  0  0  0  0  0  0
   49.4060   11.0252   17.5236 H   0  0  0  0  0  0  0  0  0  0  0  0
   49.5850    6.1448   19.1526 H   0  0  0  0  0  0  0  0  0  0  0  0
   51.2570    6.2559   17.2766 H   0  0  0  0  0  0  0  0  0  0  0  0
   51.1729    7.6743   18.3134 H   0  0  0  0  0  0  0  0  0  0  0  0
   50.0232    8.7420   16.7240 H   0  0  0  0  0  0  0  0  0  0  0  0
   48.5981    4.0475   19.0152 H   0  0  0  0  0  0  0  0  0  0  0  0
   47.5565    2.2372   17.7135 H   0  0  0  0  0  0  0  0  0  0  0  0
   47.0111    2.5698   15.3154 H   0  0  0  0  0  0  0  0  0  0  0  0
   47.5269    4.7326   14.2216 H   0  0  0  0  0  0  0  0  0  0  0  0
   48.5624    6.5615   15.4936 H   0  0  0  0  0  0  0  0  0  0  0  0
   49.8541   10.3434   18.8496 H   0  0  0  0  0  0  0  0  0  0  0  0
   48.8575    7.0996   18.8041 H   0  0  0  0  0  0  0  0  0  0  0  0
   48.8217    9.6329   18.9607 H   0  0  0  0  0  0  0  0  0  0  0  0
   48.8112    8.2521   18.3098 H   0  0  0  0  0  0  0  0  0  0  0  0
   48.7832    8.2472   18.3045 H   0  0  0  0  0  0  0  0  0  0  0  0
   48.8489    9.6246   18.9597 H   0  0  0  0  0  0  0  0  0  0  0  0
  1  2  1  0
  3  2  1  0
  3  4  1  0
  4  5  1  0
  6  5  1  0
  6  2  1  0
  6  7  1  0
  7  8  1  0
  8  9  1  0
  3  9  1  0
  8 10  1  0
 10 11  1  0
 11 12  2  0
 11 13  1  0
 13 14  1  0
 14 15  1  0
 13 16  1  0
 16 17  2  0
 17 18  1  0
 18 19  2  0
 19 20  1  0
 20 21  2  0
 16 21  1  0
 22 23  1  0
 24 23  1  0
 24 25  1  0
 25 26  1  0
 27 26  1  0
 27 23  1  0
 27 28  1  0
 28 29  1  0
 29 30  1  0
 24 30  1  0
 29 31  1  0
 31 32  1  0
 32 33  2  0
 32 34  1  0
 34 35  1  0
 35 36  1  0
 34 37  1  0
 37 38  2  0
 38 39  1  0
 39 40  2  0
 40 41  1  0
 41 42  2  0
 37 42  1  0
 43 44  2  0
 43 45  1  0
 43 46  1  0
 43 47  2  0
  1 50  1  0
  1 51  1  0
  1 52  1  0
  3 53  1  1
  4 54  1  0
  4 55  1  0
  5 56  1  0
  5 57  1  0
  6 58  1  6
  7 59  1  0
  7 60  1  0
  8 61  1  1
  9 62  1  0
  9 63  1  0
 13 64  1  6
 14 65  1  0
 14 66  1  0
 15 67  1  0
 17 68  1  0
 18 69  1  0
 19 70  1  0
 20 71  1  0
 21 72  1  0
 22 73  1  0
 22 74  1  0
 22 75  1  0
 24 76  1  1
 25 77  1  0
 25 78  1  0
 26 79  1  0
 26 80  1  0
 27 81  1  6
 28 82  1  0
 28 83  1  0
 29 84  1  1
 30 85  1  0
 30 86  1  0
 34 87  1  6
 35 88  1  0
 35 89  1  0
 36 90  1  0
 38 91  1  0
 39 92  1  0
 40 93  1  0
 41 94  1  0
 42 95  1  0
 45 96  1  0
 46 97  1  0
 48 98  1  0
 48 99  1  0
 49100  1  0
 49101  1  0
M  END
> <Uni-Dock RESULT> 
ENERGY=   -5.276  LOWER_BOUND=    2.286  UPPER_BOUND=    3.905
INTER + INTRA:          -5.276
INTER:                  -5.276
INTRA:                   0.000
UNBOUND:                 0.000

$$$$

     RDKit          3D

101102  0  0  0  0  0  0  0  0999 V2000
   49.9560    4.0313   18.1284 C   0  0  0  0  0  0  0  0  0  0  0  0
   49.9279    4.7469   19.3950 N   0  0  0  0  0  0  0  0  0  0  0  0
   48.6229    4.8297   20.0603 C   0  0  1  0  0  0  0  0  0  0  0  0
   49.0039    5.6525   21.2962 C   0  0  0  0  0  0  0  0  0  0  0  0
   50.1773    6.5246   20.8298 C   0  0  0  0  0  0  0  0  0  0  0  0
   50.3822    6.1440   19.3585 C   0  0  2  0  0  0  0  0  0  0  0  0
   49.5334    7.0215   18.4160 C   0  0  0  0  0  0  0  0  0  0  0  0
   48.0211    6.9359   18.6998 C   0  0  1  0  0  0  0  0  0  0  0  0
   47.5695    5.5457   19.1894 C   0  0  0  0  0  0  0  0  0  0  0  0
   47.6664    7.8878   19.7281 O   0  0  0  0  0  0  0  0  0  0  0  0
   47.4188    9.1632   19.3248 C   0  0  0  0  0  0  0  0  0  0  0  0
   47.4485    9.5661   18.1680 O   0  0  0  0  0  0  0  0  0  0  0  0
   47.1291   10.0437   20.5274 C   0  0  2  0  0  0  0  0  0  0  0  0
   46.1124   11.1393   20.1494 C   0  0  0  0  0  0  0  0  0  0  0  0
   46.5557   12.0144   19.1134 O   0  0  0  0  0  0  0  0  0  0  0  0
   48.4022   10.5778   21.1653 C   0  0  0  0  0  0  0  0  0  0  0  0
   48.6867   10.2942   22.5138 C   0  0  0  0  0  0  0  0  0  0  0  0
   49.8608   10.7678   23.1139 C   0  0  0  0  0  0  0  0  0  0  0  0
   50.7622   11.5342   22.3757 C   0  0  0  0  0  0  0  0  0  0  0  0
   50.4923   11.8254   21.0394 C   0  0  0  0  0  0  0  0  0  0  0  0
   49.3222   11.3493   20.4374 C   0  0  0  0  0  0  0  0  0  0  0  0
   49.6118    3.4118   17.5832 C   0  0  0  0  0  0  0  0  0  0  0  0
   49.3862    4.7581   18.1077 N   0  0  0  0  0  0  0  0  0  0  0  0
   48.0114    4.9525   18.5937 C   0  0  1  0  0  0  0  0  0  0  0  0
   47.9758    4.3268   19.9900 C   0  0  0  0  0  0  0  0  0  0  0  0
   49.4178    4.3751   20.4695 C   0  0  0  0  0  0  0  0  0  0  0  0
   50.1843    5.0290   19.3141 C   0  0  2  0  0  0  0  0  0  0  0  0
   50.2582    6.5535   19.4835 C   0  0  0  0  0  0  0  0  0  0  0  0
   48.9674    7.3108   19.1167 C   0  0  1  0  0  0  0  0  0  0  0  0
   47.7629    6.4669   18.6549 C   0  0  0  0  0  0  0  0  0  0  0  0
   48.5369    8.1276   20.2310 O   0  0  0  0  0  0  0  0  0  0  0  0
   49.1977    9.3142   20.3943 C   0  0  0  0  0  0  0  0  0  0  0  0
   50.1367    9.6722   19.6904 O   0  0  0  0  0  0  0  0  0  0  0  0
   48.6650   10.0994   21.5891 C   0  0  2  0  0  0  0  0  0  0  0  0
   47.3251    9.5883   22.1475 C   0  0  0  0  0  0  0  0  0  0  0  0
   46.2826    9.4995   21.1796 O   0  0  0  0  0  0  0  0  0  0  0  0
   48.6552   11.6012   21.3253 C   0  0  0  0  0  0  0  0  0  0  0  0
   49.6318   12.4231   21.9161 C   0  0  0  0  0  0  0  0  0  0  0  0
   49.6532   13.7997   21.6704 C   0  0  0  0  0  0  0  0  0  0  0  0
   48.7043   14.3736   20.8293 C   0  0  0  0  0  0  0  0  0  0  0  0
   47.7317   13.5721   20.2361 C   0  0  0  0  0  0  0  0  0  0  0  0
   47.7055   12.1969   20.4808 C   0  0  0  0  0  0  0  0  0  0  0  0
   48.8392    8.1683   19.6279 S   0  0  0  0  0  0  0  0  0  0  0  0
   50.2066    8.4660   19.2893 O   0  0  0  0  0  0  0  0  0  0  0  0
   48.8092    6.7765   20.4312 O   0  0  0  0  0  0  0  0  0  0  0  0
   48.4287    9.2001   20.7832 O   0  0  0  0  0  0  0  0  0  0  0  0
   47.7685    8.1096   18.6644 O   0  0  0  0  0  0  0  0  0  0  0  0
   48.9255    8.2098   19.7334 O   0  0  0  0  0  0  0  0  0  0  0  0
   48.9265    8.1957   19.7301 O   0  0  0  0  0  0  0  0  0  0  0  0
   50.9819    3.9826   17.7427 H   0  0  0  0  0  0  0  0  0  0  0  0
   49.3305    4.4768   17.3464 H   0  0  0  0  0  0  0  0  0  0  0  0
   49.6252    2.9957   18.2756 H   0  0  0  0  0  0  0  0  0  0  0  0
   48.2553    3.8425   20.3620 H   0  0  0  0  0  0  0  0  0  0  0  0
   49.3422    4.9991   22.1131 H   0  0  0  0  0  0  0  0  0  0  0  0
   48.1741    6.2494   21.6838 H   0  0  0  0  0  0  0  0  0  0  0  0
   51.0718    6.2797   21.4202 H   0  0  0  0  0  0  0  0  0  0  0  0
   49.9805    7.5898   20.9715 H   0  0  0  0  0  0  0  0  0  0  0  0
   51.4413    6.2144   19.0865 H   0  0  0  0  0  0  0  0  0  0  0  0
   49.7164    6.7186   17.3771 H   0  0  0  0  0  0  0  0  0  0  0  0
   49.8769    8.0588   18.5041 H   0  0  0  0  0  0  0  0  0  0  0  0
   47.4529    7.1758   17.7933 H   0  0  0  0  0  0  0  0  0  0  0  0
   47.3372    4.9174   18.3210 H   0  0  0  0  0  0  0  0  0  0  0  0
   46.6396    5.6386   19.7627 H   0  0  0  0  0  0  0  0  0  0  0  0
   46.6082    9.4128   21.2616 H   0  0  0  0  0  0  0  0  0  0  0  0
   45.1792   10.6774   19.8064 H   0  0  0  0  0  0  0  0  0  0  0  0
   45.8713   11.7600   21.0213 H   0  0  0  0  0  0  0  0  0  0  0  0
   46.7932   11.4570   18.3425 H   0  0  0  0  0  0  0  0  0  0  0  0
   47.9998    9.6984   23.1126 H   0  0  0  0  0  0  0  0  0  0  0  0
   50.0655   10.5435   24.1578 H   0  0  0  0  0  0  0  0  0  0  0  0
   51.6744   11.9035   22.8419 H   0  0  0  0  0  0  0  0  0  0  0  0
   51.1968   12.4235   20.4625 H   0  0  0  0  0  0  0  0  0  0  0  0
   49.1414   11.5959   19.3917 H   0  0  0  0  0  0  0  0  0  0  0  0
   49.3923    2.6110   18.3001 H   0  0  0  0  0  0  0  0  0  0  0  0
   50.6551    3.3003   17.2641 H   0  0  0  0  0  0  0  0  0  0  0  0
   48.9937    3.2513   16.6949 H   0  0  0  0  0  0  0  0  0  0  0  0
   47.2589    4.5004   17.9359 H   0  0  0  0  0  0  0  0  0  0  0  0
   47.3031    4.8507   20.6767 H   0  0  0  0  0  0  0  0  0  0  0  0
   47.6438    3.2827   19.9326 H   0  0  0  0  0  0  0  0  0  0  0  0
   49.7802    3.3509   20.6357 H   0  0  0  0  0  0  0  0  0  0  0  0
   49.5150    4.9133   21.4193 H   0  0  0  0  0  0  0  0  0  0  0  0
   51.2095    4.6338   19.2544 H   0  0  0  0  0  0  0  0  0  0  0  0
   51.0535    6.9207   18.8153 H   0  0  0  0  0  0  0  0  0  0  0  0
   50.5898    6.7973   20.5015 H   0  0  0  0  0  0  0  0  0  0  0  0
   49.1961    7.9835   18.2804 H   0  0  0  0  0  0  0  0  0  0  0  0
   47.4935    6.8017   17.6399 H   0  0  0  0  0  0  0  0  0  0  0  0
   46.8805    6.6730   19.2761 H   0  0  0  0  0  0  0  0  0  0  0  0
   49.3972    9.9115   22.3878 H   0  0  0  0  0  0  0  0  0  0  0  0
   46.9671   10.2459   22.9450 H   0  0  0  0  0  0  0  0  0  0  0  0
   47.4511    8.5931   22.5870 H   0  0  0  0  0  0  0  0  0  0  0  0
   46.5282    8.7839   20.5622 H   0  0  0  0  0  0  0  0  0  0  0  0
   50.3947   12.0006   22.5675 H   0  0  0  0  0  0  0  0  0  0  0  0
   50.4209   14.4213   22.1250 H   0  0  0  0  0  0  0  0  0  0  0  0
   48.7261   15.4410   20.6260 H   0  0  0  0  0  0  0  0  0  0  0  0
   46.9912   14.0167   19.5764 H   0  0  0  0  0  0  0  0  0  0  0  0
   46.9398   11.5963   19.9939 H   0  0  0  0  0  0  0  0  0  0  0  0
   47.8725    6.4830   20.4610 H   0  0  0  0  0  0  0  0  0  0  0  0
   49.2588    9.4860   21.2206 H   0  0  0  0  0  0  0  0  0  0  0  0
   48.7162    7.3109   20.0300 H   0  0  0  0  0  0  0  0  0  0  0  0
   48.5798    8.7747   20.4412 H   0  0  0  0  0  0  0  0  0  0  0  0
   48.5922    8.7892   20.4195 H   0  0  0  0  0  0  0  0  0  0  0  0
   48.7028    7.3107   20.0550 H   0  0  0  0  0  0  0  0  0  0  0  0
  1  2  1  0
  3  2  1  0
  3  4  1  0
  4  5  1  0
  6  5  1  0
  6  2  1  0
  6  7  1  0
  7  8  1  0
  8  9  1  0
  3  9  1  0
  8 10  1  0
 10 11  1  0
 11 12  2  0
 11 13  1  0
 13 14  1  0
 14 15  1  0
 13 16  1  0
 16 17  2  0
 17 18  1  0
 18 19  2  0
 19 20  1  0
 20 21  2  0
 16 21  1  0
 22 23  1  0
 24 23  1  0
 24 25  1  0
 25 26  1  0
 27 26  1  0
 27 23  1  0
 27 28  1  0
 28 29  1  0
 29 30  1  0
 24 30  1  0
 29 31  1  0
 31 32  1  0
 32 33  2  0
 32 34  1  0
 34 35  1  0
 35 36  1  0
 34 37  1  0
 37 38  2  0
 38 39  1  0
 39 40  2  0
 40 41  1  0
 41 42  2  0
 37 42  1  0
 43 44  2  0
 43 45  1  0
 43 46  1  0
 43 47  2  0
  1 50  1  0
  1 51  1  0
  1 52  1  0
  3 53  1  1
  4 54  1  0
  4 55  1  0
  5 56  1  0
  5 57  1  0
  6 58  1  6
  7 59  1  0
  7 60  1  0
  8 61  1  1
  9 62  1  0
  9 63  1  0
 13 64  1  6
 14 65  1  0
 14 66  1  0
 15 67  1  0
 17 68  1  0
 18 69  1  0
 19 70  1  0
 20 71  1  0
 21 72  1  0
 22 73  1  0
 22 74  1  0
 22 75  1  0
 24 76  1  1
 25 77  1  0
 25 78  1  0
 26 79  1  0
 26 80  1  0
 27 81  1  6
 28 82  1  0
 28 83  1  0
 29 84  1  1
 30 85  1  0
 30 86  1  0
 34 87  1  6
 35 88  1  0
 35 89  1  0
 36 90  1  0
 38 91  1  0
 39 92  1  0
 40 93  1  0
 41 94  1  0
 42 95  1  0
 45 96  1  0
 46 97  1  0
 48 98  1  0
 48 99  1  0
 49100  1  0
 49101  1  0
M  END
> <Uni-Dock RESULT> 
ENERGY=   -5.143  LOWER_BOUND=    2.685  UPPER_BOUND=    5.809
INTER + INTRA:          -5.143
INTER:                  -5.143
INTRA:                   0.000
UNBOUND:                 0.000

$$$$

     RDKit          3D

101102  0  0  0  0  0  0  0  0999 V2000
   47.6352    3.2021   17.6124 C   0  0  0  0  0  0  0  0  0  0  0  0
   48.5041    4.3454   17.3781 N   0  0  0  0  0  0  0  0  0  0  0  0
   49.6275    4.5032   18.3086 C   0  0  1  0  0  0  0  0  0  0  0  0
   50.2548    5.7880   17.7559 C   0  0  0  0  0  0  0  0  0  0  0  0
   49.0763    6.5590   17.1463 C   0  0  0  0  0  0  0  0  0  0  0  0
   47.8564    5.6644   17.3976 C   0  0  2  0  0  0  0  0  0  0  0  0
   47.1847    5.9779   18.7501 C   0  0  0  0  0  0  0  0  0  0  0  0
   48.1295    5.8047   19.9552 C   0  0  1  0  0  0  0  0  0  0  0  0
   49.1558    4.6699   19.7682 C   0  0  0  0  0  0  0  0  0  0  0  0
   48.8747    7.0253   20.1660 O   0  0  0  0  0  0  0  0  0  0  0  0
   48.2695    7.9940   20.9048 C   0  0  0  0  0  0  0  0  0  0  0  0
   47.1621    7.9116   21.4228 O   0  0  0  0  0  0  0  0  0  0  0  0
   49.1533    9.2267   20.9732 C   0  0  2  0  0  0  0  0  0  0  0  0
   48.9686    9.9368   22.3291 C   0  0  0  0  0  0  0  0  0  0  0  0
   47.6375   10.3878   22.5750 O   0  0  0  0  0  0  0  0  0  0  0  0
   48.9606   10.1363   19.7697 C   0  0  0  0  0  0  0  0  0  0  0  0
   50.0530   10.4452   18.9384 C   0  0  0  0  0  0  0  0  0  0  0  0
   49.8908   11.2714   17.8185 C   0  0  0  0  0  0  0  0  0  0  0  0
   48.6367   11.8027   17.5186 C   0  0  0  0  0  0  0  0  0  0  0  0
   47.5458   11.5075   18.3347 C   0  0  0  0  0  0  0  0  0  0  0  0
   47.7053   10.6787   19.4509 C   0  0  0  0  0  0  0  0  0  0  0  0
   47.5135    2.3779   17.9370 C   0  0  0  0  0  0  0  0  0  0  0  0
   47.6595    3.7775   18.3346 N   0  0  0  0  0  0  0  0  0  0  0  0
   48.6301    3.9571   19.4253 C   0  0  1  0  0  0  0  0  0  0  0  0
   50.0078    3.9297   18.7592 C   0  0  0  0  0  0  0  0  0  0  0  0
   49.7491    4.3583   17.3236 C   0  0  0  0  0  0  0  0  0  0  0  0
   48.2373    4.6054   17.2639 C   0  0  2  0  0  0  0  0  0  0  0  0
   47.8966    6.0691   17.5801 C   0  0  0  0  0  0  0  0  0  0  0  0
   47.9444    6.4383   19.0753 C   0  0  1  0  0  0  0  0  0  0  0  0
   48.3463    5.3252   20.0631 C   0  0  0  0  0  0  0  0  0  0  0  0
   48.8361    7.5592   19.2820 O   0  0  0  0  0  0  0  0  0  0  0  0
   48.3260    8.7931   18.9840 C   0  0  0  0  0  0  0  0  0  0  0  0
   47.2047    8.9713   18.5193 O   0  0  0  0  0  0  0  0  0  0  0  0
   49.3408    9.9029   19.2420 C   0  0  2  0  0  0  0  0  0  0  0  0
   50.5652    9.4735   20.0697 C   0  0  0  0  0  0  0  0  0  0  0  0
   50.2446    8.8714   21.3211 O   0  0  0  0  0  0  0  0  0  0  0  0
   48.6794   11.1647   19.7854 C   0  0  0  0  0  0  0  0  0  0  0  0
   48.4953   12.2772   18.9448 C   0  0  0  0  0  0  0  0  0  0  0  0
   47.8721   13.4365   19.4174 C   0  0  0  0  0  0  0  0  0  0  0  0
   47.4205   13.4998   20.7324 C   0  0  0  0  0  0  0  0  0  0  0  0
   47.5947   12.4054   21.5764 C   0  0  0  0  0  0  0  0  0  0  0  0
   48.2188   11.2464   21.1087 C   0  0  0  0  0  0  0  0  0  0  0  0
   48.1797    7.4013   19.2495 S   0  0  0  0  0  0  0  0  0  0  0  0
   47.1913    7.7262   18.2544 O   0  0  0  0  0  0  0  0  0  0  0  0
   49.2814    6.4454   18.5743 O   0  0  0  0  0  0  0  0  0  0  0  0
   49.0335    8.7366   19.4860 O   0  0  0  0  0  0  0  0  0  0  0  0
   47.8667    6.8244   20.5330 O   0  0  0  0  0  0  0  0  0  0  0  0
   48.2176    7.4921   19.1465 O   0  0  0  0  0  0  0  0  0  0  0  0
   48.2185    7.4781   19.1428 O   0  0  0  0  0  0  0  0  0  0  0  0
   46.8631    3.1468   16.8350 H   0  0  0  0  0  0  0  0  0  0  0  0
   47.1260    3.2158   18.5827 H   0  0  0  0  0  0  0  0  0  0  0  0
   48.2139    2.2723   17.5484 H   0  0  0  0  0  0  0  0  0  0  0  0
   50.3387    3.6730   18.2342 H   0  0  0  0  0  0  0  0  0  0  0  0
   50.9841    5.5596   16.9656 H   0  0  0  0  0  0  0  0  0  0  0  0
   50.7785    6.3697   18.5191 H   0  0  0  0  0  0  0  0  0  0  0  0
   49.2438    6.6895   16.0677 H   0  0  0  0  0  0  0  0  0  0  0  0
   48.9697    7.5569   17.5779 H   0  0  0  0  0  0  0  0  0  0  0  0
   47.1300    5.7665   16.5836 H   0  0  0  0  0  0  0  0  0  0  0  0
   46.3162    5.3204   18.8837 H   0  0  0  0  0  0  0  0  0  0  0  0
   46.7981    7.0031   18.7165 H   0  0  0  0  0  0  0  0  0  0  0  0
   47.5502    5.5904   20.8610 H   0  0  0  0  0  0  0  0  0  0  0  0
   48.7139    3.7263   20.1107 H   0  0  0  0  0  0  0  0  0  0  0  0
   50.0300    4.8520   20.4045 H   0  0  0  0  0  0  0  0  0  0  0  0
   50.1929    8.8691   20.9782 H   0  0  0  0  0  0  0  0  0  0  0  0
   49.2356    9.2547   23.1448 H   0  0  0  0  0  0  0  0  0  0  0  0
   49.6287   10.8101   22.4009 H   0  0  0  0  0  0  0  0  0  0  0  0
   47.0455    9.6110   22.4875 H   0  0  0  0  0  0  0  0  0  0  0  0
   51.0426   10.0439   19.1502 H   0  0  0  0  0  0  0  0  0  0  0  0
   50.7448   11.5042   17.1873 H   0  0  0  0  0  0  0  0  0  0  0  0
   48.5102   12.4459   16.6490 H   0  0  0  0  0  0  0  0  0  0  0  0
   46.5660   11.9219   18.1000 H   0  0  0  0  0  0  0  0  0  0  0  0
   46.8325   10.4689   20.0682 H   0  0  0  0  0  0  0  0  0  0  0  0
   48.4531    1.9000   17.6329 H   0  0  0  0  0  0  0  0  0  0  0  0
   46.8082    2.2938   17.1013 H   0  0  0  0  0  0  0  0  0  0  0  0
   47.0903    1.7995   18.7635 H   0  0  0  0  0  0  0  0  0  0  0  0
   48.5478    3.1854   20.2005 H   0  0  0  0  0  0  0  0  0  0  0  0
   50.7346    4.5837   19.2521 H   0  0  0  0  0  0  0  0  0  0  0  0
   50.4172    2.9120   18.7694 H   0  0  0  0  0  0  0  0  0  0  0  0
   50.0286    3.5410   16.6442 H   0  0  0  0  0  0  0  0  0  0  0  0
   50.3469    5.2333   17.0440 H   0  0  0  0  0  0  0  0  0  0  0  0
   47.8425    4.3624   16.2660 H   0  0  0  0  0  0  0  0  0  0  0  0
   46.8672    6.2500   17.2317 H   0  0  0  0  0  0  0  0  0  0  0  0
   48.5335    6.7349   16.9828 H   0  0  0  0  0  0  0  0  0  0  0  0
   46.9380    6.7541   19.3780 H   0  0  0  0  0  0  0  0  0  0  0  0
   47.5131    5.1955   20.7729 H   0  0  0  0  0  0  0  0  0  0  0  0
   49.2060    5.6356   20.6727 H   0  0  0  0  0  0  0  0  0  0  0  0
   49.7401   10.1446   18.2463 H   0  0  0  0  0  0  0  0  0  0  0  0
   51.2042   10.3355   20.2829 H   0  0  0  0  0  0  0  0  0  0  0  0
   51.1729    8.7574   19.5065 H   0  0  0  0  0  0  0  0  0  0  0  0
   49.8251    8.0119   21.1238 H   0  0  0  0  0  0  0  0  0  0  0  0
   48.8260   12.2520   17.9080 H   0  0  0  0  0  0  0  0  0  0  0  0
   47.7263   14.2850   18.7532 H   0  0  0  0  0  0  0  0  0  0  0  0
   46.9241   14.3944   21.0991 H   0  0  0  0  0  0  0  0  0  0  0  0
   47.2405   12.4505   22.6029 H   0  0  0  0  0  0  0  0  0  0  0  0
   48.3303   10.4046   21.7893 H   0  0  0  0  0  0  0  0  0  0  0  0
   49.8145    6.0621   19.3045 H   0  0  0  0  0  0  0  0  0  0  0  0
   48.9443    9.2814   18.6752 H   0  0  0  0  0  0  0  0  0  0  0  0
   48.8272    6.7619   18.9600 H   0  0  0  0  0  0  0  0  0  0  0  0
   48.8029    8.2363   19.3550 H   0  0  0  0  0  0  0  0  0  0  0  0
   48.7747    8.2426   19.3563 H   0  0  0  0  0  0  0  0  0  0  0  0
   48.8544    6.7697   18.9625 H   0  0  0  0  0  0  0  0  0  0  0  0
  1  2  1  0
  3  2  1  0
  3  4  1  0
  4  5  1  0
  6  5  1  0
  6  2  1  0
  6  7  1  0
  7  8  1  0
  8  9  1  0
  3  9  1  0
  8 10  1  0
 10 11  1  0
 11 12  2  0
 11 13  1  0
 13 14  1  0
 14 15  1  0
 13 16  1  0
 16 17  2  0
 17 18  1  0
 18 19  2  0
 19 20  1  0
 20 21  2  0
 16 21  1  0
 22 23  1  0
 24 23  1  0
 24 25  1  0
 25 26  1  0
 27 26  1  0
 27 23  1  0
 27 28  1  0
 28 29  1  0
 29 30  1  0
 24 30  1  0
 29 31  1  0
 31 32  1  0
 32 33  2  0
 32 34  1  0
 34 35  1  0
 35 36  1  0
 34 37  1  0
 37 38  2  0
 38 39  1  0
 39 40  2  0
 40 41  1  0
 41 42  2  0
 37 42  1  0
 43 44  2  0
 43 45  1  0
 43 46  1  0
 43 47  2  0
  1 50  1  0
  1 51  1  0
  1 52  1  0
  3 53  1  1
  4 54  1  0
  4 55  1  0
  5 56  1  0
  5 57  1  0
  6 58  1  6
  7 59  1  0
  7 60  1  0
  8 61  1  1
  9 62  1  0
  9 63  1  0
 13 64  1  6
 14 65  1  0
 14 66  1  0
 15 67  1  0
 17 68  1  0
 18 69  1  0
 19 70  1  0
 20 71  1  0
 21 72  1  0
 22 73  1  0
 22 74  1  0
 22 75  1  0
 24 76  1  1
 25 77  1  0
 25 78  1  0
 26 79  1  0
 26 80  1  0
 27 81  1  6
 28 82  1  0
 28 83  1  0
 29 84  1  1
 30 85  1  0
 30 86  1  0
 34 87  1  6
 35 88  1  0
 35 89  1  0
 36 90  1  0
 38 91  1  0
 39 92  1  0
 40 93  1  0
 41 94  1  0
 42 95  1  0
 45 96  1  0
 46 97  1  0
 48 98  1  0
 48 99  1  0
 49100  1  0
 49101  1  0
M  END
> <Uni-Dock RESULT> 
ENERGY=   -5.091  LOWER_BOUND=    2.669  UPPER_BOUND=    6.093
INTER + INTRA:          -5.091
INTER:                  -5.091
INTRA:                   0.000
UNBOUND:                 0.000

$$$$

     RDKit          3D

101102  0  0  0  0  0  0  0  0999 V2000
   48.0027   11.8716   18.5783 C   0  0  0  0  0  0  0  0  0  0  0  0
   47.5376   10.5476   18.9629 N   0  0  0  0  0  0  0  0  0  0  0  0
   47.8846   10.1110   20.3199 C   0  0  1  0  0  0  0  0  0  0  0  0
   47.2593    8.7114   20.3192 C   0  0  0  0  0  0  0  0  0  0  0  0
   47.3264    8.2619   18.8535 C   0  0  0  0  0  0  0  0  0  0  0  0
   47.9902    9.4329   18.1190 C   0  0  2  0  0  0  0  0  0  0  0  0
   49.5260    9.2942   18.0893 C   0  0  0  0  0  0  0  0  0  0  0  0
   50.1593    9.2220   19.4924 C   0  0  1  0  0  0  0  0  0  0  0  0
   49.4104   10.0640   20.5443 C   0  0  0  0  0  0  0  0  0  0  0  0
   50.1535    7.8531   19.9568 O   0  0  0  0  0  0  0  0  0  0  0  0
   51.1877    7.0650   19.5570 C   0  0  0  0  0  0  0  0  0  0  0  0
   52.1300    7.4209   18.8594 O   0  0  0  0  0  0  0  0  0  0  0  0
   50.9950    5.6500   20.0728 C   0  0  2  0  0  0  0  0  0  0  0  0
   52.3625    5.0053   20.3751 C   0  0  0  0  0  0  0  0  0  0  0  0
   53.2220    4.9015   19.2410 O   0  0  0  0  0  0  0  0  0  0  0  0
   50.1125    4.8209   19.1528 C   0  0  0  0  0  0  0  0  0  0  0  0
   48.9236    4.2503   19.6435 C   0  0  0  0  0  0  0  0  0  0  0  0
   48.0925    3.4940   18.8066 C   0  0  0  0  0  0  0  0  0  0  0  0
   48.4415    3.2946   17.4712 C   0  0  0  0  0  0  0  0  0  0  0  0
   49.6177    3.8516   16.9718 C   0  0  0  0  0  0  0  0  0  0  0  0
   50.4465    4.6111   17.8053 C   0  0  0  0  0  0  0  0  0  0  0  0
   48.2527   12.6991   18.8066 C   0  0  0  0  0  0  0  0  0  0  0  0
   48.6988   11.3065   18.8007 N   0  0  0  0  0  0  0  0  0  0  0  0
   49.2585   10.8867   20.0947 C   0  0  1  0  0  0  0  0  0  0  0  0
   48.0522   10.5697   20.9818 C   0  0  0  0  0  0  0  0  0  0  0  0
   46.9385   10.2234   20.0064 C   0  0  0  0  0  0  0  0  0  0  0  0
   47.5835   10.3631   18.6228 C   0  0  2  0  0  0  0  0  0  0  0  0
   48.1802    9.0306   18.1464 C   0  0  0  0  0  0  0  0  0  0  0  0
   49.5301    8.6573   18.7888 C   0  0  1  0  0  0  0  0  0  0  0  0
   50.1053    9.6317   19.8357 C   0  0  0  0  0  0  0  0  0  0  0  0
   49.4444    7.3482   19.3997 O   0  0  0  0  0  0  0  0  0  0  0  0
   49.5443    6.2822   18.5481 C   0  0  0  0  0  0  0  0  0  0  0  0
   49.6482    6.3919   17.3306 O   0  0  0  0  0  0  0  0  0  0  0  0
   49.4484    4.9530   19.2909 C   0  0  2  0  0  0  0  0  0  0  0  0
   49.5933    5.0597   20.8194 C   0  0  0  0  0  0  0  0  0  0  0  0
   50.7807    5.7197   21.2507 O   0  0  0  0  0  0  0  0  0  0  0  0
   50.3666    3.8957   18.6876 C   0  0  0  0  0  0  0  0  0  0  0  0
   49.8257    2.8669   17.8956 C   0  0  0  0  0  0  0  0  0  0  0  0
   50.6526    1.8995   17.3158 C   0  0  0  0  0  0  0  0  0  0  0  0
   52.0294    1.9480   17.5145 C   0  0  0  0  0  0  0  0  0  0  0  0
   52.5797    2.9616   18.2956 C   0  0  0  0  0  0  0  0  0  0  0  0
   51.7568    3.9285   18.8783 C   0  0  0  0  0  0  0  0  0  0  0  0
   49.6889    7.6656   18.8554 S   0  0  0  0  0  0  0  0  0  0  0  0
   49.2787    7.6013   17.4768 O   0  0  0  0  0  0  0  0  0  0  0  0
   48.4926    8.3167   19.7086 O   0  0  0  0  0  0  0  0  0  0  0  0
   49.6706    6.1584   19.3992 O   0  0  0  0  0  0  0  0  0  0  0  0
   50.9042    8.2992   19.3022 O   0  0  0  0  0  0  0  0  0  0  0  0
   49.5907    7.5685   18.8205 O   0  0  0  0  0  0  0  0  0  0  0  0
   49.5854    7.5818   18.8227 O   0  0  0  0  0  0  0  0  0  0  0  0
   47.6476   12.1206   17.5706 H   0  0  0  0  0  0  0  0  0  0  0  0
   49.0929   11.9834   18.5808 H   0  0  0  0  0  0  0  0  0  0  0  0
   47.5847   12.6269   19.2553 H   0  0  0  0  0  0  0  0  0  0  0  0
   47.4098   10.7367   21.0838 H   0  0  0  0  0  0  0  0  0  0  0  0
   46.2075    8.7519   20.6365 H   0  0  0  0  0  0  0  0  0  0  0  0
   47.7711    8.0151   20.9887 H   0  0  0  0  0  0  0  0  0  0  0  0
   46.3076    8.0964   18.4751 H   0  0  0  0  0  0  0  0  0  0  0  0
   47.8696    7.3214   18.7357 H   0  0  0  0  0  0  0  0  0  0  0  0
   47.6000    9.5182   17.0986 H   0  0  0  0  0  0  0  0  0  0  0  0
   49.9561   10.1480   17.5503 H   0  0  0  0  0  0  0  0  0  0  0  0
   49.7828    8.3986   17.5117 H   0  0  0  0  0  0  0  0  0  0  0  0
   51.1976    9.5722   19.4562 H   0  0  0  0  0  0  0  0  0  0  0  0
   49.8050   11.0873   20.5320 H   0  0  0  0  0  0  0  0  0  0  0  0
   49.6091    9.6670   21.5468 H   0  0  0  0  0  0  0  0  0  0  0  0
   50.4984    5.7357   21.0499 H   0  0  0  0  0  0  0  0  0  0  0  0
   52.8928    5.5966   21.1307 H   0  0  0  0  0  0  0  0  0  0  0  0
   52.2318    3.9943   20.7804 H   0  0  0  0  0  0  0  0  0  0  0  0
   53.3194    5.8021   18.8655 H   0  0  0  0  0  0  0  0  0  0  0  0
   48.6280    4.3903   20.6819 H   0  0  0  0  0  0  0  0  0  0  0  0
   47.1787    3.0564   19.2007 H   0  0  0  0  0  0  0  0  0  0  0  0
   47.7965    2.7059   16.8206 H   0  0  0  0  0  0  0  0  0  0  0  0
   49.8900    3.6965   15.9284 H   0  0  0  0  0  0  0  0  0  0  0  0
   51.3589    5.0312   17.3835 H   0  0  0  0  0  0  0  0  0  0  0  0
   47.5120   12.9272   19.5831 H   0  0  0  0  0  0  0  0  0  0  0  0
   47.8129   12.9594   17.8362 H   0  0  0  0  0  0  0  0  0  0  0  0
   49.1104   13.3629   18.9499 H   0  0  0  0  0  0  0  0  0  0  0  0
   49.8977   11.6523   20.5512 H   0  0  0  0  0  0  0  0  0  0  0  0
   48.2418    9.7533   21.6862 H   0  0  0  0  0  0  0  0  0  0  0  0
   47.7654   11.4524   21.5666 H   0  0  0  0  0  0  0  0  0  0  0  0
   46.1185   10.9464   20.1192 H   0  0  0  0  0  0  0  0  0  0  0  0
   46.5231    9.2272   20.1971 H   0  0  0  0  0  0  0  0  0  0  0  0
   46.8438   10.6998   17.8809 H   0  0  0  0  0  0  0  0  0  0  0  0
   48.3471    9.1143   17.0606 H   0  0  0  0  0  0  0  0  0  0  0  0
   47.4415    8.2280   18.2722 H   0  0  0  0  0  0  0  0  0  0  0  0
   50.2810    8.6029   17.9905 H   0  0  0  0  0  0  0  0  0  0  0  0
   51.0913    9.9641   19.4724 H   0  0  0  0  0  0  0  0  0  0  0  0
   50.3010    9.1142   20.7849 H   0  0  0  0  0  0  0  0  0  0  0  0
   48.4131    4.6215   19.1250 H   0  0  0  0  0  0  0  0  0  0  0  0
   49.5963    4.0646   21.2738 H   0  0  0  0  0  0  0  0  0  0  0  0
   48.7425    5.6022   21.2451 H   0  0  0  0  0  0  0  0  0  0  0  0
   50.6946    6.6574   20.9919 H   0  0  0  0  0  0  0  0  0  0  0  0
   48.7543    2.8112   17.7115 H   0  0  0  0  0  0  0  0  0  0  0  0
   50.2219    1.1164   16.6965 H   0  0  0  0  0  0  0  0  0  0  0  0
   52.6760    1.2053   17.0547 H   0  0  0  0  0  0  0  0  0  0  0  0
   53.6546    3.0040   18.4502 H   0  0  0  0  0  0  0  0  0  0  0  0
   52.2180    4.7137   19.4741 H   0  0  0  0  0  0  0  0  0  0  0  0
   48.8625    8.5524   20.5873 H   0  0  0  0  0  0  0  0  0  0  0  0
   49.0504    5.6554   18.8296 H   0  0  0  0  0  0  0  0  0  0  0  0
   49.0725    8.1232   19.4233 H   0  0  0  0  0  0  0  0  0  0  0  0
   49.6002    6.7009   19.2529 H   0  0  0  0  0  0  0  0  0  0  0  0
   49.6145    6.7018   19.2278 H   0  0  0  0  0  0  0  0  0  0  0  0
   49.0636    8.1088   19.4461 H   0  0  0  0  0  0  0  0  0  0  0  0
  1  2  1  0
  3  2  1  0
  3  4  1  0
  4  5  1  0
  6  5  1  0
  6  2  1  0
  6  7  1  0
  7  8  1  0
  8  9  1  0
  3  9  1  0
  8 10  1  0
 10 11  1  0
 11 12  2  0
 11 13  1  0
 13 14  1  0
 14 15  1  0
 13 16  1  0
 16 17  2  0
 17 18  1  0
 18 19  2  0
 19 20  1  0
 20 21  2  0
 16 21  1  0
 22 23  1  0
 24 23  1  0
 24 25  1  0
 25 26  1  0
 27 26  1  0
 27 23  1  0
 27 28  1  0
 28 29  1  0
 29 30  1  0
 24 30  1  0
 29 31  1  0
 31 32  1  0
 32 33  2  0
 32 34  1  0
 34 35  1  0
 35 36  1  0
 34 37  1  0
 37 38  2  0
 38 39  1  0
 39 40  2  0
 40 41  1  0
 41 42  2  0
 37 42  1  0
 43 44  2  0
 43 45  1  0
 43 46  1  0
 43 47  2  0
  1 50  1  0
  1 51  1  0
  1 52  1  0
  3 53  1  1
  4 54  1  0
  4 55  1  0
  5 56  1  0
  5 57  1  0
  6 58  1  6
  7 59  1  0
  7 60  1  0
  8 61  1  1
  9 62  1  0
  9 63  1  0
 13 64  1  6
 14 65  1  0
 14 66  1  0
 15 67  1  0
 17 68  1  0
 18 69  1  0
 19 70  1  0
 20 71  1  0
 21 72  1  0
 22 73  1  0
 22 74  1  0
 22 75  1  0
 24 76  1  1
 25 77  1  0
 25 78  1  0
 26 79  1  0
 26 80  1  0
 27 81  1  6
 28 82  1  0
 28 83  1  0
 29 84  1  1
 30 85  1  0
 30 86  1  0
 34 87  1  6
 35 88  1  0
 35 89  1  0
 36 90  1  0
 38 91  1  0
 39 92  1  0
 40 93  1  0
 41 94  1  0
 42 95  1  0
 45 96  1  0
 46 97  1  0
 48 98  1  0
 48 99  1  0
 49100  1  0
 49101  1  0
M  END
> <Uni-Dock RESULT> 
ENERGY=   -5.079  LOWER_BOUND=    2.561  UPPER_BOUND=    4.808
INTER + INTRA:          -5.079
INTER:                  -5.079
INTRA:                   0.000
UNBOUND:                 0.000

$$$$

     RDKit          3D

101102  0  0  0  0  0  0  0  0999 V2000
   49.6211    2.8858   17.6892 C   0  0  0  0  0  0  0  0  0  0  0  0
   48.6232    3.6813   18.3882 N   0  0  0  0  0  0  0  0  0  0  0  0
   47.8145    4.5785   17.5554 C   0  0  1  0  0  0  0  0  0  0  0  0
   46.9400    5.2290   18.6333 C   0  0  0  0  0  0  0  0  0  0  0  0
   47.8128    5.2151   19.8954 C   0  0  0  0  0  0  0  0  0  0  0  0
   49.1273    4.5628   19.4504 C   0  0  2  0  0  0  0  0  0  0  0  0
   50.1369    5.6059   18.9293 C   0  0  0  0  0  0  0  0  0  0  0  0
   49.6086    6.4221   17.7336 C   0  0  1  0  0  0  0  0  0  0  0  0
   48.6785    5.6147   16.8067 C   0  0  0  0  0  0  0  0  0  0  0  0
   48.8527    7.5555   18.2168 O   0  0  0  0  0  0  0  0  0  0  0  0
   49.5596    8.6718   18.5403 C   0  0  0  0  0  0  0  0  0  0  0  0
   50.7732    8.8051   18.4361 O   0  0  0  0  0  0  0  0  0  0  0  0
   48.6287    9.7376   19.0904 C   0  0  2  0  0  0  0  0  0  0  0  0
   49.1406   11.1395   18.7033 C   0  0  0  0  0  0  0  0  0  0  0  0
   50.4392   11.4465   19.2084 O   0  0  0  0  0  0  0  0  0  0  0  0
   48.3762    9.5632   20.5800 C   0  0  0  0  0  0  0  0  0  0  0  0
   47.0643    9.3819   21.0552 C   0  0  0  0  0  0  0  0  0  0  0  0
   46.8148    9.2073   22.4228 C   0  0  0  0  0  0  0  0  0  0  0  0
   47.8721    9.2167   23.3322 C   0  0  0  0  0  0  0  0  0  0  0  0
   49.1768    9.3979   22.8761 C   0  0  0  0  0  0  0  0  0  0  0  0
   49.4281    9.5679   21.5100 C   0  0  0  0  0  0  0  0  0  0  0  0
   49.9062    2.4876   16.9411 C   0  0  0  0  0  0  0  0  0  0  0  0
   49.7594    3.7931   17.5836 N   0  0  0  0  0  0  0  0  0  0  0  0
   49.1413    4.7924   16.6987 C   0  0  1  0  0  0  0  0  0  0  0  0
   47.6367    4.5176   16.7546 C   0  0  0  0  0  0  0  0  0  0  0  0
   47.4216    3.8282   18.0925 C   0  0  0  0  0  0  0  0  0  0  0  0
   48.8202    3.7563   18.7160 C   0  0  2  0  0  0  0  0  0  0  0  0
   49.1068    4.9854   19.5909 C   0  0  0  0  0  0  0  0  0  0  0  0
   49.4688    6.2655   18.8133 C   0  0  1  0  0  0  0  0  0  0  0  0
   49.4770    6.1762   17.2744 C   0  0  0  0  0  0  0  0  0  0  0  0
   48.5812    7.3441   19.1913 O   0  0  0  0  0  0  0  0  0  0  0  0
   48.8684    7.9698   20.3735 C   0  0  0  0  0  0  0  0  0  0  0  0
   49.7824    7.6302   21.1181 O   0  0  0  0  0  0  0  0  0  0  0  0
   47.8798    9.0920   20.6752 C   0  0  2  0  0  0  0  0  0  0  0  0
   46.9971    9.5074   19.4849 C   0  0  0  0  0  0  0  0  0  0  0  0
   47.7248    9.8658   18.3129 O   0  0  0  0  0  0  0  0  0  0  0  0
   48.5565   10.2822   21.3464 C   0  0  0  0  0  0  0  0  0  0  0  0
   48.3845   10.5005   22.7252 C   0  0  0  0  0  0  0  0  0  0  0  0
   49.0131   11.5740   23.3641 C   0  0  0  0  0  0  0  0  0  0  0  0
   49.8246   12.4406   22.6378 C   0  0  0  0  0  0  0  0  0  0  0  0
   50.0053   12.2365   21.2718 C   0  0  0  0  0  0  0  0  0  0  0  0
   49.3772   11.1666   20.6294 C   0  0  0  0  0  0  0  0  0  0  0  0
   49.2102    7.1157   19.2859 S   0  0  0  0  0  0  0  0  0  0  0  0
   49.8284    6.5449   20.4542 O   0  0  0  0  0  0  0  0  0  0  0  0
   48.0486    6.1209   18.7918 O   0  0  0  0  0  0  0  0  0  0  0  0
   48.3483    8.3650   19.8000 O   0  0  0  0  0  0  0  0  0  0  0  0
   49.9378    7.5150   18.1072 O   0  0  0  0  0  0  0  0  0  0  0  0
   49.1357    7.1178   19.4073 O   0  0  0  0  0  0  0  0  0  0  0  0
   49.1350    7.1052   19.4001 O   0  0  0  0  0  0  0  0  0  0  0  0
   50.1317    2.2152   18.3915 H   0  0  0  0  0  0  0  0  0  0  0  0
   50.3903    3.4767   17.1791 H   0  0  0  0  0  0  0  0  0  0  0  0
   49.1348    2.2477   16.9411 H   0  0  0  0  0  0  0  0  0  0  0  0
   47.1901    4.0243   16.8458 H   0  0  0  0  0  0  0  0  0  0  0  0
   46.0337    4.6337   18.8146 H   0  0  0  0  0  0  0  0  0  0  0  0
   46.6147    6.2381   18.3671 H   0  0  0  0  0  0  0  0  0  0  0  0
   47.3238    4.6085   20.6710 H   0  0  0  0  0  0  0  0  0  0  0  0
   47.9522    6.2159   20.3107 H   0  0  0  0  0  0  0  0  0  0  0  0
   49.5695    3.9884   20.2722 H   0  0  0  0  0  0  0  0  0  0  0  0
   51.0614    5.0961   18.6292 H   0  0  0  0  0  0  0  0  0  0  0  0
   50.4032    6.2747   19.7560 H   0  0  0  0  0  0  0  0  0  0  0  0
   50.4458    6.7940   17.1313 H   0  0  0  0  0  0  0  0  0  0  0  0
   49.2842    5.0970   16.0530 H   0  0  0  0  0  0  0  0  0  0  0  0
   48.0180    6.2971   16.2586 H   0  0  0  0  0  0  0  0  0  0  0  0
   47.6731    9.6264   18.5584 H   0  0  0  0  0  0  0  0  0  0  0  0
   49.1878   11.2290   17.6117 H   0  0  0  0  0  0  0  0  0  0  0  0
   48.4557   11.9151   19.0679 H   0  0  0  0  0  0  0  0  0  0  0  0
   51.0460   10.7401   18.9015 H   0  0  0  0  0  0  0  0  0  0  0  0
   46.2210    9.3709   20.3667 H   0  0  0  0  0  0  0  0  0  0  0  0
   45.7955    9.0718   22.7758 H   0  0  0  0  0  0  0  0  0  0  0  0
   47.6787    9.0822   24.3954 H   0  0  0  0  0  0  0  0  0  0  0  0
   50.0029    9.4045   23.5864 H   0  0  0  0  0  0  0  0  0  0  0  0
   50.4591    9.7081   21.1873 H   0  0  0  0  0  0  0  0  0  0  0  0
   48.9654    2.0672   16.5647 H   0  0  0  0  0  0  0  0  0  0  0  0
   50.3386    1.7663   17.6450 H   0  0  0  0  0  0  0  0  0  0  0  0
   50.6041    2.5634   16.1021 H   0  0  0  0  0  0  0  0  0  0  0  0
   49.5170    4.7408   15.6694 H   0  0  0  0  0  0  0  0  0  0  0  0
   47.0321    5.4260   16.6655 H   0  0  0  0  0  0  0  0  0  0  0  0
   47.3412    3.8416   15.9427 H   0  0  0  0  0  0  0  0  0  0  0  0
   47.0285    2.8162   17.9211 H   0  0  0  0  0  0  0  0  0  0  0  0
   46.6922    4.3601   18.7140 H   0  0  0  0  0  0  0  0  0  0  0  0
   48.9235    2.8536   19.3368 H   0  0  0  0  0  0  0  0  0  0  0  0
   49.9673    4.7388   20.2331 H   0  0  0  0  0  0  0  0  0  0  0  0
   48.2653    5.1572   20.2751 H   0  0  0  0  0  0  0  0  0  0  0  0
   50.4873    6.5578   19.0987 H   0  0  0  0  0  0  0  0  0  0  0  0
   50.4905    6.4424   16.9326 H   0  0  0  0  0  0  0  0  0  0  0  0
   48.8110    6.9318   16.8358 H   0  0  0  0  0  0  0  0  0  0  0  0
   47.1849    8.6545   21.4066 H   0  0  0  0  0  0  0  0  0  0  0  0
   46.3749   10.3668   19.7514 H   0  0  0  0  0  0  0  0  0  0  0  0
   46.3170    8.6931   19.2134 H   0  0  0  0  0  0  0  0  0  0  0  0
   48.1425    9.0495   17.9770 H   0  0  0  0  0  0  0  0  0  0  0  0
   47.7666    9.8316   23.3217 H   0  0  0  0  0  0  0  0  0  0  0  0
   48.8802   11.7241   24.4329 H   0  0  0  0  0  0  0  0  0  0  0  0
   50.3250   13.2681   23.1338 H   0  0  0  0  0  0  0  0  0  0  0  0
   50.6407   12.9096   20.7024 H   0  0  0  0  0  0  0  0  0  0  0  0
   49.5469   11.0276   19.5636 H   0  0  0  0  0  0  0  0  0  0  0  0
   47.7908    6.4075   17.8886 H   0  0  0  0  0  0  0  0  0  0  0  0
   48.1456    8.2038   20.7461 H   0  0  0  0  0  0  0  0  0  0  0  0
   48.5661    6.5467   18.8697 H   0  0  0  0  0  0  0  0  0  0  0  0
   48.5738    7.8809   19.6116 H   0  0  0  0  0  0  0  0  0  0  0  0
   48.6004    7.8824   19.6228 H   0  0  0  0  0  0  0  0  0  0  0  0
   48.5402    6.5579   18.8659 H   0  0  0  0  0  0  0  0  0  0  0  0
  1  2  1  0
  3  2  1  0
  3  4  1  0
  4  5  1  0
  6  5  1  0
  6  2  1  0
  6  7  1  0
  7  8  1  0
  8  9  1  0
  3  9  1  0
  8 10  1  0
 10 11  1  0
 11 12  2  0
 11 13  1  0
 13 14  1  0
 14 15  1  0
 13 16  1  0
 16 17  2  0
 17 18  1  0
 18 19  2  0
 19 20  1  0
 20 21  2  0
 16 21  1  0
 22 23  1  0
 24 23  1  0
 24 25  1  0
 25 26  1  0
 27 26  1  0
 27 23  1  0
 27 28  1  0
 28 29  1  0
 29 30  1  0
 24 30  1  0
 29 31  1  0
 31 32  1  0
 32 33  2  0
 32 34  1  0
 34 35  1  0
 35 36  1  0
 34 37  1  0
 37 38  2  0
 38 39  1  0
 39 40  2  0
 40 41  1  0
 41 42  2  0
 37 42  1  0
 43 44  2  0
 43 45  1  0
 43 46  1  0
 43 47  2  0
  1 50  1  0
  1 51  1  0
  1 52  1  0
  3 53  1  1
  4 54  1  0
  4 55  1  0
  5 56  1  0
  5 57  1  0
  6 58  1  6
  7 59  1  0
  7 60  1  0
  8 61  1  1
  9 62  1  0
  9 63  1  0
 13 64  1  6
 14 65  1  0
 14 66  1  0
 15 67  1  0
 17 68  1  0
 18 69  1  0
 19 70  1  0
 20 71  1  0
 21 72  1  0
 22 73  1  0
 22 74  1  0
 22 75  1  0
 24 76  1  1
 25 77  1  0
 25 78  1  0
 26 79  1  0
 26 80  1  0
 27 81  1  6
 28 82  1  0
 28 83  1  0
 29 84  1  1
 30 85  1  0
 30 86  1  0
 34 87  1  6
 35 88  1  0
 35 89  1  0
 36 90  1  0
 38 91  1  0
 39 92  1  0
 40 93  1  0
 41 94  1  0
 42 95  1  0
 45 96  1  0
 46 97  1  0
 48 98  1  0
 48 99  1  0
 49100  1  0
 49101  1  0
M  END
> <Uni-Dock RESULT> 
ENERGY=   -4.934  LOWER_BOUND=    2.837  UPPER_BOUND=    5.925
INTER + INTRA:          -4.934
INTER:                  -4.934
INTRA:                   0.000
UNBOUND:                 0.000

$$$$

     RDKit          3D

101102  0  0  0  0  0  0  0  0999 V2000
   40.7774   10.5859   11.5010 C   0  0  0  0  0  0  0  0  0  0  0  0
   41.7082   11.7023   11.5670 N   0  0  0  0  0  0  0  0  0  0  0  0
   41.5000   12.7745   10.5874 C   0  0  1  0  0  0  0  0  0  0  0  0
   42.6581   13.7069   10.9604 C   0  0  0  0  0  0  0  0  0  0  0  0
   43.7419   12.7709   11.5118 C   0  0  0  0  0  0  0  0  0  0  0  0
   43.1306   11.3682   11.4108 C   0  0  2  0  0  0  0  0  0  0  0  0
   43.4407   10.7044   10.0536 C   0  0  0  0  0  0  0  0  0  0  0  0
   42.9236   11.5119    8.8472 C   0  0  1  0  0  0  0  0  0  0  0  0
   41.6102   12.2658    9.1349 C   0  0  0  0  0  0  0  0  0  0  0  0
   43.9089   12.4987    8.4664 O   0  0  0  0  0  0  0  0  0  0  0  0
   44.9042   12.0839    7.6371 C   0  0  0  0  0  0  0  0  0  0  0  0
   45.0231   10.9573    7.1700 O   0  0  0  0  0  0  0  0  0  0  0  0
   45.8848   13.2168    7.3916 C   0  0  2  0  0  0  0  0  0  0  0  0
   46.4657   13.1156    5.9670 C   0  0  0  0  0  0  0  0  0  0  0  0
   47.1817   11.9079    5.7132 O   0  0  0  0  0  0  0  0  0  0  0  0
   46.9404   13.3062    8.4828 C   0  0  0  0  0  0  0  0  0  0  0  0
   47.0782   14.4880    9.2340 C   0  0  0  0  0  0  0  0  0  0  0  0
   48.0370   14.5834   10.2512 C   0  0  0  0  0  0  0  0  0  0  0  0
   48.8726   13.5014   10.5267 C   0  0  0  0  0  0  0  0  0  0  0  0
   48.7493   12.3251    9.7889 C   0  0  0  0  0  0  0  0  0  0  0  0
   47.7891   12.2268    8.7757 C   0  0  0  0  0  0  0  0  0  0  0  0
   39.9730   10.2625   11.2822 C   0  0  0  0  0  0  0  0  0  0  0  0
   41.2491   10.6958   10.7145 N   0  0  0  0  0  0  0  0  0  0  0  0
   41.0796   11.6147    9.5783 C   0  0  1  0  0  0  0  0  0  0  0  0
   40.8085   12.9883   10.1965 C   0  0  0  0  0  0  0  0  0  0  0  0
   41.4396   12.9192   11.5780 C   0  0  0  0  0  0  0  0  0  0  0  0
   42.0336   11.5082   11.6580 C   0  0  2  0  0  0  0  0  0  0  0  0
   43.4927   11.4873   11.1797 C   0  0  0  0  0  0  0  0  0  0  0  0
   43.6751   11.5273    9.6502 C   0  0  1  0  0  0  0  0  0  0  0  0
   42.3981   11.6083    8.7905 C   0  0  0  0  0  0  0  0  0  0  0  0
   44.5307   12.6344    9.2806 O   0  0  0  0  0  0  0  0  0  0  0  0
   45.8739   12.4340    9.4449 C   0  0  0  0  0  0  0  0  0  0  0  0
   46.3556   11.4114    9.9220 O   0  0  0  0  0  0  0  0  0  0  0  0
   46.6848   13.6552    9.0217 C   0  0  2  0  0  0  0  0  0  0  0  0
   45.8968   14.6996    8.2112 C   0  0  0  0  0  0  0  0  0  0  0  0
   45.2517   14.1772    7.0527 O   0  0  0  0  0  0  0  0  0  0  0  0
   47.9979   13.2633    8.3530 C   0  0  0  0  0  0  0  0  0  0  0  0
   49.2080   13.3852    9.0594 C   0  0  0  0  0  0  0  0  0  0  0  0
   50.4209   13.0117    8.4718 C   0  0  0  0  0  0  0  0  0  0  0  0
   50.4423   12.5079    7.1746 C   0  0  0  0  0  0  0  0  0  0  0  0
   49.2517   12.3804    6.4629 C   0  0  0  0  0  0  0  0  0  0  0  0
   48.0383   12.7545    7.0455 C   0  0  0  0  0  0  0  0  0  0  0  0
   44.5329   11.9625    9.3537 S   0  0  0  0  0  0  0  0  0  0  0  0
   45.1838   11.1340   10.3350 O   0  0  0  0  0  0  0  0  0  0  0  0
   43.4286   12.8591   10.1018 O   0  0  0  0  0  0  0  0  0  0  0  0
   45.6013   13.0791    8.9301 O   0  0  0  0  0  0  0  0  0  0  0  0
   43.9068   11.4512    8.1600 O   0  0  0  0  0  0  0  0  0  0  0  0
   44.6233   12.0259    9.4437 O   0  0  0  0  0  0  0  0  0  0  0  0
   44.6099   12.0239    9.4491 O   0  0  0  0  0  0  0  0  0  0  0  0
   40.9869    9.8692   12.3048 H   0  0  0  0  0  0  0  0  0  0  0  0
   40.8019   10.0355   10.5537 H   0  0  0  0  0  0  0  0  0  0  0  0
   39.7519   10.9432   11.6570 H   0  0  0  0  0  0  0  0  0  0  0  0
   40.5414   13.2837   10.7373 H   0  0  0  0  0  0  0  0  0  0  0  0
   42.3555   14.4121   11.7477 H   0  0  0  0  0  0  0  0  0  0  0  0
   43.0163   14.3013   10.1158 H   0  0  0  0  0  0  0  0  0  0  0  0
   43.9475   13.0279   12.5608 H   0  0  0  0  0  0  0  0  0  0  0  0
   44.6841   12.8660   10.9672 H   0  0  0  0  0  0  0  0  0  0  0  0
   43.4859   10.7335   12.2304 H   0  0  0  0  0  0  0  0  0  0  0  0
   42.9905    9.7037   10.0290 H   0  0  0  0  0  0  0  0  0  0  0  0
   44.5247   10.5612    9.9765 H   0  0  0  0  0  0  0  0  0  0  0  0
   42.7508   10.8460    7.9935 H   0  0  0  0  0  0  0  0  0  0  0  0
   40.7622   11.6031    8.9232 H   0  0  0  0  0  0  0  0  0  0  0  0
   41.5151   13.1187    8.4525 H   0  0  0  0  0  0  0  0  0  0  0  0
   45.2989   14.1469    7.3949 H   0  0  0  0  0  0  0  0  0  0  0  0
   45.6554   13.1729    5.2309 H   0  0  0  0  0  0  0  0  0  0  0  0
   47.1500   13.9498    5.7688 H   0  0  0  0  0  0  0  0  0  0  0  0
   46.5767   11.1626    5.9132 H   0  0  0  0  0  0  0  0  0  0  0  0
   46.4388   15.3474    9.0391 H   0  0  0  0  0  0  0  0  0  0  0  0
   48.1342   15.5042   10.8209 H   0  0  0  0  0  0  0  0  0  0  0  0
   49.6188   13.5754   11.3164 H   0  0  0  0  0  0  0  0  0  0  0  0
   49.4016   11.4796   10.0047 H   0  0  0  0  0  0  0  0  0  0  0  0
   47.7199   11.2937    8.2176 H   0  0  0  0  0  0  0  0  0  0  0  0
   39.3276   11.0869   11.6099 H   0  0  0  0  0  0  0  0  0  0  0  0
   40.1457    9.6078   12.1449 H   0  0  0  0  0  0  0  0  0  0  0  0
   39.4209    9.6712   10.5457 H   0  0  0  0  0  0  0  0  0  0  0  0
   40.2677   11.3144    8.9047 H   0  0  0  0  0  0  0  0  0  0  0  0
   41.2193   13.8126    9.6046 H   0  0  0  0  0  0  0  0  0  0  0  0
   39.7289   13.1566   10.2952 H   0  0  0  0  0  0  0  0  0  0  0  0
   40.6592   13.0478   12.3411 H   0  0  0  0  0  0  0  0  0  0  0  0
   42.1783   13.7143   11.7303 H   0  0  0  0  0  0  0  0  0  0  0  0
   41.9988   11.1294   12.6905 H   0  0  0  0  0  0  0  0  0  0  0  0
   43.9431   10.5479   11.5380 H   0  0  0  0  0  0  0  0  0  0  0  0
   44.0550   12.2925   11.6710 H   0  0  0  0  0  0  0  0  0  0  0  0
   44.1793   10.6015    9.3454 H   0  0  0  0  0  0  0  0  0  0  0  0
   42.3872   10.7263    8.1297 H   0  0  0  0  0  0  0  0  0  0  0  0
   42.4334   12.4777    8.1197 H   0  0  0  0  0  0  0  0  0  0  0  0
   46.9354   14.1576    9.9672 H   0  0  0  0  0  0  0  0  0  0  0  0
   46.5596   15.5023    7.8748 H   0  0  0  0  0  0  0  0  0  0  0  0
   45.1259   15.1631    8.8359 H   0  0  0  0  0  0  0  0  0  0  0  0
   44.5389   13.5876    7.3658 H   0  0  0  0  0  0  0  0  0  0  0  0
   49.2208   13.7632   10.0801 H   0  0  0  0  0  0  0  0  0  0  0  0
   51.3475   13.1008    9.0338 H   0  0  0  0  0  0  0  0  0  0  0  0
   51.3816   12.2045    6.7198 H   0  0  0  0  0  0  0  0  0  0  0  0
   49.2646   11.9845    5.4509 H   0  0  0  0  0  0  0  0  0  0  0  0
   47.1242   12.6326    6.4677 H   0  0  0  0  0  0  0  0  0  0  0  0
   42.8551   13.2475    9.4056 H   0  0  0  0  0  0  0  0  0  0  0  0
   46.2374   13.1636    9.6720 H   0  0  0  0  0  0  0  0  0  0  0  0
   43.7970   12.4656    9.6962 H   0  0  0  0  0  0  0  0  0  0  0  0
   45.1850   12.7501    9.1279 H   0  0  0  0  0  0  0  0  0  0  0  0
   45.1975   12.7240    9.1268 H   0  0  0  0  0  0  0  0  0  0  0  0
   43.7980   12.4936    9.6919 H   0  0  0  0  0  0  0  0  0  0  0  0
  1  2  1  0
  3  2  1  0
  3  4  1  0
  4  5  1  0
  6  5  1  0
  6  2  1  0
  6  7  1  0
  7  8  1  0
  8  9  1  0
  3  9  1  0
  8 10  1  0
 10 11  1  0
 11 12  2  0
 11 13  1  0
 13 14  1  0
 14 15  1  0
 13 16  1  0
 16 17  2  0
 17 18  1  0
 18 19  2  0
 19 20  1  0
 20 21  2  0
 16 21  1  0
 22 23  1  0
 24 23  1  0
 24 25  1  0
 25 26  1  0
 27 26  1  0
 27 23  1  0
 27 28  1  0
 28 29  1  0
 29 30  1  0
 24 30  1  0
 29 31  1  0
 31 32  1  0
 32 33  2  0
 32 34  1  0
 34 35  1  0
 35 36  1  0
 34 37  1  0
 37 38  2  0
 38 39  1  0
 39 40  2  0
 40 41  1  0
 41 42  2  0
 37 42  1  0
 43 44  2  0
 43 45  1  0
 43 46  1  0
 43 47  2  0
  1 50  1  0
  1 51  1  0
  1 52  1  0
  3 53  1  1
  4 54  1  0
  4 55  1  0
  5 56  1  0
  5 57  1  0
  6 58  1  6
  7 59  1  0
  7 60  1  0
  8 61  1  1
  9 62  1  0
  9 63  1  0
 13 64  1  6
 14 65  1  0
 14 66  1  0
 15 67  1  0
 17 68  1  0
 18 69  1  0
 19 70  1  0
 20 71  1  0
 21 72  1  0
 22 73  1  0
 22 74  1  0
 22 75  1  0
 24 76  1  1
 25 77  1  0
 25 78  1  0
 26 79  1  0
 26 80  1  0
 27 81  1  6
 28 82  1  0
 28 83  1  0
 29 84  1  1
 30 85  1  0
 30 86  1  0
 34 87  1  6
 35 88  1  0
 35 89  1  0
 36 90  1  0
 38 91  1  0
 39 92  1  0
 40 93  1  0
 41 94  1  0
 42 95  1  0
 45 96  1  0
 46 97  1  0
 48 98  1  0
 48 99  1  0
 49100  1  0
 49101  1  0
M  END
> <Uni-Dock RESULT> 
ENERGY=   -4.909  LOWER_BOUND=   10.386  UPPER_BOUND=   12.553
INTER + INTRA:          -4.909
INTER:                  -4.909
INTRA:                   0.000
UNBOUND:                 0.000

$$$$

     RDKit          3D

101102  0  0  0  0  0  0  0  0999 V2000
   47.4875    5.5956   22.2492 C   0  0  0  0  0  0  0  0  0  0  0  0
   47.8391    5.2416   20.8824 N   0  0  0  0  0  0  0  0  0  0  0  0
   49.2721    5.1012   20.6007 C   0  0  1  0  0  0  0  0  0  0  0  0
   49.2197    4.7639   19.1063 C   0  0  0  0  0  0  0  0  0  0  0  0
   47.9540    5.4674   18.5983 C   0  0  0  0  0  0  0  0  0  0  0  0
   47.3738    6.1625   19.8359 C   0  0  2  0  0  0  0  0  0  0  0  0
   47.9333    7.5895   20.0069 C   0  0  0  0  0  0  0  0  0  0  0  0
   49.4679    7.6310   20.1417 C   0  0  1  0  0  0  0  0  0  0  0  0
   50.0499    6.4056   20.8735 C   0  0  0  0  0  0  0  0  0  0  0  0
   50.0689    7.6700   18.8276 O   0  0  0  0  0  0  0  0  0  0  0  0
   50.1855    8.8923   18.2420 C   0  0  0  0  0  0  0  0  0  0  0  0
   49.8472    9.9593   18.7404 O   0  0  0  0  0  0  0  0  0  0  0  0
   50.7705    8.7494   16.8482 C   0  0  2  0  0  0  0  0  0  0  0  0
   51.6380    9.9780   16.5090 C   0  0  0  0  0  0  0  0  0  0  0  0
   50.9266   11.2147   16.5168 O   0  0  0  0  0  0  0  0  0  0  0  0
   49.7037    8.4422   15.8088 C   0  0  0  0  0  0  0  0  0  0  0  0
   49.7880    7.2671   15.0395 C   0  0  0  0  0  0  0  0  0  0  0  0
   48.8074    6.9622   14.0862 C   0  0  0  0  0  0  0  0  0  0  0  0
   47.7339    7.8298   13.8868 C   0  0  0  0  0  0  0  0  0  0  0  0
   47.6387    8.9990   14.6398 C   0  0  0  0  0  0  0  0  0  0  0  0
   48.6149    9.3026   15.5955 C   0  0  0  0  0  0  0  0  0  0  0  0
   47.6838    5.5980   23.1215 C   0  0  0  0  0  0  0  0  0  0  0  0
   48.0226    6.2332   21.8487 N   0  0  0  0  0  0  0  0  0  0  0  0
   49.4743    6.3074   21.6226 C   0  0  1  0  0  0  0  0  0  0  0  0
   49.8841    4.9211   21.1199 C   0  0  0  0  0  0  0  0  0  0  0  0
   48.6188    4.3465   20.5032 C   0  0  0  0  0  0  0  0  0  0  0  0
   47.5670    5.4455   20.6921 C   0  0  2  0  0  0  0  0  0  0  0  0
   47.5211    6.3901   19.4821 C   0  0  0  0  0  0  0  0  0  0  0  0
   48.6601    7.4261   19.4238 C   0  0  1  0  0  0  0  0  0  0  0  0
   49.7111    7.3816   20.5507 C   0  0  0  0  0  0  0  0  0  0  0  0
   49.3586    7.3260   18.1603 O   0  0  0  0  0  0  0  0  0  0  0  0
   48.7492    7.9219   17.0903 C   0  0  0  0  0  0  0  0  0  0  0  0
   47.6536    8.4708   17.1505 O   0  0  0  0  0  0  0  0  0  0  0  0
   49.5678    7.7646   15.8124 C   0  0  2  0  0  0  0  0  0  0  0  0
   51.0138    7.2853   16.0311 C   0  0  0  0  0  0  0  0  0  0  0  0
   51.7657    8.0864   16.9390 O   0  0  0  0  0  0  0  0  0  0  0  0
   49.4889    9.0049   14.9290 C   0  0  0  0  0  0  0  0  0  0  0  0
   48.6922    8.9906   13.7700 C   0  0  0  0  0  0  0  0  0  0  0  0
   48.5895   10.1242   12.9575 C   0  0  0  0  0  0  0  0  0  0  0  0
   49.2761   11.2876   13.2923 C   0  0  0  0  0  0  0  0  0  0  0  0
   50.0682   11.3173   14.4377 C   0  0  0  0  0  0  0  0  0  0  0  0
   50.1752   10.1862   15.2508 C   0  0  0  0  0  0  0  0  0  0  0  0
   48.9076    7.7070   18.4894 S   0  0  0  0  0  0  0  0  0  0  0  0
   47.4957    7.8806   18.2673 O   0  0  0  0  0  0  0  0  0  0  0  0
   49.1656    6.1840   18.9338 O   0  0  0  0  0  0  0  0  0  0  0  0
   49.5948    7.7264   17.0420 O   0  0  0  0  0  0  0  0  0  0  0  0
   49.6875    8.5318   19.3781 O   0  0  0  0  0  0  0  0  0  0  0  0
   48.8516    7.6474   18.3728 O   0  0  0  0  0  0  0  0  0  0  0  0
   48.8500    7.6395   18.3849 O   0  0  0  0  0  0  0  0  0  0  0  0
   46.3969    5.6239   22.3653 H   0  0  0  0  0  0  0  0  0  0  0  0
   47.8793    6.5650   22.5775 H   0  0  0  0  0  0  0  0  0  0  0  0
   47.8583    4.8299   22.9418 H   0  0  0  0  0  0  0  0  0  0  0  0
   49.7185    4.2714   21.1600 H   0  0  0  0  0  0  0  0  0  0  0  0
   49.1166    3.6802   18.9525 H   0  0  0  0  0  0  0  0  0  0  0  0
   50.1147    5.0824   18.5654 H   0  0  0  0  0  0  0  0  0  0  0  0
   47.2497    4.7175   18.2108 H   0  0  0  0  0  0  0  0  0  0  0  0
   48.1678    6.1599   17.7809 H   0  0  0  0  0  0  0  0  0  0  0  0
   46.2796    6.1907   19.7841 H   0  0  0  0  0  0  0  0  0  0  0  0
   47.4870    8.0488   20.8982 H   0  0  0  0  0  0  0  0  0  0  0  0
   47.6122    8.1935   19.1503 H   0  0  0  0  0  0  0  0  0  0  0  0
   49.7743    8.5293   20.6906 H   0  0  0  0  0  0  0  0  0  0  0  0
   50.0532    6.6003   21.9529 H   0  0  0  0  0  0  0  0  0  0  0  0
   51.0968    6.2617   20.5811 H   0  0  0  0  0  0  0  0  0  0  0  0
   51.4743    7.9058   16.8869 H   0  0  0  0  0  0  0  0  0  0  0  0
   52.4536   10.0686   17.2360 H   0  0  0  0  0  0  0  0  0  0  0  0
   52.0924    9.8679   15.5166 H   0  0  0  0  0  0  0  0  0  0  0  0
   50.5015   11.3011   17.3962 H   0  0  0  0  0  0  0  0  0  0  0  0
   50.6157    6.5730   15.1750 H   0  0  0  0  0  0  0  0  0  0  0  0
   48.8877    6.0523   13.4967 H   0  0  0  0  0  0  0  0  0  0  0  0
   46.9721    7.5940   13.1452 H   0  0  0  0  0  0  0  0  0  0  0  0
   46.7997    9.6764   14.4846 H   0  0  0  0  0  0  0  0  0  0  0  0
   48.5109   10.2248   16.1660 H   0  0  0  0  0  0  0  0  0  0  0  0
   48.0944    4.5875   23.2392 H   0  0  0  0  0  0  0  0  0  0  0  0
   46.5947    5.5331   23.2336 H   0  0  0  0  0  0  0  0  0  0  0  0
   48.0481    6.2113   23.9509 H   0  0  0  0  0  0  0  0  0  0  0  0
   50.0326    6.5843   22.5252 H   0  0  0  0  0  0  0  0  0  0  0  0
   50.7073    4.9534   20.3988 H   0  0  0  0  0  0  0  0  0  0  0  0
   50.2024    4.2892   21.9583 H   0  0  0  0  0  0  0  0  0  0  0  0
   48.3258    3.4405   21.0521 H   0  0  0  0  0  0  0  0  0  0  0  0
   48.7683    4.0590   19.4562 H   0  0  0  0  0  0  0  0  0  0  0  0
   46.5672    5.0075   20.8316 H   0  0  0  0  0  0  0  0  0  0  0  0
   46.5734    6.9492   19.5369 H   0  0  0  0  0  0  0  0  0  0  0  0
   47.4663    5.8029   18.5559 H   0  0  0  0  0  0  0  0  0  0  0  0
   48.2109    8.4259   19.4768 H   0  0  0  0  0  0  0  0  0  0  0  0
   49.6994    8.3623   21.0534 H   0  0  0  0  0  0  0  0  0  0  0  0
   50.7233    7.2755   20.1368 H   0  0  0  0  0  0  0  0  0  0  0  0
   49.0742    6.9445   15.2711 H   0  0  0  0  0  0  0  0  0  0  0  0
   51.5608    7.2748   15.0838 H   0  0  0  0  0  0  0  0  0  0  0  0
   51.0205    6.2595   16.4147 H   0  0  0  0  0  0  0  0  0  0  0  0
   51.3752    7.9551   17.8244 H   0  0  0  0  0  0  0  0  0  0  0  0
   48.1330    8.0995   13.4901 H   0  0  0  0  0  0  0  0  0  0  0  0
   47.9609   10.1023   12.0705 H   0  0  0  0  0  0  0  0  0  0  0  0
   49.1882   12.1743   12.6702 H   0  0  0  0  0  0  0  0  0  0  0  0
   50.6033   12.2251   14.7036 H   0  0  0  0  0  0  0  0  0  0  0  0
   50.7932   10.2445   16.1446 H   0  0  0  0  0  0  0  0  0  0  0  0
   50.0807    6.1398   19.2875 H   0  0  0  0  0  0  0  0  0  0  0  0
   48.9057    7.4676   16.3937 H   0  0  0  0  0  0  0  0  0  0  0  0
   49.1429    6.8525   18.8450 H   0  0  0  0  0  0  0  0  0  0  0  0
   49.3644    7.6304   17.5503 H   0  0  0  0  0  0  0  0  0  0  0  0
   49.3465    7.6530   17.5527 H   0  0  0  0  0  0  0  0  0  0  0  0
   49.1624    6.8379   18.8304 H   0  0  0  0  0  0  0  0  0  0  0  0
  1  2  1  0
  3  2  1  0
  3  4  1  0
  4  5  1  0
  6  5  1  0
  6  2  1  0
  6  7  1  0
  7  8  1  0
  8  9  1  0
  3  9  1  0
  8 10  1  0
 10 11  1  0
 11 12  2  0
 11 13  1  0
 13 14  1  0
 14 15  1  0
 13 16  1  0
 16 17  2  0
 17 18  1  0
 18 19  2  0
 19 20  1  0
 20 21  2  0
 16 21  1  0
 22 23  1  0
 24 23  1  0
 24 25  1  0
 25 26  1  0
 27 26  1  0
 27 23  1  0
 27 28  1  0
 28 29  1  0
 29 30  1  0
 24 30  1  0
 29 31  1  0
 31 32  1  0
 32 33  2  0
 32 34  1  0
 34 35  1  0
 35 36  1  0
 34 37  1  0
 37 38  2  0
 38 39  1  0
 39 40  2  0
 40 41  1  0
 41 42  2  0
 37 42  1  0
 43 44  2  0
 43 45  1  0
 43 46  1  0
 43 47  2  0
  1 50  1  0
  1 51  1  0
  1 52  1  0
  3 53  1  1
  4 54  1  0
  4 55  1  0
  5 56  1  0
  5 57  1  0
  6 58  1  6
  7 59  1  0
  7 60  1  0
  8 61  1  1
  9 62  1  0
  9 63  1  0
 13 64  1  6
 14 65  1  0
 14 66  1  0
 15 67  1  0
 17 68  1  0
 18 69  1  0
 19 70  1  0
 20 71  1  0
 21 72  1  0
 22 73  1  0
 22 74  1  0
 22 75  1  0
 24 76  1  1
 25 77  1  0
 25 78  1  0
 26 79  1  0
 26 80  1  0
 27 81  1  6
 28 82  1  0
 28 83  1  0
 29 84  1  1
 30 85  1  0
 30 86  1  0
 34 87  1  6
 35 88  1  0
 35 89  1  0
 36 90  1  0
 38 91  1  0
 39 92  1  0
 40 93  1  0
 41 94  1  0
 42 95  1  0
 45 96  1  0
 46 97  1  0
 48 98  1  0
 48 99  1  0
 49100  1  0
 49101  1  0
M  END
> <Uni-Dock RESULT> 
ENERGY=   -4.857  LOWER_BOUND=    3.236  UPPER_BOUND=    6.970
INTER + INTRA:          -4.857
INTER:                  -4.857
INTRA:                   0.000
UNBOUND:                 0.000

$$$$
