
     RDKit          3D

101102  0  0  0  0  0  0  0  0999 V2000
   55.4067    6.2857    7.2217 C   0  0  0  0  0  0  0  0  0  0  0  0
   54.6107    7.1007    8.1365 N   0  0  0  0  0  0  0  0  0  0  0  0
   54.0441    8.3004    7.4941 C   0  0  1  0  0  0  0  0  0  0  0  0
   52.8334    7.7843    6.7098 C   0  0  0  0  0  0  0  0  0  0  0  0
   52.3948    6.5359    7.4642 C   0  0  0  0  0  0  0  0  0  0  0  0
   53.4003    6.4060    8.6145 C   0  0  2  0  0  0  0  0  0  0  0  0
   52.8988    7.1423    9.8705 C   0  0  0  0  0  0  0  0  0  0  0  0
   53.4049    8.5912    9.9691 C   0  0  1  0  0  0  0  0  0  0  0  0
   53.6044    9.2716    8.6057 C   0  0  0  0  0  0  0  0  0  0  0  0
   52.4828    9.3957   10.7320 O   0  0  0  0  0  0  0  0  0  0  0  0
   52.5243    9.2538   12.0881 C   0  0  0  0  0  0  0  0  0  0  0  0
   53.2992    8.5269   12.6976 O   0  0  0  0  0  0  0  0  0  0  0  0
   51.4424   10.1006   12.7348 C   0  0  2  0  0  0  0  0  0  0  0  0
   51.8885   10.5069   14.1453 C   0  0  0  0  0  0  0  0  0  0  0  0
   51.2169   11.7039   14.5464 O   0  0  0  0  0  0  0  0  0  0  0  0
   50.0935    9.3949   12.7433 C   0  0  0  0  0  0  0  0  0  0  0  0
   49.9637    8.0597   13.1604 C   0  0  0  0  0  0  0  0  0  0  0  0
   48.7165    7.4331   13.1618 C   0  0  0  0  0  0  0  0  0  0  0  0
   47.5832    8.1323   12.7537 C   0  0  0  0  0  0  0  0  0  0  0  0
   47.6947    9.4609   12.3498 C   0  0  0  0  0  0  0  0  0  0  0  0
   48.9410   10.0898   12.3464 C   0  0  0  0  0  0  0  0  0  0  0  0
   49.4677    9.2365   14.8074 C   0  0  0  0  0  0  0  0  0  0  0  0
   50.0594    8.7485   13.5636 N   0  0  0  0  0  0  0  0  0  0  0  0
   49.0784    8.6235   12.4712 C   0  0  1  0  0  0  0  0  0  0  0  0
   48.8892   10.0531   11.9528 C   0  0  0  0  0  0  0  0  0  0  0  0
   50.1963   10.7583   12.2910 C   0  0  0  0  0  0  0  0  0  0  0  0
   51.0417    9.6890   12.9917 C   0  0  2  0  0  0  0  0  0  0  0  0
   51.9017    8.9163   11.9741 C   0  0  0  0  0  0  0  0  0  0  0  0
   51.2265    7.6362   11.4527 C   0  0  1  0  0  0  0  0  0  0  0  0
   49.6932    7.7239   11.3831 C   0  0  0  0  0  0  0  0  0  0  0  0
   51.7084    7.3093   10.1318 O   0  0  0  0  0  0  0  0  0  0  0  0
   52.9484    6.7466   10.0555 C   0  0  0  0  0  0  0  0  0  0  0  0
   53.6626    6.4811   11.0131 O   0  0  0  0  0  0  0  0  0  0  0  0
   53.3246    6.5126    8.6025 C   0  0  2  0  0  0  0  0  0  0  0  0
   54.2140    5.2638    8.5043 C   0  0  0  0  0  0  0  0  0  0  0  0
   54.2235    4.7343    7.1761 O   0  0  0  0  0  0  0  0  0  0  0  0
   53.9636    7.7471    7.9860 C   0  0  0  0  0  0  0  0  0  0  0  0
   53.4040    8.3278    6.8376 C   0  0  0  0  0  0  0  0  0  0  0  0
   53.9788    9.4633    6.2626 C   0  0  0  0  0  0  0  0  0  0  0  0
   55.1183   10.0325    6.8267 C   0  0  0  0  0  0  0  0  0  0  0  0
   55.6847    9.4676    7.9666 C   0  0  0  0  0  0  0  0  0  0  0  0
   55.1122    8.3324    8.5439 C   0  0  0  0  0  0  0  0  0  0  0  0
   52.1039    8.8119   10.5000 S   0  0  0  0  0  0  0  0  0  0  0  0
   53.3113    9.1116   11.2267 O   0  0  0  0  0  0  0  0  0  0  0  0
   52.5257    7.8298    9.3040 O   0  0  0  0  0  0  0  0  0  0  0  0
   51.2027    7.8356   11.3989 O   0  0  0  0  0  0  0  0  0  0  0  0
   51.2154    9.8152    9.9715 O   0  0  0  0  0  0  0  0  0  0  0  0
   52.1156    8.7539   10.4138 O   0  0  0  0  0  0  0  0  0  0  0  0
   52.1119    8.7552   10.4176 O   0  0  0  0  0  0  0  0  0  0  0  0
   54.8561    5.9377    6.3419 H   0  0  0  0  0  0  0  0  0  0  0  0
   56.2767    6.8531    6.8747 H   0  0  0  0  0  0  0  0  0  0  0  0
   55.7938    5.4063    7.7471 H   0  0  0  0  0  0  0  0  0  0  0  0
   54.7518    8.8126    6.8326 H   0  0  0  0  0  0  0  0  0  0  0  0
   52.0239    8.5167    6.6304 H   0  0  0  0  0  0  0  0  0  0  0  0
   53.1242    7.5108    5.6884 H   0  0  0  0  0  0  0  0  0  0  0  0
   52.4579    5.6667    6.7991 H   0  0  0  0  0  0  0  0  0  0  0  0
   51.3573    6.6140    7.8036 H   0  0  0  0  0  0  0  0  0  0  0  0
   53.5754    5.3530    8.8644 H   0  0  0  0  0  0  0  0  0  0  0  0
   51.8046    7.1089    9.9409 H   0  0  0  0  0  0  0  0  0  0  0  0
   53.2621    6.6052   10.7569 H   0  0  0  0  0  0  0  0  0  0  0  0
   54.3808    8.5923   10.4760 H   0  0  0  0  0  0  0  0  0  0  0  0
   54.3792   10.0397    8.7362 H   0  0  0  0  0  0  0  0  0  0  0  0
   52.7027    9.8239    8.3139 H   0  0  0  0  0  0  0  0  0  0  0  0
   51.3617   11.0190   12.1357 H   0  0  0  0  0  0  0  0  0  0  0  0
   52.9621   10.7235   14.1720 H   0  0  0  0  0  0  0  0  0  0  0  0
   51.6794    9.7260   14.8853 H   0  0  0  0  0  0  0  0  0  0  0  0
   51.4463   11.8574   15.4798 H   0  0  0  0  0  0  0  0  0  0  0  0
   50.8324    7.4919   13.4895 H   0  0  0  0  0  0  0  0  0  0  0  0
   48.6301    6.3987   13.4847 H   0  0  0  0  0  0  0  0  0  0  0  0
   46.6124    7.6439   12.7565 H   0  0  0  0  0  0  0  0  0  0  0  0
   46.8098   10.0101   12.0390 H   0  0  0  0  0  0  0  0  0  0  0  0
   49.0067   11.1321   12.0395 H   0  0  0  0  0  0  0  0  0  0  0  0
   48.7280    8.5178   15.1777 H   0  0  0  0  0  0  0  0  0  0  0  0
   48.9761   10.2107   14.7142 H   0  0  0  0  0  0  0  0  0  0  0  0
   50.2395    9.3180   15.5813 H   0  0  0  0  0  0  0  0  0  0  0  0
   48.1230    8.1921   12.7923 H   0  0  0  0  0  0  0  0  0  0  0  0
   48.6687   10.1003   10.8814 H   0  0  0  0  0  0  0  0  0  0  0  0
   48.0622   10.5456   12.4772 H   0  0  0  0  0  0  0  0  0  0  0  0
   50.6756   11.1696   11.3969 H   0  0  0  0  0  0  0  0  0  0  0  0
   49.9952   11.5961   12.9695 H   0  0  0  0  0  0  0  0  0  0  0  0
   51.6986   10.1396   13.7451 H   0  0  0  0  0  0  0  0  0  0  0  0
   52.2081    9.5608   11.1402 H   0  0  0  0  0  0  0  0  0  0  0  0
   52.8368    8.6177   12.4672 H   0  0  0  0  0  0  0  0  0  0  0  0
   51.4701    6.8061   12.1316 H   0  0  0  0  0  0  0  0  0  0  0  0
   49.3680    8.0356   10.3829 H   0  0  0  0  0  0  0  0  0  0  0  0
   49.3053    6.7028   11.5037 H   0  0  0  0  0  0  0  0  0  0  0  0
   52.3941    6.2859    8.0628 H   0  0  0  0  0  0  0  0  0  0  0  0
   53.8517    4.4680    9.1651 H   0  0  0  0  0  0  0  0  0  0  0  0
   55.2516    5.4707    8.7870 H   0  0  0  0  0  0  0  0  0  0  0  0
   53.3262    4.4225    6.9696 H   0  0  0  0  0  0  0  0  0  0  0  0
   52.5181    7.8975    6.3759 H   0  0  0  0  0  0  0  0  0  0  0  0
   53.5382    9.9017    5.3709 H   0  0  0  0  0  0  0  0  0  0  0  0
   55.5674   10.9134    6.3755 H   0  0  0  0  0  0  0  0  0  0  0  0
   56.5758    9.9087    8.4059 H   0  0  0  0  0  0  0  0  0  0  0  0
   55.5748    7.9104    9.4346 H   0  0  0  0  0  0  0  0  0  0  0  0
   53.3260    7.3462    9.5962 H   0  0  0  0  0  0  0  0  0  0  0  0
   50.2914    7.8739   11.0420 H   0  0  0  0  0  0  0  0  0  0  0  0
   51.4198    8.3762   10.9726 H   0  0  0  0  0  0  0  0  0  0  0  0
   52.4544    7.9946    9.9161 H   0  0  0  0  0  0  0  0  0  0  0  0
   52.4593    8.0040    9.9137 H   0  0  0  0  0  0  0  0  0  0  0  0
   51.4186    8.3654   10.9712 H   0  0  0  0  0  0  0  0  0  0  0  0
  1  2  1  0
  3  2  1  0
  3  4  1  0
  4  5  1  0
  6  5  1  0
  6  2  1  0
  6  7  1  0
  7  8  1  0
  8  9  1  0
  3  9  1  0
  8 10  1  0
 10 11  1  0
 11 12  2  0
 11 13  1  0
 13 14  1  0
 14 15  1  0
 13 16  1  0
 16 17  2  0
 17 18  1  0
 18 19  2  0
 19 20  1  0
 20 21  2  0
 16 21  1  0
 22 23  1  0
 24 23  1  0
 24 25  1  0
 25 26  1  0
 27 26  1  0
 27 23  1  0
 27 28  1  0
 28 29  1  0
 29 30  1  0
 24 30  1  0
 29 31  1  0
 31 32  1  0
 32 33  2  0
 32 34  1  0
 34 35  1  0
 35 36  1  0
 34 37  1  0
 37 38  2  0
 38 39  1  0
 39 40  2  0
 40 41  1  0
 41 42  2  0
 37 42  1  0
 43 44  2  0
 43 45  1  0
 43 46  1  0
 43 47  2  0
  1 50  1  0
  1 51  1  0
  1 52  1  0
  3 53  1  6
  4 54  1  0
  4 55  1  0
  5 56  1  0
  5 57  1  0
  6 58  1  1
  7 59  1  0
  7 60  1  0
  8 61  1  1
  9 62  1  0
  9 63  1  0
 13 64  1  6
 14 65  1  0
 14 66  1  0
 15 67  1  0
 17 68  1  0
 18 69  1  0
 19 70  1  0
 20 71  1  0
 21 72  1  0
 22 73  1  0
 22 74  1  0
 22 75  1  0
 24 76  1  6
 25 77  1  0
 25 78  1  0
 26 79  1  0
 26 80  1  0
 27 81  1  1
 28 82  1  0
 28 83  1  0
 29 84  1  1
 30 85  1  0
 30 86  1  0
 34 87  1  6
 35 88  1  0
 35 89  1  0
 36 90  1  0
 38 91  1  0
 39 92  1  0
 40 93  1  0
 41 94  1  0
 42 95  1  0
 45 96  1  0
 46 97  1  0
 48 98  1  0
 48 99  1  0
 49100  1  0
 49101  1  0
M  END
> <Uni-Dock RESULT> 
ENERGY=   -5.370  LOWER_BOUND=    0.000  UPPER_BOUND=    0.000
INTER + INTRA:          -5.370
INTER:                  -5.370
INTRA:                   0.000
UNBOUND:                 0.000

$$$$

     RDKit          3D

101102  0  0  0  0  0  0  0  0999 V2000
   49.3150    5.3285   20.3191 C   0  0  0  0  0  0  0  0  0  0  0  0
   49.3356    5.7148   18.9102 N   0  0  0  0  0  0  0  0  0  0  0  0
   48.3846    4.9448   18.0882 C   0  0  1  0  0  0  0  0  0  0  0  0
   47.0223    5.5872   18.3683 C   0  0  0  0  0  0  0  0  0  0  0  0
   47.3503    7.0244   18.7517 C   0  0  0  0  0  0  0  0  0  0  0  0
   48.8806    7.1009   18.6913 C   0  0  2  0  0  0  0  0  0  0  0  0
   49.3556    7.5381   17.2933 C   0  0  0  0  0  0  0  0  0  0  0  0
   49.6615    6.3566   16.3575 C   0  0  1  0  0  0  0  0  0  0  0  0
   48.7817    5.1224   16.6106 C   0  0  0  0  0  0  0  0  0  0  0  0
   49.4869    6.7469   14.9804 O   0  0  0  0  0  0  0  0  0  0  0  0
   50.4865    7.4896   14.4236 C   0  0  0  0  0  0  0  0  0  0  0  0
   51.5216    7.8168   14.9909 O   0  0  0  0  0  0  0  0  0  0  0  0
   50.1141    7.8869   13.0061 C   0  0  2  0  0  0  0  0  0  0  0  0
   51.3912    8.0682   12.1756 C   0  0  0  0  0  0  0  0  0  0  0  0
   51.1044    7.8797   10.7875 O   0  0  0  0  0  0  0  0  0  0  0  0
   49.2308    9.1264   12.9738 C   0  0  0  0  0  0  0  0  0  0  0  0
   49.5445   10.2738   13.7212 C   0  0  0  0  0  0  0  0  0  0  0  0
   48.7211   11.3998   13.6749 C   0  0  0  0  0  0  0  0  0  0  0  0
   47.5789   11.3975   12.8778 C   0  0  0  0  0  0  0  0  0  0  0  0
   47.2622   10.2716   12.1212 C   0  0  0  0  0  0  0  0  0  0  0  0
   48.0835    9.1435   12.1663 C   0  0  0  0  0  0  0  0  0  0  0  0
   50.2636   10.6170   11.7954 C   0  0  0  0  0  0  0  0  0  0  0  0
   49.8400    9.9730   13.0368 N   0  0  0  0  0  0  0  0  0  0  0  0
   48.3889   10.0763   13.2713 C   0  0  1  0  0  0  0  0  0  0  0  0
   47.7718    9.0013   12.3703 C   0  0  0  0  0  0  0  0  0  0  0  0
   48.8709    7.9588   12.2114 C   0  0  0  0  0  0  0  0  0  0  0  0
   50.0482    8.5126   13.0217 C   0  0  2  0  0  0  0  0  0  0  0  0
   49.9965    8.0107   14.4768 C   0  0  0  0  0  0  0  0  0  0  0  0
   49.2590    8.9700   15.4268 C   0  0  1  0  0  0  0  0  0  0  0  0
   48.1255    9.7630   14.7559 C   0  0  0  0  0  0  0  0  0  0  0  0
   48.6906    8.2466   16.5391 O   0  0  0  0  0  0  0  0  0  0  0  0
   49.5539    7.8579   17.5208 C   0  0  0  0  0  0  0  0  0  0  0  0
   50.7545    8.0944   17.5384 O   0  0  0  0  0  0  0  0  0  0  0  0
   48.8102    7.0696   18.5851 C   0  0  2  0  0  0  0  0  0  0  0  0
   49.4683    7.3166   19.9511 C   0  0  0  0  0  0  0  0  0  0  0  0
   48.5796    6.9934   21.0235 O   0  0  0  0  0  0  0  0  0  0  0  0
   48.7214    5.5944   18.2264 C   0  0  0  0  0  0  0  0  0  0  0  0
   47.4686    4.9696   18.1304 C   0  0  0  0  0  0  0  0  0  0  0  0
   47.3723    3.6163   17.7992 C   0  0  0  0  0  0  0  0  0  0  0  0
   48.5245    2.8710   17.5599 C   0  0  0  0  0  0  0  0  0  0  0  0
   49.7749    3.4774   17.6510 C   0  0  0  0  0  0  0  0  0  0  0  0
   49.8744    4.8303   17.9819 C   0  0  0  0  0  0  0  0  0  0  0  0
   49.1049    7.2282   15.3810 S   0  0  0  0  0  0  0  0  0  0  0  0
   50.4420    6.6992   15.2925 O   0  0  0  0  0  0  0  0  0  0  0  0
   48.6364    7.0261   16.9018 O   0  0  0  0  0  0  0  0  0  0  0  0
   49.1878    8.8278   15.2928 O   0  0  0  0  0  0  0  0  0  0  0  0
   48.0245    6.8278   14.5164 O   0  0  0  0  0  0  0  0  0  0  0  0
   49.0569    7.2162   15.4732 O   0  0  0  0  0  0  0  0  0  0  0  0
   49.0569    7.2193   15.4688 O   0  0  0  0  0  0  0  0  0  0  0  0
   48.3349    5.4338   20.7952 H   0  0  0  0  0  0  0  0  0  0  0  0
   49.6341    4.2864   20.4266 H   0  0  0  0  0  0  0  0  0  0  0  0
   50.0308    5.9363   20.8825 H   0  0  0  0  0  0  0  0  0  0  0  0
   48.3718    3.8755   18.3279 H   0  0  0  0  0  0  0  0  0  0  0  0
   46.3372    5.5403   17.5160 H   0  0  0  0  0  0  0  0  0  0  0  0
   46.5269    5.0884   19.2100 H   0  0  0  0  0  0  0  0  0  0  0  0
   46.9960    7.2201   19.7705 H   0  0  0  0  0  0  0  0  0  0  0  0
   46.8552    7.7411   18.0893 H   0  0  0  0  0  0  0  0  0  0  0  0
   49.2670    7.8064   19.4362 H   0  0  0  0  0  0  0  0  0  0  0  0
   48.6397    8.2259   16.8269 H   0  0  0  0  0  0  0  0  0  0  0  0
   50.2818    8.1176   17.4061 H   0  0  0  0  0  0  0  0  0  0  0  0
   50.7053    6.0452   16.5090 H   0  0  0  0  0  0  0  0  0  0  0  0
   49.3549    4.2428   16.2866 H   0  0  0  0  0  0  0  0  0  0  0  0
   47.8965    5.1395   15.9631 H   0  0  0  0  0  0  0  0  0  0  0  0
   49.5582    7.0403   12.5781 H   0  0  0  0  0  0  0  0  0  0  0  0
   52.1463    7.3218   12.4459 H   0  0  0  0  0  0  0  0  0  0  0  0
   51.8318    9.0629   12.3079 H   0  0  0  0  0  0  0  0  0  0  0  0
   51.9128    8.1124   10.2978 H   0  0  0  0  0  0  0  0  0  0  0  0
   50.4341   10.3043   14.3481 H   0  0  0  0  0  0  0  0  0  0  0  0
   48.9740   12.2805   14.2599 H   0  0  0  0  0  0  0  0  0  0  0  0
   46.9392   12.2753   12.8414 H   0  0  0  0  0  0  0  0  0  0  0  0
   46.3757   10.2716   11.4924 H   0  0  0  0  0  0  0  0  0  0  0  0
   47.8268    8.2776   11.5586 H   0  0  0  0  0  0  0  0  0  0  0  0
   50.0651   11.6936   11.8451 H   0  0  0  0  0  0  0  0  0  0  0  0
   49.7721   10.2231   10.8995 H   0  0  0  0  0  0  0  0  0  0  0  0
   51.3461   10.5041   11.6666 H   0  0  0  0  0  0  0  0  0  0  0  0
   47.9805   11.0666   13.0383 H   0  0  0  0  0  0  0  0  0  0  0  0
   46.8555    8.5648   12.7811 H   0  0  0  0  0  0  0  0  0  0  0  0
   47.5211    9.4203   11.3889 H   0  0  0  0  0  0  0  0  0  0  0  0
   48.5415    6.9710   12.5491 H   0  0  0  0  0  0  0  0  0  0  0  0
   49.1404    7.8696   11.1521 H   0  0  0  0  0  0  0  0  0  0  0  0
   51.0051    8.2165   12.5757 H   0  0  0  0  0  0  0  0  0  0  0  0
   49.5690    7.0015   14.5357 H   0  0  0  0  0  0  0  0  0  0  0  0
   51.0265    7.9101   14.8452 H   0  0  0  0  0  0  0  0  0  0  0  0
   49.9785    9.7051   15.8158 H   0  0  0  0  0  0  0  0  0  0  0  0
   47.1643    9.2510   14.8869 H   0  0  0  0  0  0  0  0  0  0  0  0
   48.0225   10.7083   15.3067 H   0  0  0  0  0  0  0  0  0  0  0  0
   47.7937    7.4846   18.6399 H   0  0  0  0  0  0  0  0  0  0  0  0
   49.7466    8.3700   20.0706 H   0  0  0  0  0  0  0  0  0  0  0  0
   50.3800    6.7248   20.0850 H   0  0  0  0  0  0  0  0  0  0  0  0
   47.8290    7.6101   20.9892 H   0  0  0  0  0  0  0  0  0  0  0  0
   46.5554    5.5296   18.3189 H   0  0  0  0  0  0  0  0  0  0  0  0
   46.3963    3.1428   17.7316 H   0  0  0  0  0  0  0  0  0  0  0  0
   48.4484    1.8167   17.3068 H   0  0  0  0  0  0  0  0  0  0  0  0
   50.6750    2.8962   17.4678 H   0  0  0  0  0  0  0  0  0  0  0  0
   50.8638    5.2801   18.0467 H   0  0  0  0  0  0  0  0  0  0  0  0
   49.4450    7.0231   17.4549 H   0  0  0  0  0  0  0  0  0  0  0  0
   48.2923    9.1511   15.0632 H   0  0  0  0  0  0  0  0  0  0  0  0
   48.9944    8.1402   15.1883 H   0  0  0  0  0  0  0  0  0  0  0  0
   49.0056    7.2650   16.4397 H   0  0  0  0  0  0  0  0  0  0  0  0
   49.0066    7.2549   16.4358 H   0  0  0  0  0  0  0  0  0  0  0  0
   48.9934    8.1472   15.1966 H   0  0  0  0  0  0  0  0  0  0  0  0
  1  2  1  0
  3  2  1  0
  3  4  1  0
  4  5  1  0
  6  5  1  0
  6  2  1  0
  6  7  1  0
  7  8  1  0
  8  9  1  0
  3  9  1  0
  8 10  1  0
 10 11  1  0
 11 12  2  0
 11 13  1  0
 13 14  1  0
 14 15  1  0
 13 16  1  0
 16 17  2  0
 17 18  1  0
 18 19  2  0
 19 20  1  0
 20 21  2  0
 16 21  1  0
 22 23  1  0
 24 23  1  0
 24 25  1  0
 25 26  1  0
 27 26  1  0
 27 23  1  0
 27 28  1  0
 28 29  1  0
 29 30  1  0
 24 30  1  0
 29 31  1  0
 31 32  1  0
 32 33  2  0
 32 34  1  0
 34 35  1  0
 35 36  1  0
 34 37  1  0
 37 38  2  0
 38 39  1  0
 39 40  2  0
 40 41  1  0
 41 42  2  0
 37 42  1  0
 43 44  2  0
 43 45  1  0
 43 46  1  0
 43 47  2  0
  1 50  1  0
  1 51  1  0
  1 52  1  0
  3 53  1  6
  4 54  1  0
  4 55  1  0
  5 56  1  0
  5 57  1  0
  6 58  1  1
  7 59  1  0
  7 60  1  0
  8 61  1  1
  9 62  1  0
  9 63  1  0
 13 64  1  6
 14 65  1  0
 14 66  1  0
 15 67  1  0
 17 68  1  0
 18 69  1  0
 19 70  1  0
 20 71  1  0
 21 72  1  0
 22 73  1  0
 22 74  1  0
 22 75  1  0
 24 76  1  6
 25 77  1  0
 25 78  1  0
 26 79  1  0
 26 80  1  0
 27 81  1  1
 28 82  1  0
 28 83  1  0
 29 84  1  1
 30 85  1  0
 30 86  1  0
 34 87  1  6
 35 88  1  0
 35 89  1  0
 36 90  1  0
 38 91  1  0
 39 92  1  0
 40 93  1  0
 41 94  1  0
 42 95  1  0
 45 96  1  0
 46 97  1  0
 48 98  1  0
 48 99  1  0
 49100  1  0
 49101  1  0
M  END
> <Uni-Dock RESULT> 
ENERGY=   -5.262  LOWER_BOUND=    4.085  UPPER_BOUND=    8.318
INTER + INTRA:          -5.262
INTER:                  -5.262
INTRA:                   0.000
UNBOUND:                 0.000

$$$$

     RDKit          3D

101102  0  0  0  0  0  0  0  0999 V2000
   50.8832    8.5612   13.1029 C   0  0  0  0  0  0  0  0  0  0  0  0
   50.0913    8.9517   14.2670 N   0  0  0  0  0  0  0  0  0  0  0  0
   48.8214    8.2109   14.3742 C   0  0  1  0  0  0  0  0  0  0  0  0
   49.2162    6.8474   14.9504 C   0  0  0  0  0  0  0  0  0  0  0  0
   50.4881    7.1221   15.7422 C   0  0  0  0  0  0  0  0  0  0  0  0
   50.7509    8.6197   15.5440 C   0  0  2  0  0  0  0  0  0  0  0  0
   50.0768    9.4488   16.6527 C   0  0  0  0  0  0  0  0  0  0  0  0
   48.6675    9.9363   16.2764 C   0  0  1  0  0  0  0  0  0  0  0  0
   47.9067    8.9749   15.3499 C   0  0  0  0  0  0  0  0  0  0  0  0
   47.8688   10.1303   17.4613 O   0  0  0  0  0  0  0  0  0  0  0  0
   48.1057   11.2655   18.1795 C   0  0  0  0  0  0  0  0  0  0  0  0
   48.9136   12.1352   17.8775 O   0  0  0  0  0  0  0  0  0  0  0  0
   47.2483   11.2787   19.4327 C   0  0  2  0  0  0  0  0  0  0  0  0
   46.9648   12.7302   19.8407 C   0  0  0  0  0  0  0  0  0  0  0  0
   45.7637   12.7966   20.6138 O   0  0  0  0  0  0  0  0  0  0  0  0
   47.8791   10.4799   20.5647 C   0  0  0  0  0  0  0  0  0  0  0  0
   49.2309   10.6378   20.9131 C   0  0  0  0  0  0  0  0  0  0  0  0
   49.7878    9.8960   21.9560 C   0  0  0  0  0  0  0  0  0  0  0  0
   49.0020    8.9931   22.6682 C   0  0  0  0  0  0  0  0  0  0  0  0
   47.6568    8.8355   22.3424 C   0  0  0  0  0  0  0  0  0  0  0  0
   47.0973    9.5754   21.2991 C   0  0  0  0  0  0  0  0  0  0  0  0
   48.1452   11.8327   22.2310 C   0  0  0  0  0  0  0  0  0  0  0  0
   48.5776   11.0850   21.0523 N   0  0  0  0  0  0  0  0  0  0  0  0
   48.5740    9.6267   21.2639 C   0  0  1  0  0  0  0  0  0  0  0  0
   47.1040    9.2171   21.1242 C   0  0  0  0  0  0  0  0  0  0  0  0
   46.4953   10.2804   20.2192 C   0  0  0  0  0  0  0  0  0  0  0  0
   47.6544   11.2348   19.9114 C   0  0  2  0  0  0  0  0  0  0  0  0
   48.4005   10.7980   18.6367 C   0  0  0  0  0  0  0  0  0  0  0  0
   49.6034    9.8813   18.9182 C   0  0  1  0  0  0  0  0  0  0  0  0
   49.4284    8.9851   20.1551 C   0  0  0  0  0  0  0  0  0  0  0  0
   49.8642    9.0232   17.7871 O   0  0  0  0  0  0  0  0  0  0  0  0
   50.4864    9.5951   16.7167 C   0  0  0  0  0  0  0  0  0  0  0  0
   50.8553   10.7603   16.6551 O   0  0  0  0  0  0  0  0  0  0  0  0
   50.6398    8.5772   15.5997 C   0  0  2  0  0  0  0  0  0  0  0  0
   51.9251    8.8777   14.8135 C   0  0  0  0  0  0  0  0  0  0  0  0
   52.3616    7.7352   14.0729 O   0  0  0  0  0  0  0  0  0  0  0  0
   49.4021    8.5262   14.7177 C   0  0  0  0  0  0  0  0  0  0  0  0
   48.7144    7.3156   14.5427 C   0  0  0  0  0  0  0  0  0  0  0  0
   47.5746    7.2549   13.7379 C   0  0  0  0  0  0  0  0  0  0  0  0
   47.1080    8.4012   13.0984 C   0  0  0  0  0  0  0  0  0  0  0  0
   47.7798    9.6099   13.2629 C   0  0  0  0  0  0  0  0  0  0  0  0
   48.9195    9.6738   14.0671 C   0  0  0  0  0  0  0  0  0  0  0  0
   48.4140    9.6779   17.6519 S   0  0  0  0  0  0  0  0  0  0  0  0
   48.2307   10.9730   17.0480 O   0  0  0  0  0  0  0  0  0  0  0  0
   49.3328    8.8330   16.6445 O   0  0  0  0  0  0  0  0  0  0  0  0
   49.3997    9.8410   18.9069 O   0  0  0  0  0  0  0  0  0  0  0  0
   47.3302    8.8367   18.0915 O   0  0  0  0  0  0  0  0  0  0  0  0
   48.4665    9.6078   17.5948 O   0  0  0  0  0  0  0  0  0  0  0  0
   48.4653    9.6090   17.5999 O   0  0  0  0  0  0  0  0  0  0  0  0
   51.1396    7.4973   13.0757 H   0  0  0  0  0  0  0  0  0  0  0  0
   50.3410    8.8031   12.1826 H   0  0  0  0  0  0  0  0  0  0  0  0
   51.8163    9.1339   13.0780 H   0  0  0  0  0  0  0  0  0  0  0  0
   48.3038    8.0975   13.4149 H   0  0  0  0  0  0  0  0  0  0  0  0
   48.4375    6.3986   15.5751 H   0  0  0  0  0  0  0  0  0  0  0  0
   49.4340    6.1368   14.1439 H   0  0  0  0  0  0  0  0  0  0  0  0
   51.3115    6.5294   15.3268 H   0  0  0  0  0  0  0  0  0  0  0  0
   50.3776    6.8379   16.7932 H   0  0  0  0  0  0  0  0  0  0  0  0
   51.8265    8.8318   15.5440 H   0  0  0  0  0  0  0  0  0  0  0  0
   50.0558    8.9005   17.6026 H   0  0  0  0  0  0  0  0  0  0  0  0
   50.6925   10.3377   16.8455 H   0  0  0  0  0  0  0  0  0  0  0  0
   48.7541   10.8953   15.7453 H   0  0  0  0  0  0  0  0  0  0  0  0
   47.1924    9.5777   14.7722 H   0  0  0  0  0  0  0  0  0  0  0  0
   47.2878    8.2834   15.9347 H   0  0  0  0  0  0  0  0  0  0  0  0
   46.2878   10.8174   19.1614 H   0  0  0  0  0  0  0  0  0  0  0  0
   46.8087   13.3637   18.9605 H   0  0  0  0  0  0  0  0  0  0  0  0
   47.7823   13.1604   20.4303 H   0  0  0  0  0  0  0  0  0  0  0  0
   45.6874   13.7108   20.9394 H   0  0  0  0  0  0  0  0  0  0  0  0
   49.8660   11.3406   20.3765 H   0  0  0  0  0  0  0  0  0  0  0  0
   50.8358   10.0260   22.2140 H   0  0  0  0  0  0  0  0  0  0  0  0
   49.4363    8.4171   23.4810 H   0  0  0  0  0  0  0  0  0  0  0  0
   47.0405    8.1373   22.9028 H   0  0  0  0  0  0  0  0  0  0  0  0
   46.0414    9.4480   21.0672 H   0  0  0  0  0  0  0  0  0  0  0  0
   48.8467   11.6689   23.0568 H   0  0  0  0  0  0  0  0  0  0  0  0
   47.1417   11.5690   22.5818 H   0  0  0  0  0  0  0  0  0  0  0  0
   48.1588   12.9075   22.0173 H   0  0  0  0  0  0  0  0  0  0  0  0
   48.9743    9.3283   22.2399 H   0  0  0  0  0  0  0  0  0  0  0  0
   46.9713    8.2109   20.7134 H   0  0  0  0  0  0  0  0  0  0  0  0
   46.6048    9.2386   22.0999 H   0  0  0  0  0  0  0  0  0  0  0  0
   46.0499    9.8392   19.3218 H   0  0  0  0  0  0  0  0  0  0  0  0
   45.6966   10.8052   20.7570 H   0  0  0  0  0  0  0  0  0  0  0  0
   47.2928   12.2614   19.7793 H   0  0  0  0  0  0  0  0  0  0  0  0
   47.7177   10.3316   17.9150 H   0  0  0  0  0  0  0  0  0  0  0  0
   48.7824   11.6970   18.1340 H   0  0  0  0  0  0  0  0  0  0  0  0
   50.4902   10.5064   19.0976 H   0  0  0  0  0  0  0  0  0  0  0  0
   49.0316    8.0033   19.8691 H   0  0  0  0  0  0  0  0  0  0  0  0
   50.4330    8.7820   20.5518 H   0  0  0  0  0  0  0  0  0  0  0  0
   50.7783    7.5964   16.0763 H   0  0  0  0  0  0  0  0  0  0  0  0
   52.7438    9.1564   15.4868 H   0  0  0  0  0  0  0  0  0  0  0  0
   51.7945    9.7028   14.1053 H   0  0  0  0  0  0  0  0  0  0  0  0
   52.6096    7.0415   14.7072 H   0  0  0  0  0  0  0  0  0  0  0  0
   49.0634    6.4063   15.0269 H   0  0  0  0  0  0  0  0  0  0  0  0
   47.0529    6.3105   13.6071 H   0  0  0  0  0  0  0  0  0  0  0  0
   46.2237    8.3516   12.4685 H   0  0  0  0  0  0  0  0  0  0  0  0
   47.4187   10.5045   12.7619 H   0  0  0  0  0  0  0  0  0  0  0  0
   49.4261   10.6310   14.1789 H   0  0  0  0  0  0  0  0  0  0  0  0
   49.8779    9.4749   16.1438 H   0  0  0  0  0  0  0  0  0  0  0  0
   49.2879    9.0454   19.4672 H   0  0  0  0  0  0  0  0  0  0  0  0
   48.8437    9.6543   18.4861 H   0  0  0  0  0  0  0  0  0  0  0  0
   49.2069    9.3157   17.0420 H   0  0  0  0  0  0  0  0  0  0  0  0
   49.1976    9.3173   17.0366 H   0  0  0  0  0  0  0  0  0  0  0  0
   48.8542    9.6515   18.4865 H   0  0  0  0  0  0  0  0  0  0  0  0
  1  2  1  0
  3  2  1  0
  3  4  1  0
  4  5  1  0
  6  5  1  0
  6  2  1  0
  6  7  1  0
  7  8  1  0
  8  9  1  0
  3  9  1  0
  8 10  1  0
 10 11  1  0
 11 12  2  0
 11 13  1  0
 13 14  1  0
 14 15  1  0
 13 16  1  0
 16 17  2  0
 17 18  1  0
 18 19  2  0
 19 20  1  0
 20 21  2  0
 16 21  1  0
 22 23  1  0
 24 23  1  0
 24 25  1  0
 25 26  1  0
 27 26  1  0
 27 23  1  0
 27 28  1  0
 28 29  1  0
 29 30  1  0
 24 30  1  0
 29 31  1  0
 31 32  1  0
 32 33  2  0
 32 34  1  0
 34 35  1  0
 35 36  1  0
 34 37  1  0
 37 38  2  0
 38 39  1  0
 39 40  2  0
 40 41  1  0
 41 42  2  0
 37 42  1  0
 43 44  2  0
 43 45  1  0
 43 46  1  0
 43 47  2  0
  1 50  1  0
  1 51  1  0
  1 52  1  0
  3 53  1  6
  4 54  1  0
  4 55  1  0
  5 56  1  0
  5 57  1  0
  6 58  1  1
  7 59  1  0
  7 60  1  0
  8 61  1  1
  9 62  1  0
  9 63  1  0
 13 64  1  6
 14 65  1  0
 14 66  1  0
 15 67  1  0
 17 68  1  0
 18 69  1  0
 19 70  1  0
 20 71  1  0
 21 72  1  0
 22 73  1  0
 22 74  1  0
 22 75  1  0
 24 76  1  6
 25 77  1  0
 25 78  1  0
 26 79  1  0
 26 80  1  0
 27 81  1  1
 28 82  1  0
 28 83  1  0
 29 84  1  1
 30 85  1  0
 30 86  1  0
 34 87  1  6
 35 88  1  0
 35 89  1  0
 36 90  1  0
 38 91  1  0
 39 92  1  0
 40 93  1  0
 41 94  1  0
 42 95  1  0
 45 96  1  0
 46 97  1  0
 48 98  1  0
 48 99  1  0
 49100  1  0
 49101  1  0
M  END
> <Uni-Dock RESULT> 
ENERGY=   -5.239  LOWER_BOUND=    4.784  UPPER_BOUND=    8.427
INTER + INTRA:          -5.239
INTER:                  -5.239
INTRA:                   0.000
UNBOUND:                 0.000

$$$$

     RDKit          3D

101102  0  0  0  0  0  0  0  0999 V2000
   48.7627   15.2329   11.7709 C   0  0  0  0  0  0  0  0  0  0  0  0
   48.5454   14.9920   13.1954 N   0  0  0  0  0  0  0  0  0  0  0  0
   47.1953   15.3767   13.6450 C   0  0  1  0  0  0  0  0  0  0  0  0
   46.2930   14.2251   13.1901 C   0  0  0  0  0  0  0  0  0  0  0  0
   47.2160   13.0144   13.1415 C   0  0  0  0  0  0  0  0  0  0  0  0
   48.5908   13.5599   13.5460 C   0  0  2  0  0  0  0  0  0  0  0  0
   48.7998   13.4530   15.0679 C   0  0  0  0  0  0  0  0  0  0  0  0
   48.3873   14.7240   15.8293 C   0  0  1  0  0  0  0  0  0  0  0  0
   47.2181   15.4820   15.1814 C   0  0  0  0  0  0  0  0  0  0  0  0
   48.0061   14.3992   17.1816 O   0  0  0  0  0  0  0  0  0  0  0  0
   49.0201   14.1606   18.0624 C   0  0  0  0  0  0  0  0  0  0  0  0
   50.2142   14.2329   17.7994 O   0  0  0  0  0  0  0  0  0  0  0  0
   48.4545   13.7534   19.4115 C   0  0  2  0  0  0  0  0  0  0  0  0
   49.4359   14.1588   20.5188 C   0  0  0  0  0  0  0  0  0  0  0  0
   48.7392   14.3190   21.7571 O   0  0  0  0  0  0  0  0  0  0  0  0
   48.1145   12.2704   19.4642 C   0  0  0  0  0  0  0  0  0  0  0  0
   49.0158   11.2919   19.0128 C   0  0  0  0  0  0  0  0  0  0  0  0
   48.6838    9.9375   19.0724 C   0  0  0  0  0  0  0  0  0  0  0  0
   47.4521    9.5425   19.5888 C   0  0  0  0  0  0  0  0  0  0  0  0
   46.5535   10.5009   20.0522 C   0  0  0  0  0  0  0  0  0  0  0  0
   46.8826   11.8563   19.9929 C   0  0  0  0  0  0  0  0  0  0  0  0
   49.2663   11.4074   21.0786 C   0  0  0  0  0  0  0  0  0  0  0  0
   48.9851   11.7352   19.6826 N   0  0  0  0  0  0  0  0  0  0  0  0
   47.7935   11.0442   19.1591 C   0  0  1  0  0  0  0  0  0  0  0  0
   46.6075   11.8467   19.7045 C   0  0  0  0  0  0  0  0  0  0  0  0
   47.1607   13.2500   19.9166 C   0  0  0  0  0  0  0  0  0  0  0  0
   48.6298   13.1541   19.4903 C   0  0  2  0  0  0  0  0  0  0  0  0
   48.7893   13.4848   17.9945 C   0  0  0  0  0  0  0  0  0  0  0  0
   48.7396   12.2436   17.0871 C   0  0  1  0  0  0  0  0  0  0  0  0
   47.8417   11.1159   17.6216 C   0  0  0  0  0  0  0  0  0  0  0  0
   48.2657   12.5957   15.7698 O   0  0  0  0  0  0  0  0  0  0  0  0
   49.1549   13.2232   14.9478 C   0  0  0  0  0  0  0  0  0  0  0  0
   50.3157   13.4850   15.2332 O   0  0  0  0  0  0  0  0  0  0  0  0
   48.4881   13.5682   13.6273 C   0  0  2  0  0  0  0  0  0  0  0  0
   49.5311   13.5043   12.5011 C   0  0  0  0  0  0  0  0  0  0  0  0
   48.9082   13.3659   11.2216 O   0  0  0  0  0  0  0  0  0  0  0  0
   47.7709   14.9073   13.6977 C   0  0  0  0  0  0  0  0  0  0  0  0
   46.3999   14.9853   13.4091 C   0  0  0  0  0  0  0  0  0  0  0  0
   45.7281   16.2080   13.4726 C   0  0  0  0  0  0  0  0  0  0  0  0
   46.4163   17.3668   13.8247 C   0  0  0  0  0  0  0  0  0  0  0  0
   47.7771   17.3050   14.1143 C   0  0  0  0  0  0  0  0  0  0  0  0
   48.4515   16.0840   14.0518 C   0  0  0  0  0  0  0  0  0  0  0  0
   47.9501   13.7772   16.7966 S   0  0  0  0  0  0  0  0  0  0  0  0
   48.9229   14.8010   17.0816 O   0  0  0  0  0  0  0  0  0  0  0  0
   47.8662   13.6628   15.1989 O   0  0  0  0  0  0  0  0  0  0  0  0
   48.5881   12.3550   17.1757 O   0  0  0  0  0  0  0  0  0  0  0  0
   46.6090   13.7756   17.3227 O   0  0  0  0  0  0  0  0  0  0  0  0
   47.9277   13.7623   16.6956 O   0  0  0  0  0  0  0  0  0  0  0  0
   47.9276   13.7597   16.7003 O   0  0  0  0  0  0  0  0  0  0  0  0
   48.0561   14.7103   11.1182 H   0  0  0  0  0  0  0  0  0  0  0  0
   48.6928   16.3048   11.5572 H   0  0  0  0  0  0  0  0  0  0  0  0
   49.7746   14.9216   11.4906 H   0  0  0  0  0  0  0  0  0  0  0  0
   46.8552   16.3311   13.2272 H   0  0  0  0  0  0  0  0  0  0  0  0
   45.4372   14.0574   13.8515 H   0  0  0  0  0  0  0  0  0  0  0  0
   45.8941   14.4211   12.1875 H   0  0  0  0  0  0  0  0  0  0  0  0
   47.2454   12.6189   12.1194 H   0  0  0  0  0  0  0  0  0  0  0  0
   46.8608   12.2106   13.7936 H   0  0  0  0  0  0  0  0  0  0  0  0
   49.3938   13.0144   13.0365 H   0  0  0  0  0  0  0  0  0  0  0  0
   48.2899   12.5730   15.4787 H   0  0  0  0  0  0  0  0  0  0  0  0
   49.8678   13.2849   15.2613 H   0  0  0  0  0  0  0  0  0  0  0  0
   49.2431   15.4140   15.8574 H   0  0  0  0  0  0  0  0  0  0  0  0
   47.3186   16.5385   15.4657 H   0  0  0  0  0  0  0  0  0  0  0  0
   46.2625   15.1607   15.6136 H   0  0  0  0  0  0  0  0  0  0  0  0
   47.5336   14.3367   19.5554 H   0  0  0  0  0  0  0  0  0  0  0  0
   49.9066   15.1224   20.2948 H   0  0  0  0  0  0  0  0  0  0  0  0
   50.2292   13.4159   20.6594 H   0  0  0  0  0  0  0  0  0  0  0  0
   49.4134   14.4652   22.4439 H   0  0  0  0  0  0  0  0  0  0  0  0
   49.9873   11.5730   18.6097 H   0  0  0  0  0  0  0  0  0  0  0  0
   49.3893    9.1905   18.7176 H   0  0  0  0  0  0  0  0  0  0  0  0
   47.1951    8.4876   19.6361 H   0  0  0  0  0  0  0  0  0  0  0  0
   45.5955   10.1933   20.4631 H   0  0  0  0  0  0  0  0  0  0  0  0
   46.1730   12.5899   20.3713 H   0  0  0  0  0  0  0  0  0  0  0  0
   49.4983   10.3406   21.1735 H   0  0  0  0  0  0  0  0  0  0  0  0
   48.4437   11.6373   21.7641 H   0  0  0  0  0  0  0  0  0  0  0  0
   50.1543   11.9522   21.4186 H   0  0  0  0  0  0  0  0  0  0  0  0
   47.7311    9.9933   19.4650 H   0  0  0  0  0  0  0  0  0  0  0  0
   45.7411   11.8495   19.0350 H   0  0  0  0  0  0  0  0  0  0  0  0
   46.2751   11.4362   20.6650 H   0  0  0  0  0  0  0  0  0  0  0  0
   46.5949   13.9963   19.3498 H   0  0  0  0  0  0  0  0  0  0  0  0
   47.0840   13.5173   20.9774 H   0  0  0  0  0  0  0  0  0  0  0  0
   49.2538   13.8396   20.0760 H   0  0  0  0  0  0  0  0  0  0  0  0
   48.0536   14.2321   17.6706 H   0  0  0  0  0  0  0  0  0  0  0  0
   49.7685   13.9607   17.8477 H   0  0  0  0  0  0  0  0  0  0  0  0
   49.7547   11.8303   16.9971 H   0  0  0  0  0  0  0  0  0  0  0  0
   46.8326   11.1904   17.1980 H   0  0  0  0  0  0  0  0  0  0  0  0
   48.2449   10.1702   17.2332 H   0  0  0  0  0  0  0  0  0  0  0  0
   47.7500   12.7791   13.4248 H   0  0  0  0  0  0  0  0  0  0  0  0
   50.1979   12.6440   12.6289 H   0  0  0  0  0  0  0  0  0  0  0  0
   50.1614   14.3993   12.4688 H   0  0  0  0  0  0  0  0  0  0  0  0
   48.4571   12.5051   11.1976 H   0  0  0  0  0  0  0  0  0  0  0  0
   45.8428   14.0950   13.1259 H   0  0  0  0  0  0  0  0  0  0  0  0
   44.6668   16.2561   13.2432 H   0  0  0  0  0  0  0  0  0  0  0  0
   45.8933   18.3186   13.8692 H   0  0  0  0  0  0  0  0  0  0  0  0
   48.3161   18.2091   14.3860 H   0  0  0  0  0  0  0  0  0  0  0  0
   49.5153   16.0631   14.2827 H   0  0  0  0  0  0  0  0  0  0  0  0
   48.7335   13.9474   14.8432 H   0  0  0  0  0  0  0  0  0  0  0  0
   47.8477   11.7190   17.2571 H   0  0  0  0  0  0  0  0  0  0  0  0
   48.1352   12.9139   17.1152 H   0  0  0  0  0  0  0  0  0  0  0  0
   48.1589   13.6258   15.7644 H   0  0  0  0  0  0  0  0  0  0  0  0
   48.1551   13.6358   15.7667 H   0  0  0  0  0  0  0  0  0  0  0  0
   48.1391   12.9065   17.1082 H   0  0  0  0  0  0  0  0  0  0  0  0
  1  2  1  0
  3  2  1  0
  3  4  1  0
  4  5  1  0
  6  5  1  0
  6  2  1  0
  6  7  1  0
  7  8  1  0
  8  9  1  0
  3  9  1  0
  8 10  1  0
 10 11  1  0
 11 12  2  0
 11 13  1  0
 13 14  1  0
 14 15  1  0
 13 16  1  0
 16 17  2  0
 17 18  1  0
 18 19  2  0
 19 20  1  0
 20 21  2  0
 16 21  1  0
 22 23  1  0
 24 23  1  0
 24 25  1  0
 25 26  1  0
 27 26  1  0
 27 23  1  0
 27 28  1  0
 28 29  1  0
 29 30  1  0
 24 30  1  0
 29 31  1  0
 31 32  1  0
 32 33  2  0
 32 34  1  0
 34 35  1  0
 35 36  1  0
 34 37  1  0
 37 38  2  0
 38 39  1  0
 39 40  2  0
 40 41  1  0
 41 42  2  0
 37 42  1  0
 43 44  2  0
 43 45  1  0
 43 46  1  0
 43 47  2  0
  1 50  1  0
  1 51  1  0
  1 52  1  0
  3 53  1  6
  4 54  1  0
  4 55  1  0
  5 56  1  0
  5 57  1  0
  6 58  1  1
  7 59  1  0
  7 60  1  0
  8 61  1  1
  9 62  1  0
  9 63  1  0
 13 64  1  6
 14 65  1  0
 14 66  1  0
 15 67  1  0
 17 68  1  0
 18 69  1  0
 19 70  1  0
 20 71  1  0
 21 72  1  0
 22 73  1  0
 22 74  1  0
 22 75  1  0
 24 76  1  6
 25 77  1  0
 25 78  1  0
 26 79  1  0
 26 80  1  0
 27 81  1  1
 28 82  1  0
 28 83  1  0
 29 84  1  1
 30 85  1  0
 30 86  1  0
 34 87  1  6
 35 88  1  0
 35 89  1  0
 36 90  1  0
 38 91  1  0
 39 92  1  0
 40 93  1  0
 41 94  1  0
 42 95  1  0
 45 96  1  0
 46 97  1  0
 48 98  1  0
 48 99  1  0
 49100  1  0
 49101  1  0
M  END
> <Uni-Dock RESULT> 
ENERGY=   -5.198  LOWER_BOUND=    6.996  UPPER_BOUND=    9.395
INTER + INTRA:          -5.198
INTER:                  -5.198
INTRA:                   0.000
UNBOUND:                 0.000

$$$$

     RDKit          3D

101102  0  0  0  0  0  0  0  0999 V2000
   48.8117   10.3850   12.0839 C   0  0  0  0  0  0  0  0  0  0  0  0
   48.7779    9.3967   13.1595 N   0  0  0  0  0  0  0  0  0  0  0  0
   48.1975    8.1084   12.7396 C   0  0  1  0  0  0  0  0  0  0  0  0
   49.3228    7.4092   11.9703 C   0  0  0  0  0  0  0  0  0  0  0  0
   50.6032    7.9858   12.5605 C   0  0  0  0  0  0  0  0  0  0  0  0
   50.1243    8.9962   13.6098 C   0  0  2  0  0  0  0  0  0  0  0  0
   49.9814    8.3304   14.9909 C   0  0  0  0  0  0  0  0  0  0  0  0
   48.5640    7.8014   15.2674 C   0  0  1  0  0  0  0  0  0  0  0  0
   47.8269    7.3181   14.0086 C   0  0  0  0  0  0  0  0  0  0  0  0
   48.6101    6.7023   16.1999 O   0  0  0  0  0  0  0  0  0  0  0  0
   48.7829    7.0225   17.5146 C   0  0  0  0  0  0  0  0  0  0  0  0
   48.8684    8.1611   17.9577 O   0  0  0  0  0  0  0  0  0  0  0  0
   48.8933    5.7588   18.3493 C   0  0  2  0  0  0  0  0  0  0  0  0
   48.3922    6.0421   19.7714 C   0  0  0  0  0  0  0  0  0  0  0  0
   47.9537    4.8287   20.3878 O   0  0  0  0  0  0  0  0  0  0  0  0
   50.3062    5.1921   18.3437 C   0  0  0  0  0  0  0  0  0  0  0  0
   51.4276    6.0081   18.5678 C   0  0  0  0  0  0  0  0  0  0  0  0
   52.7141    5.4667   18.5602 C   0  0  0  0  0  0  0  0  0  0  0  0
   52.8971    4.1044   18.3356 C   0  0  0  0  0  0  0  0  0  0  0  0
   51.7936    3.2807   18.1248 C   0  0  0  0  0  0  0  0  0  0  0  0
   50.5058    3.8197   18.1309 C   0  0  0  0  0  0  0  0  0  0  0  0
   50.9752    5.1222   20.3992 C   0  0  0  0  0  0  0  0  0  0  0  0
   50.8728    5.6992   19.0606 N   0  0  0  0  0  0  0  0  0  0  0  0
   51.5320    4.8785   18.0295 C   0  0  1  0  0  0  0  0  0  0  0  0
   50.5404    3.7465   17.7405 C   0  0  0  0  0  0  0  0  0  0  0  0
   49.1788    4.3326   18.0910 C   0  0  0  0  0  0  0  0  0  0  0  0
   49.4830    5.7566   18.5691 C   0  0  2  0  0  0  0  0  0  0  0  0
   49.4359    6.7512   17.3940 C   0  0  0  0  0  0  0  0  0  0  0  0
   50.8071    6.9830   16.7362 C   0  0  1  0  0  0  0  0  0  0  0  0
   51.7359    5.7587   16.7824 C   0  0  0  0  0  0  0  0  0  0  0  0
   50.6494    7.3629   15.3525 O   0  0  0  0  0  0  0  0  0  0  0  0
   50.2605    8.6478   15.1119 C   0  0  0  0  0  0  0  0  0  0  0  0
   50.0608    9.4967   15.9705 O   0  0  0  0  0  0  0  0  0  0  0  0
   50.0925    8.8692   13.6186 C   0  0  2  0  0  0  0  0  0  0  0  0
   50.4488   10.3245   13.2789 C   0  0  0  0  0  0  0  0  0  0  0  0
   50.7515   10.4760   11.8898 O   0  0  0  0  0  0  0  0  0  0  0  0
   48.7014    8.4730   13.1491 C   0  0  0  0  0  0  0  0  0  0  0  0
   48.5492    7.5116   12.1383 C   0  0  0  0  0  0  0  0  0  0  0  0
   47.2776    7.1362   11.6994 C   0  0  0  0  0  0  0  0  0  0  0  0
   46.1435    7.7156   12.2639 C   0  0  0  0  0  0  0  0  0  0  0  0
   46.2788    8.6708   13.2682 C   0  0  0  0  0  0  0  0  0  0  0  0
   47.5488    9.0480   13.7092 C   0  0  0  0  0  0  0  0  0  0  0  0
   49.2821    6.7553   15.9104 S   0  0  0  0  0  0  0  0  0  0  0  0
   48.3183    7.5819   16.5912 O   0  0  0  0  0  0  0  0  0  0  0  0
   49.6668    7.5266   14.5576 O   0  0  0  0  0  0  0  0  0  0  0  0
   50.6684    6.8297   16.7140 O   0  0  0  0  0  0  0  0  0  0  0  0
   49.0677    5.3660   15.5953 O   0  0  0  0  0  0  0  0  0  0  0  0
   49.3123    6.7886   15.8160 O   0  0  0  0  0  0  0  0  0  0  0  0
   49.3140    6.7856   15.8202 O   0  0  0  0  0  0  0  0  0  0  0  0
   49.3732   10.0630   11.2012 H   0  0  0  0  0  0  0  0  0  0  0  0
   47.7921   10.6289   11.7670 H   0  0  0  0  0  0  0  0  0  0  0  0
   49.2593   11.3160   12.4475 H   0  0  0  0  0  0  0  0  0  0  0  0
   47.3039    8.2190   12.1148 H   0  0  0  0  0  0  0  0  0  0  0  0
   49.2923    6.3183   12.0534 H   0  0  0  0  0  0  0  0  0  0  0  0
   49.2698    7.6544   10.9027 H   0  0  0  0  0  0  0  0  0  0  0  0
   51.1728    8.4916   11.7722 H   0  0  0  0  0  0  0  0  0  0  0  0
   51.2439    7.2019   12.9760 H   0  0  0  0  0  0  0  0  0  0  0  0
   50.8224    9.8378   13.6900 H   0  0  0  0  0  0  0  0  0  0  0  0
   50.7249    7.5357   15.1283 H   0  0  0  0  0  0  0  0  0  0  0  0
   50.2108    9.0775   15.7626 H   0  0  0  0  0  0  0  0  0  0  0  0
   47.9617    8.6118   15.7029 H   0  0  0  0  0  0  0  0  0  0  0  0
   46.7507    7.4317   14.1987 H   0  0  0  0  0  0  0  0  0  0  0  0
   47.9779    6.2416   13.8617 H   0  0  0  0  0  0  0  0  0  0  0  0
   48.2114    5.0235   17.8984 H   0  0  0  0  0  0  0  0  0  0  0  0
   47.5304    6.7185   19.7581 H   0  0  0  0  0  0  0  0  0  0  0  0
   49.1689    6.4912   20.4008 H   0  0  0  0  0  0  0  0  0  0  0  0
   47.7521    5.0402   21.3163 H   0  0  0  0  0  0  0  0  0  0  0  0
   51.3125    7.0751   18.7514 H   0  0  0  0  0  0  0  0  0  0  0  0
   53.5736    6.1095   18.7326 H   0  0  0  0  0  0  0  0  0  0  0  0
   53.8991    3.6836   18.3312 H   0  0  0  0  0  0  0  0  0  0  0  0
   51.9346    2.2161   17.9577 H   0  0  0  0  0  0  0  0  0  0  0  0
   49.6549    3.1585   17.9769 H   0  0  0  0  0  0  0  0  0  0  0  0
   52.0256    5.0768   20.7083 H   0  0  0  0  0  0  0  0  0  0  0  0
   50.5538    4.1148   20.4831 H   0  0  0  0  0  0  0  0  0  0  0  0
   50.4634    5.7660   21.1236 H   0  0  0  0  0  0  0  0  0  0  0  0
   52.5026    4.4795   18.3466 H   0  0  0  0  0  0  0  0  0  0  0  0
   50.5752    3.3933   16.7048 H   0  0  0  0  0  0  0  0  0  0  0  0
   50.7436    2.8838   18.3855 H   0  0  0  0  0  0  0  0  0  0  0  0
   48.4945    4.3012   17.2371 H   0  0  0  0  0  0  0  0  0  0  0  0
   48.7237    3.7445   18.8971 H   0  0  0  0  0  0  0  0  0  0  0  0
   48.7659    6.0749   19.3350 H   0  0  0  0  0  0  0  0  0  0  0  0
   48.6924    6.4491   16.6453 H   0  0  0  0  0  0  0  0  0  0  0  0
   49.0855    7.7203   17.7745 H   0  0  0  0  0  0  0  0  0  0  0  0
   51.3216    7.7965   17.2681 H   0  0  0  0  0  0  0  0  0  0  0  0
   51.6441    5.1679   15.8628 H   0  0  0  0  0  0  0  0  0  0  0  0
   52.7681    6.1357   16.7773 H   0  0  0  0  0  0  0  0  0  0  0  0
   50.8334    8.2325   13.1146 H   0  0  0  0  0  0  0  0  0  0  0  0
   51.3312   10.6558   13.8383 H   0  0  0  0  0  0  0  0  0  0  0  0
   49.6354   11.0173   13.5193 H   0  0  0  0  0  0  0  0  0  0  0  0
   51.5578    9.9673   11.6998 H   0  0  0  0  0  0  0  0  0  0  0  0
   49.4201    7.0500   11.6784 H   0  0  0  0  0  0  0  0  0  0  0  0
   47.1728    6.3931   10.9132 H   0  0  0  0  0  0  0  0  0  0  0  0
   45.1545    7.4260   11.9182 H   0  0  0  0  0  0  0  0  0  0  0  0
   45.3947    9.1261   13.7073 H   0  0  0  0  0  0  0  0  0  0  0  0
   47.6268    9.7971   14.4955 H   0  0  0  0  0  0  0  0  0  0  0  0
   49.5301    8.4828   14.7217 H   0  0  0  0  0  0  0  0  0  0  0  0
   51.2093    6.0649   16.4281 H   0  0  0  0  0  0  0  0  0  0  0  0
   50.0895    6.5861   16.3582 H   0  0  0  0  0  0  0  0  0  0  0  0
   49.6307    7.4569   15.1907 H   0  0  0  0  0  0  0  0  0  0  0  0
   49.6202    7.4543   15.1894 H   0  0  0  0  0  0  0  0  0  0  0  0
   50.0983    6.5918   16.3554 H   0  0  0  0  0  0  0  0  0  0  0  0
  1  2  1  0
  3  2  1  0
  3  4  1  0
  4  5  1  0
  6  5  1  0
  6  2  1  0
  6  7  1  0
  7  8  1  0
  8  9  1  0
  3  9  1  0
  8 10  1  0
 10 11  1  0
 11 12  2  0
 11 13  1  0
 13 14  1  0
 14 15  1  0
 13 16  1  0
 16 17  2  0
 17 18  1  0
 18 19  2  0
 19 20  1  0
 20 21  2  0
 16 21  1  0
 22 23  1  0
 24 23  1  0
 24 25  1  0
 25 26  1  0
 27 26  1  0
 27 23  1  0
 27 28  1  0
 28 29  1  0
 29 30  1  0
 24 30  1  0
 29 31  1  0
 31 32  1  0
 32 33  2  0
 32 34  1  0
 34 35  1  0
 35 36  1  0
 34 37  1  0
 37 38  2  0
 38 39  1  0
 39 40  2  0
 40 41  1  0
 41 42  2  0
 37 42  1  0
 43 44  2  0
 43 45  1  0
 43 46  1  0
 43 47  2  0
  1 50  1  0
  1 51  1  0
  1 52  1  0
  3 53  1  6
  4 54  1  0
  4 55  1  0
  5 56  1  0
  5 57  1  0
  6 58  1  1
  7 59  1  0
  7 60  1  0
  8 61  1  1
  9 62  1  0
  9 63  1  0
 13 64  1  6
 14 65  1  0
 14 66  1  0
 15 67  1  0
 17 68  1  0
 18 69  1  0
 19 70  1  0
 20 71  1  0
 21 72  1  0
 22 73  1  0
 22 74  1  0
 22 75  1  0
 24 76  1  6
 25 77  1  0
 25 78  1  0
 26 79  1  0
 26 80  1  0
 27 81  1  1
 28 82  1  0
 28 83  1  0
 29 84  1  1
 30 85  1  0
 30 86  1  0
 34 87  1  6
 35 88  1  0
 35 89  1  0
 36 90  1  0
 38 91  1  0
 39 92  1  0
 40 93  1  0
 41 94  1  0
 42 95  1  0
 45 96  1  0
 46 97  1  0
 48 98  1  0
 48 99  1  0
 49100  1  0
 49101  1  0
M  END
> <Uni-Dock RESULT> 
ENERGY=   -5.090  LOWER_BOUND=    4.451  UPPER_BOUND=    7.489
INTER + INTRA:          -5.090
INTER:                  -5.090
INTRA:                   0.000
UNBOUND:                 0.000

$$$$

     RDKit          3D

101102  0  0  0  0  0  0  0  0999 V2000
   48.8478    7.5463   11.6024 C   0  0  0  0  0  0  0  0  0  0  0  0
   48.9621    8.4206   12.7674 N   0  0  0  0  0  0  0  0  0  0  0  0
   48.4826    9.7903   12.5085 C   0  0  1  0  0  0  0  0  0  0  0  0
   46.9560    9.6872   12.5860 C   0  0  0  0  0  0  0  0  0  0  0  0
   46.7005    8.5075   13.5151 C   0  0  0  0  0  0  0  0  0  0  0  0
   48.0983    7.9977   13.8859 C   0  0  2  0  0  0  0  0  0  0  0  0
   48.6133    8.6831   15.1650 C   0  0  0  0  0  0  0  0  0  0  0  0
   49.4562    9.9388   14.8853 C   0  0  1  0  0  0  0  0  0  0  0  0
   49.0282   10.7031   13.6227 C   0  0  0  0  0  0  0  0  0  0  0  0
   49.3836   10.8521   15.9988 O   0  0  0  0  0  0  0  0  0  0  0  0
   50.1414   10.5464   17.0911 C   0  0  0  0  0  0  0  0  0  0  0  0
   50.8929    9.5834   17.1808 O   0  0  0  0  0  0  0  0  0  0  0  0
   49.8901   11.5538   18.1992 C   0  0  2  0  0  0  0  0  0  0  0  0
   51.1427   11.6681   19.0775 C   0  0  0  0  0  0  0  0  0  0  0  0
   51.1682   12.9390   19.7324 O   0  0  0  0  0  0  0  0  0  0  0  0
   48.6507   11.2098   19.0135 C   0  0  0  0  0  0  0  0  0  0  0  0
   48.4230    9.9095   19.4939 C   0  0  0  0  0  0  0  0  0  0  0  0
   47.2804    9.6170   20.2404 C   0  0  0  0  0  0  0  0  0  0  0  0
   46.3549   10.6190   20.5223 C   0  0  0  0  0  0  0  0  0  0  0  0
   46.5741   11.9160   20.0635 C   0  0  0  0  0  0  0  0  0  0  0  0
   47.7155   12.2111   19.3158 C   0  0  0  0  0  0  0  0  0  0  0  0
   49.2817   10.9711   21.0684 C   0  0  0  0  0  0  0  0  0  0  0  0
   48.9111   10.5006   19.7355 N   0  0  0  0  0  0  0  0  0  0  0  0
   47.4961   10.7525   19.4103 C   0  0  1  0  0  0  0  0  0  0  0  0
   47.4434   12.2348   19.0253 C   0  0  0  0  0  0  0  0  0  0  0  0
   48.8452   12.5481   18.5185 C   0  0  0  0  0  0  0  0  0  0  0  0
   49.6105   11.2276   18.6590 C   0  0  2  0  0  0  0  0  0  0  0  0
   49.4998   10.3901   17.3711 C   0  0  0  0  0  0  0  0  0  0  0  0
   48.3325    9.3884   17.3938 C   0  0  1  0  0  0  0  0  0  0  0  0
   47.1198    9.8623   18.2115 C   0  0  0  0  0  0  0  0  0  0  0  0
   47.8763    9.1091   16.0530 O   0  0  0  0  0  0  0  0  0  0  0  0
   48.6492    8.2686   15.3071 C   0  0  0  0  0  0  0  0  0  0  0  0
   49.6743    7.7235   15.6939 O   0  0  0  0  0  0  0  0  0  0  0  0
   48.0613    8.1204   13.9144 C   0  0  2  0  0  0  0  0  0  0  0  0
   48.3624    6.7100   13.3848 C   0  0  0  0  0  0  0  0  0  0  0  0
   47.4785    6.3543   12.3187 O   0  0  0  0  0  0  0  0  0  0  0  0
   48.5471    9.2207   12.9839 C   0  0  0  0  0  0  0  0  0  0  0  0
   47.6206   10.0528   12.3371 C   0  0  0  0  0  0  0  0  0  0  0  0
   48.0528   11.0690   11.4822 C   0  0  0  0  0  0  0  0  0  0  0  0
   49.4142   11.2667   11.2627 C   0  0  0  0  0  0  0  0  0  0  0  0
   50.3455   10.4491   11.8979 C   0  0  0  0  0  0  0  0  0  0  0  0
   49.9164    9.4323   12.7534 C   0  0  0  0  0  0  0  0  0  0  0  0
   48.7991   10.4123   16.0546 S   0  0  0  0  0  0  0  0  0  0  0  0
   50.2322   10.3149   15.9423 O   0  0  0  0  0  0  0  0  0  0  0  0
   48.1890    9.5033   14.8821 O   0  0  0  0  0  0  0  0  0  0  0  0
   48.3376    9.5924   17.3538 O   0  0  0  0  0  0  0  0  0  0  0  0
   48.0793   11.6598   16.0828 O   0  0  0  0  0  0  0  0  0  0  0  0
   48.7440   10.3637   15.9802 O   0  0  0  0  0  0  0  0  0  0  0  0
   48.7436   10.3654   15.9853 O   0  0  0  0  0  0  0  0  0  0  0  0
   47.8282    7.4518   11.2153 H   0  0  0  0  0  0  0  0  0  0  0  0
   49.4852    7.9162   10.7924 H   0  0  0  0  0  0  0  0  0  0  0  0
   49.2079    6.5429   11.8530 H   0  0  0  0  0  0  0  0  0  0  0  0
   48.8013   10.1843   11.5368 H   0  0  0  0  0  0  0  0  0  0  0  0
   46.4774   10.6019   12.9495 H   0  0  0  0  0  0  0  0  0  0  0  0
   46.5338    9.4716   11.5971 H   0  0  0  0  0  0  0  0  0  0  0  0
   46.1400    7.7341   12.9771 H   0  0  0  0  0  0  0  0  0  0  0  0
   46.1028    8.8008   14.3836 H   0  0  0  0  0  0  0  0  0  0  0  0
   48.0908    6.9124   14.0411 H   0  0  0  0  0  0  0  0  0  0  0  0
   47.7897    8.9149   15.8515 H   0  0  0  0  0  0  0  0  0  0  0  0
   49.2509    7.9724   15.7079 H   0  0  0  0  0  0  0  0  0  0  0  0
   50.5039    9.6376   14.7405 H   0  0  0  0  0  0  0  0  0  0  0  0
   49.9145   11.2336   13.2480 H   0  0  0  0  0  0  0  0  0  0  0  0
   48.3093   11.4926   13.8740 H   0  0  0  0  0  0  0  0  0  0  0  0
   49.7382   12.5271   17.7107 H   0  0  0  0  0  0  0  0  0  0  0  0
   52.0546   11.6063   18.4734 H   0  0  0  0  0  0  0  0  0  0  0  0
   51.1848   10.8826   19.8405 H   0  0  0  0  0  0  0  0  0  0  0  0
   51.9145   12.9202   20.3570 H   0  0  0  0  0  0  0  0  0  0  0  0
   49.1329    9.1089   19.2927 H   0  0  0  0  0  0  0  0  0  0  0  0
   47.1149    8.6061   20.6043 H   0  0  0  0  0  0  0  0  0  0  0  0
   45.4663   10.3906   21.1048 H   0  0  0  0  0  0  0  0  0  0  0  0
   45.8568   12.7005   20.2899 H   0  0  0  0  0  0  0  0  0  0  0  0
   47.8760   13.2329   18.9765 H   0  0  0  0  0  0  0  0  0  0  0  0
   48.7183   10.4207   21.8301 H   0  0  0  0  0  0  0  0  0  0  0  0
   49.1090   12.0410   21.2266 H   0  0  0  0  0  0  0  0  0  0  0  0
   50.3422   10.7669   21.2550 H   0  0  0  0  0  0  0  0  0  0  0  0
   46.8144   10.5377   20.2416 H   0  0  0  0  0  0  0  0  0  0  0  0
   46.6806   12.4607   18.2731 H   0  0  0  0  0  0  0  0  0  0  0  0
   47.2263   12.8526   19.9045 H   0  0  0  0  0  0  0  0  0  0  0  0
   48.8272   12.9292   17.4925 H   0  0  0  0  0  0  0  0  0  0  0  0
   49.2971   13.3241   19.1481 H   0  0  0  0  0  0  0  0  0  0  0  0
   50.6697   11.4092   18.8768 H   0  0  0  0  0  0  0  0  0  0  0  0
   49.4437   11.0313   16.4821 H   0  0  0  0  0  0  0  0  0  0  0  0
   50.4267    9.8126   17.2530 H   0  0  0  0  0  0  0  0  0  0  0  0
   48.6803    8.4501   17.8498 H   0  0  0  0  0  0  0  0  0  0  0  0
   46.3870   10.3600   17.5647 H   0  0  0  0  0  0  0  0  0  0  0  0
   46.6086    8.9629   18.5821 H   0  0  0  0  0  0  0  0  0  0  0  0
   46.9695    8.1971   14.0172 H   0  0  0  0  0  0  0  0  0  0  0  0
   48.2363    5.9576   14.1716 H   0  0  0  0  0  0  0  0  0  0  0  0
   49.3877    6.6177   13.0112 H   0  0  0  0  0  0  0  0  0  0  0  0
   46.5772    6.3019   12.6792 H   0  0  0  0  0  0  0  0  0  0  0  0
   46.5524    9.9136   12.4881 H   0  0  0  0  0  0  0  0  0  0  0  0
   47.3253   11.7046   10.9840 H   0  0  0  0  0  0  0  0  0  0  0  0
   49.7491   12.0549   10.5935 H   0  0  0  0  0  0  0  0  0  0  0  0
   51.4081   10.6001   11.7251 H   0  0  0  0  0  0  0  0  0  0  0  0
   50.6650    8.8071   13.2373 H   0  0  0  0  0  0  0  0  0  0  0  0
   48.8476    8.8051   14.6859 H   0  0  0  0  0  0  0  0  0  0  0  0
   47.4354    9.8976   17.5824 H   0  0  0  0  0  0  0  0  0  0  0  0
   48.4133   10.1080   16.8543 H   0  0  0  0  0  0  0  0  0  0  0  0
   48.5227    9.6077   15.4157 H   0  0  0  0  0  0  0  0  0  0  0  0
   48.5278    9.6158   15.4105 H   0  0  0  0  0  0  0  0  0  0  0  0
   48.4086   10.0982   16.8544 H   0  0  0  0  0  0  0  0  0  0  0  0
  1  2  1  0
  3  2  1  0
  3  4  1  0
  4  5  1  0
  6  5  1  0
  6  2  1  0
  6  7  1  0
  7  8  1  0
  8  9  1  0
  3  9  1  0
  8 10  1  0
 10 11  1  0
 11 12  2  0
 11 13  1  0
 13 14  1  0
 14 15  1  0
 13 16  1  0
 16 17  2  0
 17 18  1  0
 18 19  2  0
 19 20  1  0
 20 21  2  0
 16 21  1  0
 22 23  1  0
 24 23  1  0
 24 25  1  0
 25 26  1  0
 27 26  1  0
 27 23  1  0
 27 28  1  0
 28 29  1  0
 29 30  1  0
 24 30  1  0
 29 31  1  0
 31 32  1  0
 32 33  2  0
 32 34  1  0
 34 35  1  0
 35 36  1  0
 34 37  1  0
 37 38  2  0
 38 39  1  0
 39 40  2  0
 40 41  1  0
 41 42  2  0
 37 42  1  0
 43 44  2  0
 43 45  1  0
 43 46  1  0
 43 47  2  0
  1 50  1  0
  1 51  1  0
  1 52  1  0
  3 53  1  6
  4 54  1  0
  4 55  1  0
  5 56  1  0
  5 57  1  0
  6 58  1  1
  7 59  1  0
  7 60  1  0
  8 61  1  1
  9 62  1  0
  9 63  1  0
 13 64  1  6
 14 65  1  0
 14 66  1  0
 15 67  1  0
 17 68  1  0
 18 69  1  0
 19 70  1  0
 20 71  1  0
 21 72  1  0
 22 73  1  0
 22 74  1  0
 22 75  1  0
 24 76  1  6
 25 77  1  0
 25 78  1  0
 26 79  1  0
 26 80  1  0
 27 81  1  1
 28 82  1  0
 28 83  1  0
 29 84  1  1
 30 85  1  0
 30 86  1  0
 34 87  1  6
 35 88  1  0
 35 89  1  0
 36 90  1  0
 38 91  1  0
 39 92  1  0
 40 93  1  0
 41 94  1  0
 42 95  1  0
 45 96  1  0
 46 97  1  0
 48 98  1  0
 48 99  1  0
 49100  1  0
 49101  1  0
M  END
> <Uni-Dock RESULT> 
ENERGY=   -5.056  LOWER_BOUND=    4.788  UPPER_BOUND=    7.067
INTER + INTRA:          -5.056
INTER:                  -5.056
INTRA:                   0.000
UNBOUND:                 0.000

$$$$

     RDKit          3D

101102  0  0  0  0  0  0  0  0999 V2000
   47.3106    6.1317   18.7100 C   0  0  0  0  0  0  0  0  0  0  0  0
   48.7069    5.7666   18.9370 N   0  0  0  0  0  0  0  0  0  0  0  0
   49.0091    5.5003   20.3550 C   0  0  1  0  0  0  0  0  0  0  0  0
   48.4738    4.0870   20.6061 C   0  0  0  0  0  0  0  0  0  0  0  0
   48.5337    3.4092   19.2433 C   0  0  0  0  0  0  0  0  0  0  0  0
   49.0743    4.4888   18.2981 C   0  0  2  0  0  0  0  0  0  0  0  0
   50.6107    4.4280   18.2137 C   0  0  0  0  0  0  0  0  0  0  0  0
   51.3124    5.3580   19.2177 C   0  0  1  0  0  0  0  0  0  0  0  0
   50.5385    5.5473   20.5318 C   0  0  0  0  0  0  0  0  0  0  0  0
   52.6206    4.8481   19.5467 O   0  0  0  0  0  0  0  0  0  0  0  0
   53.6048    5.0477   18.6235 C   0  0  0  0  0  0  0  0  0  0  0  0
   53.4673    5.6482   17.5649 O   0  0  0  0  0  0  0  0  0  0  0  0
   54.8913    4.3828   19.0802 C   0  0  2  0  0  0  0  0  0  0  0  0
   56.0910    5.1372   18.4927 C   0  0  0  0  0  0  0  0  0  0  0  0
   57.2482    4.9278   19.3062 O   0  0  0  0  0  0  0  0  0  0  0  0
   54.9227    2.9008   18.7333 C   0  0  0  0  0  0  0  0  0  0  0  0
   54.5775    2.4369   17.4530 C   0  0  0  0  0  0  0  0  0  0  0  0
   54.6154    1.0735   17.1564 C   0  0  0  0  0  0  0  0  0  0  0  0
   55.0042    0.1574   18.1308 C   0  0  0  0  0  0  0  0  0  0  0  0
   55.3618    0.6041   19.4010 C   0  0  0  0  0  0  0  0  0  0  0  0
   55.3239    1.9671   19.7006 C   0  0  0  0  0  0  0  0  0  0  0  0
   56.6570    2.5734   17.4831 C   0  0  0  0  0  0  0  0  0  0  0  0
   55.2361    2.7960   17.7419 N   0  0  0  0  0  0  0  0  0  0  0  0
   54.5978    1.6710   18.4478 C   0  0  1  0  0  0  0  0  0  0  0  0
   55.0084    1.8481   19.9135 C   0  0  0  0  0  0  0  0  0  0  0  0
   55.2633    3.3426   20.0610 C   0  0  0  0  0  0  0  0  0  0  0  0
   54.9939    3.9195   18.6668 C   0  0  2  0  0  0  0  0  0  0  0  0
   53.5198    4.3424   18.5240 C   0  0  0  0  0  0  0  0  0  0  0  0
   52.6243    3.2410   17.9310 C   0  0  1  0  0  0  0  0  0  0  0  0
   53.0731    1.8140   18.2858 C   0  0  0  0  0  0  0  0  0  0  0  0
   51.2613    3.3975   18.3800 O   0  0  0  0  0  0  0  0  0  0  0  0
   50.5306    4.3827   17.7838 C   0  0  0  0  0  0  0  0  0  0  0  0
   50.9332    5.1181   16.8923 O   0  0  0  0  0  0  0  0  0  0  0  0
   49.1444    4.4479   18.4014 C   0  0  2  0  0  0  0  0  0  0  0  0
   48.1340    4.8922   17.3326 C   0  0  0  0  0  0  0  0  0  0  0  0
   46.7978    4.5416   17.7015 O   0  0  0  0  0  0  0  0  0  0  0  0
   49.1263    5.3308   19.6394 C   0  0  0  0  0  0  0  0  0  0  0  0
   48.6953    4.8077   20.8682 C   0  0  0  0  0  0  0  0  0  0  0  0
   48.6763    5.6063   22.0137 C   0  0  0  0  0  0  0  0  0  0  0  0
   49.0870    6.9358   21.9466 C   0  0  0  0  0  0  0  0  0  0  0  0
   49.5178    7.4687   20.7342 C   0  0  0  0  0  0  0  0  0  0  0  0
   49.5381    6.6727   19.5872 C   0  0  0  0  0  0  0  0  0  0  0  0
   52.2380    4.2799   19.2841 S   0  0  0  0  0  0  0  0  0  0  0  0
   52.6130    5.6160   18.8970 O   0  0  0  0  0  0  0  0  0  0  0  0
   50.6414    4.2001   19.1517 O   0  0  0  0  0  0  0  0  0  0  0  0
   52.6955    3.2709   18.1240 O   0  0  0  0  0  0  0  0  0  0  0  0
   52.6210    3.6683   20.5308 O   0  0  0  0  0  0  0  0  0  0  0  0
   52.1353    4.2605   19.2876 O   0  0  0  0  0  0  0  0  0  0  0  0
   52.1400    4.2580   19.2870 O   0  0  0  0  0  0  0  0  0  0  0  0
   46.5928    5.3762   19.0452 H   0  0  0  0  0  0  0  0  0  0  0  0
   47.0803    7.0704   19.2250 H   0  0  0  0  0  0  0  0  0  0  0  0
   47.1406    6.3086   17.6427 H   0  0  0  0  0  0  0  0  0  0  0  0
   48.5488    6.2223   21.0390 H   0  0  0  0  0  0  0  0  0  0  0  0
   49.0438    3.5349   21.3600 H   0  0  0  0  0  0  0  0  0  0  0  0
   47.4331    4.1246   20.9501 H   0  0  0  0  0  0  0  0  0  0  0  0
   47.5243    3.1056   18.9422 H   0  0  0  0  0  0  0  0  0  0  0  0
   49.1531    2.5073   19.2688 H   0  0  0  0  0  0  0  0  0  0  0  0
   48.6568    4.3722   17.2911 H   0  0  0  0  0  0  0  0  0  0  0  0
   50.9746    3.3987   18.3198 H   0  0  0  0  0  0  0  0  0  0  0  0
   50.9163    4.7403   17.2060 H   0  0  0  0  0  0  0  0  0  0  0  0
   51.4230    6.3528   18.7623 H   0  0  0  0  0  0  0  0  0  0  0  0
   50.8213    6.5287   20.9369 H   0  0  0  0  0  0  0  0  0  0  0  0
   50.8716    4.8221   21.2843 H   0  0  0  0  0  0  0  0  0  0  0  0
   54.9325    4.4951   20.1732 H   0  0  0  0  0  0  0  0  0  0  0  0
   55.9080    6.2173   18.4768 H   0  0  0  0  0  0  0  0  0  0  0  0
   56.3211    4.8149   17.4708 H   0  0  0  0  0  0  0  0  0  0  0  0
   58.0002    5.3301   18.8369 H   0  0  0  0  0  0  0  0  0  0  0  0
   54.2754    3.1319   16.6713 H   0  0  0  0  0  0  0  0  0  0  0  0
   54.3436    0.7274   16.1624 H   0  0  0  0  0  0  0  0  0  0  0  0
   55.0346   -0.9038   17.8985 H   0  0  0  0  0  0  0  0  0  0  0  0
   55.6733   -0.1091   20.1597 H   0  0  0  0  0  0  0  0  0  0  0  0
   55.6188    2.2985   20.6947 H   0  0  0  0  0  0  0  0  0  0  0  0
   56.7860    1.7151   16.8142 H   0  0  0  0  0  0  0  0  0  0  0  0
   57.2505    2.3917   18.3855 H   0  0  0  0  0  0  0  0  0  0  0  0
   57.0826    3.4405   16.9654 H   0  0  0  0  0  0  0  0  0  0  0  0
   54.9058    0.6894   18.0691 H   0  0  0  0  0  0  0  0  0  0  0  0
   54.2521    1.4942   20.6216 H   0  0  0  0  0  0  0  0  0  0  0  0
   55.9329    1.2975   20.1226 H   0  0  0  0  0  0  0  0  0  0  0  0
   54.6333    3.7842   20.8397 H   0  0  0  0  0  0  0  0  0  0  0  0
   56.3077    3.5089   20.3514 H   0  0  0  0  0  0  0  0  0  0  0  0
   55.6348    4.7873   18.4707 H   0  0  0  0  0  0  0  0  0  0  0  0
   53.1134    4.7009   19.4785 H   0  0  0  0  0  0  0  0  0  0  0  0
   53.4714    5.2060   17.8468 H   0  0  0  0  0  0  0  0  0  0  0  0
   52.6449    3.3207   16.8343 H   0  0  0  0  0  0  0  0  0  0  0  0
   52.5456    1.4523   19.1769 H   0  0  0  0  0  0  0  0  0  0  0  0
   52.7383    1.1578   17.4703 H   0  0  0  0  0  0  0  0  0  0  0  0
   48.8736    3.4226   18.6910 H   0  0  0  0  0  0  0  0  0  0  0  0
   48.3392    4.4093   16.3704 H   0  0  0  0  0  0  0  0  0  0  0  0
   48.1590    5.9738   17.1628 H   0  0  0  0  0  0  0  0  0  0  0  0
   46.7352    3.5717   17.7210 H   0  0  0  0  0  0  0  0  0  0  0  0
   48.3642    3.7744   20.9438 H   0  0  0  0  0  0  0  0  0  0  0  0
   48.3368    5.1907   22.9589 H   0  0  0  0  0  0  0  0  0  0  0  0
   49.0673    7.5575   22.8378 H   0  0  0  0  0  0  0  0  0  0  0  0
   49.8355    8.5069   20.6796 H   0  0  0  0  0  0  0  0  0  0  0  0
   49.8790    7.1138   18.6520 H   0  0  0  0  0  0  0  0  0  0  0  0
   50.3754    4.8507   18.4692 H   0  0  0  0  0  0  0  0  0  0  0  0
   52.7053    2.3713   18.5111 H   0  0  0  0  0  0  0  0  0  0  0  0
   52.5826    3.5750   18.7689 H   0  0  0  0  0  0  0  0  0  0  0  0
   51.2348    4.2747   18.9299 H   0  0  0  0  0  0  0  0  0  0  0  0
   51.2365    4.2819   18.9379 H   0  0  0  0  0  0  0  0  0  0  0  0
   52.5761    3.5704   18.7614 H   0  0  0  0  0  0  0  0  0  0  0  0
  1  2  1  0
  3  2  1  0
  3  4  1  0
  4  5  1  0
  6  5  1  0
  6  2  1  0
  6  7  1  0
  7  8  1  0
  8  9  1  0
  3  9  1  0
  8 10  1  0
 10 11  1  0
 11 12  2  0
 11 13  1  0
 13 14  1  0
 14 15  1  0
 13 16  1  0
 16 17  2  0
 17 18  1  0
 18 19  2  0
 19 20  1  0
 20 21  2  0
 16 21  1  0
 22 23  1  0
 24 23  1  0
 24 25  1  0
 25 26  1  0
 27 26  1  0
 27 23  1  0
 27 28  1  0
 28 29  1  0
 29 30  1  0
 24 30  1  0
 29 31  1  0
 31 32  1  0
 32 33  2  0
 32 34  1  0
 34 35  1  0
 35 36  1  0
 34 37  1  0
 37 38  2  0
 38 39  1  0
 39 40  2  0
 40 41  1  0
 41 42  2  0
 37 42  1  0
 43 44  2  0
 43 45  1  0
 43 46  1  0
 43 47  2  0
  1 50  1  0
  1 51  1  0
  1 52  1  0
  3 53  1  6
  4 54  1  0
  4 55  1  0
  5 56  1  0
  5 57  1  0
  6 58  1  1
  7 59  1  0
  7 60  1  0
  8 61  1  1
  9 62  1  0
  9 63  1  0
 13 64  1  6
 14 65  1  0
 14 66  1  0
 15 67  1  0
 17 68  1  0
 18 69  1  0
 19 70  1  0
 20 71  1  0
 21 72  1  0
 22 73  1  0
 22 74  1  0
 22 75  1  0
 24 76  1  6
 25 77  1  0
 25 78  1  0
 26 79  1  0
 26 80  1  0
 27 81  1  1
 28 82  1  0
 28 83  1  0
 29 84  1  1
 30 85  1  0
 30 86  1  0
 34 87  1  6
 35 88  1  0
 35 89  1  0
 36 90  1  0
 38 91  1  0
 39 92  1  0
 40 93  1  0
 41 94  1  0
 42 95  1  0
 45 96  1  0
 46 97  1  0
 48 98  1  0
 48 99  1  0
 49100  1  0
 49101  1  0
M  END
> <Uni-Dock RESULT> 
ENERGY=   -5.009  LOWER_BOUND=    8.678  UPPER_BOUND=   11.195
INTER + INTRA:          -5.009
INTER:                  -5.009
INTRA:                   0.000
UNBOUND:                 0.000

$$$$

     RDKit          3D

101102  0  0  0  0  0  0  0  0999 V2000
   49.9846   11.7693   20.9641 C   0  0  0  0  0  0  0  0  0  0  0  0
   49.3894   12.1930   19.6988 N   0  0  0  0  0  0  0  0  0  0  0  0
   47.9208   12.3026   19.7616 C   0  0  1  0  0  0  0  0  0  0  0  0
   47.6620   13.6371   20.4681 C   0  0  0  0  0  0  0  0  0  0  0  0
   48.8919   14.4791   20.1543 C   0  0  0  0  0  0  0  0  0  0  0  0
   49.7845   13.5605   19.3114 C   0  0  2  0  0  0  0  0  0  0  0  0
   49.4873   13.7299   17.8100 C   0  0  0  0  0  0  0  0  0  0  0  0
   48.4450   12.7311   17.2796 C   0  0  1  0  0  0  0  0  0  0  0  0
   47.3845   12.3329   18.3181 C   0  0  0  0  0  0  0  0  0  0  0  0
   47.7578   13.2800   16.1368 O   0  0  0  0  0  0  0  0  0  0  0  0
   48.4305   13.2588   14.9503 C   0  0  0  0  0  0  0  0  0  0  0  0
   49.5472   12.7848   14.7812 O   0  0  0  0  0  0  0  0  0  0  0  0
   47.6094   13.9441   13.8724 C   0  0  2  0  0  0  0  0  0  0  0  0
   47.9634   13.3461   12.5047 C   0  0  0  0  0  0  0  0  0  0  0  0
   46.8766   13.5284   11.5935 O   0  0  0  0  0  0  0  0  0  0  0  0
   47.7830   15.4563   13.8970 C   0  0  0  0  0  0  0  0  0  0  0  0
   49.0537   16.0504   13.9750 C   0  0  0  0  0  0  0  0  0  0  0  0
   49.1894   17.4394   13.9943 C   0  0  0  0  0  0  0  0  0  0  0  0
   48.0604   18.2524   13.9294 C   0  0  0  0  0  0  0  0  0  0  0  0
   46.7948   17.6775   13.8386 C   0  0  0  0  0  0  0  0  0  0  0  0
   46.6560   16.2885   13.8202 C   0  0  0  0  0  0  0  0  0  0  0  0
   48.5348   16.0453   11.9566 C   0  0  0  0  0  0  0  0  0  0  0  0
   48.6525   15.7018   13.3720 N   0  0  0  0  0  0  0  0  0  0  0  0
   48.0098   16.6884   14.2579 C   0  0  1  0  0  0  0  0  0  0  0  0
   46.5148   16.3599   14.1861 C   0  0  0  0  0  0  0  0  0  0  0  0
   46.4654   14.8782   13.8366 C   0  0  0  0  0  0  0  0  0  0  0  0
   47.9354   14.4602   13.7192 C   0  0  2  0  0  0  0  0  0  0  0  0
   48.4741   13.9640   15.0741 C   0  0  0  0  0  0  0  0  0  0  0  0
   49.1492   15.0697   15.9036 C   0  0  1  0  0  0  0  0  0  0  0  0
   48.5504   16.4684   15.6829 C   0  0  0  0  0  0  0  0  0  0  0  0
   49.0625   14.7720   17.3135 O   0  0  0  0  0  0  0  0  0  0  0  0
   49.9167   13.8223   17.7913 C   0  0  0  0  0  0  0  0  0  0  0  0
   50.7552   13.2290   17.1261 O   0  0  0  0  0  0  0  0  0  0  0  0
   49.6637   13.5928   19.2714 C   0  0  2  0  0  0  0  0  0  0  0  0
   50.9854   13.2186   19.9593 C   0  0  0  0  0  0  0  0  0  0  0  0
   50.9172   13.4347   21.3711 O   0  0  0  0  0  0  0  0  0  0  0  0
   48.5651   12.5657   19.4967 C   0  0  0  0  0  0  0  0  0  0  0  0
   47.4301   12.9055   20.2487 C   0  0  0  0  0  0  0  0  0  0  0  0
   46.4123   11.9731   20.4611 C   0  0  0  0  0  0  0  0  0  0  0  0
   46.5152   10.6911   19.9258 C   0  0  0  0  0  0  0  0  0  0  0  0
   47.6355   10.3394   19.1770 C   0  0  0  0  0  0  0  0  0  0  0  0
   48.6547   11.2696   18.9628 C   0  0  0  0  0  0  0  0  0  0  0  0
   48.0450   13.8502   16.4980 S   0  0  0  0  0  0  0  0  0  0  0  0
   48.4659   12.5985   15.9221 O   0  0  0  0  0  0  0  0  0  0  0  0
   48.5514   13.8427   18.0201 O   0  0  0  0  0  0  0  0  0  0  0  0
   48.9488   15.0210   15.8770 O   0  0  0  0  0  0  0  0  0  0  0  0
   46.6862   14.3280   16.4742 O   0  0  0  0  0  0  0  0  0  0  0  0
   48.0645   13.8624   16.6000 O   0  0  0  0  0  0  0  0  0  0  0  0
   48.0637   13.8653   16.5955 O   0  0  0  0  0  0  0  0  0  0  0  0
   49.7570   12.4304   21.8065 H   0  0  0  0  0  0  0  0  0  0  0  0
   49.6409   10.7618   21.2211 H   0  0  0  0  0  0  0  0  0  0  0  0
   51.0737   11.7139   20.8634 H   0  0  0  0  0  0  0  0  0  0  0  0
   47.4473   11.4741   20.3005 H   0  0  0  0  0  0  0  0  0  0  0  0
   46.7395   14.1283   20.1430 H   0  0  0  0  0  0  0  0  0  0  0  0
   47.5863   13.4907   21.5524 H   0  0  0  0  0  0  0  0  0  0  0  0
   49.3956   14.7517   21.0891 H   0  0  0  0  0  0  0  0  0  0  0  0
   48.6239   15.4091   19.6435 H   0  0  0  0  0  0  0  0  0  0  0  0
   50.8450   13.7724   19.4912 H   0  0  0  0  0  0  0  0  0  0  0  0
   49.1902   14.7597   17.5769 H   0  0  0  0  0  0  0  0  0  0  0  0
   50.4176   13.5637   17.2503 H   0  0  0  0  0  0  0  0  0  0  0  0
   48.9605   11.8087   16.9750 H   0  0  0  0  0  0  0  0  0  0  0  0
   47.0268   11.3295   18.0487 H   0  0  0  0  0  0  0  0  0  0  0  0
   46.5027   12.9804   18.2378 H   0  0  0  0  0  0  0  0  0  0  0  0
   46.5567   13.7017   14.0773 H   0  0  0  0  0  0  0  0  0  0  0  0
   48.1350   12.2666   12.5791 H   0  0  0  0  0  0  0  0  0  0  0  0
   48.8601   13.8053   12.0731 H   0  0  0  0  0  0  0  0  0  0  0  0
   47.1888   13.2358   10.7192 H   0  0  0  0  0  0  0  0  0  0  0  0
   49.9529   15.4383   14.0214 H   0  0  0  0  0  0  0  0  0  0  0  0
   50.1784   17.8864   14.0573 H   0  0  0  0  0  0  0  0  0  0  0  0
   48.1673   19.3338   13.9431 H   0  0  0  0  0  0  0  0  0  0  0  0
   45.9136   18.3110   13.7795 H   0  0  0  0  0  0  0  0  0  0  0  0
   45.6599   15.8575   13.7362 H   0  0  0  0  0  0  0  0  0  0  0  0
   49.0599   16.9856   11.7543 H   0  0  0  0  0  0  0  0  0  0  0  0
   47.5017   16.1530   11.6092 H   0  0  0  0  0  0  0  0  0  0  0  0
   49.0209   15.2774   11.3442 H   0  0  0  0  0  0  0  0  0  0  0  0
   48.1989   17.7268   13.9614 H   0  0  0  0  0  0  0  0  0  0  0  0
   45.9784   16.5750   15.1160 H   0  0  0  0  0  0  0  0  0  0  0  0
   46.0320   16.9391   13.3905 H   0  0  0  0  0  0  0  0  0  0  0  0
   45.9127   14.3049   14.5877 H   0  0  0  0  0  0  0  0  0  0  0  0
   45.9493   14.7452   12.8781 H   0  0  0  0  0  0  0  0  0  0  0  0
   48.0590   13.6660   12.9734 H   0  0  0  0  0  0  0  0  0  0  0  0
   47.6889   13.4659   15.6573 H   0  0  0  0  0  0  0  0  0  0  0  0
   49.2285   13.1885   14.8836 H   0  0  0  0  0  0  0  0  0  0  0  0
   50.2103   15.1264   15.6205 H   0  0  0  0  0  0  0  0  0  0  0  0
   47.7811   16.6836   16.4347 H   0  0  0  0  0  0  0  0  0  0  0  0
   49.3503   17.1966   15.8770 H   0  0  0  0  0  0  0  0  0  0  0  0
   49.3438   14.5553   19.6951 H   0  0  0  0  0  0  0  0  0  0  0  0
   51.8140   13.8279   19.5805 H   0  0  0  0  0  0  0  0  0  0  0  0
   51.2552   12.1698   19.7963 H   0  0  0  0  0  0  0  0  0  0  0  0
   50.8131   14.3888   21.5252 H   0  0  0  0  0  0  0  0  0  0  0  0
   47.3304   13.8983   20.6817 H   0  0  0  0  0  0  0  0  0  0  0  0
   45.5399   12.2471   21.0485 H   0  0  0  0  0  0  0  0  0  0  0  0
   45.7246    9.9649   20.0958 H   0  0  0  0  0  0  0  0  0  0  0  0
   47.7186    9.3384   18.7615 H   0  0  0  0  0  0  0  0  0  0  0  0
   49.5198   10.9691   18.3740 H   0  0  0  0  0  0  0  0  0  0  0  0
   49.3415   13.2648   18.0585 H   0  0  0  0  0  0  0  0  0  0  0  0
   48.4799   15.8652   16.0404 H   0  0  0  0  0  0  0  0  0  0  0  0
   48.3856   14.6336   16.1089 H   0  0  0  0  0  0  0  0  0  0  0  0
   48.6293   13.8342   17.3870 H   0  0  0  0  0  0  0  0  0  0  0  0
   48.6219   13.8262   17.3866 H   0  0  0  0  0  0  0  0  0  0  0  0
   48.3938   14.6387   16.1138 H   0  0  0  0  0  0  0  0  0  0  0  0
  1  2  1  0
  3  2  1  0
  3  4  1  0
  4  5  1  0
  6  5  1  0
  6  2  1  0
  6  7  1  0
  7  8  1  0
  8  9  1  0
  3  9  1  0
  8 10  1  0
 10 11  1  0
 11 12  2  0
 11 13  1  0
 13 14  1  0
 14 15  1  0
 13 16  1  0
 16 17  2  0
 17 18  1  0
 18 19  2  0
 19 20  1  0
 20 21  2  0
 16 21  1  0
 22 23  1  0
 24 23  1  0
 24 25  1  0
 25 26  1  0
 27 26  1  0
 27 23  1  0
 27 28  1  0
 28 29  1  0
 29 30  1  0
 24 30  1  0
 29 31  1  0
 31 32  1  0
 32 33  2  0
 32 34  1  0
 34 35  1  0
 35 36  1  0
 34 37  1  0
 37 38  2  0
 38 39  1  0
 39 40  2  0
 40 41  1  0
 41 42  2  0
 37 42  1  0
 43 44  2  0
 43 45  1  0
 43 46  1  0
 43 47  2  0
  1 50  1  0
  1 51  1  0
  1 52  1  0
  3 53  1  6
  4 54  1  0
  4 55  1  0
  5 56  1  0
  5 57  1  0
  6 58  1  1
  7 59  1  0
  7 60  1  0
  8 61  1  1
  9 62  1  0
  9 63  1  0
 13 64  1  6
 14 65  1  0
 14 66  1  0
 15 67  1  0
 17 68  1  0
 18 69  1  0
 19 70  1  0
 20 71  1  0
 21 72  1  0
 22 73  1  0
 22 74  1  0
 22 75  1  0
 24 76  1  6
 25 77  1  0
 25 78  1  0
 26 79  1  0
 26 80  1  0
 27 81  1  1
 28 82  1  0
 28 83  1  0
 29 84  1  1
 30 85  1  0
 30 86  1  0
 34 87  1  6
 35 88  1  0
 35 89  1  0
 36 90  1  0
 38 91  1  0
 39 92  1  0
 40 93  1  0
 41 94  1  0
 42 95  1  0
 45 96  1  0
 46 97  1  0
 48 98  1  0
 48 99  1  0
 49100  1  0
 49101  1  0
M  END
> <Uni-Dock RESULT> 
ENERGY=   -4.795  LOWER_BOUND=    7.584  UPPER_BOUND=   10.785
INTER + INTRA:          -4.795
INTER:                  -4.795
INTRA:                   0.000
UNBOUND:                 0.000

$$$$

     RDKit          3D

101102  0  0  0  0  0  0  0  0999 V2000
   47.8282   12.4238   22.0221 C   0  0  0  0  0  0  0  0  0  0  0  0
   48.3317   11.4954   21.0125 N   0  0  0  0  0  0  0  0  0  0  0  0
   48.1016   10.0824   21.3639 C   0  0  1  0  0  0  0  0  0  0  0  0
   46.6273    9.8353   21.0287 C   0  0  0  0  0  0  0  0  0  0  0  0
   46.3135   10.8395   19.9272 C   0  0  0  0  0  0  0  0  0  0  0  0
   47.6223   11.6123   19.7245 C   0  0  2  0  0  0  0  0  0  0  0  0
   48.4937   10.9463   18.6437 C   0  0  0  0  0  0  0  0  0  0  0  0
   49.5078    9.9406   19.2142 C   0  0  1  0  0  0  0  0  0  0  0  0
   49.0182    9.2173   20.4786 C   0  0  0  0  0  0  0  0  0  0  0  0
   49.8300    8.9373   18.2299 O   0  0  0  0  0  0  0  0  0  0  0  0
   50.6985    9.3042   17.2441 C   0  0  0  0  0  0  0  0  0  0  0  0
   51.2416   10.3984   17.1541 O   0  0  0  0  0  0  0  0  0  0  0  0
   50.8671    8.1703   16.2483 C   0  0  2  0  0  0  0  0  0  0  0  0
   52.2572    8.2592   15.6055 C   0  0  0  0  0  0  0  0  0  0  0  0
   52.6616    6.9721   15.1315 O   0  0  0  0  0  0  0  0  0  0  0  0
   49.7562    8.1544   15.2074 C   0  0  0  0  0  0  0  0  0  0  0  0
   49.3616    9.3225   14.5340 C   0  0  0  0  0  0  0  0  0  0  0  0
   48.3418    9.2842   13.5817 C   0  0  0  0  0  0  0  0  0  0  0  0
   47.7081    8.0799   13.2850 C   0  0  0  0  0  0  0  0  0  0  0  0
   48.0978    6.9113   13.9354 C   0  0  0  0  0  0  0  0  0  0  0  0
   49.1168    6.9468   14.8890 C   0  0  0  0  0  0  0  0  0  0  0  0
   50.6947    8.3411   13.2678 C   0  0  0  0  0  0  0  0  0  0  0  0
   49.9959    8.8356   14.4521 N   0  0  0  0  0  0  0  0  0  0  0  0
   48.6266    8.3051   14.5743 C   0  0  1  0  0  0  0  0  0  0  0  0
   48.8063    6.8893   15.1324 C   0  0  0  0  0  0  0  0  0  0  0  0
   50.1240    6.9435   15.8946 C   0  0  0  0  0  0  0  0  0  0  0  0
   50.6170    8.3831   15.7114 C   0  0  2  0  0  0  0  0  0  0  0  0
   50.1017    9.2876   16.8465 C   0  0  0  0  0  0  0  0  0  0  0  0
   48.7798    9.9977   16.5078 C   0  0  1  0  0  0  0  0  0  0  0  0
   47.8617    9.1937   15.5727 C   0  0  0  0  0  0  0  0  0  0  0  0
   48.0362   10.2884   17.7104 O   0  0  0  0  0  0  0  0  0  0  0  0
   48.4701   11.3438   18.4573 C   0  0  0  0  0  0  0  0  0  0  0  0
   49.4163   12.0664   18.1743 O   0  0  0  0  0  0  0  0  0  0  0  0
   47.6169   11.4824   19.7064 C   0  0  2  0  0  0  0  0  0  0  0  0
   47.5213   12.9664   20.0925 C   0  0  0  0  0  0  0  0  0  0  0  0
   46.4018   13.2109   20.9476 O   0  0  0  0  0  0  0  0  0  0  0  0
   48.1356   10.6067   20.8362 C   0  0  0  0  0  0  0  0  0  0  0  0
   47.2945    9.6510   21.4263 C   0  0  0  0  0  0  0  0  0  0  0  0
   47.7586    8.8381   22.4628 C   0  0  0  0  0  0  0  0  0  0  0  0
   49.0671    8.9695   22.9224 C   0  0  0  0  0  0  0  0  0  0  0  0
   49.9136    9.9133   22.3463 C   0  0  0  0  0  0  0  0  0  0  0  0
   49.4525   10.7273   21.3098 C   0  0  0  0  0  0  0  0  0  0  0  0
   49.1889    9.2289   18.0247 S   0  0  0  0  0  0  0  0  0  0  0  0
   50.5260    9.6530   18.3532 O   0  0  0  0  0  0  0  0  0  0  0  0
   48.2003   10.0811   18.9571 O   0  0  0  0  0  0  0  0  0  0  0  0
   48.8188    9.8045   16.5738 O   0  0  0  0  0  0  0  0  0  0  0  0
   48.7559    7.8550   18.0407 O   0  0  0  0  0  0  0  0  0  0  0  0
   49.1123    9.2705   18.0824 O   0  0  0  0  0  0  0  0  0  0  0  0
   49.1131    9.2683   18.0775 O   0  0  0  0  0  0  0  0  0  0  0  0
   46.7571   12.3233   22.2243 H   0  0  0  0  0  0  0  0  0  0  0  0
   48.3664   12.2800   22.9649 H   0  0  0  0  0  0  0  0  0  0  0  0
   48.0166   13.4554   21.7064 H   0  0  0  0  0  0  0  0  0  0  0  0
   48.3082    9.8588   22.4167 H   0  0  0  0  0  0  0  0  0  0  0  0
   46.4206    8.8079   20.7129 H   0  0  0  0  0  0  0  0  0  0  0  0
   45.9944   10.0397   21.9007 H   0  0  0  0  0  0  0  0  0  0  0  0
   45.5176   11.5138   20.2642 H   0  0  0  0  0  0  0  0  0  0  0  0
   45.9594   10.3431   19.0184 H   0  0  0  0  0  0  0  0  0  0  0  0
   47.4229   12.6501   19.4324 H   0  0  0  0  0  0  0  0  0  0  0  0
   47.8761   10.4758   17.8688 H   0  0  0  0  0  0  0  0  0  0  0  0
   49.0625   11.7292   18.1242 H   0  0  0  0  0  0  0  0  0  0  0  0
   50.4269   10.4795   19.4863 H   0  0  0  0  0  0  0  0  0  0  0  0
   49.9088    8.9338   21.0562 H   0  0  0  0  0  0  0  0  0  0  0  0
   48.5342    8.2681   20.2179 H   0  0  0  0  0  0  0  0  0  0  0  0
   50.8287    7.2358   16.8264 H   0  0  0  0  0  0  0  0  0  0  0  0
   53.0095    8.5770   16.3358 H   0  0  0  0  0  0  0  0  0  0  0  0
   52.2791    8.9621   14.7649 H   0  0  0  0  0  0  0  0  0  0  0  0
   53.4909    7.1003   14.6383 H   0  0  0  0  0  0  0  0  0  0  0  0
   49.8439   10.2759   14.7428 H   0  0  0  0  0  0  0  0  0  0  0  0
   48.0443   10.1957   13.0695 H   0  0  0  0  0  0  0  0  0  0  0  0
   46.9151    8.0510   12.5424 H   0  0  0  0  0  0  0  0  0  0  0  0
   47.6098    5.9695   13.6987 H   0  0  0  0  0  0  0  0  0  0  0  0
   49.4163    6.0214   15.3778 H   0  0  0  0  0  0  0  0  0  0  0  0
   50.1820    8.6810   12.3610 H   0  0  0  0  0  0  0  0  0  0  0  0
   50.7757    7.2498   13.2222 H   0  0  0  0  0  0  0  0  0  0  0  0
   51.7072    8.7588   13.2301 H   0  0  0  0  0  0  0  0  0  0  0  0
   48.0813    8.2866   13.6234 H   0  0  0  0  0  0  0  0  0  0  0  0
   47.9797    6.5681   15.7744 H   0  0  0  0  0  0  0  0  0  0  0  0
   48.8861    6.1619   14.3162 H   0  0  0  0  0  0  0  0  0  0  0  0
   49.9943    6.6622   16.9445 H   0  0  0  0  0  0  0  0  0  0  0  0
   50.8329    6.2341   15.4508 H   0  0  0  0  0  0  0  0  0  0  0  0
   51.7125    8.4232   15.6924 H   0  0  0  0  0  0  0  0  0  0  0  0
   50.0137    8.7331   17.7896 H   0  0  0  0  0  0  0  0  0  0  0  0
   50.8535   10.0655   17.0377 H   0  0  0  0  0  0  0  0  0  0  0  0
   49.0077   10.9448   15.9974 H   0  0  0  0  0  0  0  0  0  0  0  0
   47.1388    8.6056   16.1512 H   0  0  0  0  0  0  0  0  0  0  0  0
   47.2558    9.9193   15.0123 H   0  0  0  0  0  0  0  0  0  0  0  0
   46.6019   11.1554   19.4394 H   0  0  0  0  0  0  0  0  0  0  0  0
   47.3926   13.5976   19.2058 H   0  0  0  0  0  0  0  0  0  0  0  0
   48.4191   13.3182   20.6116 H   0  0  0  0  0  0  0  0  0  0  0  0
   45.5914   13.0284   20.4427 H   0  0  0  0  0  0  0  0  0  0  0  0
   46.2672    9.5344   21.0884 H   0  0  0  0  0  0  0  0  0  0  0  0
   47.0963    8.1041   22.9143 H   0  0  0  0  0  0  0  0  0  0  0  0
   49.4256    8.3395   23.7323 H   0  0  0  0  0  0  0  0  0  0  0  0
   50.9339   10.0192   22.7062 H   0  0  0  0  0  0  0  0  0  0  0  0
   50.1346   11.4573   20.8769 H   0  0  0  0  0  0  0  0  0  0  0  0
   48.6550   10.9234   19.1659 H   0  0  0  0  0  0  0  0  0  0  0  0
   48.0559    9.2865   16.2437 H   0  0  0  0  0  0  0  0  0  0  0  0
   48.9040    9.3660   17.1408 H   0  0  0  0  0  0  0  0  0  0  0  0
   48.6411   10.0060   18.5022 H   0  0  0  0  0  0  0  0  0  0  0  0
   48.6467    9.9997   18.5092 H   0  0  0  0  0  0  0  0  0  0  0  0
   48.8976    9.3745   17.1387 H   0  0  0  0  0  0  0  0  0  0  0  0
  1  2  1  0
  3  2  1  0
  3  4  1  0
  4  5  1  0
  6  5  1  0
  6  2  1  0
  6  7  1  0
  7  8  1  0
  8  9  1  0
  3  9  1  0
  8 10  1  0
 10 11  1  0
 11 12  2  0
 11 13  1  0
 13 14  1  0
 14 15  1  0
 13 16  1  0
 16 17  2  0
 17 18  1  0
 18 19  2  0
 19 20  1  0
 20 21  2  0
 16 21  1  0
 22 23  1  0
 24 23  1  0
 24 25  1  0
 25 26  1  0
 27 26  1  0
 27 23  1  0
 27 28  1  0
 28 29  1  0
 29 30  1  0
 24 30  1  0
 29 31  1  0
 31 32  1  0
 32 33  2  0
 32 34  1  0
 34 35  1  0
 35 36  1  0
 34 37  1  0
 37 38  2  0
 38 39  1  0
 39 40  2  0
 40 41  1  0
 41 42  2  0
 37 42  1  0
 43 44  2  0
 43 45  1  0
 43 46  1  0
 43 47  2  0
  1 50  1  0
  1 51  1  0
  1 52  1  0
  3 53  1  6
  4 54  1  0
  4 55  1  0
  5 56  1  0
  5 57  1  0
  6 58  1  1
  7 59  1  0
  7 60  1  0
  8 61  1  1
  9 62  1  0
  9 63  1  0
 13 64  1  6
 14 65  1  0
 14 66  1  0
 15 67  1  0
 17 68  1  0
 18 69  1  0
 19 70  1  0
 20 71  1  0
 21 72  1  0
 22 73  1  0
 22 74  1  0
 22 75  1  0
 24 76  1  6
 25 77  1  0
 25 78  1  0
 26 79  1  0
 26 80  1  0
 27 81  1  1
 28 82  1  0
 28 83  1  0
 29 84  1  1
 30 85  1  0
 30 86  1  0
 34 87  1  6
 35 88  1  0
 35 89  1  0
 36 90  1  0
 38 91  1  0
 39 92  1  0
 40 93  1  0
 41 94  1  0
 42 95  1  0
 45 96  1  0
 46 97  1  0
 48 98  1  0
 48 99  1  0
 49100  1  0
 49101  1  0
M  END
> <Uni-Dock RESULT> 
ENERGY=   -4.742  LOWER_BOUND=    4.945  UPPER_BOUND=   10.275
INTER + INTRA:          -4.742
INTER:                  -4.742
INTRA:                   0.000
UNBOUND:                 0.000

$$$$
