
     RDKit          3D

101102  0  0  0  0  0  0  0  0999 V2000
   55.5464    4.8372    7.8634 C   0  0  0  0  0  0  0  0  0  0  0  0
   54.6986    5.7032    8.6818 N   0  0  0  0  0  0  0  0  0  0  0  0
   55.4702    6.5333    9.6232 C   0  0  1  0  0  0  0  0  0  0  0  0
   56.0101    7.6922    8.7783 C   0  0  0  0  0  0  0  0  0  0  0  0
   55.0326    7.8064    7.6154 C   0  0  0  0  0  0  0  0  0  0  0  0
   53.9864    6.7192    7.8853 C   0  0  2  0  0  0  0  0  0  0  0  0
   52.8304    7.2789    8.7330 C   0  0  0  0  0  0  0  0  0  0  0  0
   53.0310    7.0891   10.2460 C   0  0  1  0  0  0  0  0  0  0  0  0
   54.4997    7.0462   10.7013 C   0  0  0  0  0  0  0  0  0  0  0  0
   52.3799    8.1516   10.9792 O   0  0  0  0  0  0  0  0  0  0  0  0
   51.0282    8.0483   11.1487 C   0  0  0  0  0  0  0  0  0  0  0  0
   50.3453    7.1483   10.6799 O   0  0  0  0  0  0  0  0  0  0  0  0
   50.5015    9.2415   11.9449 C   0  0  2  0  0  0  0  0  0  0  0  0
   51.3357    9.4698   13.2180 C   0  0  0  0  0  0  0  0  0  0  0  0
   51.0115   10.7156   13.8423 O   0  0  0  0  0  0  0  0  0  0  0  0
   49.0187    9.1305   12.2962 C   0  0  0  0  0  0  0  0  0  0  0  0
   48.5108    8.0395   13.0241 C   0  0  0  0  0  0  0  0  0  0  0  0
   47.1597    7.9932   13.3805 C   0  0  0  0  0  0  0  0  0  0  0  0
   46.3019    9.0254   13.0083 C   0  0  0  0  0  0  0  0  0  0  0  0
   46.7901   10.1078   12.2805 C   0  0  0  0  0  0  0  0  0  0  0  0
   48.1409   10.1654   11.9319 C   0  0  0  0  0  0  0  0  0  0  0  0
   56.6051    6.6393    8.8605 C   0  0  0  0  0  0  0  0  0  0  0  0
   55.3230    7.1558    9.3363 N   0  0  0  0  0  0  0  0  0  0  0  0
   54.4527    7.6195    8.2396 C   0  0  1  0  0  0  0  0  0  0  0  0
   53.8249    6.3425    7.6688 C   0  0  0  0  0  0  0  0  0  0  0  0
   53.8775    5.3390    8.8140 C   0  0  0  0  0  0  0  0  0  0  0  0
   54.4930    6.1194    9.9787 C   0  0  2  0  0  0  0  0  0  0  0  0
   53.3971    6.8254   10.7939 C   0  0  0  0  0  0  0  0  0  0  0  0
   53.1164    8.2665   10.3392 C   0  0  1  0  0  0  0  0  0  0  0  0
   53.3805    8.5382    8.8504 C   0  0  0  0  0  0  0  0  0  0  0  0
   51.7397    8.5582   10.6474 O   0  0  0  0  0  0  0  0  0  0  0  0
   51.4566    9.8083   11.1093 C   0  0  0  0  0  0  0  0  0  0  0  0
   52.2648   10.7305   11.1864 O   0  0  0  0  0  0  0  0  0  0  0  0
   49.9882    9.9269   11.4899 C   0  0  2  0  0  0  0  0  0  0  0  0
   49.6862   11.3122   12.0917 C   0  0  0  0  0  0  0  0  0  0  0  0
   50.5417   11.6739   13.1764 O   0  0  0  0  0  0  0  0  0  0  0  0
   49.5090    8.7737   12.3623 C   0  0  0  0  0  0  0  0  0  0  0  0
   49.9637    8.6053   13.6792 C   0  0  0  0  0  0  0  0  0  0  0  0
   49.5406    7.5167   14.4438 C   0  0  0  0  0  0  0  0  0  0  0  0
   48.6600    6.5833   13.9026 C   0  0  0  0  0  0  0  0  0  0  0  0
   48.2016    6.7356   12.5972 C   0  0  0  0  0  0  0  0  0  0  0  0
   48.6238    7.8210   11.8300 C   0  0  0  0  0  0  0  0  0  0  0  0
   52.3582    8.2019   10.6130 S   0  0  0  0  0  0  0  0  0  0  0  0
   53.0909    8.5780    9.4308 O   0  0  0  0  0  0  0  0  0  0  0  0
   52.1792    6.6081   10.5532 O   0  0  0  0  0  0  0  0  0  0  0  0
   50.8370    8.7029   10.4767 O   0  0  0  0  0  0  0  0  0  0  0  0
   52.7989    8.5263   11.9457 O   0  0  0  0  0  0  0  0  0  0  0  0
   52.0101    7.5096   10.7593 O   0  0  0  0  0  0  0  0  0  0  0  0
   52.0328    7.4996   10.7473 O   0  0  0  0  0  0  0  0  0  0  0  0
   56.2918    5.3733    7.2658 H   0  0  0  0  0  0  0  0  0  0  0  0
   56.0764    4.1220    8.5008 H   0  0  0  0  0  0  0  0  0  0  0  0
   54.9271    4.2489    7.1779 H   0  0  0  0  0  0  0  0  0  0  0  0
   56.2898    5.9924   10.1097 H   0  0  0  0  0  0  0  0  0  0  0  0
   56.0835    8.6344    9.3319 H   0  0  0  0  0  0  0  0  0  0  0  0
   57.0113    7.4587    8.3962 H   0  0  0  0  0  0  0  0  0  0  0  0
   54.6047    8.8117    7.5444 H   0  0  0  0  0  0  0  0  0  0  0  0
   55.5602    7.6125    6.6731 H   0  0  0  0  0  0  0  0  0  0  0  0
   53.5795    6.3262    6.9464 H   0  0  0  0  0  0  0  0  0  0  0  0
   52.6396    8.3340    8.4949 H   0  0  0  0  0  0  0  0  0  0  0  0
   51.9060    6.7529    8.4521 H   0  0  0  0  0  0  0  0  0  0  0  0
   52.5846    6.1281   10.5412 H   0  0  0  0  0  0  0  0  0  0  0  0
   54.8183    8.0243   11.0818 H   0  0  0  0  0  0  0  0  0  0  0  0
   54.5498    6.3722   11.5677 H   0  0  0  0  0  0  0  0  0  0  0  0
   50.6248   10.1171   11.2896 H   0  0  0  0  0  0  0  0  0  0  0  0
   52.4057    9.5155   12.9870 H   0  0  0  0  0  0  0  0  0  0  0  0
   51.2019    8.6672   13.9537 H   0  0  0  0  0  0  0  0  0  0  0  0
   50.0875   10.6422   14.1571 H   0  0  0  0  0  0  0  0  0  0  0  0
   49.1578    7.2113   13.3135 H   0  0  0  0  0  0  0  0  0  0  0  0
   46.7766    7.1473   13.9460 H   0  0  0  0  0  0  0  0  0  0  0  0
   45.2496    8.9852   13.2817 H   0  0  0  0  0  0  0  0  0  0  0  0
   46.1236   10.9151   11.9841 H   0  0  0  0  0  0  0  0  0  0  0  0
   48.4993   11.0276   11.3712 H   0  0  0  0  0  0  0  0  0  0  0  0
   57.1651    7.4336    8.3537 H   0  0  0  0  0  0  0  0  0  0  0  0
   56.5112    5.7948    8.1694 H   0  0  0  0  0  0  0  0  0  0  0  0
   57.2162    6.3166    9.7122 H   0  0  0  0  0  0  0  0  0  0  0  0
   54.9909    8.1723    7.4597 H   0  0  0  0  0  0  0  0  0  0  0  0
   54.4174    5.9665    6.8260 H   0  0  0  0  0  0  0  0  0  0  0  0
   52.8008    6.4909    7.3107 H   0  0  0  0  0  0  0  0  0  0  0  0
   54.5233    4.4994    8.5340 H   0  0  0  0  0  0  0  0  0  0  0  0
   52.8900    4.9262    9.0398 H   0  0  0  0  0  0  0  0  0  0  0  0
   55.0632    5.4563   10.6405 H   0  0  0  0  0  0  0  0  0  0  0  0
   52.4730    6.2340   10.8041 H   0  0  0  0  0  0  0  0  0  0  0  0
   53.7140    6.8762   11.8437 H   0  0  0  0  0  0  0  0  0  0  0  0
   53.7767    8.9145   10.9342 H   0  0  0  0  0  0  0  0  0  0  0  0
   52.4509    8.5001    8.2709 H   0  0  0  0  0  0  0  0  0  0  0  0
   53.7213    9.5774    8.7670 H   0  0  0  0  0  0  0  0  0  0  0  0
   49.4310    9.8853   10.5423 H   0  0  0  0  0  0  0  0  0  0  0  0
   48.6537   11.3567   12.4524 H   0  0  0  0  0  0  0  0  0  0  0  0
   49.7957   12.0877   11.3246 H   0  0  0  0  0  0  0  0  0  0  0  0
   51.4442   11.7323   12.8020 H   0  0  0  0  0  0  0  0  0  0  0  0
   50.6569    9.3168   14.1235 H   0  0  0  0  0  0  0  0  0  0  0  0
   49.8993    7.3986   15.4637 H   0  0  0  0  0  0  0  0  0  0  0  0
   48.3320    5.7376   14.4988 H   0  0  0  0  0  0  0  0  0  0  0  0
   47.5182    6.0055   12.1736 H   0  0  0  0  0  0  0  0  0  0  0  0
   48.2599    7.9098   10.8074 H   0  0  0  0  0  0  0  0  0  0  0  0
   53.0344    6.2264   10.2603 H   0  0  0  0  0  0  0  0  0  0  0  0
   50.3246    8.3196   11.2167 H   0  0  0  0  0  0  0  0  0  0  0  0
   52.7666    7.8220   10.2400 H   0  0  0  0  0  0  0  0  0  0  0  0
   51.4904    8.3098   10.9277 H   0  0  0  0  0  0  0  0  0  0  0  0
   52.7619    7.8772   10.2326 H   0  0  0  0  0  0  0  0  0  0  0  0
   51.4725    8.2645   10.9471 H   0  0  0  0  0  0  0  0  0  0  0  0
  1  2  1  0
  3  2  1  0
  3  4  1  0
  4  5  1  0
  6  5  1  0
  6  2  1  0
  6  7  1  0
  7  8  1  0
  8  9  1  0
  3  9  1  0
  8 10  1  0
 10 11  1  0
 11 12  2  0
 11 13  1  0
 13 14  1  0
 14 15  1  0
 13 16  1  0
 16 17  2  0
 17 18  1  0
 18 19  2  0
 19 20  1  0
 20 21  2  0
 16 21  1  0
 22 23  1  0
 24 23  1  0
 24 25  1  0
 25 26  1  0
 27 26  1  0
 27 23  1  0
 27 28  1  0
 28 29  1  0
 29 30  1  0
 24 30  1  0
 29 31  1  0
 31 32  1  0
 32 33  2  0
 32 34  1  0
 34 35  1  0
 35 36  1  0
 34 37  1  0
 37 38  2  0
 38 39  1  0
 39 40  2  0
 40 41  1  0
 41 42  2  0
 37 42  1  0
 43 44  2  0
 43 45  1  0
 43 46  1  0
 43 47  2  0
  1 50  1  0
  1 51  1  0
  1 52  1  0
  3 53  1  1
  4 54  1  0
  4 55  1  0
  5 56  1  0
  5 57  1  0
  6 58  1  6
  7 59  1  0
  7 60  1  0
  8 61  1  6
  9 62  1  0
  9 63  1  0
 13 64  1  6
 14 65  1  0
 14 66  1  0
 15 67  1  0
 17 68  1  0
 18 69  1  0
 19 70  1  0
 20 71  1  0
 21 72  1  0
 22 73  1  0
 22 74  1  0
 22 75  1  0
 24 76  1  6
 25 77  1  0
 25 78  1  0
 26 79  1  0
 26 80  1  0
 27 81  1  1
 28 82  1  0
 28 83  1  0
 29 84  1  1
 30 85  1  0
 30 86  1  0
 34 87  1  6
 35 88  1  0
 35 89  1  0
 36 90  1  0
 38 91  1  0
 39 92  1  0
 40 93  1  0
 41 94  1  0
 42 95  1  0
 45 96  1  0
 46 97  1  0
 48 98  1  0
 48 99  1  0
 49100  1  0
 49101  1  0
M  END
> <Uni-Dock RESULT> 
ENERGY=   -5.305  LOWER_BOUND=    0.000  UPPER_BOUND=    0.000
INTER + INTRA:          -5.305
INTER:                  -5.305
INTRA:                   0.000
UNBOUND:                 0.000

$$$$

     RDKit          3D

101102  0  0  0  0  0  0  0  0999 V2000
   48.0548    3.5554   15.7815 C   0  0  0  0  0  0  0  0  0  0  0  0
   48.0773    4.5880   16.8168 N   0  0  0  0  0  0  0  0  0  0  0  0
   47.3620    4.1857   18.0404 C   0  0  1  0  0  0  0  0  0  0  0  0
   48.3396    3.2731   18.7885 C   0  0  0  0  0  0  0  0  0  0  0  0
   49.7168    3.7068   18.3027 C   0  0  0  0  0  0  0  0  0  0  0  0
   49.4354    4.8537   17.3256 C   0  0  2  0  0  0  0  0  0  0  0  0
   49.4223    6.2035   18.0646 C   0  0  0  0  0  0  0  0  0  0  0  0
   48.0243    6.6250   18.5477 C   0  0  1  0  0  0  0  0  0  0  0  0
   47.0687    5.4589   18.8530 C   0  0  0  0  0  0  0  0  0  0  0  0
   48.1247    7.4290   19.7452 O   0  0  0  0  0  0  0  0  0  0  0  0
   48.4610    8.7431   19.5817 C   0  0  0  0  0  0  0  0  0  0  0  0
   48.7252    9.2540   18.5022 O   0  0  0  0  0  0  0  0  0  0  0  0
   48.5175    9.4479   20.9364 C   0  0  2  0  0  0  0  0  0  0  0  0
   47.2504    9.1629   21.7624 C   0  0  0  0  0  0  0  0  0  0  0  0
   47.3924    9.6108   23.1138 O   0  0  0  0  0  0  0  0  0  0  0  0
   48.7518   10.9538   20.8284 C   0  0  0  0  0  0  0  0  0  0  0  0
   47.8867   11.7862   20.0959 C   0  0  0  0  0  0  0  0  0  0  0  0
   48.0937   13.1684   20.0622 C   0  0  0  0  0  0  0  0  0  0  0  0
   49.1668   13.7323   20.7480 C   0  0  0  0  0  0  0  0  0  0  0  0
   50.0358   12.9187   21.4708 C   0  0  0  0  0  0  0  0  0  0  0  0
   49.8272   11.5389   21.5179 C   0  0  0  0  0  0  0  0  0  0  0  0
   47.5964    2.8385   17.9353 C   0  0  0  0  0  0  0  0  0  0  0  0
   47.9181    4.1618   18.4664 N   0  0  0  0  0  0  0  0  0  0  0  0
   49.3484    4.4967   18.3348 C   0  0  1  0  0  0  0  0  0  0  0  0
   49.5149    4.9456   16.8783 C   0  0  0  0  0  0  0  0  0  0  0  0
   48.1296    5.4203   16.4578 C   0  0  0  0  0  0  0  0  0  0  0  0
   47.2699    5.2522   17.7137 C   0  0  2  0  0  0  0  0  0  0  0  0
   47.3225    6.5231   18.5774 C   0  0  0  0  0  0  0  0  0  0  0  0
   48.4153    6.4947   19.6578 C   0  0  1  0  0  0  0  0  0  0  0  0
   49.6497    5.6501   19.3073 C   0  0  0  0  0  0  0  0  0  0  0  0
   48.8153    7.8562   19.9061 O   0  0  0  0  0  0  0  0  0  0  0  0
   49.0765    8.2024   21.1977 C   0  0  0  0  0  0  0  0  0  0  0  0
   49.0947    7.4218   22.1464 O   0  0  0  0  0  0  0  0  0  0  0  0
   49.3788    9.6894   21.3107 C   0  0  2  0  0  0  0  0  0  0  0  0
   49.5900   10.0975   22.7808 C   0  0  0  0  0  0  0  0  0  0  0  0
   48.5259    9.7095   23.6505 O   0  0  0  0  0  0  0  0  0  0  0  0
   48.3576   10.5566   20.5854 C   0  0  0  0  0  0  0  0  0  0  0  0
   47.0320   10.6668   21.0323 C   0  0  0  0  0  0  0  0  0  0  0  0
   46.1052   11.4356   20.3261 C   0  0  0  0  0  0  0  0  0  0  0  0
   46.4905   12.1020   19.1656 C   0  0  0  0  0  0  0  0  0  0  0  0
   47.8014   12.0010   18.7086 C   0  0  0  0  0  0  0  0  0  0  0  0
   48.7292   11.2322   19.4107 C   0  0  0  0  0  0  0  0  0  0  0  0
   48.4545    7.3021   19.6349 S   0  0  0  0  0  0  0  0  0  0  0  0
   49.3021    6.1396   19.5559 O   0  0  0  0  0  0  0  0  0  0  0  0
   47.8952    7.5626   18.1534 O   0  0  0  0  0  0  0  0  0  0  0  0
   49.3634    8.6067   19.8710 O   0  0  0  0  0  0  0  0  0  0  0  0
   47.3306    7.3943   20.5315 O   0  0  0  0  0  0  0  0  0  0  0  0
   48.1742    7.7306   19.0353 O   0  0  0  0  0  0  0  0  0  0  0  0
   48.1710    7.7058   19.0236 O   0  0  0  0  0  0  0  0  0  0  0  0
   48.4861    2.5977   16.0929 H   0  0  0  0  0  0  0  0  0  0  0  0
   47.0248    3.3721   15.4585 H   0  0  0  0  0  0  0  0  0  0  0  0
   48.6045    3.8998   14.8992 H   0  0  0  0  0  0  0  0  0  0  0  0
   46.4186    3.6646   17.8416 H   0  0  0  0  0  0  0  0  0  0  0  0
   48.2578    3.3514   19.8779 H   0  0  0  0  0  0  0  0  0  0  0  0
   48.1691    2.2228   18.5226 H   0  0  0  0  0  0  0  0  0  0  0  0
   50.3664    3.9960   19.1352 H   0  0  0  0  0  0  0  0  0  0  0  0
   50.2043    2.8691   17.7884 H   0  0  0  0  0  0  0  0  0  0  0  0
   50.1944    4.8896   16.5355 H   0  0  0  0  0  0  0  0  0  0  0  0
   50.1389    6.2062   18.8969 H   0  0  0  0  0  0  0  0  0  0  0  0
   49.7840    6.9812   17.3759 H   0  0  0  0  0  0  0  0  0  0  0  0
   47.5455    7.2222   17.7577 H   0  0  0  0  0  0  0  0  0  0  0  0
   47.0500    5.2418   19.9279 H   0  0  0  0  0  0  0  0  0  0  0  0
   46.0529    5.8022   18.6128 H   0  0  0  0  0  0  0  0  0  0  0  0
   49.3793    9.0128   21.4649 H   0  0  0  0  0  0  0  0  0  0  0  0
   47.0483    8.0877   21.8187 H   0  0  0  0  0  0  0  0  0  0  0  0
   46.3577    9.6336   21.3324 H   0  0  0  0  0  0  0  0  0  0  0  0
   47.4580   10.5870   23.0828 H   0  0  0  0  0  0  0  0  0  0  0  0
   47.0491   11.3680   19.5374 H   0  0  0  0  0  0  0  0  0  0  0  0
   47.4179   13.8045   19.4958 H   0  0  0  0  0  0  0  0  0  0  0  0
   49.3297   14.8075   20.7162 H   0  0  0  0  0  0  0  0  0  0  0  0
   50.8777   13.3537   22.0054 H   0  0  0  0  0  0  0  0  0  0  0  0
   50.5155   10.9262   22.0984 H   0  0  0  0  0  0  0  0  0  0  0  0
   48.1342    2.0670   18.4982 H   0  0  0  0  0  0  0  0  0  0  0  0
   47.8402    2.7180   16.8743 H   0  0  0  0  0  0  0  0  0  0  0  0
   46.5264    2.6350   18.0644 H   0  0  0  0  0  0  0  0  0  0  0  0
   50.0159    3.6567   18.5633 H   0  0  0  0  0  0  0  0  0  0  0  0
   49.8185    4.1009   16.2482 H   0  0  0  0  0  0  0  0  0  0  0  0
   50.2648    5.7340   16.7552 H   0  0  0  0  0  0  0  0  0  0  0  0
   47.7544    4.7815   15.6506 H   0  0  0  0  0  0  0  0  0  0  0  0
   48.1483    6.4455   16.0768 H   0  0  0  0  0  0  0  0  0  0  0  0
   46.2267    5.0376   17.4521 H   0  0  0  0  0  0  0  0  0  0  0  0
   47.4177    7.4193   17.9516 H   0  0  0  0  0  0  0  0  0  0  0  0
   46.3617    6.6389   19.0958 H   0  0  0  0  0  0  0  0  0  0  0  0
   47.9492    6.0728   20.5605 H   0  0  0  0  0  0  0  0  0  0  0  0
   50.4656    6.2792   18.9332 H   0  0  0  0  0  0  0  0  0  0  0  0
   50.0287    5.2267   20.2454 H   0  0  0  0  0  0  0  0  0  0  0  0
   50.3519    9.8333   20.8183 H   0  0  0  0  0  0  0  0  0  0  0  0
   49.7097   11.1824   22.8641 H   0  0  0  0  0  0  0  0  0  0  0  0
   50.5062    9.6391   23.1707 H   0  0  0  0  0  0  0  0  0  0  0  0
   48.5110    8.7308   23.6408 H   0  0  0  0  0  0  0  0  0  0  0  0
   46.7038   10.1511   21.9326 H   0  0  0  0  0  0  0  0  0  0  0  0
   45.0812   11.5141   20.6840 H   0  0  0  0  0  0  0  0  0  0  0  0
   45.7684   12.6995   18.6178 H   0  0  0  0  0  0  0  0  0  0  0  0
   48.1009   12.5172   17.8013 H   0  0  0  0  0  0  0  0  0  0  0  0
   49.7451   11.1597   19.0247 H   0  0  0  0  0  0  0  0  0  0  0  0
   47.6447    6.6923   17.7758 H   0  0  0  0  0  0  0  0  0  0  0  0
   48.7907    9.3948   19.7814 H   0  0  0  0  0  0  0  0  0  0  0  0
   48.4421    6.8102   19.1787 H   0  0  0  0  0  0  0  0  0  0  0  0
   48.5757    8.2131   19.7734 H   0  0  0  0  0  0  0  0  0  0  0  0
   48.4734    6.8075   19.2250 H   0  0  0  0  0  0  0  0  0  0  0  0
   48.5475    8.2405   19.7388 H   0  0  0  0  0  0  0  0  0  0  0  0
  1  2  1  0
  3  2  1  0
  3  4  1  0
  4  5  1  0
  6  5  1  0
  6  2  1  0
  6  7  1  0
  7  8  1  0
  8  9  1  0
  3  9  1  0
  8 10  1  0
 10 11  1  0
 11 12  2  0
 11 13  1  0
 13 14  1  0
 14 15  1  0
 13 16  1  0
 16 17  2  0
 17 18  1  0
 18 19  2  0
 19 20  1  0
 20 21  2  0
 16 21  1  0
 22 23  1  0
 24 23  1  0
 24 25  1  0
 25 26  1  0
 27 26  1  0
 27 23  1  0
 27 28  1  0
 28 29  1  0
 29 30  1  0
 24 30  1  0
 29 31  1  0
 31 32  1  0
 32 33  2  0
 32 34  1  0
 34 35  1  0
 35 36  1  0
 34 37  1  0
 37 38  2  0
 38 39  1  0
 39 40  2  0
 40 41  1  0
 41 42  2  0
 37 42  1  0
 43 44  2  0
 43 45  1  0
 43 46  1  0
 43 47  2  0
  1 50  1  0
  1 51  1  0
  1 52  1  0
  3 53  1  1
  4 54  1  0
  4 55  1  0
  5 56  1  0
  5 57  1  0
  6 58  1  6
  7 59  1  0
  7 60  1  0
  8 61  1  6
  9 62  1  0
  9 63  1  0
 13 64  1  6
 14 65  1  0
 14 66  1  0
 15 67  1  0
 17 68  1  0
 18 69  1  0
 19 70  1  0
 20 71  1  0
 21 72  1  0
 22 73  1  0
 22 74  1  0
 22 75  1  0
 24 76  1  6
 25 77  1  0
 25 78  1  0
 26 79  1  0
 26 80  1  0
 27 81  1  1
 28 82  1  0
 28 83  1  0
 29 84  1  1
 30 85  1  0
 30 86  1  0
 34 87  1  6
 35 88  1  0
 35 89  1  0
 36 90  1  0
 38 91  1  0
 39 92  1  0
 40 93  1  0
 41 94  1  0
 42 95  1  0
 45 96  1  0
 46 97  1  0
 48 98  1  0
 48 99  1  0
 49100  1  0
 49101  1  0
M  END
> <Uni-Dock RESULT> 
ENERGY=   -5.188  LOWER_BOUND=    8.017  UPPER_BOUND=   10.112
INTER + INTRA:          -5.188
INTER:                  -5.188
INTRA:                   0.000
UNBOUND:                 0.000

$$$$

     RDKit          3D

101102  0  0  0  0  0  0  0  0999 V2000
   48.2354   10.1667   11.4099 C   0  0  0  0  0  0  0  0  0  0  0  0
   48.4735    9.3421   12.5939 N   0  0  0  0  0  0  0  0  0  0  0  0
   47.3369    9.3472   13.5314 C   0  0  1  0  0  0  0  0  0  0  0  0
   46.3234    8.3677   12.9301 C   0  0  0  0  0  0  0  0  0  0  0  0
   47.1626    7.4208   12.0815 C   0  0  0  0  0  0  0  0  0  0  0  0
   48.6030    7.9091   12.2724 C   0  0  2  0  0  0  0  0  0  0  0  0
   49.2609    7.1997   13.4691 C   0  0  0  0  0  0  0  0  0  0  0  0
   49.1073    7.9635   14.7953 C   0  0  1  0  0  0  0  0  0  0  0  0
   47.8480    8.8415   14.8917 C   0  0  0  0  0  0  0  0  0  0  0  0
   49.0805    7.0418   15.9089 O   0  0  0  0  0  0  0  0  0  0  0  0
   50.2821    6.5506   16.3346 C   0  0  0  0  0  0  0  0  0  0  0  0
   51.3539    6.8049   15.8028 O   0  0  0  0  0  0  0  0  0  0  0  0
   50.0784    5.6020   17.5152 C   0  0  2  0  0  0  0  0  0  0  0  0
   49.1801    6.2401   18.5899 C   0  0  0  0  0  0  0  0  0  0  0  0
   48.7849    5.2850   19.5791 O   0  0  0  0  0  0  0  0  0  0  0  0
   51.3867    5.1175   18.1380 C   0  0  0  0  0  0  0  0  0  0  0  0
   52.3441    6.0168   18.6407 C   0  0  0  0  0  0  0  0  0  0  0  0
   53.5061    5.5429   19.2570 C   0  0  0  0  0  0  0  0  0  0  0  0
   53.7297    4.1729   19.3697 C   0  0  0  0  0  0  0  0  0  0  0  0
   52.7937    3.2714   18.8691 C   0  0  0  0  0  0  0  0  0  0  0  0
   51.6257    3.7386   18.2633 C   0  0  0  0  0  0  0  0  0  0  0  0
   46.3506    9.5328   12.5967 C   0  0  0  0  0  0  0  0  0  0  0  0
   47.1581    8.6731   13.4603 N   0  0  0  0  0  0  0  0  0  0  0  0
   47.7225    7.5141   12.7438 C   0  0  1  0  0  0  0  0  0  0  0  0
   48.9462    8.0668   12.0037 C   0  0  0  0  0  0  0  0  0  0  0  0
   49.3568    9.2994   12.7995 C   0  0  0  0  0  0  0  0  0  0  0  0
   48.3677    9.3480   13.9674 C   0  0  2  0  0  0  0  0  0  0  0  0
   48.9007    8.5365   15.1596 C   0  0  0  0  0  0  0  0  0  0  0  0
   48.4244    7.0753   15.1785 C   0  0  1  0  0  0  0  0  0  0  0  0
   48.1366    6.4708   13.7959 C   0  0  0  0  0  0  0  0  0  0  0  0
   49.4372    6.2975   15.8453 O   0  0  0  0  0  0  0  0  0  0  0  0
   49.0130    5.3029   16.6742 C   0  0  0  0  0  0  0  0  0  0  0  0
   47.8430    4.9558   16.8169 O   0  0  0  0  0  0  0  0  0  0  0  0
   50.1895    4.6479   17.3827 C   0  0  2  0  0  0  0  0  0  0  0  0
   49.7047    3.5819   18.3832 C   0  0  0  0  0  0  0  0  0  0  0  0
   48.7295    4.0569   19.3119 O   0  0  0  0  0  0  0  0  0  0  0  0
   51.1467    5.6606   17.9982 C   0  0  0  0  0  0  0  0  0  0  0  0
   50.7749    6.4591   19.0906 C   0  0  0  0  0  0  0  0  0  0  0  0
   51.6566    7.4087   19.6099 C   0  0  0  0  0  0  0  0  0  0  0  0
   52.9186    7.5730   19.0443 C   0  0  0  0  0  0  0  0  0  0  0  0
   53.3012    6.7897   17.9592 C   0  0  0  0  0  0  0  0  0  0  0  0
   52.4221    5.8415   17.4368 C   0  0  0  0  0  0  0  0  0  0  0  0
   49.0924    6.8660   15.5833 S   0  0  0  0  0  0  0  0  0  0  0  0
   48.3337    6.5002   14.4144 O   0  0  0  0  0  0  0  0  0  0  0  0
   50.0678    8.0612   15.1406 O   0  0  0  0  0  0  0  0  0  0  0  0
   50.1447    5.6985   15.9201 O   0  0  0  0  0  0  0  0  0  0  0  0
   48.4786    7.2616   16.8252 O   0  0  0  0  0  0  0  0  0  0  0  0
   49.7385    7.3172   15.6116 O   0  0  0  0  0  0  0  0  0  0  0  0
   49.7249    7.3319   15.5927 O   0  0  0  0  0  0  0  0  0  0  0  0
   47.3529    9.8754   10.8298 H   0  0  0  0  0  0  0  0  0  0  0  0
   48.1156   11.2150   11.7021 H   0  0  0  0  0  0  0  0  0  0  0  0
   49.1038   10.1230   10.7442 H   0  0  0  0  0  0  0  0  0  0  0  0
   46.8876   10.3377   13.6654 H   0  0  0  0  0  0  0  0  0  0  0  0
   45.7474    7.8224   13.6854 H   0  0  0  0  0  0  0  0  0  0  0  0
   45.6060    8.8970   12.2912 H   0  0  0  0  0  0  0  0  0  0  0  0
   47.0161    6.3766   12.3764 H   0  0  0  0  0  0  0  0  0  0  0  0
   46.8598    7.5054   11.0303 H   0  0  0  0  0  0  0  0  0  0  0  0
   49.2025    7.7193   11.3745 H   0  0  0  0  0  0  0  0  0  0  0  0
   48.8945    6.1692   13.5688 H   0  0  0  0  0  0  0  0  0  0  0  0
   50.3374    7.1000   13.2662 H   0  0  0  0  0  0  0  0  0  0  0  0
   49.9680    8.6383   14.9130 H   0  0  0  0  0  0  0  0  0  0  0  0
   47.0527    8.3228   15.4407 H   0  0  0  0  0  0  0  0  0  0  0  0
   48.1060    9.7093   15.5143 H   0  0  0  0  0  0  0  0  0  0  0  0
   49.5572    4.7228   17.1069 H   0  0  0  0  0  0  0  0  0  0  0  0
   48.2525    6.6253   18.1524 H   0  0  0  0  0  0  0  0  0  0  0  0
   49.6685    7.0821   19.0955 H   0  0  0  0  0  0  0  0  0  0  0  0
   49.5973    5.0191   20.0561 H   0  0  0  0  0  0  0  0  0  0  0  0
   52.2005    7.0937   18.5505 H   0  0  0  0  0  0  0  0  0  0  0  0
   54.2392    6.2457   19.6454 H   0  0  0  0  0  0  0  0  0  0  0  0
   54.6371    3.8058   19.8446 H   0  0  0  0  0  0  0  0  0  0  0  0
   52.9651    2.2001   18.9514 H   0  0  0  0  0  0  0  0  0  0  0  0
   50.9051    3.0127   17.8890 H   0  0  0  0  0  0  0  0  0  0  0  0
   45.4894    8.9751   12.2111 H   0  0  0  0  0  0  0  0  0  0  0  0
   46.9011    9.9421   11.7429 H   0  0  0  0  0  0  0  0  0  0  0  0
   45.9485   10.3721   13.1772 H   0  0  0  0  0  0  0  0  0  0  0  0
   47.0184    7.0500   12.0422 H   0  0  0  0  0  0  0  0  0  0  0  0
   48.6761    8.3640   10.9832 H   0  0  0  0  0  0  0  0  0  0  0  0
   49.7656    7.3442   11.9299 H   0  0  0  0  0  0  0  0  0  0  0  0
   49.2499   10.1912   12.1720 H   0  0  0  0  0  0  0  0  0  0  0  0
   50.4027    9.2502   13.1162 H   0  0  0  0  0  0  0  0  0  0  0  0
   48.1856   10.3809   14.2876 H   0  0  0  0  0  0  0  0  0  0  0  0
   49.9953    8.5893   15.2124 H   0  0  0  0  0  0  0  0  0  0  0  0
   48.5482    9.0009   16.0898 H   0  0  0  0  0  0  0  0  0  0  0  0
   47.4948    7.0588   15.7664 H   0  0  0  0  0  0  0  0  0  0  0  0
   48.9825    5.8691   13.4439 H   0  0  0  0  0  0  0  0  0  0  0  0
   47.3151    5.7548   13.9207 H   0  0  0  0  0  0  0  0  0  0  0  0
   50.7376    4.0983   16.6032 H   0  0  0  0  0  0  0  0  0  0  0  0
   50.5471    3.1847   18.9584 H   0  0  0  0  0  0  0  0  0  0  0  0
   49.2527    2.7398   17.8463 H   0  0  0  0  0  0  0  0  0  0  0  0
   47.9464    4.3046   18.7797 H   0  0  0  0  0  0  0  0  0  0  0  0
   49.7925    6.3550   19.5469 H   0  0  0  0  0  0  0  0  0  0  0  0
   51.3568    8.0202   20.4579 H   0  0  0  0  0  0  0  0  0  0  0  0
   53.6028    8.3118   19.4496 H   0  0  0  0  0  0  0  0  0  0  0  0
   54.2837    6.9206   17.5153 H   0  0  0  0  0  0  0  0  0  0  0  0
   52.7416    5.2505   16.5796 H   0  0  0  0  0  0  0  0  0  0  0  0
   49.5470    8.6733   14.5777 H   0  0  0  0  0  0  0  0  0  0  0  0
   50.7417    6.0229   16.6240 H   0  0  0  0  0  0  0  0  0  0  0  0
   48.9575    7.2401   15.0428 H   0  0  0  0  0  0  0  0  0  0  0  0
   49.7636    6.4786   16.0964 H   0  0  0  0  0  0  0  0  0  0  0  0
   48.9335    7.1903   15.0517 H   0  0  0  0  0  0  0  0  0  0  0  0
   49.8012    6.5137   16.1064 H   0  0  0  0  0  0  0  0  0  0  0  0
  1  2  1  0
  3  2  1  0
  3  4  1  0
  4  5  1  0
  6  5  1  0
  6  2  1  0
  6  7  1  0
  7  8  1  0
  8  9  1  0
  3  9  1  0
  8 10  1  0
 10 11  1  0
 11 12  2  0
 11 13  1  0
 13 14  1  0
 14 15  1  0
 13 16  1  0
 16 17  2  0
 17 18  1  0
 18 19  2  0
 19 20  1  0
 20 21  2  0
 16 21  1  0
 22 23  1  0
 24 23  1  0
 24 25  1  0
 25 26  1  0
 27 26  1  0
 27 23  1  0
 27 28  1  0
 28 29  1  0
 29 30  1  0
 24 30  1  0
 29 31  1  0
 31 32  1  0
 32 33  2  0
 32 34  1  0
 34 35  1  0
 35 36  1  0
 34 37  1  0
 37 38  2  0
 38 39  1  0
 39 40  2  0
 40 41  1  0
 41 42  2  0
 37 42  1  0
 43 44  2  0
 43 45  1  0
 43 46  1  0
 43 47  2  0
  1 50  1  0
  1 51  1  0
  1 52  1  0
  3 53  1  1
  4 54  1  0
  4 55  1  0
  5 56  1  0
  5 57  1  0
  6 58  1  6
  7 59  1  0
  7 60  1  0
  8 61  1  6
  9 62  1  0
  9 63  1  0
 13 64  1  6
 14 65  1  0
 14 66  1  0
 15 67  1  0
 17 68  1  0
 18 69  1  0
 19 70  1  0
 20 71  1  0
 21 72  1  0
 22 73  1  0
 22 74  1  0
 22 75  1  0
 24 76  1  6
 25 77  1  0
 25 78  1  0
 26 79  1  0
 26 80  1  0
 27 81  1  1
 28 82  1  0
 28 83  1  0
 29 84  1  1
 30 85  1  0
 30 86  1  0
 34 87  1  6
 35 88  1  0
 35 89  1  0
 36 90  1  0
 38 91  1  0
 39 92  1  0
 40 93  1  0
 41 94  1  0
 42 95  1  0
 45 96  1  0
 46 97  1  0
 48 98  1  0
 48 99  1  0
 49100  1  0
 49101  1  0
M  END
> <Uni-Dock RESULT> 
ENERGY=   -5.177  LOWER_BOUND=    4.850  UPPER_BOUND=    7.759
INTER + INTRA:          -5.177
INTER:                  -5.177
INTRA:                   0.000
UNBOUND:                 0.000

$$$$

     RDKit          3D

101102  0  0  0  0  0  0  0  0999 V2000
   48.1060    7.3645   12.0580 C   0  0  0  0  0  0  0  0  0  0  0  0
   48.4419    7.5645   13.4671 N   0  0  0  0  0  0  0  0  0  0  0  0
   49.8732    7.8425   13.6792 C   0  0  1  0  0  0  0  0  0  0  0  0
   50.0456    9.3233   13.3246 C   0  0  0  0  0  0  0  0  0  0  0  0
   48.6681    9.9341   13.5491 C   0  0  0  0  0  0  0  0  0  0  0  0
   47.8055    8.7655   14.0386 C   0  0  2  0  0  0  0  0  0  0  0  0
   47.8576    8.6598   15.5730 C   0  0  0  0  0  0  0  0  0  0  0  0
   48.9582    7.7159   16.0861 C   0  0  1  0  0  0  0  0  0  0  0  0
   50.1845    7.5946   15.1654 C   0  0  0  0  0  0  0  0  0  0  0  0
   49.4297    8.1473   17.3829 O   0  0  0  0  0  0  0  0  0  0  0  0
   48.6553    7.8254   18.4614 C   0  0  0  0  0  0  0  0  0  0  0  0
   47.5804    7.2465   18.3853 O   0  0  0  0  0  0  0  0  0  0  0  0
   49.2953    8.3464   19.7476 C   0  0  2  0  0  0  0  0  0  0  0  0
   50.7801    7.9491   19.8278 C   0  0  0  0  0  0  0  0  0  0  0  0
   51.4486    8.6275   20.8955 O   0  0  0  0  0  0  0  0  0  0  0  0
   48.5604    7.9071   21.0130 C   0  0  0  0  0  0  0  0  0  0  0  0
   48.3518    6.5491   21.3134 C   0  0  0  0  0  0  0  0  0  0  0  0
   47.7267    6.1755   22.5068 C   0  0  0  0  0  0  0  0  0  0  0  0
   47.2960    7.1484   23.4056 C   0  0  0  0  0  0  0  0  0  0  0  0
   47.4891    8.4970   23.1169 C   0  0  0  0  0  0  0  0  0  0  0  0
   48.1234    8.8759   21.9321 C   0  0  0  0  0  0  0  0  0  0  0  0
   50.1033    8.4595   12.4761 C   0  0  0  0  0  0  0  0  0  0  0  0
   49.8044    8.5021   13.9064 N   0  0  0  0  0  0  0  0  0  0  0  0
   48.6647    9.3825   14.2247 C   0  0  1  0  0  0  0  0  0  0  0  0
   47.4202    8.5473   13.9014 C   0  0  0  0  0  0  0  0  0  0  0  0
   47.8842    7.1004   14.0129 C   0  0  0  0  0  0  0  0  0  0  0  0
   49.3529    7.2009   14.4343 C   0  0  2  0  0  0  0  0  0  0  0  0
   49.4727    7.2418   15.9666 C   0  0  0  0  0  0  0  0  0  0  0  0
   49.4956    8.6637   16.5498 C   0  0  1  0  0  0  0  0  0  0  0  0
   48.7346    9.7132   15.7256 C   0  0  0  0  0  0  0  0  0  0  0  0
   48.9415    8.5967   17.8779 O   0  0  0  0  0  0  0  0  0  0  0  0
   49.5257    9.3697   18.8357 C   0  0  0  0  0  0  0  0  0  0  0  0
   50.4180   10.1894   18.6320 O   0  0  0  0  0  0  0  0  0  0  0  0
   48.9019    9.1091   20.1988 C   0  0  2  0  0  0  0  0  0  0  0  0
   49.6186    9.9190   21.2955 C   0  0  0  0  0  0  0  0  0  0  0  0
   51.0346    9.7364   21.3215 O   0  0  0  0  0  0  0  0  0  0  0  0
   48.7887    7.6249   20.5227 C   0  0  0  0  0  0  0  0  0  0  0  0
   49.9225    6.8307   20.7530 C   0  0  0  0  0  0  0  0  0  0  0  0
   49.7936    5.4641   21.0074 C   0  0  0  0  0  0  0  0  0  0  0  0
   48.5322    4.8746   21.0336 C   0  0  0  0  0  0  0  0  0  0  0  0
   47.3982    5.6489   20.8053 C   0  0  0  0  0  0  0  0  0  0  0  0
   47.5236    7.0139   20.5490 C   0  0  0  0  0  0  0  0  0  0  0  0
   49.1818    8.3823   17.2400 S   0  0  0  0  0  0  0  0  0  0  0  0
   48.9652    9.4064   16.2499 O   0  0  0  0  0  0  0  0  0  0  0  0
   48.4599    7.0571   16.6936 O   0  0  0  0  0  0  0  0  0  0  0  0
   48.3050    8.7125   18.5460 O   0  0  0  0  0  0  0  0  0  0  0  0
   50.4932    7.9918   17.6911 O   0  0  0  0  0  0  0  0  0  0  0  0
   48.8160    7.6859   17.2950 O   0  0  0  0  0  0  0  0  0  0  0  0
   48.8185    7.6863   17.2675 O   0  0  0  0  0  0  0  0  0  0  0  0
   48.3568    8.2128   11.4117 H   0  0  0  0  0  0  0  0  0  0  0  0
   48.6250    6.4814   11.6714 H   0  0  0  0  0  0  0  0  0  0  0  0
   47.0334    7.1695   11.9543 H   0  0  0  0  0  0  0  0  0  0  0  0
   50.5333    7.2171   13.0677 H   0  0  0  0  0  0  0  0  0  0  0  0
   50.8086    9.8271   13.9276 H   0  0  0  0  0  0  0  0  0  0  0  0
   50.3323    9.4382   12.2721 H   0  0  0  0  0  0  0  0  0  0  0  0
   48.7069   10.7699   14.2552 H   0  0  0  0  0  0  0  0  0  0  0  0
   48.2840   10.3298   12.6006 H   0  0  0  0  0  0  0  0  0  0  0  0
   46.7621    8.8922   13.7273 H   0  0  0  0  0  0  0  0  0  0  0  0
   47.9490    9.6518   16.0353 H   0  0  0  0  0  0  0  0  0  0  0  0
   46.8927    8.2688   15.9283 H   0  0  0  0  0  0  0  0  0  0  0  0
   48.5369    6.7040   16.1796 H   0  0  0  0  0  0  0  0  0  0  0  0
   50.9961    8.2471   15.5098 H   0  0  0  0  0  0  0  0  0  0  0  0
   50.5724    6.5726   15.2769 H   0  0  0  0  0  0  0  0  0  0  0  0
   49.2340    9.4437   19.6897 H   0  0  0  0  0  0  0  0  0  0  0  0
   51.3136    8.2252   18.9117 H   0  0  0  0  0  0  0  0  0  0  0  0
   50.9160    6.8690   19.9633 H   0  0  0  0  0  0  0  0  0  0  0  0
   51.0551    8.2991   21.7295 H   0  0  0  0  0  0  0  0  0  0  0  0
   48.6649    5.7690   20.6193 H   0  0  0  0  0  0  0  0  0  0  0  0
   47.5725    5.1231   22.7320 H   0  0  0  0  0  0  0  0  0  0  0  0
   46.8048    6.8562   24.3313 H   0  0  0  0  0  0  0  0  0  0  0  0
   47.1514    9.2612   23.8139 H   0  0  0  0  0  0  0  0  0  0  0  0
   48.2711    9.9368   21.7349 H   0  0  0  0  0  0  0  0  0  0  0  0
   50.3913    9.4563   12.1228 H   0  0  0  0  0  0  0  0  0  0  0  0
   49.2675    8.1088   11.8612 H   0  0  0  0  0  0  0  0  0  0  0  0
   50.9608    7.8003   12.2939 H   0  0  0  0  0  0  0  0  0  0  0  0
   48.6650   10.3197   13.6547 H   0  0  0  0  0  0  0  0  0  0  0  0
   47.0807    8.7442   12.8774 H   0  0  0  0  0  0  0  0  0  0  0  0
   46.5793    8.7529   14.5720 H   0  0  0  0  0  0  0  0  0  0  0  0
   47.8007    6.6140   13.0347 H   0  0  0  0  0  0  0  0  0  0  0  0
   47.2685    6.5278   14.7126 H   0  0  0  0  0  0  0  0  0  0  0  0
   49.9325    6.3528   14.0504 H   0  0  0  0  0  0  0  0  0  0  0  0
   48.6851    6.6408   16.4381 H   0  0  0  0  0  0  0  0  0  0  0  0
   50.4137    6.7590   16.2611 H   0  0  0  0  0  0  0  0  0  0  0  0
   50.5533    8.9614   16.6020 H   0  0  0  0  0  0  0  0  0  0  0  0
   47.7346    9.8904   16.1380 H   0  0  0  0  0  0  0  0  0  0  0  0
   49.2627   10.6665   15.8495 H   0  0  0  0  0  0  0  0  0  0  0  0
   47.8827    9.5194   20.1428 H   0  0  0  0  0  0  0  0  0  0  0  0
   49.2301    9.6535   22.2839 H   0  0  0  0  0  0  0  0  0  0  0  0
   49.4360   10.9904   21.1522 H   0  0  0  0  0  0  0  0  0  0  0  0
   51.3682   10.0816   20.4685 H   0  0  0  0  0  0  0  0  0  0  0  0
   50.9198    7.2655   20.7319 H   0  0  0  0  0  0  0  0  0  0  0  0
   50.6802    4.8600   21.1858 H   0  0  0  0  0  0  0  0  0  0  0  0
   48.4340    3.8119   21.2317 H   0  0  0  0  0  0  0  0  0  0  0  0
   46.4147    5.1885   20.8214 H   0  0  0  0  0  0  0  0  0  0  0  0
   46.6214    7.5943   20.3612 H   0  0  0  0  0  0  0  0  0  0  0  0
   48.6629    6.9844   15.7364 H   0  0  0  0  0  0  0  0  0  0  0  0
   48.3540    7.9415   19.1463 H   0  0  0  0  0  0  0  0  0  0  0  0
   49.0479    8.3059   16.5869 H   0  0  0  0  0  0  0  0  0  0  0  0
   48.8884    8.2122   18.1053 H   0  0  0  0  0  0  0  0  0  0  0  0
   49.0595    8.3557   16.6096 H   0  0  0  0  0  0  0  0  0  0  0  0
   48.8743    8.1620   18.1100 H   0  0  0  0  0  0  0  0  0  0  0  0
  1  2  1  0
  3  2  1  0
  3  4  1  0
  4  5  1  0
  6  5  1  0
  6  2  1  0
  6  7  1  0
  7  8  1  0
  8  9  1  0
  3  9  1  0
  8 10  1  0
 10 11  1  0
 11 12  2  0
 11 13  1  0
 13 14  1  0
 14 15  1  0
 13 16  1  0
 16 17  2  0
 17 18  1  0
 18 19  2  0
 19 20  1  0
 20 21  2  0
 16 21  1  0
 22 23  1  0
 24 23  1  0
 24 25  1  0
 25 26  1  0
 27 26  1  0
 27 23  1  0
 27 28  1  0
 28 29  1  0
 29 30  1  0
 24 30  1  0
 29 31  1  0
 31 32  1  0
 32 33  2  0
 32 34  1  0
 34 35  1  0
 35 36  1  0
 34 37  1  0
 37 38  2  0
 38 39  1  0
 39 40  2  0
 40 41  1  0
 41 42  2  0
 37 42  1  0
 43 44  2  0
 43 45  1  0
 43 46  1  0
 43 47  2  0
  1 50  1  0
  1 51  1  0
  1 52  1  0
  3 53  1  1
  4 54  1  0
  4 55  1  0
  5 56  1  0
  5 57  1  0
  6 58  1  6
  7 59  1  0
  7 60  1  0
  8 61  1  6
  9 62  1  0
  9 63  1  0
 13 64  1  6
 14 65  1  0
 14 66  1  0
 15 67  1  0
 17 68  1  0
 18 69  1  0
 19 70  1  0
 20 71  1  0
 21 72  1  0
 22 73  1  0
 22 74  1  0
 22 75  1  0
 24 76  1  6
 25 77  1  0
 25 78  1  0
 26 79  1  0
 26 80  1  0
 27 81  1  1
 28 82  1  0
 28 83  1  0
 29 84  1  1
 30 85  1  0
 30 86  1  0
 34 87  1  6
 35 88  1  0
 35 89  1  0
 36 90  1  0
 38 91  1  0
 39 92  1  0
 40 93  1  0
 41 94  1  0
 42 95  1  0
 45 96  1  0
 46 97  1  0
 48 98  1  0
 48 99  1  0
 49100  1  0
 49101  1  0
M  END
> <Uni-Dock RESULT> 
ENERGY=   -5.104  LOWER_BOUND=    5.392  UPPER_BOUND=    8.090
INTER + INTRA:          -5.104
INTER:                  -5.104
INTRA:                   0.000
UNBOUND:                 0.000

$$$$

     RDKit          3D

101102  0  0  0  0  0  0  0  0999 V2000
   47.5378    5.3125   22.2998 C   0  0  0  0  0  0  0  0  0  0  0  0
   47.8746    6.0735   21.0973 N   0  0  0  0  0  0  0  0  0  0  0  0
   47.6125    7.5161   21.2424 C   0  0  1  0  0  0  0  0  0  0  0  0
   48.8043    8.0568   22.0395 C   0  0  0  0  0  0  0  0  0  0  0  0
   49.9334    7.0746   21.7543 C   0  0  0  0  0  0  0  0  0  0  0  0
   49.3175    6.0501   20.7949 C   0  0  2  0  0  0  0  0  0  0  0  0
   49.5152    6.4898   19.3335 C   0  0  0  0  0  0  0  0  0  0  0  0
   48.3444    7.3184   18.7783 C   0  0  1  0  0  0  0  0  0  0  0  0
   47.5720    8.1301   19.8322 C   0  0  0  0  0  0  0  0  0  0  0  0
   48.8137    8.2464   17.7738 O   0  0  0  0  0  0  0  0  0  0  0  0
   49.0448    7.7420   16.5253 C   0  0  0  0  0  0  0  0  0  0  0  0
   48.9258    6.5609   16.2302 O   0  0  0  0  0  0  0  0  0  0  0  0
   49.5270    8.8483   15.5879 C   0  0  2  0  0  0  0  0  0  0  0  0
   48.6103   10.0820   15.6692 C   0  0  0  0  0  0  0  0  0  0  0  0
   49.1785   11.2046   14.9881 O   0  0  0  0  0  0  0  0  0  0  0  0
   49.6753    8.3934   14.1369 C   0  0  0  0  0  0  0  0  0  0  0  0
   48.5968    7.8450   13.4199 C   0  0  0  0  0  0  0  0  0  0  0  0
   48.7469    7.4907   12.0758 C   0  0  0  0  0  0  0  0  0  0  0  0
   49.9717    7.6697   11.4374 C   0  0  0  0  0  0  0  0  0  0  0  0
   51.0501    8.2043   12.1379 C   0  0  0  0  0  0  0  0  0  0  0  0
   50.9030    8.5711   13.4770 C   0  0  0  0  0  0  0  0  0  0  0  0
   47.8325    7.5905   22.5941 C   0  0  0  0  0  0  0  0  0  0  0  0
   48.2784    7.7327   21.2092 N   0  0  0  0  0  0  0  0  0  0  0  0
   49.5767    7.0795   20.9583 C   0  0  1  0  0  0  0  0  0  0  0  0
   49.2429    5.5926   20.7892 C   0  0  0  0  0  0  0  0  0  0  0  0
   47.7851    5.5702   20.3470 C   0  0  0  0  0  0  0  0  0  0  0  0
   47.3916    7.0468   20.2506 C   0  0  2  0  0  0  0  0  0  0  0  0
   47.6943    7.5950   18.8464 C   0  0  0  0  0  0  0  0  0  0  0  0
   49.0824    8.2425   18.7187 C   0  0  1  0  0  0  0  0  0  0  0  0
   50.1529    7.6685   19.6592 C   0  0  0  0  0  0  0  0  0  0  0  0
   49.5080    8.0900   17.3509 O   0  0  0  0  0  0  0  0  0  0  0  0
   50.1715    9.1368   16.7851 C   0  0  0  0  0  0  0  0  0  0  0  0
   50.5206   10.1538   17.3797 O   0  0  0  0  0  0  0  0  0  0  0  0
   50.4572    8.8677   15.3150 C   0  0  2  0  0  0  0  0  0  0  0  0
   51.1308   10.0850   14.6539 C   0  0  0  0  0  0  0  0  0  0  0  0
   50.4227   11.3116   14.8362 O   0  0  0  0  0  0  0  0  0  0  0  0
   49.2331    8.3709   14.5565 C   0  0  0  0  0  0  0  0  0  0  0  0
   48.1263    9.1997   14.3165 C   0  0  0  0  0  0  0  0  0  0  0  0
   46.9999    8.7077   13.6548 C   0  0  0  0  0  0  0  0  0  0  0  0
   46.9647    7.3831   13.2263 C   0  0  0  0  0  0  0  0  0  0  0  0
   48.0540    6.5482   13.4586 C   0  0  0  0  0  0  0  0  0  0  0  0
   49.1800    7.0360   14.1210 C   0  0  0  0  0  0  0  0  0  0  0  0
   49.0919    8.0594   17.9311 S   0  0  0  0  0  0  0  0  0  0  0  0
   49.8946    7.9226   19.1198 O   0  0  0  0  0  0  0  0  0  0  0  0
   48.0695    6.8224   17.9241 O   0  0  0  0  0  0  0  0  0  0  0  0
   49.9952    7.7390   16.6407 O   0  0  0  0  0  0  0  0  0  0  0  0
   48.3243    9.2419   17.6344 O   0  0  0  0  0  0  0  0  0  0  0  0
   48.6191    7.5168   17.6088 O   0  0  0  0  0  0  0  0  0  0  0  0
   48.6130    7.5116   17.6352 O   0  0  0  0  0  0  0  0  0  0  0  0
   48.0712    5.6362   23.2003 H   0  0  0  0  0  0  0  0  0  0  0  0
   46.4638    5.3852   22.4998 H   0  0  0  0  0  0  0  0  0  0  0  0
   47.7575    4.2511   22.1431 H   0  0  0  0  0  0  0  0  0  0  0  0
   46.6695    7.7378   21.7548 H   0  0  0  0  0  0  0  0  0  0  0  0
   49.0841    9.0784   21.7609 H   0  0  0  0  0  0  0  0  0  0  0  0
   48.5818    8.0603   23.1135 H   0  0  0  0  0  0  0  0  0  0  0  0
   50.8137    7.5793   21.3429 H   0  0  0  0  0  0  0  0  0  0  0  0
   50.2448    6.5929   22.6896 H   0  0  0  0  0  0  0  0  0  0  0  0
   49.7727    5.0624   20.9325 H   0  0  0  0  0  0  0  0  0  0  0  0
   50.4657    7.0252   19.2063 H   0  0  0  0  0  0  0  0  0  0  0  0
   49.6104    5.5896   18.7086 H   0  0  0  0  0  0  0  0  0  0  0  0
   47.6174    6.6335   18.3175 H   0  0  0  0  0  0  0  0  0  0  0  0
   47.9138    9.1721   19.8487 H   0  0  0  0  0  0  0  0  0  0  0  0
   46.5256    8.1777   19.5002 H   0  0  0  0  0  0  0  0  0  0  0  0
   50.5253    9.1353   15.9516 H   0  0  0  0  0  0  0  0  0  0  0  0
   48.4647   10.3990   16.7077 H   0  0  0  0  0  0  0  0  0  0  0  0
   47.6144    9.8897   15.2514 H   0  0  0  0  0  0  0  0  0  0  0  0
   49.2060   10.9742   14.0372 H   0  0  0  0  0  0  0  0  0  0  0  0
   47.6326    7.6798   13.9009 H   0  0  0  0  0  0  0  0  0  0  0  0
   47.9066    7.0704   11.5286 H   0  0  0  0  0  0  0  0  0  0  0  0
   50.0884    7.3883   10.3929 H   0  0  0  0  0  0  0  0  0  0  0  0
   52.0102    8.3429   11.6449 H   0  0  0  0  0  0  0  0  0  0  0  0
   51.7591    8.9961   13.9992 H   0  0  0  0  0  0  0  0  0  0  0  0
   48.5447    8.0779   23.2698 H   0  0  0  0  0  0  0  0  0  0  0  0
   47.7161    6.5498   22.9152 H   0  0  0  0  0  0  0  0  0  0  0  0
   46.8702    8.0989   22.7299 H   0  0  0  0  0  0  0  0  0  0  0  0
   50.3028    7.2271   21.7673 H   0  0  0  0  0  0  0  0  0  0  0  0
   49.3427    5.0652   21.7456 H   0  0  0  0  0  0  0  0  0  0  0  0
   49.8906    5.0870   20.0655 H   0  0  0  0  0  0  0  0  0  0  0  0
   47.1808    5.0635   21.1077 H   0  0  0  0  0  0  0  0  0  0  0  0
   47.6519    5.0218   19.4099 H   0  0  0  0  0  0  0  0  0  0  0  0
   46.3261    7.1865   20.4696 H   0  0  0  0  0  0  0  0  0  0  0  0
   47.5559    6.8186   18.0836 H   0  0  0  0  0  0  0  0  0  0  0  0
   46.9554    8.3693   18.6017 H   0  0  0  0  0  0  0  0  0  0  0  0
   48.9503    9.3096   18.9510 H   0  0  0  0  0  0  0  0  0  0  0  0
   50.7842    6.9381   19.1402 H   0  0  0  0  0  0  0  0  0  0  0  0
   50.8302    8.4914   19.9184 H   0  0  0  0  0  0  0  0  0  0  0  0
   51.2099    8.0656   15.3003 H   0  0  0  0  0  0  0  0  0  0  0  0
   51.2444    9.9226   13.5774 H   0  0  0  0  0  0  0  0  0  0  0  0
   52.1354   10.2301   15.0679 H   0  0  0  0  0  0  0  0  0  0  0  0
   50.4296   11.4881   15.7990 H   0  0  0  0  0  0  0  0  0  0  0  0
   48.1260   10.2366   14.6466 H   0  0  0  0  0  0  0  0  0  0  0  0
   46.1493    9.3608   13.4737 H   0  0  0  0  0  0  0  0  0  0  0  0
   46.0880    7.0024   12.7118 H   0  0  0  0  0  0  0  0  0  0  0  0
   48.0249    5.5140   13.1283 H   0  0  0  0  0  0  0  0  0  0  0  0
   50.0134    6.3584   14.3012 H   0  0  0  0  0  0  0  0  0  0  0  0
   47.7301    6.7155   18.8386 H   0  0  0  0  0  0  0  0  0  0  0  0
   49.4056    7.6985   15.8611 H   0  0  0  0  0  0  0  0  0  0  0  0
   48.9421    7.7317   18.4971 H   0  0  0  0  0  0  0  0  0  0  0  0
   49.2293    7.9797   17.0154 H   0  0  0  0  0  0  0  0  0  0  0  0
   48.9870    7.7647   18.4925 H   0  0  0  0  0  0  0  0  0  0  0  0
   49.1906    7.9519   16.9937 H   0  0  0  0  0  0  0  0  0  0  0  0
  1  2  1  0
  3  2  1  0
  3  4  1  0
  4  5  1  0
  6  5  1  0
  6  2  1  0
  6  7  1  0
  7  8  1  0
  8  9  1  0
  3  9  1  0
  8 10  1  0
 10 11  1  0
 11 12  2  0
 11 13  1  0
 13 14  1  0
 14 15  1  0
 13 16  1  0
 16 17  2  0
 17 18  1  0
 18 19  2  0
 19 20  1  0
 20 21  2  0
 16 21  1  0
 22 23  1  0
 24 23  1  0
 24 25  1  0
 25 26  1  0
 27 26  1  0
 27 23  1  0
 27 28  1  0
 28 29  1  0
 29 30  1  0
 24 30  1  0
 29 31  1  0
 31 32  1  0
 32 33  2  0
 32 34  1  0
 34 35  1  0
 35 36  1  0
 34 37  1  0
 37 38  2  0
 38 39  1  0
 39 40  2  0
 40 41  1  0
 41 42  2  0
 37 42  1  0
 43 44  2  0
 43 45  1  0
 43 46  1  0
 43 47  2  0
  1 50  1  0
  1 51  1  0
  1 52  1  0
  3 53  1  1
  4 54  1  0
  4 55  1  0
  5 56  1  0
  5 57  1  0
  6 58  1  6
  7 59  1  0
  7 60  1  0
  8 61  1  6
  9 62  1  0
  9 63  1  0
 13 64  1  6
 14 65  1  0
 14 66  1  0
 15 67  1  0
 17 68  1  0
 18 69  1  0
 19 70  1  0
 20 71  1  0
 21 72  1  0
 22 73  1  0
 22 74  1  0
 22 75  1  0
 24 76  1  6
 25 77  1  0
 25 78  1  0
 26 79  1  0
 26 80  1  0
 27 81  1  1
 28 82  1  0
 28 83  1  0
 29 84  1  1
 30 85  1  0
 30 86  1  0
 34 87  1  6
 35 88  1  0
 35 89  1  0
 36 90  1  0
 38 91  1  0
 39 92  1  0
 40 93  1  0
 41 94  1  0
 42 95  1  0
 45 96  1  0
 46 97  1  0
 48 98  1  0
 48 99  1  0
 49100  1  0
 49101  1  0
M  END
> <Uni-Dock RESULT> 
ENERGY=   -5.041  LOWER_BOUND=    5.390  UPPER_BOUND=    9.030
INTER + INTRA:          -5.041
INTER:                  -5.041
INTRA:                   0.000
UNBOUND:                 0.000

$$$$

     RDKit          3D

101102  0  0  0  0  0  0  0  0999 V2000
   49.1206    9.9251   11.4867 C   0  0  0  0  0  0  0  0  0  0  0  0
   48.9862    9.7059   12.9262 N   0  0  0  0  0  0  0  0  0  0  0  0
   48.3588    8.4129   13.2508 C   0  0  1  0  0  0  0  0  0  0  0  0
   49.4795    7.3793   13.0968 C   0  0  0  0  0  0  0  0  0  0  0  0
   50.7628    8.1693   13.3202 C   0  0  0  0  0  0  0  0  0  0  0  0
   50.2885    9.5979   13.6091 C   0  0  2  0  0  0  0  0  0  0  0  0
   50.0642    9.7990   15.1183 C   0  0  0  0  0  0  0  0  0  0  0  0
   48.6216    9.5125   15.5678 C   0  0  1  0  0  0  0  0  0  0  0  0
   47.8713    8.4804   14.7086 C   0  0  0  0  0  0  0  0  0  0  0  0
   48.6028    9.0369   16.9330 O   0  0  0  0  0  0  0  0  0  0  0  0
   48.7195    9.9771   17.9174 C   0  0  0  0  0  0  0  0  0  0  0  0
   48.8857   11.1708   17.7090 O   0  0  0  0  0  0  0  0  0  0  0  0
   48.6752    9.3123   19.2927 C   0  0  2  0  0  0  0  0  0  0  0  0
   47.4800    8.3489   19.4041 C   0  0  0  0  0  0  0  0  0  0  0  0
   47.5618    7.5447   20.5846 O   0  0  0  0  0  0  0  0  0  0  0  0
   48.6607   10.3103   20.4495 C   0  0  0  0  0  0  0  0  0  0  0  0
   47.6641   11.2961   20.5633 C   0  0  0  0  0  0  0  0  0  0  0  0
   47.6436   12.1588   21.6633 C   0  0  0  0  0  0  0  0  0  0  0  0
   48.6181   12.0545   22.6529 C   0  0  0  0  0  0  0  0  0  0  0  0
   49.6153   11.0880   22.5486 C   0  0  0  0  0  0  0  0  0  0  0  0
   49.6341   10.2158   21.4584 C   0  0  0  0  0  0  0  0  0  0  0  0
   48.8077    7.7287   12.1503 C   0  0  0  0  0  0  0  0  0  0  0  0
   48.9159    8.1161   13.5556 N   0  0  0  0  0  0  0  0  0  0  0  0
   50.2714    8.5698   13.9193 C   0  0  1  0  0  0  0  0  0  0  0  0
   50.3473   10.0189   13.4242 C   0  0  0  0  0  0  0  0  0  0  0  0
   48.8988   10.4891   13.3770 C   0  0  0  0  0  0  0  0  0  0  0  0
   48.0913    9.2929   13.8886 C   0  0  2  0  0  0  0  0  0  0  0  0
   47.9459    9.3547   15.4180 C   0  0  0  0  0  0  0  0  0  0  0  0
   49.0403    8.5874   16.1769 C   0  0  1  0  0  0  0  0  0  0  0  0
   50.3917    8.5014   15.4515 C   0  0  0  0  0  0  0  0  0  0  0  0
   49.2165    9.2323   17.4531 O   0  0  0  0  0  0  0  0  0  0  0  0
   49.4317    8.4287   18.5320 C   0  0  0  0  0  0  0  0  0  0  0  0
   49.5866    7.2107   18.4836 O   0  0  0  0  0  0  0  0  0  0  0  0
   49.4897    9.2456   19.8144 C   0  0  2  0  0  0  0  0  0  0  0  0
   49.6475    8.3301   21.0430 C   0  0  0  0  0  0  0  0  0  0  0  0
   48.6699    7.2923   21.1241 O   0  0  0  0  0  0  0  0  0  0  0  0
   48.3337   10.2296   19.9409 C   0  0  0  0  0  0  0  0  0  0  0  0
   47.0126    9.7964   20.1312 C   0  0  0  0  0  0  0  0  0  0  0  0
   45.9658   10.7173   20.2028 C   0  0  0  0  0  0  0  0  0  0  0  0
   46.2254   12.0803   20.0841 C   0  0  0  0  0  0  0  0  0  0  0  0
   47.5304   12.5253   19.8932 C   0  0  0  0  0  0  0  0  0  0  0  0
   48.5781   11.6079   19.8193 C   0  0  0  0  0  0  0  0  0  0  0  0
   48.9477    9.0853   16.8074 S   0  0  0  0  0  0  0  0  0  0  0  0
   49.9718    8.5536   15.9447 O   0  0  0  0  0  0  0  0  0  0  0  0
   48.3377   10.3669   16.0584 O   0  0  0  0  0  0  0  0  0  0  0  0
   49.6351    9.7602   18.0942 O   0  0  0  0  0  0  0  0  0  0  0  0
   47.8333    8.3025   17.2775 O   0  0  0  0  0  0  0  0  0  0  0  0
   48.5951    9.7885   16.7534 O   0  0  0  0  0  0  0  0  0  0  0  0
   48.5959    9.7830   16.7264 O   0  0  0  0  0  0  0  0  0  0  0  0
   49.7050    9.1573   10.9680 H   0  0  0  0  0  0  0  0  0  0  0  0
   48.1308    9.9673   11.0207 H   0  0  0  0  0  0  0  0  0  0  0  0
   49.5977   10.8930   11.2998 H   0  0  0  0  0  0  0  0  0  0  0  0
   47.5105    8.1658   12.6025 H   0  0  0  0  0  0  0  0  0  0  0  0
   49.3977    6.5437   13.8002 H   0  0  0  0  0  0  0  0  0  0  0  0
   49.4790    6.9560   12.0850 H   0  0  0  0  0  0  0  0  0  0  0  0
   51.3656    7.7410   14.1276 H   0  0  0  0  0  0  0  0  0  0  0  0
   51.3743    8.1396   12.4097 H   0  0  0  0  0  0  0  0  0  0  0  0
   51.0231   10.3323   13.2590 H   0  0  0  0  0  0  0  0  0  0  0  0
   50.7797    9.2092   15.7069 H   0  0  0  0  0  0  0  0  0  0  0  0
   50.2875   10.8470   15.3670 H   0  0  0  0  0  0  0  0  0  0  0  0
   48.0437   10.4467   15.5088 H   0  0  0  0  0  0  0  0  0  0  0  0
   47.8996    7.4892   15.1774 H   0  0  0  0  0  0  0  0  0  0  0  0
   46.8108    8.7678   14.7110 H   0  0  0  0  0  0  0  0  0  0  0  0
   49.6018    8.7237   19.3710 H   0  0  0  0  0  0  0  0  0  0  0  0
   47.4558    7.6494   18.5614 H   0  0  0  0  0  0  0  0  0  0  0  0
   46.5183    8.8765   19.4090 H   0  0  0  0  0  0  0  0  0  0  0  0
   47.4677    8.1512   21.3471 H   0  0  0  0  0  0  0  0  0  0  0  0
   46.8997   11.4090   19.7944 H   0  0  0  0  0  0  0  0  0  0  0  0
   46.8674   12.9159   21.7445 H   0  0  0  0  0  0  0  0  0  0  0  0
   48.6039   12.7302   23.5054 H   0  0  0  0  0  0  0  0  0  0  0  0
   50.3811   11.0045   23.3170 H   0  0  0  0  0  0  0  0  0  0  0  0
   50.4189    9.4625   21.4057 H   0  0  0  0  0  0  0  0  0  0  0  0
   49.4696    6.8801   11.9427 H   0  0  0  0  0  0  0  0  0  0  0  0
   49.0566    8.5337   11.4505 H   0  0  0  0  0  0  0  0  0  0  0  0
   47.7864    7.3924   11.9339 H   0  0  0  0  0  0  0  0  0  0  0  0
   51.0688    7.9625   13.4735 H   0  0  0  0  0  0  0  0  0  0  0  0
   50.7773   10.0585   12.4161 H   0  0  0  0  0  0  0  0  0  0  0  0
   50.9578   10.6608   14.0677 H   0  0  0  0  0  0  0  0  0  0  0  0
   48.6238   10.7202   12.3420 H   0  0  0  0  0  0  0  0  0  0  0  0
   48.7468   11.4000   13.9633 H   0  0  0  0  0  0  0  0  0  0  0  0
   47.0941    9.2661   13.4330 H   0  0  0  0  0  0  0  0  0  0  0  0
   47.8878   10.3939   15.7651 H   0  0  0  0  0  0  0  0  0  0  0  0
   46.9847    8.9060   15.7006 H   0  0  0  0  0  0  0  0  0  0  0  0
   48.6586    7.5665   16.3250 H   0  0  0  0  0  0  0  0  0  0  0  0
   51.0906    9.2576   15.8270 H   0  0  0  0  0  0  0  0  0  0  0  0
   50.8444    7.5403   15.7243 H   0  0  0  0  0  0  0  0  0  0  0  0
   50.4213    9.8276   19.7544 H   0  0  0  0  0  0  0  0  0  0  0  0
   49.5903    8.9147   21.9666 H   0  0  0  0  0  0  0  0  0  0  0  0
   50.6301    7.8443   21.0267 H   0  0  0  0  0  0  0  0  0  0  0  0
   48.8140    6.7223   20.3415 H   0  0  0  0  0  0  0  0  0  0  0  0
   46.7821    8.7367   20.2207 H   0  0  0  0  0  0  0  0  0  0  0  0
   44.9465   10.3686   20.3521 H   0  0  0  0  0  0  0  0  0  0  0  0
   45.4101   12.7948   20.1402 H   0  0  0  0  0  0  0  0  0  0  0  0
   47.7324   13.5880   19.7963 H   0  0  0  0  0  0  0  0  0  0  0  0
   49.5881   11.9818   19.6568 H   0  0  0  0  0  0  0  0  0  0  0  0
   48.2279   10.1307   15.1124 H   0  0  0  0  0  0  0  0  0  0  0  0
   48.9411   10.2355   18.5937 H   0  0  0  0  0  0  0  0  0  0  0  0
   49.0104    9.1600   16.1436 H   0  0  0  0  0  0  0  0  0  0  0  0
   48.9208    9.5235   17.6266 H   0  0  0  0  0  0  0  0  0  0  0  0
   49.0423    9.1246   16.1730 H   0  0  0  0  0  0  0  0  0  0  0  0
   48.8881    9.5644   17.6241 H   0  0  0  0  0  0  0  0  0  0  0  0
  1  2  1  0
  3  2  1  0
  3  4  1  0
  4  5  1  0
  6  5  1  0
  6  2  1  0
  6  7  1  0
  7  8  1  0
  8  9  1  0
  3  9  1  0
  8 10  1  0
 10 11  1  0
 11 12  2  0
 11 13  1  0
 13 14  1  0
 14 15  1  0
 13 16  1  0
 16 17  2  0
 17 18  1  0
 18 19  2  0
 19 20  1  0
 20 21  2  0
 16 21  1  0
 22 23  1  0
 24 23  1  0
 24 25  1  0
 25 26  1  0
 27 26  1  0
 27 23  1  0
 27 28  1  0
 28 29  1  0
 29 30  1  0
 24 30  1  0
 29 31  1  0
 31 32  1  0
 32 33  2  0
 32 34  1  0
 34 35  1  0
 35 36  1  0
 34 37  1  0
 37 38  2  0
 38 39  1  0
 39 40  2  0
 40 41  1  0
 41 42  2  0
 37 42  1  0
 43 44  2  0
 43 45  1  0
 43 46  1  0
 43 47  2  0
  1 50  1  0
  1 51  1  0
  1 52  1  0
  3 53  1  1
  4 54  1  0
  4 55  1  0
  5 56  1  0
  5 57  1  0
  6 58  1  6
  7 59  1  0
  7 60  1  0
  8 61  1  6
  9 62  1  0
  9 63  1  0
 13 64  1  6
 14 65  1  0
 14 66  1  0
 15 67  1  0
 17 68  1  0
 18 69  1  0
 19 70  1  0
 20 71  1  0
 21 72  1  0
 22 73  1  0
 22 74  1  0
 22 75  1  0
 24 76  1  6
 25 77  1  0
 25 78  1  0
 26 79  1  0
 26 80  1  0
 27 81  1  1
 28 82  1  0
 28 83  1  0
 29 84  1  1
 30 85  1  0
 30 86  1  0
 34 87  1  6
 35 88  1  0
 35 89  1  0
 36 90  1  0
 38 91  1  0
 39 92  1  0
 40 93  1  0
 41 94  1  0
 42 95  1  0
 45 96  1  0
 46 97  1  0
 48 98  1  0
 48 99  1  0
 49100  1  0
 49101  1  0
M  END
> <Uni-Dock RESULT> 
ENERGY=   -5.014  LOWER_BOUND=    5.366  UPPER_BOUND=    8.087
INTER + INTRA:          -5.014
INTER:                  -5.014
INTRA:                   0.000
UNBOUND:                 0.000

$$$$

     RDKit          3D

101102  0  0  0  0  0  0  0  0999 V2000
   47.2411    6.7647   11.8111 C   0  0  0  0  0  0  0  0  0  0  0  0
   47.7449    7.5523   12.9355 N   0  0  0  0  0  0  0  0  0  0  0  0
   49.1982    7.4067   13.1291 C   0  0  1  0  0  0  0  0  0  0  0  0
   49.8316    8.3212   12.0752 C   0  0  0  0  0  0  0  0  0  0  0  0
   48.7677    9.3745   11.7927 C   0  0  0  0  0  0  0  0  0  0  0  0
   47.6053    9.0043   12.7207 C   0  0  2  0  0  0  0  0  0  0  0  0
   47.7504    9.7129   14.0791 C   0  0  0  0  0  0  0  0  0  0  0  0
   48.5054    8.8795   15.1284 C   0  0  1  0  0  0  0  0  0  0  0  0
   49.5337    7.8926   14.5499 C   0  0  0  0  0  0  0  0  0  0  0  0
   49.2051    9.7440   16.0522 O   0  0  0  0  0  0  0  0  0  0  0  0
   48.4633   10.3174   17.0458 C   0  0  0  0  0  0  0  0  0  0  0  0
   47.2535   10.1809   17.1640 O   0  0  0  0  0  0  0  0  0  0  0  0
   49.3504   11.1904   17.9326 C   0  0  2  0  0  0  0  0  0  0  0  0
   50.6134   10.4291   18.3733 C   0  0  0  0  0  0  0  0  0  0  0  0
   51.5616   11.3008   18.9962 O   0  0  0  0  0  0  0  0  0  0  0  0
   48.6219   11.7573   19.1500 C   0  0  0  0  0  0  0  0  0  0  0  0
   47.9916   10.9222   20.0899 C   0  0  0  0  0  0  0  0  0  0  0  0
   47.3821   11.4663   21.2245 C   0  0  0  0  0  0  0  0  0  0  0  0
   47.3861   12.8440   21.4284 C   0  0  0  0  0  0  0  0  0  0  0  0
   47.9996   13.6830   20.5016 C   0  0  0  0  0  0  0  0  0  0  0  0
   48.6203   13.1447   19.3727 C   0  0  0  0  0  0  0  0  0  0  0  0
   49.5195    7.1791   11.8153 C   0  0  0  0  0  0  0  0  0  0  0  0
   49.3771    8.0654   12.9691 N   0  0  0  0  0  0  0  0  0  0  0  0
   48.6355    9.3000   12.6516 C   0  0  1  0  0  0  0  0  0  0  0  0
   47.1586    8.8891   12.6757 C   0  0  0  0  0  0  0  0  0  0  0  0
   47.1121    7.6618   13.5772 C   0  0  0  0  0  0  0  0  0  0  0  0
   48.5582    7.4752   14.0447 C   0  0  2  0  0  0  0  0  0  0  0  0
   48.8162    8.2748   15.3323 C   0  0  0  0  0  0  0  0  0  0  0  0
   49.3702    9.6871   15.0854 C   0  0  1  0  0  0  0  0  0  0  0  0
   48.9425   10.3265   13.7557 C   0  0  0  0  0  0  0  0  0  0  0  0
   48.9429   10.5184   16.1816 O   0  0  0  0  0  0  0  0  0  0  0  0
   49.8348   11.4342   16.6528 C   0  0  0  0  0  0  0  0  0  0  0  0
   50.9313   11.6721   16.1519 O   0  0  0  0  0  0  0  0  0  0  0  0
   49.2794   12.1555   17.8720 C   0  0  2  0  0  0  0  0  0  0  0  0
   50.3200   13.1293   18.4562 C   0  0  0  0  0  0  0  0  0  0  0  0
   51.5868   12.5303   18.7312 O   0  0  0  0  0  0  0  0  0  0  0  0
   48.6978   11.2024   18.9083 C   0  0  0  0  0  0  0  0  0  0  0  0
   49.5103   10.3262   19.6441 C   0  0  0  0  0  0  0  0  0  0  0  0
   48.9478    9.4337   20.5584 C   0  0  0  0  0  0  0  0  0  0  0  0
   47.5685    9.4048   20.7479 C   0  0  0  0  0  0  0  0  0  0  0  0
   46.7492   10.2665   20.0242 C   0  0  0  0  0  0  0  0  0  0  0  0
   47.3077   11.1580   19.1086 C   0  0  0  0  0  0  0  0  0  0  0  0
   49.0403    9.9347   15.7810 S   0  0  0  0  0  0  0  0  0  0  0  0
   49.0996   10.2862   14.3849 O   0  0  0  0  0  0  0  0  0  0  0  0
   47.8675    8.8495   15.9306 O   0  0  0  0  0  0  0  0  0  0  0  0
   48.4435   11.1723   16.6152 O   0  0  0  0  0  0  0  0  0  0  0  0
   50.1751    9.4318   16.5124 O   0  0  0  0  0  0  0  0  0  0  0  0
   48.4661    9.5402   16.1503 O   0  0  0  0  0  0  0  0  0  0  0  0
   48.4663    9.5253   16.1272 O   0  0  0  0  0  0  0  0  0  0  0  0
   47.7082    7.0047   10.8496 H   0  0  0  0  0  0  0  0  0  0  0  0
   47.3944    5.6978   12.0032 H   0  0  0  0  0  0  0  0  0  0  0  0
   46.1612    6.9134   11.7058 H   0  0  0  0  0  0  0  0  0  0  0  0
   49.5518    6.3760   13.0122 H   0  0  0  0  0  0  0  0  0  0  0  0
   50.7691    8.7800   12.4070 H   0  0  0  0  0  0  0  0  0  0  0  0
   50.0485    7.7614   11.1573 H   0  0  0  0  0  0  0  0  0  0  0  0
   49.1484   10.3877   11.9576 H   0  0  0  0  0  0  0  0  0  0  0  0
   48.4604    9.3118   10.7413 H   0  0  0  0  0  0  0  0  0  0  0  0
   46.6441    9.2856   12.2751 H   0  0  0  0  0  0  0  0  0  0  0  0
   48.2124   10.7024   13.9621 H   0  0  0  0  0  0  0  0  0  0  0  0
   46.7446    9.9142   14.4762 H   0  0  0  0  0  0  0  0  0  0  0  0
   47.7755    8.2768   15.6889 H   0  0  0  0  0  0  0  0  0  0  0  0
   50.5450    8.3153   14.5907 H   0  0  0  0  0  0  0  0  0  0  0  0
   49.5600    7.0229   15.2210 H   0  0  0  0  0  0  0  0  0  0  0  0
   49.6602   12.0389   17.3038 H   0  0  0  0  0  0  0  0  0  0  0  0
   51.1279    9.9854   17.5139 H   0  0  0  0  0  0  0  0  0  0  0  0
   50.3860    9.6104   19.0670 H   0  0  0  0  0  0  0  0  0  0  0  0
   51.1535   11.6139   19.8290 H   0  0  0  0  0  0  0  0  0  0  0  0
   47.9605    9.8422   19.9453 H   0  0  0  0  0  0  0  0  0  0  0  0
   46.9000   10.8126   21.9473 H   0  0  0  0  0  0  0  0  0  0  0  0
   46.9065   13.2661   22.3090 H   0  0  0  0  0  0  0  0  0  0  0  0
   48.0025   14.7603   20.6543 H   0  0  0  0  0  0  0  0  0  0  0  0
   49.1016   13.8219   18.6683 H   0  0  0  0  0  0  0  0  0  0  0  0
   50.0970    7.6773   11.0282 H   0  0  0  0  0  0  0  0  0  0  0  0
   48.5646    6.8580   11.3855 H   0  0  0  0  0  0  0  0  0  0  0  0
   50.0834    6.2828   12.1010 H   0  0  0  0  0  0  0  0  0  0  0  0
   48.9047    9.7329   11.6803 H   0  0  0  0  0  0  0  0  0  0  0  0
   46.8192    8.6162   11.6692 H   0  0  0  0  0  0  0  0  0  0  0  0
   46.4984    9.6823   13.0417 H   0  0  0  0  0  0  0  0  0  0  0  0
   46.7846    6.7935   12.9949 H   0  0  0  0  0  0  0  0  0  0  0  0
   46.4013    7.7867   14.3993 H   0  0  0  0  0  0  0  0  0  0  0  0
   48.7804    6.4169   14.2275 H   0  0  0  0  0  0  0  0  0  0  0  0
   47.9151    8.3144   15.9570 H   0  0  0  0  0  0  0  0  0  0  0  0
   49.5593    7.7401   15.9382 H   0  0  0  0  0  0  0  0  0  0  0  0
   50.4665    9.5966   15.0919 H   0  0  0  0  0  0  0  0  0  0  0  0
   48.1014   11.0143   13.9005 H   0  0  0  0  0  0  0  0  0  0  0  0
   49.7713   10.9625   13.4214 H   0  0  0  0  0  0  0  0  0  0  0  0
   48.4591   12.7852   17.4969 H   0  0  0  0  0  0  0  0  0  0  0  0
   49.9511   13.5713   19.3872 H   0  0  0  0  0  0  0  0  0  0  0  0
   50.5001   13.9527   17.7552 H   0  0  0  0  0  0  0  0  0  0  0  0
   51.9428   12.2402   17.8669 H   0  0  0  0  0  0  0  0  0  0  0  0
   50.5902   10.3243   19.5102 H   0  0  0  0  0  0  0  0  0  0  0  0
   49.5888    8.7609   21.1235 H   0  0  0  0  0  0  0  0  0  0  0  0
   47.1330    8.7102   21.4594 H   0  0  0  0  0  0  0  0  0  0  0  0
   45.6731   10.2411   20.1687 H   0  0  0  0  0  0  0  0  0  0  0  0
   46.6433   11.8125   18.5463 H   0  0  0  0  0  0  0  0  0  0  0  0
   47.9505    8.2208   15.1818 H   0  0  0  0  0  0  0  0  0  0  0  0
   48.2795   10.8691   17.5308 H   0  0  0  0  0  0  0  0  0  0  0  0
   48.8327    9.5753   15.2538 H   0  0  0  0  0  0  0  0  0  0  0  0
   48.7823   10.3550   16.5687 H   0  0  0  0  0  0  0  0  0  0  0  0
   48.8625    9.6223   15.2482 H   0  0  0  0  0  0  0  0  0  0  0  0
   48.7524   10.3229   16.5973 H   0  0  0  0  0  0  0  0  0  0  0  0
  1  2  1  0
  3  2  1  0
  3  4  1  0
  4  5  1  0
  6  5  1  0
  6  2  1  0
  6  7  1  0
  7  8  1  0
  8  9  1  0
  3  9  1  0
  8 10  1  0
 10 11  1  0
 11 12  2  0
 11 13  1  0
 13 14  1  0
 14 15  1  0
 13 16  1  0
 16 17  2  0
 17 18  1  0
 18 19  2  0
 19 20  1  0
 20 21  2  0
 16 21  1  0
 22 23  1  0
 24 23  1  0
 24 25  1  0
 25 26  1  0
 27 26  1  0
 27 23  1  0
 27 28  1  0
 28 29  1  0
 29 30  1  0
 24 30  1  0
 29 31  1  0
 31 32  1  0
 32 33  2  0
 32 34  1  0
 34 35  1  0
 35 36  1  0
 34 37  1  0
 37 38  2  0
 38 39  1  0
 39 40  2  0
 40 41  1  0
 41 42  2  0
 37 42  1  0
 43 44  2  0
 43 45  1  0
 43 46  1  0
 43 47  2  0
  1 50  1  0
  1 51  1  0
  1 52  1  0
  3 53  1  1
  4 54  1  0
  4 55  1  0
  5 56  1  0
  5 57  1  0
  6 58  1  6
  7 59  1  0
  7 60  1  0
  8 61  1  6
  9 62  1  0
  9 63  1  0
 13 64  1  6
 14 65  1  0
 14 66  1  0
 15 67  1  0
 17 68  1  0
 18 69  1  0
 19 70  1  0
 20 71  1  0
 21 72  1  0
 22 73  1  0
 22 74  1  0
 22 75  1  0
 24 76  1  6
 25 77  1  0
 25 78  1  0
 26 79  1  0
 26 80  1  0
 27 81  1  1
 28 82  1  0
 28 83  1  0
 29 84  1  1
 30 85  1  0
 30 86  1  0
 34 87  1  6
 35 88  1  0
 35 89  1  0
 36 90  1  0
 38 91  1  0
 39 92  1  0
 40 93  1  0
 41 94  1  0
 42 95  1  0
 45 96  1  0
 46 97  1  0
 48 98  1  0
 48 99  1  0
 49100  1  0
 49101  1  0
M  END
> <Uni-Dock RESULT> 
ENERGY=   -5.010  LOWER_BOUND=    4.797  UPPER_BOUND=    7.215
INTER + INTRA:          -5.010
INTER:                  -5.010
INTRA:                   0.000
UNBOUND:                 0.000

$$$$

     RDKit          3D

101102  0  0  0  0  0  0  0  0999 V2000
   52.1159    7.0188   19.7495 C   0  0  0  0  0  0  0  0  0  0  0  0
   51.3740    7.1372   18.4950 N   0  0  0  0  0  0  0  0  0  0  0  0
   51.7029    6.0699   17.5340 C   0  0  1  0  0  0  0  0  0  0  0  0
   50.9041    4.8509   18.0075 C   0  0  0  0  0  0  0  0  0  0  0  0
   49.7284    5.4388   18.7775 C   0  0  0  0  0  0  0  0  0  0  0  0
   49.9217    6.9558   18.6737 C   0  0  2  0  0  0  0  0  0  0  0  0
   49.2058    7.5088   17.4288 C   0  0  0  0  0  0  0  0  0  0  0  0
   50.1050    7.5758   16.1828 C   0  0  1  0  0  0  0  0  0  0  0  0
   51.2310    6.5285   16.1432 C   0  0  0  0  0  0  0  0  0  0  0  0
   49.3172    7.4120   14.9817 O   0  0  0  0  0  0  0  0  0  0  0  0
   48.6284    8.5059   14.5396 C   0  0  0  0  0  0  0  0  0  0  0  0
   48.6033    9.5815   15.1215 O   0  0  0  0  0  0  0  0  0  0  0  0
   47.8574    8.1667   13.2645 C   0  0  2  0  0  0  0  0  0  0  0  0
   48.7659    7.4683   12.2370 C   0  0  0  0  0  0  0  0  0  0  0  0
   48.0105    6.9318   11.1468 O   0  0  0  0  0  0  0  0  0  0  0  0
   47.1715    9.3754   12.6297 C   0  0  0  0  0  0  0  0  0  0  0  0
   47.8947   10.5186   12.2449 C   0  0  0  0  0  0  0  0  0  0  0  0
   47.2490   11.5861   11.6139 C   0  0  0  0  0  0  0  0  0  0  0  0
   45.8790   11.5295   11.3694 C   0  0  0  0  0  0  0  0  0  0  0  0
   45.1494   10.4068   11.7525 C   0  0  0  0  0  0  0  0  0  0  0  0
   45.7908    9.3326   12.3723 C   0  0  0  0  0  0  0  0  0  0  0  0
   52.0018    5.1006   18.4571 C   0  0  0  0  0  0  0  0  0  0  0  0
   51.0772    5.7539   17.5323 N   0  0  0  0  0  0  0  0  0  0  0  0
   49.7644    6.0357   18.1425 C   0  0  1  0  0  0  0  0  0  0  0  0
   49.9788    7.3113   18.9656 C   0  0  0  0  0  0  0  0  0  0  0  0
   51.1677    8.0016   18.3088 C   0  0  0  0  0  0  0  0  0  0  0  0
   51.5298    7.0980   17.1268 C   0  0  2  0  0  0  0  0  0  0  0  0
   50.7400    7.5077   15.8729 C   0  0  0  0  0  0  0  0  0  0  0  0
   49.4182    6.7438   15.6948 C   0  0  1  0  0  0  0  0  0  0  0  0
   48.7605    6.2753   17.0016 C   0  0  0  0  0  0  0  0  0  0  0  0
   48.5123    7.6056   14.9791 O   0  0  0  0  0  0  0  0  0  0  0  0
   47.7095    7.0253   14.0436 C   0  0  0  0  0  0  0  0  0  0  0  0
   47.6284    5.8169   13.8368 O   0  0  0  0  0  0  0  0  0  0  0  0
   46.8930    8.0741   13.3030 C   0  0  2  0  0  0  0  0  0  0  0  0
   46.0493    7.4278   12.1882 C   0  0  0  0  0  0  0  0  0  0  0  0
   46.8014    6.6141   11.2874 O   0  0  0  0  0  0  0  0  0  0  0  0
   47.7372    9.2455   12.8174 C   0  0  0  0  0  0  0  0  0  0  0  0
   48.6940    9.0954   11.8018 C   0  0  0  0  0  0  0  0  0  0  0  0
   49.4835   10.1757   11.4035 C   0  0  0  0  0  0  0  0  0  0  0  0
   49.3279   11.4172   12.0149 C   0  0  0  0  0  0  0  0  0  0  0  0
   48.3844   11.5813   13.0250 C   0  0  0  0  0  0  0  0  0  0  0  0
   47.5955   10.5038   13.4266 C   0  0  0  0  0  0  0  0  0  0  0  0
   49.1131    7.3728   15.2881 S   0  0  0  0  0  0  0  0  0  0  0  0
   48.8059    6.5025   16.3945 O   0  0  0  0  0  0  0  0  0  0  0  0
   50.0325    8.5507   15.8738 O   0  0  0  0  0  0  0  0  0  0  0  0
   47.7888    8.1782   14.8625 O   0  0  0  0  0  0  0  0  0  0  0  0
   49.7419    6.9105   14.0771 O   0  0  0  0  0  0  0  0  0  0  0  0
   49.4206    8.0982   15.3220 O   0  0  0  0  0  0  0  0  0  0  0  0
   49.4360    8.0869   15.3419 O   0  0  0  0  0  0  0  0  0  0  0  0
   51.9619    6.0697   20.2746 H   0  0  0  0  0  0  0  0  0  0  0  0
   53.1888    7.1297   19.5615 H   0  0  0  0  0  0  0  0  0  0  0  0
   51.8304    7.8285   20.4295 H   0  0  0  0  0  0  0  0  0  0  0  0
   52.7734    5.8395   17.4890 H   0  0  0  0  0  0  0  0  0  0  0  0
   50.5635    4.2108   17.1866 H   0  0  0  0  0  0  0  0  0  0  0  0
   51.5092    4.2285   18.6779 H   0  0  0  0  0  0  0  0  0  0  0  0
   48.7696    5.0954   18.3753 H   0  0  0  0  0  0  0  0  0  0  0  0
   49.7756    5.1118   19.8238 H   0  0  0  0  0  0  0  0  0  0  0  0
   49.5283    7.4620   19.5629 H   0  0  0  0  0  0  0  0  0  0  0  0
   48.2879    6.9442   17.2164 H   0  0  0  0  0  0  0  0  0  0  0  0
   48.8657    8.5317   17.6481 H   0  0  0  0  0  0  0  0  0  0  0  0
   50.5940    8.5608   16.1557 H   0  0  0  0  0  0  0  0  0  0  0  0
   50.9428    5.6699   15.5246 H   0  0  0  0  0  0  0  0  0  0  0  0
   52.0804    6.9870   15.6181 H   0  0  0  0  0  0  0  0  0  0  0  0
   47.0718    7.4585   13.5687 H   0  0  0  0  0  0  0  0  0  0  0  0
   49.2933    6.6201   12.6872 H   0  0  0  0  0  0  0  0  0  0  0  0
   49.5313    8.1414   11.8315 H   0  0  0  0  0  0  0  0  0  0  0  0
   47.6271    7.6936   10.6664 H   0  0  0  0  0  0  0  0  0  0  0  0
   48.9647   10.5944   12.4394 H   0  0  0  0  0  0  0  0  0  0  0  0
   47.8168   12.4645   11.3171 H   0  0  0  0  0  0  0  0  0  0  0  0
   45.3770   12.3634   10.8833 H   0  0  0  0  0  0  0  0  0  0  0  0
   44.0783   10.3590   11.5671 H   0  0  0  0  0  0  0  0  0  0  0  0
   45.1992    8.4623   12.6530 H   0  0  0  0  0  0  0  0  0  0  0  0
   51.6020    4.1268   18.7624 H   0  0  0  0  0  0  0  0  0  0  0  0
   52.2060    5.6836   19.3617 H   0  0  0  0  0  0  0  0  0  0  0  0
   52.9568    4.9059   17.9541 H   0  0  0  0  0  0  0  0  0  0  0  0
   49.3936    5.2202   18.7756 H   0  0  0  0  0  0  0  0  0  0  0  0
   50.2292    7.0613   20.0036 H   0  0  0  0  0  0  0  0  0  0  0  0
   49.0978    7.9613   18.9871 H   0  0  0  0  0  0  0  0  0  0  0  0
   51.9996    8.0507   19.0200 H   0  0  0  0  0  0  0  0  0  0  0  0
   50.9316    9.0286   18.0156 H   0  0  0  0  0  0  0  0  0  0  0  0
   52.6033    7.1460   16.9078 H   0  0  0  0  0  0  0  0  0  0  0  0
   50.5684    8.5912   15.8537 H   0  0  0  0  0  0  0  0  0  0  0  0
   51.3523    7.3008   14.9855 H   0  0  0  0  0  0  0  0  0  0  0  0
   49.6505    5.8585   15.0846 H   0  0  0  0  0  0  0  0  0  0  0  0
   47.9658    6.9631   17.3127 H   0  0  0  0  0  0  0  0  0  0  0  0
   48.2460    5.3313   16.7843 H   0  0  0  0  0  0  0  0  0  0  0  0
   46.1711    8.4618   14.0369 H   0  0  0  0  0  0  0  0  0  0  0  0
   45.5410    8.1966   11.5976 H   0  0  0  0  0  0  0  0  0  0  0  0
   45.2734    6.7889   12.6258 H   0  0  0  0  0  0  0  0  0  0  0  0
   47.1560    5.8746   11.8217 H   0  0  0  0  0  0  0  0  0  0  0  0
   48.8396    8.1345   11.3124 H   0  0  0  0  0  0  0  0  0  0  0  0
   50.2203   10.0465   10.6141 H   0  0  0  0  0  0  0  0  0  0  0  0
   49.9427   12.2560   11.7038 H   0  0  0  0  0  0  0  0  0  0  0  0
   48.2660   12.5484   13.5049 H   0  0  0  0  0  0  0  0  0  0  0  0
   46.8736   10.6560   14.2278 H   0  0  0  0  0  0  0  0  0  0  0  0
   50.6844    8.1409   16.4820 H   0  0  0  0  0  0  0  0  0  0  0  0
   48.0461    8.8606   14.2103 H   0  0  0  0  0  0  0  0  0  0  0  0
   49.4550    7.2926   15.8599 H   0  0  0  0  0  0  0  0  0  0  0  0
   48.6441    7.9733   14.7559 H   0  0  0  0  0  0  0  0  0  0  0  0
   49.4124    7.2594   15.8455 H   0  0  0  0  0  0  0  0  0  0  0  0
   48.6714    8.0177   14.7505 H   0  0  0  0  0  0  0  0  0  0  0  0
  1  2  1  0
  3  2  1  0
  3  4  1  0
  4  5  1  0
  6  5  1  0
  6  2  1  0
  6  7  1  0
  7  8  1  0
  8  9  1  0
  3  9  1  0
  8 10  1  0
 10 11  1  0
 11 12  2  0
 11 13  1  0
 13 14  1  0
 14 15  1  0
 13 16  1  0
 16 17  2  0
 17 18  1  0
 18 19  2  0
 19 20  1  0
 20 21  2  0
 16 21  1  0
 22 23  1  0
 24 23  1  0
 24 25  1  0
 25 26  1  0
 27 26  1  0
 27 23  1  0
 27 28  1  0
 28 29  1  0
 29 30  1  0
 24 30  1  0
 29 31  1  0
 31 32  1  0
 32 33  2  0
 32 34  1  0
 34 35  1  0
 35 36  1  0
 34 37  1  0
 37 38  2  0
 38 39  1  0
 39 40  2  0
 40 41  1  0
 41 42  2  0
 37 42  1  0
 43 44  2  0
 43 45  1  0
 43 46  1  0
 43 47  2  0
  1 50  1  0
  1 51  1  0
  1 52  1  0
  3 53  1  1
  4 54  1  0
  4 55  1  0
  5 56  1  0
  5 57  1  0
  6 58  1  6
  7 59  1  0
  7 60  1  0
  8 61  1  6
  9 62  1  0
  9 63  1  0
 13 64  1  6
 14 65  1  0
 14 66  1  0
 15 67  1  0
 17 68  1  0
 18 69  1  0
 19 70  1  0
 20 71  1  0
 21 72  1  0
 22 73  1  0
 22 74  1  0
 22 75  1  0
 24 76  1  6
 25 77  1  0
 25 78  1  0
 26 79  1  0
 26 80  1  0
 27 81  1  1
 28 82  1  0
 28 83  1  0
 29 84  1  1
 30 85  1  0
 30 86  1  0
 34 87  1  6
 35 88  1  0
 35 89  1  0
 36 90  1  0
 38 91  1  0
 39 92  1  0
 40 93  1  0
 41 94  1  0
 42 95  1  0
 45 96  1  0
 46 97  1  0
 48 98  1  0
 48 99  1  0
 49100  1  0
 49101  1  0
M  END
> <Uni-Dock RESULT> 
ENERGY=   -4.984  LOWER_BOUND=    4.761  UPPER_BOUND=    7.047
INTER + INTRA:          -4.984
INTER:                  -4.984
INTRA:                   0.000
UNBOUND:                 0.000

$$$$

     RDKit          3D

101102  0  0  0  0  0  0  0  0999 V2000
   46.2935    8.2496   13.2758 C   0  0  0  0  0  0  0  0  0  0  0  0
   47.6682    8.3220   12.7824 N   0  0  0  0  0  0  0  0  0  0  0  0
   48.3190    9.6072   13.0917 C   0  0  1  0  0  0  0  0  0  0  0  0
   48.7458    9.4918   14.5589 C   0  0  0  0  0  0  0  0  0  0  0  0
   48.8931    7.9946   14.7985 C   0  0  0  0  0  0  0  0  0  0  0  0
   48.5622    7.3550   13.4454 C   0  0  2  0  0  0  0  0  0  0  0  0
   49.8341    7.2046   12.5923 C   0  0  0  0  0  0  0  0  0  0  0  0
   50.0950    8.4022   11.6632 C   0  0  1  0  0  0  0  0  0  0  0  0
   49.5455    9.7455   12.1729 C   0  0  0  0  0  0  0  0  0  0  0  0
   51.5138    8.5697   11.4412 O   0  0  0  0  0  0  0  0  0  0  0  0
   52.0997    7.7384   10.5289 C   0  0  0  0  0  0  0  0  0  0  0  0
   51.5098    6.8445    9.9380 O   0  0  0  0  0  0  0  0  0  0  0  0
   53.5910    8.0496   10.4097 C   0  0  2  0  0  0  0  0  0  0  0  0
   53.8283    9.5576   10.2134 C   0  0  0  0  0  0  0  0  0  0  0  0
   55.2133    9.8927   10.3421 O   0  0  0  0  0  0  0  0  0  0  0  0
   54.2912    7.2555    9.3081 C   0  0  0  0  0  0  0  0  0  0  0  0
   53.8666    7.3163    7.9687 C   0  0  0  0  0  0  0  0  0  0  0  0
   54.5620    6.6237    6.9731 C   0  0  0  0  0  0  0  0  0  0  0  0
   55.6781    5.8584    7.3022 C   0  0  0  0  0  0  0  0  0  0  0  0
   56.1046    5.7831    8.6258 C   0  0  0  0  0  0  0  0  0  0  0  0
   55.4212    6.4821    9.6228 C   0  0  0  0  0  0  0  0  0  0  0  0
   47.6344    9.8659   14.2516 C   0  0  0  0  0  0  0  0  0  0  0  0
   48.8029    9.3592   13.5341 N   0  0  0  0  0  0  0  0  0  0  0  0
   49.2122    8.0166   13.9871 C   0  0  1  0  0  0  0  0  0  0  0  0
   48.2521    7.0531   13.2796 C   0  0  0  0  0  0  0  0  0  0  0  0
   47.7852    7.8095   12.0422 C   0  0  0  0  0  0  0  0  0  0  0  0
   48.5410    9.1400   12.0991 C   0  0  2  0  0  0  0  0  0  0  0  0
   49.8953    9.0221   11.3809 C   0  0  0  0  0  0  0  0  0  0  0  0
   51.0589    8.6388   12.3092 C   0  0  1  0  0  0  0  0  0  0  0  0
   50.6626    7.7900   13.5267 C   0  0  0  0  0  0  0  0  0  0  0  0
   52.0286    7.9259   11.5174 O   0  0  0  0  0  0  0  0  0  0  0  0
   53.3438    8.1746   11.7717 C   0  0  0  0  0  0  0  0  0  0  0  0
   53.7634    8.8794   12.6865 O   0  0  0  0  0  0  0  0  0  0  0  0
   54.2367    7.4329   10.7879 C   0  0  2  0  0  0  0  0  0  0  0  0
   55.7190    7.7807   11.0206 C   0  0  0  0  0  0  0  0  0  0  0  0
   55.9934    9.1820   11.0269 O   0  0  0  0  0  0  0  0  0  0  0  0
   53.7963    7.6107    9.3405 C   0  0  0  0  0  0  0  0  0  0  0  0
   53.8935    8.8480    8.6855 C   0  0  0  0  0  0  0  0  0  0  0  0
   53.4447    8.9942    7.3717 C   0  0  0  0  0  0  0  0  0  0  0  0
   52.8928    7.9079    6.6973 C   0  0  0  0  0  0  0  0  0  0  0  0
   52.7879    6.6746    7.3342 C   0  0  0  0  0  0  0  0  0  0  0  0
   53.2335    6.5257    8.6472 C   0  0  0  0  0  0  0  0  0  0  0  0
   51.4421    8.2990   11.6833 S   0  0  0  0  0  0  0  0  0  0  0  0
   51.0220    8.0046   13.0297 O   0  0  0  0  0  0  0  0  0  0  0  0
   50.1884    7.9817   10.7328 O   0  0  0  0  0  0  0  0  0  0  0  0
   52.5007    7.1890   11.2027 O   0  0  0  0  0  0  0  0  0  0  0  0
   51.9575    9.5841   11.2854 O   0  0  0  0  0  0  0  0  0  0  0  0
   51.0783    8.0953   11.0140 O   0  0  0  0  0  0  0  0  0  0  0  0
   51.0557    8.1016   11.0285 O   0  0  0  0  0  0  0  0  0  0  0  0
   46.1962    8.3947   14.3573 H   0  0  0  0  0  0  0  0  0  0  0  0
   45.6770    9.0048   12.7776 H   0  0  0  0  0  0  0  0  0  0  0  0
   45.8591    7.2754   13.0277 H   0  0  0  0  0  0  0  0  0  0  0  0
   47.6640   10.4733   12.9444 H   0  0  0  0  0  0  0  0  0  0  0  0
   49.6758   10.0252   14.7827 H   0  0  0  0  0  0  0  0  0  0  0  0
   47.9698    9.8961   15.2204 H   0  0  0  0  0  0  0  0  0  0  0  0
   49.8930    7.7405   15.1652 H   0  0  0  0  0  0  0  0  0  0  0  0
   48.1767    7.6741   15.5653 H   0  0  0  0  0  0  0  0  0  0  0  0
   48.1072    6.3670   13.5806 H   0  0  0  0  0  0  0  0  0  0  0  0
   50.7112    7.0018   13.2215 H   0  0  0  0  0  0  0  0  0  0  0  0
   49.7257    6.3113   11.9597 H   0  0  0  0  0  0  0  0  0  0  0  0
   49.6043    8.2105   10.6976 H   0  0  0  0  0  0  0  0  0  0  0  0
   50.3356   10.3301   12.6597 H   0  0  0  0  0  0  0  0  0  0  0  0
   49.2579   10.3329   11.2900 H   0  0  0  0  0  0  0  0  0  0  0  0
   54.0371    7.7521   11.3709 H   0  0  0  0  0  0  0  0  0  0  0  0
   53.3023   10.1434   10.9752 H   0  0  0  0  0  0  0  0  0  0  0  0
   53.4743    9.9119    9.2374 H   0  0  0  0  0  0  0  0  0  0  0  0
   55.6783    9.4656    9.5941 H   0  0  0  0  0  0  0  0  0  0  0  0
   52.9866    7.8951    7.6874 H   0  0  0  0  0  0  0  0  0  0  0  0
   54.2283    6.6791    5.9398 H   0  0  0  0  0  0  0  0  0  0  0  0
   56.2149    5.3156    6.5271 H   0  0  0  0  0  0  0  0  0  0  0  0
   56.9738    5.1838    8.8890 H   0  0  0  0  0  0  0  0  0  0  0  0
   55.7812    6.4144   10.6485 H   0  0  0  0  0  0  0  0  0  0  0  0
   47.8650    9.9707   15.3180 H   0  0  0  0  0  0  0  0  0  0  0  0
   46.7481    9.2296   14.1558 H   0  0  0  0  0  0  0  0  0  0  0  0
   47.3769   10.8669   13.8847 H   0  0  0  0  0  0  0  0  0  0  0  0
   49.1616    7.8893   15.0754 H   0  0  0  0  0  0  0  0  0  0  0  0
   47.3894    6.8315   13.9195 H   0  0  0  0  0  0  0  0  0  0  0  0
   48.7193    6.0987   13.0153 H   0  0  0  0  0  0  0  0  0  0  0  0
   46.7051    7.9815   12.1056 H   0  0  0  0  0  0  0  0  0  0  0  0
   47.9693    7.2429   11.1247 H   0  0  0  0  0  0  0  0  0  0  0  0
   47.9574    9.9454   11.6372 H   0  0  0  0  0  0  0  0  0  0  0  0
   49.8307    8.3297   10.5323 H   0  0  0  0  0  0  0  0  0  0  0  0
   50.1462    9.9941   10.9366 H   0  0  0  0  0  0  0  0  0  0  0  0
   51.4936    9.5830   12.6691 H   0  0  0  0  0  0  0  0  0  0  0  0
   50.8586    6.7266   13.3477 H   0  0  0  0  0  0  0  0  0  0  0  0
   51.3370    8.0661   14.3465 H   0  0  0  0  0  0  0  0  0  0  0  0
   54.1369    6.3670   11.0409 H   0  0  0  0  0  0  0  0  0  0  0  0
   56.3460    7.3217   10.2497 H   0  0  0  0  0  0  0  0  0  0  0  0
   56.0512    7.3846   11.9873 H   0  0  0  0  0  0  0  0  0  0  0  0
   55.5057    9.5504   11.7914 H   0  0  0  0  0  0  0  0  0  0  0  0
   54.3150    9.7139    9.1921 H   0  0  0  0  0  0  0  0  0  0  0  0
   53.5272    9.9581    6.8749 H   0  0  0  0  0  0  0  0  0  0  0  0
   52.5445    8.0235    5.6758 H   0  0  0  0  0  0  0  0  0  0  0  0
   52.3536    5.8285    6.8099 H   0  0  0  0  0  0  0  0  0  0  0  0
   53.1283    5.5534    9.1265 H   0  0  0  0  0  0  0  0  0  0  0  0
   49.3866    8.3337   11.1755 H   0  0  0  0  0  0  0  0  0  0  0  0
   52.6660    7.3219   10.2476 H   0  0  0  0  0  0  0  0  0  0  0  0
   50.8178    8.2827   11.9286 H   0  0  0  0  0  0  0  0  0  0  0  0
   52.0312    7.9281   11.0675 H   0  0  0  0  0  0  0  0  0  0  0  0
   50.8630    8.2793   11.9614 H   0  0  0  0  0  0  0  0  0  0  0  0
   52.0085    7.9251   11.0204 H   0  0  0  0  0  0  0  0  0  0  0  0
  1  2  1  0
  3  2  1  0
  3  4  1  0
  4  5  1  0
  6  5  1  0
  6  2  1  0
  6  7  1  0
  7  8  1  0
  8  9  1  0
  3  9  1  0
  8 10  1  0
 10 11  1  0
 11 12  2  0
 11 13  1  0
 13 14  1  0
 14 15  1  0
 13 16  1  0
 16 17  2  0
 17 18  1  0
 18 19  2  0
 19 20  1  0
 20 21  2  0
 16 21  1  0
 22 23  1  0
 24 23  1  0
 24 25  1  0
 25 26  1  0
 27 26  1  0
 27 23  1  0
 27 28  1  0
 28 29  1  0
 29 30  1  0
 24 30  1  0
 29 31  1  0
 31 32  1  0
 32 33  2  0
 32 34  1  0
 34 35  1  0
 35 36  1  0
 34 37  1  0
 37 38  2  0
 38 39  1  0
 39 40  2  0
 40 41  1  0
 41 42  2  0
 37 42  1  0
 43 44  2  0
 43 45  1  0
 43 46  1  0
 43 47  2  0
  1 50  1  0
  1 51  1  0
  1 52  1  0
  3 53  1  1
  4 54  1  0
  4 55  1  0
  5 56  1  0
  5 57  1  0
  6 58  1  6
  7 59  1  0
  7 60  1  0
  8 61  1  6
  9 62  1  0
  9 63  1  0
 13 64  1  6
 14 65  1  0
 14 66  1  0
 15 67  1  0
 17 68  1  0
 18 69  1  0
 19 70  1  0
 20 71  1  0
 21 72  1  0
 22 73  1  0
 22 74  1  0
 22 75  1  0
 24 76  1  6
 25 77  1  0
 25 78  1  0
 26 79  1  0
 26 80  1  0
 27 81  1  1
 28 82  1  0
 28 83  1  0
 29 84  1  1
 30 85  1  0
 30 86  1  0
 34 87  1  6
 35 88  1  0
 35 89  1  0
 36 90  1  0
 38 91  1  0
 39 92  1  0
 40 93  1  0
 41 94  1  0
 42 95  1  0
 45 96  1  0
 46 97  1  0
 48 98  1  0
 48 99  1  0
 49100  1  0
 49101  1  0
M  END
> <Uni-Dock RESULT> 
ENERGY=   -4.851  LOWER_BOUND=    2.083  UPPER_BOUND=    6.521
INTER + INTRA:          -4.851
INTER:                  -4.851
INTRA:                   0.000
UNBOUND:                 0.000

$$$$
