
     RDKit          3D

101102  0  0  0  0  0  0  0  0999 V2000
   49.9167   13.1689   20.6115 C   0  0  0  0  0  0  0  0  0  0  0  0
   49.4553   11.7846   20.5227 N   0  0  0  0  0  0  0  0  0  0  0  0
   49.8292   10.9791   21.7012 C   0  0  1  0  0  0  0  0  0  0  0  0
   48.8146   11.3719   22.7805 C   0  0  0  0  0  0  0  0  0  0  0  0
   47.5839   11.8146   22.0008 C   0  0  0  0  0  0  0  0  0  0  0  0
   47.9860   11.6718   20.5272 C   0  0  2  0  0  0  0  0  0  0  0  0
   47.6215   10.2768   19.9898 C   0  0  0  0  0  0  0  0  0  0  0  0
   48.7532    9.2447   20.1300 C   0  0  1  0  0  0  0  0  0  0  0  0
   49.6829    9.4914   21.3308 C   0  0  0  0  0  0  0  0  0  0  0  0
   48.1429    7.9387   20.2135 O   0  0  0  0  0  0  0  0  0  0  0  0
   48.9396    6.8691   19.9219 C   0  0  0  0  0  0  0  0  0  0  0  0
   50.1187    6.9400   19.6010 O   0  0  0  0  0  0  0  0  0  0  0  0
   48.1515    5.5773   20.0853 C   0  0  2  0  0  0  0  0  0  0  0  0
   48.5911    4.9027   21.3910 C   0  0  0  0  0  0  0  0  0  0  0  0
   47.9403    5.4948   22.5173 O   0  0  0  0  0  0  0  0  0  0  0  0
   48.2981    4.6577   18.8810 C   0  0  0  0  0  0  0  0  0  0  0  0
   47.1981    4.4285   18.0391 C   0  0  0  0  0  0  0  0  0  0  0  0
   47.3118    3.5846   16.9322 C   0  0  0  0  0  0  0  0  0  0  0  0
   48.5253    2.9615   16.6511 C   0  0  0  0  0  0  0  0  0  0  0  0
   49.6279    3.1848   17.4721 C   0  0  0  0  0  0  0  0  0  0  0  0
   49.5164    4.0282   18.5789 C   0  0  0  0  0  0  0  0  0  0  0  0
   48.2291    3.1910   19.2360 C   0  0  0  0  0  0  0  0  0  0  0  0
   48.1032    4.6287   19.4632 N   0  0  0  0  0  0  0  0  0  0  0  0
   49.2633    5.2008   20.1725 C   0  0  1  0  0  0  0  0  0  0  0  0
   50.3398    5.3566   19.0931 C   0  0  0  0  0  0  0  0  0  0  0  0
   49.5604    5.4936   17.7909 C   0  0  0  0  0  0  0  0  0  0  0  0
   48.0887    5.4090   18.2122 C   0  0  2  0  0  0  0  0  0  0  0  0
   47.5314    6.8088   18.5324 C   0  0  0  0  0  0  0  0  0  0  0  0
   47.6301    7.1832   20.0204 C   0  0  1  0  0  0  0  0  0  0  0  0
   48.8462    6.5721   20.7360 C   0  0  0  0  0  0  0  0  0  0  0  0
   47.6735    8.6219   20.1095 O   0  0  0  0  0  0  0  0  0  0  0  0
   47.2456    9.1749   21.2793 C   0  0  0  0  0  0  0  0  0  0  0  0
   46.8310    8.5426   22.2460 O   0  0  0  0  0  0  0  0  0  0  0  0
   47.4106   10.6864   21.2828 C   0  0  2  0  0  0  0  0  0  0  0  0
   46.8067   11.3258   20.0251 C   0  0  0  0  0  0  0  0  0  0  0  0
   45.3793   11.2992   20.0659 O   0  0  0  0  0  0  0  0  0  0  0  0
   48.8624   11.0779   21.5135 C   0  0  0  0  0  0  0  0  0  0  0  0
   49.8241   10.9860   20.4939 C   0  0  0  0  0  0  0  0  0  0  0  0
   51.1540   11.3360   20.7366 C   0  0  0  0  0  0  0  0  0  0  0  0
   51.5418   11.7775   21.9997 C   0  0  0  0  0  0  0  0  0  0  0  0
   50.6014   11.8617   23.0242 C   0  0  0  0  0  0  0  0  0  0  0  0
   49.2710   11.5120   22.7848 C   0  0  0  0  0  0  0  0  0  0  0  0
   48.8281    8.2021   19.7976 S   0  0  0  0  0  0  0  0  0  0  0  0
   47.9994    9.0911   19.0239 O   0  0  0  0  0  0  0  0  0  0  0  0
   49.0734    8.9254   21.2079 O   0  0  0  0  0  0  0  0  0  0  0  0
   47.9409    6.9432   20.2477 O   0  0  0  0  0  0  0  0  0  0  0  0
   50.0862    7.6718   19.3358 O   0  0  0  0  0  0  0  0  0  0  0  0
   48.7732    8.1880   19.8415 O   0  0  0  0  0  0  0  0  0  0  0  0
   48.7733    8.1887   19.8416 O   0  0  0  0  0  0  0  0  0  0  0  0
   51.0111   13.1981   20.6229 H   0  0  0  0  0  0  0  0  0  0  0  0
   49.5959   13.7265   19.7245 H   0  0  0  0  0  0  0  0  0  0  0  0
   49.5537   13.7029   21.4959 H   0  0  0  0  0  0  0  0  0  0  0  0
   50.8543   11.1623   22.0419 H   0  0  0  0  0  0  0  0  0  0  0  0
   48.5834   10.5574   23.4743 H   0  0  0  0  0  0  0  0  0  0  0  0
   49.1904   12.2110   23.3776 H   0  0  0  0  0  0  0  0  0  0  0  0
   46.7032   11.2219   22.2675 H   0  0  0  0  0  0  0  0  0  0  0  0
   47.3575   12.8611   22.2377 H   0  0  0  0  0  0  0  0  0  0  0  0
   47.4892   12.4310   19.9109 H   0  0  0  0  0  0  0  0  0  0  0  0
   47.3905   10.3610   18.9182 H   0  0  0  0  0  0  0  0  0  0  0  0
   46.6977    9.9055   20.4511 H   0  0  0  0  0  0  0  0  0  0  0  0
   49.3489    9.2934   19.2068 H   0  0  0  0  0  0  0  0  0  0  0  0
   49.3620    8.8963   22.1949 H   0  0  0  0  0  0  0  0  0  0  0  0
   50.6757    9.1019   21.0656 H   0  0  0  0  0  0  0  0  0  0  0  0
   47.0904    5.8478   20.1774 H   0  0  0  0  0  0  0  0  0  0  0  0
   49.6717    4.9862   21.5518 H   0  0  0  0  0  0  0  0  0  0  0  0
   48.3362    3.8359   21.3986 H   0  0  0  0  0  0  0  0  0  0  0  0
   47.0042    5.2302   22.4896 H   0  0  0  0  0  0  0  0  0  0  0  0
   46.2410    4.9064   18.2345 H   0  0  0  0  0  0  0  0  0  0  0  0
   46.4531    3.4153   16.2869 H   0  0  0  0  0  0  0  0  0  0  0  0
   48.6150    2.3082   15.7869 H   0  0  0  0  0  0  0  0  0  0  0  0
   50.5787    2.7088   17.2475 H   0  0  0  0  0  0  0  0  0  0  0  0
   50.3989    4.2030   19.1934 H   0  0  0  0  0  0  0  0  0  0  0  0
   48.2709    2.6637   20.1951 H   0  0  0  0  0  0  0  0  0  0  0  0
   49.1129    2.9073   18.6562 H   0  0  0  0  0  0  0  0  0  0  0  0
   47.3447    2.8170   18.7093 H   0  0  0  0  0  0  0  0  0  0  0  0
   49.6224    4.5729   20.9964 H   0  0  0  0  0  0  0  0  0  0  0  0
   51.0019    6.2126   19.2599 H   0  0  0  0  0  0  0  0  0  0  0  0
   50.9700    4.4606   19.0474 H   0  0  0  0  0  0  0  0  0  0  0  0
   49.8068    6.4234   17.2671 H   0  0  0  0  0  0  0  0  0  0  0  0
   49.8192    4.6650   17.1197 H   0  0  0  0  0  0  0  0  0  0  0  0
   47.4786    4.9538   17.4229 H   0  0  0  0  0  0  0  0  0  0  0  0
   46.4671    6.8370   18.2607 H   0  0  0  0  0  0  0  0  0  0  0  0
   48.0049    7.5764   17.9063 H   0  0  0  0  0  0  0  0  0  0  0  0
   46.7120    6.8202   20.5058 H   0  0  0  0  0  0  0  0  0  0  0  0
   48.5765    6.4478   21.7939 H   0  0  0  0  0  0  0  0  0  0  0  0
   49.6893    7.2746   20.7361 H   0  0  0  0  0  0  0  0  0  0  0  0
   46.8124   11.0431   22.1339 H   0  0  0  0  0  0  0  0  0  0  0  0
   47.1183   10.8222   19.1043 H   0  0  0  0  0  0  0  0  0  0  0  0
   47.1062   12.3768   19.9364 H   0  0  0  0  0  0  0  0  0  0  0  0
   45.0875   11.9243   20.7516 H   0  0  0  0  0  0  0  0  0  0  0  0
   49.5527   10.6324   19.5004 H   0  0  0  0  0  0  0  0  0  0  0  0
   51.8901   11.2572   19.9403 H   0  0  0  0  0  0  0  0  0  0  0  0
   52.5775   12.0483   22.1883 H   0  0  0  0  0  0  0  0  0  0  0  0
   50.9042   12.1969   24.0134 H   0  0  0  0  0  0  0  0  0  0  0  0
   48.5563   11.5761   23.6040 H   0  0  0  0  0  0  0  0  0  0  0  0
   48.3294    9.5491   21.3442 H   0  0  0  0  0  0  0  0  0  0  0  0
   48.5566    6.2528   20.5678 H   0  0  0  0  0  0  0  0  0  0  0  0
   48.5234    7.3197   20.1919 H   0  0  0  0  0  0  0  0  0  0  0  0
   48.7666    8.7646   20.6201 H   0  0  0  0  0  0  0  0  0  0  0  0
   48.5237    7.3200   20.1907 H   0  0  0  0  0  0  0  0  0  0  0  0
   48.7661    8.7636   20.6214 H   0  0  0  0  0  0  0  0  0  0  0  0
  1  2  1  0
  3  2  1  0
  3  4  1  0
  4  5  1  0
  6  5  1  0
  6  2  1  0
  6  7  1  0
  7  8  1  0
  8  9  1  0
  3  9  1  0
  8 10  1  0
 10 11  1  0
 11 12  2  0
 11 13  1  0
 13 14  1  0
 14 15  1  0
 13 16  1  0
 16 17  2  0
 17 18  1  0
 18 19  2  0
 19 20  1  0
 20 21  2  0
 16 21  1  0
 22 23  1  0
 24 23  1  0
 24 25  1  0
 25 26  1  0
 27 26  1  0
 27 23  1  0
 27 28  1  0
 28 29  1  0
 29 30  1  0
 24 30  1  0
 29 31  1  0
 31 32  1  0
 32 33  2  0
 32 34  1  0
 34 35  1  0
 35 36  1  0
 34 37  1  0
 37 38  2  0
 38 39  1  0
 39 40  2  0
 40 41  1  0
 41 42  2  0
 37 42  1  0
 43 44  2  0
 43 45  1  0
 43 46  1  0
 43 47  2  0
  1 50  1  0
  1 51  1  0
  1 52  1  0
  3 53  1  6
  4 54  1  0
  4 55  1  0
  5 56  1  0
  5 57  1  0
  6 58  1  1
  7 59  1  0
  7 60  1  0
  8 61  1  6
  9 62  1  0
  9 63  1  0
 13 64  1  1
 14 65  1  0
 14 66  1  0
 15 67  1  0
 17 68  1  0
 18 69  1  0
 19 70  1  0
 20 71  1  0
 21 72  1  0
 22 73  1  0
 22 74  1  0
 22 75  1  0
 24 76  1  6
 25 77  1  0
 25 78  1  0
 26 79  1  0
 26 80  1  0
 27 81  1  1
 28 82  1  0
 28 83  1  0
 29 84  1  1
 30 85  1  0
 30 86  1  0
 34 87  1  1
 35 88  1  0
 35 89  1  0
 36 90  1  0
 38 91  1  0
 39 92  1  0
 40 93  1  0
 41 94  1  0
 42 95  1  0
 45 96  1  0
 46 97  1  0
 48 98  1  0
 48 99  1  0
 49100  1  0
 49101  1  0
M  END
> <Uni-Dock RESULT> 
ENERGY=   -5.515  LOWER_BOUND=    0.000  UPPER_BOUND=    0.000
INTER + INTRA:          -5.515
INTER:                  -5.515
INTRA:                   0.000
UNBOUND:                 0.000

$$$$

     RDKit          3D

101102  0  0  0  0  0  0  0  0999 V2000
   48.0292   10.0988   12.6803 C   0  0  0  0  0  0  0  0  0  0  0  0
   48.4802    9.3492   13.8516 N   0  0  0  0  0  0  0  0  0  0  0  0
   48.5734    7.8978   13.6021 C   0  0  1  0  0  0  0  0  0  0  0  0
   49.8872    7.7171   12.8342 C   0  0  0  0  0  0  0  0  0  0  0  0
   50.7489    8.8924   13.2754 C   0  0  0  0  0  0  0  0  0  0  0  0
   49.8606    9.6824   14.2451 C   0  0  2  0  0  0  0  0  0  0  0  0
   50.0639    9.2026   15.6930 C   0  0  0  0  0  0  0  0  0  0  0  0
   49.0918    8.0891   16.1179 C   0  0  1  0  0  0  0  0  0  0  0  0
   48.6344    7.1805   14.9636 C   0  0  0  0  0  0  0  0  0  0  0  0
   49.7396    7.3175   17.1523 O   0  0  0  0  0  0  0  0  0  0  0  0
   48.9308    6.5655   17.9549 C   0  0  0  0  0  0  0  0  0  0  0  0
   47.7123    6.5001   17.8582 O   0  0  0  0  0  0  0  0  0  0  0  0
   49.7727    5.7994   18.9653 C   0  0  2  0  0  0  0  0  0  0  0  0
   49.8442    4.3320   18.5238 C   0  0  0  0  0  0  0  0  0  0  0  0
   50.8270    4.1525   17.5016 O   0  0  0  0  0  0  0  0  0  0  0  0
   49.2462    5.9512   20.3857 C   0  0  0  0  0  0  0  0  0  0  0  0
   49.9883    6.6760   21.3319 C   0  0  0  0  0  0  0  0  0  0  0  0
   49.5240    6.8224   22.6409 C   0  0  0  0  0  0  0  0  0  0  0  0
   48.3127    6.2492   23.0203 C   0  0  0  0  0  0  0  0  0  0  0  0
   47.5611    5.5339   22.0912 C   0  0  0  0  0  0  0  0  0  0  0  0
   48.0232    5.3866   20.7822 C   0  0  0  0  0  0  0  0  0  0  0  0
   49.4889    4.7343   21.2471 C   0  0  0  0  0  0  0  0  0  0  0  0
   49.6340    5.5913   20.0729 N   0  0  0  0  0  0  0  0  0  0  0  0
   48.7767    5.1722   18.9478 C   0  0  1  0  0  0  0  0  0  0  0  0
   47.3849    5.7080   19.3002 C   0  0  0  0  0  0  0  0  0  0  0  0
   47.6520    6.9036   20.2064 C   0  0  0  0  0  0  0  0  0  0  0  0
   49.1800    6.9737   20.3108 C   0  0  2  0  0  0  0  0  0  0  0  0
   49.7629    7.8631   19.1964 C   0  0  0  0  0  0  0  0  0  0  0  0
   50.1792    7.0799   17.9406 C   0  0  1  0  0  0  0  0  0  0  0  0
   49.3149    5.8378   17.6674 C   0  0  0  0  0  0  0  0  0  0  0  0
   50.1175    7.9837   16.8185 O   0  0  0  0  0  0  0  0  0  0  0  0
   50.9083    7.6855   15.7494 C   0  0  0  0  0  0  0  0  0  0  0  0
   51.6587    6.7168   15.6780 O   0  0  0  0  0  0  0  0  0  0  0  0
   50.7001    8.6626   14.6032 C   0  0  2  0  0  0  0  0  0  0  0  0
   50.8004   10.1196   15.0748 C   0  0  0  0  0  0  0  0  0  0  0  0
   52.1513   10.4750   15.3727 O   0  0  0  0  0  0  0  0  0  0  0  0
   49.4085    8.3638   13.8572 C   0  0  0  0  0  0  0  0  0  0  0  0
   48.1541    8.7231   14.3772 C   0  0  0  0  0  0  0  0  0  0  0  0
   46.9822    8.4222   13.6799 C   0  0  0  0  0  0  0  0  0  0  0  0
   47.0466    7.7559   12.4582 C   0  0  0  0  0  0  0  0  0  0  0  0
   48.2832    7.3821   11.9361 C   0  0  0  0  0  0  0  0  0  0  0  0
   49.4566    7.6810   12.6313 C   0  0  0  0  0  0  0  0  0  0  0  0
   48.9430    7.5860   17.0812 S   0  0  0  0  0  0  0  0  0  0  0  0
   49.4143    8.9471   17.1053 O   0  0  0  0  0  0  0  0  0  0  0  0
   49.1822    7.0510   15.5882 O   0  0  0  0  0  0  0  0  0  0  0  0
   49.9769    6.6754   17.9036 O   0  0  0  0  0  0  0  0  0  0  0  0
   47.6230    7.1858   17.4995 O   0  0  0  0  0  0  0  0  0  0  0  0
   49.0103    7.5620   17.0749 O   0  0  0  0  0  0  0  0  0  0  0  0
   49.0101    7.5624   17.0743 O   0  0  0  0  0  0  0  0  0  0  0  0
   47.0082    9.8033   12.4179 H   0  0  0  0  0  0  0  0  0  0  0  0
   47.9977   11.1692   12.9123 H   0  0  0  0  0  0  0  0  0  0  0  0
   48.6599    9.9631   11.7954 H   0  0  0  0  0  0  0  0  0  0  0  0
   47.7271    7.5029   13.0290 H   0  0  0  0  0  0  0  0  0  0  0  0
   50.3768    6.7585   13.0334 H   0  0  0  0  0  0  0  0  0  0  0  0
   49.7147    7.7758   11.7532 H   0  0  0  0  0  0  0  0  0  0  0  0
   51.6882    8.5566   13.7261 H   0  0  0  0  0  0  0  0  0  0  0  0
   51.0058    9.5055   12.4033 H   0  0  0  0  0  0  0  0  0  0  0  0
   50.0814   10.7555   14.1920 H   0  0  0  0  0  0  0  0  0  0  0  0
   49.9007   10.0518   16.3720 H   0  0  0  0  0  0  0  0  0  0  0  0
   51.1036    8.8972   15.8649 H   0  0  0  0  0  0  0  0  0  0  0  0
   48.2086    8.5812   16.5507 H   0  0  0  0  0  0  0  0  0  0  0  0
   49.2597    6.2804   14.9111 H   0  0  0  0  0  0  0  0  0  0  0  0
   47.6266    6.8171   15.2084 H   0  0  0  0  0  0  0  0  0  0  0  0
   50.7880    6.2186   18.9341 H   0  0  0  0  0  0  0  0  0  0  0  0
   48.8866    3.9759   18.1280 H   0  0  0  0  0  0  0  0  0  0  0  0
   50.1242    3.6744   19.3558 H   0  0  0  0  0  0  0  0  0  0  0  0
   51.7028    4.2548   17.9135 H   0  0  0  0  0  0  0  0  0  0  0  0
   50.9349    7.1367   21.0596 H   0  0  0  0  0  0  0  0  0  0  0  0
   50.1071    7.3866   23.3648 H   0  0  0  0  0  0  0  0  0  0  0  0
   47.9492    6.3670   24.0379 H   0  0  0  0  0  0  0  0  0  0  0  0
   46.6099    5.0961   22.3823 H   0  0  0  0  0  0  0  0  0  0  0  0
   47.4068    4.8404   20.0690 H   0  0  0  0  0  0  0  0  0  0  0  0
   49.8056    3.7139   21.0062 H   0  0  0  0  0  0  0  0  0  0  0  0
   48.4687    4.6868   21.6406 H   0  0  0  0  0  0  0  0  0  0  0  0
   50.1451    5.0864   22.0502 H   0  0  0  0  0  0  0  0  0  0  0  0
   48.7528    4.0862   18.8001 H   0  0  0  0  0  0  0  0  0  0  0  0
   46.7927    5.9897   18.4233 H   0  0  0  0  0  0  0  0  0  0  0  0
   46.8119    4.9537   19.8523 H   0  0  0  0  0  0  0  0  0  0  0  0
   47.2037    7.8208   19.8098 H   0  0  0  0  0  0  0  0  0  0  0  0
   47.2045    6.7238   21.1921 H   0  0  0  0  0  0  0  0  0  0  0  0
   49.4904    7.3718   21.2843 H   0  0  0  0  0  0  0  0  0  0  0  0
   50.6623    8.3657   19.5784 H   0  0  0  0  0  0  0  0  0  0  0  0
   49.0721    8.6759   18.9363 H   0  0  0  0  0  0  0  0  0  0  0  0
   51.2219    6.7621   18.0897 H   0  0  0  0  0  0  0  0  0  0  0  0
   49.9431    5.1114   17.1336 H   0  0  0  0  0  0  0  0  0  0  0  0
   48.5004    6.0776   16.9720 H   0  0  0  0  0  0  0  0  0  0  0  0
   51.5456    8.4953   13.9201 H   0  0  0  0  0  0  0  0  0  0  0  0
   50.2040   10.3151   15.9718 H   0  0  0  0  0  0  0  0  0  0  0  0
   50.4507   10.8090   14.2971 H   0  0  0  0  0  0  0  0  0  0  0  0
   52.6422   10.5160   14.5341 H   0  0  0  0  0  0  0  0  0  0  0  0
   48.0722    9.2334   15.3356 H   0  0  0  0  0  0  0  0  0  0  0  0
   46.0168    8.7022   14.0943 H   0  0  0  0  0  0  0  0  0  0  0  0
   46.1339    7.5207   11.9167 H   0  0  0  0  0  0  0  0  0  0  0  0
   48.3348    6.8533   10.9874 H   0  0  0  0  0  0  0  0  0  0  0  0
   50.4105    7.3695   12.2082 H   0  0  0  0  0  0  0  0  0  0  0  0
   49.9035    7.5908   15.2017 H   0  0  0  0  0  0  0  0  0  0  0  0
   49.5384    5.8166   18.0720 H   0  0  0  0  0  0  0  0  0  0  0  0
   49.3986    6.8051   17.5390 H   0  0  0  0  0  0  0  0  0  0  0  0
   49.2688    7.4269   16.1509 H   0  0  0  0  0  0  0  0  0  0  0  0
   49.3979    6.8061   17.5396 H   0  0  0  0  0  0  0  0  0  0  0  0
   49.2697    7.4255   16.1510 H   0  0  0  0  0  0  0  0  0  0  0  0
  1  2  1  0
  3  2  1  0
  3  4  1  0
  4  5  1  0
  6  5  1  0
  6  2  1  0
  6  7  1  0
  7  8  1  0
  8  9  1  0
  3  9  1  0
  8 10  1  0
 10 11  1  0
 11 12  2  0
 11 13  1  0
 13 14  1  0
 14 15  1  0
 13 16  1  0
 16 17  2  0
 17 18  1  0
 18 19  2  0
 19 20  1  0
 20 21  2  0
 16 21  1  0
 22 23  1  0
 24 23  1  0
 24 25  1  0
 25 26  1  0
 27 26  1  0
 27 23  1  0
 27 28  1  0
 28 29  1  0
 29 30  1  0
 24 30  1  0
 29 31  1  0
 31 32  1  0
 32 33  2  0
 32 34  1  0
 34 35  1  0
 35 36  1  0
 34 37  1  0
 37 38  2  0
 38 39  1  0
 39 40  2  0
 40 41  1  0
 41 42  2  0
 37 42  1  0
 43 44  2  0
 43 45  1  0
 43 46  1  0
 43 47  2  0
  1 50  1  0
  1 51  1  0
  1 52  1  0
  3 53  1  6
  4 54  1  0
  4 55  1  0
  5 56  1  0
  5 57  1  0
  6 58  1  1
  7 59  1  0
  7 60  1  0
  8 61  1  6
  9 62  1  0
  9 63  1  0
 13 64  1  1
 14 65  1  0
 14 66  1  0
 15 67  1  0
 17 68  1  0
 18 69  1  0
 19 70  1  0
 20 71  1  0
 21 72  1  0
 22 73  1  0
 22 74  1  0
 22 75  1  0
 24 76  1  6
 25 77  1  0
 25 78  1  0
 26 79  1  0
 26 80  1  0
 27 81  1  1
 28 82  1  0
 28 83  1  0
 29 84  1  1
 30 85  1  0
 30 86  1  0
 34 87  1  1
 35 88  1  0
 35 89  1  0
 36 90  1  0
 38 91  1  0
 39 92  1  0
 40 93  1  0
 41 94  1  0
 42 95  1  0
 45 96  1  0
 46 97  1  0
 48 98  1  0
 48 99  1  0
 49100  1  0
 49101  1  0
M  END
> <Uni-Dock RESULT> 
ENERGY=   -4.851  LOWER_BOUND=    3.640  UPPER_BOUND=    6.110
INTER + INTRA:          -4.851
INTER:                  -4.851
INTRA:                   0.000
UNBOUND:                 0.000

$$$$

     RDKit          3D

101102  0  0  0  0  0  0  0  0999 V2000
   49.0470    8.8928   11.7374 C   0  0  0  0  0  0  0  0  0  0  0  0
   49.0132    9.1089   13.1828 N   0  0  0  0  0  0  0  0  0  0  0  0
   47.7350    8.6967   13.7942 C   0  0  1  0  0  0  0  0  0  0  0  0
   47.8294    7.1712   13.9057 C   0  0  0  0  0  0  0  0  0  0  0  0
   49.3229    6.8896   13.9995 C   0  0  0  0  0  0  0  0  0  0  0  0
   49.9847    8.2706   13.9075 C   0  0  2  0  0  0  0  0  0  0  0  0
   50.1796    8.8819   15.3062 C   0  0  0  0  0  0  0  0  0  0  0  0
   49.0050    9.7620   15.7657 C   0  0  1  0  0  0  0  0  0  0  0  0
   47.6418    9.3409   15.1900 C   0  0  0  0  0  0  0  0  0  0  0  0
   48.9819    9.7375   17.2093 O   0  0  0  0  0  0  0  0  0  0  0  0
   48.3131   10.7531   17.8299 C   0  0  0  0  0  0  0  0  0  0  0  0
   47.7387   11.6685   17.2550 O   0  0  0  0  0  0  0  0  0  0  0  0
   48.3631   10.5594   19.3387 C   0  0  2  0  0  0  0  0  0  0  0  0
   46.9939   10.0513   19.8082 C   0  0  0  0  0  0  0  0  0  0  0  0
   46.8664    8.6450   19.5868 O   0  0  0  0  0  0  0  0  0  0  0  0
   48.7914   11.8255   20.0674 C   0  0  0  0  0  0  0  0  0  0  0  0
   50.0379   11.8728   20.7118 C   0  0  0  0  0  0  0  0  0  0  0  0
   50.4465   13.0236   21.3893 C   0  0  0  0  0  0  0  0  0  0  0  0
   49.6169   14.1417   21.4295 C   0  0  0  0  0  0  0  0  0  0  0  0
   48.3807   14.1132   20.7887 C   0  0  0  0  0  0  0  0  0  0  0  0
   47.9706   12.9640   20.1107 C   0  0  0  0  0  0  0  0  0  0  0  0
   48.1691   11.9676   21.4365 C   0  0  0  0  0  0  0  0  0  0  0  0
   48.5294   11.2847   20.1963 N   0  0  0  0  0  0  0  0  0  0  0  0
   47.4312   11.2671   19.2115 C   0  0  1  0  0  0  0  0  0  0  0  0
   47.4567   12.6618   18.5771 C   0  0  0  0  0  0  0  0  0  0  0  0
   48.8977   13.1304   18.7383 C   0  0  0  0  0  0  0  0  0  0  0  0
   49.6018   11.9711   19.4530 C   0  0  2  0  0  0  0  0  0  0  0  0
   50.1851   10.9750   18.4330 C   0  0  0  0  0  0  0  0  0  0  0  0
   49.2387    9.8089   18.1037 C   0  0  1  0  0  0  0  0  0  0  0  0
   47.7480   10.1811   18.1664 C   0  0  0  0  0  0  0  0  0  0  0  0
   49.5750    9.3287   16.7861 O   0  0  0  0  0  0  0  0  0  0  0  0
   49.2542    8.0339   16.5073 C   0  0  0  0  0  0  0  0  0  0  0  0
   48.7088    7.2604   17.2887 O   0  0  0  0  0  0  0  0  0  0  0  0
   49.5856    7.6673   15.0693 C   0  0  2  0  0  0  0  0  0  0  0  0
   51.0251    8.0531   14.7030 C   0  0  0  0  0  0  0  0  0  0  0  0
   51.9692    7.1862   15.3332 O   0  0  0  0  0  0  0  0  0  0  0  0
   48.5521    8.2346   14.1079 C   0  0  0  0  0  0  0  0  0  0  0  0
   48.5434    9.5924   13.7484 C   0  0  0  0  0  0  0  0  0  0  0  0
   47.5733   10.0913   12.8766 C   0  0  0  0  0  0  0  0  0  0  0  0
   46.5979    9.2436   12.3563 C   0  0  0  0  0  0  0  0  0  0  0  0
   46.5866    7.8970   12.7138 C   0  0  0  0  0  0  0  0  0  0  0  0
   47.5549    7.3953   13.5857 C   0  0  0  0  0  0  0  0  0  0  0  0
   48.8664   10.3728   16.6663 S   0  0  0  0  0  0  0  0  0  0  0  0
   50.2120   10.1883   16.1859 O   0  0  0  0  0  0  0  0  0  0  0  0
   47.9742    9.2447   15.9563 O   0  0  0  0  0  0  0  0  0  0  0  0
   48.8034    9.8965   18.1972 O   0  0  0  0  0  0  0  0  0  0  0  0
   48.1537   11.6237   16.5973 O   0  0  0  0  0  0  0  0  0  0  0  0
   48.8706   10.3118   16.7038 O   0  0  0  0  0  0  0  0  0  0  0  0
   48.8707   10.3117   16.7031 O   0  0  0  0  0  0  0  0  0  0  0  0
   48.2974    9.5229   11.2477 H   0  0  0  0  0  0  0  0  0  0  0  0
   50.0217    9.1946   11.3380 H   0  0  0  0  0  0  0  0  0  0  0  0
   48.8658    7.8551   11.4383 H   0  0  0  0  0  0  0  0  0  0  0  0
   46.8595    8.9932   13.2058 H   0  0  0  0  0  0  0  0  0  0  0  0
   47.2858    6.7655   14.7650 H   0  0  0  0  0  0  0  0  0  0  0  0
   47.4227    6.6918   13.0076 H   0  0  0  0  0  0  0  0  0  0  0  0
   49.5743    6.3506   14.9183 H   0  0  0  0  0  0  0  0  0  0  0  0
   49.6300    6.2593   13.1564 H   0  0  0  0  0  0  0  0  0  0  0  0
   50.9597    8.2047   13.4095 H   0  0  0  0  0  0  0  0  0  0  0  0
   51.0754    9.5191   15.2908 H   0  0  0  0  0  0  0  0  0  0  0  0
   50.3966    8.1045   16.0495 H   0  0  0  0  0  0  0  0  0  0  0  0
   49.2247   10.7885   15.4374 H   0  0  0  0  0  0  0  0  0  0  0  0
   47.1113    8.6881   15.8945 H   0  0  0  0  0  0  0  0  0  0  0  0
   47.0220   10.2451   15.1128 H   0  0  0  0  0  0  0  0  0  0  0  0
   49.1097    9.7802   19.5466 H   0  0  0  0  0  0  0  0  0  0  0  0
   46.1704   10.5452   19.2804 H   0  0  0  0  0  0  0  0  0  0  0  0
   46.8482   10.2206   20.8820 H   0  0  0  0  0  0  0  0  0  0  0  0
   47.4487    8.1927   20.2219 H   0  0  0  0  0  0  0  0  0  0  0  0
   50.7057   11.0148   20.6914 H   0  0  0  0  0  0  0  0  0  0  0  0
   51.4145   13.0488   21.8840 H   0  0  0  0  0  0  0  0  0  0  0  0
   49.9368   15.0390   21.9530 H   0  0  0  0  0  0  0  0  0  0  0  0
   47.7371   14.9888   20.8089 H   0  0  0  0  0  0  0  0  0  0  0  0
   47.0084   12.9742   19.5997 H   0  0  0  0  0  0  0  0  0  0  0  0
   47.3468   11.4379   21.9292 H   0  0  0  0  0  0  0  0  0  0  0  0
   47.8645   13.0099   21.2988 H   0  0  0  0  0  0  0  0  0  0  0  0
   49.0153   11.9516   22.1315 H   0  0  0  0  0  0  0  0  0  0  0  0
   46.4514   11.0566   19.6561 H   0  0  0  0  0  0  0  0  0  0  0  0
   47.1447   12.6678   17.5276 H   0  0  0  0  0  0  0  0  0  0  0  0
   46.7899   13.3424   19.1196 H   0  0  0  0  0  0  0  0  0  0  0  0
   49.3518   13.3831   17.7743 H   0  0  0  0  0  0  0  0  0  0  0  0
   48.9214   14.0374   19.3556 H   0  0  0  0  0  0  0  0  0  0  0  0
   50.4106   12.3381   20.0962 H   0  0  0  0  0  0  0  0  0  0  0  0
   51.1041   10.5394   18.8491 H   0  0  0  0  0  0  0  0  0  0  0  0
   50.5036   11.4879   17.5160 H   0  0  0  0  0  0  0  0  0  0  0  0
   49.4383    9.0144   18.8381 H   0  0  0  0  0  0  0  0  0  0  0  0
   47.1928    9.2702   18.4297 H   0  0  0  0  0  0  0  0  0  0  0  0
   47.3774   10.4653   17.1733 H   0  0  0  0  0  0  0  0  0  0  0  0
   49.5354    6.5695   15.0293 H   0  0  0  0  0  0  0  0  0  0  0  0
   51.2748    9.0783   14.9951 H   0  0  0  0  0  0  0  0  0  0  0  0
   51.1894    7.9756   13.6217 H   0  0  0  0  0  0  0  0  0  0  0  0
   51.8982    6.3111   14.9147 H   0  0  0  0  0  0  0  0  0  0  0  0
   49.2855   10.2811   14.1492 H   0  0  0  0  0  0  0  0  0  0  0  0
   47.5745   11.1450   12.6086 H   0  0  0  0  0  0  0  0  0  0  0  0
   45.8422    9.6329   11.6789 H   0  0  0  0  0  0  0  0  0  0  0  0
   45.8203    7.2358   12.3163 H   0  0  0  0  0  0  0  0  0  0  0  0
   47.5194    6.3417   13.8587 H   0  0  0  0  0  0  0  0  0  0  0  0
   48.5783    8.5124   15.7117 H   0  0  0  0  0  0  0  0  0  0  0  0
   47.9641   10.2328   18.5723 H   0  0  0  0  0  0  0  0  0  0  0  0
   48.5523   10.1678   17.6076 H   0  0  0  0  0  0  0  0  0  0  0  0
   48.5279    9.5509   16.2115 H   0  0  0  0  0  0  0  0  0  0  0  0
   48.5530   10.1688   17.6072 H   0  0  0  0  0  0  0  0  0  0  0  0
   48.5271    9.5500   16.2127 H   0  0  0  0  0  0  0  0  0  0  0  0
  1  2  1  0
  3  2  1  0
  3  4  1  0
  4  5  1  0
  6  5  1  0
  6  2  1  0
  6  7  1  0
  7  8  1  0
  8  9  1  0
  3  9  1  0
  8 10  1  0
 10 11  1  0
 11 12  2  0
 11 13  1  0
 13 14  1  0
 14 15  1  0
 13 16  1  0
 16 17  2  0
 17 18  1  0
 18 19  2  0
 19 20  1  0
 20 21  2  0
 16 21  1  0
 22 23  1  0
 24 23  1  0
 24 25  1  0
 25 26  1  0
 27 26  1  0
 27 23  1  0
 27 28  1  0
 28 29  1  0
 29 30  1  0
 24 30  1  0
 29 31  1  0
 31 32  1  0
 32 33  2  0
 32 34  1  0
 34 35  1  0
 35 36  1  0
 34 37  1  0
 37 38  2  0
 38 39  1  0
 39 40  2  0
 40 41  1  0
 41 42  2  0
 37 42  1  0
 43 44  2  0
 43 45  1  0
 43 46  1  0
 43 47  2  0
  1 50  1  0
  1 51  1  0
  1 52  1  0
  3 53  1  6
  4 54  1  0
  4 55  1  0
  5 56  1  0
  5 57  1  0
  6 58  1  1
  7 59  1  0
  7 60  1  0
  8 61  1  6
  9 62  1  0
  9 63  1  0
 13 64  1  1
 14 65  1  0
 14 66  1  0
 15 67  1  0
 17 68  1  0
 18 69  1  0
 19 70  1  0
 20 71  1  0
 21 72  1  0
 22 73  1  0
 22 74  1  0
 22 75  1  0
 24 76  1  6
 25 77  1  0
 25 78  1  0
 26 79  1  0
 26 80  1  0
 27 81  1  1
 28 82  1  0
 28 83  1  0
 29 84  1  1
 30 85  1  0
 30 86  1  0
 34 87  1  1
 35 88  1  0
 35 89  1  0
 36 90  1  0
 38 91  1  0
 39 92  1  0
 40 93  1  0
 41 94  1  0
 42 95  1  0
 45 96  1  0
 46 97  1  0
 48 98  1  0
 48 99  1  0
 49100  1  0
 49101  1  0
M  END
> <Uni-Dock RESULT> 
ENERGY=   -4.770  LOWER_BOUND=    3.641  UPPER_BOUND=    7.373
INTER + INTRA:          -4.770
INTER:                  -4.770
INTRA:                   0.000
UNBOUND:                 0.000

$$$$

     RDKit          3D

101102  0  0  0  0  0  0  0  0999 V2000
   50.1184    4.2139   17.5686 C   0  0  0  0  0  0  0  0  0  0  0  0
   49.6873    5.4543   18.2108 N   0  0  0  0  0  0  0  0  0  0  0  0
   48.2485    5.7251   18.0265 C   0  0  1  0  0  0  0  0  0  0  0  0
   47.5470    4.8171   19.0424 C   0  0  0  0  0  0  0  0  0  0  0  0
   48.5746    4.6211   20.1488 C   0  0  0  0  0  0  0  0  0  0  0  0
   49.8053    5.4074   19.6790 C   0  0  2  0  0  0  0  0  0  0  0  0
   49.7651    6.8551   20.1989 C   0  0  0  0  0  0  0  0  0  0  0  0
   49.0878    7.8410   19.2320 C   0  0  1  0  0  0  0  0  0  0  0  0
   47.9942    7.2084   18.3540 C   0  0  0  0  0  0  0  0  0  0  0  0
   48.5495    8.9237   20.0212 O   0  0  0  0  0  0  0  0  0  0  0  0
   48.2864   10.0909   19.3637 C   0  0  0  0  0  0  0  0  0  0  0  0
   48.4712   10.2791   18.1684 O   0  0  0  0  0  0  0  0  0  0  0  0
   47.7019   11.1096   20.3318 C   0  0  2  0  0  0  0  0  0  0  0  0
   46.1937   11.2156   20.0723 C   0  0  0  0  0  0  0  0  0  0  0  0
   45.4892   10.1443   20.7040 O   0  0  0  0  0  0  0  0  0  0  0  0
   48.4012   12.4586   20.2389 C   0  0  0  0  0  0  0  0  0  0  0  0
   49.1963   12.9081   21.3053 C   0  0  0  0  0  0  0  0  0  0  0  0
   49.8420   14.1447   21.2406 C   0  0  0  0  0  0  0  0  0  0  0  0
   49.7038   14.9462   20.1099 C   0  0  0  0  0  0  0  0  0  0  0  0
   48.9249   14.5110   19.0405 C   0  0  0  0  0  0  0  0  0  0  0  0
   48.2788   13.2751   19.1031 C   0  0  0  0  0  0  0  0  0  0  0  0
   47.4895   13.6267   20.5325 C   0  0  0  0  0  0  0  0  0  0  0  0
   47.8843   12.2215   20.4720 N   0  0  0  0  0  0  0  0  0  0  0  0
   47.3422   11.5240   19.2905 C   0  0  1  0  0  0  0  0  0  0  0  0
   48.2604   11.9431   18.1375 C   0  0  0  0  0  0  0  0  0  0  0  0
   49.5852   12.2869   18.8074 C   0  0  0  0  0  0  0  0  0  0  0  0
   49.3373   12.0397   20.3000 C   0  0  2  0  0  0  0  0  0  0  0  0
   49.6817   10.5864   20.6770 C   0  0  0  0  0  0  0  0  0  0  0  0
   48.4752    9.6352   20.6207 C   0  0  1  0  0  0  0  0  0  0  0  0
   47.4385   10.0086   19.5481 C   0  0  0  0  0  0  0  0  0  0  0  0
   48.9760    8.3037   20.3841 O   0  0  0  0  0  0  0  0  0  0  0  0
   48.1907    7.2719   20.8036 C   0  0  0  0  0  0  0  0  0  0  0  0
   47.1046    7.3963   21.3614 O   0  0  0  0  0  0  0  0  0  0  0  0
   48.7849    5.9227   20.4314 C   0  0  2  0  0  0  0  0  0  0  0  0
   50.2540    5.8121   20.8611 C   0  0  0  0  0  0  0  0  0  0  0  0
   50.3696    5.6762   22.2782 O   0  0  0  0  0  0  0  0  0  0  0  0
   48.5694    5.6179   18.9567 C   0  0  0  0  0  0  0  0  0  0  0  0
   49.3456    6.2240   17.9551 C   0  0  0  0  0  0  0  0  0  0  0  0
   49.1163    5.9395   16.6074 C   0  0  0  0  0  0  0  0  0  0  0  0
   48.1076    5.0508   16.2419 C   0  0  0  0  0  0  0  0  0  0  0  0
   47.3214    4.4516   17.2238 C   0  0  0  0  0  0  0  0  0  0  0  0
   47.5480    4.7346   18.5721 C   0  0  0  0  0  0  0  0  0  0  0  0
   48.9553    8.9287   19.2816 S   0  0  0  0  0  0  0  0  0  0  0  0
   50.1135    8.3676   19.9291 O   0  0  0  0  0  0  0  0  0  0  0  0
   47.9445    7.7097   19.0271 O   0  0  0  0  0  0  0  0  0  0  0  0
   48.1358    9.7878   20.3609 O   0  0  0  0  0  0  0  0  0  0  0  0
   49.0134    9.7265   18.0826 O   0  0  0  0  0  0  0  0  0  0  0  0
   48.9160    8.9175   19.3405 O   0  0  0  0  0  0  0  0  0  0  0  0
   48.9163    8.9169   19.3403 O   0  0  0  0  0  0  0  0  0  0  0  0
   49.9947    4.2922   16.4836 H   0  0  0  0  0  0  0  0  0  0  0  0
   51.1860    4.0501   17.7530 H   0  0  0  0  0  0  0  0  0  0  0  0
   49.5765    3.3252   17.9088 H   0  0  0  0  0  0  0  0  0  0  0  0
   47.8973    5.5196   17.0092 H   0  0  0  0  0  0  0  0  0  0  0  0
   46.6128    5.2386   19.4271 H   0  0  0  0  0  0  0  0  0  0  0  0
   47.3051    3.8473   18.5921 H   0  0  0  0  0  0  0  0  0  0  0  0
   48.1921    4.9563   21.1180 H   0  0  0  0  0  0  0  0  0  0  0  0
   48.8125    3.5548   20.2424 H   0  0  0  0  0  0  0  0  0  0  0  0
   50.7301    4.9306   20.0263 H   0  0  0  0  0  0  0  0  0  0  0  0
   50.7966    7.2048   20.3485 H   0  0  0  0  0  0  0  0  0  0  0  0
   49.3015    6.9046   21.1921 H   0  0  0  0  0  0  0  0  0  0  0  0
   49.8759    8.2433   18.5788 H   0  0  0  0  0  0  0  0  0  0  0  0
   47.0055    7.3515   18.8076 H   0  0  0  0  0  0  0  0  0  0  0  0
   47.9620    7.7702   17.4101 H   0  0  0  0  0  0  0  0  0  0  0  0
   47.8502   10.7208   21.3489 H   0  0  0  0  0  0  0  0  0  0  0  0
   45.9584   11.1809   19.0027 H   0  0  0  0  0  0  0  0  0  0  0  0
   45.7810   12.1497   20.4724 H   0  0  0  0  0  0  0  0  0  0  0  0
   45.5136   10.3012   21.6641 H   0  0  0  0  0  0  0  0  0  0  0  0
   49.3237   12.2992   22.1973 H   0  0  0  0  0  0  0  0  0  0  0  0
   50.4559   14.4820   22.0724 H   0  0  0  0  0  0  0  0  0  0  0  0
   50.2100   15.9067   20.0577 H   0  0  0  0  0  0  0  0  0  0  0  0
   48.8255   15.1298   18.1526 H   0  0  0  0  0  0  0  0  0  0  0  0
   47.6925   12.9481   18.2451 H   0  0  0  0  0  0  0  0  0  0  0  0
   46.4009   13.7052   20.6241 H   0  0  0  0  0  0  0  0  0  0  0  0
   47.7980   14.2140   19.6619 H   0  0  0  0  0  0  0  0  0  0  0  0
   47.9154   14.0965   21.4255 H   0  0  0  0  0  0  0  0  0  0  0  0
   46.2988   11.7815   19.0740 H   0  0  0  0  0  0  0  0  0  0  0  0
   48.3825   11.1669   17.3748 H   0  0  0  0  0  0  0  0  0  0  0  0
   47.8644   12.8339   17.6358 H   0  0  0  0  0  0  0  0  0  0  0  0
   50.4106   11.6918   18.4023 H   0  0  0  0  0  0  0  0  0  0  0  0
   49.8257   13.3418   18.6244 H   0  0  0  0  0  0  0  0  0  0  0  0
   49.9366   12.7201   20.9168 H   0  0  0  0  0  0  0  0  0  0  0  0
   50.0612   10.5685   21.7081 H   0  0  0  0  0  0  0  0  0  0  0  0
   50.5077   10.2032   20.0636 H   0  0  0  0  0  0  0  0  0  0  0  0
   47.9925    9.6678   21.6088 H   0  0  0  0  0  0  0  0  0  0  0  0
   46.4604    9.6508   19.8980 H   0  0  0  0  0  0  0  0  0  0  0  0
   47.6284    9.4588   18.6175 H   0  0  0  0  0  0  0  0  0  0  0  0
   48.2278    5.1846   21.0264 H   0  0  0  0  0  0  0  0  0  0  0  0
   50.8472    6.6834   20.5653 H   0  0  0  0  0  0  0  0  0  0  0  0
   50.7287    4.9306   20.4140 H   0  0  0  0  0  0  0  0  0  0  0  0
   50.0367    4.7958   22.5229 H   0  0  0  0  0  0  0  0  0  0  0  0
   50.1325    6.9322   18.2102 H   0  0  0  0  0  0  0  0  0  0  0  0
   49.7212    6.4177   15.8409 H   0  0  0  0  0  0  0  0  0  0  0  0
   47.9287    4.8309   15.1925 H   0  0  0  0  0  0  0  0  0  0  0  0
   46.5273    3.7651   16.9399 H   0  0  0  0  0  0  0  0  0  0  0  0
   46.9138    4.2621   19.3209 H   0  0  0  0  0  0  0  0  0  0  0  0
   48.1604    7.0154   19.6846 H   0  0  0  0  0  0  0  0  0  0  0  0
   47.4939   10.3383   19.8680 H   0  0  0  0  0  0  0  0  0  0  0  0
   48.2732    9.5295   19.7295 H   0  0  0  0  0  0  0  0  0  0  0  0
   48.4465    8.0703   19.3159 H   0  0  0  0  0  0  0  0  0  0  0  0
   48.2744    9.5298   19.7291 H   0  0  0  0  0  0  0  0  0  0  0  0
   48.4450    8.0707   19.3165 H   0  0  0  0  0  0  0  0  0  0  0  0
  1  2  1  0
  3  2  1  0
  3  4  1  0
  4  5  1  0
  6  5  1  0
  6  2  1  0
  6  7  1  0
  7  8  1  0
  8  9  1  0
  3  9  1  0
  8 10  1  0
 10 11  1  0
 11 12  2  0
 11 13  1  0
 13 14  1  0
 14 15  1  0
 13 16  1  0
 16 17  2  0
 17 18  1  0
 18 19  2  0
 19 20  1  0
 20 21  2  0
 16 21  1  0
 22 23  1  0
 24 23  1  0
 24 25  1  0
 25 26  1  0
 27 26  1  0
 27 23  1  0
 27 28  1  0
 28 29  1  0
 29 30  1  0
 24 30  1  0
 29 31  1  0
 31 32  1  0
 32 33  2  0
 32 34  1  0
 34 35  1  0
 35 36  1  0
 34 37  1  0
 37 38  2  0
 38 39  1  0
 39 40  2  0
 40 41  1  0
 41 42  2  0
 37 42  1  0
 43 44  2  0
 43 45  1  0
 43 46  1  0
 43 47  2  0
  1 50  1  0
  1 51  1  0
  1 52  1  0
  3 53  1  6
  4 54  1  0
  4 55  1  0
  5 56  1  0
  5 57  1  0
  6 58  1  1
  7 59  1  0
  7 60  1  0
  8 61  1  6
  9 62  1  0
  9 63  1  0
 13 64  1  1
 14 65  1  0
 14 66  1  0
 15 67  1  0
 17 68  1  0
 18 69  1  0
 19 70  1  0
 20 71  1  0
 21 72  1  0
 22 73  1  0
 22 74  1  0
 22 75  1  0
 24 76  1  6
 25 77  1  0
 25 78  1  0
 26 79  1  0
 26 80  1  0
 27 81  1  1
 28 82  1  0
 28 83  1  0
 29 84  1  1
 30 85  1  0
 30 86  1  0
 34 87  1  1
 35 88  1  0
 35 89  1  0
 36 90  1  0
 38 91  1  0
 39 92  1  0
 40 93  1  0
 41 94  1  0
 42 95  1  0
 45 96  1  0
 46 97  1  0
 48 98  1  0
 48 99  1  0
 49100  1  0
 49101  1  0
M  END
> <Uni-Dock RESULT> 
ENERGY=   -4.746  LOWER_BOUND=    1.310  UPPER_BOUND=    6.576
INTER + INTRA:          -4.746
INTER:                  -4.746
INTRA:                   0.000
UNBOUND:                 0.000

$$$$

     RDKit          3D

101102  0  0  0  0  0  0  0  0999 V2000
   47.4760    9.2853   12.6915 C   0  0  0  0  0  0  0  0  0  0  0  0
   47.9967    8.9241   14.0088 N   0  0  0  0  0  0  0  0  0  0  0  0
   48.9949    7.8387   13.9527 C   0  0  1  0  0  0  0  0  0  0  0  0
   50.2893    8.5217   13.4982 C   0  0  0  0  0  0  0  0  0  0  0  0
   50.1434    9.9623   13.9693 C   0  0  0  0  0  0  0  0  0  0  0  0
   48.7635   10.0142   14.6376 C   0  0  2  0  0  0  0  0  0  0  0  0
   48.8682    9.7065   16.1416 C   0  0  0  0  0  0  0  0  0  0  0  0
   48.6903    8.2173   16.4822 C   0  0  1  0  0  0  0  0  0  0  0  0
   49.1530    7.2592   15.3708 C   0  0  0  0  0  0  0  0  0  0  0  0
   49.4070    7.9632   17.7097 O   0  0  0  0  0  0  0  0  0  0  0  0
   49.0496    6.8467   18.4094 C   0  0  0  0  0  0  0  0  0  0  0  0
   48.1775    6.0570   18.0717 O   0  0  0  0  0  0  0  0  0  0  0  0
   49.9174    6.7158   19.6530 C   0  0  2  0  0  0  0  0  0  0  0  0
   50.9534    5.6113   19.4076 C   0  0  0  0  0  0  0  0  0  0  0  0
   52.0527    6.1028   18.6376 O   0  0  0  0  0  0  0  0  0  0  0  0
   49.0914    6.4659   20.9072 C   0  0  0  0  0  0  0  0  0  0  0  0
   49.0055    7.4588   21.8962 C   0  0  0  0  0  0  0  0  0  0  0  0
   48.2565    7.2464   23.0556 C   0  0  0  0  0  0  0  0  0  0  0  0
   47.5824    6.0417   23.2405 C   0  0  0  0  0  0  0  0  0  0  0  0
   47.6514    5.0500   22.2651 C   0  0  0  0  0  0  0  0  0  0  0  0
   48.3993    5.2604   21.1053 C   0  0  0  0  0  0  0  0  0  0  0  0
   49.8044    5.6183   21.9343 C   0  0  0  0  0  0  0  0  0  0  0  0
   49.6770    6.4274   20.7246 N   0  0  0  0  0  0  0  0  0  0  0  0
   49.5334    5.6133   19.5028 C   0  0  1  0  0  0  0  0  0  0  0  0
   48.0638    5.1790   19.4966 C   0  0  0  0  0  0  0  0  0  0  0  0
   47.3415    6.2576   20.2946 C   0  0  0  0  0  0  0  0  0  0  0  0
   48.4463    7.2391   20.7031 C   0  0  2  0  0  0  0  0  0  0  0  0
   48.6210    8.3381   19.6380 C   0  0  0  0  0  0  0  0  0  0  0  0
   49.7020    8.0144   18.5937 C   0  0  1  0  0  0  0  0  0  0  0  0
   49.8466    6.5134   18.2929 C   0  0  0  0  0  0  0  0  0  0  0  0
   49.3759    8.7330   17.3866 O   0  0  0  0  0  0  0  0  0  0  0  0
   50.4101    9.0153   16.5452 C   0  0  0  0  0  0  0  0  0  0  0  0
   51.5815    8.7062   16.7419 O   0  0  0  0  0  0  0  0  0  0  0  0
   49.9335    9.7037   15.2760 C   0  0  2  0  0  0  0  0  0  0  0  0
   49.0284   10.9033   15.5872 C   0  0  0  0  0  0  0  0  0  0  0  0
   49.7815   11.9965   16.1144 O   0  0  0  0  0  0  0  0  0  0  0  0
   49.2965    8.7073   14.3192 C   0  0  0  0  0  0  0  0  0  0  0  0
   47.9987    8.2108   14.5244 C   0  0  0  0  0  0  0  0  0  0  0  0
   47.4433    7.2839   13.6399 C   0  0  0  0  0  0  0  0  0  0  0  0
   48.1767    6.8377   12.5427 C   0  0  0  0  0  0  0  0  0  0  0  0
   49.4700    7.3119   12.3333 C   0  0  0  0  0  0  0  0  0  0  0  0
   50.0282    8.2382   13.2163 C   0  0  0  0  0  0  0  0  0  0  0  0
   48.6524    7.6939   17.4455 S   0  0  0  0  0  0  0  0  0  0  0  0
   48.1935    9.0591   17.4095 O   0  0  0  0  0  0  0  0  0  0  0  0
   49.5045    7.4678   16.1056 O   0  0  0  0  0  0  0  0  0  0  0  0
   49.7976    7.5719   18.5626 O   0  0  0  0  0  0  0  0  0  0  0  0
   47.7825    6.5590   17.6258 O   0  0  0  0  0  0  0  0  0  0  0  0
   48.7198    7.7161   17.4560 O   0  0  0  0  0  0  0  0  0  0  0  0
   48.7196    7.7163   17.4554 O   0  0  0  0  0  0  0  0  0  0  0  0
   46.9315    8.4391   12.2599 H   0  0  0  0  0  0  0  0  0  0  0  0
   46.7572   10.1068   12.7872 H   0  0  0  0  0  0  0  0  0  0  0  0
   48.2472    9.5925   11.9773 H   0  0  0  0  0  0  0  0  0  0  0  0
   48.7163    7.0310   13.2667 H   0  0  0  0  0  0  0  0  0  0  0  0
   51.1916    8.0524   13.9030 H   0  0  0  0  0  0  0  0  0  0  0  0
   50.3743    8.5013   12.4054 H   0  0  0  0  0  0  0  0  0  0  0  0
   50.9589   10.2516   14.6396 H   0  0  0  0  0  0  0  0  0  0  0  0
   50.1771   10.6354   13.1043 H   0  0  0  0  0  0  0  0  0  0  0  0
   48.3030   11.0013   14.5080 H   0  0  0  0  0  0  0  0  0  0  0  0
   48.0765   10.2567   16.6701 H   0  0  0  0  0  0  0  0  0  0  0  0
   49.8078   10.0908   16.5582 H   0  0  0  0  0  0  0  0  0  0  0  0
   47.6179    8.0549   16.6641 H   0  0  0  0  0  0  0  0  0  0  0  0
   50.1830    6.9277   15.5523 H   0  0  0  0  0  0  0  0  0  0  0  0
   48.5408    6.3494   15.4427 H   0  0  0  0  0  0  0  0  0  0  0  0
   50.4520    7.6669   19.7838 H   0  0  0  0  0  0  0  0  0  0  0  0
   50.5249    4.7603   18.8665 H   0  0  0  0  0  0  0  0  0  0  0  0
   51.3672    5.2310   20.3494 H   0  0  0  0  0  0  0  0  0  0  0  0
   52.5665    6.7022   19.2066 H   0  0  0  0  0  0  0  0  0  0  0  0
   49.5190    8.4095   21.7738 H   0  0  0  0  0  0  0  0  0  0  0  0
   48.1967    8.0230   23.8144 H   0  0  0  0  0  0  0  0  0  0  0  0
   46.9958    5.8781   24.1408 H   0  0  0  0  0  0  0  0  0  0  0  0
   47.1163    4.1139   22.4021 H   0  0  0  0  0  0  0  0  0  0  0  0
   48.4202    4.4774   20.3480 H   0  0  0  0  0  0  0  0  0  0  0  0
   50.7140    5.0104   21.8829 H   0  0  0  0  0  0  0  0  0  0  0  0
   48.9590    4.9463   22.1118 H   0  0  0  0  0  0  0  0  0  0  0  0
   49.9092    6.2684   22.8095 H   0  0  0  0  0  0  0  0  0  0  0  0
   50.1994    4.7428   19.4793 H   0  0  0  0  0  0  0  0  0  0  0  0
   47.6461    5.0730   18.4900 H   0  0  0  0  0  0  0  0  0  0  0  0
   47.9470    4.2130   20.0018 H   0  0  0  0  0  0  0  0  0  0  0  0
   46.5417    6.7261   19.7113 H   0  0  0  0  0  0  0  0  0  0  0  0
   46.8759    5.8082   21.1809 H   0  0  0  0  0  0  0  0  0  0  0  0
   48.2187    7.7093   21.6673 H   0  0  0  0  0  0  0  0  0  0  0  0
   48.9205    9.2703   20.1368 H   0  0  0  0  0  0  0  0  0  0  0  0
   47.6660    8.5714   19.1493 H   0  0  0  0  0  0  0  0  0  0  0  0
   50.6565    8.3915   18.9902 H   0  0  0  0  0  0  0  0  0  0  0  0
   50.8873    6.3384   17.9874 H   0  0  0  0  0  0  0  0  0  0  0  0
   49.2412    6.2326   17.4217 H   0  0  0  0  0  0  0  0  0  0  0  0
   50.8411   10.1093   14.8058 H   0  0  0  0  0  0  0  0  0  0  0  0
   48.2449   10.6640   16.3134 H   0  0  0  0  0  0  0  0  0  0  0  0
   48.5295   11.2646   14.6801 H   0  0  0  0  0  0  0  0  0  0  0  0
   50.3291   12.3571   15.3960 H   0  0  0  0  0  0  0  0  0  0  0  0
   47.4067    8.5319   15.3801 H   0  0  0  0  0  0  0  0  0  0  0  0
   46.4391    6.9040   13.8113 H   0  0  0  0  0  0  0  0  0  0  0  0
   47.7443    6.1150   11.8554 H   0  0  0  0  0  0  0  0  0  0  0  0
   50.0475    6.9574   11.4829 H   0  0  0  0  0  0  0  0  0  0  0  0
   51.0445    8.5865   13.0378 H   0  0  0  0  0  0  0  0  0  0  0  0
   49.8245    8.3482   15.8166 H   0  0  0  0  0  0  0  0  0  0  0  0
   49.9361    6.6184   18.7347 H   0  0  0  0  0  0  0  0  0  0  0  0
   49.3619    7.3359   18.0742 H   0  0  0  0  0  0  0  0  0  0  0  0
   49.2145    7.7987   16.6270 H   0  0  0  0  0  0  0  0  0  0  0  0
   49.3607    7.3362   18.0744 H   0  0  0  0  0  0  0  0  0  0  0  0
   49.2160    7.7981   16.6274 H   0  0  0  0  0  0  0  0  0  0  0  0
  1  2  1  0
  3  2  1  0
  3  4  1  0
  4  5  1  0
  6  5  1  0
  6  2  1  0
  6  7  1  0
  7  8  1  0
  8  9  1  0
  3  9  1  0
  8 10  1  0
 10 11  1  0
 11 12  2  0
 11 13  1  0
 13 14  1  0
 14 15  1  0
 13 16  1  0
 16 17  2  0
 17 18  1  0
 18 19  2  0
 19 20  1  0
 20 21  2  0
 16 21  1  0
 22 23  1  0
 24 23  1  0
 24 25  1  0
 25 26  1  0
 27 26  1  0
 27 23  1  0
 27 28  1  0
 28 29  1  0
 29 30  1  0
 24 30  1  0
 29 31  1  0
 31 32  1  0
 32 33  2  0
 32 34  1  0
 34 35  1  0
 35 36  1  0
 34 37  1  0
 37 38  2  0
 38 39  1  0
 39 40  2  0
 40 41  1  0
 41 42  2  0
 37 42  1  0
 43 44  2  0
 43 45  1  0
 43 46  1  0
 43 47  2  0
  1 50  1  0
  1 51  1  0
  1 52  1  0
  3 53  1  6
  4 54  1  0
  4 55  1  0
  5 56  1  0
  5 57  1  0
  6 58  1  1
  7 59  1  0
  7 60  1  0
  8 61  1  6
  9 62  1  0
  9 63  1  0
 13 64  1  1
 14 65  1  0
 14 66  1  0
 15 67  1  0
 17 68  1  0
 18 69  1  0
 19 70  1  0
 20 71  1  0
 21 72  1  0
 22 73  1  0
 22 74  1  0
 22 75  1  0
 24 76  1  6
 25 77  1  0
 25 78  1  0
 26 79  1  0
 26 80  1  0
 27 81  1  1
 28 82  1  0
 28 83  1  0
 29 84  1  1
 30 85  1  0
 30 86  1  0
 34 87  1  1
 35 88  1  0
 35 89  1  0
 36 90  1  0
 38 91  1  0
 39 92  1  0
 40 93  1  0
 41 94  1  0
 42 95  1  0
 45 96  1  0
 46 97  1  0
 48 98  1  0
 48 99  1  0
 49100  1  0
 49101  1  0
M  END
> <Uni-Dock RESULT> 
ENERGY=   -4.708  LOWER_BOUND=    3.422  UPPER_BOUND=    5.741
INTER + INTRA:          -4.708
INTER:                  -4.708
INTRA:                   0.000
UNBOUND:                 0.000

$$$$

     RDKit          3D

101102  0  0  0  0  0  0  0  0999 V2000
   48.9193    9.6908   11.6111 C   0  0  0  0  0  0  0  0  0  0  0  0
   48.9444    9.5061   13.0610 N   0  0  0  0  0  0  0  0  0  0  0  0
   47.8123    8.6990   13.5557 C   0  0  1  0  0  0  0  0  0  0  0  0
   48.2013    7.2495   13.2459 C   0  0  0  0  0  0  0  0  0  0  0  0
   49.7240    7.2590   13.2375 C   0  0  0  0  0  0  0  0  0  0  0  0
   50.1044    8.7190   13.5156 C   0  0  2  0  0  0  0  0  0  0  0  0
   50.2754    8.9654   15.0249 C   0  0  0  0  0  0  0  0  0  0  0  0
   48.9897    9.4384   15.7240 C   0  0  1  0  0  0  0  0  0  0  0  0
   47.6947    8.9193   15.0754 C   0  0  0  0  0  0  0  0  0  0  0  0
   49.0706    9.0294   17.1065 O   0  0  0  0  0  0  0  0  0  0  0  0
   48.2658    9.6892   17.9900 C   0  0  0  0  0  0  0  0  0  0  0  0
   47.4904   10.5892   17.6948 O   0  0  0  0  0  0  0  0  0  0  0  0
   48.4548    9.1180   19.3881 C   0  0  2  0  0  0  0  0  0  0  0  0
   47.2421    8.2397   19.7214 C   0  0  0  0  0  0  0  0  0  0  0  0
   47.3684    6.9459   19.1271 O   0  0  0  0  0  0  0  0  0  0  0  0
   48.6845   10.2059   20.4279 C   0  0  0  0  0  0  0  0  0  0  0  0
   49.9407   10.3307   21.0424 C   0  0  0  0  0  0  0  0  0  0  0  0
   50.1694   11.3196   22.0017 C   0  0  0  0  0  0  0  0  0  0  0  0
   49.1478   12.1970   22.3573 C   0  0  0  0  0  0  0  0  0  0  0  0
   47.8984   12.0911   21.7510 C   0  0  0  0  0  0  0  0  0  0  0  0
   47.6679   11.1036   20.7917 C   0  0  0  0  0  0  0  0  0  0  0  0
   48.1419    9.8535   21.7928 C   0  0  0  0  0  0  0  0  0  0  0  0
   48.5392    9.6091   20.4083 N   0  0  0  0  0  0  0  0  0  0  0  0
   47.3993    9.6320   19.4722 C   0  0  1  0  0  0  0  0  0  0  0  0
   47.1166   11.1203   19.2415 C   0  0  0  0  0  0  0  0  0  0  0  0
   48.4504   11.8093   19.5032 C   0  0  0  0  0  0  0  0  0  0  0  0
   49.4087   10.6684   19.8645 C   0  0  2  0  0  0  0  0  0  0  0  0
   50.0987   10.1152   18.6033 C   0  0  0  0  0  0  0  0  0  0  0  0
   49.3700    8.9121   17.9827 C   0  0  1  0  0  0  0  0  0  0  0  0
   47.8437    8.9472   18.1662 C   0  0  0  0  0  0  0  0  0  0  0  0
   49.7000    8.8747   16.5793 O   0  0  0  0  0  0  0  0  0  0  0  0
   49.6119    7.6624   15.9629 C   0  0  0  0  0  0  0  0  0  0  0  0
   49.2777    6.6168   16.5119 O   0  0  0  0  0  0  0  0  0  0  0  0
   49.9074    7.7629   14.4748 C   0  0  2  0  0  0  0  0  0  0  0  0
   51.2192    8.5128   14.2065 C   0  0  0  0  0  0  0  0  0  0  0  0
   52.3513    7.7182   14.5627 O   0  0  0  0  0  0  0  0  0  0  0  0
   48.7218    8.3443   13.7196 C   0  0  0  0  0  0  0  0  0  0  0  0
   48.4314    9.7184   13.7438 C   0  0  0  0  0  0  0  0  0  0  0  0
   47.3269   10.2245   13.0552 C   0  0  0  0  0  0  0  0  0  0  0  0
   46.4964    9.3663   12.3379 C   0  0  0  0  0  0  0  0  0  0  0  0
   46.7649    7.9992   12.3152 C   0  0  0  0  0  0  0  0  0  0  0  0
   47.8681    7.4903   13.0032 C   0  0  0  0  0  0  0  0  0  0  0  0
   48.8000    9.7489   16.7588 S   0  0  0  0  0  0  0  0  0  0  0  0
   50.1201    9.9720   16.2268 O   0  0  0  0  0  0  0  0  0  0  0  0
   48.0911    8.6930   15.7815 O   0  0  0  0  0  0  0  0  0  0  0  0
   48.9334    8.8826   18.1028 O   0  0  0  0  0  0  0  0  0  0  0  0
   47.8602   10.8039   17.0437 O   0  0  0  0  0  0  0  0  0  0  0  0
   48.8183    9.6823   16.7783 O   0  0  0  0  0  0  0  0  0  0  0  0
   48.8183    9.6824   16.7775 O   0  0  0  0  0  0  0  0  0  0  0  0
   48.0322   10.2639   11.3227 H   0  0  0  0  0  0  0  0  0  0  0  0
   49.7895   10.2767   11.2948 H   0  0  0  0  0  0  0  0  0  0  0  0
   48.9179    8.7544   11.0433 H   0  0  0  0  0  0  0  0  0  0  0  0
   46.8583    8.9582   13.0832 H   0  0  0  0  0  0  0  0  0  0  0  0
   47.8046    6.5306   13.9700 H   0  0  0  0  0  0  0  0  0  0  0  0
   47.8322    6.9527   12.2572 H   0  0  0  0  0  0  0  0  0  0  0  0
   50.1354    6.5584   13.9710 H   0  0  0  0  0  0  0  0  0  0  0  0
   50.0864    6.9488   12.2502 H   0  0  0  0  0  0  0  0  0  0  0  0
   51.0378    8.9842   13.0042 H   0  0  0  0  0  0  0  0  0  0  0  0
   51.0311    9.7505   15.1706 H   0  0  0  0  0  0  0  0  0  0  0  0
   50.6862    8.0794   15.5250 H   0  0  0  0  0  0  0  0  0  0  0  0
   48.9880   10.5375   15.6846 H   0  0  0  0  0  0  0  0  0  0  0  0
   47.3471    8.0109   15.5830 H   0  0  0  0  0  0  0  0  0  0  0  0
   46.9111    9.6682   15.2565 H   0  0  0  0  0  0  0  0  0  0  0  0
   49.3479    8.4781   19.3649 H   0  0  0  0  0  0  0  0  0  0  0  0
   46.3058    8.6796   19.3602 H   0  0  0  0  0  0  0  0  0  0  0  0
   47.1410    8.0865   20.8027 H   0  0  0  0  0  0  0  0  0  0  0  0
   48.0680    6.4685   19.6063 H   0  0  0  0  0  0  0  0  0  0  0  0
   50.7560    9.6609   20.7792 H   0  0  0  0  0  0  0  0  0  0  0  0
   51.1467   11.4070   22.4704 H   0  0  0  0  0  0  0  0  0  0  0  0
   49.3271   12.9694   23.1007 H   0  0  0  0  0  0  0  0  0  0  0  0
   47.1036   12.7824   22.0185 H   0  0  0  0  0  0  0  0  0  0  0  0
   46.6884   11.0550   20.3170 H   0  0  0  0  0  0  0  0  0  0  0  0
   47.4705    9.0584   22.1345 H   0  0  0  0  0  0  0  0  0  0  0  0
   47.6368   10.8118   21.9488 H   0  0  0  0  0  0  0  0  0  0  0  0
   49.0215    9.8248   22.4447 H   0  0  0  0  0  0  0  0  0  0  0  0
   46.5100    9.1192   19.8569 H   0  0  0  0  0  0  0  0  0  0  0  0
   46.7379   11.3405   18.2380 H   0  0  0  0  0  0  0  0  0  0  0  0
   46.3718   11.4851   19.9586 H   0  0  0  0  0  0  0  0  0  0  0  0
   48.7813   12.3935   18.6379 H   0  0  0  0  0  0  0  0  0  0  0  0
   48.3442   12.5066   20.3438 H   0  0  0  0  0  0  0  0  0  0  0  0
   50.1755   11.0071   20.5715 H   0  0  0  0  0  0  0  0  0  0  0  0
   51.1099    9.7791   18.8715 H   0  0  0  0  0  0  0  0  0  0  0  0
   50.2507   10.9053   17.8562 H   0  0  0  0  0  0  0  0  0  0  0  0
   49.7663    8.0087   18.4698 H   0  0  0  0  0  0  0  0  0  0  0  0
   47.4904    7.9069   18.1795 H   0  0  0  0  0  0  0  0  0  0  0  0
   47.3587    9.4031   17.2937 H   0  0  0  0  0  0  0  0  0  0  0  0
   50.0633    6.7278   14.1379 H   0  0  0  0  0  0  0  0  0  0  0  0
   51.2896    9.4529   14.7631 H   0  0  0  0  0  0  0  0  0  0  0  0
   51.3207    8.7582   13.1427 H   0  0  0  0  0  0  0  0  0  0  0  0
   52.4189    6.9889   13.9227 H   0  0  0  0  0  0  0  0  0  0  0  0
   49.0554   10.4113   14.3062 H   0  0  0  0  0  0  0  0  0  0  0  0
   47.1102   11.2895   13.0844 H   0  0  0  0  0  0  0  0  0  0  0  0
   45.6360    9.7606   11.8034 H   0  0  0  0  0  0  0  0  0  0  0  0
   46.1122    7.3266   11.7638 H   0  0  0  0  0  0  0  0  0  0  0  0
   48.0516    6.4170   12.9792 H   0  0  0  0  0  0  0  0  0  0  0  0
   48.8047    8.1882   15.3378 H   0  0  0  0  0  0  0  0  0  0  0  0
   48.0734    8.9321   18.5676 H   0  0  0  0  0  0  0  0  0  0  0  0
   48.5956    9.2438   17.6132 H   0  0  0  0  0  0  0  0  0  0  0  0
   48.5929    9.0257   16.1024 H   0  0  0  0  0  0  0  0  0  0  0  0
   48.5961    9.2450   17.6131 H   0  0  0  0  0  0  0  0  0  0  0  0
   48.5924    9.0243   16.1033 H   0  0  0  0  0  0  0  0  0  0  0  0
  1  2  1  0
  3  2  1  0
  3  4  1  0
  4  5  1  0
  6  5  1  0
  6  2  1  0
  6  7  1  0
  7  8  1  0
  8  9  1  0
  3  9  1  0
  8 10  1  0
 10 11  1  0
 11 12  2  0
 11 13  1  0
 13 14  1  0
 14 15  1  0
 13 16  1  0
 16 17  2  0
 17 18  1  0
 18 19  2  0
 19 20  1  0
 20 21  2  0
 16 21  1  0
 22 23  1  0
 24 23  1  0
 24 25  1  0
 25 26  1  0
 27 26  1  0
 27 23  1  0
 27 28  1  0
 28 29  1  0
 29 30  1  0
 24 30  1  0
 29 31  1  0
 31 32  1  0
 32 33  2  0
 32 34  1  0
 34 35  1  0
 35 36  1  0
 34 37  1  0
 37 38  2  0
 38 39  1  0
 39 40  2  0
 40 41  1  0
 41 42  2  0
 37 42  1  0
 43 44  2  0
 43 45  1  0
 43 46  1  0
 43 47  2  0
  1 50  1  0
  1 51  1  0
  1 52  1  0
  3 53  1  6
  4 54  1  0
  4 55  1  0
  5 56  1  0
  5 57  1  0
  6 58  1  1
  7 59  1  0
  7 60  1  0
  8 61  1  6
  9 62  1  0
  9 63  1  0
 13 64  1  1
 14 65  1  0
 14 66  1  0
 15 67  1  0
 17 68  1  0
 18 69  1  0
 19 70  1  0
 20 71  1  0
 21 72  1  0
 22 73  1  0
 22 74  1  0
 22 75  1  0
 24 76  1  6
 25 77  1  0
 25 78  1  0
 26 79  1  0
 26 80  1  0
 27 81  1  1
 28 82  1  0
 28 83  1  0
 29 84  1  1
 30 85  1  0
 30 86  1  0
 34 87  1  1
 35 88  1  0
 35 89  1  0
 36 90  1  0
 38 91  1  0
 39 92  1  0
 40 93  1  0
 41 94  1  0
 42 95  1  0
 45 96  1  0
 46 97  1  0
 48 98  1  0
 48 99  1  0
 49100  1  0
 49101  1  0
M  END
> <Uni-Dock RESULT> 
ENERGY=   -4.698  LOWER_BOUND=    3.755  UPPER_BOUND=    6.998
INTER + INTRA:          -4.698
INTER:                  -4.698
INTRA:                   0.000
UNBOUND:                 0.000

$$$$

     RDKit          3D

101102  0  0  0  0  0  0  0  0999 V2000
   49.1170   15.0518    9.1043 C   0  0  0  0  0  0  0  0  0  0  0  0
   47.9990   14.2633    9.6193 N   0  0  0  0  0  0  0  0  0  0  0  0
   47.9911   12.8787    9.1090 C   0  0  1  0  0  0  0  0  0  0  0  0
   49.0460   12.1478    9.9466 C   0  0  0  0  0  0  0  0  0  0  0  0
   49.0867   12.9169   11.2601 C   0  0  0  0  0  0  0  0  0  0  0  0
   48.0725   14.0532   11.0760 C   0  0  2  0  0  0  0  0  0  0  0  0
   46.6750   13.6273   11.5592 C   0  0  0  0  0  0  0  0  0  0  0  0
   45.7986   13.0143   10.4539 C   0  0  1  0  0  0  0  0  0  0  0  0
   46.5916   12.2850    9.3556 C   0  0  0  0  0  0  0  0  0  0  0  0
   44.8601   12.1194   11.0891 O   0  0  0  0  0  0  0  0  0  0  0  0
   43.7398   11.7988   10.3778 C   0  0  0  0  0  0  0  0  0  0  0  0
   43.4810   12.2104    9.2544 O   0  0  0  0  0  0  0  0  0  0  0  0
   42.8788   10.8313   11.1772 C   0  0  2  0  0  0  0  0  0  0  0  0
   43.0430    9.4281   10.5795 C   0  0  0  0  0  0  0  0  0  0  0  0
   44.2459    8.8116   11.0439 O   0  0  0  0  0  0  0  0  0  0  0  0
   41.4219   11.2693   11.2335 C   0  0  0  0  0  0  0  0  0  0  0  0
   40.8699   11.7048   12.4488 C   0  0  0  0  0  0  0  0  0  0  0  0
   39.5342   12.1062   12.5213 C   0  0  0  0  0  0  0  0  0  0  0  0
   38.7345   12.0800   11.3813 C   0  0  0  0  0  0  0  0  0  0  0  0
   39.2693   11.6580   10.1666 C   0  0  0  0  0  0  0  0  0  0  0  0
   40.6043   11.2567   10.0920 C   0  0  0  0  0  0  0  0  0  0  0  0
   40.4516   10.1135   11.3001 C   0  0  0  0  0  0  0  0  0  0  0  0
   41.7576   10.7667   11.3447 N   0  0  0  0  0  0  0  0  0  0  0  0
   42.5029   10.6453   10.0774 C   0  0  1  0  0  0  0  0  0  0  0  0
   41.8840   11.7056    9.1603 C   0  0  0  0  0  0  0  0  0  0  0  0
   41.3253   12.7568   10.1115 C   0  0  0  0  0  0  0  0  0  0  0  0
   41.6635   12.2287   11.5105 C   0  0  2  0  0  0  0  0  0  0  0  0
   43.0405   12.7438   11.9701 C   0  0  0  0  0  0  0  0  0  0  0  0
   44.1948   11.7803   11.6489 C   0  0  1  0  0  0  0  0  0  0  0  0
   43.9826   10.9618   10.3646 C   0  0  0  0  0  0  0  0  0  0  0  0
   45.4030   12.5609   11.5456 O   0  0  0  0  0  0  0  0  0  0  0  0
   46.5749   11.9077   11.7847 C   0  0  0  0  0  0  0  0  0  0  0  0
   46.6709   10.7199   12.0788 O   0  0  0  0  0  0  0  0  0  0  0  0
   47.7788   12.8115   11.5708 C   0  0  2  0  0  0  0  0  0  0  0  0
   47.6320   14.1397   12.3254 C   0  0  0  0  0  0  0  0  0  0  0  0
   47.7915   13.9554   13.7328 O   0  0  0  0  0  0  0  0  0  0  0  0
   48.0685   12.9953   10.0888 C   0  0  0  0  0  0  0  0  0  0  0  0
   47.2971   13.8508    9.2850 C   0  0  0  0  0  0  0  0  0  0  0  0
   47.5737   13.9890    7.9233 C   0  0  0  0  0  0  0  0  0  0  0  0
   48.6199   13.2729    7.3458 C   0  0  0  0  0  0  0  0  0  0  0  0
   49.3857   12.4111    8.1281 C   0  0  0  0  0  0  0  0  0  0  0  0
   49.1111   12.2703    9.4898 C   0  0  0  0  0  0  0  0  0  0  0  0
   44.7559   12.6736   10.4615 S   0  0  0  0  0  0  0  0  0  0  0  0
   45.1161   13.7393   11.3616 O   0  0  0  0  0  0  0  0  0  0  0  0
   46.1307   11.9919    9.9948 O   0  0  0  0  0  0  0  0  0  0  0  0
   44.0986   11.4860   11.3171 O   0  0  0  0  0  0  0  0  0  0  0  0
   43.9214   12.8513    9.2999 O   0  0  0  0  0  0  0  0  0  0  0  0
   44.7761   12.6248   10.5101 O   0  0  0  0  0  0  0  0  0  0  0  0
   44.7767   12.6252   10.5099 O   0  0  0  0  0  0  0  0  0  0  0  0
   49.0265   15.1641    8.0189 H   0  0  0  0  0  0  0  0  0  0  0  0
   49.0879   16.0615    9.5290 H   0  0  0  0  0  0  0  0  0  0  0  0
   50.1010   14.6225    9.3203 H   0  0  0  0  0  0  0  0  0  0  0  0
   48.2236   12.8110    8.0404 H   0  0  0  0  0  0  0  0  0  0  0  0
   48.8163   11.0890   10.1040 H   0  0  0  0  0  0  0  0  0  0  0  0
   50.0281   12.1991    9.4623 H   0  0  0  0  0  0  0  0  0  0  0  0
   48.8600   12.2698   12.1132 H   0  0  0  0  0  0  0  0  0  0  0  0
   50.0937   13.3221   11.4158 H   0  0  0  0  0  0  0  0  0  0  0  0
   48.3826   14.9478   11.6298 H   0  0  0  0  0  0  0  0  0  0  0  0
   46.1469   14.5146   11.9369 H   0  0  0  0  0  0  0  0  0  0  0  0
   46.7447   12.9504   12.4200 H   0  0  0  0  0  0  0  0  0  0  0  0
   45.2367   13.8404    9.9939 H   0  0  0  0  0  0  0  0  0  0  0  0
   46.6477   11.2105    9.5703 H   0  0  0  0  0  0  0  0  0  0  0  0
   46.0140   12.3627    8.4239 H   0  0  0  0  0  0  0  0  0  0  0  0
   43.2674   10.8158   12.2050 H   0  0  0  0  0  0  0  0  0  0  0  0
   43.0846    9.4512    9.4848 H   0  0  0  0  0  0  0  0  0  0  0  0
   42.2145    8.7689   10.8659 H   0  0  0  0  0  0  0  0  0  0  0  0
   44.1195    8.5888   11.9828 H   0  0  0  0  0  0  0  0  0  0  0  0
   41.4745   11.7386   13.3520 H   0  0  0  0  0  0  0  0  0  0  0  0
   39.1179   12.4424   13.4680 H   0  0  0  0  0  0  0  0  0  0  0  0
   37.6961   12.3967   11.4368 H   0  0  0  0  0  0  0  0  0  0  0  0
   38.6501   11.6483    9.2735 H   0  0  0  0  0  0  0  0  0  0  0  0
   41.0045   10.9508    9.1259 H   0  0  0  0  0  0  0  0  0  0  0  0
   40.5775    9.0373   11.1402 H   0  0  0  0  0  0  0  0  0  0  0  0
   39.7889   10.4956   10.5173 H   0  0  0  0  0  0  0  0  0  0  0  0
   39.9417   10.2314   12.2622 H   0  0  0  0  0  0  0  0  0  0  0  0
   42.4344    9.6485    9.6261 H   0  0  0  0  0  0  0  0  0  0  0  0
   42.5986   12.1393    8.4531 H   0  0  0  0  0  0  0  0  0  0  0  0
   41.0648   11.2741    8.5731 H   0  0  0  0  0  0  0  0  0  0  0  0
   41.7447   13.7484    9.9112 H   0  0  0  0  0  0  0  0  0  0  0  0
   40.2386   12.8314    9.9782 H   0  0  0  0  0  0  0  0  0  0  0  0
   40.9056   12.5355   12.2413 H   0  0  0  0  0  0  0  0  0  0  0  0
   43.0230   12.8771   13.0607 H   0  0  0  0  0  0  0  0  0  0  0  0
   43.2448   13.7436   11.5649 H   0  0  0  0  0  0  0  0  0  0  0  0
   44.2845   11.0895   12.5005 H   0  0  0  0  0  0  0  0  0  0  0  0
   44.5254   10.0142   10.4855 H   0  0  0  0  0  0  0  0  0  0  0  0
   44.4567   11.4561    9.5072 H   0  0  0  0  0  0  0  0  0  0  0  0
   48.6262   12.2820   12.0301 H   0  0  0  0  0  0  0  0  0  0  0  0
   46.6571   14.6112   12.1645 H   0  0  0  0  0  0  0  0  0  0  0  0
   48.3958   14.8589   12.0068 H   0  0  0  0  0  0  0  0  0  0  0  0
   48.7259   13.7460   13.9035 H   0  0  0  0  0  0  0  0  0  0  0  0
   46.4653   14.4135    9.7062 H   0  0  0  0  0  0  0  0  0  0  0  0
   46.9672   14.6514    7.3105 H   0  0  0  0  0  0  0  0  0  0  0  0
   48.8337   13.3799    6.2854 H   0  0  0  0  0  0  0  0  0  0  0  0
   50.1965   11.8440    7.6771 H   0  0  0  0  0  0  0  0  0  0  0  0
   49.7168   11.5829   10.0786 H   0  0  0  0  0  0  0  0  0  0  0  0
   46.7951   12.1793   10.6909 H   0  0  0  0  0  0  0  0  0  0  0  0
   43.6592   10.8809   10.6856 H   0  0  0  0  0  0  0  0  0  0  0  0
   44.3060   11.8082   10.7363 H   0  0  0  0  0  0  0  0  0  0  0  0
   45.6938   12.3395   10.3870 H   0  0  0  0  0  0  0  0  0  0  0  0
   44.3055   11.8094   10.7362 H   0  0  0  0  0  0  0  0  0  0  0  0
   45.6938   12.3378   10.3873 H   0  0  0  0  0  0  0  0  0  0  0  0
  1  2  1  0
  3  2  1  0
  3  4  1  0
  4  5  1  0
  6  5  1  0
  6  2  1  0
  6  7  1  0
  7  8  1  0
  8  9  1  0
  3  9  1  0
  8 10  1  0
 10 11  1  0
 11 12  2  0
 11 13  1  0
 13 14  1  0
 14 15  1  0
 13 16  1  0
 16 17  2  0
 17 18  1  0
 18 19  2  0
 19 20  1  0
 20 21  2  0
 16 21  1  0
 22 23  1  0
 24 23  1  0
 24 25  1  0
 25 26  1  0
 27 26  1  0
 27 23  1  0
 27 28  1  0
 28 29  1  0
 29 30  1  0
 24 30  1  0
 29 31  1  0
 31 32  1  0
 32 33  2  0
 32 34  1  0
 34 35  1  0
 35 36  1  0
 34 37  1  0
 37 38  2  0
 38 39  1  0
 39 40  2  0
 40 41  1  0
 41 42  2  0
 37 42  1  0
 43 44  2  0
 43 45  1  0
 43 46  1  0
 43 47  2  0
  1 50  1  0
  1 51  1  0
  1 52  1  0
  3 53  1  6
  4 54  1  0
  4 55  1  0
  5 56  1  0
  5 57  1  0
  6 58  1  1
  7 59  1  0
  7 60  1  0
  8 61  1  6
  9 62  1  0
  9 63  1  0
 13 64  1  1
 14 65  1  0
 14 66  1  0
 15 67  1  0
 17 68  1  0
 18 69  1  0
 19 70  1  0
 20 71  1  0
 21 72  1  0
 22 73  1  0
 22 74  1  0
 22 75  1  0
 24 76  1  6
 25 77  1  0
 25 78  1  0
 26 79  1  0
 26 80  1  0
 27 81  1  1
 28 82  1  0
 28 83  1  0
 29 84  1  1
 30 85  1  0
 30 86  1  0
 34 87  1  1
 35 88  1  0
 35 89  1  0
 36 90  1  0
 38 91  1  0
 39 92  1  0
 40 93  1  0
 41 94  1  0
 42 95  1  0
 45 96  1  0
 46 97  1  0
 48 98  1  0
 48 99  1  0
 49100  1  0
 49101  1  0
M  END
> <Uni-Dock RESULT> 
ENERGY=   -4.587  LOWER_BOUND=   10.233  UPPER_BOUND=   11.940
INTER + INTRA:          -4.587
INTER:                  -4.587
INTRA:                   0.000
UNBOUND:                 0.000

$$$$

     RDKit          3D

101102  0  0  0  0  0  0  0  0999 V2000
   48.0176    6.9542   15.2648 C   0  0  0  0  0  0  0  0  0  0  0  0
   48.9321    6.1996   16.1199 N   0  0  0  0  0  0  0  0  0  0  0  0
   49.4056    6.9783   17.2805 C   0  0  1  0  0  0  0  0  0  0  0  0
   48.2454    6.9330   18.2807 C   0  0  0  0  0  0  0  0  0  0  0  0
   47.5119    5.6397   17.9523 C   0  0  0  0  0  0  0  0  0  0  0  0
   48.2851    5.0451   16.7681 C   0  0  2  0  0  0  0  0  0  0  0  0
   49.3957    4.0981   17.2555 C   0  0  0  0  0  0  0  0  0  0  0  0
   50.7536    4.7908   17.4600 C   0  0  1  0  0  0  0  0  0  0  0  0
   50.6489    6.2741   17.8551 C   0  0  0  0  0  0  0  0  0  0  0  0
   51.4769    4.0430   18.4613 O   0  0  0  0  0  0  0  0  0  0  0  0
   52.8309    4.2146   18.4967 C   0  0  0  0  0  0  0  0  0  0  0  0
   53.4641    4.9494   17.7500 O   0  0  0  0  0  0  0  0  0  0  0  0
   53.4287    3.3808   19.6209 C   0  0  2  0  0  0  0  0  0  0  0  0
   53.7901    4.3178   20.7805 C   0  0  0  0  0  0  0  0  0  0  0  0
   52.6367    4.6298   21.5648 O   0  0  0  0  0  0  0  0  0  0  0  0
   54.6180    2.5533   19.1535 C   0  0  0  0  0  0  0  0  0  0  0  0
   54.5122    1.1550   19.0847 C   0  0  0  0  0  0  0  0  0  0  0  0
   55.5936    0.3786   18.6628 C   0  0  0  0  0  0  0  0  0  0  0  0
   56.7926    0.9887   18.3022 C   0  0  0  0  0  0  0  0  0  0  0  0
   56.9109    2.3753   18.3575 C   0  0  0  0  0  0  0  0  0  0  0  0
   55.8310    3.1532   18.7787 C   0  0  0  0  0  0  0  0  0  0  0  0
   55.6585    2.3408   20.2278 C   0  0  0  0  0  0  0  0  0  0  0  0
   54.3635    2.7391   19.6812 N   0  0  0  0  0  0  0  0  0  0  0  0
   54.2635    4.1917   19.4443 C   0  0  1  0  0  0  0  0  0  0  0  0
   55.0115    4.4223   18.1269 C   0  0  0  0  0  0  0  0  0  0  0  0
   54.9130    3.0912   17.3916 C   0  0  0  0  0  0  0  0  0  0  0  0
   54.1130    2.1875   18.3370 C   0  0  2  0  0  0  0  0  0  0  0  0
   52.6035    2.2995   18.0517 C   0  0  0  0  0  0  0  0  0  0  0  0
   51.8899    3.3455   18.9238 C   0  0  1  0  0  0  0  0  0  0  0  0
   52.7720    4.5476   19.3001 C   0  0  0  0  0  0  0  0  0  0  0  0
   50.7218    3.7928   18.2062 O   0  0  0  0  0  0  0  0  0  0  0  0
   49.6983    4.2917   18.9552 C   0  0  0  0  0  0  0  0  0  0  0  0
   49.7021    4.3835   20.1791 O   0  0  0  0  0  0  0  0  0  0  0  0
   48.5588    4.8003   18.0865 C   0  0  2  0  0  0  0  0  0  0  0  0
   48.1287    3.7565   17.0469 C   0  0  0  0  0  0  0  0  0  0  0  0
   47.4217    2.6772   17.6595 O   0  0  0  0  0  0  0  0  0  0  0  0
   48.8991    6.1498   17.4724 C   0  0  0  0  0  0  0  0  0  0  0  0
   49.7711    6.2653   16.3774 C   0  0  0  0  0  0  0  0  0  0  0  0
   50.0802    7.5178   15.8428 C   0  0  0  0  0  0  0  0  0  0  0  0
   49.5270    8.6704   16.3963 C   0  0  0  0  0  0  0  0  0  0  0  0
   48.6702    8.5723   17.4906 C   0  0  0  0  0  0  0  0  0  0  0  0
   48.3598    7.3214   18.0276 C   0  0  0  0  0  0  0  0  0  0  0  0
   51.7365    4.3907   17.7377 S   0  0  0  0  0  0  0  0  0  0  0  0
   50.8422    3.5219   17.0159 O   0  0  0  0  0  0  0  0  0  0  0  0
   50.8385    5.5912   18.3076 O   0  0  0  0  0  0  0  0  0  0  0  0
   52.1694    3.6578   19.0978 O   0  0  0  0  0  0  0  0  0  0  0  0
   52.9387    4.9521   17.1749 O   0  0  0  0  0  0  0  0  0  0  0  0
   51.7067    4.3708   17.7999 O   0  0  0  0  0  0  0  0  0  0  0  0
   51.7062    4.3712   17.7995 O   0  0  0  0  0  0  0  0  0  0  0  0
   48.5393    7.8090   14.8223 H   0  0  0  0  0  0  0  0  0  0  0  0
   47.6808    6.3255   14.4329 H   0  0  0  0  0  0  0  0  0  0  0  0
   47.1303    7.3301   15.7850 H   0  0  0  0  0  0  0  0  0  0  0  0
   49.6662    8.0125   17.0293 H   0  0  0  0  0  0  0  0  0  0  0  0
   48.5728    6.9592   19.3250 H   0  0  0  0  0  0  0  0  0  0  0  0
   47.5711    7.7841   18.1298 H   0  0  0  0  0  0  0  0  0  0  0  0
   47.4667    4.9712   18.8178 H   0  0  0  0  0  0  0  0  0  0  0  0
   46.4796    5.8681   17.6615 H   0  0  0  0  0  0  0  0  0  0  0  0
   47.6133    4.4913   16.1009 H   0  0  0  0  0  0  0  0  0  0  0  0
   49.5436    3.3109   16.5024 H   0  0  0  0  0  0  0  0  0  0  0  0
   49.0897    3.5668   18.1654 H   0  0  0  0  0  0  0  0  0  0  0  0
   51.2988    4.7171   16.5076 H   0  0  0  0  0  0  0  0  0  0  0  0
   50.7013    6.3868   18.9452 H   0  0  0  0  0  0  0  0  0  0  0  0
   51.5434    6.7828   17.4697 H   0  0  0  0  0  0  0  0  0  0  0  0
   52.6496    2.6877   19.9677 H   0  0  0  0  0  0  0  0  0  0  0  0
   54.2148    5.2637   20.4260 H   0  0  0  0  0  0  0  0  0  0  0  0
   54.5218    3.8585   21.4562 H   0  0  0  0  0  0  0  0  0  0  0  0
   52.3897    3.8278   22.0576 H   0  0  0  0  0  0  0  0  0  0  0  0
   53.5856    0.6548   19.3567 H   0  0  0  0  0  0  0  0  0  0  0  0
   55.4996   -0.7036   18.6129 H   0  0  0  0  0  0  0  0  0  0  0  0
   57.6329    0.3847   17.9695 H   0  0  0  0  0  0  0  0  0  0  0  0
   57.8418    2.8539   18.0651 H   0  0  0  0  0  0  0  0  0  0  0  0
   55.9421    4.2369   18.7931 H   0  0  0  0  0  0  0  0  0  0  0  0
   55.8086    2.8051   21.2084 H   0  0  0  0  0  0  0  0  0  0  0  0
   56.5104    2.6071   19.5944 H   0  0  0  0  0  0  0  0  0  0  0  0
   55.6802    1.2572   20.3858 H   0  0  0  0  0  0  0  0  0  0  0  0
   54.6958    4.7949   20.2512 H   0  0  0  0  0  0  0  0  0  0  0  0
   54.6004    5.2443   17.5317 H   0  0  0  0  0  0  0  0  0  0  0  0
   56.0655    4.6544   18.3196 H   0  0  0  0  0  0  0  0  0  0  0  0
   54.4476    3.2057   16.4069 H   0  0  0  0  0  0  0  0  0  0  0  0
   55.9201    2.6867   17.2292 H   0  0  0  0  0  0  0  0  0  0  0  0
   54.4191    1.1396   18.2330 H   0  0  0  0  0  0  0  0  0  0  0  0
   52.1311    1.3289   18.2573 H   0  0  0  0  0  0  0  0  0  0  0  0
   52.4146    2.4875   16.9866 H   0  0  0  0  0  0  0  0  0  0  0  0
   51.5726    2.8347   19.8452 H   0  0  0  0  0  0  0  0  0  0  0  0
   52.4098    4.9320   20.2635 H   0  0  0  0  0  0  0  0  0  0  0  0
   52.6271    5.3719   18.5902 H   0  0  0  0  0  0  0  0  0  0  0  0
   47.7072    4.9315   18.7699 H   0  0  0  0  0  0  0  0  0  0  0  0
   48.9768    3.3272   16.5038 H   0  0  0  0  0  0  0  0  0  0  0  0
   47.4572    4.1985   16.3013 H   0  0  0  0  0  0  0  0  0  0  0  0
   46.5582    3.0138   17.9544 H   0  0  0  0  0  0  0  0  0  0  0  0
   50.2283    5.3830   15.9320 H   0  0  0  0  0  0  0  0  0  0  0  0
   50.7594    7.5947   14.9973 H   0  0  0  0  0  0  0  0  0  0  0  0
   49.7691    9.6451   15.9806 H   0  0  0  0  0  0  0  0  0  0  0  0
   48.2451    9.4715   17.9301 H   0  0  0  0  0  0  0  0  0  0  0  0
   47.6960    7.2707   18.8895 H   0  0  0  0  0  0  0  0  0  0  0  0
   49.9194    5.2566   18.3730 H   0  0  0  0  0  0  0  0  0  0  0  0
   52.9368    4.1458   19.4599 H   0  0  0  0  0  0  0  0  0  0  0  0
   52.1745    4.1671   18.6237 H   0  0  0  0  0  0  0  0  0  0  0  0
   50.9965    4.9691   18.0765 H   0  0  0  0  0  0  0  0  0  0  0  0
   52.1748    4.1666   18.6225 H   0  0  0  0  0  0  0  0  0  0  0  0
   50.9967    4.9692   18.0782 H   0  0  0  0  0  0  0  0  0  0  0  0
  1  2  1  0
  3  2  1  0
  3  4  1  0
  4  5  1  0
  6  5  1  0
  6  2  1  0
  6  7  1  0
  7  8  1  0
  8  9  1  0
  3  9  1  0
  8 10  1  0
 10 11  1  0
 11 12  2  0
 11 13  1  0
 13 14  1  0
 14 15  1  0
 13 16  1  0
 16 17  2  0
 17 18  1  0
 18 19  2  0
 19 20  1  0
 20 21  2  0
 16 21  1  0
 22 23  1  0
 24 23  1  0
 24 25  1  0
 25 26  1  0
 27 26  1  0
 27 23  1  0
 27 28  1  0
 28 29  1  0
 29 30  1  0
 24 30  1  0
 29 31  1  0
 31 32  1  0
 32 33  2  0
 32 34  1  0
 34 35  1  0
 35 36  1  0
 34 37  1  0
 37 38  2  0
 38 39  1  0
 39 40  2  0
 40 41  1  0
 41 42  2  0
 37 42  1  0
 43 44  2  0
 43 45  1  0
 43 46  1  0
 43 47  2  0
  1 50  1  0
  1 51  1  0
  1 52  1  0
  3 53  1  6
  4 54  1  0
  4 55  1  0
  5 56  1  0
  5 57  1  0
  6 58  1  1
  7 59  1  0
  7 60  1  0
  8 61  1  6
  9 62  1  0
  9 63  1  0
 13 64  1  1
 14 65  1  0
 14 66  1  0
 15 67  1  0
 17 68  1  0
 18 69  1  0
 19 70  1  0
 20 71  1  0
 21 72  1  0
 22 73  1  0
 22 74  1  0
 22 75  1  0
 24 76  1  6
 25 77  1  0
 25 78  1  0
 26 79  1  0
 26 80  1  0
 27 81  1  1
 28 82  1  0
 28 83  1  0
 29 84  1  1
 30 85  1  0
 30 86  1  0
 34 87  1  1
 35 88  1  0
 35 89  1  0
 36 90  1  0
 38 91  1  0
 39 92  1  0
 40 93  1  0
 41 94  1  0
 42 95  1  0
 45 96  1  0
 46 97  1  0
 48 98  1  0
 48 99  1  0
 49100  1  0
 49101  1  0
M  END
> <Uni-Dock RESULT> 
ENERGY=   -4.551  LOWER_BOUND=    3.989  UPPER_BOUND=    6.410
INTER + INTRA:          -4.551
INTER:                  -4.551
INTRA:                   0.000
UNBOUND:                 0.000

$$$$

     RDKit          3D

101102  0  0  0  0  0  0  0  0999 V2000
   47.1483    5.8380   21.4591 C   0  0  0  0  0  0  0  0  0  0  0  0
   47.8147    6.0611   20.1773 N   0  0  0  0  0  0  0  0  0  0  0  0
   49.2712    6.2546   20.3145 C   0  0  1  0  0  0  0  0  0  0  0  0
   49.8373    4.8422   20.4968 C   0  0  0  0  0  0  0  0  0  0  0  0
   48.8317    3.9375   19.7976 C   0  0  0  0  0  0  0  0  0  0  0  0
   47.7432    4.8898   19.2859 C   0  0  2  0  0  0  0  0  0  0  0  0
   48.0573    5.3681   17.8574 C   0  0  0  0  0  0  0  0  0  0  0  0
   48.8629    6.6773   17.8067 C   0  0  1  0  0  0  0  0  0  0  0  0
   49.7952    6.8883   19.0123 C   0  0  0  0  0  0  0  0  0  0  0  0
   49.6121    6.6794   16.5723 O   0  0  0  0  0  0  0  0  0  0  0  0
   50.0535    7.8911   16.1241 C   0  0  0  0  0  0  0  0  0  0  0  0
   49.8619    8.9598   16.6893 O   0  0  0  0  0  0  0  0  0  0  0  0
   50.8433    7.7096   14.8357 C   0  0  2  0  0  0  0  0  0  0  0  0
   52.3361    7.8552   15.1573 C   0  0  0  0  0  0  0  0  0  0  0  0
   52.8625    6.6438   15.7033 O   0  0  0  0  0  0  0  0  0  0  0  0
   50.3905    8.6686   13.7434 C   0  0  0  0  0  0  0  0  0  0  0  0
   49.7263    8.1729   12.6102 C   0  0  0  0  0  0  0  0  0  0  0  0
   49.3073    9.0363   11.5955 C   0  0  0  0  0  0  0  0  0  0  0  0
   49.5442   10.4047   11.7012 C   0  0  0  0  0  0  0  0  0  0  0  0
   50.1949   10.9129   12.8228 C   0  0  0  0  0  0  0  0  0  0  0  0
   50.6142   10.0516   13.8382 C   0  0  0  0  0  0  0  0  0  0  0  0
   51.5042    9.0816   12.8103 C   0  0  0  0  0  0  0  0  0  0  0  0
   50.8654    8.2978   13.8647 N   0  0  0  0  0  0  0  0  0  0  0  0
   51.2328    8.7521   15.2193 C   0  0  1  0  0  0  0  0  0  0  0  0
   50.3622    9.9893   15.4630 C   0  0  0  0  0  0  0  0  0  0  0  0
   49.1440    9.7831   14.5710 C   0  0  0  0  0  0  0  0  0  0  0  0
   49.3979    8.4396   13.8773 C   0  0  2  0  0  0  0  0  0  0  0  0
   48.8159    7.2789   14.7060 C   0  0  0  0  0  0  0  0  0  0  0  0
   49.8326    6.6402   15.6662 C   0  0  1  0  0  0  0  0  0  0  0  0
   50.8796    7.6266   16.2096 C   0  0  0  0  0  0  0  0  0  0  0  0
   49.0961    6.0485   16.7559 O   0  0  0  0  0  0  0  0  0  0  0  0
   49.7013    5.0212   17.4159 C   0  0  0  0  0  0  0  0  0  0  0  0
   50.8118    4.5712   17.1497 O   0  0  0  0  0  0  0  0  0  0  0  0
   48.8650    4.5327   18.5880 C   0  0  2  0  0  0  0  0  0  0  0  0
   47.4159    4.2475   18.1710 C   0  0  0  0  0  0  0  0  0  0  0  0
   47.3293    3.0615   17.3799 O   0  0  0  0  0  0  0  0  0  0  0  0
   48.9701    5.4850   19.7696 C   0  0  0  0  0  0  0  0  0  0  0  0
   48.2776    6.7068   19.7986 C   0  0  0  0  0  0  0  0  0  0  0  0
   48.4044    7.5708   20.8883 C   0  0  0  0  0  0  0  0  0  0  0  0
   49.2262    7.2291   21.9600 C   0  0  0  0  0  0  0  0  0  0  0  0
   49.9291    6.0263   21.9395 C   0  0  0  0  0  0  0  0  0  0  0  0
   49.8048    5.1606   20.8511 C   0  0  0  0  0  0  0  0  0  0  0  0
   49.1872    7.2960   16.9609 S   0  0  0  0  0  0  0  0  0  0  0  0
   47.9722    6.5377   16.8054 O   0  0  0  0  0  0  0  0  0  0  0  0
   49.9569    6.6641   18.2182 O   0  0  0  0  0  0  0  0  0  0  0  0
   50.1840    6.9100   15.7643 O   0  0  0  0  0  0  0  0  0  0  0  0
   49.2278    8.7318   17.0801 O   0  0  0  0  0  0  0  0  0  0  0  0
   49.2260    7.2397   16.9394 O   0  0  0  0  0  0  0  0  0  0  0  0
   49.2257    7.2395   16.9400 O   0  0  0  0  0  0  0  0  0  0  0  0
   47.2447    6.7274   22.0903 H   0  0  0  0  0  0  0  0  0  0  0  0
   46.0759    5.6798   21.2993 H   0  0  0  0  0  0  0  0  0  0  0  0
   47.5366    4.9807   22.0191 H   0  0  0  0  0  0  0  0  0  0  0  0
   49.5436    6.8979   21.1585 H   0  0  0  0  0  0  0  0  0  0  0  0
   50.8445    4.7231   20.0848 H   0  0  0  0  0  0  0  0  0  0  0  0
   49.8876    4.5799   21.5600 H   0  0  0  0  0  0  0  0  0  0  0  0
   49.3021    3.3517   19.0015 H   0  0  0  0  0  0  0  0  0  0  0  0
   48.4126    3.2282   20.5212 H   0  0  0  0  0  0  0  0  0  0  0  0
   46.7619    4.3998   19.2888 H   0  0  0  0  0  0  0  0  0  0  0  0
   47.1099    5.5499   17.3301 H   0  0  0  0  0  0  0  0  0  0  0  0
   48.5578    4.5813   17.2792 H   0  0  0  0  0  0  0  0  0  0  0  0
   48.1353    7.5015   17.7749 H   0  0  0  0  0  0  0  0  0  0  0  0
   50.8093    6.5396   18.7805 H   0  0  0  0  0  0  0  0  0  0  0  0
   49.8921    7.9716   19.1696 H   0  0  0  0  0  0  0  0  0  0  0  0
   50.6653    6.6847   14.4814 H   0  0  0  0  0  0  0  0  0  0  0  0
   52.5229    8.6540   15.8837 H   0  0  0  0  0  0  0  0  0  0  0  0
   52.9215    8.0816   14.2578 H   0  0  0  0  0  0  0  0  0  0  0  0
   52.9008    5.9887   14.9847 H   0  0  0  0  0  0  0  0  0  0  0  0
   49.5255    7.1092   12.5058 H   0  0  0  0  0  0  0  0  0  0  0  0
   48.7931    8.6409   10.7228 H   0  0  0  0  0  0  0  0  0  0  0  0
   49.2141   11.0773   10.9136 H   0  0  0  0  0  0  0  0  0  0  0  0
   50.3700   11.9817   12.9125 H   0  0  0  0  0  0  0  0  0  0  0  0
   51.1023   10.4761   14.7149 H   0  0  0  0  0  0  0  0  0  0  0  0
   52.5922    8.9689   12.8682 H   0  0  0  0  0  0  0  0  0  0  0  0
   51.2732   10.1507   12.8478 H   0  0  0  0  0  0  0  0  0  0  0  0
   51.2005    8.7043   11.8279 H   0  0  0  0  0  0  0  0  0  0  0  0
   52.2969    8.9949   15.3230 H   0  0  0  0  0  0  0  0  0  0  0  0
   50.0774   10.1207   16.5121 H   0  0  0  0  0  0  0  0  0  0  0  0
   50.8911   10.8980   15.1521 H   0  0  0  0  0  0  0  0  0  0  0  0
   48.2124    9.8026   15.1465 H   0  0  0  0  0  0  0  0  0  0  0  0
   49.0872   10.5945   13.8344 H   0  0  0  0  0  0  0  0  0  0  0  0
   48.9509    8.4227   12.8760 H   0  0  0  0  0  0  0  0  0  0  0  0
   48.4766    6.4898   14.0207 H   0  0  0  0  0  0  0  0  0  0  0  0
   47.9136    7.5923   15.2474 H   0  0  0  0  0  0  0  0  0  0  0  0
   50.3487    5.8454   15.1073 H   0  0  0  0  0  0  0  0  0  0  0  0
   51.7911    7.0523   16.4254 H   0  0  0  0  0  0  0  0  0  0  0  0
   50.5621    8.0345   17.1777 H   0  0  0  0  0  0  0  0  0  0  0  0
   49.3041    3.5667   18.8770 H   0  0  0  0  0  0  0  0  0  0  0  0
   46.9758    5.0634   17.5887 H   0  0  0  0  0  0  0  0  0  0  0  0
   46.7772    4.0955   19.0491 H   0  0  0  0  0  0  0  0  0  0  0  0
   47.5100    2.3012   17.9590 H   0  0  0  0  0  0  0  0  0  0  0  0
   47.6379    7.0060   18.9697 H   0  0  0  0  0  0  0  0  0  0  0  0
   47.8662    8.5155   20.8977 H   0  0  0  0  0  0  0  0  0  0  0  0
   49.3256    7.9029   22.8073 H   0  0  0  0  0  0  0  0  0  0  0  0
   50.5786    5.7624   22.7707 H   0  0  0  0  0  0  0  0  0  0  0  0
   50.3721    4.2310   20.8530 H   0  0  0  0  0  0  0  0  0  0  0  0
   49.6455    5.7391   18.3105 H   0  0  0  0  0  0  0  0  0  0  0  0
   50.8949    7.5826   15.7492 H   0  0  0  0  0  0  0  0  0  0  0  0
   49.9804    7.2580   16.3315 H   0  0  0  0  0  0  0  0  0  0  0  0
   49.5372    6.7001   17.6815 H   0  0  0  0  0  0  0  0  0  0  0  0
   49.9793    7.2585   16.3313 H   0  0  0  0  0  0  0  0  0  0  0  0
   49.5388    6.6997   17.6811 H   0  0  0  0  0  0  0  0  0  0  0  0
  1  2  1  0
  3  2  1  0
  3  4  1  0
  4  5  1  0
  6  5  1  0
  6  2  1  0
  6  7  1  0
  7  8  1  0
  8  9  1  0
  3  9  1  0
  8 10  1  0
 10 11  1  0
 11 12  2  0
 11 13  1  0
 13 14  1  0
 14 15  1  0
 13 16  1  0
 16 17  2  0
 17 18  1  0
 18 19  2  0
 19 20  1  0
 20 21  2  0
 16 21  1  0
 22 23  1  0
 24 23  1  0
 24 25  1  0
 25 26  1  0
 27 26  1  0
 27 23  1  0
 27 28  1  0
 28 29  1  0
 29 30  1  0
 24 30  1  0
 29 31  1  0
 31 32  1  0
 32 33  2  0
 32 34  1  0
 34 35  1  0
 35 36  1  0
 34 37  1  0
 37 38  2  0
 38 39  1  0
 39 40  2  0
 40 41  1  0
 41 42  2  0
 37 42  1  0
 43 44  2  0
 43 45  1  0
 43 46  1  0
 43 47  2  0
  1 50  1  0
  1 51  1  0
  1 52  1  0
  3 53  1  6
  4 54  1  0
  4 55  1  0
  5 56  1  0
  5 57  1  0
  6 58  1  1
  7 59  1  0
  7 60  1  0
  8 61  1  6
  9 62  1  0
  9 63  1  0
 13 64  1  1
 14 65  1  0
 14 66  1  0
 15 67  1  0
 17 68  1  0
 18 69  1  0
 19 70  1  0
 20 71  1  0
 21 72  1  0
 22 73  1  0
 22 74  1  0
 22 75  1  0
 24 76  1  6
 25 77  1  0
 25 78  1  0
 26 79  1  0
 26 80  1  0
 27 81  1  1
 28 82  1  0
 28 83  1  0
 29 84  1  1
 30 85  1  0
 30 86  1  0
 34 87  1  1
 35 88  1  0
 35 89  1  0
 36 90  1  0
 38 91  1  0
 39 92  1  0
 40 93  1  0
 41 94  1  0
 42 95  1  0
 45 96  1  0
 46 97  1  0
 48 98  1  0
 48 99  1  0
 49100  1  0
 49101  1  0
M  END
> <Uni-Dock RESULT> 
ENERGY=   -4.516  LOWER_BOUND=    3.747  UPPER_BOUND=    6.138
INTER + INTRA:          -4.516
INTER:                  -4.516
INTRA:                   0.000
UNBOUND:                 0.000

$$$$
