
     RDKit          3D

101102  0  0  0  0  0  0  0  0999 V2000
   49.9156   12.1922   21.4052 C   0  0  0  0  0  0  0  0  0  0  0  0
   49.8682   11.4976   20.1192 N   0  0  0  0  0  0  0  0  0  0  0  0
   51.0648   11.7430   19.2941 C   0  0  1  0  0  0  0  0  0  0  0  0
   52.1387   10.8196   19.8795 C   0  0  0  0  0  0  0  0  0  0  0  0
   51.3549    9.6808   20.5176 C   0  0  0  0  0  0  0  0  0  0  0  0
   49.8855   10.0301   20.2619 C   0  0  2  0  0  0  0  0  0  0  0  0
   49.3986    9.4165   18.9370 C   0  0  0  0  0  0  0  0  0  0  0  0
   49.5769   10.3433   17.7233 C   0  0  1  0  0  0  0  0  0  0  0  0
   50.7359   11.3440   17.8452 C   0  0  0  0  0  0  0  0  0  0  0  0
   49.8066    9.5549   16.5352 O   0  0  0  0  0  0  0  0  0  0  0  0
   48.7006    9.0795   15.8861 C   0  0  0  0  0  0  0  0  0  0  0  0
   47.5534    9.2302   16.2869 O   0  0  0  0  0  0  0  0  0  0  0  0
   49.1220    8.2493   14.6772 C   0  0  2  0  0  0  0  0  0  0  0  0
   50.2295    8.9330   13.8557 C   0  0  0  0  0  0  0  0  0  0  0  0
   49.8610   10.2377   13.4142 O   0  0  0  0  0  0  0  0  0  0  0  0
   47.9613    7.8024   13.7936 C   0  0  0  0  0  0  0  0  0  0  0  0
   47.7169    6.4341   13.5931 C   0  0  0  0  0  0  0  0  0  0  0  0
   46.6750    6.0114   12.7650 C   0  0  0  0  0  0  0  0  0  0  0  0
   45.8654    6.9482   12.1254 C   0  0  0  0  0  0  0  0  0  0  0  0
   46.0929    8.3088   12.3186 C   0  0  0  0  0  0  0  0  0  0  0  0
   47.1323    8.7330   13.1477 C   0  0  0  0  0  0  0  0  0  0  0  0
   49.0813    7.0404   12.8935 C   0  0  0  0  0  0  0  0  0  0  0  0
   49.5368    7.0393   14.2699 N   0  0  0  0  0  0  0  0  0  0  0  0
   48.5192    7.3088   15.2911 C   0  0  1  0  0  0  0  0  0  0  0  0
   49.3847    7.2212   16.5519 C   0  0  0  0  0  0  0  0  0  0  0  0
   50.7774    7.6701   16.0939 C   0  0  0  0  0  0  0  0  0  0  0  0
   50.6104    7.9801   14.6014 C   0  0  2  0  0  0  0  0  0  0  0  0
   50.2086    9.4469   14.3577 C   0  0  0  0  0  0  0  0  0  0  0  0
   48.8889    9.8458   15.0373 C   0  0  1  0  0  0  0  0  0  0  0  0
   47.8724    8.6955   15.1179 C   0  0  0  0  0  0  0  0  0  0  0  0
   49.1272   10.3065   16.3842 O   0  0  0  0  0  0  0  0  0  0  0  0
   49.5178   11.6015   16.5310 C   0  0  0  0  0  0  0  0  0  0  0  0
   49.7523   12.3656   15.5964 O   0  0  0  0  0  0  0  0  0  0  0  0
   49.6496   12.0186   17.9826 C   0  0  2  0  0  0  0  0  0  0  0  0
   51.1253   11.9624   18.4033 C   0  0  0  0  0  0  0  0  0  0  0  0
   51.6928   10.6618   18.2915 O   0  0  0  0  0  0  0  0  0  0  0  0
   48.6392   11.3616   18.9175 C   0  0  0  0  0  0  0  0  0  0  0  0
   47.3819   11.9661   19.0986 C   0  0  0  0  0  0  0  0  0  0  0  0
   46.4167   11.3835   19.9215 C   0  0  0  0  0  0  0  0  0  0  0  0
   46.6881   10.1838   20.5724 C   0  0  0  0  0  0  0  0  0  0  0  0
   47.9224    9.5656   20.3950 C   0  0  0  0  0  0  0  0  0  0  0  0
   48.8898   10.1478   19.5726 C   0  0  0  0  0  0  0  0  0  0  0  0
   49.2534    9.9839   16.7243 S   0  0  0  0  0  0  0  0  0  0  0  0
   50.4185   10.5256   17.3770 O   0  0  0  0  0  0  0  0  0  0  0  0
   48.3933    9.1735   17.8093 O   0  0  0  0  0  0  0  0  0  0  0  0
   49.7782    8.7892   15.7900 O   0  0  0  0  0  0  0  0  0  0  0  0
   48.3204   10.7733   15.9630 O   0  0  0  0  0  0  0  0  0  0  0  0
   49.0785    9.2501   16.9820 O   0  0  0  0  0  0  0  0  0  0  0  0
   49.0780    9.2510   16.9834 O   0  0  0  0  0  0  0  0  0  0  0  0
   49.9133   13.2763   21.2453 H   0  0  0  0  0  0  0  0  0  0  0  0
   49.0208   11.9585   21.9934 H   0  0  0  0  0  0  0  0  0  0  0  0
   50.7922   11.9426   22.0114 H   0  0  0  0  0  0  0  0  0  0  0  0
   51.3972   12.7881   19.3094 H   0  0  0  0  0  0  0  0  0  0  0  0
   52.7205   11.3397   20.6511 H   0  0  0  0  0  0  0  0  0  0  0  0
   52.8477   10.4523   19.1301 H   0  0  0  0  0  0  0  0  0  0  0  0
   51.5619    9.6534   21.5942 H   0  0  0  0  0  0  0  0  0  0  0  0
   51.6460    8.7089   20.1074 H   0  0  0  0  0  0  0  0  0  0  0  0
   49.2481    9.6666   21.0768 H   0  0  0  0  0  0  0  0  0  0  0  0
   48.3253    9.2020   19.0251 H   0  0  0  0  0  0  0  0  0  0  0  0
   49.8694    8.4424   18.7552 H   0  0  0  0  0  0  0  0  0  0  0  0
   48.6591   10.9362   17.5981 H   0  0  0  0  0  0  0  0  0  0  0  0
   50.4436   12.2459   17.2886 H   0  0  0  0  0  0  0  0  0  0  0  0
   51.6285   10.9705   17.3278 H   0  0  0  0  0  0  0  0  0  0  0  0
   49.5630    7.3394   15.1112 H   0  0  0  0  0  0  0  0  0  0  0  0
   51.1451    9.0351   14.4496 H   0  0  0  0  0  0  0  0  0  0  0  0
   50.4735    8.3330   12.9715 H   0  0  0  0  0  0  0  0  0  0  0  0
   50.5525   10.5395   12.8012 H   0  0  0  0  0  0  0  0  0  0  0  0
   48.3326    5.6830   14.0837 H   0  0  0  0  0  0  0  0  0  0  0  0
   46.4949    4.9499   12.6189 H   0  0  0  0  0  0  0  0  0  0  0  0
   45.0554    6.6191   11.4791 H   0  0  0  0  0  0  0  0  0  0  0  0
   45.4564    9.0440   11.8334 H   0  0  0  0  0  0  0  0  0  0  0  0
   47.2912    9.8002   13.2907 H   0  0  0  0  0  0  0  0  0  0  0  0
   49.9067    6.7657   12.2276 H   0  0  0  0  0  0  0  0  0  0  0  0
   48.3025    6.2822   12.7560 H   0  0  0  0  0  0  0  0  0  0  0  0
   48.6782    7.9975   12.5534 H   0  0  0  0  0  0  0  0  0  0  0  0
   47.7458    6.5334   15.3062 H   0  0  0  0  0  0  0  0  0  0  0  0
   49.4402    6.1828   16.9021 H   0  0  0  0  0  0  0  0  0  0  0  0
   49.0024    7.8253   17.3805 H   0  0  0  0  0  0  0  0  0  0  0  0
   51.4891    6.8447   16.2331 H   0  0  0  0  0  0  0  0  0  0  0  0
   51.1473    8.5220   16.6720 H   0  0  0  0  0  0  0  0  0  0  0  0
   51.5347    7.7497   14.0581 H   0  0  0  0  0  0  0  0  0  0  0  0
   51.0270   10.0979   14.6913 H   0  0  0  0  0  0  0  0  0  0  0  0
   50.1086    9.6082   13.2774 H   0  0  0  0  0  0  0  0  0  0  0  0
   48.4193   10.6649   14.4765 H   0  0  0  0  0  0  0  0  0  0  0  0
   47.1747    8.8695   15.9490 H   0  0  0  0  0  0  0  0  0  0  0  0
   47.2671    8.6934   14.2021 H   0  0  0  0  0  0  0  0  0  0  0  0
   49.3922   13.0889   17.9958 H   0  0  0  0  0  0  0  0  0  0  0  0
   51.2387   12.2954   19.4410 H   0  0  0  0  0  0  0  0  0  0  0  0
   51.7164   12.6303   17.7657 H   0  0  0  0  0  0  0  0  0  0  0  0
   52.6365   10.7422   18.5151 H   0  0  0  0  0  0  0  0  0  0  0  0
   47.1396   12.8991   18.5929 H   0  0  0  0  0  0  0  0  0  0  0  0
   45.4508   11.8641   20.0502 H   0  0  0  0  0  0  0  0  0  0  0  0
   45.9366    9.7264   21.2097 H   0  0  0  0  0  0  0  0  0  0  0  0
   48.1328    8.6208   20.8901 H   0  0  0  0  0  0  0  0  0  0  0  0
   49.8322    9.6234   19.4354 H   0  0  0  0  0  0  0  0  0  0  0  0
   47.5161    8.9953   17.4107 H   0  0  0  0  0  0  0  0  0  0  0  0
   50.6787    8.5606   16.0993 H   0  0  0  0  0  0  0  0  0  0  0  0
   49.0518   10.2056   17.1452 H   0  0  0  0  0  0  0  0  0  0  0  0
   49.4520    9.1735   16.0902 H   0  0  0  0  0  0  0  0  0  0  0  0
   49.0535   10.2069   17.1414 H   0  0  0  0  0  0  0  0  0  0  0  0
   49.4509    9.1712   16.0925 H   0  0  0  0  0  0  0  0  0  0  0  0
  1  2  1  0
  3  2  1  0
  3  4  1  0
  4  5  1  0
  6  5  1  0
  6  2  1  0
  6  7  1  0
  7  8  1  0
  8  9  1  0
  3  9  1  0
  8 10  1  0
 10 11  1  0
 11 12  2  0
 11 13  1  0
 13 14  1  0
 14 15  1  0
 13 16  1  0
 16 17  2  0
 17 18  1  0
 18 19  2  0
 19 20  1  0
 20 21  2  0
 16 21  1  0
 22 23  1  0
 24 23  1  0
 24 25  1  0
 25 26  1  0
 27 26  1  0
 27 23  1  0
 27 28  1  0
 28 29  1  0
 29 30  1  0
 24 30  1  0
 29 31  1  0
 31 32  1  0
 32 33  2  0
 32 34  1  0
 34 35  1  0
 35 36  1  0
 34 37  1  0
 37 38  2  0
 38 39  1  0
 39 40  2  0
 40 41  1  0
 41 42  2  0
 37 42  1  0
 43 44  2  0
 43 45  1  0
 43 46  1  0
 43 47  2  0
  1 50  1  0
  1 51  1  0
  1 52  1  0
  3 53  1  6
  4 54  1  0
  4 55  1  0
  5 56  1  0
  5 57  1  0
  6 58  1  1
  7 59  1  0
  7 60  1  0
  8 61  1  1
  9 62  1  0
  9 63  1  0
 13 64  1  6
 14 65  1  0
 14 66  1  0
 15 67  1  0
 17 68  1  0
 18 69  1  0
 19 70  1  0
 20 71  1  0
 21 72  1  0
 22 73  1  0
 22 74  1  0
 22 75  1  0
 24 76  1  1
 25 77  1  0
 25 78  1  0
 26 79  1  0
 26 80  1  0
 27 81  1  6
 28 82  1  0
 28 83  1  0
 29 84  1  1
 30 85  1  0
 30 86  1  0
 34 87  1  1
 35 88  1  0
 35 89  1  0
 36 90  1  0
 38 91  1  0
 39 92  1  0
 40 93  1  0
 41 94  1  0
 42 95  1  0
 45 96  1  0
 46 97  1  0
 48 98  1  0
 48 99  1  0
 49100  1  0
 49101  1  0
M  END
> <Uni-Dock RESULT> 
ENERGY=   -4.916  LOWER_BOUND=    0.000  UPPER_BOUND=    0.000
INTER + INTRA:          -4.916
INTER:                  -4.916
INTRA:                   0.000
UNBOUND:                 0.000

$$$$

     RDKit          3D

101102  0  0  0  0  0  0  0  0999 V2000
   47.7861    9.3610   23.4690 C   0  0  0  0  0  0  0  0  0  0  0  0
   48.6240    8.6306   22.5186 N   0  0  0  0  0  0  0  0  0  0  0  0
   49.0116    9.4479   21.3548 C   0  0  1  0  0  0  0  0  0  0  0  0
   50.1593   10.3283   21.8608 C   0  0  0  0  0  0  0  0  0  0  0  0
   50.7731    9.5332   23.0052 C   0  0  0  0  0  0  0  0  0  0  0  0
   49.9332    8.2545   23.0833 C   0  0  2  0  0  0  0  0  0  0  0  0
   50.5343    7.1486   22.1977 C   0  0  0  0  0  0  0  0  0  0  0  0
   49.9799    7.1341   20.7638 C   0  0  1  0  0  0  0  0  0  0  0  0
   49.5019    8.4994   20.2472 C   0  0  0  0  0  0  0  0  0  0  0  0
   50.9926    6.6549   19.8524 O   0  0  0  0  0  0  0  0  0  0  0  0
   51.1092    5.2990   19.7163 C   0  0  0  0  0  0  0  0  0  0  0  0
   50.4576    4.4872   20.3610 O   0  0  0  0  0  0  0  0  0  0  0  0
   52.2377    4.9676   18.7443 C   0  0  2  0  0  0  0  0  0  0  0  0
   52.1937    5.8407   17.4775 C   0  0  0  0  0  0  0  0  0  0  0  0
   50.9487    5.7482   16.7887 O   0  0  0  0  0  0  0  0  0  0  0  0
   52.3490    3.4851   18.4015 C   0  0  0  0  0  0  0  0  0  0  0  0
   53.5279    2.7817   18.6978 C   0  0  0  0  0  0  0  0  0  0  0  0
   53.6534    1.4314   18.3646 C   0  0  0  0  0  0  0  0  0  0  0  0
   52.6055    0.7667   17.7303 C   0  0  0  0  0  0  0  0  0  0  0  0
   51.4284    1.4502   17.4345 C   0  0  0  0  0  0  0  0  0  0  0  0
   51.3004    2.7992   17.7687 C   0  0  0  0  0  0  0  0  0  0  0  0
   53.6317    3.9022   17.4926 C   0  0  0  0  0  0  0  0  0  0  0  0
   53.5653    4.8136   18.6182 N   0  0  0  0  0  0  0  0  0  0  0  0
   52.7465    4.3823   19.7558 C   0  0  1  0  0  0  0  0  0  0  0  0
   52.9376    5.5842   20.6859 C   0  0  0  0  0  0  0  0  0  0  0  0
   53.1521    6.7717   19.7401 C   0  0  0  0  0  0  0  0  0  0  0  0
   53.0713    6.1638   18.3346 C   0  0  2  0  0  0  0  0  0  0  0  0
   51.6317    6.1648   17.7869 C   0  0  0  0  0  0  0  0  0  0  0  0
   50.6392    5.3805   18.6601 C   0  0  1  0  0  0  0  0  0  0  0  0
   51.2719    4.1702   19.3657 C   0  0  0  0  0  0  0  0  0  0  0  0
   50.0762    6.2302   19.6819 O   0  0  0  0  0  0  0  0  0  0  0  0
   49.0298    7.0197   19.3173 C   0  0  0  0  0  0  0  0  0  0  0  0
   48.5949    7.1091   18.1705 O   0  0  0  0  0  0  0  0  0  0  0  0
   48.4464    7.8016   20.4777 C   0  0  2  0  0  0  0  0  0  0  0  0
   48.9943    9.2359   20.4603 C   0  0  0  0  0  0  0  0  0  0  0  0
   50.4107    9.2985   20.5873 O   0  0  0  0  0  0  0  0  0  0  0  0
   48.4839    7.0639   21.8122 C   0  0  0  0  0  0  0  0  0  0  0  0
   47.4178    6.2112   22.1519 C   0  0  0  0  0  0  0  0  0  0  0  0
   47.4253    5.4940   23.3494 C   0  0  0  0  0  0  0  0  0  0  0  0
   48.5006    5.6110   24.2250 C   0  0  0  0  0  0  0  0  0  0  0  0
   49.5694    6.4409   23.8993 C   0  0  0  0  0  0  0  0  0  0  0  0
   49.5630    7.1600   22.7018 C   0  0  0  0  0  0  0  0  0  0  0  0
   50.3567    6.3698   20.0527 S   0  0  0  0  0  0  0  0  0  0  0  0
   50.2022    7.7989   20.1555 O   0  0  0  0  0  0  0  0  0  0  0  0
   50.5646    5.7734   21.5275 O   0  0  0  0  0  0  0  0  0  0  0  0
   51.8063    6.1209   19.4108 O   0  0  0  0  0  0  0  0  0  0  0  0
   49.4159    5.5069   19.3866 O   0  0  0  0  0  0  0  0  0  0  0  0
   50.9072    6.0900   20.5568 O   0  0  0  0  0  0  0  0  0  0  0  0
   50.9059    6.0903   20.5580 O   0  0  0  0  0  0  0  0  0  0  0  0
   46.8327    9.6278   22.9991 H   0  0  0  0  0  0  0  0  0  0  0  0
   47.5468    8.7239   24.3281 H   0  0  0  0  0  0  0  0  0  0  0  0
   48.2442   10.2801   23.8480 H   0  0  0  0  0  0  0  0  0  0  0  0
   48.1921   10.0617   20.9617 H   0  0  0  0  0  0  0  0  0  0  0  0
   49.7774   11.2834   22.2435 H   0  0  0  0  0  0  0  0  0  0  0  0
   50.8990   10.5604   21.0874 H   0  0  0  0  0  0  0  0  0  0  0  0
   50.6873   10.1070   23.9357 H   0  0  0  0  0  0  0  0  0  0  0  0
   51.8378    9.3417   22.8400 H   0  0  0  0  0  0  0  0  0  0  0  0
   49.8708    7.8883   24.1151 H   0  0  0  0  0  0  0  0  0  0  0  0
   50.2971    6.1746   22.6460 H   0  0  0  0  0  0  0  0  0  0  0  0
   51.6302    7.1990   22.1905 H   0  0  0  0  0  0  0  0  0  0  0  0
   49.1101    6.4618   20.7318 H   0  0  0  0  0  0  0  0  0  0  0  0
   48.6712    8.3090   19.5526 H   0  0  0  0  0  0  0  0  0  0  0  0
   50.2771    8.9770   19.6350 H   0  0  0  0  0  0  0  0  0  0  0  0
   53.1550    5.2405   19.2874 H   0  0  0  0  0  0  0  0  0  0  0  0
   52.3507    6.8960   17.7290 H   0  0  0  0  0  0  0  0  0  0  0  0
   52.9877    5.5441   16.7825 H   0  0  0  0  0  0  0  0  0  0  0  0
   51.0521    6.2183   15.9441 H   0  0  0  0  0  0  0  0  0  0  0  0
   54.3590    3.2770   19.1954 H   0  0  0  0  0  0  0  0  0  0  0  0
   54.5699    0.8976   18.6004 H   0  0  0  0  0  0  0  0  0  0  0  0
   52.7039   -0.2840   17.4692 H   0  0  0  0  0  0  0  0  0  0  0  0
   50.6026    0.9339   16.9523 H   0  0  0  0  0  0  0  0  0  0  0  0
   50.3710    3.3149   17.5345 H   0  0  0  0  0  0  0  0  0  0  0  0
   54.3179    4.2955   16.7346 H   0  0  0  0  0  0  0  0  0  0  0  0
   54.0403    2.9381   17.8148 H   0  0  0  0  0  0  0  0  0  0  0  0
   52.6699    3.7118   17.0101 H   0  0  0  0  0  0  0  0  0  0  0  0
   53.1458    3.4745   20.2207 H   0  0  0  0  0  0  0  0  0  0  0  0
   53.8366    5.4487   21.3003 H   0  0  0  0  0  0  0  0  0  0  0  0
   52.0963    5.7400   21.3682 H   0  0  0  0  0  0  0  0  0  0  0  0
   54.1499    7.1980   19.9127 H   0  0  0  0  0  0  0  0  0  0  0  0
   52.4222    7.5693   19.9070 H   0  0  0  0  0  0  0  0  0  0  0  0
   53.7339    6.7029   17.6471 H   0  0  0  0  0  0  0  0  0  0  0  0
   51.3007    7.2041   17.6643 H   0  0  0  0  0  0  0  0  0  0  0  0
   51.6384    5.7240   16.7826 H   0  0  0  0  0  0  0  0  0  0  0  0
   49.8156    5.0078   18.0367 H   0  0  0  0  0  0  0  0  0  0  0  0
   50.6971    3.9199   20.2683 H   0  0  0  0  0  0  0  0  0  0  0  0
   51.2017    3.2978   18.7032 H   0  0  0  0  0  0  0  0  0  0  0  0
   47.3759    7.9048   20.2420 H   0  0  0  0  0  0  0  0  0  0  0  0
   48.5531    9.8224   21.2739 H   0  0  0  0  0  0  0  0  0  0  0  0
   48.7319    9.7197   19.5120 H   0  0  0  0  0  0  0  0  0  0  0  0
   50.6639   10.2340   20.5000 H   0  0  0  0  0  0  0  0  0  0  0  0
   46.5694    6.0930   21.4803 H   0  0  0  0  0  0  0  0  0  0  0  0
   46.5936    4.8399   23.5960 H   0  0  0  0  0  0  0  0  0  0  0  0
   48.5104    5.0503   25.1554 H   0  0  0  0  0  0  0  0  0  0  0  0
   50.4180    6.5236   24.5738 H   0  0  0  0  0  0  0  0  0  0  0  0
   50.4269    7.7771   22.4671 H   0  0  0  0  0  0  0  0  0  0  0  0
   50.4566    4.8014   21.4659 H   0  0  0  0  0  0  0  0  0  0  0  0
   52.3072    6.9569   19.5062 H   0  0  0  0  0  0  0  0  0  0  0  0
   50.0035    6.4166   20.4268 H   0  0  0  0  0  0  0  0  0  0  0  0
   51.2791    6.0626   19.6615 H   0  0  0  0  0  0  0  0  0  0  0  0
   50.0036    6.4170   20.4225 H   0  0  0  0  0  0  0  0  0  0  0  0
   51.2804    6.0619   19.6646 H   0  0  0  0  0  0  0  0  0  0  0  0
  1  2  1  0
  3  2  1  0
  3  4  1  0
  4  5  1  0
  6  5  1  0
  6  2  1  0
  6  7  1  0
  7  8  1  0
  8  9  1  0
  3  9  1  0
  8 10  1  0
 10 11  1  0
 11 12  2  0
 11 13  1  0
 13 14  1  0
 14 15  1  0
 13 16  1  0
 16 17  2  0
 17 18  1  0
 18 19  2  0
 19 20  1  0
 20 21  2  0
 16 21  1  0
 22 23  1  0
 24 23  1  0
 24 25  1  0
 25 26  1  0
 27 26  1  0
 27 23  1  0
 27 28  1  0
 28 29  1  0
 29 30  1  0
 24 30  1  0
 29 31  1  0
 31 32  1  0
 32 33  2  0
 32 34  1  0
 34 35  1  0
 35 36  1  0
 34 37  1  0
 37 38  2  0
 38 39  1  0
 39 40  2  0
 40 41  1  0
 41 42  2  0
 37 42  1  0
 43 44  2  0
 43 45  1  0
 43 46  1  0
 43 47  2  0
  1 50  1  0
  1 51  1  0
  1 52  1  0
  3 53  1  6
  4 54  1  0
  4 55  1  0
  5 56  1  0
  5 57  1  0
  6 58  1  1
  7 59  1  0
  7 60  1  0
  8 61  1  1
  9 62  1  0
  9 63  1  0
 13 64  1  6
 14 65  1  0
 14 66  1  0
 15 67  1  0
 17 68  1  0
 18 69  1  0
 19 70  1  0
 20 71  1  0
 21 72  1  0
 22 73  1  0
 22 74  1  0
 22 75  1  0
 24 76  1  1
 25 77  1  0
 25 78  1  0
 26 79  1  0
 26 80  1  0
 27 81  1  6
 28 82  1  0
 28 83  1  0
 29 84  1  1
 30 85  1  0
 30 86  1  0
 34 87  1  1
 35 88  1  0
 35 89  1  0
 36 90  1  0
 38 91  1  0
 39 92  1  0
 40 93  1  0
 41 94  1  0
 42 95  1  0
 45 96  1  0
 46 97  1  0
 48 98  1  0
 48 99  1  0
 49100  1  0
 49101  1  0
M  END
> <Uni-Dock RESULT> 
ENERGY=   -4.494  LOWER_BOUND=    4.246  UPPER_BOUND=    5.892
INTER + INTRA:          -4.494
INTER:                  -4.494
INTRA:                   0.000
UNBOUND:                 0.000

$$$$

     RDKit          3D

101102  0  0  0  0  0  0  0  0999 V2000
   55.9464    3.8183   17.3308 C   0  0  0  0  0  0  0  0  0  0  0  0
   54.6985    4.1810   18.0014 N   0  0  0  0  0  0  0  0  0  0  0  0
   53.8735    3.0085   18.3439 C   0  0  1  0  0  0  0  0  0  0  0  0
   54.5175    2.4346   19.6105 C   0  0  0  0  0  0  0  0  0  0  0  0
   55.2072    3.6264   20.2605 C   0  0  0  0  0  0  0  0  0  0  0  0
   54.9188    4.8013   19.3208 C   0  0  2  0  0  0  0  0  0  0  0  0
   53.6235    5.5252   19.7295 C   0  0  0  0  0  0  0  0  0  0  0  0
   52.3643    4.9789   19.0369 C   0  0  1  0  0  0  0  0  0  0  0  0
   52.4446    3.4986   18.6348 C   0  0  0  0  0  0  0  0  0  0  0  0
   51.2219    5.1315   19.9072 O   0  0  0  0  0  0  0  0  0  0  0  0
   50.5880    6.3433   19.8874 C   0  0  0  0  0  0  0  0  0  0  0  0
   50.9689    7.3051   19.2324 O   0  0  0  0  0  0  0  0  0  0  0  0
   49.4289    6.3418   20.8797 C   0  0  2  0  0  0  0  0  0  0  0  0
   48.5833    5.0589   20.7894 C   0  0  0  0  0  0  0  0  0  0  0  0
   48.0698    4.8298   19.4791 O   0  0  0  0  0  0  0  0  0  0  0  0
   48.5587    7.5936   20.8228 C   0  0  0  0  0  0  0  0  0  0  0  0
   48.4285    8.4114   21.9571 C   0  0  0  0  0  0  0  0  0  0  0  0
   47.6136    9.5450   21.9271 C   0  0  0  0  0  0  0  0  0  0  0  0
   46.9173    9.8758   20.7661 C   0  0  0  0  0  0  0  0  0  0  0  0
   47.0406    9.0768   19.6317 C   0  0  0  0  0  0  0  0  0  0  0  0
   47.8563    7.9447   19.6593 C   0  0  0  0  0  0  0  0  0  0  0  0
   47.7113    6.9290   22.0416 C   0  0  0  0  0  0  0  0  0  0  0  0
   49.0903    6.4999   22.1691 N   0  0  0  0  0  0  0  0  0  0  0  0
   50.0856    7.2847   21.4314 C   0  0  1  0  0  0  0  0  0  0  0  0
   51.3578    6.5256   21.8210 C   0  0  0  0  0  0  0  0  0  0  0  0
   50.8905    5.0829   22.0467 C   0  0  0  0  0  0  0  0  0  0  0  0
   49.3821    5.1195   21.7729 C   0  0  2  0  0  0  0  0  0  0  0  0
   49.0572    4.8472   20.2922 C   0  0  0  0  0  0  0  0  0  0  0  0
   49.7017    5.8526   19.3244 C   0  0  1  0  0  0  0  0  0  0  0  0
   49.8330    7.2668   19.9124 C   0  0  0  0  0  0  0  0  0  0  0  0
   51.0246    5.4187   18.9440 O   0  0  0  0  0  0  0  0  0  0  0  0
   51.1066    4.5021   17.9419 C   0  0  0  0  0  0  0  0  0  0  0  0
   50.1353    3.9720   17.4055 O   0  0  0  0  0  0  0  0  0  0  0  0
   52.5353    4.1816   17.5489 C   0  0  2  0  0  0  0  0  0  0  0  0
   52.9730    2.8713   18.2192 C   0  0  0  0  0  0  0  0  0  0  0  0
   52.9357    2.9271   19.6410 O   0  0  0  0  0  0  0  0  0  0  0  0
   53.4936    5.3639   17.6517 C   0  0  0  0  0  0  0  0  0  0  0  0
   53.6301    6.2306   16.5522 C   0  0  0  0  0  0  0  0  0  0  0  0
   54.4730    7.3414   16.6136 C   0  0  0  0  0  0  0  0  0  0  0  0
   55.1892    7.6093   17.7763 C   0  0  0  0  0  0  0  0  0  0  0  0
   55.0569    6.7691   18.8780 C   0  0  0  0  0  0  0  0  0  0  0  0
   54.2145    5.6565   18.8178 C   0  0  0  0  0  0  0  0  0  0  0  0
   51.3826    5.4405   19.2712 S   0  0  0  0  0  0  0  0  0  0  0  0
   52.0172    4.1467   19.2568 O   0  0  0  0  0  0  0  0  0  0  0  0
   52.5004    6.5520   19.5695 O   0  0  0  0  0  0  0  0  0  0  0  0
   50.5180    5.5004   20.6219 O   0  0  0  0  0  0  0  0  0  0  0  0
   50.5714    5.9483   18.1954 O   0  0  0  0  0  0  0  0  0  0  0  0
   51.6769    5.9133   19.8415 O   0  0  0  0  0  0  0  0  0  0  0  0
   51.6783    5.9134   19.8403 O   0  0  0  0  0  0  0  0  0  0  0  0
   55.7293    3.3513   16.3634 H   0  0  0  0  0  0  0  0  0  0  0  0
   56.5373    4.7173   17.1212 H   0  0  0  0  0  0  0  0  0  0  0  0
   56.5736    3.1288   17.9049 H   0  0  0  0  0  0  0  0  0  0  0  0
   53.8368    2.2547   17.5480 H   0  0  0  0  0  0  0  0  0  0  0  0
   55.2662    1.6737   19.3558 H   0  0  0  0  0  0  0  0  0  0  0  0
   53.7956    1.9663   20.2879 H   0  0  0  0  0  0  0  0  0  0  0  0
   56.2856    3.4367   20.3192 H   0  0  0  0  0  0  0  0  0  0  0  0
   54.8518    3.7924   21.2821 H   0  0  0  0  0  0  0  0  0  0  0  0
   55.7455    5.5218   19.3282 H   0  0  0  0  0  0  0  0  0  0  0  0
   53.7122    6.5837   19.4512 H   0  0  0  0  0  0  0  0  0  0  0  0
   53.4981    5.5272   20.8194 H   0  0  0  0  0  0  0  0  0  0  0  0
   52.1989    5.5494   18.1113 H   0  0  0  0  0  0  0  0  0  0  0  0
   51.8382    3.3776   17.7257 H   0  0  0  0  0  0  0  0  0  0  0  0
   51.9564    2.8644   19.3855 H   0  0  0  0  0  0  0  0  0  0  0  0
   49.9147    6.3340   21.8670 H   0  0  0  0  0  0  0  0  0  0  0  0
   49.1800    4.1816   21.0647 H   0  0  0  0  0  0  0  0  0  0  0  0
   47.7345    5.1125   21.4808 H   0  0  0  0  0  0  0  0  0  0  0  0
   47.4485    4.0846   19.5402 H   0  0  0  0  0  0  0  0  0  0  0  0
   48.9641    8.1764   22.8745 H   0  0  0  0  0  0  0  0  0  0  0  0
   47.5221   10.1706   22.8107 H   0  0  0  0  0  0  0  0  0  0  0  0
   46.2814   10.7573   20.7433 H   0  0  0  0  0  0  0  0  0  0  0  0
   46.5110    9.3373   18.7192 H   0  0  0  0  0  0  0  0  0  0  0  0
   47.9442    7.3358   18.7615 H   0  0  0  0  0  0  0  0  0  0  0  0
   47.0690    6.3146   22.6820 H   0  0  0  0  0  0  0  0  0  0  0  0
   47.6063    7.9619   22.3917 H   0  0  0  0  0  0  0  0  0  0  0  0
   47.3170    6.8808   21.0235 H   0  0  0  0  0  0  0  0  0  0  0  0
   50.1341    8.3179   21.7915 H   0  0  0  0  0  0  0  0  0  0  0  0
   51.7629    6.9221   22.7605 H   0  0  0  0  0  0  0  0  0  0  0  0
   52.1494    6.5956   21.0687 H   0  0  0  0  0  0  0  0  0  0  0  0
   51.0801    4.7988   23.0910 H   0  0  0  0  0  0  0  0  0  0  0  0
   51.4263    4.3714   21.4117 H   0  0  0  0  0  0  0  0  0  0  0  0
   48.8609    4.3951   22.4101 H   0  0  0  0  0  0  0  0  0  0  0  0
   49.3639    3.8226   20.0454 H   0  0  0  0  0  0  0  0  0  0  0  0
   47.9690    4.8824   20.1598 H   0  0  0  0  0  0  0  0  0  0  0  0
   49.0938    5.9273   18.4130 H   0  0  0  0  0  0  0  0  0  0  0  0
   50.6468    7.8077   19.4096 H   0  0  0  0  0  0  0  0  0  0  0  0
   48.9126    7.8257   19.6988 H   0  0  0  0  0  0  0  0  0  0  0  0
   52.4893    3.9480   16.4740 H   0  0  0  0  0  0  0  0  0  0  0  0
   53.9927    2.6097   17.9152 H   0  0  0  0  0  0  0  0  0  0  0  0
   52.3068    2.0576   17.9088 H   0  0  0  0  0  0  0  0  0  0  0  0
   53.1640    2.0393   19.9674 H   0  0  0  0  0  0  0  0  0  0  0  0
   53.0734    6.0504   15.6343 H   0  0  0  0  0  0  0  0  0  0  0  0
   54.5666    8.0005   15.7549 H   0  0  0  0  0  0  0  0  0  0  0  0
   55.8423    8.4758   17.8277 H   0  0  0  0  0  0  0  0  0  0  0  0
   55.6033    6.9833   19.7932 H   0  0  0  0  0  0  0  0  0  0  0  0
   54.1145    5.0377   19.7062 H   0  0  0  0  0  0  0  0  0  0  0  0
   52.1031    7.4250   19.3690 H   0  0  0  0  0  0  0  0  0  0  0  0
   50.8478    4.7845   21.2030 H   0  0  0  0  0  0  0  0  0  0  0  0
   51.7891    5.5198   18.9624 H   0  0  0  0  0  0  0  0  0  0  0  0
   50.7942    5.6230   20.1190 H   0  0  0  0  0  0  0  0  0  0  0  0
   51.7852    5.5177   18.9621 H   0  0  0  0  0  0  0  0  0  0  0  0
   50.7966    5.6249   20.1205 H   0  0  0  0  0  0  0  0  0  0  0  0
  1  2  1  0
  3  2  1  0
  3  4  1  0
  4  5  1  0
  6  5  1  0
  6  2  1  0
  6  7  1  0
  7  8  1  0
  8  9  1  0
  3  9  1  0
  8 10  1  0
 10 11  1  0
 11 12  2  0
 11 13  1  0
 13 14  1  0
 14 15  1  0
 13 16  1  0
 16 17  2  0
 17 18  1  0
 18 19  2  0
 19 20  1  0
 20 21  2  0
 16 21  1  0
 22 23  1  0
 24 23  1  0
 24 25  1  0
 25 26  1  0
 27 26  1  0
 27 23  1  0
 27 28  1  0
 28 29  1  0
 29 30  1  0
 24 30  1  0
 29 31  1  0
 31 32  1  0
 32 33  2  0
 32 34  1  0
 34 35  1  0
 35 36  1  0
 34 37  1  0
 37 38  2  0
 38 39  1  0
 39 40  2  0
 40 41  1  0
 41 42  2  0
 37 42  1  0
 43 44  2  0
 43 45  1  0
 43 46  1  0
 43 47  2  0
  1 50  1  0
  1 51  1  0
  1 52  1  0
  3 53  1  6
  4 54  1  0
  4 55  1  0
  5 56  1  0
  5 57  1  0
  6 58  1  1
  7 59  1  0
  7 60  1  0
  8 61  1  1
  9 62  1  0
  9 63  1  0
 13 64  1  6
 14 65  1  0
 14 66  1  0
 15 67  1  0
 17 68  1  0
 18 69  1  0
 19 70  1  0
 20 71  1  0
 21 72  1  0
 22 73  1  0
 22 74  1  0
 22 75  1  0
 24 76  1  1
 25 77  1  0
 25 78  1  0
 26 79  1  0
 26 80  1  0
 27 81  1  6
 28 82  1  0
 28 83  1  0
 29 84  1  1
 30 85  1  0
 30 86  1  0
 34 87  1  1
 35 88  1  0
 35 89  1  0
 36 90  1  0
 38 91  1  0
 39 92  1  0
 40 93  1  0
 41 94  1  0
 42 95  1  0
 45 96  1  0
 46 97  1  0
 48 98  1  0
 48 99  1  0
 49100  1  0
 49101  1  0
M  END
> <Uni-Dock RESULT> 
ENERGY=   -4.372  LOWER_BOUND=    4.661  UPPER_BOUND=    7.498
INTER + INTRA:          -4.372
INTER:                  -4.372
INTRA:                   0.000
UNBOUND:                 0.000

$$$$

     RDKit          3D

101102  0  0  0  0  0  0  0  0999 V2000
   48.6775   11.8062   22.9187 C   0  0  0  0  0  0  0  0  0  0  0  0
   48.7857   10.6249   22.0633 N   0  0  0  0  0  0  0  0  0  0  0  0
   49.9944    9.8283   22.3414 C   0  0  1  0  0  0  0  0  0  0  0  0
   49.6505    9.0234   23.5993 C   0  0  0  0  0  0  0  0  0  0  0  0
   48.1332    8.8998   23.5693 C   0  0  0  0  0  0  0  0  0  0  0  0
   47.7082    9.6470   22.3014 C   0  0  2  0  0  0  0  0  0  0  0  0
   47.6549    8.6932   21.0947 C   0  0  0  0  0  0  0  0  0  0  0  0
   48.9751    8.6123   20.3109 C   0  0  1  0  0  0  0  0  0  0  0  0
   50.2343    8.8912   21.1452 C   0  0  0  0  0  0  0  0  0  0  0  0
   49.1203    7.2975   19.7312 O   0  0  0  0  0  0  0  0  0  0  0  0
   48.5065    7.0819   18.5281 C   0  0  0  0  0  0  0  0  0  0  0  0
   47.8025    7.9073   17.9604 O   0  0  0  0  0  0  0  0  0  0  0  0
   48.7357    5.6426   18.0763 C   0  0  2  0  0  0  0  0  0  0  0  0
   50.1989    5.1997   18.2543 C   0  0  0  0  0  0  0  0  0  0  0  0
   51.1178    6.0498   17.5717 O   0  0  0  0  0  0  0  0  0  0  0  0
   48.2246    5.3424   16.6705 C   0  0  0  0  0  0  0  0  0  0  0  0
   47.2395    4.3606   16.4755 C   0  0  0  0  0  0  0  0  0  0  0  0
   46.7825    4.0566   15.1914 C   0  0  0  0  0  0  0  0  0  0  0  0
   47.3037    4.7266   14.0862 C   0  0  0  0  0  0  0  0  0  0  0  0
   48.2779    5.7062   14.2647 C   0  0  0  0  0  0  0  0  0  0  0  0
   48.7341    6.0128   15.5475 C   0  0  0  0  0  0  0  0  0  0  0  0
   48.7288    3.8179   16.9295 C   0  0  0  0  0  0  0  0  0  0  0  0
   48.3139    4.3744   18.2023 N   0  0  0  0  0  0  0  0  0  0  0  0
   47.4649    5.5688   18.1432 C   0  0  1  0  0  0  0  0  0  0  0  0
   47.2657    5.8221   19.6407 C   0  0  0  0  0  0  0  0  0  0  0  0
   48.5452    5.2871   20.2945 C   0  0  0  0  0  0  0  0  0  0  0  0
   49.3853    4.7625   19.1237 C   0  0  2  0  0  0  0  0  0  0  0  0
   50.3040    5.8514   18.5386 C   0  0  0  0  0  0  0  0  0  0  0  0
   49.5461    7.0821   18.0157 C   0  0  1  0  0  0  0  0  0  0  0  0
   48.1626    6.7456   17.4362 C   0  0  0  0  0  0  0  0  0  0  0  0
   49.3490    8.0467   19.0711 O   0  0  0  0  0  0  0  0  0  0  0  0
   50.3875    8.8832   19.3414 C   0  0  0  0  0  0  0  0  0  0  0  0
   51.4913    8.8147   18.8038 O   0  0  0  0  0  0  0  0  0  0  0  0
   50.0528    9.9202   20.3953 C   0  0  2  0  0  0  0  0  0  0  0  0
   50.6057    9.4703   21.7554 C   0  0  0  0  0  0  0  0  0  0  0  0
   50.0616    8.2331   22.2022 O   0  0  0  0  0  0  0  0  0  0  0  0
   48.6059   10.4021   20.3630 C   0  0  0  0  0  0  0  0  0  0  0  0
   48.2630   11.4792   19.5256 C   0  0  0  0  0  0  0  0  0  0  0  0
   46.9457   11.9332   19.4427 C   0  0  0  0  0  0  0  0  0  0  0  0
   45.9472   11.3152   20.1895 C   0  0  0  0  0  0  0  0  0  0  0  0
   46.2666   10.2403   21.0139 C   0  0  0  0  0  0  0  0  0  0  0  0
   47.5846    9.7853   21.0989 C   0  0  0  0  0  0  0  0  0  0  0  0
   49.0301    7.9480   19.4236 S   0  0  0  0  0  0  0  0  0  0  0  0
   49.7199    8.1874   20.6660 O   0  0  0  0  0  0  0  0  0  0  0  0
   47.4857    8.3373   19.6161 O   0  0  0  0  0  0  0  0  0  0  0  0
   48.9304    6.3539   19.2665 O   0  0  0  0  0  0  0  0  0  0  0  0
   49.4409    8.4995   18.1585 O   0  0  0  0  0  0  0  0  0  0  0  0
   48.3034    7.6408   19.5376 O   0  0  0  0  0  0  0  0  0  0  0  0
   48.3030    7.6425   19.5381 O   0  0  0  0  0  0  0  0  0  0  0  0
   49.5054   12.4942   22.7130 H   0  0  0  0  0  0  0  0  0  0  0  0
   47.7526   12.3503   22.6953 H   0  0  0  0  0  0  0  0  0  0  0  0
   48.6853   11.5798   23.9896 H   0  0  0  0  0  0  0  0  0  0  0  0
   50.8911   10.4393   22.5012 H   0  0  0  0  0  0  0  0  0  0  0  0
   49.9548    9.5658   24.5035 H   0  0  0  0  0  0  0  0  0  0  0  0
   50.1356    8.0421   23.6302 H   0  0  0  0  0  0  0  0  0  0  0  0
   47.7100    9.3809   24.4592 H   0  0  0  0  0  0  0  0  0  0  0  0
   47.8116    7.8539   23.5831 H   0  0  0  0  0  0  0  0  0  0  0  0
   46.7229   10.1110   22.4308 H   0  0  0  0  0  0  0  0  0  0  0  0
   46.8868    9.0541   20.3978 H   0  0  0  0  0  0  0  0  0  0  0  0
   47.3190    7.6930   21.3951 H   0  0  0  0  0  0  0  0  0  0  0  0
   48.9532    9.3658   19.5100 H   0  0  0  0  0  0  0  0  0  0  0  0
   50.9697    9.3573   20.4739 H   0  0  0  0  0  0  0  0  0  0  0  0
   50.7028    7.9530   21.4683 H   0  0  0  0  0  0  0  0  0  0  0  0
   48.1334    5.0389   18.7718 H   0  0  0  0  0  0  0  0  0  0  0  0
   50.4777    5.2011   19.3144 H   0  0  0  0  0  0  0  0  0  0  0  0
   50.3370    4.1800   17.8768 H   0  0  0  0  0  0  0  0  0  0  0  0
   51.9926    5.6291   17.6252 H   0  0  0  0  0  0  0  0  0  0  0  0
   46.8143    3.8257   17.3222 H   0  0  0  0  0  0  0  0  0  0  0  0
   46.0189    3.2960   15.0535 H   0  0  0  0  0  0  0  0  0  0  0  0
   46.9494    4.4886   13.0864 H   0  0  0  0  0  0  0  0  0  0  0  0
   48.6783    6.2418   13.4080 H   0  0  0  0  0  0  0  0  0  0  0  0
   49.4917    6.7850   15.6675 H   0  0  0  0  0  0  0  0  0  0  0  0
   49.3007    2.8980   17.0936 H   0  0  0  0  0  0  0  0  0  0  0  0
   47.8497    3.5387   16.3382 H   0  0  0  0  0  0  0  0  0  0  0  0
   49.3393    4.4902   16.3216 H   0  0  0  0  0  0  0  0  0  0  0  0
   46.5037    5.3587   17.6620 H   0  0  0  0  0  0  0  0  0  0  0  0
   46.4072    5.2480   20.0113 H   0  0  0  0  0  0  0  0  0  0  0  0
   47.0827    6.8742   19.8797 H   0  0  0  0  0  0  0  0  0  0  0  0
   48.2884    4.4647   20.9762 H   0  0  0  0  0  0  0  0  0  0  0  0
   49.0586    6.0524   20.8840 H   0  0  0  0  0  0  0  0  0  0  0  0
   49.9824    3.8986   19.4395 H   0  0  0  0  0  0  0  0  0  0  0  0
   51.0361    6.1443   19.3022 H   0  0  0  0  0  0  0  0  0  0  0  0
   50.8794    5.4175   17.7118 H   0  0  0  0  0  0  0  0  0  0  0  0
   50.1306    7.5637   17.2205 H   0  0  0  0  0  0  0  0  0  0  0  0
   47.5103    7.6286   17.4864 H   0  0  0  0  0  0  0  0  0  0  0  0
   48.2742    6.5044   16.3711 H   0  0  0  0  0  0  0  0  0  0  0  0
   50.6510   10.8041   20.1252 H   0  0  0  0  0  0  0  0  0  0  0  0
   50.4009   10.2282   22.5197 H   0  0  0  0  0  0  0  0  0  0  0  0
   51.6923    9.3412   21.6875 H   0  0  0  0  0  0  0  0  0  0  0  0
   50.5177    8.0036   23.0306 H   0  0  0  0  0  0  0  0  0  0  0  0
   49.0224   11.9738   18.9226 H   0  0  0  0  0  0  0  0  0  0  0  0
   46.6983   12.7665   18.7908 H   0  0  0  0  0  0  0  0  0  0  0  0
   44.9206   11.6641   20.1229 H   0  0  0  0  0  0  0  0  0  0  0  0
   45.4870    9.7453   21.5876 H   0  0  0  0  0  0  0  0  0  0  0  0
   47.7930    8.9262   21.7317 H   0  0  0  0  0  0  0  0  0  0  0  0
   47.0813    8.3721   18.7242 H   0  0  0  0  0  0  0  0  0  0  0  0
   49.1077    5.9693   20.1494 H   0  0  0  0  0  0  0  0  0  0  0  0
   48.8741    8.4247   19.5470 H   0  0  0  0  0  0  0  0  0  0  0  0
   48.8780    6.9348   19.2030 H   0  0  0  0  0  0  0  0  0  0  0  0
   48.8777    8.4229   19.5455 H   0  0  0  0  0  0  0  0  0  0  0  0
   48.8747    6.9349   19.2040 H   0  0  0  0  0  0  0  0  0  0  0  0
  1  2  1  0
  3  2  1  0
  3  4  1  0
  4  5  1  0
  6  5  1  0
  6  2  1  0
  6  7  1  0
  7  8  1  0
  8  9  1  0
  3  9  1  0
  8 10  1  0
 10 11  1  0
 11 12  2  0
 11 13  1  0
 13 14  1  0
 14 15  1  0
 13 16  1  0
 16 17  2  0
 17 18  1  0
 18 19  2  0
 19 20  1  0
 20 21  2  0
 16 21  1  0
 22 23  1  0
 24 23  1  0
 24 25  1  0
 25 26  1  0
 27 26  1  0
 27 23  1  0
 27 28  1  0
 28 29  1  0
 29 30  1  0
 24 30  1  0
 29 31  1  0
 31 32  1  0
 32 33  2  0
 32 34  1  0
 34 35  1  0
 35 36  1  0
 34 37  1  0
 37 38  2  0
 38 39  1  0
 39 40  2  0
 40 41  1  0
 41 42  2  0
 37 42  1  0
 43 44  2  0
 43 45  1  0
 43 46  1  0
 43 47  2  0
  1 50  1  0
  1 51  1  0
  1 52  1  0
  3 53  1  6
  4 54  1  0
  4 55  1  0
  5 56  1  0
  5 57  1  0
  6 58  1  1
  7 59  1  0
  7 60  1  0
  8 61  1  1
  9 62  1  0
  9 63  1  0
 13 64  1  6
 14 65  1  0
 14 66  1  0
 15 67  1  0
 17 68  1  0
 18 69  1  0
 19 70  1  0
 20 71  1  0
 21 72  1  0
 22 73  1  0
 22 74  1  0
 22 75  1  0
 24 76  1  1
 25 77  1  0
 25 78  1  0
 26 79  1  0
 26 80  1  0
 27 81  1  6
 28 82  1  0
 28 83  1  0
 29 84  1  1
 30 85  1  0
 30 86  1  0
 34 87  1  1
 35 88  1  0
 35 89  1  0
 36 90  1  0
 38 91  1  0
 39 92  1  0
 40 93  1  0
 41 94  1  0
 42 95  1  0
 45 96  1  0
 46 97  1  0
 48 98  1  0
 48 99  1  0
 49100  1  0
 49101  1  0
M  END
> <Uni-Dock RESULT> 
ENERGY=   -4.372  LOWER_BOUND=    2.600  UPPER_BOUND=    3.807
INTER + INTRA:          -4.372
INTER:                  -4.372
INTRA:                   0.000
UNBOUND:                 0.000

$$$$

     RDKit          3D

101102  0  0  0  0  0  0  0  0999 V2000
   47.9880    4.8475   21.3421 C   0  0  0  0  0  0  0  0  0  0  0  0
   48.5874    5.6657   20.2885 N   0  0  0  0  0  0  0  0  0  0  0  0
   48.7152    7.0835   20.6707 C   0  0  1  0  0  0  0  0  0  0  0  0
   49.9549    7.1352   21.5702 C   0  0  0  0  0  0  0  0  0  0  0  0
   50.7994    5.9497   21.1229 C   0  0  0  0  0  0  0  0  0  0  0  0
   49.9854    5.2943   20.0029 C   0  0  2  0  0  0  0  0  0  0  0  0
   50.3647    5.8833   18.6325 C   0  0  0  0  0  0  0  0  0  0  0  0
   49.5061    7.0895   18.2182 C   0  0  1  0  0  0  0  0  0  0  0  0
   48.9386    7.9053   19.3896 C   0  0  0  0  0  0  0  0  0  0  0  0
   50.2870    7.9884   17.4008 O   0  0  0  0  0  0  0  0  0  0  0  0
   50.3576    7.7042   16.0648 C   0  0  0  0  0  0  0  0  0  0  0  0
   49.8573    6.7134   15.5477 O   0  0  0  0  0  0  0  0  0  0  0  0
   51.2393    8.7303   15.3592 C   0  0  2  0  0  0  0  0  0  0  0  0
   50.9240   10.1719   15.7970 C   0  0  0  0  0  0  0  0  0  0  0  0
   49.5565   10.5213   15.5951 O   0  0  0  0  0  0  0  0  0  0  0  0
   51.2576    8.5957   13.8396 C   0  0  0  0  0  0  0  0  0  0  0  0
   52.4661    8.3406   13.1711 C   0  0  0  0  0  0  0  0  0  0  0  0
   52.5017    8.2423   11.7786 C   0  0  0  0  0  0  0  0  0  0  0  0
   51.3330    8.3989   11.0358 C   0  0  0  0  0  0  0  0  0  0  0  0
   50.1261    8.6476   11.6855 C   0  0  0  0  0  0  0  0  0  0  0  0
   50.0884    8.7440   13.0773 C   0  0  0  0  0  0  0  0  0  0  0  0
   52.3109    9.8350   13.8505 C   0  0  0  0  0  0  0  0  0  0  0  0
   52.5044    9.0724   15.0683 N   0  0  0  0  0  0  0  0  0  0  0  0
   51.9540    7.7131   15.0779 C   0  0  1  0  0  0  0  0  0  0  0  0
   52.3581    7.2776   16.4898 C   0  0  0  0  0  0  0  0  0  0  0  0
   52.3689    8.5766   17.3043 C   0  0  0  0  0  0  0  0  0  0  0  0
   51.9728    9.6646   16.2989 C   0  0  2  0  0  0  0  0  0  0  0  0
   50.4477    9.8732   16.2448 C   0  0  0  0  0  0  0  0  0  0  0  0
   49.6660    8.6095   15.8518 C   0  0  1  0  0  0  0  0  0  0  0  0
   50.4277    7.7006   14.8737 C   0  0  0  0  0  0  0  0  0  0  0  0
   49.3516    7.8203   17.0187 O   0  0  0  0  0  0  0  0  0  0  0  0
   48.2580    8.1935   17.7370 C   0  0  0  0  0  0  0  0  0  0  0  0
   47.5806    9.1922   17.5007 O   0  0  0  0  0  0  0  0  0  0  0  0
   47.9538    7.2503   18.8843 C   0  0  2  0  0  0  0  0  0  0  0  0
   48.4980    7.8390   20.1939 C   0  0  0  0  0  0  0  0  0  0  0  0
   49.9078    8.0348   20.1795 O   0  0  0  0  0  0  0  0  0  0  0  0
   48.2791    5.7882   18.5964 C   0  0  0  0  0  0  0  0  0  0  0  0
   47.3068    4.9805   17.9791 C   0  0  0  0  0  0  0  0  0  0  0  0
   47.5726    3.6454   17.6705 C   0  0  0  0  0  0  0  0  0  0  0  0
   48.8163    3.0959   17.9671 C   0  0  0  0  0  0  0  0  0  0  0  0
   49.7943    3.8840   18.5669 C   0  0  0  0  0  0  0  0  0  0  0  0
   49.5295    5.2199   18.8772 C   0  0  0  0  0  0  0  0  0  0  0  0
   49.7086    7.5802   17.2435 S   0  0  0  0  0  0  0  0  0  0  0  0
   49.5945    7.9108   18.6416 O   0  0  0  0  0  0  0  0  0  0  0  0
   50.2325    6.0690   17.1194 O   0  0  0  0  0  0  0  0  0  0  0  0
   50.9775    8.3941   16.6929 O   0  0  0  0  0  0  0  0  0  0  0  0
   48.6354    7.7250   16.2946 O   0  0  0  0  0  0  0  0  0  0  0  0
   50.3545    7.1386   17.0909 O   0  0  0  0  0  0  0  0  0  0  0  0
   50.3535    7.1373   17.0917 O   0  0  0  0  0  0  0  0  0  0  0  0
   46.9567    5.1699   21.5251 H   0  0  0  0  0  0  0  0  0  0  0  0
   47.9389    3.7997   21.0241 H   0  0  0  0  0  0  0  0  0  0  0  0
   48.5275    4.8862   22.2937 H   0  0  0  0  0  0  0  0  0  0  0  0
   47.8348    7.4738   21.1957 H   0  0  0  0  0  0  0  0  0  0  0  0
   49.6765    7.0081   22.6241 H   0  0  0  0  0  0  0  0  0  0  0  0
   50.5069    8.0776   21.4911 H   0  0  0  0  0  0  0  0  0  0  0  0
   50.9275    5.2554   21.9619 H   0  0  0  0  0  0  0  0  0  0  0  0
   51.7991    6.2615   20.8053 H   0  0  0  0  0  0  0  0  0  0  0  0
   50.1498    4.2102   19.9810 H   0  0  0  0  0  0  0  0  0  0  0  0
   50.2235    5.1080   17.8678 H   0  0  0  0  0  0  0  0  0  0  0  0
   51.4322    6.1330   18.5906 H   0  0  0  0  0  0  0  0  0  0  0  0
   48.6445    6.7238   17.6409 H   0  0  0  0  0  0  0  0  0  0  0  0
   47.9728    8.3145   19.0600 H   0  0  0  0  0  0  0  0  0  0  0  0
   49.5634    8.7847   19.5902 H   0  0  0  0  0  0  0  0  0  0  0  0
   52.2567    8.5055   15.7130 H   0  0  0  0  0  0  0  0  0  0  0  0
   51.1430   10.3097   16.8621 H   0  0  0  0  0  0  0  0  0  0  0  0
   51.5413   10.8837   15.2371 H   0  0  0  0  0  0  0  0  0  0  0  0
   49.4745   11.4740   15.7701 H   0  0  0  0  0  0  0  0  0  0  0  0
   53.3915    8.2111   13.7284 H   0  0  0  0  0  0  0  0  0  0  0  0
   53.4425    8.0431   11.2729 H   0  0  0  0  0  0  0  0  0  0  0  0
   51.3610    8.3243    9.9516 H   0  0  0  0  0  0  0  0  0  0  0  0
   49.2091    8.7571   11.1127 H   0  0  0  0  0  0  0  0  0  0  0  0
   49.1352    8.9333   13.5674 H   0  0  0  0  0  0  0  0  0  0  0  0
   52.8158   10.8037   13.9331 H   0  0  0  0  0  0  0  0  0  0  0  0
   52.7716    9.3130   13.0044 H   0  0  0  0  0  0  0  0  0  0  0  0
   51.2643   10.0210   13.5972 H   0  0  0  0  0  0  0  0  0  0  0  0
   52.4377    7.0754   14.3303 H   0  0  0  0  0  0  0  0  0  0  0  0
   53.3695    6.8523   16.4803 H   0  0  0  0  0  0  0  0  0  0  0  0
   51.6904    6.5226   16.9161 H   0  0  0  0  0  0  0  0  0  0  0  0
   53.3842    8.7600   17.6820 H   0  0  0  0  0  0  0  0  0  0  0  0
   51.7019    8.5265   18.1699 H   0  0  0  0  0  0  0  0  0  0  0  0
   52.4717   10.6100   16.5434 H   0  0  0  0  0  0  0  0  0  0  0  0
   50.1077   10.2508   17.2177 H   0  0  0  0  0  0  0  0  0  0  0  0
   50.2274   10.6619   15.5151 H   0  0  0  0  0  0  0  0  0  0  0  0
   48.7211    8.8960   15.3712 H   0  0  0  0  0  0  0  0  0  0  0  0
   50.0649    6.6671   14.9625 H   0  0  0  0  0  0  0  0  0  0  0  0
   50.2040    8.0193   13.8473 H   0  0  0  0  0  0  0  0  0  0  0  0
   46.8588    7.2797   18.9943 H   0  0  0  0  0  0  0  0  0  0  0  0
   48.2538    7.1833   21.0370 H   0  0  0  0  0  0  0  0  0  0  0  0
   48.0366    8.8162   20.3790 H   0  0  0  0  0  0  0  0  0  0  0  0
   50.1443    8.4675   21.0184 H   0  0  0  0  0  0  0  0  0  0  0  0
   46.3295    5.3879   17.7265 H   0  0  0  0  0  0  0  0  0  0  0  0
   46.8100    3.0358   17.1937 H   0  0  0  0  0  0  0  0  0  0  0  0
   49.0267    2.0584   17.7237 H   0  0  0  0  0  0  0  0  0  0  0  0
   50.7720    3.4626   18.7867 H   0  0  0  0  0  0  0  0  0  0  0  0
   50.3257    5.8133   19.3201 H   0  0  0  0  0  0  0  0  0  0  0  0
   50.1042    5.7924   16.1882 H   0  0  0  0  0  0  0  0  0  0  0  0
   51.4951    8.6772   17.4745 H   0  0  0  0  0  0  0  0  0  0  0  0
   49.4476    7.1762   17.4321 H   0  0  0  0  0  0  0  0  0  0  0  0
   50.5184    8.0345   16.7576 H   0  0  0  0  0  0  0  0  0  0  0  0
   49.4467    7.1804   17.4312 H   0  0  0  0  0  0  0  0  0  0  0  0
   50.5203    8.0317   16.7578 H   0  0  0  0  0  0  0  0  0  0  0  0
  1  2  1  0
  3  2  1  0
  3  4  1  0
  4  5  1  0
  6  5  1  0
  6  2  1  0
  6  7  1  0
  7  8  1  0
  8  9  1  0
  3  9  1  0
  8 10  1  0
 10 11  1  0
 11 12  2  0
 11 13  1  0
 13 14  1  0
 14 15  1  0
 13 16  1  0
 16 17  2  0
 17 18  1  0
 18 19  2  0
 19 20  1  0
 20 21  2  0
 16 21  1  0
 22 23  1  0
 24 23  1  0
 24 25  1  0
 25 26  1  0
 27 26  1  0
 27 23  1  0
 27 28  1  0
 28 29  1  0
 29 30  1  0
 24 30  1  0
 29 31  1  0
 31 32  1  0
 32 33  2  0
 32 34  1  0
 34 35  1  0
 35 36  1  0
 34 37  1  0
 37 38  2  0
 38 39  1  0
 39 40  2  0
 40 41  1  0
 41 42  2  0
 37 42  1  0
 43 44  2  0
 43 45  1  0
 43 46  1  0
 43 47  2  0
  1 50  1  0
  1 51  1  0
  1 52  1  0
  3 53  1  6
  4 54  1  0
  4 55  1  0
  5 56  1  0
  5 57  1  0
  6 58  1  1
  7 59  1  0
  7 60  1  0
  8 61  1  1
  9 62  1  0
  9 63  1  0
 13 64  1  6
 14 65  1  0
 14 66  1  0
 15 67  1  0
 17 68  1  0
 18 69  1  0
 19 70  1  0
 20 71  1  0
 21 72  1  0
 22 73  1  0
 22 74  1  0
 22 75  1  0
 24 76  1  1
 25 77  1  0
 25 78  1  0
 26 79  1  0
 26 80  1  0
 27 81  1  6
 28 82  1  0
 28 83  1  0
 29 84  1  1
 30 85  1  0
 30 86  1  0
 34 87  1  1
 35 88  1  0
 35 89  1  0
 36 90  1  0
 38 91  1  0
 39 92  1  0
 40 93  1  0
 41 94  1  0
 42 95  1  0
 45 96  1  0
 46 97  1  0
 48 98  1  0
 48 99  1  0
 49100  1  0
 49101  1  0
M  END
> <Uni-Dock RESULT> 
ENERGY=   -4.361  LOWER_BOUND=    2.677  UPPER_BOUND=    4.306
INTER + INTRA:          -4.361
INTER:                  -4.361
INTRA:                   0.000
UNBOUND:                 0.000

$$$$

     RDKit          3D

101102  0  0  0  0  0  0  0  0999 V2000
   51.2536    7.7188   10.8885 C   0  0  0  0  0  0  0  0  0  0  0  0
   51.0006    8.3559   12.1803 N   0  0  0  0  0  0  0  0  0  0  0  0
   52.2400    8.6716   12.9130 C   0  0  1  0  0  0  0  0  0  0  0  0
   52.7650    9.9536   12.2578 C   0  0  0  0  0  0  0  0  0  0  0  0
   51.5232   10.6263   11.6886 C   0  0  0  0  0  0  0  0  0  0  0  0
   50.3714    9.6829   12.0490 C   0  0  2  0  0  0  0  0  0  0  0  0
   49.7610   10.0580   13.4111 C   0  0  0  0  0  0  0  0  0  0  0  0
   50.4070    9.3290   14.6006 C   0  0  1  0  0  0  0  0  0  0  0  0
   51.8732    8.9245   14.3854 C   0  0  0  0  0  0  0  0  0  0  0  0
   50.3557   10.1680   15.7752 O   0  0  0  0  0  0  0  0  0  0  0  0
   49.2012   10.1346   16.5078 C   0  0  0  0  0  0  0  0  0  0  0  0
   48.2072    9.4935   16.1913 O   0  0  0  0  0  0  0  0  0  0  0  0
   49.3055   11.0945   17.6893 C   0  0  2  0  0  0  0  0  0  0  0  0
   50.6543   10.9766   18.4214 C   0  0  0  0  0  0  0  0  0  0  0  0
   50.9183    9.6519   18.8779 O   0  0  0  0  0  0  0  0  0  0  0  0
   48.1307   11.0176   18.6596 C   0  0  0  0  0  0  0  0  0  0  0  0
   47.3331   12.1506   18.8890 C   0  0  0  0  0  0  0  0  0  0  0  0
   46.2717   12.1018   19.7951 C   0  0  0  0  0  0  0  0  0  0  0  0
   45.9939   10.9231   20.4847 C   0  0  0  0  0  0  0  0  0  0  0  0
   46.7734    9.7899   20.2640 C   0  0  0  0  0  0  0  0  0  0  0  0
   47.8332    9.8363   19.3571 C   0  0  0  0  0  0  0  0  0  0  0  0
   48.8708   12.2103   19.4812 C   0  0  0  0  0  0  0  0  0  0  0  0
   49.1835   12.3745   18.0751 N   0  0  0  0  0  0  0  0  0  0  0  0
   48.3139   11.6672   17.1294 C   0  0  1  0  0  0  0  0  0  0  0  0
   48.9658   12.0893   15.8091 C   0  0  0  0  0  0  0  0  0  0  0  0
   50.4439   12.2973   16.1595 C   0  0  0  0  0  0  0  0  0  0  0  0
   50.5323   11.9820   17.6576 C   0  0  2  0  0  0  0  0  0  0  0  0
   50.8226   10.4920   17.9180 C   0  0  0  0  0  0  0  0  0  0  0  0
   49.7614    9.5458   17.3341 C   0  0  1  0  0  0  0  0  0  0  0  0
   48.3444   10.1418   17.3381 C   0  0  0  0  0  0  0  0  0  0  0  0
   50.0806    9.2006   15.9695 O   0  0  0  0  0  0  0  0  0  0  0  0
   50.9816    8.1981   15.7835 C   0  0  0  0  0  0  0  0  0  0  0  0
   51.5882    7.6333   16.6919 O   0  0  0  0  0  0  0  0  0  0  0  0
   51.1789    7.8437   14.3228 C   0  0  2  0  0  0  0  0  0  0  0  0
   52.4516    8.5216   13.7950 C   0  0  0  0  0  0  0  0  0  0  0  0
   52.4071    9.9420   13.8756 O   0  0  0  0  0  0  0  0  0  0  0  0
   49.9210    7.9769   13.4703 C   0  0  0  0  0  0  0  0  0  0  0  0
   49.0397    6.8844   13.3772 C   0  0  0  0  0  0  0  0  0  0  0  0
   47.8625    6.9727   12.6325 C   0  0  0  0  0  0  0  0  0  0  0  0
   47.5420    8.1557   11.9734 C   0  0  0  0  0  0  0  0  0  0  0  0
   48.3965    9.2505   12.0645 C   0  0  0  0  0  0  0  0  0  0  0  0
   49.5755    9.1635   12.8086 C   0  0  0  0  0  0  0  0  0  0  0  0
   50.0307    9.5376   15.6237 S   0  0  0  0  0  0  0  0  0  0  0  0
   51.2666    9.5366   14.8825 O   0  0  0  0  0  0  0  0  0  0  0  0
   48.8311    9.8704   14.6117 O   0  0  0  0  0  0  0  0  0  0  0  0
   50.0511   10.8642   16.5268 O   0  0  0  0  0  0  0  0  0  0  0  0
   49.5867    8.4415   16.4450 O   0  0  0  0  0  0  0  0  0  0  0  0
   49.5381   10.1174   15.3858 O   0  0  0  0  0  0  0  0  0  0  0  0
   49.5379   10.1163   15.3843 O   0  0  0  0  0  0  0  0  0  0  0  0
   51.7317    6.7443   11.0391 H   0  0  0  0  0  0  0  0  0  0  0  0
   50.3070    7.5286   10.3698 H   0  0  0  0  0  0  0  0  0  0  0  0
   51.8912    8.3078   10.2216 H   0  0  0  0  0  0  0  0  0  0  0  0
   52.9898    7.8725   12.8645 H   0  0  0  0  0  0  0  0  0  0  0  0
   53.4590    9.7173   11.4412 H   0  0  0  0  0  0  0  0  0  0  0  0
   53.2959   10.6093   12.9561 H   0  0  0  0  0  0  0  0  0  0  0  0
   51.6221   10.7142   10.6001 H   0  0  0  0  0  0  0  0  0  0  0  0
   51.3933   11.6382   12.0845 H   0  0  0  0  0  0  0  0  0  0  0  0
   49.5841    9.7155   11.2862 H   0  0  0  0  0  0  0  0  0  0  0  0
   48.6972    9.7857   13.4041 H   0  0  0  0  0  0  0  0  0  0  0  0
   49.7756   11.1440   13.5660 H   0  0  0  0  0  0  0  0  0  0  0  0
   49.8473    8.4011   14.7881 H   0  0  0  0  0  0  0  0  0  0  0  0
   52.0395    7.9986   14.9545 H   0  0  0  0  0  0  0  0  0  0  0  0
   52.5502    9.6593   14.8389 H   0  0  0  0  0  0  0  0  0  0  0  0
   49.2780   12.0948   17.2317 H   0  0  0  0  0  0  0  0  0  0  0  0
   51.4799   11.2655   17.7608 H   0  0  0  0  0  0  0  0  0  0  0  0
   50.6759   11.6444   19.2902 H   0  0  0  0  0  0  0  0  0  0  0  0
   51.7133    9.6933   19.4358 H   0  0  0  0  0  0  0  0  0  0  0  0
   47.5274   13.0817   18.3608 H   0  0  0  0  0  0  0  0  0  0  0  0
   45.6609   12.9846   19.9629 H   0  0  0  0  0  0  0  0  0  0  0  0
   45.1687   10.8856   21.1916 H   0  0  0  0  0  0  0  0  0  0  0  0
   46.5532    8.8640   20.7885 H   0  0  0  0  0  0  0  0  0  0  0  0
   48.4276    8.9393   19.1939 H   0  0  0  0  0  0  0  0  0  0  0  0
   49.5405   12.8307   20.0868 H   0  0  0  0  0  0  0  0  0  0  0  0
   47.8524   12.5608   19.6820 H   0  0  0  0  0  0  0  0  0  0  0  0
   48.9463   11.1816   19.8421 H   0  0  0  0  0  0  0  0  0  0  0  0
   47.2823   12.0318   17.1777 H   0  0  0  0  0  0  0  0  0  0  0  0
   48.5420   13.0409   15.4644 H   0  0  0  0  0  0  0  0  0  0  0  0
   48.8255   11.3594   15.0059 H   0  0  0  0  0  0  0  0  0  0  0  0
   50.7169   13.3455   15.9752 H   0  0  0  0  0  0  0  0  0  0  0  0
   51.1044   11.6750   15.5487 H   0  0  0  0  0  0  0  0  0  0  0  0
   51.3015   12.6022   18.1333 H   0  0  0  0  0  0  0  0  0  0  0  0
   51.8165   10.2505   17.5197 H   0  0  0  0  0  0  0  0  0  0  0  0
   50.8781   10.3297   19.0013 H   0  0  0  0  0  0  0  0  0  0  0  0
   49.7328    8.6181   17.9211 H   0  0  0  0  0  0  0  0  0  0  0  0
   47.7344    9.6634   16.5592 H   0  0  0  0  0  0  0  0  0  0  0  0
   47.8635    9.9046   18.2960 H   0  0  0  0  0  0  0  0  0  0  0  0
   51.4095    6.7672   14.3196 H   0  0  0  0  0  0  0  0  0  0  0  0
   52.6250    8.2450   12.7491 H   0  0  0  0  0  0  0  0  0  0  0  0
   53.3165    8.1902   14.3818 H   0  0  0  0  0  0  0  0  0  0  0  0
   53.2744   10.2717   13.5825 H   0  0  0  0  0  0  0  0  0  0  0  0
   49.2609    5.9509   13.8915 H   0  0  0  0  0  0  0  0  0  0  0  0
   47.1931    6.1191   12.5712 H   0  0  0  0  0  0  0  0  0  0  0  0
   46.6241    8.2279   11.3969 H   0  0  0  0  0  0  0  0  0  0  0  0
   48.1423   10.1811   11.5633 H   0  0  0  0  0  0  0  0  0  0  0  0
   50.2054   10.0467   12.8805 H   0  0  0  0  0  0  0  0  0  0  0  0
   47.9934    9.6618   15.0753 H   0  0  0  0  0  0  0  0  0  0  0  0
   50.7400   11.4517   16.1540 H   0  0  0  0  0  0  0  0  0  0  0  0
   49.9159    9.2404   15.2170 H   0  0  0  0  0  0  0  0  0  0  0  0
   49.9030   10.3695   16.2482 H   0  0  0  0  0  0  0  0  0  0  0  0
   49.9183    9.2400   15.2207 H   0  0  0  0  0  0  0  0  0  0  0  0
   49.9009   10.3710   16.2460 H   0  0  0  0  0  0  0  0  0  0  0  0
  1  2  1  0
  3  2  1  0
  3  4  1  0
  4  5  1  0
  6  5  1  0
  6  2  1  0
  6  7  1  0
  7  8  1  0
  8  9  1  0
  3  9  1  0
  8 10  1  0
 10 11  1  0
 11 12  2  0
 11 13  1  0
 13 14  1  0
 14 15  1  0
 13 16  1  0
 16 17  2  0
 17 18  1  0
 18 19  2  0
 19 20  1  0
 20 21  2  0
 16 21  1  0
 22 23  1  0
 24 23  1  0
 24 25  1  0
 25 26  1  0
 27 26  1  0
 27 23  1  0
 27 28  1  0
 28 29  1  0
 29 30  1  0
 24 30  1  0
 29 31  1  0
 31 32  1  0
 32 33  2  0
 32 34  1  0
 34 35  1  0
 35 36  1  0
 34 37  1  0
 37 38  2  0
 38 39  1  0
 39 40  2  0
 40 41  1  0
 41 42  2  0
 37 42  1  0
 43 44  2  0
 43 45  1  0
 43 46  1  0
 43 47  2  0
  1 50  1  0
  1 51  1  0
  1 52  1  0
  3 53  1  6
  4 54  1  0
  4 55  1  0
  5 56  1  0
  5 57  1  0
  6 58  1  1
  7 59  1  0
  7 60  1  0
  8 61  1  1
  9 62  1  0
  9 63  1  0
 13 64  1  6
 14 65  1  0
 14 66  1  0
 15 67  1  0
 17 68  1  0
 18 69  1  0
 19 70  1  0
 20 71  1  0
 21 72  1  0
 22 73  1  0
 22 74  1  0
 22 75  1  0
 24 76  1  1
 25 77  1  0
 25 78  1  0
 26 79  1  0
 26 80  1  0
 27 81  1  6
 28 82  1  0
 28 83  1  0
 29 84  1  1
 30 85  1  0
 30 86  1  0
 34 87  1  1
 35 88  1  0
 35 89  1  0
 36 90  1  0
 38 91  1  0
 39 92  1  0
 40 93  1  0
 41 94  1  0
 42 95  1  0
 45 96  1  0
 46 97  1  0
 48 98  1  0
 48 99  1  0
 49100  1  0
 49101  1  0
M  END
> <Uni-Dock RESULT> 
ENERGY=   -4.311  LOWER_BOUND=    1.519  UPPER_BOUND=    5.989
INTER + INTRA:          -4.311
INTER:                  -4.311
INTRA:                   0.000
UNBOUND:                 0.000

$$$$

     RDKit          3D

101102  0  0  0  0  0  0  0  0999 V2000
   49.0165   13.1595   19.5519 C   0  0  0  0  0  0  0  0  0  0  0  0
   48.9998   11.7014   19.6635 N   0  0  0  0  0  0  0  0  0  0  0  0
   48.9946   11.2367   21.0624 C   0  0  1  0  0  0  0  0  0  0  0  0
   47.5420   11.4000   21.5226 C   0  0  0  0  0  0  0  0  0  0  0  0
   46.7240   11.3061   20.2418 C   0  0  0  0  0  0  0  0  0  0  0  0
   47.7613   11.1023   19.1331 C   0  0  2  0  0  0  0  0  0  0  0  0
   48.0210    9.6044   18.8937 C   0  0  0  0  0  0  0  0  0  0  0  0
   49.1709    9.0327   19.7389 C   0  0  1  0  0  0  0  0  0  0  0  0
   49.4053    9.7542   21.0746 C   0  0  0  0  0  0  0  0  0  0  0  0
   48.9163    7.6422   20.0350 O   0  0  0  0  0  0  0  0  0  0  0  0
   49.2904    6.7303   19.0868 C   0  0  0  0  0  0  0  0  0  0  0  0
   49.7610    7.0294   17.9967 O   0  0  0  0  0  0  0  0  0  0  0  0
   48.9253    5.3216   19.5452 C   0  0  2  0  0  0  0  0  0  0  0  0
   49.3088    5.0667   21.0139 C   0  0  0  0  0  0  0  0  0  0  0  0
   50.6939    5.2904   21.2675 O   0  0  0  0  0  0  0  0  0  0  0  0
   49.4410    4.2155   18.6296 C   0  0  0  0  0  0  0  0  0  0  0  0
   48.5365    3.3413   18.0050 C   0  0  0  0  0  0  0  0  0  0  0  0
   48.9963    2.3077   17.1863 C   0  0  0  0  0  0  0  0  0  0  0  0
   50.3636    2.1322   16.9821 C   0  0  0  0  0  0  0  0  0  0  0  0
   51.2724    2.9944   17.5913 C   0  0  0  0  0  0  0  0  0  0  0  0
   50.8145    4.0294   18.4080 C   0  0  0  0  0  0  0  0  0  0  0  0
   48.6946    3.1808   19.6384 C   0  0  0  0  0  0  0  0  0  0  0  0
   47.9368    4.4167   19.6238 N   0  0  0  0  0  0  0  0  0  0  0  0
   48.1949    5.3237   18.5006 C   0  0  1  0  0  0  0  0  0  0  0  0
   47.2317    6.4604   18.8560 C   0  0  0  0  0  0  0  0  0  0  0  0
   47.1540    6.4338   20.3870 C   0  0  0  0  0  0  0  0  0  0  0  0
   48.0770    5.2806   20.7992 C   0  0  2  0  0  0  0  0  0  0  0  0
   49.5270    5.7515   21.0184 C   0  0  0  0  0  0  0  0  0  0  0  0
   50.1608    6.3955   19.7750 C   0  0  1  0  0  0  0  0  0  0  0  0
   49.6618    5.7901   18.4531 C   0  0  0  0  0  0  0  0  0  0  0  0
   49.8808    7.8109   19.7344 O   0  0  0  0  0  0  0  0  0  0  0  0
   50.6831    8.6180   20.4802 C   0  0  0  0  0  0  0  0  0  0  0  0
   51.5656    8.2129   21.2347 O   0  0  0  0  0  0  0  0  0  0  0  0
   50.3737   10.0908   20.2981 C   0  0  2  0  0  0  0  0  0  0  0  0
   49.5016   10.5823   21.4625 C   0  0  0  0  0  0  0  0  0  0  0  0
   48.2537    9.9040   21.5558 O   0  0  0  0  0  0  0  0  0  0  0  0
   49.9226   10.4670   18.8904 C   0  0  0  0  0  0  0  0  0  0  0  0
   50.8935   10.7887   17.9247 C   0  0  0  0  0  0  0  0  0  0  0  0
   50.5268   11.1096   16.6167 C   0  0  0  0  0  0  0  0  0  0  0  0
   49.1847   11.1083   16.2491 C   0  0  0  0  0  0  0  0  0  0  0  0
   48.2115   10.7806   17.1886 C   0  0  0  0  0  0  0  0  0  0  0  0
   48.5767   10.4602   18.4982 C   0  0  0  0  0  0  0  0  0  0  0  0
   49.4298    7.9587   19.6326 S   0  0  0  0  0  0  0  0  0  0  0  0
   49.0809    8.9126   20.6549 O   0  0  0  0  0  0  0  0  0  0  0  0
   48.7286    8.4046   18.2603 O   0  0  0  0  0  0  0  0  0  0  0  0
   48.6166    6.6180   19.9746 O   0  0  0  0  0  0  0  0  0  0  0  0
   50.7833    7.5923   19.3053 O   0  0  0  0  0  0  0  0  0  0  0  0
   48.8173    7.8005   19.1475 O   0  0  0  0  0  0  0  0  0  0  0  0
   48.8177    7.8022   19.1468 O   0  0  0  0  0  0  0  0  0  0  0  0
   49.9488   13.5561   19.9697 H   0  0  0  0  0  0  0  0  0  0  0  0
   48.9919   13.4574   18.4974 H   0  0  0  0  0  0  0  0  0  0  0  0
   48.1822   13.6523   20.0610 H   0  0  0  0  0  0  0  0  0  0  0  0
   49.6759   11.8008   21.7109 H   0  0  0  0  0  0  0  0  0  0  0  0
   47.3880   12.3843   21.9829 H   0  0  0  0  0  0  0  0  0  0  0  0
   47.2339   10.6467   22.2553 H   0  0  0  0  0  0  0  0  0  0  0  0
   46.1767   12.2439   20.0885 H   0  0  0  0  0  0  0  0  0  0  0  0
   45.9823   10.5031   20.2928 H   0  0  0  0  0  0  0  0  0  0  0  0
   47.4269   11.5592   18.1939 H   0  0  0  0  0  0  0  0  0  0  0  0
   48.2924    9.4611   17.8393 H   0  0  0  0  0  0  0  0  0  0  0  0
   47.1054    9.0164   19.0340 H   0  0  0  0  0  0  0  0  0  0  0  0
   50.1045    9.1201   19.1643 H   0  0  0  0  0  0  0  0  0  0  0  0
   50.4808    9.6878   21.2930 H   0  0  0  0  0  0  0  0  0  0  0  0
   48.9170    9.2175   21.8978 H   0  0  0  0  0  0  0  0  0  0  0  0
   47.8265    5.2938   19.4937 H   0  0  0  0  0  0  0  0  0  0  0  0
   48.7433    5.7266   21.6819 H   0  0  0  0  0  0  0  0  0  0  0  0
   49.0761    4.0330   21.2946 H   0  0  0  0  0  0  0  0  0  0  0  0
   50.8737    4.9832   22.1721 H   0  0  0  0  0  0  0  0  0  0  0  0
   47.4641    3.4593   18.1458 H   0  0  0  0  0  0  0  0  0  0  0  0
   48.2866    1.6387   16.7074 H   0  0  0  0  0  0  0  0  0  0  0  0
   50.7217    1.3263   16.3463 H   0  0  0  0  0  0  0  0  0  0  0  0
   52.3392    2.8711   17.4250 H   0  0  0  0  0  0  0  0  0  0  0  0
   51.5394    4.6963   18.8710 H   0  0  0  0  0  0  0  0  0  0  0  0
   48.3750    2.5576   20.4808 H   0  0  0  0  0  0  0  0  0  0  0  0
   48.4909    2.6056   18.7284 H   0  0  0  0  0  0  0  0  0  0  0  0
   49.7764    3.3168   19.7113 H   0  0  0  0  0  0  0  0  0  0  0  0
   47.9136    4.8724   17.5431 H   0  0  0  0  0  0  0  0  0  0  0  0
   46.2358    6.2562   18.4432 H   0  0  0  0  0  0  0  0  0  0  0  0
   47.5517    7.4334   18.4707 H   0  0  0  0  0  0  0  0  0  0  0  0
   46.1208    6.2218   20.6947 H   0  0  0  0  0  0  0  0  0  0  0  0
   47.4376    7.3923   20.8314 H   0  0  0  0  0  0  0  0  0  0  0  0
   47.6994    4.7956   21.7073 H   0  0  0  0  0  0  0  0  0  0  0  0
   49.5484    6.4472   21.8671 H   0  0  0  0  0  0  0  0  0  0  0  0
   50.1352    4.8879   21.3136 H   0  0  0  0  0  0  0  0  0  0  0  0
   51.2507    6.2660   19.8087 H   0  0  0  0  0  0  0  0  0  0  0  0
   49.7774    6.5197   17.6394 H   0  0  0  0  0  0  0  0  0  0  0  0
   50.2984    4.9344   18.1932 H   0  0  0  0  0  0  0  0  0  0  0  0
   51.3389   10.6032   20.4317 H   0  0  0  0  0  0  0  0  0  0  0  0
   49.2997   11.6545   21.3613 H   0  0  0  0  0  0  0  0  0  0  0  0
   50.0287   10.4239   22.4107 H   0  0  0  0  0  0  0  0  0  0  0  0
   47.8073   10.2364   22.3540 H   0  0  0  0  0  0  0  0  0  0  0  0
   51.9511   10.7869   18.1827 H   0  0  0  0  0  0  0  0  0  0  0  0
   51.2899   11.3558   15.8835 H   0  0  0  0  0  0  0  0  0  0  0  0
   48.8975   11.3534   15.2305 H   0  0  0  0  0  0  0  0  0  0  0  0
   47.1631   10.7640   16.9014 H   0  0  0  0  0  0  0  0  0  0  0  0
   47.7925   10.1825   19.1982 H   0  0  0  0  0  0  0  0  0  0  0  0
   49.1376    7.8798   17.5409 H   0  0  0  0  0  0  0  0  0  0  0  0
   47.9079    6.8674   20.6026 H   0  0  0  0  0  0  0  0  0  0  0  0
   49.5276    8.4101   19.4011 H   0  0  0  0  0  0  0  0  0  0  0  0
   48.9485    7.0323   19.7247 H   0  0  0  0  0  0  0  0  0  0  0  0
   49.5294    8.4076   19.4042 H   0  0  0  0  0  0  0  0  0  0  0  0
   48.9462    7.0331   19.7222 H   0  0  0  0  0  0  0  0  0  0  0  0
  1  2  1  0
  3  2  1  0
  3  4  1  0
  4  5  1  0
  6  5  1  0
  6  2  1  0
  6  7  1  0
  7  8  1  0
  8  9  1  0
  3  9  1  0
  8 10  1  0
 10 11  1  0
 11 12  2  0
 11 13  1  0
 13 14  1  0
 14 15  1  0
 13 16  1  0
 16 17  2  0
 17 18  1  0
 18 19  2  0
 19 20  1  0
 20 21  2  0
 16 21  1  0
 22 23  1  0
 24 23  1  0
 24 25  1  0
 25 26  1  0
 27 26  1  0
 27 23  1  0
 27 28  1  0
 28 29  1  0
 29 30  1  0
 24 30  1  0
 29 31  1  0
 31 32  1  0
 32 33  2  0
 32 34  1  0
 34 35  1  0
 35 36  1  0
 34 37  1  0
 37 38  2  0
 38 39  1  0
 39 40  2  0
 40 41  1  0
 41 42  2  0
 37 42  1  0
 43 44  2  0
 43 45  1  0
 43 46  1  0
 43 47  2  0
  1 50  1  0
  1 51  1  0
  1 52  1  0
  3 53  1  6
  4 54  1  0
  4 55  1  0
  5 56  1  0
  5 57  1  0
  6 58  1  1
  7 59  1  0
  7 60  1  0
  8 61  1  1
  9 62  1  0
  9 63  1  0
 13 64  1  6
 14 65  1  0
 14 66  1  0
 15 67  1  0
 17 68  1  0
 18 69  1  0
 19 70  1  0
 20 71  1  0
 21 72  1  0
 22 73  1  0
 22 74  1  0
 22 75  1  0
 24 76  1  1
 25 77  1  0
 25 78  1  0
 26 79  1  0
 26 80  1  0
 27 81  1  6
 28 82  1  0
 28 83  1  0
 29 84  1  1
 30 85  1  0
 30 86  1  0
 34 87  1  1
 35 88  1  0
 35 89  1  0
 36 90  1  0
 38 91  1  0
 39 92  1  0
 40 93  1  0
 41 94  1  0
 42 95  1  0
 45 96  1  0
 46 97  1  0
 48 98  1  0
 48 99  1  0
 49100  1  0
 49101  1  0
M  END
> <Uni-Dock RESULT> 
ENERGY=   -4.183  LOWER_BOUND=    3.148  UPPER_BOUND=    5.130
INTER + INTRA:          -4.183
INTER:                  -4.183
INTRA:                   0.000
UNBOUND:                 0.000

$$$$

     RDKit          3D

101102  0  0  0  0  0  0  0  0999 V2000
   56.0587    9.6874   10.2177 C   0  0  0  0  0  0  0  0  0  0  0  0
   54.7365    9.5928   10.8355 N   0  0  0  0  0  0  0  0  0  0  0  0
   54.6341   10.3680   12.0850 C   0  0  1  0  0  0  0  0  0  0  0  0
   54.4404   11.8184   11.6297 C   0  0  0  0  0  0  0  0  0  0  0  0
   53.7998   11.7030   10.2532 C   0  0  0  0  0  0  0  0  0  0  0  0
   53.6753   10.1960   10.0084 C   0  0  2  0  0  0  0  0  0  0  0  0
   52.3202    9.6686   10.5125 C   0  0  0  0  0  0  0  0  0  0  0  0
   52.3491    9.1823   11.9708 C   0  0  1  0  0  0  0  0  0  0  0  0
   53.3991    9.8707   12.8557 C   0  0  0  0  0  0  0  0  0  0  0  0
   51.0583    9.3945   12.5830 O   0  0  0  0  0  0  0  0  0  0  0  0
   50.1129    8.4268   12.3819 C   0  0  0  0  0  0  0  0  0  0  0  0
   50.2797    7.4429   11.6725 O   0  0  0  0  0  0  0  0  0  0  0  0
   48.8089    8.8210   13.0693 C   0  0  2  0  0  0  0  0  0  0  0  0
   49.0370    9.3524   14.4956 C   0  0  0  0  0  0  0  0  0  0  0  0
   49.7333    8.4237   15.3238 O   0  0  0  0  0  0  0  0  0  0  0  0
   47.7363    7.7365   13.0384 C   0  0  0  0  0  0  0  0  0  0  0  0
   46.5035    7.9847   12.4130 C   0  0  0  0  0  0  0  0  0  0  0  0
   45.5029    7.0108   12.4013 C   0  0  0  0  0  0  0  0  0  0  0  0
   45.7187    5.7782   13.0147 C   0  0  0  0  0  0  0  0  0  0  0  0
   46.9382    5.5160   13.6349 C   0  0  0  0  0  0  0  0  0  0  0  0
   47.9402    6.4875   13.6455 C   0  0  0  0  0  0  0  0  0  0  0  0
   46.7870    8.8046   13.8152 C   0  0  0  0  0  0  0  0  0  0  0  0
   47.6863    9.5481   12.9547 N   0  0  0  0  0  0  0  0  0  0  0  0
   48.3392    8.7867   11.8848 C   0  0  1  0  0  0  0  0  0  0  0  0
   49.1699    9.9008   11.2407 C   0  0  0  0  0  0  0  0  0  0  0  0
   49.4794   10.8643   12.3925 C   0  0  0  0  0  0  0  0  0  0  0  0
   48.8007   10.2339   13.6146 C   0  0  2  0  0  0  0  0  0  0  0  0
   49.7368    9.2627   14.3581 C   0  0  0  0  0  0  0  0  0  0  0  0
   50.2362    8.0991   13.4868 C   0  0  1  0  0  0  0  0  0  0  0  0
   49.2140    7.6439   12.4328 C   0  0  0  0  0  0  0  0  0  0  0  0
   51.4434    8.4674   12.7865 O   0  0  0  0  0  0  0  0  0  0  0  0
   52.6109    8.3643   13.4776 C   0  0  0  0  0  0  0  0  0  0  0  0
   52.6888    8.0577   14.6659 O   0  0  0  0  0  0  0  0  0  0  0  0
   53.8288    8.6793   12.6315 C   0  0  2  0  0  0  0  0  0  0  0  0
   54.2826   10.1218   12.8981 C   0  0  0  0  0  0  0  0  0  0  0  0
   53.2915   11.0917   12.5770 O   0  0  0  0  0  0  0  0  0  0  0  0
   53.7055    8.2523   11.1724 C   0  0  0  0  0  0  0  0  0  0  0  0
   54.0780    6.9454   10.8090 C   0  0  0  0  0  0  0  0  0  0  0  0
   53.9535    6.5034    9.4909 C   0  0  0  0  0  0  0  0  0  0  0  0
   53.4488    7.3569    8.5144 C   0  0  0  0  0  0  0  0  0  0  0  0
   53.0640    8.6494    8.8587 C   0  0  0  0  0  0  0  0  0  0  0  0
   53.1889    9.0936   10.1771 C   0  0  0  0  0  0  0  0  0  0  0  0
   51.4154    8.7847   12.4202 S   0  0  0  0  0  0  0  0  0  0  0  0
   52.4248    9.7810   12.6759 O   0  0  0  0  0  0  0  0  0  0  0  0
   51.2870    8.5865   10.8334 O   0  0  0  0  0  0  0  0  0  0  0  0
   50.0076    9.4757   12.7610 O   0  0  0  0  0  0  0  0  0  0  0  0
   51.4224    7.4677   13.0022 O   0  0  0  0  0  0  0  0  0  0  0  0
   50.9657    8.9679   11.7880 O   0  0  0  0  0  0  0  0  0  0  0  0
   50.9672    8.9674   11.7871 O   0  0  0  0  0  0  0  0  0  0  0  0
   56.8118    9.2378   10.8747 H   0  0  0  0  0  0  0  0  0  0  0  0
   56.0787    9.1195    9.2804 H   0  0  0  0  0  0  0  0  0  0  0  0
   56.3722   10.7128    9.9974 H   0  0  0  0  0  0  0  0  0  0  0  0
   55.5174   10.2750   12.7285 H   0  0  0  0  0  0  0  0  0  0  0  0
   55.4068   12.3307   11.5408 H   0  0  0  0  0  0  0  0  0  0  0  0
   53.8221   12.4074   12.3153 H   0  0  0  0  0  0  0  0  0  0  0  0
   54.4575   12.1611    9.5048 H   0  0  0  0  0  0  0  0  0  0  0  0
   52.8413   12.2291   10.2070 H   0  0  0  0  0  0  0  0  0  0  0  0
   53.7724    9.9624    8.9412 H   0  0  0  0  0  0  0  0  0  0  0  0
   52.0260    8.8119    9.8918 H   0  0  0  0  0  0  0  0  0  0  0  0
   51.5267   10.4119   10.3660 H   0  0  0  0  0  0  0  0  0  0  0  0
   52.5856    8.1083   11.9767 H   0  0  0  0  0  0  0  0  0  0  0  0
   53.7236    9.1337   13.6043 H   0  0  0  0  0  0  0  0  0  0  0  0
   52.9455   10.6826   13.4379 H   0  0  0  0  0  0  0  0  0  0  0  0
   48.4295    9.6639   12.4723 H   0  0  0  0  0  0  0  0  0  0  0  0
   49.6253   10.2770   14.4748 H   0  0  0  0  0  0  0  0  0  0  0  0
   48.0782    9.5806   14.9751 H   0  0  0  0  0  0  0  0  0  0  0  0
   49.7179    8.7782   16.2289 H   0  0  0  0  0  0  0  0  0  0  0  0
   46.3116    8.9376   11.9242 H   0  0  0  0  0  0  0  0  0  0  0  0
   44.5539    7.2141   11.9129 H   0  0  0  0  0  0  0  0  0  0  0  0
   44.9390    5.0206   13.0073 H   0  0  0  0  0  0  0  0  0  0  0  0
   47.1175    4.5518   14.1030 H   0  0  0  0  0  0  0  0  0  0  0  0
   48.8883    6.2622   14.1303 H   0  0  0  0  0  0  0  0  0  0  0  0
   46.3106    9.4830   14.5314 H   0  0  0  0  0  0  0  0  0  0  0  0
   45.9809    8.3607   13.2206 H   0  0  0  0  0  0  0  0  0  0  0  0
   47.2658    8.0007   14.3798 H   0  0  0  0  0  0  0  0  0  0  0  0
   47.6120    8.3915   11.1675 H   0  0  0  0  0  0  0  0  0  0  0  0
   48.5754   10.4272   10.4833 H   0  0  0  0  0  0  0  0  0  0  0  0
   50.0756    9.5340   10.7479 H   0  0  0  0  0  0  0  0  0  0  0  0
   49.0348   11.8452   12.1750 H   0  0  0  0  0  0  0  0  0  0  0  0
   50.5545   11.0150   12.5269 H   0  0  0  0  0  0  0  0  0  0  0  0
   48.4489   11.0139   14.3004 H   0  0  0  0  0  0  0  0  0  0  0  0
   50.5828    9.8302   14.7667 H   0  0  0  0  0  0  0  0  0  0  0  0
   49.1995    8.8488   15.2201 H   0  0  0  0  0  0  0  0  0  0  0  0
   50.4638    7.2340   14.1236 H   0  0  0  0  0  0  0  0  0  0  0  0
   49.7317    7.1579   11.5940 H   0  0  0  0  0  0  0  0  0  0  0  0
   48.5630    6.8803   12.8779 H   0  0  0  0  0  0  0  0  0  0  0  0
   54.6322    8.0493   13.0433 H   0  0  0  0  0  0  0  0  0  0  0  0
   55.1838   10.3511   12.3185 H   0  0  0  0  0  0  0  0  0  0  0  0
   54.5226   10.2427   13.9611 H   0  0  0  0  0  0  0  0  0  0  0  0
   53.6456   11.9592   12.8396 H   0  0  0  0  0  0  0  0  0  0  0  0
   54.4657    6.2539   11.5549 H   0  0  0  0  0  0  0  0  0  0  0  0
   54.2461    5.4907    9.2276 H   0  0  0  0  0  0  0  0  0  0  0  0
   53.3469    7.0134    7.4889 H   0  0  0  0  0  0  0  0  0  0  0  0
   52.6555    9.3142    8.1017 H   0  0  0  0  0  0  0  0  0  0  0  0
   52.8530   10.0998   10.4155 H   0  0  0  0  0  0  0  0  0  0  0  0
   50.7625    7.7725   10.6836 H   0  0  0  0  0  0  0  0  0  0  0  0
   50.1638   10.4420   12.7875 H   0  0  0  0  0  0  0  0  0  0  0  0
   51.8075    8.6238   12.1248 H   0  0  0  0  0  0  0  0  0  0  0  0
   50.4339    9.1126   12.5860 H   0  0  0  0  0  0  0  0  0  0  0  0
   51.8065    8.6239   12.1290 H   0  0  0  0  0  0  0  0  0  0  0  0
   50.4334    9.1131   12.5826 H   0  0  0  0  0  0  0  0  0  0  0  0
  1  2  1  0
  3  2  1  0
  3  4  1  0
  4  5  1  0
  6  5  1  0
  6  2  1  0
  6  7  1  0
  7  8  1  0
  8  9  1  0
  3  9  1  0
  8 10  1  0
 10 11  1  0
 11 12  2  0
 11 13  1  0
 13 14  1  0
 14 15  1  0
 13 16  1  0
 16 17  2  0
 17 18  1  0
 18 19  2  0
 19 20  1  0
 20 21  2  0
 16 21  1  0
 22 23  1  0
 24 23  1  0
 24 25  1  0
 25 26  1  0
 27 26  1  0
 27 23  1  0
 27 28  1  0
 28 29  1  0
 29 30  1  0
 24 30  1  0
 29 31  1  0
 31 32  1  0
 32 33  2  0
 32 34  1  0
 34 35  1  0
 35 36  1  0
 34 37  1  0
 37 38  2  0
 38 39  1  0
 39 40  2  0
 40 41  1  0
 41 42  2  0
 37 42  1  0
 43 44  2  0
 43 45  1  0
 43 46  1  0
 43 47  2  0
  1 50  1  0
  1 51  1  0
  1 52  1  0
  3 53  1  6
  4 54  1  0
  4 55  1  0
  5 56  1  0
  5 57  1  0
  6 58  1  1
  7 59  1  0
  7 60  1  0
  8 61  1  1
  9 62  1  0
  9 63  1  0
 13 64  1  6
 14 65  1  0
 14 66  1  0
 15 67  1  0
 17 68  1  0
 18 69  1  0
 19 70  1  0
 20 71  1  0
 21 72  1  0
 22 73  1  0
 22 74  1  0
 22 75  1  0
 24 76  1  1
 25 77  1  0
 25 78  1  0
 26 79  1  0
 26 80  1  0
 27 81  1  6
 28 82  1  0
 28 83  1  0
 29 84  1  1
 30 85  1  0
 30 86  1  0
 34 87  1  1
 35 88  1  0
 35 89  1  0
 36 90  1  0
 38 91  1  0
 39 92  1  0
 40 93  1  0
 41 94  1  0
 42 95  1  0
 45 96  1  0
 46 97  1  0
 48 98  1  0
 48 99  1  0
 49100  1  0
 49101  1  0
M  END
> <Uni-Dock RESULT> 
ENERGY=   -4.123  LOWER_BOUND=    3.823  UPPER_BOUND=    6.932
INTER + INTRA:          -4.123
INTER:                  -4.123
INTRA:                   0.000
UNBOUND:                 0.000

$$$$

     RDKit          3D

101102  0  0  0  0  0  0  0  0999 V2000
   50.5923    3.7220   17.6463 C   0  0  0  0  0  0  0  0  0  0  0  0
   50.0572    4.9962   18.1246 N   0  0  0  0  0  0  0  0  0  0  0  0
   48.6414    5.1915   17.7640 C   0  0  1  0  0  0  0  0  0  0  0  0
   47.8601    4.3538   18.7820 C   0  0  0  0  0  0  0  0  0  0  0  0
   48.7723    4.2858   19.9992 C   0  0  0  0  0  0  0  0  0  0  0  0
   50.0172    5.0823   19.5960 C   0  0  2  0  0  0  0  0  0  0  0  0
   49.8689    6.5645   19.9830 C   0  0  0  0  0  0  0  0  0  0  0  0
   49.2525    7.4346   18.8754 C   0  0  1  0  0  0  0  0  0  0  0  0
   48.3103    6.6856   17.9211 C   0  0  0  0  0  0  0  0  0  0  0  0
   48.5018    8.5183   19.4653 O   0  0  0  0  0  0  0  0  0  0  0  0
   49.2055    9.6372   19.8172 C   0  0  0  0  0  0  0  0  0  0  0  0
   50.4216    9.7406   19.7193 O   0  0  0  0  0  0  0  0  0  0  0  0
   48.2701   10.6648   20.4472 C   0  0  2  0  0  0  0  0  0  0  0  0
   46.9615   10.8286   19.6536 C   0  0  0  0  0  0  0  0  0  0  0  0
   47.1855   11.1824   18.2906 O   0  0  0  0  0  0  0  0  0  0  0  0
   48.9267   12.0121   20.7326 C   0  0  0  0  0  0  0  0  0  0  0  0
   48.9859   12.5005   22.0480 C   0  0  0  0  0  0  0  0  0  0  0  0
   49.5595   13.7444   22.3198 C   0  0  0  0  0  0  0  0  0  0  0  0
   50.0793   14.5169   21.2830 C   0  0  0  0  0  0  0  0  0  0  0  0
   50.0319   14.0433   19.9739 C   0  0  0  0  0  0  0  0  0  0  0  0
   49.4610   12.7994   19.7007 C   0  0  0  0  0  0  0  0  0  0  0  0
   47.4911   12.4585   21.3533 C   0  0  0  0  0  0  0  0  0  0  0  0
   47.6543   11.0360   21.5809 N   0  0  0  0  0  0  0  0  0  0  0  0
   49.0194   10.5123   21.4670 C   0  0  1  0  0  0  0  0  0  0  0  0
   48.7576    9.0330   21.7662 C   0  0  0  0  0  0  0  0  0  0  0  0
   47.3293    8.7867   21.2661 C   0  0  0  0  0  0  0  0  0  0  0  0
   46.8738   10.1447   20.7183 C   0  0  2  0  0  0  0  0  0  0  0  0
   47.2200   10.3113   19.2268 C   0  0  0  0  0  0  0  0  0  0  0  0
   48.7234   10.2010   18.9267 C   0  0  1  0  0  0  0  0  0  0  0  0
   49.6127   10.7314   20.0629 C   0  0  0  0  0  0  0  0  0  0  0  0
   49.0975    8.8270   18.6913 O   0  0  0  0  0  0  0  0  0  0  0  0
   48.8792    8.3359   17.4414 C   0  0  0  0  0  0  0  0  0  0  0  0
   48.3193    8.9573   16.5399 O   0  0  0  0  0  0  0  0  0  0  0  0
   49.3911    6.9199   17.2645 C   0  0  2  0  0  0  0  0  0  0  0  0
   48.2264    5.9292   17.4050 C   0  0  0  0  0  0  0  0  0  0  0  0
   47.5906    5.9853   18.6773 O   0  0  0  0  0  0  0  0  0  0  0  0
   50.6606    6.6098   18.0513 C   0  0  0  0  0  0  0  0  0  0  0  0
   51.9105    6.8877   17.4689 C   0  0  0  0  0  0  0  0  0  0  0  0
   53.0964    6.6475   18.1647 C   0  0  0  0  0  0  0  0  0  0  0  0
   53.0541    6.1316   19.4565 C   0  0  0  0  0  0  0  0  0  0  0  0
   51.8257    5.8621   20.0527 C   0  0  0  0  0  0  0  0  0  0  0  0
   50.6380    6.1011   19.3574 C   0  0  0  0  0  0  0  0  0  0  0  0
   49.1070    8.5183   19.0658 S   0  0  0  0  0  0  0  0  0  0  0  0
   48.3552    7.3614   18.6498 O   0  0  0  0  0  0  0  0  0  0  0  0
   50.2942    8.0336   20.0298 O   0  0  0  0  0  0  0  0  0  0  0  0
   48.1718    9.3117   20.1009 O   0  0  0  0  0  0  0  0  0  0  0  0
   49.6793    9.4739   18.1534 O   0  0  0  0  0  0  0  0  0  0  0  0
   49.3313    8.4723   19.8294 O   0  0  0  0  0  0  0  0  0  0  0  0
   49.3325    8.4711   19.8287 O   0  0  0  0  0  0  0  0  0  0  0  0
   50.5895    3.7027   16.5505 H   0  0  0  0  0  0  0  0  0  0  0  0
   51.6362    3.6093   17.9608 H   0  0  0  0  0  0  0  0  0  0  0  0
   50.0371    2.8476   18.0004 H   0  0  0  0  0  0  0  0  0  0  0  0
   48.4064    4.8801   16.7389 H   0  0  0  0  0  0  0  0  0  0  0  0
   47.6855    3.3401   18.3995 H   0  0  0  0  0  0  0  0  0  0  0  0
   46.8828    4.7796   19.0324 H   0  0  0  0  0  0  0  0  0  0  0  0
   49.0337    3.2402   20.2017 H   0  0  0  0  0  0  0  0  0  0  0  0
   48.2811    4.6759   20.8959 H   0  0  0  0  0  0  0  0  0  0  0  0
   50.9152    4.6777   20.0782 H   0  0  0  0  0  0  0  0  0  0  0  0
   50.8663    6.9713   20.1963 H   0  0  0  0  0  0  0  0  0  0  0  0
   49.3102    6.6750   20.9207 H   0  0  0  0  0  0  0  0  0  0  0  0
   50.0659    7.8448   18.2593 H   0  0  0  0  0  0  0  0  0  0  0  0
   48.3940    7.1707   16.9380 H   0  0  0  0  0  0  0  0  0  0  0  0
   47.2633    6.8275   18.2170 H   0  0  0  0  0  0  0  0  0  0  0  0
   47.9997   10.2277   21.4202 H   0  0  0  0  0  0  0  0  0  0  0  0
   46.3860    9.8957   19.6590 H   0  0  0  0  0  0  0  0  0  0  0  0
   46.3359   11.6064   20.1066 H   0  0  0  0  0  0  0  0  0  0  0  0
   46.3195   11.3930   17.9024 H   0  0  0  0  0  0  0  0  0  0  0  0
   48.5901   11.9152   22.8753 H   0  0  0  0  0  0  0  0  0  0  0  0
   49.6007   14.1108   23.3419 H   0  0  0  0  0  0  0  0  0  0  0  0
   50.5241   15.4862   21.4943 H   0  0  0  0  0  0  0  0  0  0  0  0
   50.4480   14.6350   19.1628 H   0  0  0  0  0  0  0  0  0  0  0  0
   49.4381   12.4438   18.6723 H   0  0  0  0  0  0  0  0  0  0  0  0
   46.4486   12.7466   21.5272 H   0  0  0  0  0  0  0  0  0  0  0  0
   48.0961   13.0245   22.0703 H   0  0  0  0  0  0  0  0  0  0  0  0
   47.7690   12.7886   20.3493 H   0  0  0  0  0  0  0  0  0  0  0  0
   49.6823   10.9420   22.2256 H   0  0  0  0  0  0  0  0  0  0  0  0
   48.7943    8.8529   22.8480 H   0  0  0  0  0  0  0  0  0  0  0  0
   49.4854    8.3628   21.2987 H   0  0  0  0  0  0  0  0  0  0  0  0
   46.6951    8.4861   22.1114 H   0  0  0  0  0  0  0  0  0  0  0  0
   47.2847    7.9855   20.5226 H   0  0  0  0  0  0  0  0  0  0  0  0
   45.7954   10.2747   20.8693 H   0  0  0  0  0  0  0  0  0  0  0  0
   46.6551    9.5696   18.6476 H   0  0  0  0  0  0  0  0  0  0  0  0
   46.8678   11.2949   18.8929 H   0  0  0  0  0  0  0  0  0  0  0  0
   48.9613   10.7773   18.0227 H   0  0  0  0  0  0  0  0  0  0  0  0
   50.6028   10.2569   20.0166 H   0  0  0  0  0  0  0  0  0  0  0  0
   49.7778   11.8059   19.9108 H   0  0  0  0  0  0  0  0  0  0  0  0
   49.6913    6.8556   16.2073 H   0  0  0  0  0  0  0  0  0  0  0  0
   48.5769    4.9036   17.2444 H   0  0  0  0  0  0  0  0  0  0  0  0
   47.4620    6.1489   16.6503 H   0  0  0  0  0  0  0  0  0  0  0  0
   46.8335    5.3749   18.6450 H   0  0  0  0  0  0  0  0  0  0  0  0
   51.9720    7.3016   16.4640 H   0  0  0  0  0  0  0  0  0  0  0  0
   54.0533    6.8679   17.6997 H   0  0  0  0  0  0  0  0  0  0  0  0
   53.9758    5.9481   20.0015 H   0  0  0  0  0  0  0  0  0  0  0  0
   51.7880    5.4730   21.0672 H   0  0  0  0  0  0  0  0  0  0  0  0
   49.6963    5.9048   19.8640 H   0  0  0  0  0  0  0  0  0  0  0  0
   50.9123    8.7872   20.1313 H   0  0  0  0  0  0  0  0  0  0  0  0
   47.4720    8.6895   20.3869 H   0  0  0  0  0  0  0  0  0  0  0  0
   49.4786    8.1939   18.9122 H   0  0  0  0  0  0  0  0  0  0  0  0
   48.6152    9.1233   19.7661 H   0  0  0  0  0  0  0  0  0  0  0  0
   49.4755    8.1964   18.9103 H   0  0  0  0  0  0  0  0  0  0  0  0
   48.6171    9.1221   19.7687 H   0  0  0  0  0  0  0  0  0  0  0  0
  1  2  1  0
  3  2  1  0
  3  4  1  0
  4  5  1  0
  6  5  1  0
  6  2  1  0
  6  7  1  0
  7  8  1  0
  8  9  1  0
  3  9  1  0
  8 10  1  0
 10 11  1  0
 11 12  2  0
 11 13  1  0
 13 14  1  0
 14 15  1  0
 13 16  1  0
 16 17  2  0
 17 18  1  0
 18 19  2  0
 19 20  1  0
 20 21  2  0
 16 21  1  0
 22 23  1  0
 24 23  1  0
 24 25  1  0
 25 26  1  0
 27 26  1  0
 27 23  1  0
 27 28  1  0
 28 29  1  0
 29 30  1  0
 24 30  1  0
 29 31  1  0
 31 32  1  0
 32 33  2  0
 32 34  1  0
 34 35  1  0
 35 36  1  0
 34 37  1  0
 37 38  2  0
 38 39  1  0
 39 40  2  0
 40 41  1  0
 41 42  2  0
 37 42  1  0
 43 44  2  0
 43 45  1  0
 43 46  1  0
 43 47  2  0
  1 50  1  0
  1 51  1  0
  1 52  1  0
  3 53  1  6
  4 54  1  0
  4 55  1  0
  5 56  1  0
  5 57  1  0
  6 58  1  1
  7 59  1  0
  7 60  1  0
  8 61  1  1
  9 62  1  0
  9 63  1  0
 13 64  1  6
 14 65  1  0
 14 66  1  0
 15 67  1  0
 17 68  1  0
 18 69  1  0
 19 70  1  0
 20 71  1  0
 21 72  1  0
 22 73  1  0
 22 74  1  0
 22 75  1  0
 24 76  1  1
 25 77  1  0
 25 78  1  0
 26 79  1  0
 26 80  1  0
 27 81  1  6
 28 82  1  0
 28 83  1  0
 29 84  1  1
 30 85  1  0
 30 86  1  0
 34 87  1  1
 35 88  1  0
 35 89  1  0
 36 90  1  0
 38 91  1  0
 39 92  1  0
 40 93  1  0
 41 94  1  0
 42 95  1  0
 45 96  1  0
 46 97  1  0
 48 98  1  0
 48 99  1  0
 49100  1  0
 49101  1  0
M  END
> <Uni-Dock RESULT> 
ENERGY=   -4.051  LOWER_BOUND=    2.740  UPPER_BOUND=    6.544
INTER + INTRA:          -4.051
INTER:                  -4.051
INTRA:                   0.000
UNBOUND:                 0.000

$$$$
