
     RDKit          3D

101102  0  0  0  0  0  0  0  0999 V2000
   47.9624    3.2883   17.9368 C   0  0  0  0  0  0  0  0  0  0  0  0
   48.8006    4.4707   17.8983 N   0  0  0  0  0  0  0  0  0  0  0  0
   49.5787    4.7590   19.1079 C   0  0  1  0  0  0  0  0  0  0  0  0
   50.2912    6.0397   18.6566 C   0  0  0  0  0  0  0  0  0  0  0  0
   49.3213    6.6859   17.6563 C   0  0  0  0  0  0  0  0  0  0  0  0
   48.1174    5.7368   17.6190 C   0  0  2  0  0  0  0  0  0  0  0  0
   47.0644    6.0853   18.6858 C   0  0  0  0  0  0  0  0  0  0  0  0
   47.6207    6.0809   20.1196 C   0  0  1  0  0  0  0  0  0  0  0  0
   48.6843    4.9916   20.3403 C   0  0  0  0  0  0  0  0  0  0  0  0
   48.1828    7.3883   20.3668 O   0  0  0  0  0  0  0  0  0  0  0  0
   48.2592    7.8059   21.6648 C   0  0  0  0  0  0  0  0  0  0  0  0
   47.9133    7.1256   22.6217 O   0  0  0  0  0  0  0  0  0  0  0  0
   48.9462    9.1656   21.7482 C   0  0  2  0  0  0  0  0  0  0  0  0
   48.8158    9.7861   23.1466 C   0  0  0  0  0  0  0  0  0  0  0  0
   47.5138   10.3006   23.4201 O   0  0  0  0  0  0  0  0  0  0  0  0
   48.5580   10.1615   20.6609 C   0  0  0  0  0  0  0  0  0  0  0  0
   49.5512   10.9618   20.0683 C   0  0  0  0  0  0  0  0  0  0  0  0
   49.2159   11.8989   19.0892 C   0  0  0  0  0  0  0  0  0  0  0  0
   47.8895   12.0517   18.6918 C   0  0  0  0  0  0  0  0  0  0  0  0
   46.8949   11.2680   19.2741 C   0  0  0  0  0  0  0  0  0  0  0  0
   47.2242   10.3321   20.2562 C   0  0  0  0  0  0  0  0  0  0  0  0
   47.6957   12.6325   21.5376 C   0  0  0  0  0  0  0  0  0  0  0  0
   48.1998   11.5938   20.6416 N   0  0  0  0  0  0  0  0  0  0  0  0
   48.9845   10.5621   21.3419 C   0  0  1  0  0  0  0  0  0  0  0  0
   47.9376    9.6379   21.9708 C   0  0  0  0  0  0  0  0  0  0  0  0
   46.6987    9.8001   21.0907 C   0  0  0  0  0  0  0  0  0  0  0  0
   47.1205   10.8075   20.0175 C   0  0  2  0  0  0  0  0  0  0  0  0
   47.7439   10.1243   18.7861 C   0  0  0  0  0  0  0  0  0  0  0  0
   48.9802    9.2712   19.1182 C   0  0  1  0  0  0  0  0  0  0  0  0
   49.8259    9.8542   20.2631 C   0  0  0  0  0  0  0  0  0  0  0  0
   48.5275    7.9469   19.4901 O   0  0  0  0  0  0  0  0  0  0  0  0
   49.3207    6.8975   19.1205 C   0  0  0  0  0  0  0  0  0  0  0  0
   50.3757    7.0006   18.5087 O   0  0  0  0  0  0  0  0  0  0  0  0
   48.7281    5.5979   19.6425 C   0  0  2  0  0  0  0  0  0  0  0  0
   49.4552    5.2596   20.9535 C   0  0  0  0  0  0  0  0  0  0  0  0
   48.8798    4.1495   21.6432 O   0  0  0  0  0  0  0  0  0  0  0  0
   48.7562    4.4799   18.6087 C   0  0  0  0  0  0  0  0  0  0  0  0
   49.9573    3.8788   18.2021 C   0  0  0  0  0  0  0  0  0  0  0  0
   49.9574    2.8526   17.2541 C   0  0  0  0  0  0  0  0  0  0  0  0
   48.7579    2.4129   16.6992 C   0  0  0  0  0  0  0  0  0  0  0  0
   47.5583    3.0055   17.0836 C   0  0  0  0  0  0  0  0  0  0  0  0
   47.5568    4.0338   18.0292 C   0  0  0  0  0  0  0  0  0  0  0  0
   48.6868    7.6928   19.4730 S   0  0  0  0  0  0  0  0  0  0  0  0
   49.8430    8.5076   19.2020 O   0  0  0  0  0  0  0  0  0  0  0  0
   49.1626    6.2999   20.1130 O   0  0  0  0  0  0  0  0  0  0  0  0
   47.9385    8.3771   20.7162 O   0  0  0  0  0  0  0  0  0  0  0  0
   47.6876    7.3820   18.4805 O   0  0  0  0  0  0  0  0  0  0  0  0
   48.8491    7.6948   19.5922 O   0  0  0  0  0  0  0  0  0  0  0  0
   48.8435    7.6183   19.5749 O   0  0  0  0  0  0  0  0  0  0  0  0
   48.5776    2.3970   18.1086 H   0  0  0  0  0  0  0  0  0  0  0  0
   47.4724    3.1479   16.9661 H   0  0  0  0  0  0  0  0  0  0  0  0
   47.1863    3.3116   18.7067 H   0  0  0  0  0  0  0  0  0  0  0  0
   50.3078    3.9694   19.3182 H   0  0  0  0  0  0  0  0  0  0  0  0
   50.5367    6.7089   19.4861 H   0  0  0  0  0  0  0  0  0  0  0  0
   51.2287    5.7940   18.1419 H   0  0  0  0  0  0  0  0  0  0  0  0
   49.8007    6.7281   16.6701 H   0  0  0  0  0  0  0  0  0  0  0  0
   49.0566    7.7108   17.9311 H   0  0  0  0  0  0  0  0  0  0  0  0
   47.6584    5.7373   16.6249 H   0  0  0  0  0  0  0  0  0  0  0  0
   46.6372    7.0706   18.4563 H   0  0  0  0  0  0  0  0  0  0  0  0
   46.2355    5.3704   18.6235 H   0  0  0  0  0  0  0  0  0  0  0  0
   46.7804    5.9326   20.8106 H   0  0  0  0  0  0  0  0  0  0  0  0
   49.3217    5.2434   21.1993 H   0  0  0  0  0  0  0  0  0  0  0  0
   48.1783    4.0520   20.5973 H   0  0  0  0  0  0  0  0  0  0  0  0
   50.0093    8.9169   21.6117 H   0  0  0  0  0  0  0  0  0  0  0  0
   49.0496    9.0504   23.9248 H   0  0  0  0  0  0  0  0  0  0  0  0
   49.5263   10.6133   23.2637 H   0  0  0  0  0  0  0  0  0  0  0  0
   47.4066   11.1130   22.8895 H   0  0  0  0  0  0  0  0  0  0  0  0
   50.5957   10.8618   20.3632 H   0  0  0  0  0  0  0  0  0  0  0  0
   49.9929   12.5138   18.6365 H   0  0  0  0  0  0  0  0  0  0  0  0
   47.6291   12.7805   17.9285 H   0  0  0  0  0  0  0  0  0  0  0  0
   45.8584   11.3870   18.9660 H   0  0  0  0  0  0  0  0  0  0  0  0
   46.4266    9.7375   20.7013 H   0  0  0  0  0  0  0  0  0  0  0  0
   48.5300   13.1597   22.0139 H   0  0  0  0  0  0  0  0  0  0  0  0
   47.1414   13.3844   20.9655 H   0  0  0  0  0  0  0  0  0  0  0  0
   47.0361   12.2592   22.3274 H   0  0  0  0  0  0  0  0  0  0  0  0
   49.6625   10.9812   22.0947 H   0  0  0  0  0  0  0  0  0  0  0  0
   48.2674    8.5965   22.0331 H   0  0  0  0  0  0  0  0  0  0  0  0
   47.7009    9.9628   22.9910 H   0  0  0  0  0  0  0  0  0  0  0  0
   45.8718   10.1990   21.6924 H   0  0  0  0  0  0  0  0  0  0  0  0
   46.3642    8.8475   20.6698 H   0  0  0  0  0  0  0  0  0  0  0  0
   46.2791   11.4274   19.6870 H   0  0  0  0  0  0  0  0  0  0  0  0
   46.9849    9.5080   18.2881 H   0  0  0  0  0  0  0  0  0  0  0  0
   48.0452   10.9053   18.0752 H   0  0  0  0  0  0  0  0  0  0  0  0
   49.5884    9.1958   18.2079 H   0  0  0  0  0  0  0  0  0  0  0  0
   50.5265   10.5855   19.8387 H   0  0  0  0  0  0  0  0  0  0  0  0
   50.4306    9.0696   20.7336 H   0  0  0  0  0  0  0  0  0  0  0  0
   47.6714    5.7790   19.8876 H   0  0  0  0  0  0  0  0  0  0  0  0
   50.5186    5.0421   20.7935 H   0  0  0  0  0  0  0  0  0  0  0  0
   49.4104    6.1169   21.6357 H   0  0  0  0  0  0  0  0  0  0  0  0
   47.9371    4.0841   21.4132 H   0  0  0  0  0  0  0  0  0  0  0  0
   50.9106    4.2100   18.6115 H   0  0  0  0  0  0  0  0  0  0  0  0
   50.8955    2.3976   16.9473 H   0  0  0  0  0  0  0  0  0  0  0  0
   48.7597    1.6108   15.9661 H   0  0  0  0  0  0  0  0  0  0  0  0
   46.6230    2.6674   16.6442 H   0  0  0  0  0  0  0  0  0  0  0  0
   46.6048    4.4793   18.3081 H   0  0  0  0  0  0  0  0  0  0  0  0
   48.3682    5.7482   20.2529 H   0  0  0  0  0  0  0  0  0  0  0  0
   48.2740    9.2975   20.7808 H   0  0  0  0  0  0  0  0  0  0  0  0
   48.4228    6.8436   19.7740 H   0  0  0  0  0  0  0  0  0  0  0  0
   48.4256    8.3067   20.2130 H   0  0  0  0  0  0  0  0  0  0  0  0
   48.5351    8.3606   20.1165 H   0  0  0  0  0  0  0  0  0  0  0  0
   48.3188    6.8662   19.8879 H   0  0  0  0  0  0  0  0  0  0  0  0
  1  2  1  0
  3  2  1  0
  3  4  1  0
  4  5  1  0
  6  5  1  0
  6  2  1  0
  6  7  1  0
  7  8  1  0
  8  9  1  0
  3  9  1  0
  8 10  1  0
 10 11  1  0
 11 12  2  0
 11 13  1  0
 13 14  1  0
 14 15  1  0
 13 16  1  0
 16 17  2  0
 17 18  1  0
 18 19  2  0
 19 20  1  0
 20 21  2  0
 16 21  1  0
 22 23  1  0
 24 23  1  0
 24 25  1  0
 25 26  1  0
 27 26  1  0
 27 23  1  0
 27 28  1  0
 28 29  1  0
 29 30  1  0
 24 30  1  0
 29 31  1  0
 31 32  1  0
 32 33  2  0
 32 34  1  0
 34 35  1  0
 35 36  1  0
 34 37  1  0
 37 38  2  0
 38 39  1  0
 39 40  2  0
 40 41  1  0
 41 42  2  0
 37 42  1  0
 43 44  2  0
 43 45  1  0
 43 46  1  0
 43 47  2  0
  1 50  1  0
  1 51  1  0
  1 52  1  0
  3 53  1  6
  4 54  1  0
  4 55  1  0
  5 56  1  0
  5 57  1  0
  6 58  1  1
  7 59  1  0
  7 60  1  0
  8 61  1  1
  9 62  1  0
  9 63  1  0
 13 64  1  6
 14 65  1  0
 14 66  1  0
 15 67  1  0
 17 68  1  0
 18 69  1  0
 19 70  1  0
 20 71  1  0
 21 72  1  0
 22 73  1  0
 22 74  1  0
 22 75  1  0
 24 76  1  6
 25 77  1  0
 25 78  1  0
 26 79  1  0
 26 80  1  0
 27 81  1  1
 28 82  1  0
 28 83  1  0
 29 84  1  1
 30 85  1  0
 30 86  1  0
 34 87  1  1
 35 88  1  0
 35 89  1  0
 36 90  1  0
 38 91  1  0
 39 92  1  0
 40 93  1  0
 41 94  1  0
 42 95  1  0
 45 96  1  0
 46 97  1  0
 48 98  1  0
 48 99  1  0
 49100  1  0
 49101  1  0
M  END
> <Uni-Dock RESULT> 
ENERGY=   -6.032  LOWER_BOUND=    0.000  UPPER_BOUND=    0.000
INTER + INTRA:          -6.032
INTER:                  -6.032
INTRA:                   0.000
UNBOUND:                 0.000

$$$$

     RDKit          3D

101102  0  0  0  0  0  0  0  0999 V2000
   47.9621    3.2883   17.9364 C   0  0  0  0  0  0  0  0  0  0  0  0
   48.8002    4.4708   17.8981 N   0  0  0  0  0  0  0  0  0  0  0  0
   49.5784    4.7590   19.1076 C   0  0  1  0  0  0  0  0  0  0  0  0
   50.2909    6.0397   18.6565 C   0  0  0  0  0  0  0  0  0  0  0  0
   49.3210    6.6861   17.6563 C   0  0  0  0  0  0  0  0  0  0  0  0
   48.1171    5.7369   17.6189 C   0  0  2  0  0  0  0  0  0  0  0  0
   47.0641    6.0853   18.6859 C   0  0  0  0  0  0  0  0  0  0  0  0
   47.6205    6.0807   20.1196 C   0  0  1  0  0  0  0  0  0  0  0  0
   48.6841    4.9914   20.3401 C   0  0  0  0  0  0  0  0  0  0  0  0
   48.1826    7.3881   20.3670 O   0  0  0  0  0  0  0  0  0  0  0  0
   48.2590    7.8055   21.6650 C   0  0  0  0  0  0  0  0  0  0  0  0
   47.9132    7.1251   22.6219 O   0  0  0  0  0  0  0  0  0  0  0  0
   48.9461    9.1652   21.7485 C   0  0  2  0  0  0  0  0  0  0  0  0
   48.8158    9.7855   23.1470 C   0  0  0  0  0  0  0  0  0  0  0  0
   47.5138   10.3000   23.4207 O   0  0  0  0  0  0  0  0  0  0  0  0
   48.5578   10.1612   20.6614 C   0  0  0  0  0  0  0  0  0  0  0  0
   49.5509   10.9616   20.0688 C   0  0  0  0  0  0  0  0  0  0  0  0
   49.2155   11.8988   19.0899 C   0  0  0  0  0  0  0  0  0  0  0  0
   47.8892   12.0517   18.6926 C   0  0  0  0  0  0  0  0  0  0  0  0
   46.8946   11.2679   19.2749 C   0  0  0  0  0  0  0  0  0  0  0  0
   47.2239   10.3319   20.2569 C   0  0  0  0  0  0  0  0  0  0  0  0
   47.6955   12.6321   21.5384 C   0  0  0  0  0  0  0  0  0  0  0  0
   48.1995   11.5935   20.6423 N   0  0  0  0  0  0  0  0  0  0  0  0
   48.9843   10.5617   21.3425 C   0  0  1  0  0  0  0  0  0  0  0  0
   47.9375    9.6375   21.9713 C   0  0  0  0  0  0  0  0  0  0  0  0
   46.6985    9.7998   21.0913 C   0  0  0  0  0  0  0  0  0  0  0  0
   47.1202   10.8073   20.0181 C   0  0  2  0  0  0  0  0  0  0  0  0
   47.7436   10.1243   18.7867 C   0  0  0  0  0  0  0  0  0  0  0  0
   48.9799    9.2711   19.1186 C   0  0  1  0  0  0  0  0  0  0  0  0
   49.8257    9.8540   20.2635 C   0  0  0  0  0  0  0  0  0  0  0  0
   48.5273    7.9468   19.4903 O   0  0  0  0  0  0  0  0  0  0  0  0
   49.3204    6.8975   19.1205 C   0  0  0  0  0  0  0  0  0  0  0  0
   50.3754    7.0006   18.5087 O   0  0  0  0  0  0  0  0  0  0  0  0
   48.7279    5.5978   19.6424 C   0  0  2  0  0  0  0  0  0  0  0  0
   49.4550    5.2593   20.9533 C   0  0  0  0  0  0  0  0  0  0  0  0
   48.8797    4.1491   21.6429 O   0  0  0  0  0  0  0  0  0  0  0  0
   48.7559    4.4799   18.6084 C   0  0  0  0  0  0  0  0  0  0  0  0
   49.9570    3.8789   18.2017 C   0  0  0  0  0  0  0  0  0  0  0  0
   49.9570    2.8528   17.2535 C   0  0  0  0  0  0  0  0  0  0  0  0
   48.7575    2.4132   16.6987 C   0  0  0  0  0  0  0  0  0  0  0  0
   47.5579    3.0057   17.0832 C   0  0  0  0  0  0  0  0  0  0  0  0
   47.5565    4.0339   18.0290 C   0  0  0  0  0  0  0  0  0  0  0  0
   48.6866    7.6927   19.4732 S   0  0  0  0  0  0  0  0  0  0  0  0
   49.8428    8.5075   19.2022 O   0  0  0  0  0  0  0  0  0  0  0  0
   49.1624    6.2997   20.1130 O   0  0  0  0  0  0  0  0  0  0  0  0
   47.9383    8.3768   20.7165 O   0  0  0  0  0  0  0  0  0  0  0  0
   47.6873    7.3820   18.4807 O   0  0  0  0  0  0  0  0  0  0  0  0
   48.8488    7.6947   19.5924 O   0  0  0  0  0  0  0  0  0  0  0  0
   48.8432    7.6181   19.5750 O   0  0  0  0  0  0  0  0  0  0  0  0
   48.5773    2.3971   18.1081 H   0  0  0  0  0  0  0  0  0  0  0  0
   47.4720    3.1481   16.9657 H   0  0  0  0  0  0  0  0  0  0  0  0
   47.1860    3.3115   18.7064 H   0  0  0  0  0  0  0  0  0  0  0  0
   50.3076    3.9693   19.3177 H   0  0  0  0  0  0  0  0  0  0  0  0
   50.5364    6.7088   19.4861 H   0  0  0  0  0  0  0  0  0  0  0  0
   51.2284    5.7941   18.1417 H   0  0  0  0  0  0  0  0  0  0  0  0
   49.8002    6.7284   16.6701 H   0  0  0  0  0  0  0  0  0  0  0  0
   49.0563    7.7109   17.9312 H   0  0  0  0  0  0  0  0  0  0  0  0
   47.6580    5.7375   16.6249 H   0  0  0  0  0  0  0  0  0  0  0  0
   46.6369    7.0706   18.4565 H   0  0  0  0  0  0  0  0  0  0  0  0
   46.2352    5.3704   18.6235 H   0  0  0  0  0  0  0  0  0  0  0  0
   46.7803    5.9323   20.8106 H   0  0  0  0  0  0  0  0  0  0  0  0
   49.3216    5.2430   21.1991 H   0  0  0  0  0  0  0  0  0  0  0  0
   48.1781    4.0518   20.5970 H   0  0  0  0  0  0  0  0  0  0  0  0
   50.0092    8.9165   21.6120 H   0  0  0  0  0  0  0  0  0  0  0  0
   49.0496    9.0497   23.9251 H   0  0  0  0  0  0  0  0  0  0  0  0
   49.5263   10.6127   23.2642 H   0  0  0  0  0  0  0  0  0  0  0  0
   47.4065   11.1124   22.8902 H   0  0  0  0  0  0  0  0  0  0  0  0
   50.5954   10.8616   20.3636 H   0  0  0  0  0  0  0  0  0  0  0  0
   49.9925   12.5138   18.6373 H   0  0  0  0  0  0  0  0  0  0  0  0
   47.6287   12.7805   17.9294 H   0  0  0  0  0  0  0  0  0  0  0  0
   45.8581   11.3869   18.9668 H   0  0  0  0  0  0  0  0  0  0  0  0
   46.4264    9.7372   20.7019 H   0  0  0  0  0  0  0  0  0  0  0  0
   48.5299   13.1593   22.0149 H   0  0  0  0  0  0  0  0  0  0  0  0
   47.1411   13.3841   20.9665 H   0  0  0  0  0  0  0  0  0  0  0  0
   47.0359   12.2587   22.3282 H   0  0  0  0  0  0  0  0  0  0  0  0
   49.6624   10.9807   22.0953 H   0  0  0  0  0  0  0  0  0  0  0  0
   48.2673    8.5961   22.0334 H   0  0  0  0  0  0  0  0  0  0  0  0
   47.7009    9.9622   22.9916 H   0  0  0  0  0  0  0  0  0  0  0  0
   45.8716   10.1985   21.6931 H   0  0  0  0  0  0  0  0  0  0  0  0
   46.3640    8.8472   20.6703 H   0  0  0  0  0  0  0  0  0  0  0  0
   46.2789   11.4273   19.6878 H   0  0  0  0  0  0  0  0  0  0  0  0
   46.9845    9.5080   18.2887 H   0  0  0  0  0  0  0  0  0  0  0  0
   48.0449   10.9054   18.0758 H   0  0  0  0  0  0  0  0  0  0  0  0
   49.5881    9.1959   18.2082 H   0  0  0  0  0  0  0  0  0  0  0  0
   50.5262   10.5854   19.8391 H   0  0  0  0  0  0  0  0  0  0  0  0
   50.4304    9.0693   20.7339 H   0  0  0  0  0  0  0  0  0  0  0  0
   47.6712    5.7788   19.8876 H   0  0  0  0  0  0  0  0  0  0  0  0
   50.5184    5.0419   20.7933 H   0  0  0  0  0  0  0  0  0  0  0  0
   49.4102    6.1165   21.6356 H   0  0  0  0  0  0  0  0  0  0  0  0
   47.9370    4.0837   21.4129 H   0  0  0  0  0  0  0  0  0  0  0  0
   50.9103    4.2100   18.6110 H   0  0  0  0  0  0  0  0  0  0  0  0
   50.8951    2.3978   16.9467 H   0  0  0  0  0  0  0  0  0  0  0  0
   48.7593    1.6111   15.9655 H   0  0  0  0  0  0  0  0  0  0  0  0
   46.6226    2.6676   16.6438 H   0  0  0  0  0  0  0  0  0  0  0  0
   46.6045    4.4794   18.3080 H   0  0  0  0  0  0  0  0  0  0  0  0
   48.3680    5.7479   20.2528 H   0  0  0  0  0  0  0  0  0  0  0  0
   48.2738    9.2972   20.7812 H   0  0  0  0  0  0  0  0  0  0  0  0
   48.4226    6.8434   19.7741 H   0  0  0  0  0  0  0  0  0  0  0  0
   48.4253    8.3064   20.2133 H   0  0  0  0  0  0  0  0  0  0  0  0
   48.5349    8.3604   20.1168 H   0  0  0  0  0  0  0  0  0  0  0  0
   48.3185    6.8660   19.8880 H   0  0  0  0  0  0  0  0  0  0  0  0
  1  2  1  0
  3  2  1  0
  3  4  1  0
  4  5  1  0
  6  5  1  0
  6  2  1  0
  6  7  1  0
  7  8  1  0
  8  9  1  0
  3  9  1  0
  8 10  1  0
 10 11  1  0
 11 12  2  0
 11 13  1  0
 13 14  1  0
 14 15  1  0
 13 16  1  0
 16 17  2  0
 17 18  1  0
 18 19  2  0
 19 20  1  0
 20 21  2  0
 16 21  1  0
 22 23  1  0
 24 23  1  0
 24 25  1  0
 25 26  1  0
 27 26  1  0
 27 23  1  0
 27 28  1  0
 28 29  1  0
 29 30  1  0
 24 30  1  0
 29 31  1  0
 31 32  1  0
 32 33  2  0
 32 34  1  0
 34 35  1  0
 35 36  1  0
 34 37  1  0
 37 38  2  0
 38 39  1  0
 39 40  2  0
 40 41  1  0
 41 42  2  0
 37 42  1  0
 43 44  2  0
 43 45  1  0
 43 46  1  0
 43 47  2  0
  1 50  1  0
  1 51  1  0
  1 52  1  0
  3 53  1  6
  4 54  1  0
  4 55  1  0
  5 56  1  0
  5 57  1  0
  6 58  1  1
  7 59  1  0
  7 60  1  0
  8 61  1  1
  9 62  1  0
  9 63  1  0
 13 64  1  6
 14 65  1  0
 14 66  1  0
 15 67  1  0
 17 68  1  0
 18 69  1  0
 19 70  1  0
 20 71  1  0
 21 72  1  0
 22 73  1  0
 22 74  1  0
 22 75  1  0
 24 76  1  6
 25 77  1  0
 25 78  1  0
 26 79  1  0
 26 80  1  0
 27 81  1  1
 28 82  1  0
 28 83  1  0
 29 84  1  1
 30 85  1  0
 30 86  1  0
 34 87  1  1
 35 88  1  0
 35 89  1  0
 36 90  1  0
 38 91  1  0
 39 92  1  0
 40 93  1  0
 41 94  1  0
 42 95  1  0
 45 96  1  0
 46 97  1  0
 48 98  1  0
 48 99  1  0
 49100  1  0
 49101  1  0
M  END
> <Uni-Dock RESULT> 
ENERGY=   -6.032  LOWER_BOUND=    0.001  UPPER_BOUND=    0.001
INTER + INTRA:          -6.032
INTER:                  -6.032
INTRA:                   0.000
UNBOUND:                 0.000

$$$$

     RDKit          3D

101102  0  0  0  0  0  0  0  0999 V2000
   50.7543    3.6253   17.3973 C   0  0  0  0  0  0  0  0  0  0  0  0
   49.6176    4.0507   18.1905 N   0  0  0  0  0  0  0  0  0  0  0  0
   48.7613    5.0857   17.6015 C   0  0  1  0  0  0  0  0  0  0  0  0
   47.7272    5.2340   18.7241 C   0  0  0  0  0  0  0  0  0  0  0  0
   48.4987    4.8830   20.0049 C   0  0  0  0  0  0  0  0  0  0  0  0
   49.9221    4.5745   19.5249 C   0  0  2  0  0  0  0  0  0  0  0  0
   50.8082    5.8318   19.4756 C   0  0  0  0  0  0  0  0  0  0  0  0
   50.2419    6.9453   18.5785 C   0  0  1  0  0  0  0  0  0  0  0  0
   49.5240    6.3969   17.3333 C   0  0  0  0  0  0  0  0  0  0  0  0
   49.3278    7.7224   19.3830 O   0  0  0  0  0  0  0  0  0  0  0  0
   49.1059    9.0174   19.0106 C   0  0  0  0  0  0  0  0  0  0  0  0
   49.6068    9.5387   18.0230 O   0  0  0  0  0  0  0  0  0  0  0  0
   48.0612    9.6615   19.9170 C   0  0  2  0  0  0  0  0  0  0  0  0
   47.9778   11.1796   19.7028 C   0  0  0  0  0  0  0  0  0  0  0  0
   49.0748   11.8940   20.2696 O   0  0  0  0  0  0  0  0  0  0  0  0
   48.1782    9.3157   21.3973 C   0  0  0  0  0  0  0  0  0  0  0  0
   47.0140    9.0526   22.1411 C   0  0  0  0  0  0  0  0  0  0  0  0
   47.0943    8.7592   23.5037 C   0  0  0  0  0  0  0  0  0  0  0  0
   48.3326    8.7275   24.1409 C   0  0  0  0  0  0  0  0  0  0  0  0
   49.4939    8.9905   23.4164 C   0  0  0  0  0  0  0  0  0  0  0  0
   49.4189    9.2881   22.0546 C   0  0  0  0  0  0  0  0  0  0  0  0
   48.2869   11.4582   23.1339 C   0  0  0  0  0  0  0  0  0  0  0  0
   48.1180   10.0881   22.6543 N   0  0  0  0  0  0  0  0  0  0  0  0
   47.6400   10.0215   21.2622 C   0  0  1  0  0  0  0  0  0  0  0  0
   48.8898   10.2613   20.4103 C   0  0  0  0  0  0  0  0  0  0  0  0
   50.0532    9.8119   21.2938 C   0  0  0  0  0  0  0  0  0  0  0  0
   49.3899    9.3457   22.5927 C   0  0  2  0  0  0  0  0  0  0  0  0
   49.0141    7.8527   22.5549 C   0  0  0  0  0  0  0  0  0  0  0  0
   48.0614    7.4889   21.4032 C   0  0  1  0  0  0  0  0  0  0  0  0
   47.0585    8.6076   21.0734 C   0  0  0  0  0  0  0  0  0  0  0  0
   48.8604    7.2072   20.2289 O   0  0  0  0  0  0  0  0  0  0  0  0
   48.4048    6.2268   19.3934 C   0  0  0  0  0  0  0  0  0  0  0  0
   47.3784    5.5828   19.5661 O   0  0  0  0  0  0  0  0  0  0  0  0
   49.3275    6.1083   18.1904 C   0  0  2  0  0  0  0  0  0  0  0  0
   48.6945    6.9194   17.0487 C   0  0  0  0  0  0  0  0  0  0  0  0
   49.5432    7.0357   15.9063 O   0  0  0  0  0  0  0  0  0  0  0  0
   49.6407    4.6626   17.8277 C   0  0  0  0  0  0  0  0  0  0  0  0
   48.6682    3.8092   17.2845 C   0  0  0  0  0  0  0  0  0  0  0  0
   48.9803    2.4875   16.9570 C   0  0  0  0  0  0  0  0  0  0  0  0
   50.2679    2.0001   17.1676 C   0  0  0  0  0  0  0  0  0  0  0  0
   51.2420    2.8302   17.7154 C   0  0  0  0  0  0  0  0  0  0  0  0
   50.9307    4.1513   18.0463 C   0  0  0  0  0  0  0  0  0  0  0  0
   48.7798    7.0366   19.9953 S   0  0  0  0  0  0  0  0  0  0  0  0
   47.4474    7.0246   20.5418 O   0  0  0  0  0  0  0  0  0  0  0  0
   48.7015    6.7881   18.4114 O   0  0  0  0  0  0  0  0  0  0  0  0
   49.2747    8.5614   20.0558 O   0  0  0  0  0  0  0  0  0  0  0  0
   49.8494    6.2110   20.4997 O   0  0  0  0  0  0  0  0  0  0  0  0
   48.6208    7.1106   19.8963 O   0  0  0  0  0  0  0  0  0  0  0  0
   48.6482    7.0580   19.8446 O   0  0  0  0  0  0  0  0  0  0  0  0
   50.4118    3.2127   16.4409 H   0  0  0  0  0  0  0  0  0  0  0  0
   51.2870    2.8179   17.9136 H   0  0  0  0  0  0  0  0  0  0  0  0
   51.4738    4.4195   17.1797 H   0  0  0  0  0  0  0  0  0  0  0  0
   48.2798    4.7378   16.6814 H   0  0  0  0  0  0  0  0  0  0  0  0
   47.2831    6.2324   18.7690 H   0  0  0  0  0  0  0  0  0  0  0  0
   46.9097    4.5147   18.5876 H   0  0  0  0  0  0  0  0  0  0  0  0
   48.0506    3.9901   20.4588 H   0  0  0  0  0  0  0  0  0  0  0  0
   48.4567    5.6809   20.7517 H   0  0  0  0  0  0  0  0  0  0  0  0
   50.3858    3.8138   20.1613 H   0  0  0  0  0  0  0  0  0  0  0  0
   50.9452    6.2115   20.4969 H   0  0  0  0  0  0  0  0  0  0  0  0
   51.8065    5.5573   19.1147 H   0  0  0  0  0  0  0  0  0  0  0  0
   51.0731    7.5965   18.2780 H   0  0  0  0  0  0  0  0  0  0  0  0
   48.8213    7.1413   16.9342 H   0  0  0  0  0  0  0  0  0  0  0  0
   50.2684    6.2227   16.5456 H   0  0  0  0  0  0  0  0  0  0  0  0
   47.1151    9.2387   19.5471 H   0  0  0  0  0  0  0  0  0  0  0  0
   47.9428   11.4231   18.6346 H   0  0  0  0  0  0  0  0  0  0  0  0
   47.0601   11.5776   20.1525 H   0  0  0  0  0  0  0  0  0  0  0  0
   48.9610   11.8769   21.2390 H   0  0  0  0  0  0  0  0  0  0  0  0
   46.0334    9.0727   21.6656 H   0  0  0  0  0  0  0  0  0  0  0  0
   46.1863    8.5570   24.0707 H   0  0  0  0  0  0  0  0  0  0  0  0
   48.3948    8.4977   25.2015 H   0  0  0  0  0  0  0  0  0  0  0  0
   50.4616    8.9675   23.9127 H   0  0  0  0  0  0  0  0  0  0  0  0
   50.3411    9.4977   21.5128 H   0  0  0  0  0  0  0  0  0  0  0  0
   47.3266   11.9861   23.1191 H   0  0  0  0  0  0  0  0  0  0  0  0
   48.6199   11.4518   24.1775 H   0  0  0  0  0  0  0  0  0  0  0  0
   49.0061   12.0479   22.5565 H   0  0  0  0  0  0  0  0  0  0  0  0
   46.8535   10.7544   21.0468 H   0  0  0  0  0  0  0  0  0  0  0  0
   48.8661    9.7287   19.4549 H   0  0  0  0  0  0  0  0  0  0  0  0
   49.0009   11.3281   20.1821 H   0  0  0  0  0  0  0  0  0  0  0  0
   50.7193   10.6635   21.4833 H   0  0  0  0  0  0  0  0  0  0  0  0
   50.6529    9.0296   20.8196 H   0  0  0  0  0  0  0  0  0  0  0  0
   50.0296    9.5251   23.4644 H   0  0  0  0  0  0  0  0  0  0  0  0
   49.9278    7.2486   22.4917 H   0  0  0  0  0  0  0  0  0  0  0  0
   48.5216    7.5979   23.5029 H   0  0  0  0  0  0  0  0  0  0  0  0
   47.5210    6.5784   21.6917 H   0  0  0  0  0  0  0  0  0  0  0  0
   46.1903    8.5013   21.7372 H   0  0  0  0  0  0  0  0  0  0  0  0
   46.6889    8.5031   20.0462 H   0  0  0  0  0  0  0  0  0  0  0  0
   50.2840    6.5874   18.4456 H   0  0  0  0  0  0  0  0  0  0  0  0
   47.7398    6.4925   16.7168 H   0  0  0  0  0  0  0  0  0  0  0  0
   48.4793    7.9385   17.3913 H   0  0  0  0  0  0  0  0  0  0  0  0
   50.4713    6.9690   16.1895 H   0  0  0  0  0  0  0  0  0  0  0  0
   47.6507    4.1606   17.1192 H   0  0  0  0  0  0  0  0  0  0  0  0
   48.2163    1.8374   16.5387 H   0  0  0  0  0  0  0  0  0  0  0  0
   50.5100    0.9733   16.9069 H   0  0  0  0  0  0  0  0  0  0  0  0
   52.2448    2.4469   17.8871 H   0  0  0  0  0  0  0  0  0  0  0  0
   51.7113    4.7754   18.4749 H   0  0  0  0  0  0  0  0  0  0  0  0
   49.6157    6.7613   18.0673 H   0  0  0  0  0  0  0  0  0  0  0  0
   48.6917    9.0263   20.6943 H   0  0  0  0  0  0  0  0  0  0  0  0
   49.2656    6.9042   19.2027 H   0  0  0  0  0  0  0  0  0  0  0  0
   48.8395    8.0178   20.1577 H   0  0  0  0  0  0  0  0  0  0  0  0
   48.7215    7.9450   20.2284 H   0  0  0  0  0  0  0  0  0  0  0  0
   49.3562    7.0296   19.1837 H   0  0  0  0  0  0  0  0  0  0  0  0
  1  2  1  0
  3  2  1  0
  3  4  1  0
  4  5  1  0
  6  5  1  0
  6  2  1  0
  6  7  1  0
  7  8  1  0
  8  9  1  0
  3  9  1  0
  8 10  1  0
 10 11  1  0
 11 12  2  0
 11 13  1  0
 13 14  1  0
 14 15  1  0
 13 16  1  0
 16 17  2  0
 17 18  1  0
 18 19  2  0
 19 20  1  0
 20 21  2  0
 16 21  1  0
 22 23  1  0
 24 23  1  0
 24 25  1  0
 25 26  1  0
 27 26  1  0
 27 23  1  0
 27 28  1  0
 28 29  1  0
 29 30  1  0
 24 30  1  0
 29 31  1  0
 31 32  1  0
 32 33  2  0
 32 34  1  0
 34 35  1  0
 35 36  1  0
 34 37  1  0
 37 38  2  0
 38 39  1  0
 39 40  2  0
 40 41  1  0
 41 42  2  0
 37 42  1  0
 43 44  2  0
 43 45  1  0
 43 46  1  0
 43 47  2  0
  1 50  1  0
  1 51  1  0
  1 52  1  0
  3 53  1  6
  4 54  1  0
  4 55  1  0
  5 56  1  0
  5 57  1  0
  6 58  1  1
  7 59  1  0
  7 60  1  0
  8 61  1  1
  9 62  1  0
  9 63  1  0
 13 64  1  6
 14 65  1  0
 14 66  1  0
 15 67  1  0
 17 68  1  0
 18 69  1  0
 19 70  1  0
 20 71  1  0
 21 72  1  0
 22 73  1  0
 22 74  1  0
 22 75  1  0
 24 76  1  6
 25 77  1  0
 25 78  1  0
 26 79  1  0
 26 80  1  0
 27 81  1  1
 28 82  1  0
 28 83  1  0
 29 84  1  1
 30 85  1  0
 30 86  1  0
 34 87  1  1
 35 88  1  0
 35 89  1  0
 36 90  1  0
 38 91  1  0
 39 92  1  0
 40 93  1  0
 41 94  1  0
 42 95  1  0
 45 96  1  0
 46 97  1  0
 48 98  1  0
 48 99  1  0
 49100  1  0
 49101  1  0
M  END
> <Uni-Dock RESULT> 
ENERGY=   -5.101  LOWER_BOUND=    1.273  UPPER_BOUND=    3.186
INTER + INTRA:          -5.101
INTER:                  -5.101
INTRA:                   0.000
UNBOUND:                 0.000

$$$$

     RDKit          3D

101102  0  0  0  0  0  0  0  0999 V2000
   48.9275    6.5405   15.0190 C   0  0  0  0  0  0  0  0  0  0  0  0
   47.9574    7.2299   14.1908 N   0  0  0  0  0  0  0  0  0  0  0  0
   48.2271    7.2508   12.7492 C   0  0  1  0  0  0  0  0  0  0  0  0
   47.0078    8.0479   12.2705 C   0  0  0  0  0  0  0  0  0  0  0  0
   46.6614    8.9654   13.4525 C   0  0  0  0  0  0  0  0  0  0  0  0
   47.7166    8.6384   14.5161 C   0  0  2  0  0  0  0  0  0  0  0  0
   48.9824    9.5012   14.3690 C   0  0  0  0  0  0  0  0  0  0  0  0
   49.6520    9.3759   12.9902 C   0  0  1  0  0  0  0  0  0  0  0  0
   49.5548    7.9545   12.4100 C   0  0  0  0  0  0  0  0  0  0  0  0
   49.0056   10.3221   12.1107 O   0  0  0  0  0  0  0  0  0  0  0  0
   49.7190   10.7728   11.0370 C   0  0  0  0  0  0  0  0  0  0  0  0
   50.8509   10.3961   10.7632 O   0  0  0  0  0  0  0  0  0  0  0  0
   48.8621   11.6973   10.1773 C   0  0  2  0  0  0  0  0  0  0  0  0
   49.6983   12.4286    9.1174 C   0  0  0  0  0  0  0  0  0  0  0  0
   50.4982   13.4815    9.6526 O   0  0  0  0  0  0  0  0  0  0  0  0
   47.9718   12.6663   10.9474 C   0  0  0  0  0  0  0  0  0  0  0  0
   46.6569   12.8987   10.5059 C   0  0  0  0  0  0  0  0  0  0  0  0
   45.8318   13.8012   11.1796 C   0  0  0  0  0  0  0  0  0  0  0  0
   46.3069   14.4839   12.2971 C   0  0  0  0  0  0  0  0  0  0  0  0
   47.6094   14.2661   12.7426 C   0  0  0  0  0  0  0  0  0  0  0  0
   48.4399   13.3676   12.0704 C   0  0  0  0  0  0  0  0  0  0  0  0
   48.2135   15.3303   10.2670 C   0  0  0  0  0  0  0  0  0  0  0  0
   47.6547   14.1038   10.8320 N   0  0  0  0  0  0  0  0  0  0  0  0
   48.0439   12.8966   10.0825 C   0  0  1  0  0  0  0  0  0  0  0  0
   49.4623   12.5798   10.5656 C   0  0  0  0  0  0  0  0  0  0  0  0
   49.5413   13.1917   11.9639 C   0  0  0  0  0  0  0  0  0  0  0  0
   48.1620   13.8183   12.1862 C   0  0  2  0  0  0  0  0  0  0  0  0
   47.1650   12.8296   12.8186 C   0  0  0  0  0  0  0  0  0  0  0  0
   46.9544   11.5536   11.9854 C   0  0  1  0  0  0  0  0  0  0  0  0
   47.0300   11.8034   10.4695 C   0  0  0  0  0  0  0  0  0  0  0  0
   47.9752   10.5972   12.3597 O   0  0  0  0  0  0  0  0  0  0  0  0
   47.6137    9.2795   12.3648 C   0  0  0  0  0  0  0  0  0  0  0  0
   46.5018    8.8589   12.0739 O   0  0  0  0  0  0  0  0  0  0  0  0
   48.8165    8.4190   12.7191 C   0  0  2  0  0  0  0  0  0  0  0  0
   49.4172    7.9097   11.3995 C   0  0  0  0  0  0  0  0  0  0  0  0
   50.6582    7.2256   11.5757 O   0  0  0  0  0  0  0  0  0  0  0  0
   48.4804    7.3178   13.7161 C   0  0  0  0  0  0  0  0  0  0  0  0
   47.6803    6.2202   13.3636 C   0  0  0  0  0  0  0  0  0  0  0  0
   47.3881    5.2208   14.2950 C   0  0  0  0  0  0  0  0  0  0  0  0
   47.8911    5.3040   15.5911 C   0  0  0  0  0  0  0  0  0  0  0  0
   48.6778    6.3915   15.9606 C   0  0  0  0  0  0  0  0  0  0  0  0
   48.9684    7.3932   15.0312 C   0  0  0  0  0  0  0  0  0  0  0  0
   47.9585   10.2986   12.3314 S   0  0  0  0  0  0  0  0  0  0  0  0
   46.7648   10.5000   11.5513 O   0  0  0  0  0  0  0  0  0  0  0  0
   48.6258    8.8977   11.9208 O   0  0  0  0  0  0  0  0  0  0  0  0
   49.0398   11.3439   11.7729 O   0  0  0  0  0  0  0  0  0  0  0  0
   47.9846   10.3726   13.7716 O   0  0  0  0  0  0  0  0  0  0  0  0
   47.9425   10.2396   12.1396 O   0  0  0  0  0  0  0  0  0  0  0  0
   47.9617   10.1720   12.1750 O   0  0  0  0  0  0  0  0  0  0  0  0
   48.9976    5.4882   14.7189 H   0  0  0  0  0  0  0  0  0  0  0  0
   48.5958    6.5465   16.0639 H   0  0  0  0  0  0  0  0  0  0  0  0
   49.9342    6.9659   14.9818 H   0  0  0  0  0  0  0  0  0  0  0  0
   48.2175    6.2429   12.3207 H   0  0  0  0  0  0  0  0  0  0  0  0
   47.1968    8.6103   11.3518 H   0  0  0  0  0  0  0  0  0  0  0  0
   46.1630    7.3745   12.0777 H   0  0  0  0  0  0  0  0  0  0  0  0
   45.6601    8.7100   13.8218 H   0  0  0  0  0  0  0  0  0  0  0  0
   46.6424   10.0222   13.1716 H   0  0  0  0  0  0  0  0  0  0  0  0
   47.2981    8.7550   15.5212 H   0  0  0  0  0  0  0  0  0  0  0  0
   48.7227   10.5506   14.5617 H   0  0  0  0  0  0  0  0  0  0  0  0
   49.7056    9.2179   15.1429 H   0  0  0  0  0  0  0  0  0  0  0  0
   50.7049    9.6689   13.0949 H   0  0  0  0  0  0  0  0  0  0  0  0
   49.6774    7.9744   11.3182 H   0  0  0  0  0  0  0  0  0  0  0  0
   50.3870    7.3560   12.8025 H   0  0  0  0  0  0  0  0  0  0  0  0
   48.2076   10.9984    9.6352 H   0  0  0  0  0  0  0  0  0  0  0  0
   50.3708   11.7338    8.6012 H   0  0  0  0  0  0  0  0  0  0  0  0
   49.0450   12.8689    8.3544 H   0  0  0  0  0  0  0  0  0  0  0  0
   49.8945   14.2107    9.8909 H   0  0  0  0  0  0  0  0  0  0  0  0
   46.2627   12.3778    9.6334 H   0  0  0  0  0  0  0  0  0  0  0  0
   44.8149   13.9739   10.8292 H   0  0  0  0  0  0  0  0  0  0  0  0
   45.6637   15.1854   12.8221 H   0  0  0  0  0  0  0  0  0  0  0  0
   47.9825   14.7994   13.6143 H   0  0  0  0  0  0  0  0  0  0  0  0
   49.4566   13.2214   12.4346 H   0  0  0  0  0  0  0  0  0  0  0  0
   47.8465   15.4783    9.2450 H   0  0  0  0  0  0  0  0  0  0  0  0
   47.8758   16.1973   10.8451 H   0  0  0  0  0  0  0  0  0  0  0  0
   49.3077   15.3513   10.2400 H   0  0  0  0  0  0  0  0  0  0  0  0
   48.0061   13.0395    8.9962 H   0  0  0  0  0  0  0  0  0  0  0  0
   49.6845   11.5085   10.5696 H   0  0  0  0  0  0  0  0  0  0  0  0
   50.2055   13.0608    9.9184 H   0  0  0  0  0  0  0  0  0  0  0  0
   50.3238   13.9613   11.9832 H   0  0  0  0  0  0  0  0  0  0  0  0
   49.7972   12.4491   12.7251 H   0  0  0  0  0  0  0  0  0  0  0  0
   48.2176   14.7130   12.8169 H   0  0  0  0  0  0  0  0  0  0  0  0
   47.5033   12.5671   13.8288 H   0  0  0  0  0  0  0  0  0  0  0  0
   46.1964   13.3369   12.9224 H   0  0  0  0  0  0  0  0  0  0  0  0
   45.9706   11.1431   12.2459 H   0  0  0  0  0  0  0  0  0  0  0  0
   46.0371   12.1161   10.1200 H   0  0  0  0  0  0  0  0  0  0  0  0
   47.2775   10.8766    9.9382 H   0  0  0  0  0  0  0  0  0  0  0  0
   49.5681    9.0637   13.1976 H   0  0  0  0  0  0  0  0  0  0  0  0
   48.7346    7.2367   10.8658 H   0  0  0  0  0  0  0  0  0  0  0  0
   49.6113    8.7549   10.7285 H   0  0  0  0  0  0  0  0  0  0  0  0
   51.0961    7.5595   12.3773 H   0  0  0  0  0  0  0  0  0  0  0  0
   47.2650    6.1349   12.3604 H   0  0  0  0  0  0  0  0  0  0  0  0
   46.7655    4.3773   14.0083 H   0  0  0  0  0  0  0  0  0  0  0  0
   47.6673    4.5226   16.3124 H   0  0  0  0  0  0  0  0  0  0  0  0
   49.0635    6.4600   16.9748 H   0  0  0  0  0  0  0  0  0  0  0  0
   49.5834    8.2318   15.3492 H   0  0  0  0  0  0  0  0  0  0  0  0
   49.4105    8.7627   12.4874 H   0  0  0  0  0  0  0  0  0  0  0  0
   48.5447   12.0269   11.2708 H   0  0  0  0  0  0  0  0  0  0  0  0
   48.6411    9.6790   12.5100 H   0  0  0  0  0  0  0  0  0  0  0  0
   48.4144   11.0253   11.8246 H   0  0  0  0  0  0  0  0  0  0  0  0
   48.2600   11.0175   11.8067 H   0  0  0  0  0  0  0  0  0  0  0  0
   48.7764    9.7544   12.4924 H   0  0  0  0  0  0  0  0  0  0  0  0
  1  2  1  0
  3  2  1  0
  3  4  1  0
  4  5  1  0
  6  5  1  0
  6  2  1  0
  6  7  1  0
  7  8  1  0
  8  9  1  0
  3  9  1  0
  8 10  1  0
 10 11  1  0
 11 12  2  0
 11 13  1  0
 13 14  1  0
 14 15  1  0
 13 16  1  0
 16 17  2  0
 17 18  1  0
 18 19  2  0
 19 20  1  0
 20 21  2  0
 16 21  1  0
 22 23  1  0
 24 23  1  0
 24 25  1  0
 25 26  1  0
 27 26  1  0
 27 23  1  0
 27 28  1  0
 28 29  1  0
 29 30  1  0
 24 30  1  0
 29 31  1  0
 31 32  1  0
 32 33  2  0
 32 34  1  0
 34 35  1  0
 35 36  1  0
 34 37  1  0
 37 38  2  0
 38 39  1  0
 39 40  2  0
 40 41  1  0
 41 42  2  0
 37 42  1  0
 43 44  2  0
 43 45  1  0
 43 46  1  0
 43 47  2  0
  1 50  1  0
  1 51  1  0
  1 52  1  0
  3 53  1  6
  4 54  1  0
  4 55  1  0
  5 56  1  0
  5 57  1  0
  6 58  1  1
  7 59  1  0
  7 60  1  0
  8 61  1  1
  9 62  1  0
  9 63  1  0
 13 64  1  6
 14 65  1  0
 14 66  1  0
 15 67  1  0
 17 68  1  0
 18 69  1  0
 19 70  1  0
 20 71  1  0
 21 72  1  0
 22 73  1  0
 22 74  1  0
 22 75  1  0
 24 76  1  6
 25 77  1  0
 25 78  1  0
 26 79  1  0
 26 80  1  0
 27 81  1  1
 28 82  1  0
 28 83  1  0
 29 84  1  1
 30 85  1  0
 30 86  1  0
 34 87  1  1
 35 88  1  0
 35 89  1  0
 36 90  1  0
 38 91  1  0
 39 92  1  0
 40 93  1  0
 41 94  1  0
 42 95  1  0
 45 96  1  0
 46 97  1  0
 48 98  1  0
 48 99  1  0
 49100  1  0
 49101  1  0
M  END
> <Uni-Dock RESULT> 
ENERGY=   -4.520  LOWER_BOUND=    6.770  UPPER_BOUND=    8.648
INTER + INTRA:          -4.520
INTER:                  -4.520
INTRA:                   0.000
UNBOUND:                 0.000

$$$$

     RDKit          3D

101102  0  0  0  0  0  0  0  0999 V2000
   49.2853    7.4717   12.9816 C   0  0  0  0  0  0  0  0  0  0  0  0
   49.8205    8.5968   13.7232 N   0  0  0  0  0  0  0  0  0  0  0  0
   50.7382    8.2775   14.8220 C   0  0  1  0  0  0  0  0  0  0  0  0
   51.0508    9.6949   15.3167 C   0  0  0  0  0  0  0  0  0  0  0  0
   49.7865   10.5029   14.9891 C   0  0  0  0  0  0  0  0  0  0  0  0
   48.8359    9.4865   14.3450 C   0  0  2  0  0  0  0  0  0  0  0  0
   47.9620    8.7624   15.3845 C   0  0  0  0  0  0  0  0  0  0  0  0
   48.7756    8.0261   16.4621 C   0  0  1  0  0  0  0  0  0  0  0  0
   50.0738    7.4126   15.9099 C   0  0  0  0  0  0  0  0  0  0  0  0
   49.0755    8.9820   17.5027 O   0  0  0  0  0  0  0  0  0  0  0  0
   49.3115    8.4948   18.7564 C   0  0  0  0  0  0  0  0  0  0  0  0
   49.3171    7.3030   19.0353 O   0  0  0  0  0  0  0  0  0  0  0  0
   49.6873    9.6276   19.7069 C   0  0  2  0  0  0  0  0  0  0  0  0
   49.7009    9.1637   21.1705 C   0  0  0  0  0  0  0  0  0  0  0  0
   48.3974    8.9825   21.7207 O   0  0  0  0  0  0  0  0  0  0  0  0
   48.8854   10.9136   19.5399 C   0  0  0  0  0  0  0  0  0  0  0  0
   49.5437   12.1543   19.6116 C   0  0  0  0  0  0  0  0  0  0  0  0
   48.8265   13.3457   19.4876 C   0  0  0  0  0  0  0  0  0  0  0  0
   47.4473   13.3153   19.2941 C   0  0  0  0  0  0  0  0  0  0  0  0
   46.7819   12.0926   19.2254 C   0  0  0  0  0  0  0  0  0  0  0  0
   47.4938   10.8984   19.3526 C   0  0  0  0  0  0  0  0  0  0  0  0
   47.6925   11.8992   21.8254 C   0  0  0  0  0  0  0  0  0  0  0  0
   48.2260   11.8562   20.4655 N   0  0  0  0  0  0  0  0  0  0  0  0
   49.3389   10.9027   20.3147 C   0  0  1  0  0  0  0  0  0  0  0  0
   48.6635    9.5339   20.1895 C   0  0  0  0  0  0  0  0  0  0  0  0
   47.2712    9.8377   19.6370 C   0  0  0  0  0  0  0  0  0  0  0  0
   47.2439   11.3610   19.4841 C   0  0  2  0  0  0  0  0  0  0  0  0
   47.7480   11.8199   18.1032 C   0  0  0  0  0  0  0  0  0  0  0  0
   49.1815   11.3582   17.7891 C   0  0  1  0  0  0  0  0  0  0  0  0
   50.0867   11.3122   19.0318 C   0  0  0  0  0  0  0  0  0  0  0  0
   49.1111   10.0352   17.2046 O   0  0  0  0  0  0  0  0  0  0  0  0
   50.0264    9.7403   16.2339 C   0  0  0  0  0  0  0  0  0  0  0  0
   50.8926   10.5070   15.8340 O   0  0  0  0  0  0  0  0  0  0  0  0
   49.8464    8.3001   15.7797 C   0  0  2  0  0  0  0  0  0  0  0  0
   50.8723    7.4493   16.5449 C   0  0  0  0  0  0  0  0  0  0  0  0
   50.7001    6.0464   16.3414 O   0  0  0  0  0  0  0  0  0  0  0  0
   49.9152    8.1463   14.2660 C   0  0  0  0  0  0  0  0  0  0  0  0
   51.1151    8.3184   13.5591 C   0  0  0  0  0  0  0  0  0  0  0  0
   51.1539    8.1691   12.1706 C   0  0  0  0  0  0  0  0  0  0  0  0
   49.9947    7.8459   11.4693 C   0  0  0  0  0  0  0  0  0  0  0  0
   48.7937    7.6820   12.1538 C   0  0  0  0  0  0  0  0  0  0  0  0
   48.7527    7.8339   13.5420 C   0  0  0  0  0  0  0  0  0  0  0  0
   49.3156    9.9089   17.0244 S   0  0  0  0  0  0  0  0  0  0  0  0
   50.1897   11.0070   17.3478 O   0  0  0  0  0  0  0  0  0  0  0  0
   50.2004    8.6411   16.5929 O   0  0  0  0  0  0  0  0  0  0  0  0
   48.6942    9.4068   18.4156 O   0  0  0  0  0  0  0  0  0  0  0  0
   48.2340   10.0114   16.0759 O   0  0  0  0  0  0  0  0  0  0  0  0
   49.4937    9.8834   17.1150 O   0  0  0  0  0  0  0  0  0  0  0  0
   49.5017    9.8373   17.0518 O   0  0  0  0  0  0  0  0  0  0  0  0
   50.1020    6.9003   12.5245 H   0  0  0  0  0  0  0  0  0  0  0  0
   48.6575    7.8332   12.1588 H   0  0  0  0  0  0  0  0  0  0  0  0
   48.6892    6.7793   13.5824 H   0  0  0  0  0  0  0  0  0  0  0  0
   51.6491    7.7890   14.4599 H   0  0  0  0  0  0  0  0  0  0  0  0
   51.3017    9.7322   16.3805 H   0  0  0  0  0  0  0  0  0  0  0  0
   51.9000   10.1142   14.7622 H   0  0  0  0  0  0  0  0  0  0  0  0
   50.0422   11.2907   14.2693 H   0  0  0  0  0  0  0  0  0  0  0  0
   49.3631   10.9946   15.8695 H   0  0  0  0  0  0  0  0  0  0  0  0
   48.2022    9.9736   13.5967 H   0  0  0  0  0  0  0  0  0  0  0  0
   47.2933    9.4930   15.8588 H   0  0  0  0  0  0  0  0  0  0  0  0
   47.3137    8.0411   14.8731 H   0  0  0  0  0  0  0  0  0  0  0  0
   48.1402    7.2401   16.8910 H   0  0  0  0  0  0  0  0  0  0  0  0
   50.7963    7.2447   16.7205 H   0  0  0  0  0  0  0  0  0  0  0  0
   49.8459    6.4239   15.4909 H   0  0  0  0  0  0  0  0  0  0  0  0
   50.7312    9.8451   19.4356 H   0  0  0  0  0  0  0  0  0  0  0  0
   50.2377    8.2138   21.2752 H   0  0  0  0  0  0  0  0  0  0  0  0
   50.2222    9.8973   21.7974 H   0  0  0  0  0  0  0  0  0  0  0  0
   48.0132    9.8702   21.8526 H   0  0  0  0  0  0  0  0  0  0  0  0
   50.6218   12.2043   19.7637 H   0  0  0  0  0  0  0  0  0  0  0  0
   49.3461   14.3015   19.5447 H   0  0  0  0  0  0  0  0  0  0  0  0
   46.8895   14.2431   19.1962 H   0  0  0  0  0  0  0  0  0  0  0  0
   45.7048   12.0670   19.0758 H   0  0  0  0  0  0  0  0  0  0  0  0
   46.9486    9.9560   19.3031 H   0  0  0  0  0  0  0  0  0  0  0  0
   48.4681   12.2275   22.5266 H   0  0  0  0  0  0  0  0  0  0  0  0
   46.8861   12.6379   21.8886 H   0  0  0  0  0  0  0  0  0  0  0  0
   47.2983   10.9418   22.1807 H   0  0  0  0  0  0  0  0  0  0  0  0
   50.0429   10.9340   21.1546 H   0  0  0  0  0  0  0  0  0  0  0  0
   49.2186    8.8387   19.5526 H   0  0  0  0  0  0  0  0  0  0  0  0
   48.5660    9.0615   21.1742 H   0  0  0  0  0  0  0  0  0  0  0  0
   46.5114    9.5072   20.3570 H   0  0  0  0  0  0  0  0  0  0  0  0
   47.0774    9.3139   18.6966 H   0  0  0  0  0  0  0  0  0  0  0  0
   46.2394   11.7690   19.6449 H   0  0  0  0  0  0  0  0  0  0  0  0
   47.0597   11.4627   17.3270 H   0  0  0  0  0  0  0  0  0  0  0  0
   47.7260   12.9176   18.0764 H   0  0  0  0  0  0  0  0  0  0  0  0
   49.6010   12.0514   17.0490 H   0  0  0  0  0  0  0  0  0  0  0  0
   50.5133   12.3121   19.1868 H   0  0  0  0  0  0  0  0  0  0  0  0
   50.9285   10.6282   18.8702 H   0  0  0  0  0  0  0  0  0  0  0  0
   48.8447    7.9677   16.0887 H   0  0  0  0  0  0  0  0  0  0  0  0
   51.9050    7.7042   16.2763 H   0  0  0  0  0  0  0  0  0  0  0  0
   50.7756    7.6296   17.6221 H   0  0  0  0  0  0  0  0  0  0  0  0
   49.7681    5.8662   16.1295 H   0  0  0  0  0  0  0  0  0  0  0  0
   52.0343    8.5818   14.0806 H   0  0  0  0  0  0  0  0  0  0  0  0
   52.0901    8.3072   11.6361 H   0  0  0  0  0  0  0  0  0  0  0  0
   50.0283    7.7248   10.3899 H   0  0  0  0  0  0  0  0  0  0  0  0
   47.8875    7.4377   11.6050 H   0  0  0  0  0  0  0  0  0  0  0  0
   47.7998    7.7023   14.0493 H   0  0  0  0  0  0  0  0  0  0  0  0
   49.5891    7.9215   16.3411 H   0  0  0  0  0  0  0  0  0  0  0  0
   48.8263   10.1305   19.0658 H   0  0  0  0  0  0  0  0  0  0  0  0
   49.3079    9.0291   16.6967 H   0  0  0  0  0  0  0  0  0  0  0  0
   49.0766    9.8134   17.9869 H   0  0  0  0  0  0  0  0  0  0  0  0
   49.1507    9.9449   17.9488 H   0  0  0  0  0  0  0  0  0  0  0  0
   49.2259    8.9437   16.7980 H   0  0  0  0  0  0  0  0  0  0  0  0
  1  2  1  0
  3  2  1  0
  3  4  1  0
  4  5  1  0
  6  5  1  0
  6  2  1  0
  6  7  1  0
  7  8  1  0
  8  9  1  0
  3  9  1  0
  8 10  1  0
 10 11  1  0
 11 12  2  0
 11 13  1  0
 13 14  1  0
 14 15  1  0
 13 16  1  0
 16 17  2  0
 17 18  1  0
 18 19  2  0
 19 20  1  0
 20 21  2  0
 16 21  1  0
 22 23  1  0
 24 23  1  0
 24 25  1  0
 25 26  1  0
 27 26  1  0
 27 23  1  0
 27 28  1  0
 28 29  1  0
 29 30  1  0
 24 30  1  0
 29 31  1  0
 31 32  1  0
 32 33  2  0
 32 34  1  0
 34 35  1  0
 35 36  1  0
 34 37  1  0
 37 38  2  0
 38 39  1  0
 39 40  2  0
 40 41  1  0
 41 42  2  0
 37 42  1  0
 43 44  2  0
 43 45  1  0
 43 46  1  0
 43 47  2  0
  1 50  1  0
  1 51  1  0
  1 52  1  0
  3 53  1  6
  4 54  1  0
  4 55  1  0
  5 56  1  0
  5 57  1  0
  6 58  1  1
  7 59  1  0
  7 60  1  0
  8 61  1  1
  9 62  1  0
  9 63  1  0
 13 64  1  6
 14 65  1  0
 14 66  1  0
 15 67  1  0
 17 68  1  0
 18 69  1  0
 19 70  1  0
 20 71  1  0
 21 72  1  0
 22 73  1  0
 22 74  1  0
 22 75  1  0
 24 76  1  6
 25 77  1  0
 25 78  1  0
 26 79  1  0
 26 80  1  0
 27 81  1  1
 28 82  1  0
 28 83  1  0
 29 84  1  1
 30 85  1  0
 30 86  1  0
 34 87  1  1
 35 88  1  0
 35 89  1  0
 36 90  1  0
 38 91  1  0
 39 92  1  0
 40 93  1  0
 41 94  1  0
 42 95  1  0
 45 96  1  0
 46 97  1  0
 48 98  1  0
 48 99  1  0
 49100  1  0
 49101  1  0
M  END
> <Uni-Dock RESULT> 
ENERGY=   -4.492  LOWER_BOUND=    2.974  UPPER_BOUND=    4.092
INTER + INTRA:          -4.492
INTER:                  -4.492
INTRA:                   0.000
UNBOUND:                 0.000

$$$$

     RDKit          3D

101102  0  0  0  0  0  0  0  0999 V2000
   50.7373   10.1163   12.9149 C   0  0  0  0  0  0  0  0  0  0  0  0
   49.7927    9.0580   13.2148 N   0  0  0  0  0  0  0  0  0  0  0  0
   48.6757    9.4106   14.0977 C   0  0  1  0  0  0  0  0  0  0  0  0
   47.9530    8.0592   14.1511 C   0  0  0  0  0  0  0  0  0  0  0  0
   49.0684    7.0202   13.9629 C   0  0  0  0  0  0  0  0  0  0  0  0
   50.3505    7.8511   13.8311 C   0  0  2  0  0  0  0  0  0  0  0  0
   51.0061    8.1354   15.1941 C   0  0  0  0  0  0  0  0  0  0  0  0
   50.0765    8.8612   16.1812 C   0  0  1  0  0  0  0  0  0  0  0  0
   49.1496    9.8747   15.4880 C   0  0  0  0  0  0  0  0  0  0  0  0
   49.2975    7.8517   16.8599 O   0  0  0  0  0  0  0  0  0  0  0  0
   48.8056    8.1610   18.0957 C   0  0  0  0  0  0  0  0  0  0  0  0
   48.9577    9.2476   18.6381 O   0  0  0  0  0  0  0  0  0  0  0  0
   47.9468    7.0184   18.6293 C   0  0  2  0  0  0  0  0  0  0  0  0
   47.5960    7.2121   20.1115 C   0  0  0  0  0  0  0  0  0  0  0  0
   48.6880    6.9531   20.9919 O   0  0  0  0  0  0  0  0  0  0  0  0
   48.4866    5.6171   18.3655 C   0  0  0  0  0  0  0  0  0  0  0  0
   47.6012    4.5954   17.9780 C   0  0  0  0  0  0  0  0  0  0  0  0
   48.0684    3.2986   17.7562 C   0  0  0  0  0  0  0  0  0  0  0  0
   49.4199    3.0041   17.9203 C   0  0  0  0  0  0  0  0  0  0  0  0
   50.3075    4.0063   18.3082 C   0  0  0  0  0  0  0  0  0  0  0  0
   49.8450    5.3038   18.5349 C   0  0  0  0  0  0  0  0  0  0  0  0
   48.7296    3.9800   20.5744 C   0  0  0  0  0  0  0  0  0  0  0  0
   48.6405    4.3918   19.1750 N   0  0  0  0  0  0  0  0  0  0  0  0
   47.8368    5.6120   18.9851 C   0  0  1  0  0  0  0  0  0  0  0  0
   48.7799    6.7601   19.3567 C   0  0  0  0  0  0  0  0  0  0  0  0
   50.1822    6.2059   19.1076 C   0  0  0  0  0  0  0  0  0  0  0  0
   49.9467    4.7769   18.6107 C   0  0  2  0  0  0  0  0  0  0  0  0
   49.7904    4.7076   17.0802 C   0  0  0  0  0  0  0  0  0  0  0  0
   48.6366    5.5709   16.5417 C   0  0  1  0  0  0  0  0  0  0  0  0
   47.4340    5.6357   17.4985 C   0  0  0  0  0  0  0  0  0  0  0  0
   49.1404    6.9106   16.3221 O   0  0  0  0  0  0  0  0  0  0  0  0
   48.6307    7.5940   15.2543 C   0  0  0  0  0  0  0  0  0  0  0  0
   47.7852    7.1575   14.4845 O   0  0  0  0  0  0  0  0  0  0  0  0
   49.2221    8.9944   15.2119 C   0  0  2  0  0  0  0  0  0  0  0  0
   48.2092    9.9374   15.8802 C   0  0  0  0  0  0  0  0  0  0  0  0
   48.7120   11.2615   16.0626 O   0  0  0  0  0  0  0  0  0  0  0  0
   49.6348    9.4178   13.8083 C   0  0  0  0  0  0  0  0  0  0  0  0
   48.6875    9.6855   12.8082 C   0  0  0  0  0  0  0  0  0  0  0  0
   49.0904   10.0754   11.5286 C   0  0  0  0  0  0  0  0  0  0  0  0
   50.4450   10.2031   11.2304 C   0  0  0  0  0  0  0  0  0  0  0  0
   51.3982    9.9311   12.2078 C   0  0  0  0  0  0  0  0  0  0  0  0
   50.9970    9.5382   13.4870 C   0  0  0  0  0  0  0  0  0  0  0  0
   49.0278    7.1144   16.1323 S   0  0  0  0  0  0  0  0  0  0  0  0
   47.8954    6.2411   15.9622 O   0  0  0  0  0  0  0  0  0  0  0  0
   48.5832    8.6224   15.8088 O   0  0  0  0  0  0  0  0  0  0  0  0
   49.2993    7.1927   17.7115 O   0  0  0  0  0  0  0  0  0  0  0  0
   50.2973    6.8999   15.4822 O   0  0  0  0  0  0  0  0  0  0  0  0
   48.8400    7.1692   16.1797 O   0  0  0  0  0  0  0  0  0  0  0  0
   48.8604    7.2259   16.1293 O   0  0  0  0  0  0  0  0  0  0  0  0
   50.2239   10.9490   12.4195 H   0  0  0  0  0  0  0  0  0  0  0  0
   51.4936    9.7513   12.2102 H   0  0  0  0  0  0  0  0  0  0  0  0
   51.2563   10.5174   13.7898 H   0  0  0  0  0  0  0  0  0  0  0  0
   48.0296   10.1725   13.6489 H   0  0  0  0  0  0  0  0  0  0  0  0
   47.3977    7.9063   15.0808 H   0  0  0  0  0  0  0  0  0  0  0  0
   47.2389    7.9751   13.3221 H   0  0  0  0  0  0  0  0  0  0  0  0
   48.8832    6.4607   13.0373 H   0  0  0  0  0  0  0  0  0  0  0  0
   49.1056    6.2925   14.7785 H   0  0  0  0  0  0  0  0  0  0  0  0
   51.0651    7.3524   13.1682 H   0  0  0  0  0  0  0  0  0  0  0  0
   51.3443    7.1867   15.6317 H   0  0  0  0  0  0  0  0  0  0  0  0
   51.9074    8.7412   15.0431 H   0  0  0  0  0  0  0  0  0  0  0  0
   50.7016    9.3705   16.9263 H   0  0  0  0  0  0  0  0  0  0  0  0
   48.2695   10.0822   16.1123 H   0  0  0  0  0  0  0  0  0  0  0  0
   49.6847   10.8274   15.3837 H   0  0  0  0  0  0  0  0  0  0  0  0
   47.0077    7.1280   18.0664 H   0  0  0  0  0  0  0  0  0  0  0  0
   47.2546    8.2361   20.3025 H   0  0  0  0  0  0  0  0  0  0  0  0
   46.7768    6.5421   20.3995 H   0  0  0  0  0  0  0  0  0  0  0  0
   48.8297    5.9872   21.0005 H   0  0  0  0  0  0  0  0  0  0  0  0
   46.5391    4.8006   17.8443 H   0  0  0  0  0  0  0  0  0  0  0  0
   47.3740    2.5146   17.4564 H   0  0  0  0  0  0  0  0  0  0  0  0
   49.7834    1.9946   17.7462 H   0  0  0  0  0  0  0  0  0  0  0  0
   51.3630    3.7777   18.4382 H   0  0  0  0  0  0  0  0  0  0  0  0
   50.5583    6.0672   18.8450 H   0  0  0  0  0  0  0  0  0  0  0  0
   47.7323    3.7483   20.9654 H   0  0  0  0  0  0  0  0  0  0  0  0
   49.3158    3.0584   20.6574 H   0  0  0  0  0  0  0  0  0  0  0  0
   49.1855    4.7274   21.2315 H   0  0  0  0  0  0  0  0  0  0  0  0
   46.9254    5.6202   19.5943 H   0  0  0  0  0  0  0  0  0  0  0  0
   48.5886    7.6737   18.7858 H   0  0  0  0  0  0  0  0  0  0  0  0
   48.6756    7.0153   20.4180 H   0  0  0  0  0  0  0  0  0  0  0  0
   50.7463    6.2003   20.0492 H   0  0  0  0  0  0  0  0  0  0  0  0
   50.7458    6.8149   18.3949 H   0  0  0  0  0  0  0  0  0  0  0  0
   50.7558    4.1018   18.9123 H   0  0  0  0  0  0  0  0  0  0  0  0
   50.7340    5.0021   16.6040 H   0  0  0  0  0  0  0  0  0  0  0  0
   49.5983    3.6629   16.8010 H   0  0  0  0  0  0  0  0  0  0  0  0
   48.3235    5.1472   15.5791 H   0  0  0  0  0  0  0  0  0  0  0  0
   46.7888    4.7689   17.3032 H   0  0  0  0  0  0  0  0  0  0  0  0
   46.8327    6.5314   17.3014 H   0  0  0  0  0  0  0  0  0  0  0  0
   50.1337    8.9985   15.8270 H   0  0  0  0  0  0  0  0  0  0  0  0
   47.2723   10.0081   15.3137 H   0  0  0  0  0  0  0  0  0  0  0  0
   47.9459    9.5564   16.8741 H   0  0  0  0  0  0  0  0  0  0  0  0
   49.6813   11.2281   16.1349 H   0  0  0  0  0  0  0  0  0  0  0  0
   47.6222    9.5834   13.0104 H   0  0  0  0  0  0  0  0  0  0  0  0
   48.3456   10.2777   10.7634 H   0  0  0  0  0  0  0  0  0  0  0  0
   50.7560   10.5119   10.2360 H   0  0  0  0  0  0  0  0  0  0  0  0
   52.4556   10.0231   11.9722 H   0  0  0  0  0  0  0  0  0  0  0  0
   51.7641    9.3301   14.2292 H   0  0  0  0  0  0  0  0  0  0  0  0
   49.3732    9.1916   15.8923 H   0  0  0  0  0  0  0  0  0  0  0  0
   48.8389    6.4276   18.1193 H   0  0  0  0  0  0  0  0  0  0  0  0
   49.3085    8.0050   16.0340 H   0  0  0  0  0  0  0  0  0  0  0  0
   48.9867    6.9785   17.1185 H   0  0  0  0  0  0  0  0  0  0  0  0
   48.9024    6.8792   17.0334 H   0  0  0  0  0  0  0  0  0  0  0  0
   49.3724    8.0476   16.1696 H   0  0  0  0  0  0  0  0  0  0  0  0
  1  2  1  0
  3  2  1  0
  3  4  1  0
  4  5  1  0
  6  5  1  0
  6  2  1  0
  6  7  1  0
  7  8  1  0
  8  9  1  0
  3  9  1  0
  8 10  1  0
 10 11  1  0
 11 12  2  0
 11 13  1  0
 13 14  1  0
 14 15  1  0
 13 16  1  0
 16 17  2  0
 17 18  1  0
 18 19  2  0
 19 20  1  0
 20 21  2  0
 16 21  1  0
 22 23  1  0
 24 23  1  0
 24 25  1  0
 25 26  1  0
 27 26  1  0
 27 23  1  0
 27 28  1  0
 28 29  1  0
 29 30  1  0
 24 30  1  0
 29 31  1  0
 31 32  1  0
 32 33  2  0
 32 34  1  0
 34 35  1  0
 35 36  1  0
 34 37  1  0
 37 38  2  0
 38 39  1  0
 39 40  2  0
 40 41  1  0
 41 42  2  0
 37 42  1  0
 43 44  2  0
 43 45  1  0
 43 46  1  0
 43 47  2  0
  1 50  1  0
  1 51  1  0
  1 52  1  0
  3 53  1  6
  4 54  1  0
  4 55  1  0
  5 56  1  0
  5 57  1  0
  6 58  1  1
  7 59  1  0
  7 60  1  0
  8 61  1  1
  9 62  1  0
  9 63  1  0
 13 64  1  6
 14 65  1  0
 14 66  1  0
 15 67  1  0
 17 68  1  0
 18 69  1  0
 19 70  1  0
 20 71  1  0
 21 72  1  0
 22 73  1  0
 22 74  1  0
 22 75  1  0
 24 76  1  6
 25 77  1  0
 25 78  1  0
 26 79  1  0
 26 80  1  0
 27 81  1  1
 28 82  1  0
 28 83  1  0
 29 84  1  1
 30 85  1  0
 30 86  1  0
 34 87  1  1
 35 88  1  0
 35 89  1  0
 36 90  1  0
 38 91  1  0
 39 92  1  0
 40 93  1  0
 41 94  1  0
 42 95  1  0
 45 96  1  0
 46 97  1  0
 48 98  1  0
 48 99  1  0
 49100  1  0
 49101  1  0
M  END
> <Uni-Dock RESULT> 
ENERGY=   -4.280  LOWER_BOUND=    3.369  UPPER_BOUND=    6.205
INTER + INTRA:          -4.280
INTER:                  -4.280
INTRA:                   0.000
UNBOUND:                 0.000

$$$$

     RDKit          3D

101102  0  0  0  0  0  0  0  0999 V2000
   49.3393   14.4693   18.0140 C   0  0  0  0  0  0  0  0  0  0  0  0
   48.8098   13.1360   17.8044 N   0  0  0  0  0  0  0  0  0  0  0  0
   47.6011   12.7875   18.5588 C   0  0  1  0  0  0  0  0  0  0  0  0
   47.3926   11.3517   18.0622 C   0  0  0  0  0  0  0  0  0  0  0  0
   48.8072   10.8485   17.7390 C   0  0  0  0  0  0  0  0  0  0  0  0
   49.7244   12.0267   18.0886 C   0  0  2  0  0  0  0  0  0  0  0  0
   50.1773   11.9992   19.5591 C   0  0  0  0  0  0  0  0  0  0  0  0
   49.0094   12.0013   20.5597 C   0  0  1  0  0  0  0  0  0  0  0  0
   47.8202   12.8524   20.0822 C   0  0  0  0  0  0  0  0  0  0  0  0
   48.6007   10.6285   20.7466 O   0  0  0  0  0  0  0  0  0  0  0  0
   47.9763   10.3113   21.9189 C   0  0  0  0  0  0  0  0  0  0  0  0
   47.7157   11.1253   22.7950 O   0  0  0  0  0  0  0  0  0  0  0  0
   47.5458    8.8476   21.9149 C   0  0  2  0  0  0  0  0  0  0  0  0
   47.0826    8.3852   23.3038 C   0  0  0  0  0  0  0  0  0  0  0  0
   48.1554    8.1848   24.2224 O   0  0  0  0  0  0  0  0  0  0  0  0
   48.5512    7.8726   21.3123 C   0  0  0  0  0  0  0  0  0  0  0  0
   48.0955    6.8331   20.4818 C   0  0  0  0  0  0  0  0  0  0  0  0
   48.9945    5.9128   19.9396 C   0  0  0  0  0  0  0  0  0  0  0  0
   50.3551    6.0151   20.2202 C   0  0  0  0  0  0  0  0  0  0  0  0
   50.8196    7.0380   21.0451 C   0  0  0  0  0  0  0  0  0  0  0  0
   49.9245    7.9586   21.5929 C   0  0  0  0  0  0  0  0  0  0  0  0
   49.2484    5.7226   22.8965 C   0  0  0  0  0  0  0  0  0  0  0  0
   49.0852    6.5532   21.7051 N   0  0  0  0  0  0  0  0  0  0  0  0
   47.9165    7.4469   21.7834 C   0  0  1  0  0  0  0  0  0  0  0  0
   48.3828    8.6214   22.6485 C   0  0  0  0  0  0  0  0  0  0  0  0
   49.9001    8.6567   22.4690 C   0  0  0  0  0  0  0  0  0  0  0  0
   50.1997    7.4986   21.5132 C   0  0  2  0  0  0  0  0  0  0  0  0
   50.1470    7.9302   20.0359 C   0  0  0  0  0  0  0  0  0  0  0  0
   48.7905    8.5236   19.6183 C   0  0  1  0  0  0  0  0  0  0  0  0
   47.5984    7.8684   20.3363 C   0  0  0  0  0  0  0  0  0  0  0  0
   48.8057    9.9397   19.9201 O   0  0  0  0  0  0  0  0  0  0  0  0
   48.1390   10.7617   19.0560 C   0  0  0  0  0  0  0  0  0  0  0  0
   47.5343   10.3862   18.0604 O   0  0  0  0  0  0  0  0  0  0  0  0
   48.2070   12.1960   19.5569 C   0  0  2  0  0  0  0  0  0  0  0  0
   46.9000   12.4767   20.3149 C   0  0  0  0  0  0  0  0  0  0  0  0
   46.9014   13.7365   20.9872 O   0  0  0  0  0  0  0  0  0  0  0  0
   48.5097   13.1944   18.4471 C   0  0  0  0  0  0  0  0  0  0  0  0
   47.5749   13.4897   17.4431 C   0  0  0  0  0  0  0  0  0  0  0  0
   47.8746   14.4116   16.4370 C   0  0  0  0  0  0  0  0  0  0  0  0
   49.1119   15.0508   16.4200 C   0  0  0  0  0  0  0  0  0  0  0  0
   50.0548   14.7615   17.4025 C   0  0  0  0  0  0  0  0  0  0  0  0
   49.7578   13.8377   18.4076 C   0  0  0  0  0  0  0  0  0  0  0  0
   48.6380   10.1516   19.7890 S   0  0  0  0  0  0  0  0  0  0  0  0
   47.8894    9.0893   19.1683 O   0  0  0  0  0  0  0  0  0  0  0  0
   47.7113   11.4581   19.8924 O   0  0  0  0  0  0  0  0  0  0  0  0
   48.7932    9.7465   21.3335 O   0  0  0  0  0  0  0  0  0  0  0  0
   49.9308   10.5870   19.3208 O   0  0  0  0  0  0  0  0  0  0  0  0
   48.4408   10.1248   19.8200 O   0  0  0  0  0  0  0  0  0  0  0  0
   48.4425   10.1991   19.7942 O   0  0  0  0  0  0  0  0  0  0  0  0
   48.5912   15.2195   17.7313 H   0  0  0  0  0  0  0  0  0  0  0  0
   50.2067   14.6317   17.3633 H   0  0  0  0  0  0  0  0  0  0  0  0
   49.6460   14.6751   19.0432 H   0  0  0  0  0  0  0  0  0  0  0  0
   46.7512   13.4174   18.2756 H   0  0  0  0  0  0  0  0  0  0  0  0
   46.8836   10.7153   18.7916 H   0  0  0  0  0  0  0  0  0  0  0  0
   46.7908   11.3487   17.1445 H   0  0  0  0  0  0  0  0  0  0  0  0
   48.8707   10.6248   16.6666 H   0  0  0  0  0  0  0  0  0  0  0  0
   49.0584    9.9296   18.2762 H   0  0  0  0  0  0  0  0  0  0  0  0
   50.5972   12.0435   17.4277 H   0  0  0  0  0  0  0  0  0  0  0  0
   50.8045   11.1127   19.7223 H   0  0  0  0  0  0  0  0  0  0  0  0
   50.8172   12.8673   19.7571 H   0  0  0  0  0  0  0  0  0  0  0  0
   49.3835   12.3815   21.5193 H   0  0  0  0  0  0  0  0  0  0  0  0
   46.8955   12.5410   20.5875 H   0  0  0  0  0  0  0  0  0  0  0  0
   47.9942   13.8962   20.3741 H   0  0  0  0  0  0  0  0  0  0  0  0
   46.6540    8.8514   21.2705 H   0  0  0  0  0  0  0  0  0  0  0  0
   46.3977    9.1147   23.7513 H   0  0  0  0  0  0  0  0  0  0  0  0
   46.5359    7.4375   23.2267 H   0  0  0  0  0  0  0  0  0  0  0  0
   48.6239    7.3737   23.9473 H   0  0  0  0  0  0  0  0  0  0  0  0
   47.0357    6.7312   20.2486 H   0  0  0  0  0  0  0  0  0  0  0  0
   48.6310    5.1113   19.2976 H   0  0  0  0  0  0  0  0  0  0  0  0
   51.0549    5.2992   19.7967 H   0  0  0  0  0  0  0  0  0  0  0  0
   51.8816    7.1185   21.2664 H   0  0  0  0  0  0  0  0  0  0  0  0
   50.3125    8.7441   22.2411 H   0  0  0  0  0  0  0  0  0  0  0  0
   48.3776    5.0699   23.0256 H   0  0  0  0  0  0  0  0  0  0  0  0
   50.1145    5.0625   22.7775 H   0  0  0  0  0  0  0  0  0  0  0  0
   49.3853    6.2912   23.8218 H   0  0  0  0  0  0  0  0  0  0  0  0
   47.0325    6.9553   22.2065 H   0  0  0  0  0  0  0  0  0  0  0  0
   47.9115    9.5698   22.3737 H   0  0  0  0  0  0  0  0  0  0  0  0
   48.1482    8.4387   23.7040 H   0  0  0  0  0  0  0  0  0  0  0  0
   50.3875    8.4941   23.4390 H   0  0  0  0  0  0  0  0  0  0  0  0
   50.2481    9.6213   22.0882 H   0  0  0  0  0  0  0  0  0  0  0  0
   51.1787    7.0479   21.7129 H   0  0  0  0  0  0  0  0  0  0  0  0
   50.9496    8.6519   19.8384 H   0  0  0  0  0  0  0  0  0  0  0  0
   50.3436    7.0476   19.4125 H   0  0  0  0  0  0  0  0  0  0  0  0
   48.6885    8.3929   18.5334 H   0  0  0  0  0  0  0  0  0  0  0  0
   47.3050    6.9722   19.7737 H   0  0  0  0  0  0  0  0  0  0  0  0
   46.7325    8.5413   20.3380 H   0  0  0  0  0  0  0  0  0  0  0  0
   49.0312   12.2655   20.2817 H   0  0  0  0  0  0  0  0  0  0  0  0
   46.0239   12.4481   19.6552 H   0  0  0  0  0  0  0  0  0  0  0  0
   46.7410   11.7071   21.0797 H   0  0  0  0  0  0  0  0  0  0  0  0
   47.8173   13.9828   21.2024 H   0  0  0  0  0  0  0  0  0  0  0  0
   46.6039   12.9969   17.4258 H   0  0  0  0  0  0  0  0  0  0  0  0
   47.1414   14.6291   15.6648 H   0  0  0  0  0  0  0  0  0  0  0  0
   49.3408   15.7717   15.6397 H   0  0  0  0  0  0  0  0  0  0  0  0
   51.0235   15.2548   17.3842 H   0  0  0  0  0  0  0  0  0  0  0  0
   50.5149   13.6302   19.1601 H   0  0  0  0  0  0  0  0  0  0  0  0
   48.2489   12.1764   20.2797 H   0  0  0  0  0  0  0  0  0  0  0  0
   48.6101    8.7842   21.3967 H   0  0  0  0  0  0  0  0  0  0  0  0
   48.5951   11.0593   20.0253 H   0  0  0  0  0  0  0  0  0  0  0  0
   48.6020    9.6701   20.6605 H   0  0  0  0  0  0  0  0  0  0  0  0
   48.5615    9.5864   20.5358 H   0  0  0  0  0  0  0  0  0  0  0  0
   48.6340   11.0688   20.1760 H   0  0  0  0  0  0  0  0  0  0  0  0
  1  2  1  0
  3  2  1  0
  3  4  1  0
  4  5  1  0
  6  5  1  0
  6  2  1  0
  6  7  1  0
  7  8  1  0
  8  9  1  0
  3  9  1  0
  8 10  1  0
 10 11  1  0
 11 12  2  0
 11 13  1  0
 13 14  1  0
 14 15  1  0
 13 16  1  0
 16 17  2  0
 17 18  1  0
 18 19  2  0
 19 20  1  0
 20 21  2  0
 16 21  1  0
 22 23  1  0
 24 23  1  0
 24 25  1  0
 25 26  1  0
 27 26  1  0
 27 23  1  0
 27 28  1  0
 28 29  1  0
 29 30  1  0
 24 30  1  0
 29 31  1  0
 31 32  1  0
 32 33  2  0
 32 34  1  0
 34 35  1  0
 35 36  1  0
 34 37  1  0
 37 38  2  0
 38 39  1  0
 39 40  2  0
 40 41  1  0
 41 42  2  0
 37 42  1  0
 43 44  2  0
 43 45  1  0
 43 46  1  0
 43 47  2  0
  1 50  1  0
  1 51  1  0
  1 52  1  0
  3 53  1  6
  4 54  1  0
  4 55  1  0
  5 56  1  0
  5 57  1  0
  6 58  1  1
  7 59  1  0
  7 60  1  0
  8 61  1  1
  9 62  1  0
  9 63  1  0
 13 64  1  6
 14 65  1  0
 14 66  1  0
 15 67  1  0
 17 68  1  0
 18 69  1  0
 19 70  1  0
 20 71  1  0
 21 72  1  0
 22 73  1  0
 22 74  1  0
 22 75  1  0
 24 76  1  6
 25 77  1  0
 25 78  1  0
 26 79  1  0
 26 80  1  0
 27 81  1  1
 28 82  1  0
 28 83  1  0
 29 84  1  1
 30 85  1  0
 30 86  1  0
 34 87  1  1
 35 88  1  0
 35 89  1  0
 36 90  1  0
 38 91  1  0
 39 92  1  0
 40 93  1  0
 41 94  1  0
 42 95  1  0
 45 96  1  0
 46 97  1  0
 48 98  1  0
 48 99  1  0
 49100  1  0
 49101  1  0
M  END
> <Uni-Dock RESULT> 
ENERGY=   -4.272  LOWER_BOUND=    2.275  UPPER_BOUND=    6.220
INTER + INTRA:          -4.272
INTER:                  -4.272
INTRA:                   0.000
UNBOUND:                 0.000

$$$$

     RDKit          3D

101102  0  0  0  0  0  0  0  0999 V2000
   39.3397   10.1428   10.8898 C   0  0  0  0  0  0  0  0  0  0  0  0
   39.3067   11.5913   10.9441 N   0  0  0  0  0  0  0  0  0  0  0  0
   40.0735   12.3009    9.9146 C   0  0  1  0  0  0  0  0  0  0  0  0
   39.7784   13.7485   10.3255 C   0  0  0  0  0  0  0  0  0  0  0  0
   39.5627   13.6795   11.8446 C   0  0  0  0  0  0  0  0  0  0  0  0
   39.7653   12.2005   12.1956 C   0  0  2  0  0  0  0  0  0  0  0  0
   41.2355   11.8693   12.5073 C   0  0  0  0  0  0  0  0  0  0  0  0
   42.1978   12.2146   11.3584 C   0  0  1  0  0  0  0  0  0  0  0  0
   41.5775   11.9728    9.9715 C   0  0  0  0  0  0  0  0  0  0  0  0
   42.5656   13.6034   11.5082 O   0  0  0  0  0  0  0  0  0  0  0  0
   43.7557   14.0013   10.9694 C   0  0  0  0  0  0  0  0  0  0  0  0
   44.5025   13.2610   10.3430 O   0  0  0  0  0  0  0  0  0  0  0  0
   43.9468   15.5043   11.1497 C   0  0  2  0  0  0  0  0  0  0  0  0
   45.3755   15.9440   10.7988 C   0  0  0  0  0  0  0  0  0  0  0  0
   46.3383   15.5882   11.7893 O   0  0  0  0  0  0  0  0  0  0  0  0
   43.5110   16.0609   12.5005 C   0  0  0  0  0  0  0  0  0  0  0  0
   42.8239   17.2868   12.5553 C   0  0  0  0  0  0  0  0  0  0  0  0
   42.4377   17.8289   13.7826 C   0  0  0  0  0  0  0  0  0  0  0  0
   42.7335   17.1591   14.9676 C   0  0  0  0  0  0  0  0  0  0  0  0
   43.4176   15.9454   14.9278 C   0  0  0  0  0  0  0  0  0  0  0  0
   43.8094   15.4007   13.7036 C   0  0  0  0  0  0  0  0  0  0  0  0
   45.3972   17.5478   13.8603 C   0  0  0  0  0  0  0  0  0  0  0  0
   44.0976   17.0001   13.4773 N   0  0  0  0  0  0  0  0  0  0  0  0
   44.0220   16.6452   12.0493 C   0  0  1  0  0  0  0  0  0  0  0  0
   44.7246   15.2881   11.9485 C   0  0  0  0  0  0  0  0  0  0  0  0
   44.5781   14.6715   13.3392 C   0  0  0  0  0  0  0  0  0  0  0  0
   43.8016   15.7185   14.1426 C   0  0  2  0  0  0  0  0  0  0  0  0
   42.2775   15.5233   14.0395 C   0  0  0  0  0  0  0  0  0  0  0  0
   41.7486   15.5755   12.5959 C   0  0  1  0  0  0  0  0  0  0  0  0
   42.5229   16.5615   11.7048 C   0  0  0  0  0  0  0  0  0  0  0  0
   41.8491   14.2461   12.0306 O   0  0  0  0  0  0  0  0  0  0  0  0
   40.8626   13.8682   11.1640 C   0  0  0  0  0  0  0  0  0  0  0  0
   39.9154   14.5698   10.8345 O   0  0  0  0  0  0  0  0  0  0  0  0
   41.1588   12.4776   10.6245 C   0  0  2  0  0  0  0  0  0  0  0  0
   41.8387   12.6541    9.2576 C   0  0  0  0  0  0  0  0  0  0  0  0
   42.3275   11.4282    8.7122 O   0  0  0  0  0  0  0  0  0  0  0  0
   39.9276   11.5815   10.5963 C   0  0  0  0  0  0  0  0  0  0  0  0
   38.8701   11.8060    9.7016 C   0  0  0  0  0  0  0  0  0  0  0  0
   37.7520   10.9684    9.6925 C   0  0  0  0  0  0  0  0  0  0  0  0
   37.6750    9.8951   10.5769 C   0  0  0  0  0  0  0  0  0  0  0  0
   38.7105    9.6644   11.4783 C   0  0  0  0  0  0  0  0  0  0  0  0
   39.8278   10.5029   11.4907 C   0  0  0  0  0  0  0  0  0  0  0  0
   41.6856   14.1361   11.8038 S   0  0  0  0  0  0  0  0  0  0  0  0
   41.2024   15.4747   11.5829 O   0  0  0  0  0  0  0  0  0  0  0  0
   41.5826   13.3063   10.4337 O   0  0  0  0  0  0  0  0  0  0  0  0
   43.2749   14.2582   11.9852 O   0  0  0  0  0  0  0  0  0  0  0  0
   41.1918   13.2799   12.8541 O   0  0  0  0  0  0  0  0  0  0  0  0
   41.7154   14.2356   11.6313 O   0  0  0  0  0  0  0  0  0  0  0  0
   41.6794   14.1705   11.6057 O   0  0  0  0  0  0  0  0  0  0  0  0
   38.9369    9.7934    9.9317 H   0  0  0  0  0  0  0  0  0  0  0  0
   38.6935    9.7264   11.6715 H   0  0  0  0  0  0  0  0  0  0  0  0
   40.3369    9.7106   11.0101 H   0  0  0  0  0  0  0  0  0  0  0  0
   39.6846   12.1015    8.9104 H   0  0  0  0  0  0  0  0  0  0  0  0
   40.5776   14.4433   10.0522 H   0  0  0  0  0  0  0  0  0  0  0  0
   38.8561   14.1010    9.8465 H   0  0  0  0  0  0  0  0  0  0  0  0
   38.5341   13.9854   12.0738 H   0  0  0  0  0  0  0  0  0  0  0  0
   40.2294   14.3503   12.3938 H   0  0  0  0  0  0  0  0  0  0  0  0
   39.1296   11.9155   13.0403 H   0  0  0  0  0  0  0  0  0  0  0  0
   41.5364   12.4052   13.4173 H   0  0  0  0  0  0  0  0  0  0  0  0
   41.3250   10.8011   12.7376 H   0  0  0  0  0  0  0  0  0  0  0  0
   43.1033   11.6052   11.4776 H   0  0  0  0  0  0  0  0  0  0  0  0
   42.0994   12.5649    9.2071 H   0  0  0  0  0  0  0  0  0  0  0  0
   41.7242   10.9198    9.6987 H   0  0  0  0  0  0  0  0  0  0  0  0
   43.2872   15.9338   10.3808 H   0  0  0  0  0  0  0  0  0  0  0  0
   45.6997   15.5011    9.8500 H   0  0  0  0  0  0  0  0  0  0  0  0
   45.4191   17.0330   10.6756 H   0  0  0  0  0  0  0  0  0  0  0  0
   46.1910   16.1712   12.5583 H   0  0  0  0  0  0  0  0  0  0  0  0
   42.5822   17.8305   11.6422 H   0  0  0  0  0  0  0  0  0  0  0  0
   41.9060   18.7792   13.8139 H   0  0  0  0  0  0  0  0  0  0  0  0
   42.4314   17.5808   15.9228 H   0  0  0  0  0  0  0  0  0  0  0  0
   43.6506   15.4216   15.8523 H   0  0  0  0  0  0  0  0  0  0  0  0
   44.3500   14.4545   13.7005 H   0  0  0  0  0  0  0  0  0  0  0  0
   45.5959   18.4736   13.3084 H   0  0  0  0  0  0  0  0  0  0  0  0
   45.3927   17.8162   14.9224 H   0  0  0  0  0  0  0  0  0  0  0  0
   46.2366   16.8660   13.6907 H   0  0  0  0  0  0  0  0  0  0  0  0
   44.4886   17.3946   11.3993 H   0  0  0  0  0  0  0  0  0  0  0  0
   44.3083   14.6470   11.1657 H   0  0  0  0  0  0  0  0  0  0  0  0
   45.7894   15.4221   11.7232 H   0  0  0  0  0  0  0  0  0  0  0  0
   45.5726   14.5090   13.7744 H   0  0  0  0  0  0  0  0  0  0  0  0
   44.0742   13.7011   13.3091 H   0  0  0  0  0  0  0  0  0  0  0  0
   44.0858   15.7133   15.2011 H   0  0  0  0  0  0  0  0  0  0  0  0
   41.9999   14.5703   14.5072 H   0  0  0  0  0  0  0  0  0  0  0  0
   41.7889   16.3214   14.6145 H   0  0  0  0  0  0  0  0  0  0  0  0
   40.6907   15.8643   12.6380 H   0  0  0  0  0  0  0  0  0  0  0  0
   42.0847   17.5604   11.8313 H   0  0  0  0  0  0  0  0  0  0  0  0
   42.4096   16.2955   10.6469 H   0  0  0  0  0  0  0  0  0  0  0  0
   41.8861   11.9988   11.2963 H   0  0  0  0  0  0  0  0  0  0  0  0
   41.1688   13.1086    8.5171 H   0  0  0  0  0  0  0  0  0  0  0  0
   42.6998   13.3260    9.3545 H   0  0  0  0  0  0  0  0  0  0  0  0
   42.5277   10.8128    9.4383 H   0  0  0  0  0  0  0  0  0  0  0  0
   38.8990   12.6439    9.0064 H   0  0  0  0  0  0  0  0  0  0  0  0
   36.9397   11.1554    8.9952 H   0  0  0  0  0  0  0  0  0  0  0  0
   36.8070    9.2415   10.5643 H   0  0  0  0  0  0  0  0  0  0  0  0
   38.6462    8.8313   12.1739 H   0  0  0  0  0  0  0  0  0  0  0  0
   40.6198   10.2995   12.2075 H   0  0  0  0  0  0  0  0  0  0  0  0
   41.8781   12.3925   10.6145 H   0  0  0  0  0  0  0  0  0  0  0  0
   43.4681   15.1987   12.1901 H   0  0  0  0  0  0  0  0  0  0  0  0
   41.7912   13.3000   11.3899 H   0  0  0  0  0  0  0  0  0  0  0  0
   42.6150   14.4843   11.8922 H   0  0  0  0  0  0  0  0  0  0  0  0
   42.5023   14.5915   11.8976 H   0  0  0  0  0  0  0  0  0  0  0  0
   41.9399   13.2579   11.4101 H   0  0  0  0  0  0  0  0  0  0  0  0
  1  2  1  0
  3  2  1  0
  3  4  1  0
  4  5  1  0
  6  5  1  0
  6  2  1  0
  6  7  1  0
  7  8  1  0
  8  9  1  0
  3  9  1  0
  8 10  1  0
 10 11  1  0
 11 12  2  0
 11 13  1  0
 13 14  1  0
 14 15  1  0
 13 16  1  0
 16 17  2  0
 17 18  1  0
 18 19  2  0
 19 20  1  0
 20 21  2  0
 16 21  1  0
 22 23  1  0
 24 23  1  0
 24 25  1  0
 25 26  1  0
 27 26  1  0
 27 23  1  0
 27 28  1  0
 28 29  1  0
 29 30  1  0
 24 30  1  0
 29 31  1  0
 31 32  1  0
 32 33  2  0
 32 34  1  0
 34 35  1  0
 35 36  1  0
 34 37  1  0
 37 38  2  0
 38 39  1  0
 39 40  2  0
 40 41  1  0
 41 42  2  0
 37 42  1  0
 43 44  2  0
 43 45  1  0
 43 46  1  0
 43 47  2  0
  1 50  1  0
  1 51  1  0
  1 52  1  0
  3 53  1  6
  4 54  1  0
  4 55  1  0
  5 56  1  0
  5 57  1  0
  6 58  1  1
  7 59  1  0
  7 60  1  0
  8 61  1  1
  9 62  1  0
  9 63  1  0
 13 64  1  6
 14 65  1  0
 14 66  1  0
 15 67  1  0
 17 68  1  0
 18 69  1  0
 19 70  1  0
 20 71  1  0
 21 72  1  0
 22 73  1  0
 22 74  1  0
 22 75  1  0
 24 76  1  6
 25 77  1  0
 25 78  1  0
 26 79  1  0
 26 80  1  0
 27 81  1  1
 28 82  1  0
 28 83  1  0
 29 84  1  1
 30 85  1  0
 30 86  1  0
 34 87  1  1
 35 88  1  0
 35 89  1  0
 36 90  1  0
 38 91  1  0
 39 92  1  0
 40 93  1  0
 41 94  1  0
 42 95  1  0
 45 96  1  0
 46 97  1  0
 48 98  1  0
 48 99  1  0
 49100  1  0
 49101  1  0
M  END
> <Uni-Dock RESULT> 
ENERGY=   -4.225  LOWER_BOUND=   11.113  UPPER_BOUND=   12.652
INTER + INTRA:          -4.225
INTER:                  -4.225
INTRA:                   0.000
UNBOUND:                 0.000

$$$$

     RDKit          3D

101102  0  0  0  0  0  0  0  0999 V2000
   48.0549   13.3033   16.4588 C   0  0  0  0  0  0  0  0  0  0  0  0
   49.0649   12.6703   17.2842 N   0  0  0  0  0  0  0  0  0  0  0  0
   49.3908   11.2766   16.9634 C   0  0  1  0  0  0  0  0  0  0  0  0
   50.4558   11.0082   18.0335 C   0  0  0  0  0  0  0  0  0  0  0  0
   50.0634   11.9231   19.2030 C   0  0  0  0  0  0  0  0  0  0  0  0
   48.7937   12.6374   18.7239 C   0  0  2  0  0  0  0  0  0  0  0  0
   47.5159   11.8502   19.0644 C   0  0  0  0  0  0  0  0  0  0  0  0
   47.5006   10.4265   18.4830 C   0  0  1  0  0  0  0  0  0  0  0  0
   48.1745   10.3417   17.1026 C   0  0  0  0  0  0  0  0  0  0  0  0
   48.1802    9.5694   19.4264 O   0  0  0  0  0  0  0  0  0  0  0  0
   47.8604    8.2418   19.4149 C   0  0  0  0  0  0  0  0  0  0  0  0
   47.0638    7.7387   18.6336 O   0  0  0  0  0  0  0  0  0  0  0  0
   48.7235    7.4765   20.4136 C   0  0  2  0  0  0  0  0  0  0  0  0
   48.2189    6.0414   20.6219 C   0  0  0  0  0  0  0  0  0  0  0  0
   47.0352    5.9653   21.4143 O   0  0  0  0  0  0  0  0  0  0  0  0
   48.9612    8.1799   21.7452 C   0  0  0  0  0  0  0  0  0  0  0  0
   50.2384    8.1377   22.3324 C   0  0  0  0  0  0  0  0  0  0  0  0
   50.4734    8.7523   23.5638 C   0  0  0  0  0  0  0  0  0  0  0  0
   49.4401    9.4122   24.2250 C   0  0  0  0  0  0  0  0  0  0  0  0
   48.1684    9.4578   23.6563 C   0  0  0  0  0  0  0  0  0  0  0  0
   47.9272    8.8418   22.4270 C   0  0  0  0  0  0  0  0  0  0  0  0
   48.3441    6.7243   24.0077 C   0  0  0  0  0  0  0  0  0  0  0  0
   48.9240    7.7656   23.1620 N   0  0  0  0  0  0  0  0  0  0  0  0
   49.1810    7.3103   21.7846 C   0  0  1  0  0  0  0  0  0  0  0  0
   47.8172    7.3808   21.0913 C   0  0  0  0  0  0  0  0  0  0  0  0
   47.0407    8.4418   21.8705 C   0  0  0  0  0  0  0  0  0  0  0  0
   48.0131    8.9064   22.9582 C   0  0  2  0  0  0  0  0  0  0  0  0
   48.8936   10.0812   22.4933 C   0  0  0  0  0  0  0  0  0  0  0  0
   49.7307    9.7628   21.2425 C   0  0  1  0  0  0  0  0  0  0  0  0
   50.1997    8.2990   21.1867 C   0  0  0  0  0  0  0  0  0  0  0  0
   48.9226   10.0466   20.0749 O   0  0  0  0  0  0  0  0  0  0  0  0
   49.5725   10.5453   18.9813 C   0  0  0  0  0  0  0  0  0  0  0  0
   50.7758   10.7610   18.9217 O   0  0  0  0  0  0  0  0  0  0  0  0
   48.5873   10.7249   17.8369 C   0  0  2  0  0  0  0  0  0  0  0  0
   48.7064    9.4869   16.9342 C   0  0  0  0  0  0  0  0  0  0  0  0
   47.7133    9.4430   15.9091 O   0  0  0  0  0  0  0  0  0  0  0  0
   48.7683   12.0485   17.1053 C   0  0  0  0  0  0  0  0  0  0  0  0
   49.8913   12.3024   16.3032 C   0  0  0  0  0  0  0  0  0  0  0  0
   50.0337   13.5234   15.6394 C   0  0  0  0  0  0  0  0  0  0  0  0
   49.0565   14.5074   15.7679 C   0  0  0  0  0  0  0  0  0  0  0  0
   47.9412   14.2761   16.5682 C   0  0  0  0  0  0  0  0  0  0  0  0
   47.7987   13.0567   17.2350 C   0  0  0  0  0  0  0  0  0  0  0  0
   49.0239   10.1120   19.7998 S   0  0  0  0  0  0  0  0  0  0  0  0
   50.3356    9.7342   20.2587 O   0  0  0  0  0  0  0  0  0  0  0  0
   48.9502    9.9285   18.2069 O   0  0  0  0  0  0  0  0  0  0  0  0
   48.0255    8.9606   20.3010 O   0  0  0  0  0  0  0  0  0  0  0  0
   48.4133   11.3821   20.1071 O   0  0  0  0  0  0  0  0  0  0  0  0
   49.1287    9.9610   19.7177 O   0  0  0  0  0  0  0  0  0  0  0  0
   49.1148   10.0062   19.6548 O   0  0  0  0  0  0  0  0  0  0  0  0
   48.3771   13.3116   15.4107 H   0  0  0  0  0  0  0  0  0  0  0  0
   47.9337   14.3513   16.7573 H   0  0  0  0  0  0  0  0  0  0  0  0
   47.0730   12.8240   16.5022 H   0  0  0  0  0  0  0  0  0  0  0  0
   49.8229   11.1820   15.9615 H   0  0  0  0  0  0  0  0  0  0  0  0
   50.5098    9.9570   18.3307 H   0  0  0  0  0  0  0  0  0  0  0  0
   51.4481   11.2989   17.6661 H   0  0  0  0  0  0  0  0  0  0  0  0
   50.8665   12.6516   19.3719 H   0  0  0  0  0  0  0  0  0  0  0  0
   49.9244   11.3728   20.1378 H   0  0  0  0  0  0  0  0  0  0  0  0
   48.7369   13.6455   19.1474 H   0  0  0  0  0  0  0  0  0  0  0  0
   47.4043   11.8067   20.1560 H   0  0  0  0  0  0  0  0  0  0  0  0
   46.6429   12.3972   18.6891 H   0  0  0  0  0  0  0  0  0  0  0  0
   46.4552   10.0983   18.4127 H   0  0  0  0  0  0  0  0  0  0  0  0
   48.4924    9.3113   16.8913 H   0  0  0  0  0  0  0  0  0  0  0  0
   47.4353   10.5998   16.3333 H   0  0  0  0  0  0  0  0  0  0  0  0
   49.6922    7.3981   19.8976 H   0  0  0  0  0  0  0  0  0  0  0  0
   48.0041    5.5585   19.6616 H   0  0  0  0  0  0  0  0  0  0  0  0
   48.9863    5.4368   21.1202 H   0  0  0  0  0  0  0  0  0  0  0  0
   47.2903    6.1654   22.3351 H   0  0  0  0  0  0  0  0  0  0  0  0
   51.0628    7.6265   21.8353 H   0  0  0  0  0  0  0  0  0  0  0  0
   51.4665    8.7136   24.0099 H   0  0  0  0  0  0  0  0  0  0  0  0
   49.6238    9.8917   25.1830 H   0  0  0  0  0  0  0  0  0  0  0  0
   47.3600    9.9715   24.1719 H   0  0  0  0  0  0  0  0  0  0  0  0
   46.9221    8.8853   22.0078 H   0  0  0  0  0  0  0  0  0  0  0  0
   49.0346    5.8777   24.0937 H   0  0  0  0  0  0  0  0  0  0  0  0
   48.1952    7.1061   25.0236 H   0  0  0  0  0  0  0  0  0  0  0  0
   47.3829    6.3421   23.6494 H   0  0  0  0  0  0  0  0  0  0  0  0
   49.6074    6.3011   21.7426 H   0  0  0  0  0  0  0  0  0  0  0  0
   47.8898    7.6202   20.0261 H   0  0  0  0  0  0  0  0  0  0  0  0
   47.2950    6.4199   21.1710 H   0  0  0  0  0  0  0  0  0  0  0  0
   46.1477    7.9870   22.3182 H   0  0  0  0  0  0  0  0  0  0  0  0
   46.7015    9.2595   21.2279 H   0  0  0  0  0  0  0  0  0  0  0  0
   47.4891    9.2012   23.8747 H   0  0  0  0  0  0  0  0  0  0  0  0
   48.2620   10.9593   22.3092 H   0  0  0  0  0  0  0  0  0  0  0  0
   49.5801   10.3408   23.3103 H   0  0  0  0  0  0  0  0  0  0  0  0
   50.6005   10.4321   21.2434 H   0  0  0  0  0  0  0  0  0  0  0  0
   51.1359    8.2133   21.7541 H   0  0  0  0  0  0  0  0  0  0  0  0
   50.4249    8.0056   20.1543 H   0  0  0  0  0  0  0  0  0  0  0  0
   47.5716   10.7302   18.2587 H   0  0  0  0  0  0  0  0  0  0  0  0
   49.6900    9.4177   16.4532 H   0  0  0  0  0  0  0  0  0  0  0  0
   48.5866    8.5766   17.5337 H   0  0  0  0  0  0  0  0  0  0  0  0
   46.9255    9.9298   16.2063 H   0  0  0  0  0  0  0  0  0  0  0  0
   50.6759   11.5551   16.1933 H   0  0  0  0  0  0  0  0  0  0  0  0
   50.9098   13.7067   15.0229 H   0  0  0  0  0  0  0  0  0  0  0  0
   49.1665   15.4544   15.2463 H   0  0  0  0  0  0  0  0  0  0  0  0
   47.1825   15.0476   16.6746 H   0  0  0  0  0  0  0  0  0  0  0  0
   46.9182   12.9054   17.8550 H   0  0  0  0  0  0  0  0  0  0  0  0
   48.0673   10.2262   17.9120 H   0  0  0  0  0  0  0  0  0  0  0  0
   48.4888    8.4709   21.0146 H   0  0  0  0  0  0  0  0  0  0  0  0
   48.5068   10.2313   19.0252 H   0  0  0  0  0  0  0  0  0  0  0  0
   48.6380    9.2997   20.2287 H   0  0  0  0  0  0  0  0  0  0  0  0
   48.7834    9.3354   20.2710 H   0  0  0  0  0  0  0  0  0  0  0  0
   48.3751   10.1504   19.0456 H   0  0  0  0  0  0  0  0  0  0  0  0
  1  2  1  0
  3  2  1  0
  3  4  1  0
  4  5  1  0
  6  5  1  0
  6  2  1  0
  6  7  1  0
  7  8  1  0
  8  9  1  0
  3  9  1  0
  8 10  1  0
 10 11  1  0
 11 12  2  0
 11 13  1  0
 13 14  1  0
 14 15  1  0
 13 16  1  0
 16 17  2  0
 17 18  1  0
 18 19  2  0
 19 20  1  0
 20 21  2  0
 16 21  1  0
 22 23  1  0
 24 23  1  0
 24 25  1  0
 25 26  1  0
 27 26  1  0
 27 23  1  0
 27 28  1  0
 28 29  1  0
 29 30  1  0
 24 30  1  0
 29 31  1  0
 31 32  1  0
 32 33  2  0
 32 34  1  0
 34 35  1  0
 35 36  1  0
 34 37  1  0
 37 38  2  0
 38 39  1  0
 39 40  2  0
 40 41  1  0
 41 42  2  0
 37 42  1  0
 43 44  2  0
 43 45  1  0
 43 46  1  0
 43 47  2  0
  1 50  1  0
  1 51  1  0
  1 52  1  0
  3 53  1  6
  4 54  1  0
  4 55  1  0
  5 56  1  0
  5 57  1  0
  6 58  1  1
  7 59  1  0
  7 60  1  0
  8 61  1  1
  9 62  1  0
  9 63  1  0
 13 64  1  6
 14 65  1  0
 14 66  1  0
 15 67  1  0
 17 68  1  0
 18 69  1  0
 19 70  1  0
 20 71  1  0
 21 72  1  0
 22 73  1  0
 22 74  1  0
 22 75  1  0
 24 76  1  6
 25 77  1  0
 25 78  1  0
 26 79  1  0
 26 80  1  0
 27 81  1  1
 28 82  1  0
 28 83  1  0
 29 84  1  1
 30 85  1  0
 30 86  1  0
 34 87  1  1
 35 88  1  0
 35 89  1  0
 36 90  1  0
 38 91  1  0
 39 92  1  0
 40 93  1  0
 41 94  1  0
 42 95  1  0
 45 96  1  0
 46 97  1  0
 48 98  1  0
 48 99  1  0
 49100  1  0
 49101  1  0
M  END
> <Uni-Dock RESULT> 
ENERGY=   -4.059  LOWER_BOUND=    2.488  UPPER_BOUND=    5.637
INTER + INTRA:          -4.059
INTER:                  -4.059
INTRA:                   0.000
UNBOUND:                 0.000

$$$$
