
     RDKit          3D

101102  0  0  0  0  0  0  0  0999 V2000
   45.4437   14.1921    6.9353 C   0  0  0  0  0  0  0  0  0  0  0  0
   44.5808   13.6535    7.9849 N   0  0  0  0  0  0  0  0  0  0  0  0
   43.2566   13.2499    7.4769 C   0  0  1  0  0  0  0  0  0  0  0  0
   43.4874   11.8826    6.8228 C   0  0  0  0  0  0  0  0  0  0  0  0
   44.7136   11.3201    7.5295 C   0  0  0  0  0  0  0  0  0  0  0  0
   45.0904   12.3938    8.5556 C   0  0  2  0  0  0  0  0  0  0  0  0
   44.3677   12.1494    9.8927 C   0  0  0  0  0  0  0  0  0  0  0  0
   43.0295   12.8969   10.0182 C   0  0  1  0  0  0  0  0  0  0  0  0
   42.3056   13.1302    8.6801 C   0  0  0  0  0  0  0  0  0  0  0  0
   42.1908   12.1409   10.9189 O   0  0  0  0  0  0  0  0  0  0  0  0
   41.1745   12.8216   11.5294 C   0  0  0  0  0  0  0  0  0  0  0  0
   40.9370   14.0110   11.3657 O   0  0  0  0  0  0  0  0  0  0  0  0
   40.3598   11.8582   12.3793 C   0  0  2  0  0  0  0  0  0  0  0  0
   39.3226   11.1825   11.4749 C   0  0  0  0  0  0  0  0  0  0  0  0
   38.7497   10.0395   12.1112 O   0  0  0  0  0  0  0  0  0  0  0  0
   39.7173   12.4991   13.6061 C   0  0  0  0  0  0  0  0  0  0  0  0
   40.0283   12.0139   14.8875 C   0  0  0  0  0  0  0  0  0  0  0  0
   39.4313   12.5643   16.0233 C   0  0  0  0  0  0  0  0  0  0  0  0
   38.5150   13.6047   15.8959 C   0  0  0  0  0  0  0  0  0  0  0  0
   38.1978   14.0977   14.6328 C   0  0  0  0  0  0  0  0  0  0  0  0
   38.7938   13.5498   13.4953 C   0  0  0  0  0  0  0  0  0  0  0  0
   45.6042   12.2633    6.8421 C   0  0  0  0  0  0  0  0  0  0  0  0
   44.4830   12.8326    7.5876 N   0  0  0  0  0  0  0  0  0  0  0  0
   43.2582   12.0209    7.4880 C   0  0  1  0  0  0  0  0  0  0  0  0
   43.4710   10.8747    8.4804 C   0  0  0  0  0  0  0  0  0  0  0  0
   44.4419   11.4417    9.5174 C   0  0  0  0  0  0  0  0  0  0  0  0
   44.7276   12.8682    9.0391 C   0  0  2  0  0  0  0  0  0  0  0  0
   43.7358   13.8939    9.6182 C   0  0  0  0  0  0  0  0  0  0  0  0
   42.2653   13.5758    9.2886 C   0  0  1  0  0  0  0  0  0  0  0  0
   42.0942   12.9473    7.8930 C   0  0  0  0  0  0  0  0  0  0  0  0
   41.7218   12.6433   10.2553 O   0  0  0  0  0  0  0  0  0  0  0  0
   41.3481   13.1623   11.4633 C   0  0  0  0  0  0  0  0  0  0  0  0
   41.4640   14.3443   11.7604 O   0  0  0  0  0  0  0  0  0  0  0  0
   40.8676   12.0651   12.4108 C   0  0  2  0  0  0  0  0  0  0  0  0
   40.3662   10.7962   11.6958 C   0  0  0  0  0  0  0  0  0  0  0  0
   39.3765   11.0482   10.6998 O   0  0  0  0  0  0  0  0  0  0  0  0
   39.8739   12.5877   13.4420 C   0  0  0  0  0  0  0  0  0  0  0  0
   40.2693   12.7383   14.7815 C   0  0  0  0  0  0  0  0  0  0  0  0
   39.3774   13.2304   15.7362 C   0  0  0  0  0  0  0  0  0  0  0  0
   38.0819   13.5830   15.3660 C   0  0  0  0  0  0  0  0  0  0  0  0
   37.6782   13.4455   14.0409 C   0  0  0  0  0  0  0  0  0  0  0  0
   38.5675   12.9532   13.0844 C   0  0  0  0  0  0  0  0  0  0  0  0
   42.1780   12.8074   10.8441 S   0  0  0  0  0  0  0  0  0  0  0  0
   41.8578   14.2086   10.9590 O   0  0  0  0  0  0  0  0  0  0  0  0
   41.0310   11.9971   11.6216 O   0  0  0  0  0  0  0  0  0  0  0  0
   41.9026   12.3714    9.3258 O   0  0  0  0  0  0  0  0  0  0  0  0
   43.4646   12.2588   11.1927 O   0  0  0  0  0  0  0  0  0  0  0  0
   42.2278   12.6329   10.8441 O   0  0  0  0  0  0  0  0  0  0  0  0
   42.1941   12.6370   10.8829 O   0  0  0  0  0  0  0  0  0  0  0  0
   45.0228   15.1275    6.5496 H   0  0  0  0  0  0  0  0  0  0  0  0
   45.5900   13.5147    6.0881 H   0  0  0  0  0  0  0  0  0  0  0  0
   46.4290   14.4383    7.3465 H   0  0  0  0  0  0  0  0  0  0  0  0
   42.8321   13.9602    6.7572 H   0  0  0  0  0  0  0  0  0  0  0  0
   43.7034   11.9984    5.7533 H   0  0  0  0  0  0  0  0  0  0  0  0
   42.6264   11.2109    6.9100 H   0  0  0  0  0  0  0  0  0  0  0  0
   44.5075   10.3430    7.9793 H   0  0  0  0  0  0  0  0  0  0  0  0
   45.5231   11.1795    6.8020 H   0  0  0  0  0  0  0  0  0  0  0  0
   46.1722   12.4051    8.7324 H   0  0  0  0  0  0  0  0  0  0  0  0
   45.0111   12.4996   10.7122 H   0  0  0  0  0  0  0  0  0  0  0  0
   44.2319   11.0762   10.0765 H   0  0  0  0  0  0  0  0  0  0  0  0
   43.2481   13.8726   10.4769 H   0  0  0  0  0  0  0  0  0  0  0  0
   41.7428   14.0699    8.7717 H   0  0  0  0  0  0  0  0  0  0  0  0
   41.5471   12.3562    8.5088 H   0  0  0  0  0  0  0  0  0  0  0  0
   41.0547   11.0895   12.7465 H   0  0  0  0  0  0  0  0  0  0  0  0
   38.5121   11.8592   11.1820 H   0  0  0  0  0  0  0  0  0  0  0  0
   39.7904   10.8270   10.5501 H   0  0  0  0  0  0  0  0  0  0  0  0
   38.2490   10.3635   12.8837 H   0  0  0  0  0  0  0  0  0  0  0  0
   40.7380   11.1979   15.0138 H   0  0  0  0  0  0  0  0  0  0  0  0
   39.6831   12.1802   17.0083 H   0  0  0  0  0  0  0  0  0  0  0  0
   38.0525   14.0348   16.7802 H   0  0  0  0  0  0  0  0  0  0  0  0
   37.4910   14.9178   14.5325 H   0  0  0  0  0  0  0  0  0  0  0  0
   38.5355   13.9658   12.5235 H   0  0  0  0  0  0  0  0  0  0  0  0
   46.4917   12.8940    6.9605 H   0  0  0  0  0  0  0  0  0  0  0  0
   45.8703   11.2454    7.1457 H   0  0  0  0  0  0  0  0  0  0  0  0
   45.3737   12.2463    5.7714 H   0  0  0  0  0  0  0  0  0  0  0  0
   43.0768   11.6514    6.4725 H   0  0  0  0  0  0  0  0  0  0  0  0
   42.5380   10.5224    8.9313 H   0  0  0  0  0  0  0  0  0  0  0  0
   43.9361   10.0152    7.9830 H   0  0  0  0  0  0  0  0  0  0  0  0
   45.3629   10.8460    9.5181 H   0  0  0  0  0  0  0  0  0  0  0  0
   44.0331   11.4043   10.5325 H   0  0  0  0  0  0  0  0  0  0  0  0
   45.7467   13.1835    9.2895 H   0  0  0  0  0  0  0  0  0  0  0  0
   43.8867   13.9647   10.7023 H   0  0  0  0  0  0  0  0  0  0  0  0
   43.9779   14.8800    9.1998 H   0  0  0  0  0  0  0  0  0  0  0  0
   41.6622   14.4923    9.3263 H   0  0  0  0  0  0  0  0  0  0  0  0
   41.1519   12.3881    7.8445 H   0  0  0  0  0  0  0  0  0  0  0  0
   42.0289   13.7574    7.1544 H   0  0  0  0  0  0  0  0  0  0  0  0
   41.7708   11.7558   12.9556 H   0  0  0  0  0  0  0  0  0  0  0  0
   41.1978   10.2757   11.2055 H   0  0  0  0  0  0  0  0  0  0  0  0
   39.9342   10.0939   12.4173 H   0  0  0  0  0  0  0  0  0  0  0  0
   39.8301   11.4686    9.9470 H   0  0  0  0  0  0  0  0  0  0  0  0
   41.2779   12.4784   15.0946 H   0  0  0  0  0  0  0  0  0  0  0  0
   39.6975   13.3457   16.7678 H   0  0  0  0  0  0  0  0  0  0  0  0
   37.3908   13.9728   16.1079 H   0  0  0  0  0  0  0  0  0  0  0  0
   36.6693   13.7247   13.7482 H   0  0  0  0  0  0  0  0  0  0  0  0
   38.2260   12.8635   12.0555 H   0  0  0  0  0  0  0  0  0  0  0  0
   40.1692   12.3939   11.3754 H   0  0  0  0  0  0  0  0  0  0  0  0
   42.7583   12.0579    8.9611 H   0  0  0  0  0  0  0  0  0  0  0  0
   41.2945   12.6297   11.1049 H   0  0  0  0  0  0  0  0  0  0  0  0
   42.2041   12.4924    9.8853 H   0  0  0  0  0  0  0  0  0  0  0  0
   42.2969   12.5028    9.9288 H   0  0  0  0  0  0  0  0  0  0  0  0
   41.2354   12.6151   11.0225 H   0  0  0  0  0  0  0  0  0  0  0  0
  1  2  1  0
  3  2  1  0
  3  4  1  0
  4  5  1  0
  6  5  1  0
  6  2  1  0
  6  7  1  0
  7  8  1  0
  8  9  1  0
  3  9  1  0
  8 10  1  0
 10 11  1  0
 11 12  2  0
 11 13  1  0
 13 14  1  0
 14 15  1  0
 13 16  1  0
 16 17  2  0
 17 18  1  0
 18 19  2  0
 19 20  1  0
 20 21  2  0
 16 21  1  0
 22 23  1  0
 24 23  1  0
 24 25  1  0
 25 26  1  0
 27 26  1  0
 27 23  1  0
 27 28  1  0
 28 29  1  0
 29 30  1  0
 24 30  1  0
 29 31  1  0
 31 32  1  0
 32 33  2  0
 32 34  1  0
 34 35  1  0
 35 36  1  0
 34 37  1  0
 37 38  2  0
 38 39  1  0
 39 40  2  0
 40 41  1  0
 41 42  2  0
 37 42  1  0
 43 44  2  0
 43 45  1  0
 43 46  1  0
 43 47  2  0
  1 50  1  0
  1 51  1  0
  1 52  1  0
  3 53  1  1
  4 54  1  0
  4 55  1  0
  5 56  1  0
  5 57  1  0
  6 58  1  1
  7 59  1  0
  7 60  1  0
  8 61  1  1
  9 62  1  0
  9 63  1  0
 13 64  1  6
 14 65  1  0
 14 66  1  0
 15 67  1  0
 17 68  1  0
 18 69  1  0
 19 70  1  0
 20 71  1  0
 21 72  1  0
 22 73  1  0
 22 74  1  0
 22 75  1  0
 24 76  1  6
 25 77  1  0
 25 78  1  0
 26 79  1  0
 26 80  1  0
 27 81  1  1
 28 82  1  0
 28 83  1  0
 29 84  1  1
 30 85  1  0
 30 86  1  0
 34 87  1  6
 35 88  1  0
 35 89  1  0
 36 90  1  0
 38 91  1  0
 39 92  1  0
 40 93  1  0
 41 94  1  0
 42 95  1  0
 45 96  1  0
 46 97  1  0
 48 98  1  0
 48 99  1  0
 49100  1  0
 49101  1  0
M  END
> <Uni-Dock RESULT> 
ENERGY=   -6.249  LOWER_BOUND=    0.000  UPPER_BOUND=    0.000
INTER + INTRA:          -6.249
INTER:                  -6.249
INTRA:                   0.000
UNBOUND:                 0.000

$$$$

     RDKit          3D

101102  0  0  0  0  0  0  0  0999 V2000
   49.2141   11.3005   12.4092 C   0  0  0  0  0  0  0  0  0  0  0  0
   49.2289   10.1897   13.3591 N   0  0  0  0  0  0  0  0  0  0  0  0
   47.9822    9.4027   13.3288 C   0  0  1  0  0  0  0  0  0  0  0  0
   48.1231    8.4916   12.1038 C   0  0  0  0  0  0  0  0  0  0  0  0
   49.6258    8.3498   11.9005 C   0  0  0  0  0  0  0  0  0  0  0  0
   50.2450    9.1722   13.0354 C   0  0  2  0  0  0  0  0  0  0  0  0
   50.4625    8.3011   14.2858 C   0  0  0  0  0  0  0  0  0  0  0  0
   49.2873    8.3374   15.2771 C   0  0  1  0  0  0  0  0  0  0  0  0
   47.9141    8.5758   14.6241 C   0  0  0  0  0  0  0  0  0  0  0  0
   49.2896    7.0880   16.0018 O   0  0  0  0  0  0  0  0  0  0  0  0
   48.6556    7.0788   17.2129 C   0  0  0  0  0  0  0  0  0  0  0  0
   48.0986    8.0466   17.7139 O   0  0  0  0  0  0  0  0  0  0  0  0
   48.6973    5.6738   17.7948 C   0  0  2  0  0  0  0  0  0  0  0  0
   47.5244    4.8789   17.2094 C   0  0  0  0  0  0  0  0  0  0  0  0
   47.6833    3.4787   17.4411 O   0  0  0  0  0  0  0  0  0  0  0  0
   48.7123    5.6308   19.3201 C   0  0  0  0  0  0  0  0  0  0  0  0
   49.7824    5.0115   19.9878 C   0  0  0  0  0  0  0  0  0  0  0  0
   49.8044    4.9336   21.3817 C   0  0  0  0  0  0  0  0  0  0  0  0
   48.7590    5.4707   22.1278 C   0  0  0  0  0  0  0  0  0  0  0  0
   47.6923    6.0892   21.4806 C   0  0  0  0  0  0  0  0  0  0  0  0
   47.6678    6.1693   20.0869 C   0  0  0  0  0  0  0  0  0  0  0  0
   49.7393    9.7277   11.4066 C   0  0  0  0  0  0  0  0  0  0  0  0
   49.1218    9.5419   12.7185 N   0  0  0  0  0  0  0  0  0  0  0  0
   48.2753    8.3389   12.7876 C   0  0  1  0  0  0  0  0  0  0  0  0
   49.2605    7.1816   12.9722 C   0  0  0  0  0  0  0  0  0  0  0  0
   50.4789    7.8195   13.6416 C   0  0  0  0  0  0  0  0  0  0  0  0
   50.1117    9.2996   13.7813 C   0  0  2  0  0  0  0  0  0  0  0  0
   49.3996    9.6073   15.1116 C   0  0  0  0  0  0  0  0  0  0  0  0
   48.1146    8.7847   15.3217 C   0  0  1  0  0  0  0  0  0  0  0  0
   47.3523    8.5319   14.0075 C   0  0  0  0  0  0  0  0  0  0  0  0
   48.4307    7.4928   15.8966 O   0  0  0  0  0  0  0  0  0  0  0  0
   48.6788    7.4652   17.2405 C   0  0  0  0  0  0  0  0  0  0  0  0
   48.6611    8.4587   17.9555 O   0  0  0  0  0  0  0  0  0  0  0  0
   49.0730    6.0631   17.7005 C   0  0  2  0  0  0  0  0  0  0  0  0
   48.5715    4.9373   16.7766 C   0  0  0  0  0  0  0  0  0  0  0  0
   47.1703    4.9882   16.5134 O   0  0  0  0  0  0  0  0  0  0  0  0
   48.7264    5.8175   19.1645 C   0  0  0  0  0  0  0  0  0  0  0  0
   49.7482    5.7689   20.1272 C   0  0  0  0  0  0  0  0  0  0  0  0
   49.4478    5.5607   21.4746 C   0  0  0  0  0  0  0  0  0  0  0  0
   48.1244    5.4035   21.8793 C   0  0  0  0  0  0  0  0  0  0  0  0
   47.1009    5.4562   20.9373 C   0  0  0  0  0  0  0  0  0  0  0  0
   47.3983    5.6635   19.5894 C   0  0  0  0  0  0  0  0  0  0  0  0
   49.0831    7.6777   16.2458 S   0  0  0  0  0  0  0  0  0  0  0  0
   48.5647    8.7202   17.0964 O   0  0  0  0  0  0  0  0  0  0  0  0
   48.7834    6.2807   16.9773 O   0  0  0  0  0  0  0  0  0  0  0  0
   48.1249    7.5782   14.9641 O   0  0  0  0  0  0  0  0  0  0  0  0
   50.4330    7.6674   15.7401 O   0  0  0  0  0  0  0  0  0  0  0  0
   49.1635    7.5484   16.1470 O   0  0  0  0  0  0  0  0  0  0  0  0
   49.1571    7.5274   16.1937 O   0  0  0  0  0  0  0  0  0  0  0  0
   48.4467   12.0277   12.6975 H   0  0  0  0  0  0  0  0  0  0  0  0
   49.0203   10.9992   11.3750 H   0  0  0  0  0  0  0  0  0  0  0  0
   50.1727   11.8306   12.4339 H   0  0  0  0  0  0  0  0  0  0  0  0
   47.0796   10.0211   13.2535 H   0  0  0  0  0  0  0  0  0  0  0  0
   47.6779    8.9635   11.2190 H   0  0  0  0  0  0  0  0  0  0  0  0
   47.6384    7.5174   12.2316 H   0  0  0  0  0  0  0  0  0  0  0  0
   49.9366    7.2996   11.9058 H   0  0  0  0  0  0  0  0  0  0  0  0
   49.9042    8.7670   10.9244 H   0  0  0  0  0  0  0  0  0  0  0  0
   51.2058    9.6021   12.7294 H   0  0  0  0  0  0  0  0  0  0  0  0
   51.3490    8.6672   14.8227 H   0  0  0  0  0  0  0  0  0  0  0  0
   50.7049    7.2675   14.0083 H   0  0  0  0  0  0  0  0  0  0  0  0
   49.4890    9.1548   15.9850 H   0  0  0  0  0  0  0  0  0  0  0  0
   47.2960    9.1211   15.3511 H   0  0  0  0  0  0  0  0  0  0  0  0
   47.3923    7.6249   14.4589 H   0  0  0  0  0  0  0  0  0  0  0  0
   49.6351    5.2135   17.4522 H   0  0  0  0  0  0  0  0  0  0  0  0
   46.5566    5.1905   17.6179 H   0  0  0  0  0  0  0  0  0  0  0  0
   47.4701    5.0146   16.1236 H   0  0  0  0  0  0  0  0  0  0  0  0
   47.6344    3.3414   18.4062 H   0  0  0  0  0  0  0  0  0  0  0  0
   50.6097    4.5796   19.4273 H   0  0  0  0  0  0  0  0  0  0  0  0
   50.6397    4.4535   21.8847 H   0  0  0  0  0  0  0  0  0  0  0  0
   48.7777    5.4123   23.2128 H   0  0  0  0  0  0  0  0  0  0  0  0
   46.8806    6.5191   22.0624 H   0  0  0  0  0  0  0  0  0  0  0  0
   46.8273    6.6707   19.6114 H   0  0  0  0  0  0  0  0  0  0  0  0
   50.3684   10.6242   11.4121 H   0  0  0  0  0  0  0  0  0  0  0  0
   50.3567    8.8839   11.0811 H   0  0  0  0  0  0  0  0  0  0  0  0
   48.9669    9.8928   10.6476 H   0  0  0  0  0  0  0  0  0  0  0  0
   47.6546    8.2061   11.8944 H   0  0  0  0  0  0  0  0  0  0  0  0
   48.8450    6.3576   13.5606 H   0  0  0  0  0  0  0  0  0  0  0  0
   49.5575    6.7693   12.0005 H   0  0  0  0  0  0  0  0  0  0  0  0
   51.3548    7.7017   12.9919 H   0  0  0  0  0  0  0  0  0  0  0  0
   50.7216    7.3463   14.5988 H   0  0  0  0  0  0  0  0  0  0  0  0
   50.9923    9.9460   13.6955 H   0  0  0  0  0  0  0  0  0  0  0  0
   50.1032    9.4508   15.9383 H   0  0  0  0  0  0  0  0  0  0  0  0
   49.1329   10.6726   15.1201 H   0  0  0  0  0  0  0  0  0  0  0  0
   47.4398    9.3066   16.0125 H   0  0  0  0  0  0  0  0  0  0  0  0
   46.7014    7.6553   14.1121 H   0  0  0  0  0  0  0  0  0  0  0  0
   46.7035    9.3961   13.8121 H   0  0  0  0  0  0  0  0  0  0  0  0
   50.1689    6.0432   17.6169 H   0  0  0  0  0  0  0  0  0  0  0  0
   49.0869    4.9739   15.8091 H   0  0  0  0  0  0  0  0  0  0  0  0
   48.7878    3.9564   17.2139 H   0  0  0  0  0  0  0  0  0  0  0  0
   47.0195    5.7431   15.9164 H   0  0  0  0  0  0  0  0  0  0  0  0
   50.7888    5.8973   19.8383 H   0  0  0  0  0  0  0  0  0  0  0  0
   50.2474    5.5292   22.2092 H   0  0  0  0  0  0  0  0  0  0  0  0
   47.8909    5.2489   22.9288 H   0  0  0  0  0  0  0  0  0  0  0  0
   46.0668    5.3389   21.2510 H   0  0  0  0  0  0  0  0  0  0  0  0
   46.5771    5.7071   18.8774 H   0  0  0  0  0  0  0  0  0  0  0  0
   47.8653    6.3162   17.3191 H   0  0  0  0  0  0  0  0  0  0  0  0
   48.6809    7.7712   14.1785 H   0  0  0  0  0  0  0  0  0  0  0  0
   48.5616    7.0754   16.7412 H   0  0  0  0  0  0  0  0  0  0  0  0
   48.6472    7.6668   15.3353 H   0  0  0  0  0  0  0  0  0  0  0  0
   48.7431    7.7045   15.3357 H   0  0  0  0  0  0  0  0  0  0  0  0
   48.4721    7.0588   16.6941 H   0  0  0  0  0  0  0  0  0  0  0  0
  1  2  1  0
  3  2  1  0
  3  4  1  0
  4  5  1  0
  6  5  1  0
  6  2  1  0
  6  7  1  0
  7  8  1  0
  8  9  1  0
  3  9  1  0
  8 10  1  0
 10 11  1  0
 11 12  2  0
 11 13  1  0
 13 14  1  0
 14 15  1  0
 13 16  1  0
 16 17  2  0
 17 18  1  0
 18 19  2  0
 19 20  1  0
 20 21  2  0
 16 21  1  0
 22 23  1  0
 24 23  1  0
 24 25  1  0
 25 26  1  0
 27 26  1  0
 27 23  1  0
 27 28  1  0
 28 29  1  0
 29 30  1  0
 24 30  1  0
 29 31  1  0
 31 32  1  0
 32 33  2  0
 32 34  1  0
 34 35  1  0
 35 36  1  0
 34 37  1  0
 37 38  2  0
 38 39  1  0
 39 40  2  0
 40 41  1  0
 41 42  2  0
 37 42  1  0
 43 44  2  0
 43 45  1  0
 43 46  1  0
 43 47  2  0
  1 50  1  0
  1 51  1  0
  1 52  1  0
  3 53  1  1
  4 54  1  0
  4 55  1  0
  5 56  1  0
  5 57  1  0
  6 58  1  1
  7 59  1  0
  7 60  1  0
  8 61  1  1
  9 62  1  0
  9 63  1  0
 13 64  1  6
 14 65  1  0
 14 66  1  0
 15 67  1  0
 17 68  1  0
 18 69  1  0
 19 70  1  0
 20 71  1  0
 21 72  1  0
 22 73  1  0
 22 74  1  0
 22 75  1  0
 24 76  1  6
 25 77  1  0
 25 78  1  0
 26 79  1  0
 26 80  1  0
 27 81  1  1
 28 82  1  0
 28 83  1  0
 29 84  1  1
 30 85  1  0
 30 86  1  0
 34 87  1  6
 35 88  1  0
 35 89  1  0
 36 90  1  0
 38 91  1  0
 39 92  1  0
 40 93  1  0
 41 94  1  0
 42 95  1  0
 45 96  1  0
 46 97  1  0
 48 98  1  0
 48 99  1  0
 49100  1  0
 49101  1  0
M  END
> <Uni-Dock RESULT> 
ENERGY=   -6.217  LOWER_BOUND=    9.538  UPPER_BOUND=   10.772
INTER + INTRA:          -6.217
INTER:                  -6.217
INTRA:                   0.000
UNBOUND:                 0.000

$$$$

     RDKit          3D

101102  0  0  0  0  0  0  0  0999 V2000
   47.2658   13.2447   21.1453 C   0  0  0  0  0  0  0  0  0  0  0  0
   47.7911   12.0804   20.4346 N   0  0  0  0  0  0  0  0  0  0  0  0
   47.4951   12.1182   18.9905 C   0  0  1  0  0  0  0  0  0  0  0  0
   48.5371   13.0762   18.4015 C   0  0  0  0  0  0  0  0  0  0  0  0
   49.7060   13.0200   19.3762 C   0  0  0  0  0  0  0  0  0  0  0  0
   49.2636   12.0175   20.4472 C   0  0  2  0  0  0  0  0  0  0  0  0
   49.6828   10.5869   20.0631 C   0  0  0  0  0  0  0  0  0  0  0  0
   48.6023    9.8121   19.2903 C   0  0  1  0  0  0  0  0  0  0  0  0
   47.6787   10.6961   18.4335 C   0  0  0  0  0  0  0  0  0  0  0  0
   49.2732    8.8359   18.4636 O   0  0  0  0  0  0  0  0  0  0  0  0
   48.5332    7.7596   18.0602 C   0  0  0  0  0  0  0  0  0  0  0  0
   47.3596    7.5732   18.3530 O   0  0  0  0  0  0  0  0  0  0  0  0
   49.3751    6.8809   17.1473 C   0  0  2  0  0  0  0  0  0  0  0  0
   49.2798    7.4411   15.7235 C   0  0  0  0  0  0  0  0  0  0  0  0
   50.2892    6.8838   14.8810 O   0  0  0  0  0  0  0  0  0  0  0  0
   49.0161    5.3989   17.2037 C   0  0  0  0  0  0  0  0  0  0  0  0
   49.9922    4.4606   17.5794 C   0  0  0  0  0  0  0  0  0  0  0  0
   49.6964    3.0965   17.6102 C   0  0  0  0  0  0  0  0  0  0  0  0
   48.4236    2.6500   17.2651 C   0  0  0  0  0  0  0  0  0  0  0  0
   47.4449    3.5677   16.8923 C   0  0  0  0  0  0  0  0  0  0  0  0
   47.7376    4.9325   16.8613 C   0  0  0  0  0  0  0  0  0  0  0  0
   48.9649   13.7851   20.3866 C   0  0  0  0  0  0  0  0  0  0  0  0
   48.3312   12.5700   19.8778 N   0  0  0  0  0  0  0  0  0  0  0  0
   48.5664   12.3608   18.4392 C   0  0  1  0  0  0  0  0  0  0  0  0
   49.9812   11.7814   18.3579 C   0  0  0  0  0  0  0  0  0  0  0  0
   50.1934   11.0987   19.7101 C   0  0  0  0  0  0  0  0  0  0  0  0
   48.8906   11.3463   20.4760 C   0  0  2  0  0  0  0  0  0  0  0  0
   47.8489   10.2368   20.2414 C   0  0  0  0  0  0  0  0  0  0  0  0
   47.4886   10.0406   18.7569 C   0  0  1  0  0  0  0  0  0  0  0  0
   47.4894   11.3633   17.9679 C   0  0  0  0  0  0  0  0  0  0  0  0
   48.4404    9.1533   18.1196 O   0  0  0  0  0  0  0  0  0  0  0  0
   48.2762    7.8153   18.3455 C   0  0  0  0  0  0  0  0  0  0  0  0
   47.3943    7.3491   19.0553 O   0  0  0  0  0  0  0  0  0  0  0  0
   49.3868    7.0030   17.6827 C   0  0  2  0  0  0  0  0  0  0  0  0
   50.0623    7.7175   16.4970 C   0  0  0  0  0  0  0  0  0  0  0  0
   49.1466    8.1883   15.5096 O   0  0  0  0  0  0  0  0  0  0  0  0
   48.9379    5.5882   17.3353 C   0  0  0  0  0  0  0  0  0  0  0  0
   49.4121    4.4993   18.0855 C   0  0  0  0  0  0  0  0  0  0  0  0
   48.9993    3.1984   17.7915 C   0  0  0  0  0  0  0  0  0  0  0  0
   48.1048    2.9678   16.7491 C   0  0  0  0  0  0  0  0  0  0  0  0
   47.6213    4.0379   16.0016 C   0  0  0  0  0  0  0  0  0  0  0  0
   48.0327    5.3395   16.2927 C   0  0  0  0  0  0  0  0  0  0  0  0
   48.6642    8.7619   18.7348 S   0  0  0  0  0  0  0  0  0  0  0  0
   47.3739    8.2494   19.1242 O   0  0  0  0  0  0  0  0  0  0  0  0
   49.2300    7.7909   17.5887 O   0  0  0  0  0  0  0  0  0  0  0  0
   48.4183   10.1161   17.9122 O   0  0  0  0  0  0  0  0  0  0  0  0
   49.7182    9.0488   19.6754 O   0  0  0  0  0  0  0  0  0  0  0  0
   48.8333    8.8166   18.6984 O   0  0  0  0  0  0  0  0  0  0  0  0
   48.8313    8.7679   18.6815 O   0  0  0  0  0  0  0  0  0  0  0  0
   46.1706   13.2409   21.1095 H   0  0  0  0  0  0  0  0  0  0  0  0
   47.6120   14.2033   20.7463 H   0  0  0  0  0  0  0  0  0  0  0  0
   47.5446   13.1977   22.2039 H   0  0  0  0  0  0  0  0  0  0  0  0
   46.4781   12.4605   18.7641 H   0  0  0  0  0  0  0  0  0  0  0  0
   48.1424   14.0992   18.3633 H   0  0  0  0  0  0  0  0  0  0  0  0
   48.8448   12.8081   17.3848 H   0  0  0  0  0  0  0  0  0  0  0  0
   50.6371   12.7362   18.8741 H   0  0  0  0  0  0  0  0  0  0  0  0
   49.8631   14.0126   19.8171 H   0  0  0  0  0  0  0  0  0  0  0  0
   49.6992   12.2667   21.4217 H   0  0  0  0  0  0  0  0  0  0  0  0
   49.8915   10.0205   20.9816 H   0  0  0  0  0  0  0  0  0  0  0  0
   50.6301   10.5896   19.5092 H   0  0  0  0  0  0  0  0  0  0  0  0
   47.9921    9.2814   20.0360 H   0  0  0  0  0  0  0  0  0  0  0  0
   46.6949   10.2071   18.4011 H   0  0  0  0  0  0  0  0  0  0  0  0
   48.0219   10.7211   17.3917 H   0  0  0  0  0  0  0  0  0  0  0  0
   50.4165    6.9713   17.4878 H   0  0  0  0  0  0  0  0  0  0  0  0
   48.3029    7.2586   15.2618 H   0  0  0  0  0  0  0  0  0  0  0  0
   49.4336    8.5259   15.7246 H   0  0  0  0  0  0  0  0  0  0  0  0
   50.0982    5.9303   14.7984 H   0  0  0  0  0  0  0  0  0  0  0  0
   50.9963    4.7836   17.8492 H   0  0  0  0  0  0  0  0  0  0  0  0
   50.4609    2.3823   17.9048 H   0  0  0  0  0  0  0  0  0  0  0  0
   48.1928    1.5884   17.2919 H   0  0  0  0  0  0  0  0  0  0  0  0
   46.4473    3.2215   16.6336 H   0  0  0  0  0  0  0  0  0  0  0  0
   46.9477    5.6257   16.5790 H   0  0  0  0  0  0  0  0  0  0  0  0
   48.7736   13.8862   21.4601 H   0  0  0  0  0  0  0  0  0  0  0  0
   50.0484   13.8210   20.2318 H   0  0  0  0  0  0  0  0  0  0  0  0
   48.5265   14.6668   19.9067 H   0  0  0  0  0  0  0  0  0  0  0  0
   48.4706   13.2836   17.8561 H   0  0  0  0  0  0  0  0  0  0  0  0
   50.1122   11.0925   17.5176 H   0  0  0  0  0  0  0  0  0  0  0  0
   50.7200   12.5830   18.2388 H   0  0  0  0  0  0  0  0  0  0  0  0
   51.0378   11.5701   20.2277 H   0  0  0  0  0  0  0  0  0  0  0  0
   50.4328   10.0354   19.6049 H   0  0  0  0  0  0  0  0  0  0  0  0
   49.0656   11.4431   21.5534 H   0  0  0  0  0  0  0  0  0  0  0  0
   48.2170    9.3018   20.6810 H   0  0  0  0  0  0  0  0  0  0  0  0
   46.9336   10.5041   20.7864 H   0  0  0  0  0  0  0  0  0  0  0  0
   46.4919    9.5896   18.6657 H   0  0  0  0  0  0  0  0  0  0  0  0
   47.6235   11.1637   16.8978 H   0  0  0  0  0  0  0  0  0  0  0  0
   46.5068   11.8387   18.0884 H   0  0  0  0  0  0  0  0  0  0  0  0
   50.1649    6.9182   18.4544 H   0  0  0  0  0  0  0  0  0  0  0  0
   50.6393    8.5825   16.8460 H   0  0  0  0  0  0  0  0  0  0  0  0
   50.7688    7.0466   15.9961 H   0  0  0  0  0  0  0  0  0  0  0  0
   48.6816    8.9534   15.8935 H   0  0  0  0  0  0  0  0  0  0  0  0
   50.1045    4.6534   18.9099 H   0  0  0  0  0  0  0  0  0  0  0  0
   49.3708    2.3658   18.3822 H   0  0  0  0  0  0  0  0  0  0  0  0
   47.7784    1.9561   16.5258 H   0  0  0  0  0  0  0  0  0  0  0  0
   46.9192    3.8613   15.1908 H   0  0  0  0  0  0  0  0  0  0  0  0
   47.6325    6.1561   15.6960 H   0  0  0  0  0  0  0  0  0  0  0  0
   48.4941    7.6042   16.9686 H   0  0  0  0  0  0  0  0  0  0  0  0
   48.8678   10.8345   18.4076 H   0  0  0  0  0  0  0  0  0  0  0  0
   48.5952    8.2274   17.9669 H   0  0  0  0  0  0  0  0  0  0  0  0
   48.6143    9.7012   18.3682 H   0  0  0  0  0  0  0  0  0  0  0  0
   48.6533    9.6952   18.4634 H   0  0  0  0  0  0  0  0  0  0  0  0
   48.5583    8.2822   17.8886 H   0  0  0  0  0  0  0  0  0  0  0  0
  1  2  1  0
  3  2  1  0
  3  4  1  0
  4  5  1  0
  6  5  1  0
  6  2  1  0
  6  7  1  0
  7  8  1  0
  8  9  1  0
  3  9  1  0
  8 10  1  0
 10 11  1  0
 11 12  2  0
 11 13  1  0
 13 14  1  0
 14 15  1  0
 13 16  1  0
 16 17  2  0
 17 18  1  0
 18 19  2  0
 19 20  1  0
 20 21  2  0
 16 21  1  0
 22 23  1  0
 24 23  1  0
 24 25  1  0
 25 26  1  0
 27 26  1  0
 27 23  1  0
 27 28  1  0
 28 29  1  0
 29 30  1  0
 24 30  1  0
 29 31  1  0
 31 32  1  0
 32 33  2  0
 32 34  1  0
 34 35  1  0
 35 36  1  0
 34 37  1  0
 37 38  2  0
 38 39  1  0
 39 40  2  0
 40 41  1  0
 41 42  2  0
 37 42  1  0
 43 44  2  0
 43 45  1  0
 43 46  1  0
 43 47  2  0
  1 50  1  0
  1 51  1  0
  1 52  1  0
  3 53  1  1
  4 54  1  0
  4 55  1  0
  5 56  1  0
  5 57  1  0
  6 58  1  1
  7 59  1  0
  7 60  1  0
  8 61  1  1
  9 62  1  0
  9 63  1  0
 13 64  1  6
 14 65  1  0
 14 66  1  0
 15 67  1  0
 17 68  1  0
 18 69  1  0
 19 70  1  0
 20 71  1  0
 21 72  1  0
 22 73  1  0
 22 74  1  0
 22 75  1  0
 24 76  1  6
 25 77  1  0
 25 78  1  0
 26 79  1  0
 26 80  1  0
 27 81  1  1
 28 82  1  0
 28 83  1  0
 29 84  1  1
 30 85  1  0
 30 86  1  0
 34 87  1  6
 35 88  1  0
 35 89  1  0
 36 90  1  0
 38 91  1  0
 39 92  1  0
 40 93  1  0
 41 94  1  0
 42 95  1  0
 45 96  1  0
 46 97  1  0
 48 98  1  0
 48 99  1  0
 49100  1  0
 49101  1  0
M  END
> <Uni-Dock RESULT> 
ENERGY=   -5.998  LOWER_BOUND=   10.320  UPPER_BOUND=   12.220
INTER + INTRA:          -5.998
INTER:                  -5.998
INTRA:                   0.000
UNBOUND:                 0.000

$$$$

     RDKit          3D

101102  0  0  0  0  0  0  0  0999 V2000
   45.6089   17.2430   10.9808 C   0  0  0  0  0  0  0  0  0  0  0  0
   46.2589   16.6008   12.1215 N   0  0  0  0  0  0  0  0  0  0  0  0
   46.4870   15.1600   11.9052 C   0  0  1  0  0  0  0  0  0  0  0  0
   47.7379   15.0892   11.0216 C   0  0  0  0  0  0  0  0  0  0  0  0
   48.4874   16.3830   11.3112 C   0  0  0  0  0  0  0  0  0  0  0  0
   47.6261   17.0985   12.3571 C   0  0  2  0  0  0  0  0  0  0  0  0
   48.0436   16.6895   13.7813 C   0  0  0  0  0  0  0  0  0  0  0  0
   47.2438   15.5023   14.3433 C   0  0  1  0  0  0  0  0  0  0  0  0
   46.7449   14.5117   13.2762 C   0  0  0  0  0  0  0  0  0  0  0  0
   48.0845   14.8261   15.3037 O   0  0  0  0  0  0  0  0  0  0  0  0
   47.4519   14.0572   16.2404 C   0  0  0  0  0  0  0  0  0  0  0  0
   46.2391   13.9110   16.3167 O   0  0  0  0  0  0  0  0  0  0  0  0
   48.4897   13.3710   17.1159 C   0  0  2  0  0  0  0  0  0  0  0  0
   48.9376   12.0866   16.4088 C   0  0  0  0  0  0  0  0  0  0  0  0
   50.1318   11.5654   16.9933 O   0  0  0  0  0  0  0  0  0  0  0  0
   48.0228   13.1043   18.5439 C   0  0  0  0  0  0  0  0  0  0  0  0
   48.7338   13.6567   19.6227 C   0  0  0  0  0  0  0  0  0  0  0  0
   48.3437   13.4032   20.9391 C   0  0  0  0  0  0  0  0  0  0  0  0
   47.2404   12.5943   21.1970 C   0  0  0  0  0  0  0  0  0  0  0  0
   46.5244   12.0410   20.1385 C   0  0  0  0  0  0  0  0  0  0  0  0
   46.9117   12.2933   18.8210 C   0  0  0  0  0  0  0  0  0  0  0  0
   47.5013   17.1786   10.5695 C   0  0  0  0  0  0  0  0  0  0  0  0
   46.9942   16.3287   11.6453 N   0  0  0  0  0  0  0  0  0  0  0  0
   47.6982   15.0383   11.7357 C   0  0  1  0  0  0  0  0  0  0  0  0
   49.0051   15.3600   12.4654 C   0  0  0  0  0  0  0  0  0  0  0  0
   48.6820   16.6005   13.2999 C   0  0  0  0  0  0  0  0  0  0  0  0
   47.2169   16.9103   12.9796 C   0  0  2  0  0  0  0  0  0  0  0  0
   46.2411   16.1929   13.9306 C   0  0  0  0  0  0  0  0  0  0  0  0
   46.4055   14.6616   13.9340 C   0  0  1  0  0  0  0  0  0  0  0  0
   46.7801   14.1035   12.5484 C   0  0  0  0  0  0  0  0  0  0  0  0
   47.4496   14.2681   14.8583 O   0  0  0  0  0  0  0  0  0  0  0  0
   47.1167   14.2443   16.1838 C   0  0  0  0  0  0  0  0  0  0  0  0
   46.0107   14.5474   16.6124 O   0  0  0  0  0  0  0  0  0  0  0  0
   48.3238   13.8904   17.0501 C   0  0  2  0  0  0  0  0  0  0  0  0
   49.4210   13.1076   16.3045 C   0  0  0  0  0  0  0  0  0  0  0  0
   48.9439   11.9426   15.6336 O   0  0  0  0  0  0  0  0  0  0  0  0
   47.9183   13.2261   18.3608 C   0  0  0  0  0  0  0  0  0  0  0  0
   48.0187   13.9389   19.5671 C   0  0  0  0  0  0  0  0  0  0  0  0
   47.6369   13.3518   20.7750 C   0  0  0  0  0  0  0  0  0  0  0  0
   47.1457   12.0487   20.7941 C   0  0  0  0  0  0  0  0  0  0  0  0
   47.0343   11.3328   19.6055 C   0  0  0  0  0  0  0  0  0  0  0  0
   47.4158   11.9168   18.3966 C   0  0  0  0  0  0  0  0  0  0  0  0
   47.4154   14.8644   15.3328 S   0  0  0  0  0  0  0  0  0  0  0  0
   46.0356   14.7255   15.7272 O   0  0  0  0  0  0  0  0  0  0  0  0
   48.2693   13.8558   16.2438 O   0  0  0  0  0  0  0  0  0  0  0  0
   47.5736   14.1964   13.8837 O   0  0  0  0  0  0  0  0  0  0  0  0
   48.0954   16.1338   15.2664 O   0  0  0  0  0  0  0  0  0  0  0  0
   47.5903   14.8946   15.2948 O   0  0  0  0  0  0  0  0  0  0  0  0
   47.5906   14.8717   15.3410 O   0  0  0  0  0  0  0  0  0  0  0  0
   44.5974   16.8414   10.8529 H   0  0  0  0  0  0  0  0  0  0  0  0
   46.1434   17.1157   10.0342 H   0  0  0  0  0  0  0  0  0  0  0  0
   45.4980   18.3173   11.1656 H   0  0  0  0  0  0  0  0  0  0  0  0
   45.6410   14.6533   11.4255 H   0  0  0  0  0  0  0  0  0  0  0  0
   47.4593   15.0582    9.9608 H   0  0  0  0  0  0  0  0  0  0  0  0
   48.3586   14.2087   11.2208 H   0  0  0  0  0  0  0  0  0  0  0  0
   49.5107   16.1895   11.6502 H   0  0  0  0  0  0  0  0  0  0  0  0
   48.5559   16.9798   10.3928 H   0  0  0  0  0  0  0  0  0  0  0  0
   47.7134   18.1868   12.2591 H   0  0  0  0  0  0  0  0  0  0  0  0
   47.8767   17.5401   14.4572 H   0  0  0  0  0  0  0  0  0  0  0  0
   49.1216   16.4916   13.8340 H   0  0  0  0  0  0  0  0  0  0  0  0
   46.3743   15.9215   14.8709 H   0  0  0  0  0  0  0  0  0  0  0  0
   45.7998   14.0856   13.6412 H   0  0  0  0  0  0  0  0  0  0  0  0
   47.4296   13.6591   13.1875 H   0  0  0  0  0  0  0  0  0  0  0  0
   49.3516   14.0503   17.1823 H   0  0  0  0  0  0  0  0  0  0  0  0
   48.1713   11.3036   16.4288 H   0  0  0  0  0  0  0  0  0  0  0  0
   49.1628   12.2847   15.3551 H   0  0  0  0  0  0  0  0  0  0  0  0
   49.9101   11.2965   17.9049 H   0  0  0  0  0  0  0  0  0  0  0  0
   49.6029   14.2887   19.4478 H   0  0  0  0  0  0  0  0  0  0  0  0
   48.9020   13.8390   21.7635 H   0  0  0  0  0  0  0  0  0  0  0  0
   46.9353   12.3994   22.2216 H   0  0  0  0  0  0  0  0  0  0  0  0
   45.6558   11.4183   20.3381 H   0  0  0  0  0  0  0  0  0  0  0  0
   46.3238   11.8577   18.0156 H   0  0  0  0  0  0  0  0  0  0  0  0
   46.9571   18.1289   10.5545 H   0  0  0  0  0  0  0  0  0  0  0  0
   48.5705   17.4030   10.6453 H   0  0  0  0  0  0  0  0  0  0  0  0
   47.3248   16.7022    9.5991 H   0  0  0  0  0  0  0  0  0  0  0  0
   47.8808   14.5862   10.7544 H   0  0  0  0  0  0  0  0  0  0  0  0
   49.3676   14.5282   13.0775 H   0  0  0  0  0  0  0  0  0  0  0  0
   49.7974   15.6045   11.7478 H   0  0  0  0  0  0  0  0  0  0  0  0
   49.3269   17.4298   12.9846 H   0  0  0  0  0  0  0  0  0  0  0  0
   48.8621   16.4403   14.3681 H   0  0  0  0  0  0  0  0  0  0  0  0
   47.0133   17.9865   13.0121 H   0  0  0  0  0  0  0  0  0  0  0  0
   46.3619   16.6011   14.9415 H   0  0  0  0  0  0  0  0  0  0  0  0
   45.2164   16.4296   13.6140 H   0  0  0  0  0  0  0  0  0  0  0  0
   45.4716   14.1814   14.2541 H   0  0  0  0  0  0  0  0  0  0  0  0
   47.2623   13.1241   12.6543 H   0  0  0  0  0  0  0  0  0  0  0  0
   45.8557   13.9496   11.9758 H   0  0  0  0  0  0  0  0  0  0  0  0
   48.7765   14.8598   17.3019 H   0  0  0  0  0  0  0  0  0  0  0  0
   49.9043   13.7427   15.5521 H   0  0  0  0  0  0  0  0  0  0  0  0
   50.2049   12.7879   17.0000 H   0  0  0  0  0  0  0  0  0  0  0  0
   48.4336   12.2469   14.8616 H   0  0  0  0  0  0  0  0  0  0  0  0
   48.3909   14.9607   19.5782 H   0  0  0  0  0  0  0  0  0  0  0  0
   47.7160   13.9157   21.7001 H   0  0  0  0  0  0  0  0  0  0  0  0
   46.8419   11.5953   21.7333 H   0  0  0  0  0  0  0  0  0  0  0  0
   46.6465   10.3174   19.6169 H   0  0  0  0  0  0  0  0  0  0  0  0
   47.3106   11.3355   17.4832 H   0  0  0  0  0  0  0  0  0  0  0  0
   47.7829   13.0055   16.2803 H   0  0  0  0  0  0  0  0  0  0  0  0
   47.8758   14.9055   13.2759 H   0  0  0  0  0  0  0  0  0  0  0  0
   47.5775   14.0537   15.7761 H   0  0  0  0  0  0  0  0  0  0  0  0
   47.5671   14.6318   14.3621 H   0  0  0  0  0  0  0  0  0  0  0  0
   47.5700   14.7328   14.3822 H   0  0  0  0  0  0  0  0  0  0  0  0
   47.5743   13.9756   15.7098 H   0  0  0  0  0  0  0  0  0  0  0  0
  1  2  1  0
  3  2  1  0
  3  4  1  0
  4  5  1  0
  6  5  1  0
  6  2  1  0
  6  7  1  0
  7  8  1  0
  8  9  1  0
  3  9  1  0
  8 10  1  0
 10 11  1  0
 11 12  2  0
 11 13  1  0
 13 14  1  0
 14 15  1  0
 13 16  1  0
 16 17  2  0
 17 18  1  0
 18 19  2  0
 19 20  1  0
 20 21  2  0
 16 21  1  0
 22 23  1  0
 24 23  1  0
 24 25  1  0
 25 26  1  0
 27 26  1  0
 27 23  1  0
 27 28  1  0
 28 29  1  0
 29 30  1  0
 24 30  1  0
 29 31  1  0
 31 32  1  0
 32 33  2  0
 32 34  1  0
 34 35  1  0
 35 36  1  0
 34 37  1  0
 37 38  2  0
 38 39  1  0
 39 40  2  0
 40 41  1  0
 41 42  2  0
 37 42  1  0
 43 44  2  0
 43 45  1  0
 43 46  1  0
 43 47  2  0
  1 50  1  0
  1 51  1  0
  1 52  1  0
  3 53  1  1
  4 54  1  0
  4 55  1  0
  5 56  1  0
  5 57  1  0
  6 58  1  1
  7 59  1  0
  7 60  1  0
  8 61  1  1
  9 62  1  0
  9 63  1  0
 13 64  1  6
 14 65  1  0
 14 66  1  0
 15 67  1  0
 17 68  1  0
 18 69  1  0
 19 70  1  0
 20 71  1  0
 21 72  1  0
 22 73  1  0
 22 74  1  0
 22 75  1  0
 24 76  1  6
 25 77  1  0
 25 78  1  0
 26 79  1  0
 26 80  1  0
 27 81  1  1
 28 82  1  0
 28 83  1  0
 29 84  1  1
 30 85  1  0
 30 86  1  0
 34 87  1  6
 35 88  1  0
 35 89  1  0
 36 90  1  0
 38 91  1  0
 39 92  1  0
 40 93  1  0
 41 94  1  0
 42 95  1  0
 45 96  1  0
 46 97  1  0
 48 98  1  0
 48 99  1  0
 49100  1  0
 49101  1  0
M  END
> <Uni-Dock RESULT> 
ENERGY=   -5.956  LOWER_BOUND=    7.028  UPPER_BOUND=    8.299
INTER + INTRA:          -5.956
INTER:                  -5.956
INTRA:                   0.000
UNBOUND:                 0.000

$$$$

     RDKit          3D

101102  0  0  0  0  0  0  0  0999 V2000
   39.0887   11.2993    9.5868 C   0  0  0  0  0  0  0  0  0  0  0  0
   40.4209   11.1947   10.1791 N   0  0  0  0  0  0  0  0  0  0  0  0
   41.4927   11.5325    9.2242 C   0  0  1  0  0  0  0  0  0  0  0  0
   41.5170   13.0651    9.1879 C   0  0  0  0  0  0  0  0  0  0  0  0
   40.9426   13.4910   10.5326 C   0  0  0  0  0  0  0  0  0  0  0  0
   40.6473   12.1737   11.2574 C   0  0  2  0  0  0  0  0  0  0  0  0
   41.8695   11.7120   12.0715 C   0  0  0  0  0  0  0  0  0  0  0  0
   42.7991   10.7571   11.3041 C   0  0  1  0  0  0  0  0  0  0  0  0
   42.8139   10.9747    9.7805 C   0  0  0  0  0  0  0  0  0  0  0  0
   44.1284   10.9125   11.8474 O   0  0  0  0  0  0  0  0  0  0  0  0
   44.9958    9.8733   11.6565 C   0  0  0  0  0  0  0  0  0  0  0  0
   44.7205    8.8366   11.0670 O   0  0  0  0  0  0  0  0  0  0  0  0
   46.3570   10.2392   12.2288 C   0  0  2  0  0  0  0  0  0  0  0  0
   47.1242   11.0345   11.1662 C   0  0  0  0  0  0  0  0  0  0  0  0
   48.2585   11.6917   11.7326 O   0  0  0  0  0  0  0  0  0  0  0  0
   47.1595    9.0464   12.7401 C   0  0  0  0  0  0  0  0  0  0  0  0
   47.5625    9.0047   14.0856 C   0  0  0  0  0  0  0  0  0  0  0  0
   48.3224    7.9383   14.5701 C   0  0  0  0  0  0  0  0  0  0  0  0
   48.6918    6.9004   13.7190 C   0  0  0  0  0  0  0  0  0  0  0  0
   48.2987    6.9265   12.3833 C   0  0  0  0  0  0  0  0  0  0  0  0
   47.5380    7.9912   11.8961 C   0  0  0  0  0  0  0  0  0  0  0  0
   39.5871   13.0892   10.1370 C   0  0  0  0  0  0  0  0  0  0  0  0
   40.6353   12.0752   10.0372 N   0  0  0  0  0  0  0  0  0  0  0  0
   41.9234   12.6261    9.5832 C   0  0  1  0  0  0  0  0  0  0  0  0
   42.5277   13.2771   10.8302 C   0  0  0  0  0  0  0  0  0  0  0  0
   41.9064   12.5125   12.0002 C   0  0  0  0  0  0  0  0  0  0  0  0
   40.9799   11.4862   11.3420 C   0  0  2  0  0  0  0  0  0  0  0  0
   41.6941   10.1560   11.0392 C   0  0  0  0  0  0  0  0  0  0  0  0
   42.9302   10.3179   10.1348 C   0  0  1  0  0  0  0  0  0  0  0  0
   42.7512   11.4264    9.0807 C   0  0  0  0  0  0  0  0  0  0  0  0
   44.0949   10.6556   10.9278 O   0  0  0  0  0  0  0  0  0  0  0  0
   44.7034    9.6267   11.5907 C   0  0  0  0  0  0  0  0  0  0  0  0
   44.3088    8.4684   11.5564 O   0  0  0  0  0  0  0  0  0  0  0  0
   45.8643   10.1307   12.4458 C   0  0  2  0  0  0  0  0  0  0  0  0
   46.4550   11.4718   11.9711 C   0  0  0  0  0  0  0  0  0  0  0  0
   46.8231   11.4845   10.5930 O   0  0  0  0  0  0  0  0  0  0  0  0
   46.9313    9.0627   12.6570 C   0  0  0  0  0  0  0  0  0  0  0  0
   47.0635    8.4437   13.9111 C   0  0  0  0  0  0  0  0  0  0  0  0
   48.0246    7.4525   14.1181 C   0  0  0  0  0  0  0  0  0  0  0  0
   48.8623    7.0627   13.0759 C   0  0  0  0  0  0  0  0  0  0  0  0
   48.7381    7.6626   11.8259 C   0  0  0  0  0  0  0  0  0  0  0  0
   47.7786    8.6543   11.6161 C   0  0  0  0  0  0  0  0  0  0  0  0
   43.8782   10.3458   11.5903 S   0  0  0  0  0  0  0  0  0  0  0  0
   43.7081    8.9902   11.1292 O   0  0  0  0  0  0  0  0  0  0  0  0
   45.4411   10.5465   11.8960 O   0  0  0  0  0  0  0  0  0  0  0  0
   43.6732   11.3147   10.3292 O   0  0  0  0  0  0  0  0  0  0  0  0
   43.1079   10.9180   12.6660 O   0  0  0  0  0  0  0  0  0  0  0  0
   43.8964   10.5105   11.6643 O   0  0  0  0  0  0  0  0  0  0  0  0
   43.9388   10.4848   11.6785 O   0  0  0  0  0  0  0  0  0  0  0  0
   38.9717   10.5492    8.7967 H   0  0  0  0  0  0  0  0  0  0  0  0
   38.8698   12.2805    9.1540 H   0  0  0  0  0  0  0  0  0  0  0  0
   38.3231   11.0826   10.3400 H   0  0  0  0  0  0  0  0  0  0  0  0
   41.3269   11.1209    8.2213 H   0  0  0  0  0  0  0  0  0  0  0  0
   40.8759   13.4419    8.3811 H   0  0  0  0  0  0  0  0  0  0  0  0
   42.5190   13.4777    9.0269 H   0  0  0  0  0  0  0  0  0  0  0  0
   41.6338   14.1416   11.0789 H   0  0  0  0  0  0  0  0  0  0  0  0
   40.0179   14.0597   10.3721 H   0  0  0  0  0  0  0  0  0  0  0  0
   39.7899   12.2807   11.9319 H   0  0  0  0  0  0  0  0  0  0  0  0
   41.5182   11.1734   12.9630 H   0  0  0  0  0  0  0  0  0  0  0  0
   42.4305   12.5709   12.4609 H   0  0  0  0  0  0  0  0  0  0  0  0
   42.4518    9.7342   11.5120 H   0  0  0  0  0  0  0  0  0  0  0  0
   43.0023    9.9984    9.3121 H   0  0  0  0  0  0  0  0  0  0  0  0
   43.6634   11.6036    9.4863 H   0  0  0  0  0  0  0  0  0  0  0  0
   46.1751   10.8963   13.0912 H   0  0  0  0  0  0  0  0  0  0  0  0
   47.4657   10.4086   10.3341 H   0  0  0  0  0  0  0  0  0  0  0  0
   46.4889   11.8167   10.7362 H   0  0  0  0  0  0  0  0  0  0  0  0
   48.8736   10.9948   12.0301 H   0  0  0  0  0  0  0  0  0  0  0  0
   47.2907    9.8061   14.7705 H   0  0  0  0  0  0  0  0  0  0  0  0
   48.6252    7.9184   15.6138 H   0  0  0  0  0  0  0  0  0  0  0  0
   49.2810    6.0692   14.0970 H   0  0  0  0  0  0  0  0  0  0  0  0
   48.5767    6.1111   11.7201 H   0  0  0  0  0  0  0  0  0  0  0  0
   47.2348    7.9760   10.8511 H   0  0  0  0  0  0  0  0  0  0  0  0
   38.6569   12.6328   10.4919 H   0  0  0  0  0  0  0  0  0  0  0  0
   39.8329   13.9198   10.8070 H   0  0  0  0  0  0  0  0  0  0  0  0
   39.3725   13.5066    9.1473 H   0  0  0  0  0  0  0  0  0  0  0  0
   41.8112   13.3443    8.7633 H   0  0  0  0  0  0  0  0  0  0  0  0
   43.6215   13.2414   10.8424 H   0  0  0  0  0  0  0  0  0  0  0  0
   42.2365   14.3324   10.8939 H   0  0  0  0  0  0  0  0  0  0  0  0
   41.3288   13.2063   12.6232 H   0  0  0  0  0  0  0  0  0  0  0  0
   42.6635   12.0543   12.6451 H   0  0  0  0  0  0  0  0  0  0  0  0
   40.0986   11.2802   11.9598 H   0  0  0  0  0  0  0  0  0  0  0  0
   41.9630    9.6710   11.9854 H   0  0  0  0  0  0  0  0  0  0  0  0
   40.9812    9.4906   10.5338 H   0  0  0  0  0  0  0  0  0  0  0  0
   43.1401    9.3775    9.6088 H   0  0  0  0  0  0  0  0  0  0  0  0
   43.7304   11.7803    8.7361 H   0  0  0  0  0  0  0  0  0  0  0  0
   42.2371   10.9967    8.2106 H   0  0  0  0  0  0  0  0  0  0  0  0
   45.4141   10.3405   13.4263 H   0  0  0  0  0  0  0  0  0  0  0  0
   45.7361   12.2857   12.1246 H   0  0  0  0  0  0  0  0  0  0  0  0
   47.3489   11.7248   12.5519 H   0  0  0  0  0  0  0  0  0  0  0  0
   45.9967   11.5000   10.0772 H   0  0  0  0  0  0  0  0  0  0  0  0
   46.4160    8.7238   14.7388 H   0  0  0  0  0  0  0  0  0  0  0  0
   48.1135    6.9792   15.0918 H   0  0  0  0  0  0  0  0  0  0  0  0
   49.6049    6.2862   13.2357 H   0  0  0  0  0  0  0  0  0  0  0  0
   49.3871    7.3568   11.0093 H   0  0  0  0  0  0  0  0  0  0  0  0
   47.7002    9.0999   10.6269 H   0  0  0  0  0  0  0  0  0  0  0  0
   45.9419   10.1422   11.1566 H   0  0  0  0  0  0  0  0  0  0  0  0
   42.9107   11.8961   10.5391 H   0  0  0  0  0  0  0  0  0  0  0  0
   44.7949   10.2413   11.4207 H   0  0  0  0  0  0  0  0  0  0  0  0
   43.5920   11.0282   10.9035 H   0  0  0  0  0  0  0  0  0  0  0  0
   43.5262   11.0173   10.9820 H   0  0  0  0  0  0  0  0  0  0  0  0
   44.8183   10.2780   11.3279 H   0  0  0  0  0  0  0  0  0  0  0  0
  1  2  1  0
  3  2  1  0
  3  4  1  0
  4  5  1  0
  6  5  1  0
  6  2  1  0
  6  7  1  0
  7  8  1  0
  8  9  1  0
  3  9  1  0
  8 10  1  0
 10 11  1  0
 11 12  2  0
 11 13  1  0
 13 14  1  0
 14 15  1  0
 13 16  1  0
 16 17  2  0
 17 18  1  0
 18 19  2  0
 19 20  1  0
 20 21  2  0
 16 21  1  0
 22 23  1  0
 24 23  1  0
 24 25  1  0
 25 26  1  0
 27 26  1  0
 27 23  1  0
 27 28  1  0
 28 29  1  0
 29 30  1  0
 24 30  1  0
 29 31  1  0
 31 32  1  0
 32 33  2  0
 32 34  1  0
 34 35  1  0
 35 36  1  0
 34 37  1  0
 37 38  2  0
 38 39  1  0
 39 40  2  0
 40 41  1  0
 41 42  2  0
 37 42  1  0
 43 44  2  0
 43 45  1  0
 43 46  1  0
 43 47  2  0
  1 50  1  0
  1 51  1  0
  1 52  1  0
  3 53  1  1
  4 54  1  0
  4 55  1  0
  5 56  1  0
  5 57  1  0
  6 58  1  1
  7 59  1  0
  7 60  1  0
  8 61  1  1
  9 62  1  0
  9 63  1  0
 13 64  1  6
 14 65  1  0
 14 66  1  0
 15 67  1  0
 17 68  1  0
 18 69  1  0
 19 70  1  0
 20 71  1  0
 21 72  1  0
 22 73  1  0
 22 74  1  0
 22 75  1  0
 24 76  1  6
 25 77  1  0
 25 78  1  0
 26 79  1  0
 26 80  1  0
 27 81  1  1
 28 82  1  0
 28 83  1  0
 29 84  1  1
 30 85  1  0
 30 86  1  0
 34 87  1  6
 35 88  1  0
 35 89  1  0
 36 90  1  0
 38 91  1  0
 39 92  1  0
 40 93  1  0
 41 94  1  0
 42 95  1  0
 45 96  1  0
 46 97  1  0
 48 98  1  0
 48 99  1  0
 49100  1  0
 49101  1  0
M  END
> <Uni-Dock RESULT> 
ENERGY=   -5.885  LOWER_BOUND=    3.810  UPPER_BOUND=    6.729
INTER + INTRA:          -5.885
INTER:                  -5.885
INTRA:                   0.000
UNBOUND:                 0.000

$$$$

     RDKit          3D

101102  0  0  0  0  0  0  0  0999 V2000
   48.1289    3.3546   15.7622 C   0  0  0  0  0  0  0  0  0  0  0  0
   48.3546    4.4730   16.6757 N   0  0  0  0  0  0  0  0  0  0  0  0
   47.4439    4.4490   17.8352 C   0  0  1  0  0  0  0  0  0  0  0  0
   48.0507    3.4136   18.7893 C   0  0  0  0  0  0  0  0  0  0  0  0
   49.5326    3.3891   18.4385 C   0  0  0  0  0  0  0  0  0  0  0  0
   49.6788    4.4274   17.3214 C   0  0  2  0  0  0  0  0  0  0  0  0
   49.9725    5.8211   17.9056 C   0  0  0  0  0  0  0  0  0  0  0  0
   48.7124    6.6690   18.1463 C   0  0  1  0  0  0  0  0  0  0  0  0
   47.4495    5.8506   18.4692 C   0  0  0  0  0  0  0  0  0  0  0  0
   49.0045    7.5885   19.2213 O   0  0  0  0  0  0  0  0  0  0  0  0
   48.2322    8.7141   19.2942 C   0  0  0  0  0  0  0  0  0  0  0  0
   47.3268    8.9881   18.5176 O   0  0  0  0  0  0  0  0  0  0  0  0
   48.6324    9.5233   20.5186 C   0  0  2  0  0  0  0  0  0  0  0  0
   47.8767    8.9636   21.7294 C   0  0  0  0  0  0  0  0  0  0  0  0
   48.4375    9.4404   22.9532 O   0  0  0  0  0  0  0  0  0  0  0  0
   48.4309   11.0281   20.3647 C   0  0  0  0  0  0  0  0  0  0  0  0
   49.5295   11.8940   20.4978 C   0  0  0  0  0  0  0  0  0  0  0  0
   49.3656   13.2763   20.3904 C   0  0  0  0  0  0  0  0  0  0  0  0
   48.1038   13.8134   20.1504 C   0  0  0  0  0  0  0  0  0  0  0  0
   47.0055   12.9682   20.0144 C   0  0  0  0  0  0  0  0  0  0  0  0
   47.1665   11.5853   20.1206 C   0  0  0  0  0  0  0  0  0  0  0  0
   49.2731    2.6863   17.1760 C   0  0  0  0  0  0  0  0  0  0  0  0
   48.5575    3.9419   17.3956 N   0  0  0  0  0  0  0  0  0  0  0  0
   48.1391    4.1251   18.7956 C   0  0  1  0  0  0  0  0  0  0  0  0
   49.4026    4.5983   19.5191 C   0  0  0  0  0  0  0  0  0  0  0  0
   50.2385    5.2711   18.4291 C   0  0  0  0  0  0  0  0  0  0  0  0
   49.4013    5.1244   17.1551 C   0  0  2  0  0  0  0  0  0  0  0  0
   48.4370    6.3062   16.9441 C   0  0  0  0  0  0  0  0  0  0  0  0
   47.4656    6.5201   18.1201 C   0  0  1  0  0  0  0  0  0  0  0  0
   47.0306    5.1966   18.7765 C   0  0  0  0  0  0  0  0  0  0  0  0
   48.0874    7.3313   19.1471 O   0  0  0  0  0  0  0  0  0  0  0  0
   48.1264    8.6791   18.9225 C   0  0  0  0  0  0  0  0  0  0  0  0
   47.6852    9.2129   17.9130 O   0  0  0  0  0  0  0  0  0  0  0  0
   48.8738    9.4037   20.0401 C   0  0  2  0  0  0  0  0  0  0  0  0
   48.9027    8.6347   21.3744 C   0  0  0  0  0  0  0  0  0  0  0  0
   47.6150    8.2271   21.8334 O   0  0  0  0  0  0  0  0  0  0  0  0
   48.4079   10.8457   20.2050 C   0  0  0  0  0  0  0  0  0  0  0  0
   49.2349   11.9009   19.7856 C   0  0  0  0  0  0  0  0  0  0  0  0
   48.8177   13.2270   19.9145 C   0  0  0  0  0  0  0  0  0  0  0  0
   47.5689   13.5170   20.4585 C   0  0  0  0  0  0  0  0  0  0  0  0
   46.7359   12.4813   20.8722 C   0  0  0  0  0  0  0  0  0  0  0  0
   47.1505   11.1546   20.7453 C   0  0  0  0  0  0  0  0  0  0  0  0
   48.5864    7.7087   18.7107 S   0  0  0  0  0  0  0  0  0  0  0  0
   47.6407    8.3169   17.8081 O   0  0  0  0  0  0  0  0  0  0  0  0
   48.6420    8.6289   20.0247 O   0  0  0  0  0  0  0  0  0  0  0  0
   47.9141    6.3716   19.2864 O   0  0  0  0  0  0  0  0  0  0  0  0
   49.9287    7.3502   18.3265 O   0  0  0  0  0  0  0  0  0  0  0  0
   48.7177    7.6414   18.8164 O   0  0  0  0  0  0  0  0  0  0  0  0
   48.7115    7.6900   18.8324 O   0  0  0  0  0  0  0  0  0  0  0  0
   47.1354    3.4388   15.3076 H   0  0  0  0  0  0  0  0  0  0  0  0
   48.1991    2.3709   16.2369 H   0  0  0  0  0  0  0  0  0  0  0  0
   48.8529    3.3869   14.9404 H   0  0  0  0  0  0  0  0  0  0  0  0
   46.4133    4.1813   17.5730 H   0  0  0  0  0  0  0  0  0  0  0  0
   47.6164    2.4223   18.6093 H   0  0  0  0  0  0  0  0  0  0  0  0
   47.8890    3.6526   19.8462 H   0  0  0  0  0  0  0  0  0  0  0  0
   50.1578    3.6007   19.3125 H   0  0  0  0  0  0  0  0  0  0  0  0
   49.8065    2.3901   18.0762 H   0  0  0  0  0  0  0  0  0  0  0  0
   50.4866    4.1522   16.6333 H   0  0  0  0  0  0  0  0  0  0  0  0
   50.6045    6.3757   17.1976 H   0  0  0  0  0  0  0  0  0  0  0  0
   50.5710    5.7456   18.8222 H   0  0  0  0  0  0  0  0  0  0  0  0
   48.5338    7.2474   17.2278 H   0  0  0  0  0  0  0  0  0  0  0  0
   46.5878    6.4106   18.0795 H   0  0  0  0  0  0  0  0  0  0  0  0
   47.2897    5.7946   19.5532 H   0  0  0  0  0  0  0  0  0  0  0  0
   49.7082    9.3584   20.6734 H   0  0  0  0  0  0  0  0  0  0  0  0
   46.8102    9.2150   21.7154 H   0  0  0  0  0  0  0  0  0  0  0  0
   47.9457    7.8705   21.7558 H   0  0  0  0  0  0  0  0  0  0  0  0
   48.2906   10.4049   22.9783 H   0  0  0  0  0  0  0  0  0  0  0  0
   50.5258   11.4994   20.6904 H   0  0  0  0  0  0  0  0  0  0  0  0
   50.2248   13.9339   20.4935 H   0  0  0  0  0  0  0  0  0  0  0  0
   47.9769   14.8892   20.0641 H   0  0  0  0  0  0  0  0  0  0  0  0
   46.0214   13.3854   19.8157 H   0  0  0  0  0  0  0  0  0  0  0  0
   46.2914   10.9507   19.9960 H   0  0  0  0  0  0  0  0  0  0  0  0
   49.5746    2.6055   16.1262 H   0  0  0  0  0  0  0  0  0  0  0  0
   50.1690    2.5699   17.7947 H   0  0  0  0  0  0  0  0  0  0  0  0
   48.6117    1.8366   17.3772 H   0  0  0  0  0  0  0  0  0  0  0  0
   47.7349    3.2087   19.2400 H   0  0  0  0  0  0  0  0  0  0  0  0
   49.1885    5.2710   20.3555 H   0  0  0  0  0  0  0  0  0  0  0  0
   49.9582    3.7438   19.9237 H   0  0  0  0  0  0  0  0  0  0  0  0
   51.1933    4.7417   18.3233 H   0  0  0  0  0  0  0  0  0  0  0  0
   50.4727    6.3133   18.6698 H   0  0  0  0  0  0  0  0  0  0  0  0
   50.0319    5.0210   16.2650 H   0  0  0  0  0  0  0  0  0  0  0  0
   49.0210    7.2140   16.7497 H   0  0  0  0  0  0  0  0  0  0  0  0
   47.8460    6.1101   16.0394 H   0  0  0  0  0  0  0  0  0  0  0  0
   46.5638    7.0428   17.7758 H   0  0  0  0  0  0  0  0  0  0  0  0
   46.6856    5.3798   19.8014 H   0  0  0  0  0  0  0  0  0  0  0  0
   46.1769    4.7956   18.2140 H   0  0  0  0  0  0  0  0  0  0  0  0
   49.9181    9.4353   19.6984 H   0  0  0  0  0  0  0  0  0  0  0  0
   49.5187    7.7316   21.2859 H   0  0  0  0  0  0  0  0  0  0  0  0
   49.3526    9.2490   22.1622 H   0  0  0  0  0  0  0  0  0  0  0  0
   47.3226    7.5005   21.2542 H   0  0  0  0  0  0  0  0  0  0  0  0
   50.2109   11.7009   19.3496 H   0  0  0  0  0  0  0  0  0  0  0  0
   49.4656   14.0333   19.5824 H   0  0  0  0  0  0  0  0  0  0  0  0
   47.2420   14.5487   20.5516 H   0  0  0  0  0  0  0  0  0  0  0  0
   45.7586   12.7045   21.2925 H   0  0  0  0  0  0  0  0  0  0  0  0
   46.4752   10.3663   21.0705 H   0  0  0  0  0  0  0  0  0  0  0  0
   47.7203    8.8659   20.2597 H   0  0  0  0  0  0  0  0  0  0  0  0
   48.4908    5.6249   19.0156 H   0  0  0  0  0  0  0  0  0  0  0  0
   48.2162    8.2425   19.3875 H   0  0  0  0  0  0  0  0  0  0  0  0
   48.3188    6.7735   18.9811 H   0  0  0  0  0  0  0  0  0  0  0  0
   48.3965    6.7773   18.9135 H   0  0  0  0  0  0  0  0  0  0  0  0
   48.1449    8.1901   19.4391 H   0  0  0  0  0  0  0  0  0  0  0  0
  1  2  1  0
  3  2  1  0
  3  4  1  0
  4  5  1  0
  6  5  1  0
  6  2  1  0
  6  7  1  0
  7  8  1  0
  8  9  1  0
  3  9  1  0
  8 10  1  0
 10 11  1  0
 11 12  2  0
 11 13  1  0
 13 14  1  0
 14 15  1  0
 13 16  1  0
 16 17  2  0
 17 18  1  0
 18 19  2  0
 19 20  1  0
 20 21  2  0
 16 21  1  0
 22 23  1  0
 24 23  1  0
 24 25  1  0
 25 26  1  0
 27 26  1  0
 27 23  1  0
 27 28  1  0
 28 29  1  0
 29 30  1  0
 24 30  1  0
 29 31  1  0
 31 32  1  0
 32 33  2  0
 32 34  1  0
 34 35  1  0
 35 36  1  0
 34 37  1  0
 37 38  2  0
 38 39  1  0
 39 40  2  0
 40 41  1  0
 41 42  2  0
 37 42  1  0
 43 44  2  0
 43 45  1  0
 43 46  1  0
 43 47  2  0
  1 50  1  0
  1 51  1  0
  1 52  1  0
  3 53  1  1
  4 54  1  0
  4 55  1  0
  5 56  1  0
  5 57  1  0
  6 58  1  1
  7 59  1  0
  7 60  1  0
  8 61  1  1
  9 62  1  0
  9 63  1  0
 13 64  1  6
 14 65  1  0
 14 66  1  0
 15 67  1  0
 17 68  1  0
 18 69  1  0
 19 70  1  0
 20 71  1  0
 21 72  1  0
 22 73  1  0
 22 74  1  0
 22 75  1  0
 24 76  1  6
 25 77  1  0
 25 78  1  0
 26 79  1  0
 26 80  1  0
 27 81  1  1
 28 82  1  0
 28 83  1  0
 29 84  1  1
 30 85  1  0
 30 86  1  0
 34 87  1  6
 35 88  1  0
 35 89  1  0
 36 90  1  0
 38 91  1  0
 39 92  1  0
 40 93  1  0
 41 94  1  0
 42 95  1  0
 45 96  1  0
 46 97  1  0
 48 98  1  0
 48 99  1  0
 49100  1  0
 49101  1  0
M  END
> <Uni-Dock RESULT> 
ENERGY=   -5.677  LOWER_BOUND=   10.802  UPPER_BOUND=   12.264
INTER + INTRA:          -5.677
INTER:                  -5.677
INTRA:                   0.000
UNBOUND:                 0.000

$$$$

     RDKit          3D

101102  0  0  0  0  0  0  0  0999 V2000
   48.0116   13.6969   20.9970 C   0  0  0  0  0  0  0  0  0  0  0  0
   48.0654   12.5451   20.0986 N   0  0  0  0  0  0  0  0  0  0  0  0
   49.4121   11.9491   20.0230 C   0  0  1  0  0  0  0  0  0  0  0  0
   49.5351   11.0957   21.2908 C   0  0  0  0  0  0  0  0  0  0  0  0
   48.0992   10.7500   21.6627 C   0  0  0  0  0  0  0  0  0  0  0  0
   47.2512   11.4111   20.5712 C   0  0  2  0  0  0  0  0  0  0  0  0
   47.0391   10.4504   19.3871 C   0  0  0  0  0  0  0  0  0  0  0  0
   48.0878   10.6015   18.2725 C   0  0  1  0  0  0  0  0  0  0  0  0
   49.4697   11.0709   18.7614 C   0  0  0  0  0  0  0  0  0  0  0  0
   48.1977    9.3270   17.6018 O   0  0  0  0  0  0  0  0  0  0  0  0
   48.6984    9.3430   16.3298 C   0  0  0  0  0  0  0  0  0  0  0  0
   49.0504   10.3522   15.7334 O   0  0  0  0  0  0  0  0  0  0  0  0
   48.8074    7.9170   15.8114 C   0  0  2  0  0  0  0  0  0  0  0  0
   50.1396    7.3328   16.2955 C   0  0  0  0  0  0  0  0  0  0  0  0
   50.1686    5.9138   16.1375 O   0  0  0  0  0  0  0  0  0  0  0  0
   48.6427    7.7887   14.2998 C   0  0  0  0  0  0  0  0  0  0  0  0
   47.6143    6.9859   13.7779 C   0  0  0  0  0  0  0  0  0  0  0  0
   47.4613    6.8294   12.3990 C   0  0  0  0  0  0  0  0  0  0  0  0
   48.3328    7.4699   11.5225 C   0  0  0  0  0  0  0  0  0  0  0  0
   49.3559    8.2703   12.0243 C   0  0  0  0  0  0  0  0  0  0  0  0
   49.5109    8.4294   13.4027 C   0  0  0  0  0  0  0  0  0  0  0  0
   47.8326   12.1221   22.1118 C   0  0  0  0  0  0  0  0  0  0  0  0
   48.3331   11.9557   20.7485 N   0  0  0  0  0  0  0  0  0  0  0  0
   49.3381   10.8854   20.6342 C   0  0  1  0  0  0  0  0  0  0  0  0
   48.5230    9.5898   20.6040 C   0  0  0  0  0  0  0  0  0  0  0  0
   47.1609   10.0076   20.0476 C   0  0  0  0  0  0  0  0  0  0  0  0
   47.2868   11.5153   19.8107 C   0  0  2  0  0  0  0  0  0  0  0  0
   47.8047   11.8491   18.3995 C   0  0  0  0  0  0  0  0  0  0  0  0
   49.1698   11.2102   18.0823 C   0  0  1  0  0  0  0  0  0  0  0  0
   50.0919   11.1423   19.3140 C   0  0  0  0  0  0  0  0  0  0  0  0
   48.9928    9.8567   17.5964 O   0  0  0  0  0  0  0  0  0  0  0  0
   48.6151    9.7199   16.2898 C   0  0  0  0  0  0  0  0  0  0  0  0
   48.4109   10.6650   15.5389 O   0  0  0  0  0  0  0  0  0  0  0  0
   48.3895    8.2526   15.9310 C   0  0  2  0  0  0  0  0  0  0  0  0
   49.1455    7.2633   16.8378 C   0  0  0  0  0  0  0  0  0  0  0  0
   50.5429    7.5300   16.9437 O   0  0  0  0  0  0  0  0  0  0  0  0
   48.6169    7.9797   14.4486 C   0  0  0  0  0  0  0  0  0  0  0  0
   47.5205    7.7315   13.6062 C   0  0  0  0  0  0  0  0  0  0  0  0
   47.7089    7.4953   12.2432 C   0  0  0  0  0  0  0  0  0  0  0  0
   48.9924    7.5087   11.7025 C   0  0  0  0  0  0  0  0  0  0  0  0
   50.0877    7.7600   12.5239 C   0  0  0  0  0  0  0  0  0  0  0  0
   49.9025    7.9958   13.8871 C   0  0  0  0  0  0  0  0  0  0  0  0
   48.2877    9.9261   17.3137 S   0  0  0  0  0  0  0  0  0  0  0  0
   48.5547   10.9842   16.3714 O   0  0  0  0  0  0  0  0  0  0  0  0
   48.7160    8.5490   16.6091 O   0  0  0  0  0  0  0  0  0  0  0  0
   49.3764   10.0363   18.4858 O   0  0  0  0  0  0  0  0  0  0  0  0
   47.0135    9.7489   17.9642 O   0  0  0  0  0  0  0  0  0  0  0  0
   48.2381    9.7921   17.4257 O   0  0  0  0  0  0  0  0  0  0  0  0
   48.2427    9.7697   17.3795 O   0  0  0  0  0  0  0  0  0  0  0  0
   48.6282   14.5102   20.5983 H   0  0  0  0  0  0  0  0  0  0  0  0
   48.3532   13.4838   22.0148 H   0  0  0  0  0  0  0  0  0  0  0  0
   46.9872   14.0810   21.0567 H   0  0  0  0  0  0  0  0  0  0  0  0
   50.2152   12.6944   19.9748 H   0  0  0  0  0  0  0  0  0  0  0  0
   49.9933   11.6747   22.1024 H   0  0  0  0  0  0  0  0  0  0  0  0
   50.1441   10.1961   21.1489 H   0  0  0  0  0  0  0  0  0  0  0  0
   47.9498    9.6673   21.7326 H   0  0  0  0  0  0  0  0  0  0  0  0
   47.8633   11.1755   22.6464 H   0  0  0  0  0  0  0  0  0  0  0  0
   46.2735   11.7140   20.9635 H   0  0  0  0  0  0  0  0  0  0  0  0
   46.0575   10.6549   18.9367 H   0  0  0  0  0  0  0  0  0  0  0  0
   46.9835    9.4095   19.7297 H   0  0  0  0  0  0  0  0  0  0  0  0
   47.6948   11.3413   17.5595 H   0  0  0  0  0  0  0  0  0  0  0  0
   49.9216   11.6590   17.9503 H   0  0  0  0  0  0  0  0  0  0  0  0
   50.1417   10.2157   18.9055 H   0  0  0  0  0  0  0  0  0  0  0  0
   47.9890    7.3457   16.2724 H   0  0  0  0  0  0  0  0  0  0  0  0
   51.0030    7.7579   15.7716 H   0  0  0  0  0  0  0  0  0  0  0  0
   50.2841    7.5342   17.3627 H   0  0  0  0  0  0  0  0  0  0  0  0
   50.1382    5.7323   15.1790 H   0  0  0  0  0  0  0  0  0  0  0  0
   46.9226    6.4706   14.4422 H   0  0  0  0  0  0  0  0  0  0  0  0
   46.6599    6.2069   12.0096 H   0  0  0  0  0  0  0  0  0  0  0  0
   48.2118    7.3501   10.4492 H   0  0  0  0  0  0  0  0  0  0  0  0
   50.0303    8.7803   11.3408 H   0  0  0  0  0  0  0  0  0  0  0  0
   50.3115    9.0721   13.7634 H   0  0  0  0  0  0  0  0  0  0  0  0
   47.0796   12.9168   22.1402 H   0  0  0  0  0  0  0  0  0  0  0  0
   47.3848   11.2172   22.5357 H   0  0  0  0  0  0  0  0  0  0  0  0
   48.6454   12.4382   22.7746 H   0  0  0  0  0  0  0  0  0  0  0  0
   50.0599   10.8927   21.4586 H   0  0  0  0  0  0  0  0  0  0  0  0
   48.9943    8.8033   20.0063 H   0  0  0  0  0  0  0  0  0  0  0  0
   48.3920    9.1928   21.6178 H   0  0  0  0  0  0  0  0  0  0  0  0
   46.3836    9.8004   20.7934 H   0  0  0  0  0  0  0  0  0  0  0  0
   46.8947    9.4526   19.1420 H   0  0  0  0  0  0  0  0  0  0  0  0
   46.3330   12.0316   19.9671 H   0  0  0  0  0  0  0  0  0  0  0  0
   47.0514   11.5477   17.6615 H   0  0  0  0  0  0  0  0  0  0  0  0
   47.9072   12.9397   18.3202 H   0  0  0  0  0  0  0  0  0  0  0  0
   49.6847   11.7853   17.3019 H   0  0  0  0  0  0  0  0  0  0  0  0
   50.8522   10.3644   19.1732 H   0  0  0  0  0  0  0  0  0  0  0  0
   50.6211   12.1005   19.4032 H   0  0  0  0  0  0  0  0  0  0  0  0
   47.3233    8.0794   16.1348 H   0  0  0  0  0  0  0  0  0  0  0  0
   48.7323    7.2781   17.8536 H   0  0  0  0  0  0  0  0  0  0  0  0
   49.0343    6.2389   16.4654 H   0  0  0  0  0  0  0  0  0  0  0  0
   50.6398    8.3304   17.4907 H   0  0  0  0  0  0  0  0  0  0  0  0
   46.5076    7.7242   14.0020 H   0  0  0  0  0  0  0  0  0  0  0  0
   46.8519    7.3086   11.6023 H   0  0  0  0  0  0  0  0  0  0  0  0
   49.1375    7.3321   10.6405 H   0  0  0  0  0  0  0  0  0  0  0  0
   51.0900    7.7761   12.1037 H   0  0  0  0  0  0  0  0  0  0  0  0
   50.7766    8.1963   14.5027 H   0  0  0  0  0  0  0  0  0  0  0  0
   49.5785    8.6978   16.1677 H   0  0  0  0  0  0  0  0  0  0  0  0
   48.8813   10.1898   19.3193 H   0  0  0  0  0  0  0  0  0  0  0  0
   48.8397    9.3791   16.7882 H   0  0  0  0  0  0  0  0  0  0  0  0
   48.8114   10.0281   18.1708 H   0  0  0  0  0  0  0  0  0  0  0  0
   48.7114   10.0515   18.1795 H   0  0  0  0  0  0  0  0  0  0  0  0
   48.9350    9.3782   16.8258 H   0  0  0  0  0  0  0  0  0  0  0  0
  1  2  1  0
  3  2  1  0
  3  4  1  0
  4  5  1  0
  6  5  1  0
  6  2  1  0
  6  7  1  0
  7  8  1  0
  8  9  1  0
  3  9  1  0
  8 10  1  0
 10 11  1  0
 11 12  2  0
 11 13  1  0
 13 14  1  0
 14 15  1  0
 13 16  1  0
 16 17  2  0
 17 18  1  0
 18 19  2  0
 19 20  1  0
 20 21  2  0
 16 21  1  0
 22 23  1  0
 24 23  1  0
 24 25  1  0
 25 26  1  0
 27 26  1  0
 27 23  1  0
 27 28  1  0
 28 29  1  0
 29 30  1  0
 24 30  1  0
 29 31  1  0
 31 32  1  0
 32 33  2  0
 32 34  1  0
 34 35  1  0
 35 36  1  0
 34 37  1  0
 37 38  2  0
 38 39  1  0
 39 40  2  0
 40 41  1  0
 41 42  2  0
 37 42  1  0
 43 44  2  0
 43 45  1  0
 43 46  1  0
 43 47  2  0
  1 50  1  0
  1 51  1  0
  1 52  1  0
  3 53  1  1
  4 54  1  0
  4 55  1  0
  5 56  1  0
  5 57  1  0
  6 58  1  1
  7 59  1  0
  7 60  1  0
  8 61  1  1
  9 62  1  0
  9 63  1  0
 13 64  1  6
 14 65  1  0
 14 66  1  0
 15 67  1  0
 17 68  1  0
 18 69  1  0
 19 70  1  0
 20 71  1  0
 21 72  1  0
 22 73  1  0
 22 74  1  0
 22 75  1  0
 24 76  1  6
 25 77  1  0
 25 78  1  0
 26 79  1  0
 26 80  1  0
 27 81  1  1
 28 82  1  0
 28 83  1  0
 29 84  1  1
 30 85  1  0
 30 86  1  0
 34 87  1  6
 35 88  1  0
 35 89  1  0
 36 90  1  0
 38 91  1  0
 39 92  1  0
 40 93  1  0
 41 94  1  0
 42 95  1  0
 45 96  1  0
 46 97  1  0
 48 98  1  0
 48 99  1  0
 49100  1  0
 49101  1  0
M  END
> <Uni-Dock RESULT> 
ENERGY=   -5.673  LOWER_BOUND=    8.905  UPPER_BOUND=   11.581
INTER + INTRA:          -5.673
INTER:                  -5.673
INTRA:                   0.000
UNBOUND:                 0.000

$$$$

     RDKit          3D

101102  0  0  0  0  0  0  0  0999 V2000
   54.7737   10.4405    9.7941 C   0  0  0  0  0  0  0  0  0  0  0  0
   53.4862   10.1475   10.4210 N   0  0  0  0  0  0  0  0  0  0  0  0
   53.6091    9.8758   11.8652 C   0  0  1  0  0  0  0  0  0  0  0  0
   53.7272   11.2590   12.5159 C   0  0  0  0  0  0  0  0  0  0  0  0
   53.0453   12.2047   11.5361 C   0  0  0  0  0  0  0  0  0  0  0  0
   52.5636   11.2967   10.3998 C   0  0  2  0  0  0  0  0  0  0  0  0
   51.1438   10.7735   10.6828 C   0  0  0  0  0  0  0  0  0  0  0  0
   51.1173    9.4152   11.4034 C   0  0  1  0  0  0  0  0  0  0  0  0
   52.3258    9.1610   12.3220 C   0  0  0  0  0  0  0  0  0  0  0  0
   49.8880    9.3463   12.1586 O   0  0  0  0  0  0  0  0  0  0  0  0
   49.4387    8.0981   12.4888 C   0  0  0  0  0  0  0  0  0  0  0  0
   50.0014    7.0539   12.1874 O   0  0  0  0  0  0  0  0  0  0  0  0
   48.1813    8.2212   13.3363 C   0  0  2  0  0  0  0  0  0  0  0  0
   48.6062    8.4209   14.7957 C   0  0  0  0  0  0  0  0  0  0  0  0
   47.5117    8.8718   15.5946 O   0  0  0  0  0  0  0  0  0  0  0  0
   47.2068    7.0577   13.1787 C   0  0  0  0  0  0  0  0  0  0  0  0
   45.8960    7.3035   12.7361 C   0  0  0  0  0  0  0  0  0  0  0  0
   44.9772    6.2595   12.6120 C   0  0  0  0  0  0  0  0  0  0  0  0
   45.3531    4.9571   12.9291 C   0  0  0  0  0  0  0  0  0  0  0  0
   46.6490    4.6972   13.3674 C   0  0  0  0  0  0  0  0  0  0  0  0
   47.5702    5.7390   13.4918 C   0  0  0  0  0  0  0  0  0  0  0  0
   54.1572   12.0993   10.5833 C   0  0  0  0  0  0  0  0  0  0  0  0
   53.5274   10.8506   11.0087 N   0  0  0  0  0  0  0  0  0  0  0  0
   53.1373   10.8608   12.4287 C   0  0  1  0  0  0  0  0  0  0  0  0
   51.8286   11.6545   12.4655 C   0  0  0  0  0  0  0  0  0  0  0  0
   51.2321   11.4738   11.0688 C   0  0  0  0  0  0  0  0  0  0  0  0
   52.2471   10.6005   10.3257 C   0  0  2  0  0  0  0  0  0  0  0  0
   51.9598    9.0962   10.4862 C   0  0  0  0  0  0  0  0  0  0  0  0
   51.9304    8.6327   11.9547 C   0  0  1  0  0  0  0  0  0  0  0  0
   52.9472    9.3852   12.8332 C   0  0  0  0  0  0  0  0  0  0  0  0
   50.6168    8.8499   12.5263 O   0  0  0  0  0  0  0  0  0  0  0  0
   49.6522    7.9350   12.2089 C   0  0  0  0  0  0  0  0  0  0  0  0
   49.8411    6.9764   11.4712 O   0  0  0  0  0  0  0  0  0  0  0  0
   48.3033    8.3235   12.8106 C   0  0  2  0  0  0  0  0  0  0  0  0
   48.4089    9.2445   14.0408 C   0  0  0  0  0  0  0  0  0  0  0  0
   49.2730    8.7473   15.0612 O   0  0  0  0  0  0  0  0  0  0  0  0
   47.4128    7.1118   13.0608 C   0  0  0  0  0  0  0  0  0  0  0  0
   46.3000    6.8787   12.2357 C   0  0  0  0  0  0  0  0  0  0  0  0
   45.4827    5.7654   12.4403 C   0  0  0  0  0  0  0  0  0  0  0  0
   45.7677    4.8684   13.4668 C   0  0  0  0  0  0  0  0  0  0  0  0
   46.8710    5.0830   14.2880 C   0  0  0  0  0  0  0  0  0  0  0  0
   47.6896    6.1955   14.0863 C   0  0  0  0  0  0  0  0  0  0  0  0
   50.2051    8.8224   11.8848 S   0  0  0  0  0  0  0  0  0  0  0  0
   50.5804    7.4951   11.4647 O   0  0  0  0  0  0  0  0  0  0  0  0
   49.0238    8.6596   12.9593 O   0  0  0  0  0  0  0  0  0  0  0  0
   51.3915    9.3936   12.7997 O   0  0  0  0  0  0  0  0  0  0  0  0
   49.8649    9.8773   10.9631 O   0  0  0  0  0  0  0  0  0  0  0  0
   50.1467    8.9896   11.9244 O   0  0  0  0  0  0  0  0  0  0  0  0
   50.1078    8.9585   11.9378 O   0  0  0  0  0  0  0  0  0  0  0  0
   55.4177    9.5547    9.8328 H   0  0  0  0  0  0  0  0  0  0  0  0
   55.3157   11.2708   10.2574 H   0  0  0  0  0  0  0  0  0  0  0  0
   54.6315   10.6780    8.7339 H   0  0  0  0  0  0  0  0  0  0  0  0
   54.4738    9.2504   12.1178 H   0  0  0  0  0  0  0  0  0  0  0  0
   54.7809   11.5446   12.6259 H   0  0  0  0  0  0  0  0  0  0  0  0
   53.2711   11.3090   13.5107 H   0  0  0  0  0  0  0  0  0  0  0  0
   52.2366   12.7674   12.0146 H   0  0  0  0  0  0  0  0  0  0  0  0
   53.7749   12.9353   11.1644 H   0  0  0  0  0  0  0  0  0  0  0  0
   52.5617   11.8326    9.4435 H   0  0  0  0  0  0  0  0  0  0  0  0
   50.6178   10.6420    9.7266 H   0  0  0  0  0  0  0  0  0  0  0  0
   50.5527   11.5166   11.2327 H   0  0  0  0  0  0  0  0  0  0  0  0
   51.0955    8.6385   10.6246 H   0  0  0  0  0  0  0  0  0  0  0  0
   52.5141    8.0782   12.3235 H   0  0  0  0  0  0  0  0  0  0  0  0
   52.0826    9.4121   13.3620 H   0  0  0  0  0  0  0  0  0  0  0  0
   47.6563    9.1266   12.9998 H   0  0  0  0  0  0  0  0  0  0  0  0
   49.0120    7.5084   15.2467 H   0  0  0  0  0  0  0  0  0  0  0  0
   49.3865    9.1864   14.8691 H   0  0  0  0  0  0  0  0  0  0  0  0
   46.8542    8.1508   15.6117 H   0  0  0  0  0  0  0  0  0  0  0  0
   45.5759    8.3136   12.4863 H   0  0  0  0  0  0  0  0  0  0  0  0
   43.9673    6.4643   12.2664 H   0  0  0  0  0  0  0  0  0  0  0  0
   44.6386    4.1443   12.8298 H   0  0  0  0  0  0  0  0  0  0  0  0
   46.9473    3.6789   13.6046 H   0  0  0  0  0  0  0  0  0  0  0  0
   48.5790    5.5019   13.8238 H   0  0  0  0  0  0  0  0  0  0  0  0
   54.4135   12.0464    9.5199 H   0  0  0  0  0  0  0  0  0  0  0  0
   53.5350   12.9872   10.7370 H   0  0  0  0  0  0  0  0  0  0  0  0
   55.0978   12.2492   11.1242 H   0  0  0  0  0  0  0  0  0  0  0  0
   53.9019   11.3069   13.0745 H   0  0  0  0  0  0  0  0  0  0  0  0
   51.1492   11.3201   13.2558 H   0  0  0  0  0  0  0  0  0  0  0  0
   52.0279   12.7191   12.6376 H   0  0  0  0  0  0  0  0  0  0  0  0
   51.1400   12.4527   10.5825 H   0  0  0  0  0  0  0  0  0  0  0  0
   50.2299   11.0337   11.0995 H   0  0  0  0  0  0  0  0  0  0  0  0
   52.2830   10.8402    9.2571 H   0  0  0  0  0  0  0  0  0  0  0  0
   51.0157    8.8567    9.9819 H   0  0  0  0  0  0  0  0  0  0  0  0
   52.7483    8.5382    9.9636 H   0  0  0  0  0  0  0  0  0  0  0  0
   52.1536    7.5597   12.0174 H   0  0  0  0  0  0  0  0  0  0  0  0
   52.6459    9.3339   13.8865 H   0  0  0  0  0  0  0  0  0  0  0  0
   53.9184    8.8796   12.7488 H   0  0  0  0  0  0  0  0  0  0  0  0
   47.8183    8.9298   12.0326 H   0  0  0  0  0  0  0  0  0  0  0  0
   48.7818   10.2343   13.7508 H   0  0  0  0  0  0  0  0  0  0  0  0
   47.4223    9.3973   14.4921 H   0  0  0  0  0  0  0  0  0  0  0  0
   50.1854    8.8402   14.7324 H   0  0  0  0  0  0  0  0  0  0  0  0
   46.0608    7.5592   11.4218 H   0  0  0  0  0  0  0  0  0  0  0  0
   44.6276    5.5950   11.7923 H   0  0  0  0  0  0  0  0  0  0  0  0
   45.1356    3.9985   13.6207 H   0  0  0  0  0  0  0  0  0  0  0  0
   47.0988    4.3818   15.0867 H   0  0  0  0  0  0  0  0  0  0  0  0
   48.5486    6.3331   14.7393 H   0  0  0  0  0  0  0  0  0  0  0  0
   49.2743    7.9326   13.5672 H   0  0  0  0  0  0  0  0  0  0  0  0
   51.7307   10.1996   12.3539 H   0  0  0  0  0  0  0  0  0  0  0  0
   49.7725    8.4211   12.6141 H   0  0  0  0  0  0  0  0  0  0  0  0
   50.9682    9.3237   12.3156 H   0  0  0  0  0  0  0  0  0  0  0  0
   50.9457    9.3552   12.2201 H   0  0  0  0  0  0  0  0  0  0  0  0
   49.8339    8.4208   12.6961 H   0  0  0  0  0  0  0  0  0  0  0  0
  1  2  1  0
  3  2  1  0
  3  4  1  0
  4  5  1  0
  6  5  1  0
  6  2  1  0
  6  7  1  0
  7  8  1  0
  8  9  1  0
  3  9  1  0
  8 10  1  0
 10 11  1  0
 11 12  2  0
 11 13  1  0
 13 14  1  0
 14 15  1  0
 13 16  1  0
 16 17  2  0
 17 18  1  0
 18 19  2  0
 19 20  1  0
 20 21  2  0
 16 21  1  0
 22 23  1  0
 24 23  1  0
 24 25  1  0
 25 26  1  0
 27 26  1  0
 27 23  1  0
 27 28  1  0
 28 29  1  0
 29 30  1  0
 24 30  1  0
 29 31  1  0
 31 32  1  0
 32 33  2  0
 32 34  1  0
 34 35  1  0
 35 36  1  0
 34 37  1  0
 37 38  2  0
 38 39  1  0
 39 40  2  0
 40 41  1  0
 41 42  2  0
 37 42  1  0
 43 44  2  0
 43 45  1  0
 43 46  1  0
 43 47  2  0
  1 50  1  0
  1 51  1  0
  1 52  1  0
  3 53  1  1
  4 54  1  0
  4 55  1  0
  5 56  1  0
  5 57  1  0
  6 58  1  1
  7 59  1  0
  7 60  1  0
  8 61  1  1
  9 62  1  0
  9 63  1  0
 13 64  1  6
 14 65  1  0
 14 66  1  0
 15 67  1  0
 17 68  1  0
 18 69  1  0
 19 70  1  0
 20 71  1  0
 21 72  1  0
 22 73  1  0
 22 74  1  0
 22 75  1  0
 24 76  1  6
 25 77  1  0
 25 78  1  0
 26 79  1  0
 26 80  1  0
 27 81  1  1
 28 82  1  0
 28 83  1  0
 29 84  1  1
 30 85  1  0
 30 86  1  0
 34 87  1  6
 35 88  1  0
 35 89  1  0
 36 90  1  0
 38 91  1  0
 39 92  1  0
 40 93  1  0
 41 94  1  0
 42 95  1  0
 45 96  1  0
 46 97  1  0
 48 98  1  0
 48 99  1  0
 49100  1  0
 49101  1  0
M  END
> <Uni-Dock RESULT> 
ENERGY=   -5.652  LOWER_BOUND=    8.244  UPPER_BOUND=    9.951
INTER + INTRA:          -5.652
INTER:                  -5.652
INTRA:                   0.000
UNBOUND:                 0.000

$$$$

     RDKit          3D

101102  0  0  0  0  0  0  0  0999 V2000
   47.9272   11.9615   22.3363 C   0  0  0  0  0  0  0  0  0  0  0  0
   48.2920   11.6989   20.9455 N   0  0  0  0  0  0  0  0  0  0  0  0
   47.5822   12.5787   19.9987 C   0  0  1  0  0  0  0  0  0  0  0  0
   48.3423   13.9091   20.0542 C   0  0  0  0  0  0  0  0  0  0  0  0
   49.7474   13.5310   20.5038 C   0  0  0  0  0  0  0  0  0  0  0  0
   49.7039   12.0070   20.6554 C   0  0  2  0  0  0  0  0  0  0  0  0
   50.0806   11.3153   19.3327 C   0  0  0  0  0  0  0  0  0  0  0  0
   48.8715   10.9811   18.4431 C   0  0  1  0  0  0  0  0  0  0  0  0
   47.6827   11.9461   18.6000 C   0  0  0  0  0  0  0  0  0  0  0  0
   49.3292   10.9654   17.0732 O   0  0  0  0  0  0  0  0  0  0  0  0
   48.5725   10.2589   16.1804 C   0  0  0  0  0  0  0  0  0  0  0  0
   47.5513    9.6473   16.4648 O   0  0  0  0  0  0  0  0  0  0  0  0
   49.1619   10.4114   14.7862 C   0  0  2  0  0  0  0  0  0  0  0  0
   48.6165   11.7076   14.1758 C   0  0  0  0  0  0  0  0  0  0  0  0
   49.3661   12.0899   13.0220 O   0  0  0  0  0  0  0  0  0  0  0  0
   48.9293    9.2089   13.8761 C   0  0  0  0  0  0  0  0  0  0  0  0
   50.0298    8.5256   13.3317 C   0  0  0  0  0  0  0  0  0  0  0  0
   49.8426    7.4407   12.4730 C   0  0  0  0  0  0  0  0  0  0  0  0
   48.5554    7.0241   12.1446 C   0  0  0  0  0  0  0  0  0  0  0  0
   47.4546    7.6900   12.6774 C   0  0  0  0  0  0  0  0  0  0  0  0
   47.6387    8.7747   13.5370 C   0  0  0  0  0  0  0  0  0  0  0  0
   49.2900   13.2583   21.8720 C   0  0  0  0  0  0  0  0  0  0  0  0
   48.6124   12.5445   20.7912 N   0  0  0  0  0  0  0  0  0  0  0  0
   48.4263   13.3717   19.5871 C   0  0  1  0  0  0  0  0  0  0  0  0
   49.7879   13.3499   18.8876 C   0  0  0  0  0  0  0  0  0  0  0  0
   50.4314   12.0393   19.3432 C   0  0  0  0  0  0  0  0  0  0  0  0
   49.3990   11.4085   20.2821 C   0  0  2  0  0  0  0  0  0  0  0  0
   48.4063   10.4957   19.5388 C   0  0  0  0  0  0  0  0  0  0  0  0
   47.6380   11.2153   18.4146 C   0  0  1  0  0  0  0  0  0  0  0  0
   47.3232   12.6832   18.7586 C   0  0  0  0  0  0  0  0  0  0  0  0
   48.4138   11.2120   17.1909 O   0  0  0  0  0  0  0  0  0  0  0  0
   48.4079   10.0535   16.4655 C   0  0  0  0  0  0  0  0  0  0  0  0
   47.8052    9.0430   16.8037 O   0  0  0  0  0  0  0  0  0  0  0  0
   49.3229   10.1601   15.2473 C   0  0  2  0  0  0  0  0  0  0  0  0
   49.5730   11.6055   14.7772 C   0  0  0  0  0  0  0  0  0  0  0  0
   48.3796   12.3555   14.5577 O   0  0  0  0  0  0  0  0  0  0  0  0
   48.8816    9.2431   14.1124 C   0  0  0  0  0  0  0  0  0  0  0  0
   49.6232    8.0870   13.8180 C   0  0  0  0  0  0  0  0  0  0  0  0
   49.2249    7.2274   12.7924 C   0  0  0  0  0  0  0  0  0  0  0  0
   48.0795    7.5076   12.0512 C   0  0  0  0  0  0  0  0  0  0  0  0
   47.3310    8.6460   12.3362 C   0  0  0  0  0  0  0  0  0  0  0  0
   47.7271    9.5076   13.3605 C   0  0  0  0  0  0  0  0  0  0  0  0
   48.8330   10.5882   17.3208 S   0  0  0  0  0  0  0  0  0  0  0  0
   47.7495    9.6488   17.4712 O   0  0  0  0  0  0  0  0  0  0  0  0
   49.0962   10.7550   15.7463 O   0  0  0  0  0  0  0  0  0  0  0  0
   48.2711   12.0399   17.7055 O   0  0  0  0  0  0  0  0  0  0  0  0
   50.0970   10.4534   18.0007 O   0  0  0  0  0  0  0  0  0  0  0  0
   48.9801   10.6929   17.3030 O   0  0  0  0  0  0  0  0  0  0  0  0
   48.9762   10.6677   17.2582 O   0  0  0  0  0  0  0  0  0  0  0  0
   46.8725   11.7125   22.4988 H   0  0  0  0  0  0  0  0  0  0  0  0
   48.0795   12.9996   22.6480 H   0  0  0  0  0  0  0  0  0  0  0  0
   48.5076   11.3177   23.0065 H   0  0  0  0  0  0  0  0  0  0  0  0
   46.5242   12.7228   20.2488 H   0  0  0  0  0  0  0  0  0  0  0  0
   47.8902   14.5807   20.7948 H   0  0  0  0  0  0  0  0  0  0  0  0
   48.3532   14.4410   19.0965 H   0  0  0  0  0  0  0  0  0  0  0  0
   50.5053   13.8751   19.7920 H   0  0  0  0  0  0  0  0  0  0  0  0
   49.9645   14.0093   21.4674 H   0  0  0  0  0  0  0  0  0  0  0  0
   50.3905   11.6711   21.4411 H   0  0  0  0  0  0  0  0  0  0  0  0
   50.5857   10.3661   19.5608 H   0  0  0  0  0  0  0  0  0  0  0  0
   50.8207   11.9049   18.7769 H   0  0  0  0  0  0  0  0  0  0  0  0
   48.5425    9.9674   18.7155 H   0  0  0  0  0  0  0  0  0  0  0  0
   46.7659   11.3693   18.4140 H   0  0  0  0  0  0  0  0  0  0  0  0
   47.7018   12.7160   17.8186 H   0  0  0  0  0  0  0  0  0  0  0  0
   50.2495   10.5150   14.9084 H   0  0  0  0  0  0  0  0  0  0  0  0
   47.5605   11.6306   13.8936 H   0  0  0  0  0  0  0  0  0  0  0  0
   48.6953   12.5339   14.8910 H   0  0  0  0  0  0  0  0  0  0  0  0
   49.2196   11.4022   12.3452 H   0  0  0  0  0  0  0  0  0  0  0  0
   51.0464    8.8345   13.5692 H   0  0  0  0  0  0  0  0  0  0  0  0
   50.7033    6.9203   12.0611 H   0  0  0  0  0  0  0  0  0  0  0  0
   48.4099    6.1780   11.4784 H   0  0  0  0  0  0  0  0  0  0  0  0
   46.4488    7.3588   12.4308 H   0  0  0  0  0  0  0  0  0  0  0  0
   46.7587    9.2657   13.9477 H   0  0  0  0  0  0  0  0  0  0  0  0
   49.4173   12.5971   22.7357 H   0  0  0  0  0  0  0  0  0  0  0  0
   50.2754   13.6499   21.5983 H   0  0  0  0  0  0  0  0  0  0  0  0
   48.6752   14.0993   22.2103 H   0  0  0  0  0  0  0  0  0  0  0  0
   48.1052   14.3929   19.8207 H   0  0  0  0  0  0  0  0  0  0  0  0
   49.7088   13.4192   17.7981 H   0  0  0  0  0  0  0  0  0  0  0  0
   50.4069   14.1910   19.2223 H   0  0  0  0  0  0  0  0  0  0  0  0
   51.3593   12.2582   19.8855 H   0  0  0  0  0  0  0  0  0  0  0  0
   50.6956   11.3919   18.5005 H   0  0  0  0  0  0  0  0  0  0  0  0
   49.8769   10.8318   21.0819 H   0  0  0  0  0  0  0  0  0  0  0  0
   48.9456    9.6244   19.1478 H   0  0  0  0  0  0  0  0  0  0  0  0
   47.6771   10.1160   20.2672 H   0  0  0  0  0  0  0  0  0  0  0  0
   46.6891   10.7007   18.2151 H   0  0  0  0  0  0  0  0  0  0  0  0
   47.1486   13.2564   17.8400 H   0  0  0  0  0  0  0  0  0  0  0  0
   46.3918   12.7103   19.3397 H   0  0  0  0  0  0  0  0  0  0  0  0
   50.2975    9.7954   15.6013 H   0  0  0  0  0  0  0  0  0  0  0  0
   50.1716   12.1530   15.5153 H   0  0  0  0  0  0  0  0  0  0  0  0
   50.1415   11.6119   13.8406 H   0  0  0  0  0  0  0  0  0  0  0  0
   48.0010   12.5519   15.4337 H   0  0  0  0  0  0  0  0  0  0  0  0
   50.5164    7.8411   14.3876 H   0  0  0  0  0  0  0  0  0  0  0  0
   49.8054    6.3347   12.5780 H   0  0  0  0  0  0  0  0  0  0  0  0
   47.7661    6.8344   11.2584 H   0  0  0  0  0  0  0  0  0  0  0  0
   46.4338    8.8644   11.7627 H   0  0  0  0  0  0  0  0  0  0  0  0
   47.1184   10.3856   13.5648 H   0  0  0  0  0  0  0  0  0  0  0  0
   48.2236   10.8355   15.3069 H   0  0  0  0  0  0  0  0  0  0  0  0
   48.8004   12.3556   18.4695 H   0  0  0  0  0  0  0  0  0  0  0  0
   48.5747   10.6743   16.4231 H   0  0  0  0  0  0  0  0  0  0  0  0
   48.6184   11.4941   17.7113 H   0  0  0  0  0  0  0  0  0  0  0  0
   48.6840   11.4383   17.7679 H   0  0  0  0  0  0  0  0  0  0  0  0
   48.5130   10.7552   16.4114 H   0  0  0  0  0  0  0  0  0  0  0  0
  1  2  1  0
  3  2  1  0
  3  4  1  0
  4  5  1  0
  6  5  1  0
  6  2  1  0
  6  7  1  0
  7  8  1  0
  8  9  1  0
  3  9  1  0
  8 10  1  0
 10 11  1  0
 11 12  2  0
 11 13  1  0
 13 14  1  0
 14 15  1  0
 13 16  1  0
 16 17  2  0
 17 18  1  0
 18 19  2  0
 19 20  1  0
 20 21  2  0
 16 21  1  0
 22 23  1  0
 24 23  1  0
 24 25  1  0
 25 26  1  0
 27 26  1  0
 27 23  1  0
 27 28  1  0
 28 29  1  0
 29 30  1  0
 24 30  1  0
 29 31  1  0
 31 32  1  0
 32 33  2  0
 32 34  1  0
 34 35  1  0
 35 36  1  0
 34 37  1  0
 37 38  2  0
 38 39  1  0
 39 40  2  0
 40 41  1  0
 41 42  2  0
 37 42  1  0
 43 44  2  0
 43 45  1  0
 43 46  1  0
 43 47  2  0
  1 50  1  0
  1 51  1  0
  1 52  1  0
  3 53  1  1
  4 54  1  0
  4 55  1  0
  5 56  1  0
  5 57  1  0
  6 58  1  1
  7 59  1  0
  7 60  1  0
  8 61  1  1
  9 62  1  0
  9 63  1  0
 13 64  1  6
 14 65  1  0
 14 66  1  0
 15 67  1  0
 17 68  1  0
 18 69  1  0
 19 70  1  0
 20 71  1  0
 21 72  1  0
 22 73  1  0
 22 74  1  0
 22 75  1  0
 24 76  1  6
 25 77  1  0
 25 78  1  0
 26 79  1  0
 26 80  1  0
 27 81  1  1
 28 82  1  0
 28 83  1  0
 29 84  1  1
 30 85  1  0
 30 86  1  0
 34 87  1  6
 35 88  1  0
 35 89  1  0
 36 90  1  0
 38 91  1  0
 39 92  1  0
 40 93  1  0
 41 94  1  0
 42 95  1  0
 45 96  1  0
 46 97  1  0
 48 98  1  0
 48 99  1  0
 49100  1  0
 49101  1  0
M  END
> <Uni-Dock RESULT> 
ENERGY=   -5.568  LOWER_BOUND=    8.609  UPPER_BOUND=   11.248
INTER + INTRA:          -5.568
INTER:                  -5.568
INTRA:                   0.000
UNBOUND:                 0.000

$$$$
