
     RDKit          3D

101102  0  0  0  0  0  0  0  0999 V2000
   50.0414    9.8653   20.3284 C   0  0  0  0  0  0  0  0  0  0  0  0
   49.7131    9.3211   19.0139 N   0  0  0  0  0  0  0  0  0  0  0  0
   48.7804    8.1816   19.0763 C   0  0  1  0  0  0  0  0  0  0  0  0
   47.4042    8.8196   19.2906 C   0  0  0  0  0  0  0  0  0  0  0  0
   47.5225   10.2000   18.6567 C   0  0  0  0  0  0  0  0  0  0  0  0
   48.9744   10.2779   18.1671 C   0  0  2  0  0  0  0  0  0  0  0  0
   49.0895    9.7980   16.7078 C   0  0  0  0  0  0  0  0  0  0  0  0
   49.4186    8.3007   16.5835 C   0  0  1  0  0  0  0  0  0  0  0  0
   48.8399    7.4447   17.7237 C   0  0  0  0  0  0  0  0  0  0  0  0
   48.9134    7.7749   15.3379 O   0  0  0  0  0  0  0  0  0  0  0  0
   49.6207    8.0797   14.2115 C   0  0  0  0  0  0  0  0  0  0  0  0
   50.6716    8.7112   14.1839 O   0  0  0  0  0  0  0  0  0  0  0  0
   48.9219    7.5231   12.9834 C   0  0  2  0  0  0  0  0  0  0  0  0
   49.8955    7.4467   11.7911 C   0  0  0  0  0  0  0  0  0  0  0  0
   50.4961    8.6920   11.4393 O   0  0  0  0  0  0  0  0  0  0  0  0
   47.6205    8.2542   12.6908 C   0  0  0  0  0  0  0  0  0  0  0  0
   46.3939    7.6172   12.9416 C   0  0  0  0  0  0  0  0  0  0  0  0
   45.1850    8.2778   12.7096 C   0  0  0  0  0  0  0  0  0  0  0  0
   45.1837    9.5852   12.2291 C   0  0  0  0  0  0  0  0  0  0  0  0
   46.3912   10.2336   11.9828 C   0  0  0  0  0  0  0  0  0  0  0  0
   47.6012    9.5737   12.2144 C   0  0  0  0  0  0  0  0  0  0  0  0
   49.3550   10.2207   20.5034 C   0  0  0  0  0  0  0  0  0  0  0  0
   49.2376    9.8341   19.0995 N   0  0  0  0  0  0  0  0  0  0  0  0
   50.0842    8.6790   18.7514 C   0  0  1  0  0  0  0  0  0  0  0  0
   49.3120    7.4617   19.2701 C   0  0  0  0  0  0  0  0  0  0  0  0
   47.8541    7.8972   19.2424 C   0  0  0  0  0  0  0  0  0  0  0  0
   47.8919    9.3481   18.7477 C   0  0  2  0  0  0  0  0  0  0  0  0
   47.7578    9.4114   17.2158 C   0  0  0  0  0  0  0  0  0  0  0  0
   49.1071    9.3899   16.4758 C   0  0  1  0  0  0  0  0  0  0  0  0
   50.2194    8.6303   17.2178 C   0  0  0  0  0  0  0  0  0  0  0  0
   48.8744    8.8236   15.1681 O   0  0  0  0  0  0  0  0  0  0  0  0
   49.7878    9.1100   14.1964 C   0  0  0  0  0  0  0  0  0  0  0  0
   50.8326    9.7148   14.3964 O   0  0  0  0  0  0  0  0  0  0  0  0
   49.4139    8.4649   12.8647 C   0  0  2  0  0  0  0  0  0  0  0  0
   50.1027    9.1853   11.6930 C   0  0  0  0  0  0  0  0  0  0  0  0
   49.5442   10.4678   11.4119 O   0  0  0  0  0  0  0  0  0  0  0  0
   47.9237    8.2765   12.5955 C   0  0  0  0  0  0  0  0  0  0  0  0
   47.4609    7.0595   12.0697 C   0  0  0  0  0  0  0  0  0  0  0  0
   46.1072    6.8793   11.7801 C   0  0  0  0  0  0  0  0  0  0  0  0
   45.1998    7.9121   12.0053 C   0  0  0  0  0  0  0  0  0  0  0  0
   45.6434    9.1256   12.5251 C   0  0  0  0  0  0  0  0  0  0  0  0
   46.9962    9.3083   12.8162 C   0  0  0  0  0  0  0  0  0  0  0  0
   48.7344    8.9926   15.5311 S   0  0  0  0  0  0  0  0  0  0  0  0
   49.5158    7.8750   15.0600 O   0  0  0  0  0  0  0  0  0  0  0  0
   48.0807    8.5557   16.9305 O   0  0  0  0  0  0  0  0  0  0  0  0
   47.4407    9.0941   14.5857 O   0  0  0  0  0  0  0  0  0  0  0  0
   49.2861   10.3088   15.7299 O   0  0  0  0  0  0  0  0  0  0  0  0
   48.6201    9.1594   15.5943 O   0  0  0  0  0  0  0  0  0  0  0  0
   48.6218    9.1600   15.6018 O   0  0  0  0  0  0  0  0  0  0  0  0
   49.1728   10.2088   20.8981 H   0  0  0  0  0  0  0  0  0  0  0  0
   50.7308   10.7101   20.2218 H   0  0  0  0  0  0  0  0  0  0  0  0
   50.5598    9.1099   20.9277 H   0  0  0  0  0  0  0  0  0  0  0  0
   49.0145    7.4739   19.8802 H   0  0  0  0  0  0  0  0  0  0  0  0
   46.5863    8.2381   18.8520 H   0  0  0  0  0  0  0  0  0  0  0  0
   47.1908    8.9236   20.3616 H   0  0  0  0  0  0  0  0  0  0  0  0
   47.3284   10.9668   19.4161 H   0  0  0  0  0  0  0  0  0  0  0  0
   46.7880   10.3384   17.8554 H   0  0  0  0  0  0  0  0  0  0  0  0
   49.3545   11.3043   18.2364 H   0  0  0  0  0  0  0  0  0  0  0  0
   49.9019   10.3533   16.2237 H   0  0  0  0  0  0  0  0  0  0  0  0
   48.1893   10.0477   16.1345 H   0  0  0  0  0  0  0  0  0  0  0  0
   50.5111    8.1738   16.6052 H   0  0  0  0  0  0  0  0  0  0  0  0
   49.4882    6.5635   17.8293 H   0  0  0  0  0  0  0  0  0  0  0  0
   47.8545    7.0482   17.4455 H   0  0  0  0  0  0  0  0  0  0  0  0
   48.6814    6.4761   13.2182 H   0  0  0  0  0  0  0  0  0  0  0  0
   50.7131    6.7536   12.0192 H   0  0  0  0  0  0  0  0  0  0  0  0
   49.3810    7.0668   10.9019 H   0  0  0  0  0  0  0  0  0  0  0  0
   50.9727    9.0123   12.2336 H   0  0  0  0  0  0  0  0  0  0  0  0
   46.3673    6.5997   13.3264 H   0  0  0  0  0  0  0  0  0  0  0  0
   44.2429    7.7722   12.9047 H   0  0  0  0  0  0  0  0  0  0  0  0
   44.2435   10.0989   12.0461 H   0  0  0  0  0  0  0  0  0  0  0  0
   46.3948   11.2553   11.6111 H   0  0  0  0  0  0  0  0  0  0  0  0
   48.5275   10.1095   12.0165 H   0  0  0  0  0  0  0  0  0  0  0  0
   50.3762   10.5531   20.7176 H   0  0  0  0  0  0  0  0  0  0  0  0
   48.6965   11.0701   20.7131 H   0  0  0  0  0  0  0  0  0  0  0  0
   49.1034    9.4217   21.2078 H   0  0  0  0  0  0  0  0  0  0  0  0
   51.0852    8.7263   19.1957 H   0  0  0  0  0  0  0  0  0  0  0  0
   49.6066    7.2313   20.3011 H   0  0  0  0  0  0  0  0  0  0  0  0
   49.4759    6.5587   18.6745 H   0  0  0  0  0  0  0  0  0  0  0  0
   47.4394    7.8461   20.2552 H   0  0  0  0  0  0  0  0  0  0  0  0
   47.2491    7.2423   18.6072 H   0  0  0  0  0  0  0  0  0  0  0  0
   47.0859    9.9382   19.1984 H   0  0  0  0  0  0  0  0  0  0  0  0
   47.0990    8.6142   16.8459 H   0  0  0  0  0  0  0  0  0  0  0  0
   47.2560   10.3510   16.9418 H   0  0  0  0  0  0  0  0  0  0  0  0
   49.4208   10.4356   16.3466 H   0  0  0  0  0  0  0  0  0  0  0  0
   51.1748    9.0963   16.9438 H   0  0  0  0  0  0  0  0  0  0  0  0
   50.2901    7.5980   16.8561 H   0  0  0  0  0  0  0  0  0  0  0  0
   49.8650    7.4638   12.9356 H   0  0  0  0  0  0  0  0  0  0  0  0
   51.1694    9.3307   11.8929 H   0  0  0  0  0  0  0  0  0  0  0  0
   50.0301    8.5862   10.7782 H   0  0  0  0  0  0  0  0  0  0  0  0
   48.6960   10.3211   10.9540 H   0  0  0  0  0  0  0  0  0  0  0  0
   48.1513    6.2407   11.8762 H   0  0  0  0  0  0  0  0  0  0  0  0
   45.7597    5.9311   11.3789 H   0  0  0  0  0  0  0  0  0  0  0  0
   44.1465    7.7700   11.7789 H   0  0  0  0  0  0  0  0  0  0  0  0
   44.9366    9.9322   12.7021 H   0  0  0  0  0  0  0  0  0  0  0  0
   47.3208   10.2677   13.2163 H   0  0  0  0  0  0  0  0  0  0  0  0
   48.6400    8.9329   17.6438 H   0  0  0  0  0  0  0  0  0  0  0  0
   47.0807    8.1897   14.4768 H   0  0  0  0  0  0  0  0  0  0  0  0
   48.4981    8.8085   16.4890 H   0  0  0  0  0  0  0  0  0  0  0  0
   48.0726    8.5817   15.0417 H   0  0  0  0  0  0  0  0  0  0  0  0
   48.0798    8.5930   15.0328 H   0  0  0  0  0  0  0  0  0  0  0  0
   48.4890    8.7966   16.4902 H   0  0  0  0  0  0  0  0  0  0  0  0
  1  2  1  0
  3  2  1  0
  3  4  1  0
  4  5  1  0
  6  5  1  0
  6  2  1  0
  6  7  1  0
  7  8  1  0
  8  9  1  0
  3  9  1  0
  8 10  1  0
 10 11  1  0
 11 12  2  0
 11 13  1  0
 13 14  1  0
 14 15  1  0
 13 16  1  0
 16 17  2  0
 17 18  1  0
 18 19  2  0
 19 20  1  0
 20 21  2  0
 16 21  1  0
 22 23  1  0
 24 23  1  0
 24 25  1  0
 25 26  1  0
 27 26  1  0
 27 23  1  0
 27 28  1  0
 28 29  1  0
 29 30  1  0
 24 30  1  0
 29 31  1  0
 31 32  1  0
 32 33  2  0
 32 34  1  0
 34 35  1  0
 35 36  1  0
 34 37  1  0
 37 38  2  0
 38 39  1  0
 39 40  2  0
 40 41  1  0
 41 42  2  0
 37 42  1  0
 43 44  2  0
 43 45  1  0
 43 46  1  0
 43 47  2  0
  1 50  1  0
  1 51  1  0
  1 52  1  0
  3 53  1  1
  4 54  1  0
  4 55  1  0
  5 56  1  0
  5 57  1  0
  6 58  1  6
  7 59  1  0
  7 60  1  0
  8 61  1  1
  9 62  1  0
  9 63  1  0
 13 64  1  1
 14 65  1  0
 14 66  1  0
 15 67  1  0
 17 68  1  0
 18 69  1  0
 19 70  1  0
 20 71  1  0
 21 72  1  0
 22 73  1  0
 22 74  1  0
 22 75  1  0
 24 76  1  1
 25 77  1  0
 25 78  1  0
 26 79  1  0
 26 80  1  0
 27 81  1  6
 28 82  1  0
 28 83  1  0
 29 84  1  6
 30 85  1  0
 30 86  1  0
 34 87  1  1
 35 88  1  0
 35 89  1  0
 36 90  1  0
 38 91  1  0
 39 92  1  0
 40 93  1  0
 41 94  1  0
 42 95  1  0
 45 96  1  0
 46 97  1  0
 48 98  1  0
 48 99  1  0
 49100  1  0
 49101  1  0
M  END
> <Uni-Dock RESULT> 
ENERGY=   -6.496  LOWER_BOUND=    0.000  UPPER_BOUND=    0.000
INTER + INTRA:          -6.496
INTER:                  -6.496
INTRA:                   0.000
UNBOUND:                 0.000

$$$$

     RDKit          3D

101102  0  0  0  0  0  0  0  0999 V2000
   50.0373    9.8640   20.3376 C   0  0  0  0  0  0  0  0  0  0  0  0
   49.7085    9.3188   19.0236 N   0  0  0  0  0  0  0  0  0  0  0  0
   48.7707    8.1836   19.0866 C   0  0  1  0  0  0  0  0  0  0  0  0
   47.3970    8.8281   19.2977 C   0  0  0  0  0  0  0  0  0  0  0  0
   47.5225   10.2068   18.6614 C   0  0  0  0  0  0  0  0  0  0  0  0
   48.9754   10.2773   18.1739 C   0  0  2  0  0  0  0  0  0  0  0  0
   49.0906    9.7943   16.7157 C   0  0  0  0  0  0  0  0  0  0  0  0
   49.4132    8.2953   16.5946 C   0  0  1  0  0  0  0  0  0  0  0  0
   48.8290    7.4440   17.7355 C   0  0  0  0  0  0  0  0  0  0  0  0
   48.9076    7.7695   15.3492 O   0  0  0  0  0  0  0  0  0  0  0  0
   49.6179    8.0690   14.2233 C   0  0  0  0  0  0  0  0  0  0  0  0
   50.6717    8.6958   14.1962 O   0  0  0  0  0  0  0  0  0  0  0  0
   48.9185    7.5133   12.9952 C   0  0  2  0  0  0  0  0  0  0  0  0
   49.8936    7.4304   11.8045 C   0  0  0  0  0  0  0  0  0  0  0  0
   50.5003    8.6724   11.4514 O   0  0  0  0  0  0  0  0  0  0  0  0
   47.6208    8.2497   12.6992 C   0  0  0  0  0  0  0  0  0  0  0  0
   46.3910    7.6186   12.9493 C   0  0  0  0  0  0  0  0  0  0  0  0
   45.1855    8.2842   12.7143 C   0  0  0  0  0  0  0  0  0  0  0  0
   45.1907    9.5907   12.2314 C   0  0  0  0  0  0  0  0  0  0  0  0
   46.4014   10.2332   11.9858 C   0  0  0  0  0  0  0  0  0  0  0  0
   47.6082    9.5684   12.2205 C   0  0  0  0  0  0  0  0  0  0  0  0
   49.3522   10.2227   20.5109 C   0  0  0  0  0  0  0  0  0  0  0  0
   49.2352    9.8341   19.1075 N   0  0  0  0  0  0  0  0  0  0  0  0
   50.0772    8.6746   18.7628 C   0  0  1  0  0  0  0  0  0  0  0  0
   49.2988    7.4617   19.2826 C   0  0  0  0  0  0  0  0  0  0  0  0
   47.8429    7.9036   19.2518 C   0  0  0  0  0  0  0  0  0  0  0  0
   47.8879    9.3534   18.7546 C   0  0  2  0  0  0  0  0  0  0  0  0
   47.7564    9.4145   17.2223 C   0  0  0  0  0  0  0  0  0  0  0  0
   49.1067    9.3857   16.4844 C   0  0  1  0  0  0  0  0  0  0  0  0
   50.2145    8.6225   17.2296 C   0  0  0  0  0  0  0  0  0  0  0  0
   48.8735    8.8180   15.1774 O   0  0  0  0  0  0  0  0  0  0  0  0
   49.7896    9.0985   14.2066 C   0  0  0  0  0  0  0  0  0  0  0  0
   50.8368    9.6991   14.4071 O   0  0  0  0  0  0  0  0  0  0  0  0
   49.4149    8.4527   12.8756 C   0  0  2  0  0  0  0  0  0  0  0  0
   50.1087    9.1679   11.7036 C   0  0  0  0  0  0  0  0  0  0  0  0
   49.5563   10.4524   11.4193 O   0  0  0  0  0  0  0  0  0  0  0  0
   47.9242    8.2705   12.6044 C   0  0  0  0  0  0  0  0  0  0  0  0
   47.4568    7.0546   12.0801 C   0  0  0  0  0  0  0  0  0  0  0  0
   46.1028    6.8799   11.7888 C   0  0  0  0  0  0  0  0  0  0  0  0
   45.1997    7.9171   12.0107 C   0  0  0  0  0  0  0  0  0  0  0  0
   45.6479    9.1295   12.5290 C   0  0  0  0  0  0  0  0  0  0  0  0
   47.0011    9.3068   12.8218 C   0  0  0  0  0  0  0  0  0  0  0  0
   48.7337    8.9883   15.5399 S   0  0  0  0  0  0  0  0  0  0  0  0
   49.5108    7.8664   15.0720 O   0  0  0  0  0  0  0  0  0  0  0  0
   48.0759    8.5569   16.9391 O   0  0  0  0  0  0  0  0  0  0  0  0
   47.4419    9.0939   14.5924 O   0  0  0  0  0  0  0  0  0  0  0  0
   49.2909   10.3024   15.7372 O   0  0  0  0  0  0  0  0  0  0  0  0
   48.6201    9.1558   15.6026 O   0  0  0  0  0  0  0  0  0  0  0  0
   48.6218    9.1563   15.6101 O   0  0  0  0  0  0  0  0  0  0  0  0
   49.1694   10.2123   20.9054 H   0  0  0  0  0  0  0  0  0  0  0  0
   50.7306   10.7055   20.2305 H   0  0  0  0  0  0  0  0  0  0  0  0
   50.5514    9.1074   20.9390 H   0  0  0  0  0  0  0  0  0  0  0  0
   49.0004    7.4764   19.8922 H   0  0  0  0  0  0  0  0  0  0  0  0
   46.5773    8.2495   18.8589 H   0  0  0  0  0  0  0  0  0  0  0  0
   47.1825    8.9350   20.3681 H   0  0  0  0  0  0  0  0  0  0  0  0
   47.3306   10.9759   19.4192 H   0  0  0  0  0  0  0  0  0  0  0  0
   46.7898   10.3470   17.8588 H   0  0  0  0  0  0  0  0  0  0  0  0
   49.3599   11.3022   18.2420 H   0  0  0  0  0  0  0  0  0  0  0  0
   49.9062   10.3451   16.2319 H   0  0  0  0  0  0  0  0  0  0  0  0
   48.1924   10.0469   16.1406 H   0  0  0  0  0  0  0  0  0  0  0  0
   50.5051    8.1635   16.6182 H   0  0  0  0  0  0  0  0  0  0  0  0
   49.4731    6.5601   17.8437 H   0  0  0  0  0  0  0  0  0  0  0  0
   47.8422    7.0513   17.4565 H   0  0  0  0  0  0  0  0  0  0  0  0
   48.6730    6.4679   13.2315 H   0  0  0  0  0  0  0  0  0  0  0  0
   50.7077    6.7341   12.0351 H   0  0  0  0  0  0  0  0  0  0  0  0
   49.3787    7.0512   10.9152 H   0  0  0  0  0  0  0  0  0  0  0  0
   50.9770    8.9920   12.2458 H   0  0  0  0  0  0  0  0  0  0  0  0
   46.3593    6.6019   13.3359 H   0  0  0  0  0  0  0  0  0  0  0  0
   44.2408    7.7831   12.9089 H   0  0  0  0  0  0  0  0  0  0  0  0
   44.2531   10.1083   12.0461 H   0  0  0  0  0  0  0  0  0  0  0  0
   46.4101   11.2542   11.6122 H   0  0  0  0  0  0  0  0  0  0  0  0
   48.5371   10.0997   12.0229 H   0  0  0  0  0  0  0  0  0  0  0  0
   50.3746   10.5510   20.7260 H   0  0  0  0  0  0  0  0  0  0  0  0
   48.6972   11.0755   20.7180 H   0  0  0  0  0  0  0  0  0  0  0  0
   49.0960    9.4261   21.2164 H   0  0  0  0  0  0  0  0  0  0  0  0
   51.0777    8.7182   19.2086 H   0  0  0  0  0  0  0  0  0  0  0  0
   49.5908    7.2319   20.3144 H   0  0  0  0  0  0  0  0  0  0  0  0
   49.4595    6.5569   18.6889 H   0  0  0  0  0  0  0  0  0  0  0  0
   47.4264    7.8562   20.2641 H   0  0  0  0  0  0  0  0  0  0  0  0
   47.2359    7.2503   18.6169 H   0  0  0  0  0  0  0  0  0  0  0  0
   47.0839    9.9479   19.2029 H   0  0  0  0  0  0  0  0  0  0  0  0
   47.0947    8.6196   16.8529 H   0  0  0  0  0  0  0  0  0  0  0  0
   47.2593   10.3558   16.9459 H   0  0  0  0  0  0  0  0  0  0  0  0
   49.4253   10.4297   16.3539 H   0  0  0  0  0  0  0  0  0  0  0  0
   51.1724    9.0837   16.9562 H   0  0  0  0  0  0  0  0  0  0  0  0
   50.2811    7.5892   16.8699 H   0  0  0  0  0  0  0  0  0  0  0  0
   49.8614    7.4497   12.9489 H   0  0  0  0  0  0  0  0  0  0  0  0
   51.1757    9.3090   11.9048 H   0  0  0  0  0  0  0  0  0  0  0  0
   50.0347    8.5674   10.7897 H   0  0  0  0  0  0  0  0  0  0  0  0
   48.7082   10.3086   10.9603 H   0  0  0  0  0  0  0  0  0  0  0  0
   48.1439    6.2323   11.8892 H   0  0  0  0  0  0  0  0  0  0  0  0
   45.7517    5.9325   11.3888 H   0  0  0  0  0  0  0  0  0  0  0  0
   44.1461    7.7792   11.7830 H   0  0  0  0  0  0  0  0  0  0  0  0
   44.9444    9.9396   12.7034 H   0  0  0  0  0  0  0  0  0  0  0  0
   47.3293   10.2655   13.2206 H   0  0  0  0  0  0  0  0  0  0  0  0
   48.6358    8.9329   17.6526 H   0  0  0  0  0  0  0  0  0  0  0  0
   47.0780    8.1909   14.4845 H   0  0  0  0  0  0  0  0  0  0  0  0
   48.4952    8.8070   16.4977 H   0  0  0  0  0  0  0  0  0  0  0  0
   48.0708    8.5795   15.0503 H   0  0  0  0  0  0  0  0  0  0  0  0
   48.0781    8.5907   15.0413 H   0  0  0  0  0  0  0  0  0  0  0  0
   48.4860    8.7951   16.4990 H   0  0  0  0  0  0  0  0  0  0  0  0
  1  2  1  0
  3  2  1  0
  3  4  1  0
  4  5  1  0
  6  5  1  0
  6  2  1  0
  6  7  1  0
  7  8  1  0
  8  9  1  0
  3  9  1  0
  8 10  1  0
 10 11  1  0
 11 12  2  0
 11 13  1  0
 13 14  1  0
 14 15  1  0
 13 16  1  0
 16 17  2  0
 17 18  1  0
 18 19  2  0
 19 20  1  0
 20 21  2  0
 16 21  1  0
 22 23  1  0
 24 23  1  0
 24 25  1  0
 25 26  1  0
 27 26  1  0
 27 23  1  0
 27 28  1  0
 28 29  1  0
 29 30  1  0
 24 30  1  0
 29 31  1  0
 31 32  1  0
 32 33  2  0
 32 34  1  0
 34 35  1  0
 35 36  1  0
 34 37  1  0
 37 38  2  0
 38 39  1  0
 39 40  2  0
 40 41  1  0
 41 42  2  0
 37 42  1  0
 43 44  2  0
 43 45  1  0
 43 46  1  0
 43 47  2  0
  1 50  1  0
  1 51  1  0
  1 52  1  0
  3 53  1  1
  4 54  1  0
  4 55  1  0
  5 56  1  0
  5 57  1  0
  6 58  1  6
  7 59  1  0
  7 60  1  0
  8 61  1  1
  9 62  1  0
  9 63  1  0
 13 64  1  1
 14 65  1  0
 14 66  1  0
 15 67  1  0
 17 68  1  0
 18 69  1  0
 19 70  1  0
 20 71  1  0
 21 72  1  0
 22 73  1  0
 22 74  1  0
 22 75  1  0
 24 76  1  1
 25 77  1  0
 25 78  1  0
 26 79  1  0
 26 80  1  0
 27 81  1  6
 28 82  1  0
 28 83  1  0
 29 84  1  6
 30 85  1  0
 30 86  1  0
 34 87  1  1
 35 88  1  0
 35 89  1  0
 36 90  1  0
 38 91  1  0
 39 92  1  0
 40 93  1  0
 41 94  1  0
 42 95  1  0
 45 96  1  0
 46 97  1  0
 48 98  1  0
 48 99  1  0
 49100  1  0
 49101  1  0
M  END
> <Uni-Dock RESULT> 
ENERGY=   -6.491  LOWER_BOUND=    0.013  UPPER_BOUND=    0.013
INTER + INTRA:          -6.491
INTER:                  -6.491
INTRA:                   0.000
UNBOUND:                 0.000

$$$$

     RDKit          3D

101102  0  0  0  0  0  0  0  0999 V2000
   43.9355    4.1287   10.1068 C   0  0  0  0  0  0  0  0  0  0  0  0
   44.5655    5.0815   11.0165 N   0  0  0  0  0  0  0  0  0  0  0  0
   43.7248    5.4116   12.1812 C   0  0  1  0  0  0  0  0  0  0  0  0
   43.8866    4.2165   13.1261 C   0  0  0  0  0  0  0  0  0  0  0  0
   45.2670    3.6594   12.8010 C   0  0  0  0  0  0  0  0  0  0  0  0
   45.7812    4.5427   11.6567 C   0  0  2  0  0  0  0  0  0  0  0  0
   46.5907    5.7343   12.2025 C   0  0  0  0  0  0  0  0  0  0  0  0
   45.7406    6.9964   12.4260 C   0  0  1  0  0  0  0  0  0  0  0  0
   44.2838    6.6976   12.8211 C   0  0  0  0  0  0  0  0  0  0  0  0
   46.3188    7.8170   13.4630 O   0  0  0  0  0  0  0  0  0  0  0  0
   47.4178    8.5511   13.1233 C   0  0  0  0  0  0  0  0  0  0  0  0
   47.9119    8.6098   12.0024 O   0  0  0  0  0  0  0  0  0  0  0  0
   47.9507    9.2944   14.3357 C   0  0  2  0  0  0  0  0  0  0  0  0
   48.8708   10.4526   13.9027 C   0  0  0  0  0  0  0  0  0  0  0  0
   49.9793   10.0558   13.0972 O   0  0  0  0  0  0  0  0  0  0  0  0
   48.5634    8.3485   15.3572 C   0  0  0  0  0  0  0  0  0  0  0  0
   47.8848    8.0898   16.5596 C   0  0  0  0  0  0  0  0  0  0  0  0
   48.4117    7.2020   17.5008 C   0  0  0  0  0  0  0  0  0  0  0  0
   49.6206    6.5562   17.2526 C   0  0  0  0  0  0  0  0  0  0  0  0
   50.3020    6.7957   16.0621 C   0  0  0  0  0  0  0  0  0  0  0  0
   49.7759    7.6837   15.1197 C   0  0  0  0  0  0  0  0  0  0  0  0
   43.9884    3.4693   10.5432 C   0  0  0  0  0  0  0  0  0  0  0  0
   44.8012    4.4585   11.2467 N   0  0  0  0  0  0  0  0  0  0  0  0
   44.3747    5.8438   10.9797 C   0  0  1  0  0  0  0  0  0  0  0  0
   43.1463    6.0502   11.8716 C   0  0  0  0  0  0  0  0  0  0  0  0
   43.3568    5.0921   13.0351 C   0  0  0  0  0  0  0  0  0  0  0  0
   44.6715    4.3721   12.7117 C   0  0  2  0  0  0  0  0  0  0  0  0
   45.8710    5.1111   13.3315 C   0  0  0  0  0  0  0  0  0  0  0  0
   46.5055    6.1544   12.3947 C   0  0  1  0  0  0  0  0  0  0  0  0
   45.5201    6.7854   11.3968 C   0  0  0  0  0  0  0  0  0  0  0  0
   47.1219    7.1627   13.2242 O   0  0  0  0  0  0  0  0  0  0  0  0
   48.1041    7.9190   12.6552 C   0  0  0  0  0  0  0  0  0  0  0  0
   48.4071    7.8680   11.4707 O   0  0  0  0  0  0  0  0  0  0  0  0
   48.6792    8.9304   13.6428 C   0  0  2  0  0  0  0  0  0  0  0  0
   50.0795    9.3916   13.2037 C   0  0  0  0  0  0  0  0  0  0  0  0
   51.0855    8.3970   13.3892 O   0  0  0  0  0  0  0  0  0  0  0  0
   48.6694    8.5249   15.1140 C   0  0  0  0  0  0  0  0  0  0  0  0
   48.2563    9.4493   16.0869 C   0  0  0  0  0  0  0  0  0  0  0  0
   48.2759    9.1120   17.4415 C   0  0  0  0  0  0  0  0  0  0  0  0
   48.7134    7.8517   17.8426 C   0  0  0  0  0  0  0  0  0  0  0  0
   49.1276    6.9242   16.8899 C   0  0  0  0  0  0  0  0  0  0  0  0
   49.1085    7.2585   15.5348 C   0  0  0  0  0  0  0  0  0  0  0  0
   46.9455    6.7805   13.1715 S   0  0  0  0  0  0  0  0  0  0  0  0
   46.6329    8.1775   12.9923 O   0  0  0  0  0  0  0  0  0  0  0  0
   45.5568    6.0125   13.4126 O   0  0  0  0  0  0  0  0  0  0  0  0
   47.6502    6.6363   14.6069 O   0  0  0  0  0  0  0  0  0  0  0  0
   47.6773    6.0082   12.1997 O   0  0  0  0  0  0  0  0  0  0  0  0
   46.9978    6.5770   13.1986 O   0  0  0  0  0  0  0  0  0  0  0  0
   46.9926    6.5733   13.1943 O   0  0  0  0  0  0  0  0  0  0  0  0
   43.6685    3.1762   10.5741 H   0  0  0  0  0  0  0  0  0  0  0  0
   44.6047    3.9164    9.2658 H   0  0  0  0  0  0  0  0  0  0  0  0
   43.0245    4.5625    9.6823 H   0  0  0  0  0  0  0  0  0  0  0  0
   42.6708    5.5685   11.9239 H   0  0  0  0  0  0  0  0  0  0  0  0
   43.7946    4.4871   14.1832 H   0  0  0  0  0  0  0  0  0  0  0  0
   43.1244    3.4555   12.9180 H   0  0  0  0  0  0  0  0  0  0  0  0
   45.1707    2.6176   12.4726 H   0  0  0  0  0  0  0  0  0  0  0  0
   45.9206    3.6672   13.6805 H   0  0  0  0  0  0  0  0  0  0  0  0
   46.4140    3.9646   10.9725 H   0  0  0  0  0  0  0  0  0  0  0  0
   47.3684    5.9880   11.4722 H   0  0  0  0  0  0  0  0  0  0  0  0
   47.1320    5.4627   13.1160 H   0  0  0  0  0  0  0  0  0  0  0  0
   45.7107    7.5752   11.4909 H   0  0  0  0  0  0  0  0  0  0  0  0
   43.6758    7.5509   12.4891 H   0  0  0  0  0  0  0  0  0  0  0  0
   44.1783    6.6741   13.9138 H   0  0  0  0  0  0  0  0  0  0  0  0
   47.0817    9.7832   14.7994 H   0  0  0  0  0  0  0  0  0  0  0  0
   48.3014   11.1853   13.3198 H   0  0  0  0  0  0  0  0  0  0  0  0
   49.2710   10.9708   14.7808 H   0  0  0  0  0  0  0  0  0  0  0  0
   49.6107    9.6140   12.3039 H   0  0  0  0  0  0  0  0  0  0  0  0
   46.9339    8.5737   16.7735 H   0  0  0  0  0  0  0  0  0  0  0  0
   47.8781    7.0133   18.4286 H   0  0  0  0  0  0  0  0  0  0  0  0
   50.0323    5.8672   17.9856 H   0  0  0  0  0  0  0  0  0  0  0  0
   51.2441    6.2911   15.8628 H   0  0  0  0  0  0  0  0  0  0  0  0
   50.3302    7.8457   14.1974 H   0  0  0  0  0  0  0  0  0  0  0  0
   44.1035    3.5893    9.4608 H   0  0  0  0  0  0  0  0  0  0  0  0
   44.3350    2.4596   10.7871 H   0  0  0  0  0  0  0  0  0  0  0  0
   42.9208    3.5215   10.7788 H   0  0  0  0  0  0  0  0  0  0  0  0
   44.1294    6.0261    9.9270 H   0  0  0  0  0  0  0  0  0  0  0  0
   42.2308    5.7775   11.3328 H   0  0  0  0  0  0  0  0  0  0  0  0
   43.0281    7.0826   12.2141 H   0  0  0  0  0  0  0  0  0  0  0  0
   42.5263    4.3785   13.0741 H   0  0  0  0  0  0  0  0  0  0  0  0
   43.3806    5.6200   13.9937 H   0  0  0  0  0  0  0  0  0  0  0  0
   44.6582    3.3424   13.0862 H   0  0  0  0  0  0  0  0  0  0  0  0
   45.5975    5.5672   14.2925 H   0  0  0  0  0  0  0  0  0  0  0  0
   46.6541    4.3774   13.5726 H   0  0  0  0  0  0  0  0  0  0  0  0
   47.2977    5.6419   11.8306 H   0  0  0  0  0  0  0  0  0  0  0  0
   46.0891    7.0514   10.4966 H   0  0  0  0  0  0  0  0  0  0  0  0
   45.1344    7.7360   11.7831 H   0  0  0  0  0  0  0  0  0  0  0  0
   48.0080    9.7957   13.5352 H   0  0  0  0  0  0  0  0  0  0  0  0
   50.0878    9.6706   12.1449 H   0  0  0  0  0  0  0  0  0  0  0  0
   50.3856   10.2797   13.7683 H   0  0  0  0  0  0  0  0  0  0  0  0
   51.2867    8.3617   14.3426 H   0  0  0  0  0  0  0  0  0  0  0  0
   47.9190   10.4434   15.7996 H   0  0  0  0  0  0  0  0  0  0  0  0
   47.9484    9.8335   18.1850 H   0  0  0  0  0  0  0  0  0  0  0  0
   48.7281    7.5912   18.8975 H   0  0  0  0  0  0  0  0  0  0  0  0
   49.4685    5.9402   17.2012 H   0  0  0  0  0  0  0  0  0  0  0  0
   49.4426    6.5192   14.8084 H   0  0  0  0  0  0  0  0  0  0  0  0
   45.2917    5.6137   12.5555 H   0  0  0  0  0  0  0  0  0  0  0  0
   47.1274    7.1605   15.2484 H   0  0  0  0  0  0  0  0  0  0  0  0
   46.0823    6.2719   13.1132 H   0  0  0  0  0  0  0  0  0  0  0  0
   47.0120    7.0321   14.0539 H   0  0  0  0  0  0  0  0  0  0  0  0
   47.0265    7.0325   14.0470 H   0  0  0  0  0  0  0  0  0  0  0  0
   46.0731    6.2753   13.1246 H   0  0  0  0  0  0  0  0  0  0  0  0
  1  2  1  0
  3  2  1  0
  3  4  1  0
  4  5  1  0
  6  5  1  0
  6  2  1  0
  6  7  1  0
  7  8  1  0
  8  9  1  0
  3  9  1  0
  8 10  1  0
 10 11  1  0
 11 12  2  0
 11 13  1  0
 13 14  1  0
 14 15  1  0
 13 16  1  0
 16 17  2  0
 17 18  1  0
 18 19  2  0
 19 20  1  0
 20 21  2  0
 16 21  1  0
 22 23  1  0
 24 23  1  0
 24 25  1  0
 25 26  1  0
 27 26  1  0
 27 23  1  0
 27 28  1  0
 28 29  1  0
 29 30  1  0
 24 30  1  0
 29 31  1  0
 31 32  1  0
 32 33  2  0
 32 34  1  0
 34 35  1  0
 35 36  1  0
 34 37  1  0
 37 38  2  0
 38 39  1  0
 39 40  2  0
 40 41  1  0
 41 42  2  0
 37 42  1  0
 43 44  2  0
 43 45  1  0
 43 46  1  0
 43 47  2  0
  1 50  1  0
  1 51  1  0
  1 52  1  0
  3 53  1  1
  4 54  1  0
  4 55  1  0
  5 56  1  0
  5 57  1  0
  6 58  1  6
  7 59  1  0
  7 60  1  0
  8 61  1  1
  9 62  1  0
  9 63  1  0
 13 64  1  1
 14 65  1  0
 14 66  1  0
 15 67  1  0
 17 68  1  0
 18 69  1  0
 19 70  1  0
 20 71  1  0
 21 72  1  0
 22 73  1  0
 22 74  1  0
 22 75  1  0
 24 76  1  1
 25 77  1  0
 25 78  1  0
 26 79  1  0
 26 80  1  0
 27 81  1  6
 28 82  1  0
 28 83  1  0
 29 84  1  6
 30 85  1  0
 30 86  1  0
 34 87  1  1
 35 88  1  0
 35 89  1  0
 36 90  1  0
 38 91  1  0
 39 92  1  0
 40 93  1  0
 41 94  1  0
 42 95  1  0
 45 96  1  0
 46 97  1  0
 48 98  1  0
 48 99  1  0
 49100  1  0
 49101  1  0
M  END
> <Uni-Dock RESULT> 
ENERGY=   -6.410  LOWER_BOUND=    3.041  UPPER_BOUND=    6.450
INTER + INTRA:          -6.410
INTER:                  -6.410
INTRA:                   0.000
UNBOUND:                 0.000

$$$$

     RDKit          3D

101102  0  0  0  0  0  0  0  0999 V2000
   50.0126   10.3786   20.3565 C   0  0  0  0  0  0  0  0  0  0  0  0
   49.5043    9.7717   19.1295 N   0  0  0  0  0  0  0  0  0  0  0  0
   48.1398    9.2333   19.2728 C   0  0  1  0  0  0  0  0  0  0  0  0
   47.2284   10.4617   19.1871 C   0  0  0  0  0  0  0  0  0  0  0  0
   48.0096   11.4558   18.3367 C   0  0  0  0  0  0  0  0  0  0  0  0
   49.3370   10.7481   18.0354 C   0  0  2  0  0  0  0  0  0  0  0  0
   49.2534    9.9611   16.7138 C   0  0  0  0  0  0  0  0  0  0  0  0
   48.8325    8.4941   16.9044 C   0  0  1  0  0  0  0  0  0  0  0  0
   47.8816    8.2742   18.0941 C   0  0  0  0  0  0  0  0  0  0  0  0
   48.1756    7.9995   15.7183 O   0  0  0  0  0  0  0  0  0  0  0  0
   48.9763    7.6889   14.6578 C   0  0  0  0  0  0  0  0  0  0  0  0
   50.2014    7.7436   14.6551 O   0  0  0  0  0  0  0  0  0  0  0  0
   48.1340    7.2607   13.4689 C   0  0  2  0  0  0  0  0  0  0  0  0
   48.9890    6.4853   12.4475 C   0  0  0  0  0  0  0  0  0  0  0  0
   50.1209    7.2036   11.9596 O   0  0  0  0  0  0  0  0  0  0  0  0
   47.3480    8.4233   12.8820 C   0  0  0  0  0  0  0  0  0  0  0  0
   45.9591    8.4937   13.0803 C   0  0  0  0  0  0  0  0  0  0  0  0
   45.2191    9.5665   12.5773 C   0  0  0  0  0  0  0  0  0  0  0  0
   45.8556   10.5864   11.8740 C   0  0  0  0  0  0  0  0  0  0  0  0
   47.2330   10.5355   11.6755 C   0  0  0  0  0  0  0  0  0  0  0  0
   47.9745    9.4628   12.1782 C   0  0  0  0  0  0  0  0  0  0  0  0
   49.5737   11.0382   20.3734 C   0  0  0  0  0  0  0  0  0  0  0  0
   49.3285   10.4505   19.0586 N   0  0  0  0  0  0  0  0  0  0  0  0
   49.5322    8.9910   19.0374 C   0  0  1  0  0  0  0  0  0  0  0  0
   48.2578    8.4123   19.6606 C   0  0  0  0  0  0  0  0  0  0  0  0
   47.1854    9.4507   19.3645 C   0  0  0  0  0  0  0  0  0  0  0  0
   47.9253   10.5730   18.6268 C   0  0  2  0  0  0  0  0  0  0  0  0
   47.8838   10.3519   17.1042 C   0  0  0  0  0  0  0  0  0  0  0  0
   49.0813    9.5508   16.5631 C   0  0  1  0  0  0  0  0  0  0  0  0
   49.6741    8.5495   17.5686 C   0  0  0  0  0  0  0  0  0  0  0  0
   48.6464    8.8825   15.3593 O   0  0  0  0  0  0  0  0  0  0  0  0
   49.6147    8.4955   14.4800 C   0  0  0  0  0  0  0  0  0  0  0  0
   50.8148    8.5800   14.7032 O   0  0  0  0  0  0  0  0  0  0  0  0
   49.0189    7.8190   13.2485 C   0  0  2  0  0  0  0  0  0  0  0  0
   50.0027    7.8647   12.0669 C   0  0  0  0  0  0  0  0  0  0  0  0
   50.1319    9.1631   11.4895 O   0  0  0  0  0  0  0  0  0  0  0  0
   47.6279    8.2822   12.8248 C   0  0  0  0  0  0  0  0  0  0  0  0
   46.6570    7.3318   12.4700 C   0  0  0  0  0  0  0  0  0  0  0  0
   45.3906    7.7349   12.0428 C   0  0  0  0  0  0  0  0  0  0  0  0
   45.0790    9.0900   11.9582 C   0  0  0  0  0  0  0  0  0  0  0  0
   46.0314   10.0449   12.3053 C   0  0  0  0  0  0  0  0  0  0  0  0
   47.2983    9.6447   12.7333 C   0  0  0  0  0  0  0  0  0  0  0  0
   48.5930    9.1721   15.6646 S   0  0  0  0  0  0  0  0  0  0  0  0
   48.7609    7.7477   15.5081 O   0  0  0  0  0  0  0  0  0  0  0  0
   47.7682    9.4045   17.0219 O   0  0  0  0  0  0  0  0  0  0  0  0
   47.5333    9.6457   14.5553 O   0  0  0  0  0  0  0  0  0  0  0  0
   49.6991   10.0952   15.6944 O   0  0  0  0  0  0  0  0  0  0  0  0
   48.5702    9.3821   15.6813 O   0  0  0  0  0  0  0  0  0  0  0  0
   48.5717    9.3834   15.6887 O   0  0  0  0  0  0  0  0  0  0  0  0
   49.3960   11.1985   20.7366 H   0  0  0  0  0  0  0  0  0  0  0  0
   51.0241   10.7654   20.1911 H   0  0  0  0  0  0  0  0  0  0  0  0
   50.0898    9.6223   21.1442 H   0  0  0  0  0  0  0  0  0  0  0  0
   47.9839    8.6938   20.2143 H   0  0  0  0  0  0  0  0  0  0  0  0
   46.2460   10.2405   18.7568 H   0  0  0  0  0  0  0  0  0  0  0  0
   47.0582   10.8849   20.1847 H   0  0  0  0  0  0  0  0  0  0  0  0
   48.1816   12.3720   18.9142 H   0  0  0  0  0  0  0  0  0  0  0  0
   47.4544   11.7360   17.4345 H   0  0  0  0  0  0  0  0  0  0  0  0
   50.1581   11.4720   17.9685 H   0  0  0  0  0  0  0  0  0  0  0  0
   50.2464    9.9593   16.2485 H   0  0  0  0  0  0  0  0  0  0  0  0
   48.5989   10.4633   15.9922 H   0  0  0  0  0  0  0  0  0  0  0  0
   49.7311    7.8877   17.0913 H   0  0  0  0  0  0  0  0  0  0  0  0
   48.0279    7.2414   18.4400 H   0  0  0  0  0  0  0  0  0  0  0  0
   46.8352    8.3244   17.7650 H   0  0  0  0  0  0  0  0  0  0  0  0
   47.4165    6.5219   13.8543 H   0  0  0  0  0  0  0  0  0  0  0  0
   49.3699    5.5634   12.9013 H   0  0  0  0  0  0  0  0  0  0  0  0
   48.3827    6.1990   11.5814 H   0  0  0  0  0  0  0  0  0  0  0  0
   50.6683    7.4351   12.7388 H   0  0  0  0  0  0  0  0  0  0  0  0
   45.4392    7.7150   13.6347 H   0  0  0  0  0  0  0  0  0  0  0  0
   44.1445    9.6071   12.7350 H   0  0  0  0  0  0  0  0  0  0  0  0
   45.2800   11.4202   11.4803 H   0  0  0  0  0  0  0  0  0  0  0  0
   47.7344   11.3312   11.1302 H   0  0  0  0  0  0  0  0  0  0  0  0
   49.0497    9.4548   12.0102 H   0  0  0  0  0  0  0  0  0  0  0  0
   50.6228   10.9023   20.6562 H   0  0  0  0  0  0  0  0  0  0  0  0
   49.3937   12.1179   20.3392 H   0  0  0  0  0  0  0  0  0  0  0  0
   48.9505   10.6213   21.1708 H   0  0  0  0  0  0  0  0  0  0  0  0
   50.4207    8.6696   19.5931 H   0  0  0  0  0  0  0  0  0  0  0  0
   48.3757    8.3057   20.7457 H   0  0  0  0  0  0  0  0  0  0  0  0
   47.9893    7.4289   19.2634 H   0  0  0  0  0  0  0  0  0  0  0  0
   46.7662    9.8202   20.3070 H   0  0  0  0  0  0  0  0  0  0  0  0
   46.3609    9.0253   18.7836 H   0  0  0  0  0  0  0  0  0  0  0  0
   47.4848   11.5502   18.8547 H   0  0  0  0  0  0  0  0  0  0  0  0
   46.9362    9.8871   16.8004 H   0  0  0  0  0  0  0  0  0  0  0  0
   47.8991   11.3307   16.6027 H   0  0  0  0  0  0  0  0  0  0  0  0
   49.8593   10.2781   16.2906 H   0  0  0  0  0  0  0  0  0  0  0  0
   50.7438    8.4512   17.3428 H   0  0  0  0  0  0  0  0  0  0  0  0
   49.2549    7.5490   17.4105 H   0  0  0  0  0  0  0  0  0  0  0  0
   48.9358    6.7659   13.5563 H   0  0  0  0  0  0  0  0  0  0  0  0
   51.0032    7.5438   12.3753 H   0  0  0  0  0  0  0  0  0  0  0  0
   49.6809    7.1811   11.2729 H   0  0  0  0  0  0  0  0  0  0  0  0
   49.3307    9.3256   10.9583 H   0  0  0  0  0  0  0  0  0  0  0  0
   46.8791    6.2674   12.5187 H   0  0  0  0  0  0  0  0  0  0  0  0
   44.6454    6.9902   11.7764 H   0  0  0  0  0  0  0  0  0  0  0  0
   44.0926    9.4017   11.6252 H   0  0  0  0  0  0  0  0  0  0  0  0
   45.7897   11.1027   12.2406 H   0  0  0  0  0  0  0  0  0  0  0  0
   48.0287   10.4093   12.9937 H   0  0  0  0  0  0  0  0  0  0  0  0
   48.4179    9.6292   17.7229 H   0  0  0  0  0  0  0  0  0  0  0  0
   46.7892    9.0088   14.5643 H   0  0  0  0  0  0  0  0  0  0  0  0
   48.2687    9.3330   16.6006 H   0  0  0  0  0  0  0  0  0  0  0  0
   47.8304    9.0149   15.1746 H   0  0  0  0  0  0  0  0  0  0  0  0
   47.8424    9.0192   15.1648 H   0  0  0  0  0  0  0  0  0  0  0  0
   48.2550    9.3273   16.6028 H   0  0  0  0  0  0  0  0  0  0  0  0
  1  2  1  0
  3  2  1  0
  3  4  1  0
  4  5  1  0
  6  5  1  0
  6  2  1  0
  6  7  1  0
  7  8  1  0
  8  9  1  0
  3  9  1  0
  8 10  1  0
 10 11  1  0
 11 12  2  0
 11 13  1  0
 13 14  1  0
 14 15  1  0
 13 16  1  0
 16 17  2  0
 17 18  1  0
 18 19  2  0
 19 20  1  0
 20 21  2  0
 16 21  1  0
 22 23  1  0
 24 23  1  0
 24 25  1  0
 25 26  1  0
 27 26  1  0
 27 23  1  0
 27 28  1  0
 28 29  1  0
 29 30  1  0
 24 30  1  0
 29 31  1  0
 31 32  1  0
 32 33  2  0
 32 34  1  0
 34 35  1  0
 35 36  1  0
 34 37  1  0
 37 38  2  0
 38 39  1  0
 39 40  2  0
 40 41  1  0
 41 42  2  0
 37 42  1  0
 43 44  2  0
 43 45  1  0
 43 46  1  0
 43 47  2  0
  1 50  1  0
  1 51  1  0
  1 52  1  0
  3 53  1  1
  4 54  1  0
  4 55  1  0
  5 56  1  0
  5 57  1  0
  6 58  1  6
  7 59  1  0
  7 60  1  0
  8 61  1  1
  9 62  1  0
  9 63  1  0
 13 64  1  1
 14 65  1  0
 14 66  1  0
 15 67  1  0
 17 68  1  0
 18 69  1  0
 19 70  1  0
 20 71  1  0
 21 72  1  0
 22 73  1  0
 22 74  1  0
 22 75  1  0
 24 76  1  1
 25 77  1  0
 25 78  1  0
 26 79  1  0
 26 80  1  0
 27 81  1  6
 28 82  1  0
 28 83  1  0
 29 84  1  6
 30 85  1  0
 30 86  1  0
 34 87  1  1
 35 88  1  0
 35 89  1  0
 36 90  1  0
 38 91  1  0
 39 92  1  0
 40 93  1  0
 41 94  1  0
 42 95  1  0
 45 96  1  0
 46 97  1  0
 48 98  1  0
 48 99  1  0
 49100  1  0
 49101  1  0
M  END
> <Uni-Dock RESULT> 
ENERGY=   -6.325  LOWER_BOUND=    0.710  UPPER_BOUND=    0.979
INTER + INTRA:          -6.325
INTER:                  -6.325
INTRA:                   0.000
UNBOUND:                 0.000

$$$$

     RDKit          3D

101102  0  0  0  0  0  0  0  0999 V2000
   50.0064   10.6054   11.8519 C   0  0  0  0  0  0  0  0  0  0  0  0
   49.5170    9.7782   12.9511 N   0  0  0  0  0  0  0  0  0  0  0  0
   48.2473    9.0968   12.6412 C   0  0  1  0  0  0  0  0  0  0  0  0
   48.6510    7.9071   11.7645 C   0  0  0  0  0  0  0  0  0  0  0  0
   50.0763    7.5840   12.1952 C   0  0  0  0  0  0  0  0  0  0  0  0
   50.4101    8.6430   13.2540 C   0  0  2  0  0  0  0  0  0  0  0  0
   50.0622    8.1372   14.6669 C   0  0  0  0  0  0  0  0  0  0  0  0
   48.6457    8.5275   15.1216 C   0  0  1  0  0  0  0  0  0  0  0  0
   47.6299    8.6163   13.9692 C   0  0  0  0  0  0  0  0  0  0  0  0
   48.1424    7.5726   16.0798 O   0  0  0  0  0  0  0  0  0  0  0  0
   48.6335    7.6610   17.3499 C   0  0  0  0  0  0  0  0  0  0  0  0
   49.4178    8.5153   17.7485 O   0  0  0  0  0  0  0  0  0  0  0  0
   48.0691    6.5454   18.2121 C   0  0  2  0  0  0  0  0  0  0  0  0
   48.2299    6.8796   19.7081 C   0  0  0  0  0  0  0  0  0  0  0  0
   49.5746    7.1253   20.1164 O   0  0  0  0  0  0  0  0  0  0  0  0
   48.6133    5.1841   17.8066 C   0  0  0  0  0  0  0  0  0  0  0  0
   47.7803    4.2750   17.1335 C   0  0  0  0  0  0  0  0  0  0  0  0
   48.2647    3.0303   16.7239 C   0  0  0  0  0  0  0  0  0  0  0  0
   49.5885    2.6779   16.9757 C   0  0  0  0  0  0  0  0  0  0  0  0
   50.4294    3.5708   17.6350 C   0  0  0  0  0  0  0  0  0  0  0  0
   49.9460    4.8163   18.0453 C   0  0  0  0  0  0  0  0  0  0  0  0
   50.2393   10.0389   11.3491 C   0  0  0  0  0  0  0  0  0  0  0  0
   49.9439    9.3422   12.5987 N   0  0  0  0  0  0  0  0  0  0  0  0
   48.9599   10.0553   13.4326 C   0  0  1  0  0  0  0  0  0  0  0  0
   47.6044    9.7298   12.7971 C   0  0  0  0  0  0  0  0  0  0  0  0
   47.8139    8.3795   12.1273 C   0  0  0  0  0  0  0  0  0  0  0  0
   49.2862    8.0405   12.3895 C   0  0  2  0  0  0  0  0  0  0  0  0
   49.4411    7.2249   13.6856 C   0  0  0  0  0  0  0  0  0  0  0  0
   49.6798    8.0903   14.9356 C   0  0  1  0  0  0  0  0  0  0  0  0
   49.0456    9.4894   14.8626 C   0  0  0  0  0  0  0  0  0  0  0  0
   49.1826    7.3533   16.0734 O   0  0  0  0  0  0  0  0  0  0  0  0
   49.6755    7.6960   17.2983 C   0  0  0  0  0  0  0  0  0  0  0  0
   50.4158    8.6503   17.4953 O   0  0  0  0  0  0  0  0  0  0  0  0
   49.0810    6.8311   18.4063 C   0  0  2  0  0  0  0  0  0  0  0  0
   49.9822    6.8398   19.6529 C   0  0  0  0  0  0  0  0  0  0  0  0
   51.1821    6.0855   19.4875 O   0  0  0  0  0  0  0  0  0  0  0  0
   48.6885    5.4077   18.0207 C   0  0  0  0  0  0  0  0  0  0  0  0
   47.4573    4.8860   18.4496 C   0  0  0  0  0  0  0  0  0  0  0  0
   47.0951    3.5737   18.1406 C   0  0  0  0  0  0  0  0  0  0  0  0
   47.9585    2.7639   17.4060 C   0  0  0  0  0  0  0  0  0  0  0  0
   49.1836    3.2662   16.9745 C   0  0  0  0  0  0  0  0  0  0  0  0
   49.5480    4.5782   17.2815 C   0  0  0  0  0  0  0  0  0  0  0  0
   49.3011    7.3753   15.6667 S   0  0  0  0  0  0  0  0  0  0  0  0
   48.3532    7.9713   16.5766 O   0  0  0  0  0  0  0  0  0  0  0  0
   48.6679    7.4710   14.1948 O   0  0  0  0  0  0  0  0  0  0  0  0
   49.2741    5.7917   15.9297 O   0  0  0  0  0  0  0  0  0  0  0  0
   50.6677    7.8183   15.5543 O   0  0  0  0  0  0  0  0  0  0  0  0
   49.4435    7.2852   15.5383 O   0  0  0  0  0  0  0  0  0  0  0  0
   49.4437    7.2900   15.5323 O   0  0  0  0  0  0  0  0  0  0  0  0
   50.1707   10.0564   10.9200 H   0  0  0  0  0  0  0  0  0  0  0  0
   50.9517   11.0815   12.1345 H   0  0  0  0  0  0  0  0  0  0  0  0
   49.2965   11.4130   11.6461 H   0  0  0  0  0  0  0  0  0  0  0  0
   47.5262    9.7396   12.1228 H   0  0  0  0  0  0  0  0  0  0  0  0
   47.9858    7.0443   11.8756 H   0  0  0  0  0  0  0  0  0  0  0  0
   48.6421    8.1896   10.7045 H   0  0  0  0  0  0  0  0  0  0  0  0
   50.7465    7.6749   11.3321 H   0  0  0  0  0  0  0  0  0  0  0  0
   50.1601    6.5574   12.5691 H   0  0  0  0  0  0  0  0  0  0  0  0
   51.4744    8.9053   13.2207 H   0  0  0  0  0  0  0  0  0  0  0  0
   50.7688    8.5822   15.3777 H   0  0  0  0  0  0  0  0  0  0  0  0
   50.2136    7.0549   14.7506 H   0  0  0  0  0  0  0  0  0  0  0  0
   48.6852    9.5192   15.5961 H   0  0  0  0  0  0  0  0  0  0  0  0
   46.8522    9.3296   14.2762 H   0  0  0  0  0  0  0  0  0  0  0  0
   47.1096    7.6580   13.8398 H   0  0  0  0  0  0  0  0  0  0  0  0
   46.9834    6.5459   18.0385 H   0  0  0  0  0  0  0  0  0  0  0  0
   47.6543    7.7789   19.9548 H   0  0  0  0  0  0  0  0  0  0  0  0
   47.8427    6.0620   20.3256 H   0  0  0  0  0  0  0  0  0  0  0  0
   49.9042    7.8726   19.5748 H   0  0  0  0  0  0  0  0  0  0  0  0
   46.7451    4.5298   16.9158 H   0  0  0  0  0  0  0  0  0  0  0  0
   47.6087    2.3350   16.2069 H   0  0  0  0  0  0  0  0  0  0  0  0
   49.9653    1.7086   16.6594 H   0  0  0  0  0  0  0  0  0  0  0  0
   51.4643    3.3011   17.8305 H   0  0  0  0  0  0  0  0  0  0  0  0
   50.6296    5.4932   18.5539 H   0  0  0  0  0  0  0  0  0  0  0  0
   50.7065   11.0067   11.5597 H   0  0  0  0  0  0  0  0  0  0  0  0
   50.9609    9.4617   10.7614 H   0  0  0  0  0  0  0  0  0  0  0  0
   49.3616   10.2155   10.7195 H   0  0  0  0  0  0  0  0  0  0  0  0
   49.1261   11.1383   13.4677 H   0  0  0  0  0  0  0  0  0  0  0  0
   47.3462   10.4793   12.0392 H   0  0  0  0  0  0  0  0  0  0  0  0
   46.7832    9.7000   13.5195 H   0  0  0  0  0  0  0  0  0  0  0  0
   47.6258    8.4733   11.0519 H   0  0  0  0  0  0  0  0  0  0  0  0
   47.1233    7.6244   12.5161 H   0  0  0  0  0  0  0  0  0  0  0  0
   49.7119    7.4679   11.5578 H   0  0  0  0  0  0  0  0  0  0  0  0
   48.5824    6.5564   13.8339 H   0  0  0  0  0  0  0  0  0  0  0  0
   50.3110    6.5596   13.5845 H   0  0  0  0  0  0  0  0  0  0  0  0
   50.7676    8.2024   15.0474 H   0  0  0  0  0  0  0  0  0  0  0  0
   49.6704   10.1651   15.4609 H   0  0  0  0  0  0  0  0  0  0  0  0
   48.0655    9.4956   15.3535 H   0  0  0  0  0  0  0  0  0  0  0  0
   48.1577    7.3663   18.6742 H   0  0  0  0  0  0  0  0  0  0  0  0
   50.2731    7.8607   19.9211 H   0  0  0  0  0  0  0  0  0  0  0  0
   49.4481    6.4250   20.5154 H   0  0  0  0  0  0  0  0  0  0  0  0
   50.9422    5.1422   19.5445 H   0  0  0  0  0  0  0  0  0  0  0  0
   46.7696    5.4956   19.0327 H   0  0  0  0  0  0  0  0  0  0  0  0
   46.1373    3.1827   18.4729 H   0  0  0  0  0  0  0  0  0  0  0  0
   47.6748    1.7425   17.1667 H   0  0  0  0  0  0  0  0  0  0  0  0
   49.8580    2.6360   16.4006 H   0  0  0  0  0  0  0  0  0  0  0  0
   50.5135    4.9473   16.9386 H   0  0  0  0  0  0  0  0  0  0  0  0
   49.0722    8.2495   13.7538 H   0  0  0  0  0  0  0  0  0  0  0  0
   48.3359    5.5166   15.9906 H   0  0  0  0  0  0  0  0  0  0  0  0
   49.0131    7.6162   14.7360 H   0  0  0  0  0  0  0  0  0  0  0  0
   48.8316    6.6103   15.8683 H   0  0  0  0  0  0  0  0  0  0  0  0
   48.8444    6.6115   15.8780 H   0  0  0  0  0  0  0  0  0  0  0  0
   48.9999    7.6100   14.7325 H   0  0  0  0  0  0  0  0  0  0  0  0
  1  2  1  0
  3  2  1  0
  3  4  1  0
  4  5  1  0
  6  5  1  0
  6  2  1  0
  6  7  1  0
  7  8  1  0
  8  9  1  0
  3  9  1  0
  8 10  1  0
 10 11  1  0
 11 12  2  0
 11 13  1  0
 13 14  1  0
 14 15  1  0
 13 16  1  0
 16 17  2  0
 17 18  1  0
 18 19  2  0
 19 20  1  0
 20 21  2  0
 16 21  1  0
 22 23  1  0
 24 23  1  0
 24 25  1  0
 25 26  1  0
 27 26  1  0
 27 23  1  0
 27 28  1  0
 28 29  1  0
 29 30  1  0
 24 30  1  0
 29 31  1  0
 31 32  1  0
 32 33  2  0
 32 34  1  0
 34 35  1  0
 35 36  1  0
 34 37  1  0
 37 38  2  0
 38 39  1  0
 39 40  2  0
 40 41  1  0
 41 42  2  0
 37 42  1  0
 43 44  2  0
 43 45  1  0
 43 46  1  0
 43 47  2  0
  1 50  1  0
  1 51  1  0
  1 52  1  0
  3 53  1  1
  4 54  1  0
  4 55  1  0
  5 56  1  0
  5 57  1  0
  6 58  1  6
  7 59  1  0
  7 60  1  0
  8 61  1  1
  9 62  1  0
  9 63  1  0
 13 64  1  1
 14 65  1  0
 14 66  1  0
 15 67  1  0
 17 68  1  0
 18 69  1  0
 19 70  1  0
 20 71  1  0
 21 72  1  0
 22 73  1  0
 22 74  1  0
 22 75  1  0
 24 76  1  1
 25 77  1  0
 25 78  1  0
 26 79  1  0
 26 80  1  0
 27 81  1  6
 28 82  1  0
 28 83  1  0
 29 84  1  6
 30 85  1  0
 30 86  1  0
 34 87  1  1
 35 88  1  0
 35 89  1  0
 36 90  1  0
 38 91  1  0
 39 92  1  0
 40 93  1  0
 41 94  1  0
 42 95  1  0
 45 96  1  0
 46 97  1  0
 48 98  1  0
 48 99  1  0
 49100  1  0
 49101  1  0
M  END
> <Uni-Dock RESULT> 
ENERGY=   -6.240  LOWER_BOUND=    2.587  UPPER_BOUND=    6.063
INTER + INTRA:          -6.240
INTER:                  -6.240
INTRA:                   0.000
UNBOUND:                 0.000

$$$$

     RDKit          3D

101102  0  0  0  0  0  0  0  0999 V2000
   49.3967    4.7855   20.8921 C   0  0  0  0  0  0  0  0  0  0  0  0
   49.5205    5.2315   19.5072 N   0  0  0  0  0  0  0  0  0  0  0  0
   49.5813    4.1176   18.5441 C   0  0  1  0  0  0  0  0  0  0  0  0
   48.1280    3.6566   18.3937 C   0  0  0  0  0  0  0  0  0  0  0  0
   47.3018    4.9021   18.6899 C   0  0  0  0  0  0  0  0  0  0  0  0
   48.3371    5.9791   19.0394 C   0  0  2  0  0  0  0  0  0  0  0  0
   48.7500    6.7730   17.7854 C   0  0  0  0  0  0  0  0  0  0  0  0
   49.9920    6.1989   17.0831 C   0  0  1  0  0  0  0  0  0  0  0  0
   50.1230    4.6711   17.2115 C   0  0  0  0  0  0  0  0  0  0  0  0
   49.9711    6.5227   15.6768 O   0  0  0  0  0  0  0  0  0  0  0  0
   50.3027    7.8019   15.3366 C   0  0  0  0  0  0  0  0  0  0  0  0
   50.6678    8.6715   16.1205 O   0  0  0  0  0  0  0  0  0  0  0  0
   50.1575    8.0036   13.8384 C   0  0  2  0  0  0  0  0  0  0  0  0
   50.9418    9.2480   13.3784 C   0  0  0  0  0  0  0  0  0  0  0  0
   50.5642   10.4583   14.0324 O   0  0  0  0  0  0  0  0  0  0  0  0
   48.7010    7.9771   13.4008 C   0  0  0  0  0  0  0  0  0  0  0  0
   48.2071    6.8669   12.6959 C   0  0  0  0  0  0  0  0  0  0  0  0
   46.8662    6.8049   12.3090 C   0  0  0  0  0  0  0  0  0  0  0  0
   45.9984    7.8477   12.6247 C   0  0  0  0  0  0  0  0  0  0  0  0
   46.4704    8.9518   13.3298 C   0  0  0  0  0  0  0  0  0  0  0  0
   47.8117    9.0150   13.7175 C   0  0  0  0  0  0  0  0  0  0  0  0
   48.6468    4.5292   20.8855 C   0  0  0  0  0  0  0  0  0  0  0  0
   48.8237    5.2241   19.6128 N   0  0  0  0  0  0  0  0  0  0  0  0
   50.2260    5.2394   19.1593 C   0  0  1  0  0  0  0  0  0  0  0  0
   50.4560    3.8474   18.5624 C   0  0  0  0  0  0  0  0  0  0  0  0
   49.0777    3.4025   18.0951 C   0  0  0  0  0  0  0  0  0  0  0  0
   48.1438    4.5522   18.4916 C   0  0  2  0  0  0  0  0  0  0  0  0
   48.0098    5.5726   17.3472 C   0  0  0  0  0  0  0  0  0  0  0  0
   49.0357    6.7177   17.4167 C   0  0  1  0  0  0  0  0  0  0  0  0
   50.3675    6.3295   18.0803 C   0  0  0  0  0  0  0  0  0  0  0  0
   49.2455    7.1930   16.0695 O   0  0  0  0  0  0  0  0  0  0  0  0
   49.7425    8.4553   15.9272 C   0  0  0  0  0  0  0  0  0  0  0  0
   50.1196    9.1513   16.8604 O   0  0  0  0  0  0  0  0  0  0  0  0
   49.8993    8.8361   14.4577 C   0  0  2  0  0  0  0  0  0  0  0  0
   49.9410   10.3644   14.2879 C   0  0  0  0  0  0  0  0  0  0  0  0
   48.6725   10.9887   14.4804 O   0  0  0  0  0  0  0  0  0  0  0  0
   48.9130    8.2005   13.4819 C   0  0  0  0  0  0  0  0  0  0  0  0
   49.3795    7.6737   12.2667 C   0  0  0  0  0  0  0  0  0  0  0  0
   48.4898    7.1223   11.3430 C   0  0  0  0  0  0  0  0  0  0  0  0
   47.1241    7.0952   11.6168 C   0  0  0  0  0  0  0  0  0  0  0  0
   46.6457    7.6150   12.8169 C   0  0  0  0  0  0  0  0  0  0  0  0
   47.5331    8.1664   13.7427 C   0  0  0  0  0  0  0  0  0  0  0  0
   49.0266    6.9690   16.3556 S   0  0  0  0  0  0  0  0  0  0  0  0
   50.3559    7.0578   15.8018 O   0  0  0  0  0  0  0  0  0  0  0  0
   48.8214    5.4563   16.8517 O   0  0  0  0  0  0  0  0  0  0  0  0
   47.9980    7.0500   15.1256 O   0  0  0  0  0  0  0  0  0  0  0  0
   48.5623    7.8170   17.4241 O   0  0  0  0  0  0  0  0  0  0  0  0
   48.8300    6.9618   16.4342 O   0  0  0  0  0  0  0  0  0  0  0  0
   48.8309    6.9578   16.4407 O   0  0  0  0  0  0  0  0  0  0  0  0
   48.5166    4.1644   21.0832 H   0  0  0  0  0  0  0  0  0  0  0  0
   49.3504    5.6517   21.5612 H   0  0  0  0  0  0  0  0  0  0  0  0
   50.2830    4.2116   21.1813 H   0  0  0  0  0  0  0  0  0  0  0  0
   50.2223    3.2926   18.8762 H   0  0  0  0  0  0  0  0  0  0  0  0
   47.9062    3.2462   17.4029 H   0  0  0  0  0  0  0  0  0  0  0  0
   47.8938    2.8764   19.1284 H   0  0  0  0  0  0  0  0  0  0  0  0
   46.6429    4.7067   19.5443 H   0  0  0  0  0  0  0  0  0  0  0  0
   46.6655    5.1735   17.8401 H   0  0  0  0  0  0  0  0  0  0  0  0
   47.9380    6.6750   19.7872 H   0  0  0  0  0  0  0  0  0  0  0  0
   48.9900    7.7992   18.0888 H   0  0  0  0  0  0  0  0  0  0  0  0
   47.9147    6.8692   17.0824 H   0  0  0  0  0  0  0  0  0  0  0  0
   50.8923    6.6406   17.5355 H   0  0  0  0  0  0  0  0  0  0  0  0
   51.1925    4.4295   17.1368 H   0  0  0  0  0  0  0  0  0  0  0  0
   49.6521    4.1711   16.3547 H   0  0  0  0  0  0  0  0  0  0  0  0
   50.6728    7.1551   13.3656 H   0  0  0  0  0  0  0  0  0  0  0  0
   52.0121    9.1066   13.5664 H   0  0  0  0  0  0  0  0  0  0  0  0
   50.8150    9.4025   12.3015 H   0  0  0  0  0  0  0  0  0  0  0  0
   50.7029   10.3180   14.9924 H   0  0  0  0  0  0  0  0  0  0  0  0
   48.8618    6.0346   12.4454 H   0  0  0  0  0  0  0  0  0  0  0  0
   46.4977    5.9416   11.7611 H   0  0  0  0  0  0  0  0  0  0  0  0
   44.9556    7.8012   12.3219 H   0  0  0  0  0  0  0  0  0  0  0  0
   45.7957    9.7664   13.5815 H   0  0  0  0  0  0  0  0  0  0  0  0
   48.1483    9.8892   14.2714 H   0  0  0  0  0  0  0  0  0  0  0  0
   49.1873    5.0554   21.6794 H   0  0  0  0  0  0  0  0  0  0  0  0
   47.5890    4.5324   21.1688 H   0  0  0  0  0  0  0  0  0  0  0  0
   48.9864    3.4888   20.8758 H   0  0  0  0  0  0  0  0  0  0  0  0
   50.9397    5.4424   19.9662 H   0  0  0  0  0  0  0  0  0  0  0  0
   50.8236    3.1565   19.3307 H   0  0  0  0  0  0  0  0  0  0  0  0
   51.1820    3.8414   17.7439 H   0  0  0  0  0  0  0  0  0  0  0  0
   48.7964    2.4806   18.6160 H   0  0  0  0  0  0  0  0  0  0  0  0
   49.0647    3.1892   17.0215 H   0  0  0  0  0  0  0  0  0  0  0  0
   47.1470    4.1776   18.7504 H   0  0  0  0  0  0  0  0  0  0  0  0
   48.0498    5.0738   16.3695 H   0  0  0  0  0  0  0  0  0  0  0  0
   47.0117    6.0321   17.3962 H   0  0  0  0  0  0  0  0  0  0  0  0
   48.5753    7.5283   17.9994 H   0  0  0  0  0  0  0  0  0  0  0  0
   50.7727    7.2316   18.5566 H   0  0  0  0  0  0  0  0  0  0  0  0
   51.1087    6.0477   17.3234 H   0  0  0  0  0  0  0  0  0  0  0  0
   50.9015    8.4579   14.2061 H   0  0  0  0  0  0  0  0  0  0  0  0
   50.6399   10.8202   14.9969 H   0  0  0  0  0  0  0  0  0  0  0  0
   50.2900   10.6295   13.2833 H   0  0  0  0  0  0  0  0  0  0  0  0
   48.1391   10.8144   13.6831 H   0  0  0  0  0  0  0  0  0  0  0  0
   50.4407    7.6915   12.0255 H   0  0  0  0  0  0  0  0  0  0  0  0
   48.8630    6.7123   10.4084 H   0  0  0  0  0  0  0  0  0  0  0  0
   46.4332    6.6658   10.8962 H   0  0  0  0  0  0  0  0  0  0  0  0
   45.5806    7.5939   13.0324 H   0  0  0  0  0  0  0  0  0  0  0  0
   47.1354    8.5722   14.6717 H   0  0  0  0  0  0  0  0  0  0  0  0
   48.9845    5.4424   17.8198 H   0  0  0  0  0  0  0  0  0  0  0  0
   48.3311    6.4575   14.4203 H   0  0  0  0  0  0  0  0  0  0  0  0
   48.9675    6.0980   16.8506 H   0  0  0  0  0  0  0  0  0  0  0  0
   48.8081    6.7617   15.4864 H   0  0  0  0  0  0  0  0  0  0  0  0
   48.8062    6.7774   15.4889 H   0  0  0  0  0  0  0  0  0  0  0  0
   48.9686    6.0863   16.8413 H   0  0  0  0  0  0  0  0  0  0  0  0
  1  2  1  0
  3  2  1  0
  3  4  1  0
  4  5  1  0
  6  5  1  0
  6  2  1  0
  6  7  1  0
  7  8  1  0
  8  9  1  0
  3  9  1  0
  8 10  1  0
 10 11  1  0
 11 12  2  0
 11 13  1  0
 13 14  1  0
 14 15  1  0
 13 16  1  0
 16 17  2  0
 17 18  1  0
 18 19  2  0
 19 20  1  0
 20 21  2  0
 16 21  1  0
 22 23  1  0
 24 23  1  0
 24 25  1  0
 25 26  1  0
 27 26  1  0
 27 23  1  0
 27 28  1  0
 28 29  1  0
 29 30  1  0
 24 30  1  0
 29 31  1  0
 31 32  1  0
 32 33  2  0
 32 34  1  0
 34 35  1  0
 35 36  1  0
 34 37  1  0
 37 38  2  0
 38 39  1  0
 39 40  2  0
 40 41  1  0
 41 42  2  0
 37 42  1  0
 43 44  2  0
 43 45  1  0
 43 46  1  0
 43 47  2  0
  1 50  1  0
  1 51  1  0
  1 52  1  0
  3 53  1  1
  4 54  1  0
  4 55  1  0
  5 56  1  0
  5 57  1  0
  6 58  1  6
  7 59  1  0
  7 60  1  0
  8 61  1  1
  9 62  1  0
  9 63  1  0
 13 64  1  1
 14 65  1  0
 14 66  1  0
 15 67  1  0
 17 68  1  0
 18 69  1  0
 19 70  1  0
 20 71  1  0
 21 72  1  0
 22 73  1  0
 22 74  1  0
 22 75  1  0
 24 76  1  1
 25 77  1  0
 25 78  1  0
 26 79  1  0
 26 80  1  0
 27 81  1  6
 28 82  1  0
 28 83  1  0
 29 84  1  6
 30 85  1  0
 30 86  1  0
 34 87  1  1
 35 88  1  0
 35 89  1  0
 36 90  1  0
 38 91  1  0
 39 92  1  0
 40 93  1  0
 41 94  1  0
 42 95  1  0
 45 96  1  0
 46 97  1  0
 48 98  1  0
 48 99  1  0
 49100  1  0
 49101  1  0
M  END
> <Uni-Dock RESULT> 
ENERGY=   -5.983  LOWER_BOUND=    2.103  UPPER_BOUND=    3.087
INTER + INTRA:          -5.983
INTER:                  -5.983
INTRA:                   0.000
UNBOUND:                 0.000

$$$$

     RDKit          3D

101102  0  0  0  0  0  0  0  0999 V2000
   48.0240   13.7175   20.7377 C   0  0  0  0  0  0  0  0  0  0  0  0
   47.9029   12.2634   20.7917 N   0  0  0  0  0  0  0  0  0  0  0  0
   47.2657   11.6912   19.5922 C   0  0  1  0  0  0  0  0  0  0  0  0
   48.3730   11.6814   18.5335 C   0  0  0  0  0  0  0  0  0  0  0  0
   49.6642   11.5740   19.3353 C   0  0  0  0  0  0  0  0  0  0  0  0
   49.2112   11.5806   20.8011 C   0  0  2  0  0  0  0  0  0  0  0  0
   48.9871   10.1454   21.3142 C   0  0  0  0  0  0  0  0  0  0  0  0
   47.5356    9.6620   21.1558 C   0  0  1  0  0  0  0  0  0  0  0  0
   46.8172   10.2561   19.9316 C   0  0  0  0  0  0  0  0  0  0  0  0
   47.4929    8.2243   21.0368 O   0  0  0  0  0  0  0  0  0  0  0  0
   47.6636    7.5082   22.1858 C   0  0  0  0  0  0  0  0  0  0  0  0
   47.7923    7.9879   23.3071 O   0  0  0  0  0  0  0  0  0  0  0  0
   47.6714    6.0200   21.8833 C   0  0  2  0  0  0  0  0  0  0  0  0
   47.4022    5.2033   23.1624 C   0  0  0  0  0  0  0  0  0  0  0  0
   48.3225    5.4499   24.2242 O   0  0  0  0  0  0  0  0  0  0  0  0
   48.9180    5.6029   21.1180 C   0  0  0  0  0  0  0  0  0  0  0  0
   48.8193    5.2719   19.7563 C   0  0  0  0  0  0  0  0  0  0  0  0
   49.9539    4.9147   19.0238 C   0  0  0  0  0  0  0  0  0  0  0  0
   51.2035    4.8881   19.6386 C   0  0  0  0  0  0  0  0  0  0  0  0
   51.3195    5.2212   20.9857 C   0  0  0  0  0  0  0  0  0  0  0  0
   50.1851    5.5787   21.7197 C   0  0  0  0  0  0  0  0  0  0  0  0
   48.5977   13.7857   20.1952 C   0  0  0  0  0  0  0  0  0  0  0  0
   48.5444   12.3618   20.5172 N   0  0  0  0  0  0  0  0  0  0  0  0
   47.2204   11.9343   21.0035 C   0  0  1  0  0  0  0  0  0  0  0  0
   46.3679   11.7973   19.7379 C   0  0  0  0  0  0  0  0  0  0  0  0
   47.3705   11.4815   18.6375 C   0  0  0  0  0  0  0  0  0  0  0  0
   48.7342   11.4984   19.3385 C   0  0  2  0  0  0  0  0  0  0  0  0
   49.1112   10.0943   19.8435 C   0  0  0  0  0  0  0  0  0  0  0  0
   48.6559    9.8135   21.2866 C   0  0  1  0  0  0  0  0  0  0  0  0
   47.3853   10.5726   21.7041 C   0  0  0  0  0  0  0  0  0  0  0  0
   48.4739    8.3867   21.4130 O   0  0  0  0  0  0  0  0  0  0  0  0
   48.5153    7.8650   22.6727 C   0  0  0  0  0  0  0  0  0  0  0  0
   48.5834    8.5403   23.6909 O   0  0  0  0  0  0  0  0  0  0  0  0
   48.3262    6.3507   22.6612 C   0  0  2  0  0  0  0  0  0  0  0  0
   48.8831    5.7180   23.9480 C   0  0  0  0  0  0  0  0  0  0  0  0
   50.3090    5.7009   23.9975 O   0  0  0  0  0  0  0  0  0  0  0  0
   48.8276    5.6125   21.4233 C   0  0  0  0  0  0  0  0  0  0  0  0
   48.0265    4.6219   20.8328 C   0  0  0  0  0  0  0  0  0  0  0  0
   48.4817    3.9079   19.7229 C   0  0  0  0  0  0  0  0  0  0  0  0
   49.7432    4.1683   19.1925 C   0  0  0  0  0  0  0  0  0  0  0  0
   50.5503    5.1467   19.7676 C   0  0  0  0  0  0  0  0  0  0  0  0
   50.0974    5.8627   20.8770 C   0  0  0  0  0  0  0  0  0  0  0  0
   48.6204    8.7266   21.2058 S   0  0  0  0  0  0  0  0  0  0  0  0
   47.3784    8.1805   21.6964 O   0  0  0  0  0  0  0  0  0  0  0  0
   48.2624    9.6638   19.9528 O   0  0  0  0  0  0  0  0  0  0  0  0
   49.4150    7.5253   20.4965 O   0  0  0  0  0  0  0  0  0  0  0  0
   49.5294    9.4786   22.0332 O   0  0  0  0  0  0  0  0  0  0  0  0
   48.8061    8.8023   21.1374 O   0  0  0  0  0  0  0  0  0  0  0  0
   48.8046    8.8098   21.1361 O   0  0  0  0  0  0  0  0  0  0  0  0
   48.5950   14.0855   19.8801 H   0  0  0  0  0  0  0  0  0  0  0  0
   48.5077   14.0865   21.6488 H   0  0  0  0  0  0  0  0  0  0  0  0
   47.0301   14.1750   20.7017 H   0  0  0  0  0  0  0  0  0  0  0  0
   46.3979   12.2654   19.2472 H   0  0  0  0  0  0  0  0  0  0  0  0
   48.2720   10.8642   17.8116 H   0  0  0  0  0  0  0  0  0  0  0  0
   48.3700   12.6195   17.9649 H   0  0  0  0  0  0  0  0  0  0  0  0
   50.2980   12.4430   19.1220 H   0  0  0  0  0  0  0  0  0  0  0  0
   50.2330   10.6780   19.0625 H   0  0  0  0  0  0  0  0  0  0  0  0
   49.9558   12.0748   21.4367 H   0  0  0  0  0  0  0  0  0  0  0  0
   49.2264   10.1190   22.3841 H   0  0  0  0  0  0  0  0  0  0  0  0
   49.6851    9.4419   20.8462 H   0  0  0  0  0  0  0  0  0  0  0  0
   46.9620    9.9616   22.0454 H   0  0  0  0  0  0  0  0  0  0  0  0
   45.7421   10.2661   20.1594 H   0  0  0  0  0  0  0  0  0  0  0  0
   46.9235    9.5925   19.0633 H   0  0  0  0  0  0  0  0  0  0  0  0
   46.7977    5.8350   21.2419 H   0  0  0  0  0  0  0  0  0  0  0  0
   46.4028    5.4323   23.5494 H   0  0  0  0  0  0  0  0  0  0  0  0
   47.4319    4.1305   22.9436 H   0  0  0  0  0  0  0  0  0  0  0  0
   48.2718    6.4071   24.4280 H   0  0  0  0  0  0  0  0  0  0  0  0
   47.8565    5.2943   19.2499 H   0  0  0  0  0  0  0  0  0  0  0  0
   49.8631    4.6576   17.9717 H   0  0  0  0  0  0  0  0  0  0  0  0
   52.0863    4.6080   19.0698 H   0  0  0  0  0  0  0  0  0  0  0  0
   52.2934    5.2052   21.4687 H   0  0  0  0  0  0  0  0  0  0  0  0
   50.3100    5.8380   22.7692 H   0  0  0  0  0  0  0  0  0  0  0  0
   48.4302   14.3819   21.0984 H   0  0  0  0  0  0  0  0  0  0  0  0
   49.5943   14.0477   19.8248 H   0  0  0  0  0  0  0  0  0  0  0  0
   47.8686   14.0994   19.4415 H   0  0  0  0  0  0  0  0  0  0  0  0
   46.7674   12.6436   21.7059 H   0  0  0  0  0  0  0  0  0  0  0  0
   45.8613   12.7434   19.5123 H   0  0  0  0  0  0  0  0  0  0  0  0
   45.5969   11.0250   19.8164 H   0  0  0  0  0  0  0  0  0  0  0  0
   47.3235   12.2597   17.8676 H   0  0  0  0  0  0  0  0  0  0  0  0
   47.1491   10.5260   18.1514 H   0  0  0  0  0  0  0  0  0  0  0  0
   49.5196   11.8541   18.6621 H   0  0  0  0  0  0  0  0  0  0  0  0
   48.7395    9.3183   19.1608 H   0  0  0  0  0  0  0  0  0  0  0  0
   50.2063    9.9931   19.8268 H   0  0  0  0  0  0  0  0  0  0  0  0
   49.4796   10.1150   21.9492 H   0  0  0  0  0  0  0  0  0  0  0  0
   47.4488   10.7499   22.7856 H   0  0  0  0  0  0  0  0  0  0  0  0
   46.4975    9.9441   21.5686 H   0  0  0  0  0  0  0  0  0  0  0  0
   47.2325    6.2342   22.6937 H   0  0  0  0  0  0  0  0  0  0  0  0
   48.5324    6.2562   24.8348 H   0  0  0  0  0  0  0  0  0  0  0  0
   48.5371    4.6829   24.0476 H   0  0  0  0  0  0  0  0  0  0  0  0
   50.6118    4.9930   23.3993 H   0  0  0  0  0  0  0  0  0  0  0  0
   47.0410    4.3935   21.2343 H   0  0  0  0  0  0  0  0  0  0  0  0
   47.8505    3.1476   19.2708 H   0  0  0  0  0  0  0  0  0  0  0  0
   50.0958    3.6112   18.3287 H   0  0  0  0  0  0  0  0  0  0  0  0
   51.5346    5.3517   19.3545 H   0  0  0  0  0  0  0  0  0  0  0  0
   50.7484    6.6187   21.3135 H   0  0  0  0  0  0  0  0  0  0  0  0
   48.2419   10.5900   20.2781 H   0  0  0  0  0  0  0  0  0  0  0  0
   48.7777    7.0392   19.9335 H   0  0  0  0  0  0  0  0  0  0  0  0
   48.3896    9.4657   20.5674 H   0  0  0  0  0  0  0  0  0  0  0  0
   48.6152    7.9623   20.6937 H   0  0  0  0  0  0  0  0  0  0  0  0
   48.6237    7.9599   20.7071 H   0  0  0  0  0  0  0  0  0  0  0  0
   48.3826    9.4605   20.5552 H   0  0  0  0  0  0  0  0  0  0  0  0
  1  2  1  0
  3  2  1  0
  3  4  1  0
  4  5  1  0
  6  5  1  0
  6  2  1  0
  6  7  1  0
  7  8  1  0
  8  9  1  0
  3  9  1  0
  8 10  1  0
 10 11  1  0
 11 12  2  0
 11 13  1  0
 13 14  1  0
 14 15  1  0
 13 16  1  0
 16 17  2  0
 17 18  1  0
 18 19  2  0
 19 20  1  0
 20 21  2  0
 16 21  1  0
 22 23  1  0
 24 23  1  0
 24 25  1  0
 25 26  1  0
 27 26  1  0
 27 23  1  0
 27 28  1  0
 28 29  1  0
 29 30  1  0
 24 30  1  0
 29 31  1  0
 31 32  1  0
 32 33  2  0
 32 34  1  0
 34 35  1  0
 35 36  1  0
 34 37  1  0
 37 38  2  0
 38 39  1  0
 39 40  2  0
 40 41  1  0
 41 42  2  0
 37 42  1  0
 43 44  2  0
 43 45  1  0
 43 46  1  0
 43 47  2  0
  1 50  1  0
  1 51  1  0
  1 52  1  0
  3 53  1  1
  4 54  1  0
  4 55  1  0
  5 56  1  0
  5 57  1  0
  6 58  1  6
  7 59  1  0
  7 60  1  0
  8 61  1  1
  9 62  1  0
  9 63  1  0
 13 64  1  1
 14 65  1  0
 14 66  1  0
 15 67  1  0
 17 68  1  0
 18 69  1  0
 19 70  1  0
 20 71  1  0
 21 72  1  0
 22 73  1  0
 22 74  1  0
 22 75  1  0
 24 76  1  1
 25 77  1  0
 25 78  1  0
 26 79  1  0
 26 80  1  0
 27 81  1  6
 28 82  1  0
 28 83  1  0
 29 84  1  6
 30 85  1  0
 30 86  1  0
 34 87  1  1
 35 88  1  0
 35 89  1  0
 36 90  1  0
 38 91  1  0
 39 92  1  0
 40 93  1  0
 41 94  1  0
 42 95  1  0
 45 96  1  0
 46 97  1  0
 48 98  1  0
 48 99  1  0
 49100  1  0
 49101  1  0
M  END
> <Uni-Dock RESULT> 
ENERGY=   -5.968  LOWER_BOUND=    5.386  UPPER_BOUND=    7.643
INTER + INTRA:          -5.968
INTER:                  -5.968
INTRA:                   0.000
UNBOUND:                 0.000

$$$$

     RDKit          3D

101102  0  0  0  0  0  0  0  0999 V2000
   48.4459   13.9406   20.8943 C   0  0  0  0  0  0  0  0  0  0  0  0
   48.1569   12.5213   20.7092 N   0  0  0  0  0  0  0  0  0  0  0  0
   47.0932   12.2721   19.7199 C   0  0  1  0  0  0  0  0  0  0  0  0
   47.7829   12.4336   18.3615 C   0  0  0  0  0  0  0  0  0  0  0  0
   49.2386   12.0718   18.6291 C   0  0  0  0  0  0  0  0  0  0  0  0
   49.2937   11.7766   20.1337 C   0  0  2  0  0  0  0  0  0  0  0  0
   49.0606   10.2790   20.4095 C   0  0  0  0  0  0  0  0  0  0  0  0
   47.5862    9.9314   20.6757 C   0  0  1  0  0  0  0  0  0  0  0  0
   46.5934   10.8270   19.9140 C   0  0  0  0  0  0  0  0  0  0  0  0
   47.3163    8.5622   20.3076 O   0  0  0  0  0  0  0  0  0  0  0  0
   47.7556    7.5978   21.1672 C   0  0  0  0  0  0  0  0  0  0  0  0
   48.3056    7.8051   22.2435 O   0  0  0  0  0  0  0  0  0  0  0  0
   47.4664    6.2176   20.6034 C   0  0  2  0  0  0  0  0  0  0  0  0
   47.5231    5.1525   21.7160 C   0  0  0  0  0  0  0  0  0  0  0  0
   48.7635    5.0989   22.4186 O   0  0  0  0  0  0  0  0  0  0  0  0
   48.3280    5.9089   19.3885 C   0  0  0  0  0  0  0  0  0  0  0  0
   47.7475    5.8982   18.1093 C   0  0  0  0  0  0  0  0  0  0  0  0
   48.5230    5.6470   16.9748 C   0  0  0  0  0  0  0  0  0  0  0  0
   49.8895    5.4083   17.1007 C   0  0  0  0  0  0  0  0  0  0  0  0
   50.4818    5.4232   18.3608 C   0  0  0  0  0  0  0  0  0  0  0  0
   49.7070    5.6743   19.4967 C   0  0  0  0  0  0  0  0  0  0  0  0
   48.8150   14.0942   20.2100 C   0  0  0  0  0  0  0  0  0  0  0  0
   48.6808   12.6402   20.2531 N   0  0  0  0  0  0  0  0  0  0  0  0
   47.5435   12.1947   21.0778 C   0  0  1  0  0  0  0  0  0  0  0  0
   46.3146   12.3964   20.1854 C   0  0  0  0  0  0  0  0  0  0  0  0
   46.8521   12.2760   18.7668 C   0  0  0  0  0  0  0  0  0  0  0  0
   48.3593   12.0534   18.9405 C   0  0  2  0  0  0  0  0  0  0  0  0
   48.6902   10.5517   19.0061 C   0  0  0  0  0  0  0  0  0  0  0  0
   48.6974    9.9822   20.4358 C   0  0  1  0  0  0  0  0  0  0  0  0
   47.7454   10.7031   21.4048 C   0  0  0  0  0  0  0  0  0  0  0  0
   48.3787    8.5770   20.3435 O   0  0  0  0  0  0  0  0  0  0  0  0
   48.7589    7.7846   21.3866 C   0  0  0  0  0  0  0  0  0  0  0  0
   49.2445    8.2089   22.4265 O   0  0  0  0  0  0  0  0  0  0  0  0
   48.3769    6.3255   21.1534 C   0  0  2  0  0  0  0  0  0  0  0  0
   49.2338    5.3881   22.0214 C   0  0  0  0  0  0  0  0  0  0  0  0
   50.5822    5.2748   21.5687 O   0  0  0  0  0  0  0  0  0  0  0  0
   48.3443    5.8551   19.7020 C   0  0  0  0  0  0  0  0  0  0  0  0
   47.2702    5.0721   19.2493 C   0  0  0  0  0  0  0  0  0  0  0  0
   47.2393    4.5992   17.9361 C   0  0  0  0  0  0  0  0  0  0  0  0
   48.2816    4.8958   17.0607 C   0  0  0  0  0  0  0  0  0  0  0  0
   49.3546    5.6701   17.4951 C   0  0  0  0  0  0  0  0  0  0  0  0
   49.3878    6.1448   18.8073 C   0  0  0  0  0  0  0  0  0  0  0  0
   48.4934    8.9453   20.1671 S   0  0  0  0  0  0  0  0  0  0  0  0
   47.4184    8.3786   20.9447 O   0  0  0  0  0  0  0  0  0  0  0  0
   47.8742   10.1594   19.3191 O   0  0  0  0  0  0  0  0  0  0  0  0
   48.8460    7.8882   19.0112 O   0  0  0  0  0  0  0  0  0  0  0  0
   49.7140    9.4366   20.7546 O   0  0  0  0  0  0  0  0  0  0  0  0
   48.6549    9.0232   20.0542 O   0  0  0  0  0  0  0  0  0  0  0  0
   48.6541    9.0308   20.0550 O   0  0  0  0  0  0  0  0  0  0  0  0
   48.7496   14.4566   19.9786 H   0  0  0  0  0  0  0  0  0  0  0  0
   49.2449   14.0661   21.6333 H   0  0  0  0  0  0  0  0  0  0  0  0
   47.5648   14.4533   21.2933 H   0  0  0  0  0  0  0  0  0  0  0  0
   46.2449   12.9600   19.8136 H   0  0  0  0  0  0  0  0  0  0  0  0
   47.3443   11.8067   17.5779 H   0  0  0  0  0  0  0  0  0  0  0  0
   47.7193   13.4737   18.0189 H   0  0  0  0  0  0  0  0  0  0  0  0
   49.8778   12.9269   18.3787 H   0  0  0  0  0  0  0  0  0  0  0  0
   49.5630   11.2274   18.0106 H   0  0  0  0  0  0  0  0  0  0  0  0
   50.2636   12.0701   20.5530 H   0  0  0  0  0  0  0  0  0  0  0  0
   49.6300    9.9990   21.3039 H   0  0  0  0  0  0  0  0  0  0  0  0
   49.4676    9.6578   19.6034 H   0  0  0  0  0  0  0  0  0  0  0  0
   47.3792   10.0577   21.7488 H   0  0  0  0  0  0  0  0  0  0  0  0
   45.6628   10.8501   20.4983 H   0  0  0  0  0  0  0  0  0  0  0  0
   46.3215   10.3699   18.9534 H   0  0  0  0  0  0  0  0  0  0  0  0
   46.4148    6.2340   20.2824 H   0  0  0  0  0  0  0  0  0  0  0  0
   46.7445    5.3484   22.4618 H   0  0  0  0  0  0  0  0  0  0  0  0
   47.3370    4.1563   21.3005 H   0  0  0  0  0  0  0  0  0  0  0  0
   48.9098    5.9874   22.8055 H   0  0  0  0  0  0  0  0  0  0  0  0
   46.6842    6.0913   17.9827 H   0  0  0  0  0  0  0  0  0  0  0  0
   48.0606    5.6383   15.9912 H   0  0  0  0  0  0  0  0  0  0  0  0
   50.4929    5.2105   16.2186 H   0  0  0  0  0  0  0  0  0  0  0  0
   51.5487    5.2408   18.4633 H   0  0  0  0  0  0  0  0  0  0  0  0
   50.2007    5.6836   20.4664 H   0  0  0  0  0  0  0  0  0  0  0  0
   49.0321   14.4815   21.2110 H   0  0  0  0  0  0  0  0  0  0  0  0
   49.6618   14.3724   19.5738 H   0  0  0  0  0  0  0  0  0  0  0  0
   47.9285   14.6121   19.8307 H   0  0  0  0  0  0  0  0  0  0  0  0
   47.4429   12.7542   22.0151 H   0  0  0  0  0  0  0  0  0  0  0  0
   45.8927   13.3977   20.3342 H   0  0  0  0  0  0  0  0  0  0  0  0
   45.5160   11.6739   20.3781 H   0  0  0  0  0  0  0  0  0  0  0  0
   46.6604   13.2084   18.2243 H   0  0  0  0  0  0  0  0  0  0  0  0
   46.3593   11.4689   18.2154 H   0  0  0  0  0  0  0  0  0  0  0  0
   48.9209   12.5040   18.1144 H   0  0  0  0  0  0  0  0  0  0  0  0
   48.0165    9.9724   18.3605 H   0  0  0  0  0  0  0  0  0  0  0  0
   49.6962   10.3914   18.5914 H   0  0  0  0  0  0  0  0  0  0  0  0
   49.7246   10.0774   20.8158 H   0  0  0  0  0  0  0  0  0  0  0  0
   48.1811   10.6292   22.4096 H   0  0  0  0  0  0  0  0  0  0  0  0
   46.7867   10.1755   21.4688 H   0  0  0  0  0  0  0  0  0  0  0  0
   47.3485    6.2705   21.5407 H   0  0  0  0  0  0  0  0  0  0  0  0
   49.2663    5.7337   23.0599 H   0  0  0  0  0  0  0  0  0  0  0  0
   48.8048    4.3796   22.0358 H   0  0  0  0  0  0  0  0  0  0  0  0
   50.5763    4.7023   20.7795 H   0  0  0  0  0  0  0  0  0  0  0  0
   46.4485    4.8189   19.9165 H   0  0  0  0  0  0  0  0  0  0  0  0
   46.4001    3.9990   17.5953 H   0  0  0  0  0  0  0  0  0  0  0  0
   48.2558    4.5265   16.0391 H   0  0  0  0  0  0  0  0  0  0  0  0
   50.1683    5.9031   16.8131 H   0  0  0  0  0  0  0  0  0  0  0  0
   50.2399    6.7432   19.1262 H   0  0  0  0  0  0  0  0  0  0  0  0
   48.0842   10.9885   19.8012 H   0  0  0  0  0  0  0  0  0  0  0  0
   48.0013    7.5799   18.6228 H   0  0  0  0  0  0  0  0  0  0  0  0
   48.1674    9.8213   19.8016 H   0  0  0  0  0  0  0  0  0  0  0  0
   48.2199    8.3171   19.5531 H   0  0  0  0  0  0  0  0  0  0  0  0
   48.2319    8.3112   19.5620 H   0  0  0  0  0  0  0  0  0  0  0  0
   48.1561    9.8194   19.7919 H   0  0  0  0  0  0  0  0  0  0  0  0
  1  2  1  0
  3  2  1  0
  3  4  1  0
  4  5  1  0
  6  5  1  0
  6  2  1  0
  6  7  1  0
  7  8  1  0
  8  9  1  0
  3  9  1  0
  8 10  1  0
 10 11  1  0
 11 12  2  0
 11 13  1  0
 13 14  1  0
 14 15  1  0
 13 16  1  0
 16 17  2  0
 17 18  1  0
 18 19  2  0
 19 20  1  0
 20 21  2  0
 16 21  1  0
 22 23  1  0
 24 23  1  0
 24 25  1  0
 25 26  1  0
 27 26  1  0
 27 23  1  0
 27 28  1  0
 28 29  1  0
 29 30  1  0
 24 30  1  0
 29 31  1  0
 31 32  1  0
 32 33  2  0
 32 34  1  0
 34 35  1  0
 35 36  1  0
 34 37  1  0
 37 38  2  0
 38 39  1  0
 39 40  2  0
 40 41  1  0
 41 42  2  0
 37 42  1  0
 43 44  2  0
 43 45  1  0
 43 46  1  0
 43 47  2  0
  1 50  1  0
  1 51  1  0
  1 52  1  0
  3 53  1  1
  4 54  1  0
  4 55  1  0
  5 56  1  0
  5 57  1  0
  6 58  1  6
  7 59  1  0
  7 60  1  0
  8 61  1  1
  9 62  1  0
  9 63  1  0
 13 64  1  1
 14 65  1  0
 14 66  1  0
 15 67  1  0
 17 68  1  0
 18 69  1  0
 19 70  1  0
 20 71  1  0
 21 72  1  0
 22 73  1  0
 22 74  1  0
 22 75  1  0
 24 76  1  1
 25 77  1  0
 25 78  1  0
 26 79  1  0
 26 80  1  0
 27 81  1  6
 28 82  1  0
 28 83  1  0
 29 84  1  6
 30 85  1  0
 30 86  1  0
 34 87  1  1
 35 88  1  0
 35 89  1  0
 36 90  1  0
 38 91  1  0
 39 92  1  0
 40 93  1  0
 41 94  1  0
 42 95  1  0
 45 96  1  0
 46 97  1  0
 48 98  1  0
 48 99  1  0
 49100  1  0
 49101  1  0
M  END
> <Uni-Dock RESULT> 
ENERGY=   -5.936  LOWER_BOUND=    4.487  UPPER_BOUND=    6.443
INTER + INTRA:          -5.936
INTER:                  -5.936
INTRA:                   0.000
UNBOUND:                 0.000

$$$$

     RDKit          3D

101102  0  0  0  0  0  0  0  0999 V2000
   56.3637    6.4032    7.6840 C   0  0  0  0  0  0  0  0  0  0  0  0
   55.1709    7.0229    8.2544 N   0  0  0  0  0  0  0  0  0  0  0  0
   53.9363    6.6788    7.5268 C   0  0  1  0  0  0  0  0  0  0  0  0
   53.5830    5.2685    8.0098 C   0  0  0  0  0  0  0  0  0  0  0  0
   54.1751    5.1876    9.4114 C   0  0  0  0  0  0  0  0  0  0  0  0
   54.8710    6.5395    9.6162 C   0  0  2  0  0  0  0  0  0  0  0  0
   53.9177    7.5550   10.2745 C   0  0  0  0  0  0  0  0  0  0  0  0
   53.1497    8.4165    9.2579 C   0  0  1  0  0  0  0  0  0  0  0  0
   52.8465    7.6890    7.9363 C   0  0  0  0  0  0  0  0  0  0  0  0
   51.8938    8.8566    9.8166 O   0  0  0  0  0  0  0  0  0  0  0  0
   51.9487    9.8764   10.7216 C   0  0  0  0  0  0  0  0  0  0  0  0
   52.9654   10.4783   11.0501 O   0  0  0  0  0  0  0  0  0  0  0  0
   50.5635   10.1682   11.2718 C   0  0  2  0  0  0  0  0  0  0  0  0
   50.5182   11.5668   11.9178 C   0  0  0  0  0  0  0  0  0  0  0  0
   51.4671   11.7640   12.9647 O   0  0  0  0  0  0  0  0  0  0  0  0
   50.0583    9.0438   12.1628 C   0  0  0  0  0  0  0  0  0  0  0  0
   49.0420    8.1923   11.6986 C   0  0  0  0  0  0  0  0  0  0  0  0
   48.5815    7.1339   12.4856 C   0  0  0  0  0  0  0  0  0  0  0  0
   49.1326    6.9075   13.7447 C   0  0  0  0  0  0  0  0  0  0  0  0
   50.1462    7.7377   14.2163 C   0  0  0  0  0  0  0  0  0  0  0  0
   50.6077    8.7968   13.4299 C   0  0  0  0  0  0  0  0  0  0  0  0
   56.2443    5.6513    7.9041 C   0  0  0  0  0  0  0  0  0  0  0  0
   55.2322    6.4238    8.6203 N   0  0  0  0  0  0  0  0  0  0  0  0
   54.8782    7.6788    7.9335 C   0  0  1  0  0  0  0  0  0  0  0  0
   53.9244    7.2522    6.8130 C   0  0  0  0  0  0  0  0  0  0  0  0
   53.2764    5.9766    7.3315 C   0  0  0  0  0  0  0  0  0  0  0  0
   53.9316    5.7359    8.6969 C   0  0  2  0  0  0  0  0  0  0  0  0
   53.1178    6.3987    9.8227 C   0  0  0  0  0  0  0  0  0  0  0  0
   53.5644    7.8359   10.1444 C   0  0  1  0  0  0  0  0  0  0  0  0
   54.1617    8.5921    8.9460 C   0  0  0  0  0  0  0  0  0  0  0  0
   52.4207    8.5343   10.6819 O   0  0  0  0  0  0  0  0  0  0  0  0
   52.6691    9.6411   11.4394 C   0  0  0  0  0  0  0  0  0  0  0  0
   53.7802   10.1306   11.5917 O   0  0  0  0  0  0  0  0  0  0  0  0
   51.3785   10.2707   11.9562 C   0  0  2  0  0  0  0  0  0  0  0  0
   51.6514   11.1490   13.1893 C   0  0  0  0  0  0  0  0  0  0  0  0
   51.9442   10.3960   14.3653 O   0  0  0  0  0  0  0  0  0  0  0  0
   50.2108    9.3203   12.2050 C   0  0  0  0  0  0  0  0  0  0  0  0
   48.9232    9.6724   11.7694 C   0  0  0  0  0  0  0  0  0  0  0  0
   47.8343    8.8355   12.0202 C   0  0  0  0  0  0  0  0  0  0  0  0
   48.0150    7.6409   12.7138 C   0  0  0  0  0  0  0  0  0  0  0  0
   49.2856    7.2782   13.1536 C   0  0  0  0  0  0  0  0  0  0  0  0
   50.3762    8.1128   12.9037 C   0  0  0  0  0  0  0  0  0  0  0  0
   52.6193    8.1773   10.5678 S   0  0  0  0  0  0  0  0  0  0  0  0
   52.1860    9.4315   10.0015 O   0  0  0  0  0  0  0  0  0  0  0  0
   52.6543    7.1062    9.3728 O   0  0  0  0  0  0  0  0  0  0  0  0
   51.4089    7.6232   11.4654 O   0  0  0  0  0  0  0  0  0  0  0  0
   53.8576    8.0269   11.2891 O   0  0  0  0  0  0  0  0  0  0  0  0
   52.6818    7.9956   10.6570 O   0  0  0  0  0  0  0  0  0  0  0  0
   52.6870    7.9928   10.6520 O   0  0  0  0  0  0  0  0  0  0  0  0
   56.3231    5.3106    7.6454 H   0  0  0  0  0  0  0  0  0  0  0  0
   57.2474    6.6879    8.2657 H   0  0  0  0  0  0  0  0  0  0  0  0
   56.5258    6.7703    6.6655 H   0  0  0  0  0  0  0  0  0  0  0  0
   54.0550    6.7022    6.4372 H   0  0  0  0  0  0  0  0  0  0  0  0
   52.5061    5.0698    8.0099 H   0  0  0  0  0  0  0  0  0  0  0  0
   54.0527    4.5130    7.3679 H   0  0  0  0  0  0  0  0  0  0  0  0
   54.9022    4.3678    9.4524 H   0  0  0  0  0  0  0  0  0  0  0  0
   53.4040    4.9801   10.1619 H   0  0  0  0  0  0  0  0  0  0  0  0
   55.7627    6.4275   10.2447 H   0  0  0  0  0  0  0  0  0  0  0  0
   54.5121    8.2345   10.8971 H   0  0  0  0  0  0  0  0  0  0  0  0
   53.2267    7.0610   10.9671 H   0  0  0  0  0  0  0  0  0  0  0  0
   53.7566    9.2998    9.0099 H   0  0  0  0  0  0  0  0  0  0  0  0
   52.7643    8.4569    7.1545 H   0  0  0  0  0  0  0  0  0  0  0  0
   51.8590    7.2106    7.9779 H   0  0  0  0  0  0  0  0  0  0  0  0
   49.8981   10.2393   10.3993 H   0  0  0  0  0  0  0  0  0  0  0  0
   50.7160   12.3350   11.1618 H   0  0  0  0  0  0  0  0  0  0  0  0
   49.5241   11.7631   12.3336 H   0  0  0  0  0  0  0  0  0  0  0  0
   52.3540   11.6087   12.5776 H   0  0  0  0  0  0  0  0  0  0  0  0
   48.6016    8.3415   10.7148 H   0  0  0  0  0  0  0  0  0  0  0  0
   47.7923    6.4847   12.1157 H   0  0  0  0  0  0  0  0  0  0  0  0
   48.7730    6.0857   14.3585 H   0  0  0  0  0  0  0  0  0  0  0  0
   50.5815    7.5624   15.1970 H   0  0  0  0  0  0  0  0  0  0  0  0
   51.4040    9.4244   13.8252 H   0  0  0  0  0  0  0  0  0  0  0  0
   57.1827    6.2137    7.8568 H   0  0  0  0  0  0  0  0  0  0  0  0
   56.4592    4.7243    8.4460 H   0  0  0  0  0  0  0  0  0  0  0  0
   55.9583    5.3818    6.8825 H   0  0  0  0  0  0  0  0  0  0  0  0
   55.7468    8.2101    7.5274 H   0  0  0  0  0  0  0  0  0  0  0  0
   54.4840    7.0328    5.8957 H   0  0  0  0  0  0  0  0  0  0  0  0
   53.1784    8.0133    6.5659 H   0  0  0  0  0  0  0  0  0  0  0  0
   53.4987    5.1508    6.6466 H   0  0  0  0  0  0  0  0  0  0  0  0
   52.1873    6.0712    7.3883 H   0  0  0  0  0  0  0  0  0  0  0  0
   54.0193    4.6640    8.9073 H   0  0  0  0  0  0  0  0  0  0  0  0
   52.0425    6.3662    9.6015 H   0  0  0  0  0  0  0  0  0  0  0  0
   53.2411    5.8102   10.7436 H   0  0  0  0  0  0  0  0  0  0  0  0
   54.3273    7.7677   10.9331 H   0  0  0  0  0  0  0  0  0  0  0  0
   54.8954    9.3068    9.3408 H   0  0  0  0  0  0  0  0  0  0  0  0
   53.3972    9.2071    8.4571 H   0  0  0  0  0  0  0  0  0  0  0  0
   51.0846   10.9468   11.1394 H   0  0  0  0  0  0  0  0  0  0  0  0
   52.4973   11.8218   13.0137 H   0  0  0  0  0  0  0  0  0  0  0  0
   50.7836   11.7811   13.4098 H   0  0  0  0  0  0  0  0  0  0  0  0
   51.1026   10.0265   14.6905 H   0  0  0  0  0  0  0  0  0  0  0  0
   48.7546   10.6047   11.2336 H   0  0  0  0  0  0  0  0  0  0  0  0
   46.8435    9.1156   11.6731 H   0  0  0  0  0  0  0  0  0  0  0  0
   47.1661    6.9910   12.9082 H   0  0  0  0  0  0  0  0  0  0  0  0
   49.4284    6.3461   13.6943 H   0  0  0  0  0  0  0  0  0  0  0  0
   51.3592    7.8114   13.2624 H   0  0  0  0  0  0  0  0  0  0  0  0
   53.5861    7.0363    9.0713 H   0  0  0  0  0  0  0  0  0  0  0  0
   50.5837    7.7270   10.9481 H   0  0  0  0  0  0  0  0  0  0  0  0
   52.8431    7.5666    9.8035 H   0  0  0  0  0  0  0  0  0  0  0  0
   51.7164    8.0642   10.7035 H   0  0  0  0  0  0  0  0  0  0  0  0
   51.7232    8.0704   10.7167 H   0  0  0  0  0  0  0  0  0  0  0  0
   52.8309    7.5632    9.7954 H   0  0  0  0  0  0  0  0  0  0  0  0
  1  2  1  0
  3  2  1  0
  3  4  1  0
  4  5  1  0
  6  5  1  0
  6  2  1  0
  6  7  1  0
  7  8  1  0
  8  9  1  0
  3  9  1  0
  8 10  1  0
 10 11  1  0
 11 12  2  0
 11 13  1  0
 13 14  1  0
 14 15  1  0
 13 16  1  0
 16 17  2  0
 17 18  1  0
 18 19  2  0
 19 20  1  0
 20 21  2  0
 16 21  1  0
 22 23  1  0
 24 23  1  0
 24 25  1  0
 25 26  1  0
 27 26  1  0
 27 23  1  0
 27 28  1  0
 28 29  1  0
 29 30  1  0
 24 30  1  0
 29 31  1  0
 31 32  1  0
 32 33  2  0
 32 34  1  0
 34 35  1  0
 35 36  1  0
 34 37  1  0
 37 38  2  0
 38 39  1  0
 39 40  2  0
 40 41  1  0
 41 42  2  0
 37 42  1  0
 43 44  2  0
 43 45  1  0
 43 46  1  0
 43 47  2  0
  1 50  1  0
  1 51  1  0
  1 52  1  0
  3 53  1  1
  4 54  1  0
  4 55  1  0
  5 56  1  0
  5 57  1  0
  6 58  1  6
  7 59  1  0
  7 60  1  0
  8 61  1  1
  9 62  1  0
  9 63  1  0
 13 64  1  1
 14 65  1  0
 14 66  1  0
 15 67  1  0
 17 68  1  0
 18 69  1  0
 19 70  1  0
 20 71  1  0
 21 72  1  0
 22 73  1  0
 22 74  1  0
 22 75  1  0
 24 76  1  1
 25 77  1  0
 25 78  1  0
 26 79  1  0
 26 80  1  0
 27 81  1  6
 28 82  1  0
 28 83  1  0
 29 84  1  6
 30 85  1  0
 30 86  1  0
 34 87  1  1
 35 88  1  0
 35 89  1  0
 36 90  1  0
 38 91  1  0
 39 92  1  0
 40 93  1  0
 41 94  1  0
 42 95  1  0
 45 96  1  0
 46 97  1  0
 48 98  1  0
 48 99  1  0
 49100  1  0
 49101  1  0
M  END
> <Uni-Dock RESULT> 
ENERGY=   -5.903  LOWER_BOUND=    4.430  UPPER_BOUND=    8.054
INTER + INTRA:          -5.903
INTER:                  -5.903
INTRA:                   0.000
UNBOUND:                 0.000

$$$$
