
     RDKit          3D

101102  0  0  0  0  0  0  0  0999 V2000
   47.4212    5.9974   21.2746 C   0  0  0  0  0  0  0  0  0  0  0  0
   47.5317    7.3701   20.7881 N   0  0  0  0  0  0  0  0  0  0  0  0
   48.6003    8.1298   21.4615 C   0  0  1  0  0  0  0  0  0  0  0  0
   49.8944    7.6849   20.7701 C   0  0  0  0  0  0  0  0  0  0  0  0
   49.4535    7.2134   19.3915 C   0  0  0  0  0  0  0  0  0  0  0  0
   47.9395    7.4470   19.3741 C   0  0  2  0  0  0  0  0  0  0  0  0
   47.6147    8.8606   18.8590 C   0  0  0  0  0  0  0  0  0  0  0  0
   47.4858    9.9131   19.9720 C   0  0  1  0  0  0  0  0  0  0  0  0
   48.3361    9.6271   21.2216 C   0  0  0  0  0  0  0  0  0  0  0  0
   47.8541   11.1905   19.4112 O   0  0  0  0  0  0  0  0  0  0  0  0
   47.3320   12.2988   20.0066 C   0  0  0  0  0  0  0  0  0  0  0  0
   46.5778   12.2854   20.9740 O   0  0  0  0  0  0  0  0  0  0  0  0
   47.8702   13.5813   19.3863 C   0  0  2  0  0  0  0  0  0  0  0  0
   47.9118   13.5187   17.8535 C   0  0  0  0  0  0  0  0  0  0  0  0
   46.5967   13.5930   17.3000 O   0  0  0  0  0  0  0  0  0  0  0  0
   49.2134   13.9585   19.9938 C   0  0  0  0  0  0  0  0  0  0  0  0
   50.3911   13.2650   19.6717 C   0  0  0  0  0  0  0  0  0  0  0  0
   51.6080   13.6195   20.2574 C   0  0  0  0  0  0  0  0  0  0  0  0
   51.6653   14.6693   21.1710 C   0  0  0  0  0  0  0  0  0  0  0  0
   50.5045   15.3632   21.5023 C   0  0  0  0  0  0  0  0  0  0  0  0
   49.2862   15.0101   20.9199 C   0  0  0  0  0  0  0  0  0  0  0  0
   49.5095   14.8174   18.3002 C   0  0  0  0  0  0  0  0  0  0  0  0
   49.9687   14.0404   19.4351 N   0  0  0  0  0  0  0  0  0  0  0  0
   50.3697   12.6583   19.1564 C   0  0  1  0  0  0  0  0  0  0  0  0
   50.7567   12.2059   20.5691 C   0  0  0  0  0  0  0  0  0  0  0  0
   49.8857   13.0584   21.4990 C   0  0  0  0  0  0  0  0  0  0  0  0
   49.0353   13.9117   20.5559 C   0  0  2  0  0  0  0  0  0  0  0  0
   47.7280   13.1997   20.1618 C   0  0  0  0  0  0  0  0  0  0  0  0
   47.9381   11.8645   19.4314 C   0  0  1  0  0  0  0  0  0  0  0  0
   49.2152   11.8244   18.5763 C   0  0  0  0  0  0  0  0  0  0  0  0
   48.0069   10.7707   20.3787 O   0  0  0  0  0  0  0  0  0  0  0  0
   46.8247   10.1542   20.6703 C   0  0  0  0  0  0  0  0  0  0  0  0
   45.7169   10.5792   20.3600 O   0  0  0  0  0  0  0  0  0  0  0  0
   47.0432    8.8486   21.4173 C   0  0  2  0  0  0  0  0  0  0  0  0
   47.5359    9.1581   22.8402 C   0  0  0  0  0  0  0  0  0  0  0  0
   48.8686    9.6544   22.9085 O   0  0  0  0  0  0  0  0  0  0  0  0
   47.8112    7.8315   20.5818 C   0  0  0  0  0  0  0  0  0  0  0  0
   47.2556    7.4071   19.3587 C   0  0  0  0  0  0  0  0  0  0  0  0
   47.9168    6.4841   18.5450 C   0  0  0  0  0  0  0  0  0  0  0  0
   49.1450    5.9662   18.9423 C   0  0  0  0  0  0  0  0  0  0  0  0
   49.7058    6.3638   20.1521 C   0  0  0  0  0  0  0  0  0  0  0  0
   49.0435    7.2871   20.9662 C   0  0  0  0  0  0  0  0  0  0  0  0
   48.3093   10.8192   20.0990 S   0  0  0  0  0  0  0  0  0  0  0  0
   48.1482   11.2684   21.4591 O   0  0  0  0  0  0  0  0  0  0  0  0
   49.1293   11.9538   19.3151 O   0  0  0  0  0  0  0  0  0  0  0  0
   49.3722    9.6162   20.1298 O   0  0  0  0  0  0  0  0  0  0  0  0
   47.2041   10.3780   19.2854 O   0  0  0  0  0  0  0  0  0  0  0  0
   48.3151   10.7634   20.0247 O   0  0  0  0  0  0  0  0  0  0  0  0
   48.3151   10.7622   20.0248 O   0  0  0  0  0  0  0  0  0  0  0  0
   46.6364    5.4670   20.7243 H   0  0  0  0  0  0  0  0  0  0  0  0
   48.3480    5.4200   21.1879 H   0  0  0  0  0  0  0  0  0  0  0  0
   47.1230    5.9956   22.3291 H   0  0  0  0  0  0  0  0  0  0  0  0
   48.6514    7.9461   22.5415 H   0  0  0  0  0  0  0  0  0  0  0  0
   50.6386    8.4827   20.7011 H   0  0  0  0  0  0  0  0  0  0  0  0
   50.3560    6.8528   21.3141 H   0  0  0  0  0  0  0  0  0  0  0  0
   49.9819    7.7454   18.5946 H   0  0  0  0  0  0  0  0  0  0  0  0
   49.6798    6.1474   19.2785 H   0  0  0  0  0  0  0  0  0  0  0  0
   47.4360    6.7108   18.7350 H   0  0  0  0  0  0  0  0  0  0  0  0
   48.3436    9.1833   18.1033 H   0  0  0  0  0  0  0  0  0  0  0  0
   46.6527    8.8300   18.3291 H   0  0  0  0  0  0  0  0  0  0  0  0
   46.4263    9.9388   20.2666 H   0  0  0  0  0  0  0  0  0  0  0  0
   49.2751   10.1923   21.1910 H   0  0  0  0  0  0  0  0  0  0  0  0
   47.7874   10.0255   22.0852 H   0  0  0  0  0  0  0  0  0  0  0  0
   47.1347   14.3574   19.6443 H   0  0  0  0  0  0  0  0  0  0  0  0
   48.3769   12.6008   17.4771 H   0  0  0  0  0  0  0  0  0  0  0  0
   48.4820   14.3602   17.4406 H   0  0  0  0  0  0  0  0  0  0  0  0
   46.2683   14.5012   17.4313 H   0  0  0  0  0  0  0  0  0  0  0  0
   50.3740   12.4324   18.9707 H   0  0  0  0  0  0  0  0  0  0  0  0
   52.5123   13.0717   20.0052 H   0  0  0  0  0  0  0  0  0  0  0  0
   52.6135   14.9436   21.6267 H   0  0  0  0  0  0  0  0  0  0  0  0
   50.5461   16.1771   22.2223 H   0  0  0  0  0  0  0  0  0  0  0  0
   48.3910   15.5601   21.2045 H   0  0  0  0  0  0  0  0  0  0  0  0
   48.5959   14.4381   17.8334 H   0  0  0  0  0  0  0  0  0  0  0  0
   49.3203   15.8514   18.6077 H   0  0  0  0  0  0  0  0  0  0  0  0
   50.2897   14.8546   17.5312 H   0  0  0  0  0  0  0  0  0  0  0  0
   51.2357   12.6114   18.4881 H   0  0  0  0  0  0  0  0  0  0  0  0
   51.8144   12.4288   20.7648 H   0  0  0  0  0  0  0  0  0  0  0  0
   50.6166   11.1324   20.7289 H   0  0  0  0  0  0  0  0  0  0  0  0
   50.5348   13.6976   22.1096 H   0  0  0  0  0  0  0  0  0  0  0  0
   49.2848   12.4613   22.1886 H   0  0  0  0  0  0  0  0  0  0  0  0
   48.8148   14.8821   21.0140 H   0  0  0  0  0  0  0  0  0  0  0  0
   47.1563   13.8676   19.5056 H   0  0  0  0  0  0  0  0  0  0  0  0
   47.1177   13.0464   21.0601 H   0  0  0  0  0  0  0  0  0  0  0  0
   47.0908   11.6867   18.7568 H   0  0  0  0  0  0  0  0  0  0  0  0
   48.9787   12.2000   17.5728 H   0  0  0  0  0  0  0  0  0  0  0  0
   49.5458   10.7861   18.4488 H   0  0  0  0  0  0  0  0  0  0  0  0
   46.0402    8.4148   21.5514 H   0  0  0  0  0  0  0  0  0  0  0  0
   46.8869    9.9011   23.3164 H   0  0  0  0  0  0  0  0  0  0  0  0
   47.5001    8.2528   23.4553 H   0  0  0  0  0  0  0  0  0  0  0  0
   48.9510   10.3839   22.2660 H   0  0  0  0  0  0  0  0  0  0  0  0
   46.2945    7.7958   19.0260 H   0  0  0  0  0  0  0  0  0  0  0  0
   47.4734    6.1738   17.6015 H   0  0  0  0  0  0  0  0  0  0  0  0
   49.6642    5.2496   18.3111 H   0  0  0  0  0  0  0  0  0  0  0  0
   50.6644    5.9544   20.4664 H   0  0  0  0  0  0  0  0  0  0  0  0
   49.5190    7.5629   21.9046 H   0  0  0  0  0  0  0  0  0  0  0  0
   49.9075   12.1917   19.8571 H   0  0  0  0  0  0  0  0  0  0  0  0
   48.8807    8.7903   20.3261 H   0  0  0  0  0  0  0  0  0  0  0  0
   48.9961   11.4512   20.0669 H   0  0  0  0  0  0  0  0  0  0  0  0
   48.8109    9.9357   20.1105 H   0  0  0  0  0  0  0  0  0  0  0  0
   48.8130    9.9364   20.1107 H   0  0  0  0  0  0  0  0  0  0  0  0
   48.9940   11.4518   20.0666 H   0  0  0  0  0  0  0  0  0  0  0  0
  1  2  1  0
  3  2  1  0
  3  4  1  0
  4  5  1  0
  6  5  1  0
  6  2  1  0
  6  7  1  0
  7  8  1  0
  8  9  1  0
  3  9  1  0
  8 10  1  0
 10 11  1  0
 11 12  2  0
 11 13  1  0
 13 14  1  0
 14 15  1  0
 13 16  1  0
 16 17  2  0
 17 18  1  0
 18 19  2  0
 19 20  1  0
 20 21  2  0
 16 21  1  0
 22 23  1  0
 24 23  1  0
 24 25  1  0
 25 26  1  0
 27 26  1  0
 27 23  1  0
 27 28  1  0
 28 29  1  0
 29 30  1  0
 24 30  1  0
 29 31  1  0
 31 32  1  0
 32 33  2  0
 32 34  1  0
 34 35  1  0
 35 36  1  0
 34 37  1  0
 37 38  2  0
 38 39  1  0
 39 40  2  0
 40 41  1  0
 41 42  2  0
 37 42  1  0
 43 44  2  0
 43 45  1  0
 43 46  1  0
 43 47  2  0
  1 50  1  0
  1 51  1  0
  1 52  1  0
  3 53  1  1
  4 54  1  0
  4 55  1  0
  5 56  1  0
  5 57  1  0
  6 58  1  6
  7 59  1  0
  7 60  1  0
  8 61  1  1
  9 62  1  0
  9 63  1  0
 13 64  1  1
 14 65  1  0
 14 66  1  0
 15 67  1  0
 17 68  1  0
 18 69  1  0
 19 70  1  0
 20 71  1  0
 21 72  1  0
 22 73  1  0
 22 74  1  0
 22 75  1  0
 24 76  1  6
 25 77  1  0
 25 78  1  0
 26 79  1  0
 26 80  1  0
 27 81  1  1
 28 82  1  0
 28 83  1  0
 29 84  1  6
 30 85  1  0
 30 86  1  0
 34 87  1  1
 35 88  1  0
 35 89  1  0
 36 90  1  0
 38 91  1  0
 39 92  1  0
 40 93  1  0
 41 94  1  0
 42 95  1  0
 45 96  1  0
 46 97  1  0
 48 98  1  0
 48 99  1  0
 49100  1  0
 49101  1  0
M  END
> <Uni-Dock RESULT> 
ENERGY=   -5.313  LOWER_BOUND=    0.000  UPPER_BOUND=    0.000
INTER + INTRA:          -5.313
INTER:                  -5.313
INTRA:                   0.000
UNBOUND:                 0.000

$$$$

     RDKit          3D

101102  0  0  0  0  0  0  0  0999 V2000
   47.4558   12.4405   17.9098 C   0  0  0  0  0  0  0  0  0  0  0  0
   47.6401   11.2398   18.7208 N   0  0  0  0  0  0  0  0  0  0  0  0
   49.0596   10.9343   18.9734 C   0  0  1  0  0  0  0  0  0  0  0  0
   49.4675   11.8758   20.1126 C   0  0  0  0  0  0  0  0  0  0  0  0
   48.1672   12.1885   20.8398 C   0  0  0  0  0  0  0  0  0  0  0  0
   47.1049   11.3818   20.0865 C   0  0  2  0  0  0  0  0  0  0  0  0
   46.9617    9.9742   20.6926 C   0  0  0  0  0  0  0  0  0  0  0  0
   47.8478    8.9142   20.0183 C   0  0  1  0  0  0  0  0  0  0  0  0
   49.1528    9.4631   19.4166 C   0  0  0  0  0  0  0  0  0  0  0  0
   48.1499    7.9049   21.0041 O   0  0  0  0  0  0  0  0  0  0  0  0
   48.4469    6.6593   20.5400 C   0  0  0  0  0  0  0  0  0  0  0  0
   48.4731    6.3400   19.3558 O   0  0  0  0  0  0  0  0  0  0  0  0
   48.8401    5.7140   21.6675 C   0  0  2  0  0  0  0  0  0  0  0  0
   47.9216    5.8453   22.8898 C   0  0  0  0  0  0  0  0  0  0  0  0
   46.6343    5.2830   22.6285 O   0  0  0  0  0  0  0  0  0  0  0  0
   50.3118    5.8701   22.0213 C   0  0  0  0  0  0  0  0  0  0  0  0
   50.7859    6.9808   22.7377 C   0  0  0  0  0  0  0  0  0  0  0  0
   52.1444    7.1091   23.0336 C   0  0  0  0  0  0  0  0  0  0  0  0
   53.0462    6.1321   22.6188 C   0  0  0  0  0  0  0  0  0  0  0  0
   52.5903    5.0273   21.9044 C   0  0  0  0  0  0  0  0  0  0  0  0
   51.2333    4.8969   21.6055 C   0  0  0  0  0  0  0  0  0  0  0  0
   49.7510    5.2598   23.7552 C   0  0  0  0  0  0  0  0  0  0  0  0
   50.5547    6.1114   22.9000 N   0  0  0  0  0  0  0  0  0  0  0  0
   50.2811    7.5495   22.9738 C   0  0  1  0  0  0  0  0  0  0  0  0
   51.2942    8.0640   21.9447 C   0  0  0  0  0  0  0  0  0  0  0  0
   51.4623    6.9044   20.9562 C   0  0  0  0  0  0  0  0  0  0  0  0
   50.5080    5.8223   21.4653 C   0  0  2  0  0  0  0  0  0  0  0  0
   49.0954    5.9801   20.8730 C   0  0  0  0  0  0  0  0  0  0  0  0
   48.4198    7.3173   21.2131 C   0  0  1  0  0  0  0  0  0  0  0  0
   48.8331    7.8861   22.5804 C   0  0  0  0  0  0  0  0  0  0  0  0
   48.7290    8.3145   20.2087 O   0  0  0  0  0  0  0  0  0  0  0  0
   47.8531    8.4077   19.1662 C   0  0  0  0  0  0  0  0  0  0  0  0
   46.9686    7.5949   18.9185 O   0  0  0  0  0  0  0  0  0  0  0  0
   48.0898    9.6656   18.3465 C   0  0  2  0  0  0  0  0  0  0  0  0
   49.4084    9.5205   17.5695 C   0  0  0  0  0  0  0  0  0  0  0  0
   50.5792    9.5833   18.3770 O   0  0  0  0  0  0  0  0  0  0  0  0
   47.8551   10.9328   19.1600 C   0  0  0  0  0  0  0  0  0  0  0  0
   46.5783   11.1513   19.7135 C   0  0  0  0  0  0  0  0  0  0  0  0
   46.3052   12.2893   20.4762 C   0  0  0  0  0  0  0  0  0  0  0  0
   47.3046   13.2313   20.6962 C   0  0  0  0  0  0  0  0  0  0  0  0
   48.5695   13.0398   20.1489 C   0  0  0  0  0  0  0  0  0  0  0  0
   48.8421   11.9012   19.3854 C   0  0  0  0  0  0  0  0  0  0  0  0
   48.7967    8.3987   20.6092 S   0  0  0  0  0  0  0  0  0  0  0  0
   49.6341    7.8716   19.5610 O   0  0  0  0  0  0  0  0  0  0  0  0
   49.2559    7.7058   21.9814 O   0  0  0  0  0  0  0  0  0  0  0  0
   49.2525    9.9197   20.8474 O   0  0  0  0  0  0  0  0  0  0  0  0
   47.3572    8.4023   20.5323 O   0  0  0  0  0  0  0  0  0  0  0  0
   48.7397    8.4550   20.6565 O   0  0  0  0  0  0  0  0  0  0  0  0
   48.7394    8.4562   20.6561 O   0  0  0  0  0  0  0  0  0  0  0  0
   46.3873   12.6416   17.7758 H   0  0  0  0  0  0  0  0  0  0  0  0
   47.9209   13.3374   18.3329 H   0  0  0  0  0  0  0  0  0  0  0  0
   47.8753   12.2858   16.9093 H   0  0  0  0  0  0  0  0  0  0  0  0
   49.7002   11.0827   18.0957 H   0  0  0  0  0  0  0  0  0  0  0  0
   50.2073   11.4361   20.7868 H   0  0  0  0  0  0  0  0  0  0  0  0
   49.8980   12.8011   19.7129 H   0  0  0  0  0  0  0  0  0  0  0  0
   48.2282   11.9360   21.9027 H   0  0  0  0  0  0  0  0  0  0  0  0
   47.9568   13.2614   20.7704 H   0  0  0  0  0  0  0  0  0  0  0  0
   46.1308   11.8855   20.1223 H   0  0  0  0  0  0  0  0  0  0  0  0
   47.1353    9.9911   21.7771 H   0  0  0  0  0  0  0  0  0  0  0  0
   45.9195    9.6457   20.5780 H   0  0  0  0  0  0  0  0  0  0  0  0
   47.2507    8.4649   19.2111 H   0  0  0  0  0  0  0  0  0  0  0  0
   49.9924    9.3122   20.1052 H   0  0  0  0  0  0  0  0  0  0  0  0
   49.3872    8.8497   18.5366 H   0  0  0  0  0  0  0  0  0  0  0  0
   48.6780    4.7028   21.2660 H   0  0  0  0  0  0  0  0  0  0  0  0
   47.7706    6.8854   23.1995 H   0  0  0  0  0  0  0  0  0  0  0  0
   48.3364    5.3102   23.7532 H   0  0  0  0  0  0  0  0  0  0  0  0
   46.7347    4.3145   22.5855 H   0  0  0  0  0  0  0  0  0  0  0  0
   50.1059    7.7659   23.0634 H   0  0  0  0  0  0  0  0  0  0  0  0
   52.5010    7.9762   23.5836 H   0  0  0  0  0  0  0  0  0  0  0  0
   54.1038    6.2339   22.8494 H   0  0  0  0  0  0  0  0  0  0  0  0
   53.2946    4.2682   21.5720 H   0  0  0  0  0  0  0  0  0  0  0  0
   50.9037    4.0302   21.0355 H   0  0  0  0  0  0  0  0  0  0  0  0
   48.6818    5.2684   23.5246 H   0  0  0  0  0  0  0  0  0  0  0  0
   50.0978    4.2235   23.6822 H   0  0  0  0  0  0  0  0  0  0  0  0
   49.8716    5.5597   24.8026 H   0  0  0  0  0  0  0  0  0  0  0  0
   50.5019    7.9567   23.9659 H   0  0  0  0  0  0  0  0  0  0  0  0
   52.2599    8.2657   22.4280 H   0  0  0  0  0  0  0  0  0  0  0  0
   50.9764    8.9902   21.4562 H   0  0  0  0  0  0  0  0  0  0  0  0
   52.4987    6.5478   20.9970 H   0  0  0  0  0  0  0  0  0  0  0  0
   51.2637    7.1924   19.9214 H   0  0  0  0  0  0  0  0  0  0  0  0
   50.9047    4.8266   21.2387 H   0  0  0  0  0  0  0  0  0  0  0  0
   48.4676    5.1668   21.2578 H   0  0  0  0  0  0  0  0  0  0  0  0
   49.1453    5.8485   19.7852 H   0  0  0  0  0  0  0  0  0  0  0  0
   47.3319    7.1745   21.2370 H   0  0  0  0  0  0  0  0  0  0  0  0
   48.1575    7.4858   23.3468 H   0  0  0  0  0  0  0  0  0  0  0  0
   48.6990    8.9750   22.5869 H   0  0  0  0  0  0  0  0  0  0  0  0
   47.3038    9.6669   17.5756 H   0  0  0  0  0  0  0  0  0  0  0  0
   49.4331    8.5655   17.0336 H   0  0  0  0  0  0  0  0  0  0  0  0
   49.4930   10.3158   16.8216 H   0  0  0  0  0  0  0  0  0  0  0  0
   50.4615    8.9689   19.1257 H   0  0  0  0  0  0  0  0  0  0  0  0
   45.7781   10.4303   19.5543 H   0  0  0  0  0  0  0  0  0  0  0  0
   45.3141   12.4364   20.8995 H   0  0  0  0  0  0  0  0  0  0  0  0
   47.0972   14.1170   21.2910 H   0  0  0  0  0  0  0  0  0  0  0  0
   49.3506   13.7797   20.3158 H   0  0  0  0  0  0  0  0  0  0  0  0
   49.8438   11.7985   18.9745 H   0  0  0  0  0  0  0  0  0  0  0  0
   50.2296    7.7713   22.0408 H   0  0  0  0  0  0  0  0  0  0  0  0
   48.7688   10.4794   20.2032 H   0  0  0  0  0  0  0  0  0  0  0  0
   49.4683    8.0876   21.1786 H   0  0  0  0  0  0  0  0  0  0  0  0
   48.9184    9.4069   20.6401 H   0  0  0  0  0  0  0  0  0  0  0  0
   48.9203    9.4072   20.6413 H   0  0  0  0  0  0  0  0  0  0  0  0
   49.4668    8.0863   21.1778 H   0  0  0  0  0  0  0  0  0  0  0  0
  1  2  1  0
  3  2  1  0
  3  4  1  0
  4  5  1  0
  6  5  1  0
  6  2  1  0
  6  7  1  0
  7  8  1  0
  8  9  1  0
  3  9  1  0
  8 10  1  0
 10 11  1  0
 11 12  2  0
 11 13  1  0
 13 14  1  0
 14 15  1  0
 13 16  1  0
 16 17  2  0
 17 18  1  0
 18 19  2  0
 19 20  1  0
 20 21  2  0
 16 21  1  0
 22 23  1  0
 24 23  1  0
 24 25  1  0
 25 26  1  0
 27 26  1  0
 27 23  1  0
 27 28  1  0
 28 29  1  0
 29 30  1  0
 24 30  1  0
 29 31  1  0
 31 32  1  0
 32 33  2  0
 32 34  1  0
 34 35  1  0
 35 36  1  0
 34 37  1  0
 37 38  2  0
 38 39  1  0
 39 40  2  0
 40 41  1  0
 41 42  2  0
 37 42  1  0
 43 44  2  0
 43 45  1  0
 43 46  1  0
 43 47  2  0
  1 50  1  0
  1 51  1  0
  1 52  1  0
  3 53  1  1
  4 54  1  0
  4 55  1  0
  5 56  1  0
  5 57  1  0
  6 58  1  6
  7 59  1  0
  7 60  1  0
  8 61  1  1
  9 62  1  0
  9 63  1  0
 13 64  1  1
 14 65  1  0
 14 66  1  0
 15 67  1  0
 17 68  1  0
 18 69  1  0
 19 70  1  0
 20 71  1  0
 21 72  1  0
 22 73  1  0
 22 74  1  0
 22 75  1  0
 24 76  1  6
 25 77  1  0
 25 78  1  0
 26 79  1  0
 26 80  1  0
 27 81  1  1
 28 82  1  0
 28 83  1  0
 29 84  1  6
 30 85  1  0
 30 86  1  0
 34 87  1  1
 35 88  1  0
 35 89  1  0
 36 90  1  0
 38 91  1  0
 39 92  1  0
 40 93  1  0
 41 94  1  0
 42 95  1  0
 45 96  1  0
 46 97  1  0
 48 98  1  0
 48 99  1  0
 49100  1  0
 49101  1  0
M  END
> <Uni-Dock RESULT> 
ENERGY=   -4.836  LOWER_BOUND=    2.139  UPPER_BOUND=    6.048
INTER + INTRA:          -4.836
INTER:                  -4.836
INTRA:                   0.000
UNBOUND:                 0.000

$$$$

     RDKit          3D

101102  0  0  0  0  0  0  0  0999 V2000
   49.6228    8.0031   12.0229 C   0  0  0  0  0  0  0  0  0  0  0  0
   49.4467    7.6719   13.4345 N   0  0  0  0  0  0  0  0  0  0  0  0
   49.2827    8.8649   14.2843 C   0  0  1  0  0  0  0  0  0  0  0  0
   47.8168    9.2767   14.1049 C   0  0  0  0  0  0  0  0  0  0  0  0
   47.1027    7.9956   13.6973 C   0  0  0  0  0  0  0  0  0  0  0  0
   48.2020    6.9286   13.6988 C   0  0  2  0  0  0  0  0  0  0  0  0
   48.3212    6.2746   15.0870 C   0  0  0  0  0  0  0  0  0  0  0  0
   49.3562    6.9469   16.0038 C   0  0  1  0  0  0  0  0  0  0  0  0
   49.5622    8.4482   15.7395 C   0  0  0  0  0  0  0  0  0  0  0  0
   48.9303    6.7438   17.3673 O   0  0  0  0  0  0  0  0  0  0  0  0
   49.8981    6.7684   18.3255 C   0  0  0  0  0  0  0  0  0  0  0  0
   51.0926    6.9474   18.1111 O   0  0  0  0  0  0  0  0  0  0  0  0
   49.3121    6.6395   19.7253 C   0  0  2  0  0  0  0  0  0  0  0  0
   48.2211    5.5633   19.8073 C   0  0  0  0  0  0  0  0  0  0  0  0
   48.7848    4.2527   19.7303 O   0  0  0  0  0  0  0  0  0  0  0  0
   48.8430    7.9900   20.2462 C   0  0  0  0  0  0  0  0  0  0  0  0
   47.6700    8.5985   19.7714 C   0  0  0  0  0  0  0  0  0  0  0  0
   47.2714    9.8470   20.2528 C   0  0  0  0  0  0  0  0  0  0  0  0
   48.0373   10.5038   21.2129 C   0  0  0  0  0  0  0  0  0  0  0  0
   49.2049    9.9137   21.6899 C   0  0  0  0  0  0  0  0  0  0  0  0
   49.6069    8.6665   21.2095 C   0  0  0  0  0  0  0  0  0  0  0  0
   47.6199    6.9358   21.2884 C   0  0  0  0  0  0  0  0  0  0  0  0
   47.9397    8.1043   20.4916 N   0  0  0  0  0  0  0  0  0  0  0  0
   47.2277    8.2362   19.2172 C   0  0  1  0  0  0  0  0  0  0  0  0
   47.8448    9.5423   18.7040 C   0  0  0  0  0  0  0  0  0  0  0  0
   49.2448    9.5782   19.3275 C   0  0  0  0  0  0  0  0  0  0  0  0
   49.3464    8.2751   20.1228 C   0  0  2  0  0  0  0  0  0  0  0  0
   49.8789    7.1172   19.2586 C   0  0  0  0  0  0  0  0  0  0  0  0
   49.0004    6.7889   18.0417 C   0  0  1  0  0  0  0  0  0  0  0  0
   47.5037    7.0541   18.2729 C   0  0  0  0  0  0  0  0  0  0  0  0
   49.4134    7.5654   16.8906 O   0  0  0  0  0  0  0  0  0  0  0  0
   50.3439    6.9853   16.0780 C   0  0  0  0  0  0  0  0  0  0  0  0
   50.9879    5.9792   16.3558 O   0  0  0  0  0  0  0  0  0  0  0  0
   50.4774    7.7290   14.7592 C   0  0  2  0  0  0  0  0  0  0  0  0
   51.1574    9.0845   15.0112 C   0  0  0  0  0  0  0  0  0  0  0  0
   50.3466   10.0334   15.6960 O   0  0  0  0  0  0  0  0  0  0  0  0
   49.1867    7.6969   13.9495 C   0  0  0  0  0  0  0  0  0  0  0  0
   48.6684    6.4471   13.5570 C   0  0  0  0  0  0  0  0  0  0  0  0
   47.4844    6.3532   12.8219 C   0  0  0  0  0  0  0  0  0  0  0  0
   46.7989    7.5090   12.4631 C   0  0  0  0  0  0  0  0  0  0  0  0
   47.2998    8.7539   12.8313 C   0  0  0  0  0  0  0  0  0  0  0  0
   48.4849    8.8474   13.5665 C   0  0  0  0  0  0  0  0  0  0  0  0
   49.0160    7.5700   17.0094 S   0  0  0  0  0  0  0  0  0  0  0  0
   50.1396    8.4232   17.3052 O   0  0  0  0  0  0  0  0  0  0  0  0
   48.0932    7.5234   18.3210 O   0  0  0  0  0  0  0  0  0  0  0  0
   48.0787    8.3749   15.9839 O   0  0  0  0  0  0  0  0  0  0  0  0
   49.1644    6.2374   16.4801 O   0  0  0  0  0  0  0  0  0  0  0  0
   48.9514    7.5226   16.9620 O   0  0  0  0  0  0  0  0  0  0  0  0
   48.9512    7.5227   16.9608 O   0  0  0  0  0  0  0  0  0  0  0  0
   49.7097    7.0855   11.4309 H   0  0  0  0  0  0  0  0  0  0  0  0
   48.8086    8.6036   11.6031 H   0  0  0  0  0  0  0  0  0  0  0  0
   50.5564    8.5591   11.8814 H   0  0  0  0  0  0  0  0  0  0  0  0
   49.9554    9.6879   14.0144 H   0  0  0  0  0  0  0  0  0  0  0  0
   47.3798    9.7079   15.0095 H   0  0  0  0  0  0  0  0  0  0  0  0
   47.7204   10.0222   13.3073 H   0  0  0  0  0  0  0  0  0  0  0  0
   46.2738    7.7629   14.3727 H   0  0  0  0  0  0  0  0  0  0  0  0
   46.6822    8.1136   12.6925 H   0  0  0  0  0  0  0  0  0  0  0  0
   47.9938    6.1493   12.9549 H   0  0  0  0  0  0  0  0  0  0  0  0
   47.3428    6.2186   15.5831 H   0  0  0  0  0  0  0  0  0  0  0  0
   48.6333    5.2290   14.9582 H   0  0  0  0  0  0  0  0  0  0  0  0
   50.3121    6.4274   15.8417 H   0  0  0  0  0  0  0  0  0  0  0  0
   48.9738    9.0511   16.4411 H   0  0  0  0  0  0  0  0  0  0  0  0
   50.6108    8.6772   15.9709 H   0  0  0  0  0  0  0  0  0  0  0  0
   50.1426    6.2866   20.3544 H   0  0  0  0  0  0  0  0  0  0  0  0
   47.4765    5.6498   19.0082 H   0  0  0  0  0  0  0  0  0  0  0  0
   47.6791    5.6242   20.7593 H   0  0  0  0  0  0  0  0  0  0  0  0
   49.2631    4.0839   20.5625 H   0  0  0  0  0  0  0  0  0  0  0  0
   47.0587    8.1141   19.0121 H   0  0  0  0  0  0  0  0  0  0  0  0
   46.3647   10.3113   19.8736 H   0  0  0  0  0  0  0  0  0  0  0  0
   47.7260   11.4763   21.5862 H   0  0  0  0  0  0  0  0  0  0  0  0
   49.8087   10.4295   22.4329 H   0  0  0  0  0  0  0  0  0  0  0  0
   50.5298    8.2319   21.5893 H   0  0  0  0  0  0  0  0  0  0  0  0
   47.8811    5.9834   20.8181 H   0  0  0  0  0  0  0  0  0  0  0  0
   48.1420    6.9853   22.2499 H   0  0  0  0  0  0  0  0  0  0  0  0
   46.5471    6.9172   21.5125 H   0  0  0  0  0  0  0  0  0  0  0  0
   46.1488    8.3529   19.3624 H   0  0  0  0  0  0  0  0  0  0  0  0
   47.2688   10.4046   19.0666 H   0  0  0  0  0  0  0  0  0  0  0  0
   47.8692    9.6048   17.6118 H   0  0  0  0  0  0  0  0  0  0  0  0
   49.3139   10.4413   20.0007 H   0  0  0  0  0  0  0  0  0  0  0  0
   50.0402    9.6860   18.5867 H   0  0  0  0  0  0  0  0  0  0  0  0
   49.9830    8.4144   21.0033 H   0  0  0  0  0  0  0  0  0  0  0  0
   49.9481    6.2212   19.8879 H   0  0  0  0  0  0  0  0  0  0  0  0
   50.9002    7.3512   18.9344 H   0  0  0  0  0  0  0  0  0  0  0  0
   49.1068    5.7240   17.7984 H   0  0  0  0  0  0  0  0  0  0  0  0
   47.0475    6.1506   18.6966 H   0  0  0  0  0  0  0  0  0  0  0  0
   47.0042    7.2326   17.3125 H   0  0  0  0  0  0  0  0  0  0  0  0
   51.2045    7.1514   14.1678 H   0  0  0  0  0  0  0  0  0  0  0  0
   52.0705    8.9502   15.6013 H   0  0  0  0  0  0  0  0  0  0  0  0
   51.4490    9.5411   14.0595 H   0  0  0  0  0  0  0  0  0  0  0  0
   49.9729    9.5963   16.4843 H   0  0  0  0  0  0  0  0  0  0  0  0
   49.1870    5.5275   13.8233 H   0  0  0  0  0  0  0  0  0  0  0  0
   47.0980    5.3781   12.5336 H   0  0  0  0  0  0  0  0  0  0  0  0
   45.8759    7.4405   11.8932 H   0  0  0  0  0  0  0  0  0  0  0  0
   46.7668    9.6593   12.5457 H   0  0  0  0  0  0  0  0  0  0  0  0
   48.8392    9.8422   13.8261 H   0  0  0  0  0  0  0  0  0  0  0  0
   47.9551    8.4424   18.6249 H   0  0  0  0  0  0  0  0  0  0  0  0
   48.4192    8.2113   15.0787 H   0  0  0  0  0  0  0  0  0  0  0  0
   48.6166    7.9951   17.7387 H   0  0  0  0  0  0  0  0  0  0  0  0
   48.5175    7.9606   16.2149 H   0  0  0  0  0  0  0  0  0  0  0  0
   48.5162    7.9622   16.2158 H   0  0  0  0  0  0  0  0  0  0  0  0
   48.6180    7.9934   17.7390 H   0  0  0  0  0  0  0  0  0  0  0  0
  1  2  1  0
  3  2  1  0
  3  4  1  0
  4  5  1  0
  6  5  1  0
  6  2  1  0
  6  7  1  0
  7  8  1  0
  8  9  1  0
  3  9  1  0
  8 10  1  0
 10 11  1  0
 11 12  2  0
 11 13  1  0
 13 14  1  0
 14 15  1  0
 13 16  1  0
 16 17  2  0
 17 18  1  0
 18 19  2  0
 19 20  1  0
 20 21  2  0
 16 21  1  0
 22 23  1  0
 24 23  1  0
 24 25  1  0
 25 26  1  0
 27 26  1  0
 27 23  1  0
 27 28  1  0
 28 29  1  0
 29 30  1  0
 24 30  1  0
 29 31  1  0
 31 32  1  0
 32 33  2  0
 32 34  1  0
 34 35  1  0
 35 36  1  0
 34 37  1  0
 37 38  2  0
 38 39  1  0
 39 40  2  0
 40 41  1  0
 41 42  2  0
 37 42  1  0
 43 44  2  0
 43 45  1  0
 43 46  1  0
 43 47  2  0
  1 50  1  0
  1 51  1  0
  1 52  1  0
  3 53  1  1
  4 54  1  0
  4 55  1  0
  5 56  1  0
  5 57  1  0
  6 58  1  6
  7 59  1  0
  7 60  1  0
  8 61  1  1
  9 62  1  0
  9 63  1  0
 13 64  1  1
 14 65  1  0
 14 66  1  0
 15 67  1  0
 17 68  1  0
 18 69  1  0
 19 70  1  0
 20 71  1  0
 21 72  1  0
 22 73  1  0
 22 74  1  0
 22 75  1  0
 24 76  1  6
 25 77  1  0
 25 78  1  0
 26 79  1  0
 26 80  1  0
 27 81  1  1
 28 82  1  0
 28 83  1  0
 29 84  1  6
 30 85  1  0
 30 86  1  0
 34 87  1  1
 35 88  1  0
 35 89  1  0
 36 90  1  0
 38 91  1  0
 39 92  1  0
 40 93  1  0
 41 94  1  0
 42 95  1  0
 45 96  1  0
 46 97  1  0
 48 98  1  0
 48 99  1  0
 49100  1  0
 49101  1  0
M  END
> <Uni-Dock RESULT> 
ENERGY=   -4.797  LOWER_BOUND=    3.865  UPPER_BOUND=    6.430
INTER + INTRA:          -4.797
INTER:                  -4.797
INTRA:                   0.000
UNBOUND:                 0.000

$$$$

     RDKit          3D

101102  0  0  0  0  0  0  0  0999 V2000
   50.1057    3.3219   17.9279 C   0  0  0  0  0  0  0  0  0  0  0  0
   49.9815    4.7717   17.8029 N   0  0  0  0  0  0  0  0  0  0  0  0
   49.2702    5.3835   18.9395 C   0  0  1  0  0  0  0  0  0  0  0  0
   50.3187    5.4788   20.0541 C   0  0  0  0  0  0  0  0  0  0  0  0
   51.6549    5.5130   19.3256 C   0  0  0  0  0  0  0  0  0  0  0  0
   51.2816    5.4647   17.8406 C   0  0  2  0  0  0  0  0  0  0  0  0
   51.0820    6.8861   17.2850 C   0  0  0  0  0  0  0  0  0  0  0  0
   49.6278    7.3804   17.3504 C   0  0  1  0  0  0  0  0  0  0  0  0
   48.8029    6.7839   18.5037 C   0  0  0  0  0  0  0  0  0  0  0  0
   49.6591    8.8185   17.4637 O   0  0  0  0  0  0  0  0  0  0  0  0
   48.5651    9.4960   17.0170 C   0  0  0  0  0  0  0  0  0  0  0  0
   47.5680    8.9738   16.5292 O   0  0  0  0  0  0  0  0  0  0  0  0
   48.6795   10.9917   17.2793 C   0  0  2  0  0  0  0  0  0  0  0  0
   50.0732   11.5406   16.9454 C   0  0  0  0  0  0  0  0  0  0  0  0
   50.2805   11.5925   15.5327 O   0  0  0  0  0  0  0  0  0  0  0  0
   48.2401   11.3319   18.6958 C   0  0  0  0  0  0  0  0  0  0  0  0
   49.0431   11.0379   19.8095 C   0  0  0  0  0  0  0  0  0  0  0  0
   48.6082   11.3438   21.1006 C   0  0  0  0  0  0  0  0  0  0  0  0
   47.3678   11.9461   21.2967 C   0  0  0  0  0  0  0  0  0  0  0  0
   46.5596   12.2398   20.2016 C   0  0  0  0  0  0  0  0  0  0  0  0
   46.9907   11.9338   18.9099 C   0  0  0  0  0  0  0  0  0  0  0  0
   49.4379   12.8210   18.4931 C   0  0  0  0  0  0  0  0  0  0  0  0
   48.8461   11.7567   19.2802 N   0  0  0  0  0  0  0  0  0  0  0  0
   49.7510   10.6869   19.7106 C   0  0  1  0  0  0  0  0  0  0  0  0
   48.7625    9.7949   20.4703 C   0  0  0  0  0  0  0  0  0  0  0  0
   47.4124   10.0493   19.7903 C   0  0  0  0  0  0  0  0  0  0  0  0
   47.7270   11.0390   18.6666 C   0  0  2  0  0  0  0  0  0  0  0  0
   48.1248   10.3193   17.3647 C   0  0  0  0  0  0  0  0  0  0  0  0
   49.3740    9.4345   17.4952 C   0  0  1  0  0  0  0  0  0  0  0  0
   50.3944    9.9566   18.5200 C   0  0  0  0  0  0  0  0  0  0  0  0
   49.0068    8.0885   17.8847 O   0  0  0  0  0  0  0  0  0  0  0  0
   48.7804    7.2095   16.8654 C   0  0  0  0  0  0  0  0  0  0  0  0
   48.6643    7.5199   15.6845 O   0  0  0  0  0  0  0  0  0  0  0  0
   48.7084    5.7766   17.3669 C   0  0  2  0  0  0  0  0  0  0  0  0
   47.4110    5.5877   18.1695 C   0  0  0  0  0  0  0  0  0  0  0  0
   47.3976    6.2440   19.4329 O   0  0  0  0  0  0  0  0  0  0  0  0
   50.0243    5.3184   17.9843 C   0  0  0  0  0  0  0  0  0  0  0  0
   51.1807    5.3144   17.1797 C   0  0  0  0  0  0  0  0  0  0  0  0
   52.4172    4.9140   17.6917 C   0  0  0  0  0  0  0  0  0  0  0  0
   52.5182    4.5069   19.0178 C   0  0  0  0  0  0  0  0  0  0  0  0
   51.3858    4.4928   19.8262 C   0  0  0  0  0  0  0  0  0  0  0  0
   50.1487    4.8931   19.3134 C   0  0  0  0  0  0  0  0  0  0  0  0
   49.2925    8.2946   18.1034 S   0  0  0  0  0  0  0  0  0  0  0  0
   47.8665    8.1416   18.2479 O   0  0  0  0  0  0  0  0  0  0  0  0
   49.6682    9.7701   18.6093 O   0  0  0  0  0  0  0  0  0  0  0  0
   49.9747    7.3822   19.2349 O   0  0  0  0  0  0  0  0  0  0  0  0
   49.9874    8.0190   16.8709 O   0  0  0  0  0  0  0  0  0  0  0  0
   49.3829    8.2742   18.0952 O   0  0  0  0  0  0  0  0  0  0  0  0
   49.3834    8.2731   18.0954 O   0  0  0  0  0  0  0  0  0  0  0  0
   50.6661    2.9192   17.0770 H   0  0  0  0  0  0  0  0  0  0  0  0
   50.6032    2.9968   18.8480 H   0  0  0  0  0  0  0  0  0  0  0  0
   49.1141    2.8564   17.9009 H   0  0  0  0  0  0  0  0  0  0  0  0
   48.3993    4.8051   19.2709 H   0  0  0  0  0  0  0  0  0  0  0  0
   50.1874    6.3577   20.6909 H   0  0  0  0  0  0  0  0  0  0  0  0
   50.2745    4.5957   20.7018 H   0  0  0  0  0  0  0  0  0  0  0  0
   52.2394    6.3977   19.5956 H   0  0  0  0  0  0  0  0  0  0  0  0
   52.2465    4.6335   19.6026 H   0  0  0  0  0  0  0  0  0  0  0  0
   52.0611    4.9602   17.2560 H   0  0  0  0  0  0  0  0  0  0  0  0
   51.7565    7.6008   17.7757 H   0  0  0  0  0  0  0  0  0  0  0  0
   51.3802    6.8960   16.2275 H   0  0  0  0  0  0  0  0  0  0  0  0
   49.1525    7.1024   16.3982 H   0  0  0  0  0  0  0  0  0  0  0  0
   48.7728    7.4718   19.3569 H   0  0  0  0  0  0  0  0  0  0  0  0
   47.7643    6.7105   18.1552 H   0  0  0  0  0  0  0  0  0  0  0  0
   47.9834   11.4632   16.5700 H   0  0  0  0  0  0  0  0  0  0  0  0
   50.8820   10.9397   17.3757 H   0  0  0  0  0  0  0  0  0  0  0  0
   50.1952   12.5626   17.3255 H   0  0  0  0  0  0  0  0  0  0  0  0
   49.7194   12.3042   15.1744 H   0  0  0  0  0  0  0  0  0  0  0  0
   50.0114   10.5559   19.6871 H   0  0  0  0  0  0  0  0  0  0  0  0
   49.2357   11.1062   21.9557 H   0  0  0  0  0  0  0  0  0  0  0  0
   47.0304   12.1830   22.3027 H   0  0  0  0  0  0  0  0  0  0  0  0
   45.5870   12.7018   20.3539 H   0  0  0  0  0  0  0  0  0  0  0  0
   46.3353   12.1624   18.0714 H   0  0  0  0  0  0  0  0  0  0  0  0
   49.8360   12.4997   17.5263 H   0  0  0  0  0  0  0  0  0  0  0  0
   48.6943   13.6023   18.3027 H   0  0  0  0  0  0  0  0  0  0  0  0
   50.2540   13.2920   19.0532 H   0  0  0  0  0  0  0  0  0  0  0  0
   50.5296   11.0576   20.3852 H   0  0  0  0  0  0  0  0  0  0  0  0
   48.6983   10.1060   21.5219 H   0  0  0  0  0  0  0  0  0  0  0  0
   49.0450    8.7377   20.4616 H   0  0  0  0  0  0  0  0  0  0  0  0
   46.7268   10.5030   20.5162 H   0  0  0  0  0  0  0  0  0  0  0  0
   46.9364    9.1349   19.4290 H   0  0  0  0  0  0  0  0  0  0  0  0
   46.8705   11.6984   18.4884 H   0  0  0  0  0  0  0  0  0  0  0  0
   48.3164   11.0784   16.5962 H   0  0  0  0  0  0  0  0  0  0  0  0
   47.2755    9.7229   17.0100 H   0  0  0  0  0  0  0  0  0  0  0  0
   49.8844    9.3880   16.5247 H   0  0  0  0  0  0  0  0  0  0  0  0
   51.0811   10.6460   18.0129 H   0  0  0  0  0  0  0  0  0  0  0  0
   51.0072    9.1260   18.8919 H   0  0  0  0  0  0  0  0  0  0  0  0
   48.5793    5.1558   16.4669 H   0  0  0  0  0  0  0  0  0  0  0  0
   46.5519    5.9593   17.6004 H   0  0  0  0  0  0  0  0  0  0  0  0
   47.2391    4.5232   18.3605 H   0  0  0  0  0  0  0  0  0  0  0  0
   47.6767    7.1685   19.2944 H   0  0  0  0  0  0  0  0  0  0  0  0
   51.1280    5.6264   16.1379 H   0  0  0  0  0  0  0  0  0  0  0  0
   53.2992    4.9237   17.0553 H   0  0  0  0  0  0  0  0  0  0  0  0
   53.4787    4.1969   19.4210 H   0  0  0  0  0  0  0  0  0  0  0  0
   51.4630    4.1687   20.8628 H   0  0  0  0  0  0  0  0  0  0  0  0
   49.2917    4.8599   19.9822 H   0  0  0  0  0  0  0  0  0  0  0  0
   49.2369    9.9105   19.4754 H   0  0  0  0  0  0  0  0  0  0  0  0
   50.0534    6.4728   18.8759 H   0  0  0  0  0  0  0  0  0  0  0  0
   49.1872    8.9991   18.7074 H   0  0  0  0  0  0  0  0  0  0  0  0
   49.7498    7.5798   18.6622 H   0  0  0  0  0  0  0  0  0  0  0  0
   49.7497    7.5807   18.6643 H   0  0  0  0  0  0  0  0  0  0  0  0
   49.1867    8.9994   18.7052 H   0  0  0  0  0  0  0  0  0  0  0  0
  1  2  1  0
  3  2  1  0
  3  4  1  0
  4  5  1  0
  6  5  1  0
  6  2  1  0
  6  7  1  0
  7  8  1  0
  8  9  1  0
  3  9  1  0
  8 10  1  0
 10 11  1  0
 11 12  2  0
 11 13  1  0
 13 14  1  0
 14 15  1  0
 13 16  1  0
 16 17  2  0
 17 18  1  0
 18 19  2  0
 19 20  1  0
 20 21  2  0
 16 21  1  0
 22 23  1  0
 24 23  1  0
 24 25  1  0
 25 26  1  0
 27 26  1  0
 27 23  1  0
 27 28  1  0
 28 29  1  0
 29 30  1  0
 24 30  1  0
 29 31  1  0
 31 32  1  0
 32 33  2  0
 32 34  1  0
 34 35  1  0
 35 36  1  0
 34 37  1  0
 37 38  2  0
 38 39  1  0
 39 40  2  0
 40 41  1  0
 41 42  2  0
 37 42  1  0
 43 44  2  0
 43 45  1  0
 43 46  1  0
 43 47  2  0
  1 50  1  0
  1 51  1  0
  1 52  1  0
  3 53  1  1
  4 54  1  0
  4 55  1  0
  5 56  1  0
  5 57  1  0
  6 58  1  6
  7 59  1  0
  7 60  1  0
  8 61  1  1
  9 62  1  0
  9 63  1  0
 13 64  1  1
 14 65  1  0
 14 66  1  0
 15 67  1  0
 17 68  1  0
 18 69  1  0
 19 70  1  0
 20 71  1  0
 21 72  1  0
 22 73  1  0
 22 74  1  0
 22 75  1  0
 24 76  1  6
 25 77  1  0
 25 78  1  0
 26 79  1  0
 26 80  1  0
 27 81  1  1
 28 82  1  0
 28 83  1  0
 29 84  1  6
 30 85  1  0
 30 86  1  0
 34 87  1  1
 35 88  1  0
 35 89  1  0
 36 90  1  0
 38 91  1  0
 39 92  1  0
 40 93  1  0
 41 94  1  0
 42 95  1  0
 45 96  1  0
 46 97  1  0
 48 98  1  0
 48 99  1  0
 49100  1  0
 49101  1  0
M  END
> <Uni-Dock RESULT> 
ENERGY=   -4.767  LOWER_BOUND=    2.511  UPPER_BOUND=    4.019
INTER + INTRA:          -4.767
INTER:                  -4.767
INTRA:                   0.000
UNBOUND:                 0.000

$$$$

     RDKit          3D

101102  0  0  0  0  0  0  0  0999 V2000
   49.1691    4.5795   20.9962 C   0  0  0  0  0  0  0  0  0  0  0  0
   49.4954    5.4867   19.8990 N   0  0  0  0  0  0  0  0  0  0  0  0
   48.6834    5.2399   18.6940 C   0  0  1  0  0  0  0  0  0  0  0  0
   47.3403    5.9223   18.9786 C   0  0  0  0  0  0  0  0  0  0  0  0
   47.6660    7.0073   19.9955 C   0  0  0  0  0  0  0  0  0  0  0  0
   49.1795    6.8934   20.2039 C   0  0  2  0  0  0  0  0  0  0  0  0
   49.9338    7.7816   19.1983 C   0  0  0  0  0  0  0  0  0  0  0  0
   50.3357    7.0534   17.9054 C   0  0  1  0  0  0  0  0  0  0  0  0
   49.3957    5.9044   17.5022 C   0  0  0  0  0  0  0  0  0  0  0  0
   50.3902    8.0348   16.8492 O   0  0  0  0  0  0  0  0  0  0  0  0
   51.2015    7.7571   15.7909 C   0  0  0  0  0  0  0  0  0  0  0  0
   51.8822    6.7430   15.6765 O   0  0  0  0  0  0  0  0  0  0  0  0
   51.0977    8.8189   14.7042 C   0  0  2  0  0  0  0  0  0  0  0  0
   51.0926   10.2435   15.2749 C   0  0  0  0  0  0  0  0  0  0  0  0
   52.3872   10.6092   15.7562 O   0  0  0  0  0  0  0  0  0  0  0  0
   49.9108    8.5497   13.7908 C   0  0  0  0  0  0  0  0  0  0  0  0
   48.5907    8.7909   14.2038 C   0  0  0  0  0  0  0  0  0  0  0  0
   47.5180    8.5178   13.3527 C   0  0  0  0  0  0  0  0  0  0  0  0
   47.7487    8.0011   12.0800 C   0  0  0  0  0  0  0  0  0  0  0  0
   49.0525    7.7536   11.6588 C   0  0  0  0  0  0  0  0  0  0  0  0
   50.1268    8.0238   12.5078 C   0  0  0  0  0  0  0  0  0  0  0  0
   49.9473   10.4519   13.5190 C   0  0  0  0  0  0  0  0  0  0  0  0
   49.2355    9.2020   13.7030 N   0  0  0  0  0  0  0  0  0  0  0  0
   48.4458    9.0792   14.9317 C   0  0  1  0  0  0  0  0  0  0  0  0
   47.8913    7.6618   14.7485 C   0  0  0  0  0  0  0  0  0  0  0  0
   48.9460    6.9419   13.9004 C   0  0  0  0  0  0  0  0  0  0  0  0
   50.0468    7.9832   13.6885 C   0  0  2  0  0  0  0  0  0  0  0  0
   51.0909    7.9508   14.8199 C   0  0  0  0  0  0  0  0  0  0  0  0
   50.5130    8.2411   16.2135 C   0  0  1  0  0  0  0  0  0  0  0  0
   49.3141    9.2034   16.1949 C   0  0  0  0  0  0  0  0  0  0  0  0
   50.0840    7.0141   16.8530 O   0  0  0  0  0  0  0  0  0  0  0  0
   51.0139    6.3852   17.6293 C   0  0  0  0  0  0  0  0  0  0  0  0
   52.2084    6.6618   17.6555 O   0  0  0  0  0  0  0  0  0  0  0  0
   50.3854    5.2992   18.4872 C   0  0  2  0  0  0  0  0  0  0  0  0
   49.9598    4.1283   17.5866 C   0  0  0  0  0  0  0  0  0  0  0  0
   48.8378    4.4015   16.7540 O   0  0  0  0  0  0  0  0  0  0  0  0
   49.3757    5.8645   19.4789 C   0  0  0  0  0  0  0  0  0  0  0  0
   49.8195    6.8029   20.4313 C   0  0  0  0  0  0  0  0  0  0  0  0
   48.9392    7.3631   21.3600 C   0  0  0  0  0  0  0  0  0  0  0  0
   47.5988    6.9916   21.3547 C   0  0  0  0  0  0  0  0  0  0  0  0
   47.1426    6.0578   20.4295 C   0  0  0  0  0  0  0  0  0  0  0  0
   48.0239    5.4972   19.5007 C   0  0  0  0  0  0  0  0  0  0  0  0
   49.8204    7.3329   16.8230 S   0  0  0  0  0  0  0  0  0  0  0  0
   50.0621    6.1769   15.9965 O   0  0  0  0  0  0  0  0  0  0  0  0
   49.4092    8.5393   15.8486 O   0  0  0  0  0  0  0  0  0  0  0  0
   48.4434    7.0657   17.6044 O   0  0  0  0  0  0  0  0  0  0  0  0
   50.7684    7.8074   17.7998 O   0  0  0  0  0  0  0  0  0  0  0  0
   49.8006    7.3857   16.8971 O   0  0  0  0  0  0  0  0  0  0  0  0
   49.8002    7.3852   16.8981 O   0  0  0  0  0  0  0  0  0  0  0  0
   49.7758    4.8219   21.8756 H   0  0  0  0  0  0  0  0  0  0  0  0
   48.1149    4.6028   21.2926 H   0  0  0  0  0  0  0  0  0  0  0  0
   49.4159    3.5489   20.7173 H   0  0  0  0  0  0  0  0  0  0  0  0
   48.5416    4.1747   18.4747 H   0  0  0  0  0  0  0  0  0  0  0  0
   46.8747    6.3407   18.0823 H   0  0  0  0  0  0  0  0  0  0  0  0
   46.6303    5.2099   19.4142 H   0  0  0  0  0  0  0  0  0  0  0  0
   47.3511    7.9954   19.6466 H   0  0  0  0  0  0  0  0  0  0  0  0
   47.1324    6.8056   20.9309 H   0  0  0  0  0  0  0  0  0  0  0  0
   49.4591    7.1918   21.2221 H   0  0  0  0  0  0  0  0  0  0  0  0
   49.3632    8.6917   18.9689 H   0  0  0  0  0  0  0  0  0  0  0  0
   50.8595    8.1395   19.6697 H   0  0  0  0  0  0  0  0  0  0  0  0
   51.3425    6.6421   18.0699 H   0  0  0  0  0  0  0  0  0  0  0  0
   48.6729    6.2392   16.7489 H   0  0  0  0  0  0  0  0  0  0  0  0
   50.0086    5.1461   16.9973 H   0  0  0  0  0  0  0  0  0  0  0  0
   52.0238    8.7238   14.1183 H   0  0  0  0  0  0  0  0  0  0  0  0
   50.3855   10.3683   16.1024 H   0  0  0  0  0  0  0  0  0  0  0  0
   50.8180   10.9751   14.5047 H   0  0  0  0  0  0  0  0  0  0  0  0
   52.9698   10.7297   14.9842 H   0  0  0  0  0  0  0  0  0  0  0  0
   48.3800    9.1824   15.1974 H   0  0  0  0  0  0  0  0  0  0  0  0
   46.4999    8.7028   13.6853 H   0  0  0  0  0  0  0  0  0  0  0  0
   46.9123    7.7883   11.4188 H   0  0  0  0  0  0  0  0  0  0  0  0
   49.2336    7.3416   10.6688 H   0  0  0  0  0  0  0  0  0  0  0  0
   51.1358    7.8104   12.1597 H   0  0  0  0  0  0  0  0  0  0  0  0
   50.7194   10.6465   14.2689 H   0  0  0  0  0  0  0  0  0  0  0  0
   50.4290   10.4657   12.5354 H   0  0  0  0  0  0  0  0  0  0  0  0
   49.2420   11.2908   13.5367 H   0  0  0  0  0  0  0  0  0  0  0  0
   47.6300    9.8085   14.9673 H   0  0  0  0  0  0  0  0  0  0  0  0
   46.9441    7.6916   14.1928 H   0  0  0  0  0  0  0  0  0  0  0  0
   47.6950    7.1523   15.6968 H   0  0  0  0  0  0  0  0  0  0  0  0
   48.4994    6.6592   12.9395 H   0  0  0  0  0  0  0  0  0  0  0  0
   49.3141    6.0241   14.3643 H   0  0  0  0  0  0  0  0  0  0  0  0
   50.5340    7.8312   12.7191 H   0  0  0  0  0  0  0  0  0  0  0  0
   51.8602    8.7015   14.6004 H   0  0  0  0  0  0  0  0  0  0  0  0
   51.5947    6.9765   14.8159 H   0  0  0  0  0  0  0  0  0  0  0  0
   51.2900    8.7035   16.8355 H   0  0  0  0  0  0  0  0  0  0  0  0
   49.6878   10.2326   16.2660 H   0  0  0  0  0  0  0  0  0  0  0  0
   48.6899    9.0382   17.0820 H   0  0  0  0  0  0  0  0  0  0  0  0
   51.2052    4.9003   19.1044 H   0  0  0  0  0  0  0  0  0  0  0  0
   50.7860    3.8295   16.9322 H   0  0  0  0  0  0  0  0  0  0  0  0
   49.6991    3.2589   18.1992 H   0  0  0  0  0  0  0  0  0  0  0  0
   49.0020    5.2472   16.2961 H   0  0  0  0  0  0  0  0  0  0  0  0
   50.8641    7.1088   20.4579 H   0  0  0  0  0  0  0  0  0  0  0  0
   49.3008    8.0904   22.0835 H   0  0  0  0  0  0  0  0  0  0  0  0
   46.9099    7.4267   22.0740 H   0  0  0  0  0  0  0  0  0  0  0  0
   46.0947    5.7622   20.4286 H   0  0  0  0  0  0  0  0  0  0  0  0
   47.6215    4.7680   18.8013 H   0  0  0  0  0  0  0  0  0  0  0  0
   48.7208    8.2111   15.2367 H   0  0  0  0  0  0  0  0  0  0  0  0
   48.6553    6.5530   18.4133 H   0  0  0  0  0  0  0  0  0  0  0  0
   49.3581    7.6562   16.0788 H   0  0  0  0  0  0  0  0  0  0  0  0
   49.0753    7.1094   17.4766 H   0  0  0  0  0  0  0  0  0  0  0  0
   49.0734    7.1097   17.4754 H   0  0  0  0  0  0  0  0  0  0  0  0
   49.3603    7.6563   16.0789 H   0  0  0  0  0  0  0  0  0  0  0  0
  1  2  1  0
  3  2  1  0
  3  4  1  0
  4  5  1  0
  6  5  1  0
  6  2  1  0
  6  7  1  0
  7  8  1  0
  8  9  1  0
  3  9  1  0
  8 10  1  0
 10 11  1  0
 11 12  2  0
 11 13  1  0
 13 14  1  0
 14 15  1  0
 13 16  1  0
 16 17  2  0
 17 18  1  0
 18 19  2  0
 19 20  1  0
 20 21  2  0
 16 21  1  0
 22 23  1  0
 24 23  1  0
 24 25  1  0
 25 26  1  0
 27 26  1  0
 27 23  1  0
 27 28  1  0
 28 29  1  0
 29 30  1  0
 24 30  1  0
 29 31  1  0
 31 32  1  0
 32 33  2  0
 32 34  1  0
 34 35  1  0
 35 36  1  0
 34 37  1  0
 37 38  2  0
 38 39  1  0
 39 40  2  0
 40 41  1  0
 41 42  2  0
 37 42  1  0
 43 44  2  0
 43 45  1  0
 43 46  1  0
 43 47  2  0
  1 50  1  0
  1 51  1  0
  1 52  1  0
  3 53  1  1
  4 54  1  0
  4 55  1  0
  5 56  1  0
  5 57  1  0
  6 58  1  6
  7 59  1  0
  7 60  1  0
  8 61  1  1
  9 62  1  0
  9 63  1  0
 13 64  1  1
 14 65  1  0
 14 66  1  0
 15 67  1  0
 17 68  1  0
 18 69  1  0
 19 70  1  0
 20 71  1  0
 21 72  1  0
 22 73  1  0
 22 74  1  0
 22 75  1  0
 24 76  1  6
 25 77  1  0
 25 78  1  0
 26 79  1  0
 26 80  1  0
 27 81  1  1
 28 82  1  0
 28 83  1  0
 29 84  1  6
 30 85  1  0
 30 86  1  0
 34 87  1  1
 35 88  1  0
 35 89  1  0
 36 90  1  0
 38 91  1  0
 39 92  1  0
 40 93  1  0
 41 94  1  0
 42 95  1  0
 45 96  1  0
 46 97  1  0
 48 98  1  0
 48 99  1  0
 49100  1  0
 49101  1  0
M  END
> <Uni-Dock RESULT> 
ENERGY=   -4.669  LOWER_BOUND=    4.543  UPPER_BOUND=    6.457
INTER + INTRA:          -4.669
INTER:                  -4.669
INTRA:                   0.000
UNBOUND:                 0.000

$$$$

     RDKit          3D

101102  0  0  0  0  0  0  0  0999 V2000
   48.3047   13.7312   18.4348 C   0  0  0  0  0  0  0  0  0  0  0  0
   48.2505   12.2803   18.5932 N   0  0  0  0  0  0  0  0  0  0  0  0
   49.5080   11.7160   19.1152 C   0  0  1  0  0  0  0  0  0  0  0  0
   49.4570   11.9733   20.6258 C   0  0  0  0  0  0  0  0  0  0  0  0
   47.9735   12.0815   20.9494 C   0  0  0  0  0  0  0  0  0  0  0  0
   47.2720   11.8496   19.6074 C   0  0  2  0  0  0  0  0  0  0  0  0
   46.9903   10.3515   19.3943 C   0  0  0  0  0  0  0  0  0  0  0  0
   48.0998    9.6136   18.6275 C   0  0  1  0  0  0  0  0  0  0  0  0
   49.5069   10.2063   18.8147 C   0  0  0  0  0  0  0  0  0  0  0  0
   48.0875    8.2365   19.0577 O   0  0  0  0  0  0  0  0  0  0  0  0
   48.5802    7.3137   18.1853 C   0  0  0  0  0  0  0  0  0  0  0  0
   49.0265    7.5699   17.0717 O   0  0  0  0  0  0  0  0  0  0  0  0
   48.6017    5.9167   18.7913 C   0  0  2  0  0  0  0  0  0  0  0  0
   47.3135    5.5907   19.5590 C   0  0  0  0  0  0  0  0  0  0  0  0
   46.2209    5.3780   18.6632 O   0  0  0  0  0  0  0  0  0  0  0  0
   49.8531    5.7061   19.6309 C   0  0  0  0  0  0  0  0  0  0  0  0
   50.0025    6.2970   20.8959 C   0  0  0  0  0  0  0  0  0  0  0  0
   51.1690    6.1028   21.6383 C   0  0  0  0  0  0  0  0  0  0  0  0
   52.2001    5.3174   21.1286 C   0  0  0  0  0  0  0  0  0  0  0  0
   52.0669    4.7284   19.8740 C   0  0  0  0  0  0  0  0  0  0  0  0
   50.9029    4.9221   19.1286 C   0  0  0  0  0  0  0  0  0  0  0  0
   48.7565    4.4481   20.5841 C   0  0  0  0  0  0  0  0  0  0  0  0
   49.7677    5.4866   20.5441 N   0  0  0  0  0  0  0  0  0  0  0  0
   49.4230    6.7541   21.1947 C   0  0  1  0  0  0  0  0  0  0  0  0
   50.7052    7.5485   20.9208 C   0  0  0  0  0  0  0  0  0  0  0  0
   51.2539    6.9573   19.6171 C   0  0  0  0  0  0  0  0  0  0  0  0
   50.2307    5.8929   19.2157 C   0  0  2  0  0  0  0  0  0  0  0  0
   49.1032    6.4813   18.3476 C   0  0  0  0  0  0  0  0  0  0  0  0
   48.2942    7.5894   19.0391 C   0  0  1  0  0  0  0  0  0  0  0  0
   48.1859    7.4137   20.5627 C   0  0  0  0  0  0  0  0  0  0  0  0
   48.8866    8.8868   18.7856 O   0  0  0  0  0  0  0  0  0  0  0  0
   48.4203    9.5559   17.6913 C   0  0  0  0  0  0  0  0  0  0  0  0
   47.7116    9.0654   16.8187 O   0  0  0  0  0  0  0  0  0  0  0  0
   48.8698   11.0078   17.6888 C   0  0  2  0  0  0  0  0  0  0  0  0
   50.3803   11.0677   17.4093 C   0  0  0  0  0  0  0  0  0  0  0  0
   51.1974   10.6058   18.4798 O   0  0  0  0  0  0  0  0  0  0  0  0
   48.3143   11.7821   18.8782 C   0  0  0  0  0  0  0  0  0  0  0  0
   46.9167   11.8838   19.0225 C   0  0  0  0  0  0  0  0  0  0  0  0
   46.3482   12.5723   20.0968 C   0  0  0  0  0  0  0  0  0  0  0  0
   47.1686   13.1747   21.0447 C   0  0  0  0  0  0  0  0  0  0  0  0
   48.5516   13.0956   20.9144 C   0  0  0  0  0  0  0  0  0  0  0  0
   49.1199   12.4069   19.8390 C   0  0  0  0  0  0  0  0  0  0  0  0
   48.8085    8.7696   19.1757 S   0  0  0  0  0  0  0  0  0  0  0  0
   49.9779    8.6778   18.3379 O   0  0  0  0  0  0  0  0  0  0  0  0
   48.7967    7.4748   20.1230 O   0  0  0  0  0  0  0  0  0  0  0  0
   49.0875    9.9425   20.2361 O   0  0  0  0  0  0  0  0  0  0  0  0
   47.4849    8.9903   18.6490 O   0  0  0  0  0  0  0  0  0  0  0  0
   48.7363    8.8048   19.2227 O   0  0  0  0  0  0  0  0  0  0  0  0
   48.7361    8.8060   19.2228 O   0  0  0  0  0  0  0  0  0  0  0  0
   47.3401   14.1050   18.0744 H   0  0  0  0  0  0  0  0  0  0  0  0
   48.5561   14.2689   19.3554 H   0  0  0  0  0  0  0  0  0  0  0  0
   49.0495   13.9986   17.6768 H   0  0  0  0  0  0  0  0  0  0  0  0
   50.4046   12.1661   18.6723 H   0  0  0  0  0  0  0  0  0  0  0  0
   49.9377   11.1845   21.2105 H   0  0  0  0  0  0  0  0  0  0  0  0
   49.9581   12.9161   20.8736 H   0  0  0  0  0  0  0  0  0  0  0  0
   47.6756   11.3661   21.7220 H   0  0  0  0  0  0  0  0  0  0  0  0
   47.7533   13.0847   21.3307 H   0  0  0  0  0  0  0  0  0  0  0  0
   46.3242   12.4004   19.5596 H   0  0  0  0  0  0  0  0  0  0  0  0
   46.7787    9.8494   20.3480 H   0  0  0  0  0  0  0  0  0  0  0  0
   46.0667   10.2467   18.8084 H   0  0  0  0  0  0  0  0  0  0  0  0
   47.8374    9.6621   17.5604 H   0  0  0  0  0  0  0  0  0  0  0  0
   50.0636    9.6526   19.5799 H   0  0  0  0  0  0  0  0  0  0  0  0
   50.0566   10.0381   17.8793 H   0  0  0  0  0  0  0  0  0  0  0  0
   48.6321    5.2300   17.9325 H   0  0  0  0  0  0  0  0  0  0  0  0
   47.0199    6.3844   20.2549 H   0  0  0  0  0  0  0  0  0  0  0  0
   47.4284    4.6727   20.1488 H   0  0  0  0  0  0  0  0  0  0  0  0
   46.3720    4.5320   18.2035 H   0  0  0  0  0  0  0  0  0  0  0  0
   49.2184    6.9259   21.3137 H   0  0  0  0  0  0  0  0  0  0  0  0
   51.2761    6.5700   22.6138 H   0  0  0  0  0  0  0  0  0  0  0  0
   53.1080    5.1677   21.7077 H   0  0  0  0  0  0  0  0  0  0  0  0
   52.8749    4.1224   19.4709 H   0  0  0  0  0  0  0  0  0  0  0  0
   50.8280    4.4608   18.1455 H   0  0  0  0  0  0  0  0  0  0  0  0
   47.8329    4.6965   20.0533 H   0  0  0  0  0  0  0  0  0  0  0  0
   49.1521    3.5249   20.1473 H   0  0  0  0  0  0  0  0  0  0  0  0
   48.4958    4.2188   21.6237 H   0  0  0  0  0  0  0  0  0  0  0  0
   49.2705    6.6317   22.2720 H   0  0  0  0  0  0  0  0  0  0  0  0
   51.4355    7.3832   21.7245 H   0  0  0  0  0  0  0  0  0  0  0  0
   50.5350    8.6275   20.8542 H   0  0  0  0  0  0  0  0  0  0  0  0
   52.2272    6.4933   19.8173 H   0  0  0  0  0  0  0  0  0  0  0  0
   51.4115    7.7085   18.8399 H   0  0  0  0  0  0  0  0  0  0  0  0
   50.7242    5.0693   18.6883 H   0  0  0  0  0  0  0  0  0  0  0  0
   48.4174    5.6691   18.0767 H   0  0  0  0  0  0  0  0  0  0  0  0
   49.5304    6.8558   17.4094 H   0  0  0  0  0  0  0  0  0  0  0  0
   47.2719    7.5905   18.6397 H   0  0  0  0  0  0  0  0  0  0  0  0
   47.3058    6.7969   20.7841 H   0  0  0  0  0  0  0  0  0  0  0  0
   48.0105    8.3866   21.0384 H   0  0  0  0  0  0  0  0  0  0  0  0
   48.3982   11.4605   16.8030 H   0  0  0  0  0  0  0  0  0  0  0  0
   50.6298   10.4682   16.5270 H   0  0  0  0  0  0  0  0  0  0  0  0
   50.6826   12.0988   17.1983 H   0  0  0  0  0  0  0  0  0  0  0  0
   50.8559    9.7379   18.7660 H   0  0  0  0  0  0  0  0  0  0  0  0
   46.2525   11.4229   18.2931 H   0  0  0  0  0  0  0  0  0  0  0  0
   45.2665   12.6342   20.1931 H   0  0  0  0  0  0  0  0  0  0  0  0
   46.7306   13.7094   21.8835 H   0  0  0  0  0  0  0  0  0  0  0  0
   49.1944   13.5720   21.6529 H   0  0  0  0  0  0  0  0  0  0  0  0
   50.2053   12.3771   19.7773 H   0  0  0  0  0  0  0  0  0  0  0  0
   49.6865    7.3819   20.5173 H   0  0  0  0  0  0  0  0  0  0  0  0
   48.8315   10.7908   19.8154 H   0  0  0  0  0  0  0  0  0  0  0  0
   49.2558    8.1506   19.7132 H   0  0  0  0  0  0  0  0  0  0  0  0
   48.8680    9.6279   19.7161 H   0  0  0  0  0  0  0  0  0  0  0  0
   48.8694    9.6273   19.7179 H   0  0  0  0  0  0  0  0  0  0  0  0
   49.2547    8.1499   19.7114 H   0  0  0  0  0  0  0  0  0  0  0  0
  1  2  1  0
  3  2  1  0
  3  4  1  0
  4  5  1  0
  6  5  1  0
  6  2  1  0
  6  7  1  0
  7  8  1  0
  8  9  1  0
  3  9  1  0
  8 10  1  0
 10 11  1  0
 11 12  2  0
 11 13  1  0
 13 14  1  0
 14 15  1  0
 13 16  1  0
 16 17  2  0
 17 18  1  0
 18 19  2  0
 19 20  1  0
 20 21  2  0
 16 21  1  0
 22 23  1  0
 24 23  1  0
 24 25  1  0
 25 26  1  0
 27 26  1  0
 27 23  1  0
 27 28  1  0
 28 29  1  0
 29 30  1  0
 24 30  1  0
 29 31  1  0
 31 32  1  0
 32 33  2  0
 32 34  1  0
 34 35  1  0
 35 36  1  0
 34 37  1  0
 37 38  2  0
 38 39  1  0
 39 40  2  0
 40 41  1  0
 41 42  2  0
 37 42  1  0
 43 44  2  0
 43 45  1  0
 43 46  1  0
 43 47  2  0
  1 50  1  0
  1 51  1  0
  1 52  1  0
  3 53  1  1
  4 54  1  0
  4 55  1  0
  5 56  1  0
  5 57  1  0
  6 58  1  6
  7 59  1  0
  7 60  1  0
  8 61  1  1
  9 62  1  0
  9 63  1  0
 13 64  1  1
 14 65  1  0
 14 66  1  0
 15 67  1  0
 17 68  1  0
 18 69  1  0
 19 70  1  0
 20 71  1  0
 21 72  1  0
 22 73  1  0
 22 74  1  0
 22 75  1  0
 24 76  1  6
 25 77  1  0
 25 78  1  0
 26 79  1  0
 26 80  1  0
 27 81  1  1
 28 82  1  0
 28 83  1  0
 29 84  1  6
 30 85  1  0
 30 86  1  0
 34 87  1  1
 35 88  1  0
 35 89  1  0
 36 90  1  0
 38 91  1  0
 39 92  1  0
 40 93  1  0
 41 94  1  0
 42 95  1  0
 45 96  1  0
 46 97  1  0
 48 98  1  0
 48 99  1  0
 49100  1  0
 49101  1  0
M  END
> <Uni-Dock RESULT> 
ENERGY=   -4.636  LOWER_BOUND=    1.884  UPPER_BOUND=    6.092
INTER + INTRA:          -4.636
INTER:                  -4.636
INTRA:                   0.000
UNBOUND:                 0.000

$$$$

     RDKit          3D

101102  0  0  0  0  0  0  0  0999 V2000
   50.0419    2.8128   17.2354 C   0  0  0  0  0  0  0  0  0  0  0  0
   49.7637    4.0158   18.0156 N   0  0  0  0  0  0  0  0  0  0  0  0
   49.7310    5.2363   17.1900 C   0  0  1  0  0  0  0  0  0  0  0  0
   48.3445    5.2310   16.5355 C   0  0  0  0  0  0  0  0  0  0  0  0
   47.4780    4.4017   17.4729 C   0  0  0  0  0  0  0  0  0  0  0  0
   48.4185    4.0115   18.6174 C   0  0  2  0  0  0  0  0  0  0  0  0
   48.3891    5.0746   19.7300 C   0  0  0  0  0  0  0  0  0  0  0  0
   49.4683    6.1595   19.5816 C   0  0  1  0  0  0  0  0  0  0  0  0
   49.8901    6.4447   18.1301 C   0  0  0  0  0  0  0  0  0  0  0  0
   48.9626    7.3659   20.1905 O   0  0  0  0  0  0  0  0  0  0  0  0
   49.8843    8.2596   20.6457 C   0  0  0  0  0  0  0  0  0  0  0  0
   51.0998    8.1102   20.5759 O   0  0  0  0  0  0  0  0  0  0  0  0
   49.2289    9.5280   21.1759 C   0  0  2  0  0  0  0  0  0  0  0  0
   47.9974    9.2333   22.0429 C   0  0  0  0  0  0  0  0  0  0  0  0
   48.3777    8.6887   23.3079 O   0  0  0  0  0  0  0  0  0  0  0  0
   48.9295   10.5006   20.0446 C   0  0  0  0  0  0  0  0  0  0  0  0
   47.8722   10.2861   19.1458 C   0  0  0  0  0  0  0  0  0  0  0  0
   47.6302   11.1846   18.1049 C   0  0  0  0  0  0  0  0  0  0  0  0
   48.4392   12.3074   17.9475 C   0  0  0  0  0  0  0  0  0  0  0  0
   49.4935   12.5305   18.8292 C   0  0  0  0  0  0  0  0  0  0  0  0
   49.7391   11.6333   19.8697 C   0  0  0  0  0  0  0  0  0  0  0  0
   47.5308   11.1122   21.2120 C   0  0  0  0  0  0  0  0  0  0  0  0
   48.0413   10.7803   19.8961 N   0  0  0  0  0  0  0  0  0  0  0  0
   47.4074    9.6439   19.2212 C   0  0  1  0  0  0  0  0  0  0  0  0
   48.2194    9.6228   17.9210 C   0  0  0  0  0  0  0  0  0  0  0  0
   49.5841   10.2032   18.3094 C   0  0  0  0  0  0  0  0  0  0  0  0
   49.4721   10.4813   19.8097 C   0  0  2  0  0  0  0  0  0  0  0  0
   49.8749    9.2559   20.6507 C   0  0  0  0  0  0  0  0  0  0  0  0
   49.0104    8.0114   20.3975 C   0  0  1  0  0  0  0  0  0  0  0  0
   47.5564    8.3378   20.0192 C   0  0  0  0  0  0  0  0  0  0  0  0
   49.5737    7.2078   19.3319 O   0  0  0  0  0  0  0  0  0  0  0  0
   50.4480    6.2319   19.7141 C   0  0  0  0  0  0  0  0  0  0  0  0
   50.9350    6.1265   20.8348 O   0  0  0  0  0  0  0  0  0  0  0  0
   50.7370    5.2629   18.5794 C   0  0  2  0  0  0  0  0  0  0  0  0
   51.5865    5.9736   17.5134 C   0  0  0  0  0  0  0  0  0  0  0  0
   50.8868    6.9601   16.7622 O   0  0  0  0  0  0  0  0  0  0  0  0
   49.4886    4.5087   18.1374 C   0  0  0  0  0  0  0  0  0  0  0  0
   48.8196    3.7026   19.0792 C   0  0  0  0  0  0  0  0  0  0  0  0
   47.6652    2.9949   18.7360 C   0  0  0  0  0  0  0  0  0  0  0  0
   47.1611    3.0785   17.4423 C   0  0  0  0  0  0  0  0  0  0  0  0
   47.8133    3.8603   16.4940 C   0  0  0  0  0  0  0  0  0  0  0  0
   48.9687    4.5679   16.8378 C   0  0  0  0  0  0  0  0  0  0  0  0
   49.1762    7.3246   19.3126 S   0  0  0  0  0  0  0  0  0  0  0  0
   50.3935    7.8927   18.7899 O   0  0  0  0  0  0  0  0  0  0  0  0
   48.2025    8.5435   19.6871 O   0  0  0  0  0  0  0  0  0  0  0  0
   48.4019    6.6630   18.0713 O   0  0  0  0  0  0  0  0  0  0  0  0
   49.1610    6.3541   20.3783 O   0  0  0  0  0  0  0  0  0  0  0  0
   49.1077    7.2642   19.3303 O   0  0  0  0  0  0  0  0  0  0  0  0
   49.1076    7.2631   19.3298 O   0  0  0  0  0  0  0  0  0  0  0  0
   50.0257    1.9320   17.8866 H   0  0  0  0  0  0  0  0  0  0  0  0
   49.3362    2.6430   16.4150 H   0  0  0  0  0  0  0  0  0  0  0  0
   51.0482    2.8685   16.8054 H   0  0  0  0  0  0  0  0  0  0  0  0
   50.5214    5.2699   16.4305 H   0  0  0  0  0  0  0  0  0  0  0  0
   47.9344    6.2345   16.3942 H   0  0  0  0  0  0  0  0  0  0  0  0
   48.3848    4.7521   15.5504 H   0  0  0  0  0  0  0  0  0  0  0  0
   46.5978    4.9589   17.8078 H   0  0  0  0  0  0  0  0  0  0  0  0
   47.1195    3.5093   16.9480 H   0  0  0  0  0  0  0  0  0  0  0  0
   48.1357    3.0412   19.0446 H   0  0  0  0  0  0  0  0  0  0  0  0
   47.3928    5.5287   19.8168 H   0  0  0  0  0  0  0  0  0  0  0  0
   48.5590    4.5787   20.6956 H   0  0  0  0  0  0  0  0  0  0  0  0
   50.3492    5.8128   20.1416 H   0  0  0  0  0  0  0  0  0  0  0  0
   49.3621    7.3213   17.7366 H   0  0  0  0  0  0  0  0  0  0  0  0
   50.9499    6.7312   18.1508 H   0  0  0  0  0  0  0  0  0  0  0  0
   49.9761    9.9813   21.8438 H   0  0  0  0  0  0  0  0  0  0  0  0
   47.3055    8.5253   21.5734 H   0  0  0  0  0  0  0  0  0  0  0  0
   47.4302   10.1503   22.2456 H   0  0  0  0  0  0  0  0  0  0  0  0
   48.7934    9.4011   23.8270 H   0  0  0  0  0  0  0  0  0  0  0  0
   47.2317    9.4106   19.2371 H   0  0  0  0  0  0  0  0  0  0  0  0
   46.8126   11.0053   17.4115 H   0  0  0  0  0  0  0  0  0  0  0  0
   48.2498   13.0057   17.1360 H   0  0  0  0  0  0  0  0  0  0  0  0
   50.1316   13.4019   18.7021 H   0  0  0  0  0  0  0  0  0  0  0  0
   50.5767   11.8236   20.5383 H   0  0  0  0  0  0  0  0  0  0  0  0
   47.6773   10.3309   21.9634 H   0  0  0  0  0  0  0  0  0  0  0  0
   48.0147   12.0227   21.5814 H   0  0  0  0  0  0  0  0  0  0  0  0
   46.4574   11.3265   21.1545 H   0  0  0  0  0  0  0  0  0  0  0  0
   46.3499    9.8328   19.0098 H   0  0  0  0  0  0  0  0  0  0  0  0
   47.7535   10.2747   17.1696 H   0  0  0  0  0  0  0  0  0  0  0  0
   48.2972    8.6242   17.4804 H   0  0  0  0  0  0  0  0  0  0  0  0
   49.7438   11.1387   17.7597 H   0  0  0  0  0  0  0  0  0  0  0  0
   50.4166    9.5408   18.0618 H   0  0  0  0  0  0  0  0  0  0  0  0
   50.0850   11.3469   20.0839 H   0  0  0  0  0  0  0  0  0  0  0  0
   49.7939    9.5243   21.7113 H   0  0  0  0  0  0  0  0  0  0  0  0
   50.9312    9.0253   20.4664 H   0  0  0  0  0  0  0  0  0  0  0  0
   48.9789    7.4037   21.3109 H   0  0  0  0  0  0  0  0  0  0  0  0
   46.9629    8.4170   20.9387 H   0  0  0  0  0  0  0  0  0  0  0  0
   47.1263    7.5093   19.4428 H   0  0  0  0  0  0  0  0  0  0  0  0
   51.4012    4.4968   19.0085 H   0  0  0  0  0  0  0  0  0  0  0  0
   52.4473    6.4674   17.9773 H   0  0  0  0  0  0  0  0  0  0  0  0
   51.9773    5.2438   16.7966 H   0  0  0  0  0  0  0  0  0  0  0  0
   50.4243    7.5450   17.3914 H   0  0  0  0  0  0  0  0  0  0  0  0
   49.1949    3.6185   20.0979 H   0  0  0  0  0  0  0  0  0  0  0  0
   47.1603    2.3825   19.4797 H   0  0  0  0  0  0  0  0  0  0  0  0
   46.2618    2.5315   17.1715 H   0  0  0  0  0  0  0  0  0  0  0  0
   47.4226    3.9215   15.4796 H   0  0  0  0  0  0  0  0  0  0  0  0
   49.4458    5.1609   16.0610 H   0  0  0  0  0  0  0  0  0  0  0  0
   48.1800    9.1561   18.9255 H   0  0  0  0  0  0  0  0  0  0  0  0
   48.7536    5.7552   17.9512 H   0  0  0  0  0  0  0  0  0  0  0  0
   48.8095    8.1617   19.1203 H   0  0  0  0  0  0  0  0  0  0  0  0
   48.7695    6.7266   18.5990 H   0  0  0  0  0  0  0  0  0  0  0  0
   48.7684    6.7281   18.5976 H   0  0  0  0  0  0  0  0  0  0  0  0
   48.8107    8.1613   19.1222 H   0  0  0  0  0  0  0  0  0  0  0  0
  1  2  1  0
  3  2  1  0
  3  4  1  0
  4  5  1  0
  6  5  1  0
  6  2  1  0
  6  7  1  0
  7  8  1  0
  8  9  1  0
  3  9  1  0
  8 10  1  0
 10 11  1  0
 11 12  2  0
 11 13  1  0
 13 14  1  0
 14 15  1  0
 13 16  1  0
 16 17  2  0
 17 18  1  0
 18 19  2  0
 19 20  1  0
 20 21  2  0
 16 21  1  0
 22 23  1  0
 24 23  1  0
 24 25  1  0
 25 26  1  0
 27 26  1  0
 27 23  1  0
 27 28  1  0
 28 29  1  0
 29 30  1  0
 24 30  1  0
 29 31  1  0
 31 32  1  0
 32 33  2  0
 32 34  1  0
 34 35  1  0
 35 36  1  0
 34 37  1  0
 37 38  2  0
 38 39  1  0
 39 40  2  0
 40 41  1  0
 41 42  2  0
 37 42  1  0
 43 44  2  0
 43 45  1  0
 43 46  1  0
 43 47  2  0
  1 50  1  0
  1 51  1  0
  1 52  1  0
  3 53  1  1
  4 54  1  0
  4 55  1  0
  5 56  1  0
  5 57  1  0
  6 58  1  6
  7 59  1  0
  7 60  1  0
  8 61  1  1
  9 62  1  0
  9 63  1  0
 13 64  1  1
 14 65  1  0
 14 66  1  0
 15 67  1  0
 17 68  1  0
 18 69  1  0
 19 70  1  0
 20 71  1  0
 21 72  1  0
 22 73  1  0
 22 74  1  0
 22 75  1  0
 24 76  1  6
 25 77  1  0
 25 78  1  0
 26 79  1  0
 26 80  1  0
 27 81  1  1
 28 82  1  0
 28 83  1  0
 29 84  1  6
 30 85  1  0
 30 86  1  0
 34 87  1  1
 35 88  1  0
 35 89  1  0
 36 90  1  0
 38 91  1  0
 39 92  1  0
 40 93  1  0
 41 94  1  0
 42 95  1  0
 45 96  1  0
 46 97  1  0
 48 98  1  0
 48 99  1  0
 49100  1  0
 49101  1  0
M  END
> <Uni-Dock RESULT> 
ENERGY=   -4.626  LOWER_BOUND=    2.371  UPPER_BOUND=    4.783
INTER + INTRA:          -4.626
INTER:                  -4.626
INTRA:                   0.000
UNBOUND:                 0.000

$$$$

     RDKit          3D

101102  0  0  0  0  0  0  0  0999 V2000
   47.9718   13.6136   18.4419 C   0  0  0  0  0  0  0  0  0  0  0  0
   48.0610   12.1560   18.4181 N   0  0  0  0  0  0  0  0  0  0  0  0
   49.4392   11.6657   18.5980 C   0  0  1  0  0  0  0  0  0  0  0  0
   49.6913   11.7466   20.1081 C   0  0  0  0  0  0  0  0  0  0  0  0
   48.3065   11.6689   20.7356 C   0  0  0  0  0  0  0  0  0  0  0  0
   47.3552   11.5191   19.5442 C   0  0  2  0  0  0  0  0  0  0  0  0
   47.1475   10.0335   19.1995 C   0  0  0  0  0  0  0  0  0  0  0  0
   48.1207    9.5005   18.1354 C   0  0  1  0  0  0  0  0  0  0  0  0
   49.4872   10.2065   18.1104 C   0  0  0  0  0  0  0  0  0  0  0  0
   48.3030    8.0897   18.3766 O   0  0  0  0  0  0  0  0  0  0  0  0
   48.6667    7.3239   17.3105 C   0  0  0  0  0  0  0  0  0  0  0  0
   48.8459    7.7461   16.1727 O   0  0  0  0  0  0  0  0  0  0  0  0
   48.9208    5.8773   17.7129 C   0  0  2  0  0  0  0  0  0  0  0  0
   47.8532    5.3404   18.6757 C   0  0  0  0  0  0  0  0  0  0  0  0
   46.6143    5.1206   17.9988 O   0  0  0  0  0  0  0  0  0  0  0  0
   50.3342    5.7008   18.2483 C   0  0  0  0  0  0  0  0  0  0  0  0
   50.7043    6.1590   19.5230 C   0  0  0  0  0  0  0  0  0  0  0  0
   52.0130    6.0009   19.9832 C   0  0  0  0  0  0  0  0  0  0  0  0
   52.9681    5.3846   19.1784 C   0  0  0  0  0  0  0  0  0  0  0  0
   52.6158    4.9288   17.9108 C   0  0  0  0  0  0  0  0  0  0  0  0
   51.3089    5.0868   17.4471 C   0  0  0  0  0  0  0  0  0  0  0  0
   49.5622    4.2410   19.2314 C   0  0  0  0  0  0  0  0  0  0  0  0
   50.4613    5.3734   19.1235 N   0  0  0  0  0  0  0  0  0  0  0  0
   50.1690    6.5195   19.9893 C   0  0  1  0  0  0  0  0  0  0  0  0
   51.3007    7.4639   19.5680 C   0  0  0  0  0  0  0  0  0  0  0  0
   51.6026    7.0797   18.1150 C   0  0  0  0  0  0  0  0  0  0  0  0
   50.6000    5.9696   17.7933 C   0  0  2  0  0  0  0  0  0  0  0  0
   49.2730    6.5353   17.2545 C   0  0  0  0  0  0  0  0  0  0  0  0
   48.5489    7.4727   18.2328 C   0  0  1  0  0  0  0  0  0  0  0  0
   48.7801    7.1183   19.7109 C   0  0  0  0  0  0  0  0  0  0  0  0
   48.9753    8.8430   18.0358 O   0  0  0  0  0  0  0  0  0  0  0  0
   48.2385    9.5799   17.1544 C   0  0  0  0  0  0  0  0  0  0  0  0
   47.3993    9.1212   16.3865 O   0  0  0  0  0  0  0  0  0  0  0  0
   48.5674   11.0607   17.2500 C   0  0  2  0  0  0  0  0  0  0  0  0
   49.9753   11.3023   16.6817 C   0  0  0  0  0  0  0  0  0  0  0  0
   51.0333   10.8082   17.4961 O   0  0  0  0  0  0  0  0  0  0  0  0
   48.2209   11.6380   18.6172 C   0  0  0  0  0  0  0  0  0  0  0  0
   46.8823   11.5824   19.0524 C   0  0  0  0  0  0  0  0  0  0  0  0
   46.5051   12.0865   20.2994 C   0  0  0  0  0  0  0  0  0  0  0  0
   47.4608   12.6586   21.1325 C   0  0  0  0  0  0  0  0  0  0  0  0
   48.7865   12.7334   20.7167 C   0  0  0  0  0  0  0  0  0  0  0  0
   49.1633   12.2293   19.4687 C   0  0  0  0  0  0  0  0  0  0  0  0
   48.9908    8.6758   18.4151 S   0  0  0  0  0  0  0  0  0  0  0  0
   49.9591    8.7956   17.3540 O   0  0  0  0  0  0  0  0  0  0  0  0
   49.2772    7.2888   19.1688 O   0  0  0  0  0  0  0  0  0  0  0  0
   49.4002    9.7452   19.5406 O   0  0  0  0  0  0  0  0  0  0  0  0
   47.5728    8.8202   18.1994 O   0  0  0  0  0  0  0  0  0  0  0  0
   48.9278    8.6982   18.4798 O   0  0  0  0  0  0  0  0  0  0  0  0
   48.9275    8.6994   18.4801 O   0  0  0  0  0  0  0  0  0  0  0  0
   46.9274   13.9267   18.3351 H   0  0  0  0  0  0  0  0  0  0  0  0
   48.3720   14.0678   19.3548 H   0  0  0  0  0  0  0  0  0  0  0  0
   48.5164   14.0370   17.5906 H   0  0  0  0  0  0  0  0  0  0  0  0
   50.1852   12.2500   18.0456 H   0  0  0  0  0  0  0  0  0  0  0  0
   50.3428   10.9497   20.4764 H   0  0  0  0  0  0  0  0  0  0  0  0
   50.1617   12.7013   20.3701 H   0  0  0  0  0  0  0  0  0  0  0  0
   48.2338   10.8457   21.4527 H   0  0  0  0  0  0  0  0  0  0  0  0
   48.0980   12.5963   21.2804 H   0  0  0  0  0  0  0  0  0  0  0  0
   46.3804   11.9740   19.7604 H   0  0  0  0  0  0  0  0  0  0  0  0
   47.1814    9.4094   20.1027 H   0  0  0  0  0  0  0  0  0  0  0  0
   46.1310    9.9026   18.8034 H   0  0  0  0  0  0  0  0  0  0  0  0
   47.6348    9.6411   17.1587 H   0  0  0  0  0  0  0  0  0  0  0  0
   50.2335    9.6295   18.6690 H   0  0  0  0  0  0  0  0  0  0  0  0
   49.8366   10.1995   17.0695 H   0  0  0  0  0  0  0  0  0  0  0  0
   48.8193    5.2972   16.7839 H   0  0  0  0  0  0  0  0  0  0  0  0
   47.6556    6.0182   19.5136 H   0  0  0  0  0  0  0  0  0  0  0  0
   48.1590    4.3786   19.1059 H   0  0  0  0  0  0  0  0  0  0  0  0
   46.7271    4.3506   17.4121 H   0  0  0  0  0  0  0  0  0  0  0  0
   49.9821    6.6556   20.1684 H   0  0  0  0  0  0  0  0  0  0  0  0
   52.2897    6.3649   20.9693 H   0  0  0  0  0  0  0  0  0  0  0  0
   53.9869    5.2629   19.5381 H   0  0  0  0  0  0  0  0  0  0  0  0
   53.3627    4.4555   17.2778 H   0  0  0  0  0  0  0  0  0  0  0  0
   51.0616    4.7328   16.4479 H   0  0  0  0  0  0  0  0  0  0  0  0
   48.5311    4.4532   18.9346 H   0  0  0  0  0  0  0  0  0  0  0  0
   49.9239    3.4165   18.6077 H   0  0  0  0  0  0  0  0  0  0  0  0
   49.5462    3.8722   20.2635 H   0  0  0  0  0  0  0  0  0  0  0  0
   50.2584    6.2632   21.0500 H   0  0  0  0  0  0  0  0  0  0  0  0
   52.1954    7.2840   20.1795 H   0  0  0  0  0  0  0  0  0  0  0  0
   51.0401    8.5211   19.6779 H   0  0  0  0  0  0  0  0  0  0  0  0
   52.6281    6.6961   18.0527 H   0  0  0  0  0  0  0  0  0  0  0  0
   51.5349    7.9249   17.4262 H   0  0  0  0  0  0  0  0  0  0  0  0
   51.0303    5.2636   17.0748 H   0  0  0  0  0  0  0  0  0  0  0  0
   48.6080    5.6937   17.0242 H   0  0  0  0  0  0  0  0  0  0  0  0
   49.4620    7.0528   16.3061 H   0  0  0  0  0  0  0  0  0  0  0  0
   47.4679    7.4160   18.0514 H   0  0  0  0  0  0  0  0  0  0  0  0
   48.0157    6.3956   20.0233 H   0  0  0  0  0  0  0  0  0  0  0  0
   48.6375    8.0096   20.3345 H   0  0  0  0  0  0  0  0  0  0  0  0
   47.8859   11.5599   16.5439 H   0  0  0  0  0  0  0  0  0  0  0  0
   50.0757   10.8329   15.6970 H   0  0  0  0  0  0  0  0  0  0  0  0
   50.1479   12.3756   16.5499 H   0  0  0  0  0  0  0  0  0  0  0  0
   50.8262    9.8839   17.7301 H   0  0  0  0  0  0  0  0  0  0  0  0
   46.1147   11.1416   18.4184 H   0  0  0  0  0  0  0  0  0  0  0  0
   45.4671   12.0287   20.6191 H   0  0  0  0  0  0  0  0  0  0  0  0
   47.1722   13.0499   22.1046 H   0  0  0  0  0  0  0  0  0  0  0  0
   49.5341   13.1864   21.3659 H   0  0  0  0  0  0  0  0  0  0  0  0
   50.2099   12.3154   19.1860 H   0  0  0  0  0  0  0  0  0  0  0  0
   50.2349    7.2421   19.3601 H   0  0  0  0  0  0  0  0  0  0  0  0
   48.9980   10.6052   19.2939 H   0  0  0  0  0  0  0  0  0  0  0  0
   49.5870    8.0487   18.7662 H   0  0  0  0  0  0  0  0  0  0  0  0
   49.0994    9.4702   19.0392 H   0  0  0  0  0  0  0  0  0  0  0  0
   49.1012    9.4695   19.0405 H   0  0  0  0  0  0  0  0  0  0  0  0
   49.5856    8.0481   18.7646 H   0  0  0  0  0  0  0  0  0  0  0  0
  1  2  1  0
  3  2  1  0
  3  4  1  0
  4  5  1  0
  6  5  1  0
  6  2  1  0
  6  7  1  0
  7  8  1  0
  8  9  1  0
  3  9  1  0
  8 10  1  0
 10 11  1  0
 11 12  2  0
 11 13  1  0
 13 14  1  0
 14 15  1  0
 13 16  1  0
 16 17  2  0
 17 18  1  0
 18 19  2  0
 19 20  1  0
 20 21  2  0
 16 21  1  0
 22 23  1  0
 24 23  1  0
 24 25  1  0
 25 26  1  0
 27 26  1  0
 27 23  1  0
 27 28  1  0
 28 29  1  0
 29 30  1  0
 24 30  1  0
 29 31  1  0
 31 32  1  0
 32 33  2  0
 32 34  1  0
 34 35  1  0
 35 36  1  0
 34 37  1  0
 37 38  2  0
 38 39  1  0
 39 40  2  0
 40 41  1  0
 41 42  2  0
 37 42  1  0
 43 44  2  0
 43 45  1  0
 43 46  1  0
 43 47  2  0
  1 50  1  0
  1 51  1  0
  1 52  1  0
  3 53  1  1
  4 54  1  0
  4 55  1  0
  5 56  1  0
  5 57  1  0
  6 58  1  6
  7 59  1  0
  7 60  1  0
  8 61  1  1
  9 62  1  0
  9 63  1  0
 13 64  1  1
 14 65  1  0
 14 66  1  0
 15 67  1  0
 17 68  1  0
 18 69  1  0
 19 70  1  0
 20 71  1  0
 21 72  1  0
 22 73  1  0
 22 74  1  0
 22 75  1  0
 24 76  1  6
 25 77  1  0
 25 78  1  0
 26 79  1  0
 26 80  1  0
 27 81  1  1
 28 82  1  0
 28 83  1  0
 29 84  1  6
 30 85  1  0
 30 86  1  0
 34 87  1  1
 35 88  1  0
 35 89  1  0
 36 90  1  0
 38 91  1  0
 39 92  1  0
 40 93  1  0
 41 94  1  0
 42 95  1  0
 45 96  1  0
 46 97  1  0
 48 98  1  0
 48 99  1  0
 49100  1  0
 49101  1  0
M  END
> <Uni-Dock RESULT> 
ENERGY=   -4.512  LOWER_BOUND=    2.189  UPPER_BOUND=    6.221
INTER + INTRA:          -4.512
INTER:                  -4.512
INTRA:                   0.000
UNBOUND:                 0.000

$$$$

     RDKit          3D

101102  0  0  0  0  0  0  0  0999 V2000
   48.4331   12.9033   18.8430 C   0  0  0  0  0  0  0  0  0  0  0  0
   48.4133   11.4524   18.6763 N   0  0  0  0  0  0  0  0  0  0  0  0
   49.6849   10.8162   19.0641 C   0  0  1  0  0  0  0  0  0  0  0  0
   49.6316   10.7317   20.5940 C   0  0  0  0  0  0  0  0  0  0  0  0
   48.1467   10.7308   20.9294 C   0  0  0  0  0  0  0  0  0  0  0  0
   47.4476   10.7852   19.5673 C   0  0  2  0  0  0  0  0  0  0  0  0
   47.2007    9.3652   19.0273 C   0  0  0  0  0  0  0  0  0  0  0  0
   48.3253    8.8414   18.1193 C   0  0  1  0  0  0  0  0  0  0  0  0
   49.7185    9.4108   18.4371 C   0  0  0  0  0  0  0  0  0  0  0  0
   48.3464    7.4033   18.2342 O   0  0  0  0  0  0  0  0  0  0  0  0
   48.8585    6.7083   17.1806 C   0  0  0  0  0  0  0  0  0  0  0  0
   49.2960    7.2148   16.1526 O   0  0  0  0  0  0  0  0  0  0  0  0
   48.9143    5.2127   17.4626 C   0  0  2  0  0  0  0  0  0  0  0  0
   47.6359    4.6948   18.1355 C   0  0  0  0  0  0  0  0  0  0  0  0
   46.5465    4.6601   17.2117 O   0  0  0  0  0  0  0  0  0  0  0  0
   50.1723    4.8509   18.2384 C   0  0  0  0  0  0  0  0  0  0  0  0
   50.3109    5.1507   19.6032 C   0  0  0  0  0  0  0  0  0  0  0  0
   51.4833    4.8244   20.2875 C   0  0  0  0  0  0  0  0  0  0  0  0
   52.5314    4.1956   19.6196 C   0  0  0  0  0  0  0  0  0  0  0  0
   52.4090    3.8959   18.2654 C   0  0  0  0  0  0  0  0  0  0  0  0
   51.2390    4.2223   17.5780 C   0  0  0  0  0  0  0  0  0  0  0  0
   49.1079    3.3879   18.8865 C   0  0  0  0  0  0  0  0  0  0  0  0
   50.0942    4.4329   19.0801 N   0  0  0  0  0  0  0  0  0  0  0  0
   49.7215    5.5166   19.9940 C   0  0  1  0  0  0  0  0  0  0  0  0
   50.9840    6.3818   19.9063 C   0  0  0  0  0  0  0  0  0  0  0  0
   51.5433    6.1066   18.5057 C   0  0  0  0  0  0  0  0  0  0  0  0
   50.5444    5.1338   17.8759 C   0  0  2  0  0  0  0  0  0  0  0  0
   49.4013    5.8731   17.1563 C   0  0  0  0  0  0  0  0  0  0  0  0
   48.5682    6.7814   18.0735 C   0  0  1  0  0  0  0  0  0  0  0  0
   48.4677    6.2705   19.5201 C   0  0  0  0  0  0  0  0  0  0  0  0
   49.1293    8.1163   18.1150 O   0  0  0  0  0  0  0  0  0  0  0  0
   48.6448    8.9998   17.1945 C   0  0  0  0  0  0  0  0  0  0  0  0
   47.9458    8.6980   16.2330 O   0  0  0  0  0  0  0  0  0  0  0  0
   49.0601   10.4264   17.5146 C   0  0  2  0  0  0  0  0  0  0  0  0
   50.5681   10.5820   17.2595 C   0  0  0  0  0  0  0  0  0  0  0  0
   51.3984    9.9141   18.2036 O   0  0  0  0  0  0  0  0  0  0  0  0
   48.4894   10.9051   18.8442 C   0  0  0  0  0  0  0  0  0  0  0  0
   47.0902   10.9396   19.0035 C   0  0  0  0  0  0  0  0  0  0  0  0
   46.5083   11.3598   20.2018 C   0  0  0  0  0  0  0  0  0  0  0  0
   47.3166   11.7567   21.2619 C   0  0  0  0  0  0  0  0  0  0  0  0
   48.7008   11.7408   21.1212 C   0  0  0  0  0  0  0  0  0  0  0  0
   49.2825   11.3206   19.9218 C   0  0  0  0  0  0  0  0  0  0  0  0
   49.0549    7.9139   18.4693 S   0  0  0  0  0  0  0  0  0  0  0  0
   50.2242    8.0371   17.6353 O   0  0  0  0  0  0  0  0  0  0  0  0
   49.0758    6.4416   19.1065 O   0  0  0  0  0  0  0  0  0  0  0  0
   49.3089    8.8293   19.7637 O   0  0  0  0  0  0  0  0  0  0  0  0
   47.7253    8.2146   18.0007 O   0  0  0  0  0  0  0  0  0  0  0  0
   48.9821    7.9362   18.5226 O   0  0  0  0  0  0  0  0  0  0  0  0
   48.9818    7.9373   18.5231 O   0  0  0  0  0  0  0  0  0  0  0  0
   47.4590   13.3248   18.5714 H   0  0  0  0  0  0  0  0  0  0  0  0
   48.6739   13.2297   19.8604 H   0  0  0  0  0  0  0  0  0  0  0  0
   49.1695   13.3491   18.1650 H   0  0  0  0  0  0  0  0  0  0  0  0
   50.5697   11.3741   18.7343 H   0  0  0  0  0  0  0  0  0  0  0  0
   50.1321    9.8445   20.9911 H   0  0  0  0  0  0  0  0  0  0  0  0
   50.1110   11.6077   21.0457 H   0  0  0  0  0  0  0  0  0  0  0  0
   47.8675    9.8555   21.5236 H   0  0  0  0  0  0  0  0  0  0  0  0
   47.9040   11.6194   21.5225 H   0  0  0  0  0  0  0  0  0  0  0  0
   46.4870   11.3105   19.6398 H   0  0  0  0  0  0  0  0  0  0  0  0
   47.0032    8.6597   19.8456 H   0  0  0  0  0  0  0  0  0  0  0  0
   46.2784    9.3709   18.4301 H   0  0  0  0  0  0  0  0  0  0  0  0
   48.0593    9.1186   17.0887 H   0  0  0  0  0  0  0  0  0  0  0  0
   50.2900    8.7147   19.0623 H   0  0  0  0  0  0  0  0  0  0  0  0
   50.2698    9.4667   17.4891 H   0  0  0  0  0  0  0  0  0  0  0  0
   48.9587    4.7340   16.4733 H   0  0  0  0  0  0  0  0  0  0  0  0
   47.3255    5.3078   18.9889 H   0  0  0  0  0  0  0  0  0  0  0  0
   47.7738    3.6721   18.5079 H   0  0  0  0  0  0  0  0  0  0  0  0
   46.7163    3.9406   16.5767 H   0  0  0  0  0  0  0  0  0  0  0  0
   49.5132    5.6530   20.1475 H   0  0  0  0  0  0  0  0  0  0  0  0
   51.5819    5.0666   21.3426 H   0  0  0  0  0  0  0  0  0  0  0  0
   53.4440    3.9428   20.1538 H   0  0  0  0  0  0  0  0  0  0  0  0
   53.2301    3.4132   17.7405 H   0  0  0  0  0  0  0  0  0  0  0  0
   51.1726    3.9884   16.5170 H   0  0  0  0  0  0  0  0  0  0  0  0
   48.1774    3.7259   18.4212 H   0  0  0  0  0  0  0  0  0  0  0  0
   49.5240    2.5937   18.2574 H   0  0  0  0  0  0  0  0  0  0  0  0
   48.8551    2.9282   19.8489 H   0  0  0  0  0  0  0  0  0  0  0  0
   49.5745    5.1554   21.0171 H   0  0  0  0  0  0  0  0  0  0  0  0
   51.7200    6.0598   20.6556 H   0  0  0  0  0  0  0  0  0  0  0  0
   50.7884    7.4444   20.0796 H   0  0  0  0  0  0  0  0  0  0  0  0
   52.5277    5.6328   18.6011 H   0  0  0  0  0  0  0  0  0  0  0  0
   51.6814    7.0147   17.9144 H   0  0  0  0  0  0  0  0  0  0  0  0
   51.0559    4.4591   17.1807 H   0  0  0  0  0  0  0  0  0  0  0  0
   48.7341    5.1250   16.7104 H   0  0  0  0  0  0  0  0  0  0  0  0
   49.8173    6.4557   16.3253 H   0  0  0  0  0  0  0  0  0  0  0  0
   47.5452    6.8470   17.6813 H   0  0  0  0  0  0  0  0  0  0  0  0
   47.6029    5.5996   19.5971 H   0  0  0  0  0  0  0  0  0  0  0  0
   48.2707    7.1097   20.1988 H   0  0  0  0  0  0  0  0  0  0  0  0
   48.5759   11.0527   16.7495 H   0  0  0  0  0  0  0  0  0  0  0  0
   50.8295   10.1986   16.2672 H   0  0  0  0  0  0  0  0  0  0  0  0
   50.8456   11.6410   17.2827 H   0  0  0  0  0  0  0  0  0  0  0  0
   51.0780    8.9966   18.2897 H   0  0  0  0  0  0  0  0  0  0  0  0
   46.4353   10.6361   18.1882 H   0  0  0  0  0  0  0  0  0  0  0  0
   45.4257   11.3736   20.3064 H   0  0  0  0  0  0  0  0  0  0  0  0
   46.8682   12.0821   22.1970 H   0  0  0  0  0  0  0  0  0  0  0  0
   49.3340   12.0569   21.9486 H   0  0  0  0  0  0  0  0  0  0  0  0
   50.3682   11.3306   19.8580 H   0  0  0  0  0  0  0  0  0  0  0  0
   49.9685    6.2847   19.4731 H   0  0  0  0  0  0  0  0  0  0  0  0
   49.0321    9.7434   19.5403 H   0  0  0  0  0  0  0  0  0  0  0  0
   49.5180    7.2019   18.8577 H   0  0  0  0  0  0  0  0  0  0  0  0
   49.0956    8.6325   19.1863 H   0  0  0  0  0  0  0  0  0  0  0  0
   49.0970    8.6316   19.1879 H   0  0  0  0  0  0  0  0  0  0  0  0
   49.5169    7.2017   18.8558 H   0  0  0  0  0  0  0  0  0  0  0  0
  1  2  1  0
  3  2  1  0
  3  4  1  0
  4  5  1  0
  6  5  1  0
  6  2  1  0
  6  7  1  0
  7  8  1  0
  8  9  1  0
  3  9  1  0
  8 10  1  0
 10 11  1  0
 11 12  2  0
 11 13  1  0
 13 14  1  0
 14 15  1  0
 13 16  1  0
 16 17  2  0
 17 18  1  0
 18 19  2  0
 19 20  1  0
 20 21  2  0
 16 21  1  0
 22 23  1  0
 24 23  1  0
 24 25  1  0
 25 26  1  0
 27 26  1  0
 27 23  1  0
 27 28  1  0
 28 29  1  0
 29 30  1  0
 24 30  1  0
 29 31  1  0
 31 32  1  0
 32 33  2  0
 32 34  1  0
 34 35  1  0
 35 36  1  0
 34 37  1  0
 37 38  2  0
 38 39  1  0
 39 40  2  0
 40 41  1  0
 41 42  2  0
 37 42  1  0
 43 44  2  0
 43 45  1  0
 43 46  1  0
 43 47  2  0
  1 50  1  0
  1 51  1  0
  1 52  1  0
  3 53  1  1
  4 54  1  0
  4 55  1  0
  5 56  1  0
  5 57  1  0
  6 58  1  6
  7 59  1  0
  7 60  1  0
  8 61  1  1
  9 62  1  0
  9 63  1  0
 13 64  1  1
 14 65  1  0
 14 66  1  0
 15 67  1  0
 17 68  1  0
 18 69  1  0
 19 70  1  0
 20 71  1  0
 21 72  1  0
 22 73  1  0
 22 74  1  0
 22 75  1  0
 24 76  1  6
 25 77  1  0
 25 78  1  0
 26 79  1  0
 26 80  1  0
 27 81  1  1
 28 82  1  0
 28 83  1  0
 29 84  1  6
 30 85  1  0
 30 86  1  0
 34 87  1  1
 35 88  1  0
 35 89  1  0
 36 90  1  0
 38 91  1  0
 39 92  1  0
 40 93  1  0
 41 94  1  0
 42 95  1  0
 45 96  1  0
 46 97  1  0
 48 98  1  0
 48 99  1  0
 49100  1  0
 49101  1  0
M  END
> <Uni-Dock RESULT> 
ENERGY=   -4.445  LOWER_BOUND=    2.484  UPPER_BOUND=    6.524
INTER + INTRA:          -4.445
INTER:                  -4.445
INTRA:                   0.000
UNBOUND:                 0.000

$$$$
