
     RDKit          3D

101102  0  0  0  0  0  0  0  0999 V2000
   43.6867    3.3208   10.7936 C   0  0  0  0  0  0  0  0  0  0  0  0
   44.5559    4.3887   11.2804 N   0  0  0  0  0  0  0  0  0  0  0  0
   43.9127    5.7155   11.2488 C   0  0  1  0  0  0  0  0  0  0  0  0
   43.0065    5.7351   12.4845 C   0  0  0  0  0  0  0  0  0  0  0  0
   43.6673    4.7669   13.4591 C   0  0  0  0  0  0  0  0  0  0  0  0
   44.8983    4.2427   12.7086 C   0  0  2  0  0  0  0  0  0  0  0  0
   46.1316    5.1224   12.9912 C   0  0  0  0  0  0  0  0  0  0  0  0
   46.3291    6.2430   11.9573 C   0  0  1  0  0  0  0  0  0  0  0  0
   45.0163    6.7839   11.3654 C   0  0  0  0  0  0  0  0  0  0  0  0
   47.0357    7.3526   12.5514 O   0  0  0  0  0  0  0  0  0  0  0  0
   48.3985    7.2725   12.5873 C   0  0  0  0  0  0  0  0  0  0  0  0
   49.0410    6.3011   12.2117 O   0  0  0  0  0  0  0  0  0  0  0  0
   48.9811    8.5416   13.2087 C   0  0  2  0  0  0  0  0  0  0  0  0
   48.4497    9.7932   12.4849 C   0  0  0  0  0  0  0  0  0  0  0  0
   47.3340   10.3574   13.1793 O   0  0  0  0  0  0  0  0  0  0  0  0
   50.5064    8.5522   13.2286 C   0  0  0  0  0  0  0  0  0  0  0  0
   51.1927    8.6256   14.4507 C   0  0  0  0  0  0  0  0  0  0  0  0
   52.5885    8.6721   14.4810 C   0  0  0  0  0  0  0  0  0  0  0  0
   53.3145    8.6423   13.2913 C   0  0  0  0  0  0  0  0  0  0  0  0
   52.6474    8.5638   12.0702 C   0  0  0  0  0  0  0  0  0  0  0  0
   51.2526    8.5195   12.0373 C   0  0  0  0  0  0  0  0  0  0  0  0
   42.6065    4.8668   12.0777 C   0  0  0  0  0  0  0  0  0  0  0  0
   43.9437    5.3778   12.3719 N   0  0  0  0  0  0  0  0  0  0  0  0
   44.9451    4.3068   12.5343 C   0  0  1  0  0  0  0  0  0  0  0  0
   45.2966    3.8821   11.1055 C   0  0  0  0  0  0  0  0  0  0  0  0
   45.0082    5.1156   10.2586 C   0  0  0  0  0  0  0  0  0  0  0  0
   44.5078    6.1644   11.2599 C   0  0  2  0  0  0  0  0  0  0  0  0
   45.6791    6.9966   11.8121 C   0  0  0  0  0  0  0  0  0  0  0  0
   46.2781    6.4319   13.1104 C   0  0  1  0  0  0  0  0  0  0  0  0
   46.1745    4.9046   13.2430 C   0  0  0  0  0  0  0  0  0  0  0  0
   47.6588    6.8485   13.1683 O   0  0  0  0  0  0  0  0  0  0  0  0
   48.2472    6.8917   14.3945 C   0  0  0  0  0  0  0  0  0  0  0  0
   47.7061    6.5593   15.4427 O   0  0  0  0  0  0  0  0  0  0  0  0
   49.7030    7.3274   14.2927 C   0  0  2  0  0  0  0  0  0  0  0  0
   50.2566    7.6246   15.6938 C   0  0  0  0  0  0  0  0  0  0  0  0
   50.3774    6.4279   16.4627 O   0  0  0  0  0  0  0  0  0  0  0  0
   49.9060    8.5171   13.3656 C   0  0  0  0  0  0  0  0  0  0  0  0
   49.2898    9.7553   13.6172 C   0  0  0  0  0  0  0  0  0  0  0  0
   49.4798   10.8303   12.7472 C   0  0  0  0  0  0  0  0  0  0  0  0
   50.2851   10.6819   11.6179 C   0  0  0  0  0  0  0  0  0  0  0  0
   50.9042    9.4597   11.3575 C   0  0  0  0  0  0  0  0  0  0  0  0
   50.7154    8.3826   12.2245 C   0  0  0  0  0  0  0  0  0  0  0  0
   47.5243    6.5068   12.3320 S   0  0  0  0  0  0  0  0  0  0  0  0
   46.9164    6.2574   11.0498 O   0  0  0  0  0  0  0  0  0  0  0  0
   46.5299    5.8958   13.4326 O   0  0  0  0  0  0  0  0  0  0  0  0
   47.4118    8.0758   12.6503 O   0  0  0  0  0  0  0  0  0  0  0  0
   48.8708    6.1205   12.6709 O   0  0  0  0  0  0  0  0  0  0  0  0
   47.4721    6.5025   12.3743 O   0  0  0  0  0  0  0  0  0  0  0  0
   47.4781    6.5060   12.3752 O   0  0  0  0  0  0  0  0  0  0  0  0
   44.2012    2.3566   10.8706 H   0  0  0  0  0  0  0  0  0  0  0  0
   43.4623    3.4778    9.7326 H   0  0  0  0  0  0  0  0  0  0  0  0
   42.7367    3.2404   11.3314 H   0  0  0  0  0  0  0  0  0  0  0  0
   43.3330    5.8967   10.3351 H   0  0  0  0  0  0  0  0  0  0  0  0
   42.0044    5.3693   12.2296 H   0  0  0  0  0  0  0  0  0  0  0  0
   42.8878    6.7329   12.9180 H   0  0  0  0  0  0  0  0  0  0  0  0
   42.9731    3.9475   13.6829 H   0  0  0  0  0  0  0  0  0  0  0  0
   43.9158    5.2540   14.4082 H   0  0  0  0  0  0  0  0  0  0  0  0
   45.1218    3.2091   12.9988 H   0  0  0  0  0  0  0  0  0  0  0  0
   46.1019    5.5349   14.0084 H   0  0  0  0  0  0  0  0  0  0  0  0
   47.0288    4.4883   12.9631 H   0  0  0  0  0  0  0  0  0  0  0  0
   46.9202    5.8465   11.1176 H   0  0  0  0  0  0  0  0  0  0  0  0
   45.2480    7.1664   10.3612 H   0  0  0  0  0  0  0  0  0  0  0  0
   44.6639    7.6558   11.9332 H   0  0  0  0  0  0  0  0  0  0  0  0
   48.6288    8.5413   14.2500 H   0  0  0  0  0  0  0  0  0  0  0  0
   48.1247    9.5658   11.4632 H   0  0  0  0  0  0  0  0  0  0  0  0
   49.2012   10.5878   12.4173 H   0  0  0  0  0  0  0  0  0  0  0  0
   47.6620   10.7097   14.0265 H   0  0  0  0  0  0  0  0  0  0  0  0
   50.6474    8.6497   15.3929 H   0  0  0  0  0  0  0  0  0  0  0  0
   53.1110    8.7296   15.4324 H   0  0  0  0  0  0  0  0  0  0  0  0
   54.4010    8.6759   13.3152 H   0  0  0  0  0  0  0  0  0  0  0  0
   53.2133    8.5340   11.1423 H   0  0  0  0  0  0  0  0  0  0  0  0
   50.7547    8.4423   11.0720 H   0  0  0  0  0  0  0  0  0  0  0  0
   41.8980    5.6993   11.9953 H   0  0  0  0  0  0  0  0  0  0  0  0
   42.2533    4.2346   12.9014 H   0  0  0  0  0  0  0  0  0  0  0  0
   42.5463    4.2825   11.1535 H   0  0  0  0  0  0  0  0  0  0  0  0
   44.5773    3.4553   13.1191 H   0  0  0  0  0  0  0  0  0  0  0  0
   44.6548    3.0552   10.7791 H   0  0  0  0  0  0  0  0  0  0  0  0
   46.3345    3.5507   10.9968 H   0  0  0  0  0  0  0  0  0  0  0  0
   45.8926    5.4357    9.6976 H   0  0  0  0  0  0  0  0  0  0  0  0
   44.2269    4.8781    9.5260 H   0  0  0  0  0  0  0  0  0  0  0  0
   43.7816    6.8399   10.7905 H   0  0  0  0  0  0  0  0  0  0  0  0
   46.4576    7.1342   11.0497 H   0  0  0  0  0  0  0  0  0  0  0  0
   45.3198    8.0115   12.0344 H   0  0  0  0  0  0  0  0  0  0  0  0
   45.7351    6.8967   13.9445 H   0  0  0  0  0  0  0  0  0  0  0  0
   47.1005    4.4250   12.9034 H   0  0  0  0  0  0  0  0  0  0  0  0
   46.1020    4.6714   14.3143 H   0  0  0  0  0  0  0  0  0  0  0  0
   50.2348    6.4511   13.8959 H   0  0  0  0  0  0  0  0  0  0  0  0
   51.2600    8.0592   15.6260 H   0  0  0  0  0  0  0  0  0  0  0  0
   49.6278    8.3281   16.2511 H   0  0  0  0  0  0  0  0  0  0  0  0
   49.4644    6.1360   16.6646 H   0  0  0  0  0  0  0  0  0  0  0  0
   48.6521    9.8945   14.4893 H   0  0  0  0  0  0  0  0  0  0  0  0
   48.9979   11.7853   12.9474 H   0  0  0  0  0  0  0  0  0  0  0  0
   50.4345   11.5219   10.9447 H   0  0  0  0  0  0  0  0  0  0  0  0
   51.5356    9.3464   10.4813 H   0  0  0  0  0  0  0  0  0  0  0  0
   51.2032    7.4343   12.0027 H   0  0  0  0  0  0  0  0  0  0  0  0
   45.6312    5.8940   13.0394 H   0  0  0  0  0  0  0  0  0  0  0  0
   48.0663    8.2727   13.3535 H   0  0  0  0  0  0  0  0  0  0  0  0
   46.5498    6.4146   12.6587 H   0  0  0  0  0  0  0  0  0  0  0  0
   47.8142    7.2358   12.9079 H   0  0  0  0  0  0  0  0  0  0  0  0
   46.5539    6.4059   12.6492 H   0  0  0  0  0  0  0  0  0  0  0  0
   47.8042    7.2409   12.9164 H   0  0  0  0  0  0  0  0  0  0  0  0
  1  2  1  0
  3  2  1  0
  3  4  1  0
  4  5  1  0
  6  5  1  0
  6  2  1  0
  6  7  1  0
  7  8  1  0
  8  9  1  0
  3  9  1  0
  8 10  1  0
 10 11  1  0
 11 12  2  0
 11 13  1  0
 13 14  1  0
 14 15  1  0
 13 16  1  0
 16 17  2  0
 17 18  1  0
 18 19  2  0
 19 20  1  0
 20 21  2  0
 16 21  1  0
 22 23  1  0
 24 23  1  0
 24 25  1  0
 25 26  1  0
 27 26  1  0
 27 23  1  0
 27 28  1  0
 28 29  1  0
 29 30  1  0
 24 30  1  0
 29 31  1  0
 31 32  1  0
 32 33  2  0
 32 34  1  0
 34 35  1  0
 35 36  1  0
 34 37  1  0
 37 38  2  0
 38 39  1  0
 39 40  2  0
 40 41  1  0
 41 42  2  0
 37 42  1  0
 43 44  2  0
 43 45  1  0
 43 46  1  0
 43 47  2  0
  1 50  1  0
  1 51  1  0
  1 52  1  0
  3 53  1  1
  4 54  1  0
  4 55  1  0
  5 56  1  0
  5 57  1  0
  6 58  1  6
  7 59  1  0
  7 60  1  0
  8 61  1  1
  9 62  1  0
  9 63  1  0
 13 64  1  6
 14 65  1  0
 14 66  1  0
 15 67  1  0
 17 68  1  0
 18 69  1  0
 19 70  1  0
 20 71  1  0
 21 72  1  0
 22 73  1  0
 22 74  1  0
 22 75  1  0
 24 76  1  6
 25 77  1  0
 25 78  1  0
 26 79  1  0
 26 80  1  0
 27 81  1  1
 28 82  1  0
 28 83  1  0
 29 84  1  6
 30 85  1  0
 30 86  1  0
 34 87  1  6
 35 88  1  0
 35 89  1  0
 36 90  1  0
 38 91  1  0
 39 92  1  0
 40 93  1  0
 41 94  1  0
 42 95  1  0
 45 96  1  0
 46 97  1  0
 48 98  1  0
 48 99  1  0
 49100  1  0
 49101  1  0
M  END
> <Uni-Dock RESULT> 
ENERGY=   -6.418  LOWER_BOUND=    0.000  UPPER_BOUND=    0.000
INTER + INTRA:          -6.418
INTER:                  -6.418
INTRA:                   0.000
UNBOUND:                 0.000

$$$$

     RDKit          3D

101102  0  0  0  0  0  0  0  0999 V2000
   43.8678    4.0663   10.0881 C   0  0  0  0  0  0  0  0  0  0  0  0
   44.6681    4.8396   11.0339 N   0  0  0  0  0  0  0  0  0  0  0  0
   43.9909    6.0660   11.4949 C   0  0  1  0  0  0  0  0  0  0  0  0
   42.9968    5.5827   12.5564 C   0  0  0  0  0  0  0  0  0  0  0  0
   43.6125    4.2989   13.1009 C   0  0  0  0  0  0  0  0  0  0  0  0
   44.9095    4.1224   12.3011 C   0  0  2  0  0  0  0  0  0  0  0  0
   46.0930    4.8059   13.0129 C   0  0  0  0  0  0  0  0  0  0  0  0
   46.3330    6.2502   12.5436 C   0  0  1  0  0  0  0  0  0  0  0  0
   45.0518    6.9901   12.1222 C   0  0  0  0  0  0  0  0  0  0  0  0
   46.9621    7.0183   13.5912 O   0  0  0  0  0  0  0  0  0  0  0  0
   48.3203    6.9259   13.6981 C   0  0  0  0  0  0  0  0  0  0  0  0
   49.0163    6.1901   13.0112 O   0  0  0  0  0  0  0  0  0  0  0  0
   48.8193    7.8290   14.8258 C   0  0  2  0  0  0  0  0  0  0  0  0
   48.3062    9.2688   14.6349 C   0  0  0  0  0  0  0  0  0  0  0  0
   47.1270    9.5044   15.4091 O   0  0  0  0  0  0  0  0  0  0  0  0
   50.3382    7.8253   14.9678 C   0  0  0  0  0  0  0  0  0  0  0  0
   50.9311    7.3913   16.1636 C   0  0  0  0  0  0  0  0  0  0  0  0
   52.3190    7.4166   16.3193 C   0  0  0  0  0  0  0  0  0  0  0  0
   53.1304    7.8723   15.2814 C   0  0  0  0  0  0  0  0  0  0  0  0
   52.5567    8.3012   14.0860 C   0  0  0  0  0  0  0  0  0  0  0  0
   51.1699    8.2790   13.9287 C   0  0  0  0  0  0  0  0  0  0  0  0
   42.6527    4.9574   11.8014 C   0  0  0  0  0  0  0  0  0  0  0  0
   43.9496    5.2993   12.3819 N   0  0  0  0  0  0  0  0  0  0  0  0
   44.9670    4.2519   12.1722 C   0  0  1  0  0  0  0  0  0  0  0  0
   45.4339    4.4459   10.7266 C   0  0  0  0  0  0  0  0  0  0  0  0
   45.1725    5.9186   10.4354 C   0  0  0  0  0  0  0  0  0  0  0  0
   44.5704    6.4693   11.7343 C   0  0  2  0  0  0  0  0  0  0  0  0
   45.6739    6.9997   12.6673 C   0  0  0  0  0  0  0  0  0  0  0  0
   46.1926    5.9523   13.6659 C   0  0  1  0  0  0  0  0  0  0  0  0
   46.1237    4.5042   13.1568 C   0  0  0  0  0  0  0  0  0  0  0  0
   47.5528    6.3042   13.9963 O   0  0  0  0  0  0  0  0  0  0  0  0
   48.0488    5.8414   15.1759 C   0  0  0  0  0  0  0  0  0  0  0  0
   47.4425    5.1120   15.9521 O   0  0  0  0  0  0  0  0  0  0  0  0
   49.4949    6.2756   15.3746 C   0  0  2  0  0  0  0  0  0  0  0  0
   49.9361    5.9734   16.8140 C   0  0  0  0  0  0  0  0  0  0  0  0
   50.0350    4.5668   17.0361 O   0  0  0  0  0  0  0  0  0  0  0  0
   49.7306    7.7394   15.0311 C   0  0  0  0  0  0  0  0  0  0  0  0
   49.0622    8.7693   15.7158 C   0  0  0  0  0  0  0  0  0  0  0  0
   49.2841   10.1050   15.3765 C   0  0  0  0  0  0  0  0  0  0  0  0
   50.1735   10.4276   14.3514 C   0  0  0  0  0  0  0  0  0  0  0  0
   50.8450    9.4159   13.6655 C   0  0  0  0  0  0  0  0  0  0  0  0
   50.6246    8.0795   14.0013 C   0  0  0  0  0  0  0  0  0  0  0  0
   47.4896    6.3340   13.0856 S   0  0  0  0  0  0  0  0  0  0  0  0
   46.9843    6.6316   11.7696 O   0  0  0  0  0  0  0  0  0  0  0  0
   46.4356    5.3305   13.7606 O   0  0  0  0  0  0  0  0  0  0  0  0
   47.3089    7.6370   14.0051 O   0  0  0  0  0  0  0  0  0  0  0  0
   48.8183    5.8384   13.3423 O   0  0  0  0  0  0  0  0  0  0  0  0
   47.4346    6.3130   13.1183 O   0  0  0  0  0  0  0  0  0  0  0  0
   47.4404    6.3159   13.1210 O   0  0  0  0  0  0  0  0  0  0  0  0
   44.4029    3.1528    9.8060 H   0  0  0  0  0  0  0  0  0  0  0  0
   43.7170    4.6432    9.1689 H   0  0  0  0  0  0  0  0  0  0  0  0
   42.8839    3.7767   10.4704 H   0  0  0  0  0  0  0  0  0  0  0  0
   43.4743    6.6063   10.6916 H   0  0  0  0  0  0  0  0  0  0  0  0
   42.0269    5.3563   12.0970 H   0  0  0  0  0  0  0  0  0  0  0  0
   42.8181    6.3173   13.3477 H   0  0  0  0  0  0  0  0  0  0  0  0
   42.9277    3.4619   12.9167 H   0  0  0  0  0  0  0  0  0  0  0  0
   43.7770    4.3555   14.1825 H   0  0  0  0  0  0  0  0  0  0  0  0
   45.1409    3.0595   12.1619 H   0  0  0  0  0  0  0  0  0  0  0  0
   45.9773    4.7676   14.1042 H   0  0  0  0  0  0  0  0  0  0  0  0
   47.0078    4.2354   12.7995 H   0  0  0  0  0  0  0  0  0  0  0  0
   46.9949    6.2288   11.6644 H   0  0  0  0  0  0  0  0  0  0  0  0
   45.3449    7.7482   11.3823 H   0  0  0  0  0  0  0  0  0  0  0  0
   44.6339    7.5556   12.9663 H   0  0  0  0  0  0  0  0  0  0  0  0
   48.3921    7.4050   15.7457 H   0  0  0  0  0  0  0  0  0  0  0  0
   48.0633    9.4792   13.5871 H   0  0  0  0  0  0  0  0  0  0  0  0
   49.0374   10.0193   14.9557 H   0  0  0  0  0  0  0  0  0  0  0  0
   47.3820    9.4792   16.3492 H   0  0  0  0  0  0  0  0  0  0  0  0
   50.3180    7.0307   16.9881 H   0  0  0  0  0  0  0  0  0  0  0  0
   52.7689    7.0790   17.2495 H   0  0  0  0  0  0  0  0  0  0  0  0
   54.2108    7.8895   15.4020 H   0  0  0  0  0  0  0  0  0  0  0  0
   53.1893    8.6506   13.2738 H   0  0  0  0  0  0  0  0  0  0  0  0
   50.7461    8.6041   12.9798 H   0  0  0  0  0  0  0  0  0  0  0  0
   41.9285    5.7535   12.0098 H   0  0  0  0  0  0  0  0  0  0  0  0
   42.2589    4.0454   12.2660 H   0  0  0  0  0  0  0  0  0  0  0  0
   42.6769    4.8013   10.7178 H   0  0  0  0  0  0  0  0  0  0  0  0
   44.5822    3.2371   12.3290 H   0  0  0  0  0  0  0  0  0  0  0  0
   44.8416    3.8264   10.0427 H   0  0  0  0  0  0  0  0  0  0  0  0
   46.4860    4.1841   10.5740 H   0  0  0  0  0  0  0  0  0  0  0  0
   46.0858    6.4367   10.1244 H   0  0  0  0  0  0  0  0  0  0  0  0
   44.4539    6.0034    9.6108 H   0  0  0  0  0  0  0  0  0  0  0  0
   43.8612    7.2800   11.5252 H   0  0  0  0  0  0  0  0  0  0  0  0
   46.5015    7.4337   12.0905 H   0  0  0  0  0  0  0  0  0  0  0  0
   45.2702    7.8368   13.2545 H   0  0  0  0  0  0  0  0  0  0  0  0
   45.5770    6.0381   14.5716 H   0  0  0  0  0  0  0  0  0  0  0  0
   47.0855    4.2017   12.7251 H   0  0  0  0  0  0  0  0  0  0  0  0
   45.9800    3.8544   14.0311 H   0  0  0  0  0  0  0  0  0  0  0  0
   50.0793    5.6357   14.6985 H   0  0  0  0  0  0  0  0  0  0  0  0
   50.9288    6.3944   17.0079 H   0  0  0  0  0  0  0  0  0  0  0  0
   49.2483    6.3905   17.5583 H   0  0  0  0  0  0  0  0  0  0  0  0
   49.1184    4.2210   17.0296 H   0  0  0  0  0  0  0  0  0  0  0  0
   48.3589    8.5427   16.5161 H   0  0  0  0  0  0  0  0  0  0  0  0
   48.7616   10.8969   15.9096 H   0  0  0  0  0  0  0  0  0  0  0  0
   50.3474   11.4687   14.0924 H   0  0  0  0  0  0  0  0  0  0  0  0
   51.5416    9.6678   12.8715 H   0  0  0  0  0  0  0  0  0  0  0  0
   51.1544    7.3025   13.4516 H   0  0  0  0  0  0  0  0  0  0  0  0
   45.5684    5.4925   13.3317 H   0  0  0  0  0  0  0  0  0  0  0  0
   47.9045    7.5276   14.7765 H   0  0  0  0  0  0  0  0  0  0  0  0
   46.4969    6.1199   13.2690 H   0  0  0  0  0  0  0  0  0  0  0  0
   47.7155    6.7636   13.9291 H   0  0  0  0  0  0  0  0  0  0  0  0
   46.5019    6.1158   13.2571 H   0  0  0  0  0  0  0  0  0  0  0  0
   47.7048    6.7648   13.9382 H   0  0  0  0  0  0  0  0  0  0  0  0
  1  2  1  0
  3  2  1  0
  3  4  1  0
  4  5  1  0
  6  5  1  0
  6  2  1  0
  6  7  1  0
  7  8  1  0
  8  9  1  0
  3  9  1  0
  8 10  1  0
 10 11  1  0
 11 12  2  0
 11 13  1  0
 13 14  1  0
 14 15  1  0
 13 16  1  0
 16 17  2  0
 17 18  1  0
 18 19  2  0
 19 20  1  0
 20 21  2  0
 16 21  1  0
 22 23  1  0
 24 23  1  0
 24 25  1  0
 25 26  1  0
 27 26  1  0
 27 23  1  0
 27 28  1  0
 28 29  1  0
 29 30  1  0
 24 30  1  0
 29 31  1  0
 31 32  1  0
 32 33  2  0
 32 34  1  0
 34 35  1  0
 35 36  1  0
 34 37  1  0
 37 38  2  0
 38 39  1  0
 39 40  2  0
 40 41  1  0
 41 42  2  0
 37 42  1  0
 43 44  2  0
 43 45  1  0
 43 46  1  0
 43 47  2  0
  1 50  1  0
  1 51  1  0
  1 52  1  0
  3 53  1  1
  4 54  1  0
  4 55  1  0
  5 56  1  0
  5 57  1  0
  6 58  1  6
  7 59  1  0
  7 60  1  0
  8 61  1  1
  9 62  1  0
  9 63  1  0
 13 64  1  6
 14 65  1  0
 14 66  1  0
 15 67  1  0
 17 68  1  0
 18 69  1  0
 19 70  1  0
 20 71  1  0
 21 72  1  0
 22 73  1  0
 22 74  1  0
 22 75  1  0
 24 76  1  6
 25 77  1  0
 25 78  1  0
 26 79  1  0
 26 80  1  0
 27 81  1  1
 28 82  1  0
 28 83  1  0
 29 84  1  6
 30 85  1  0
 30 86  1  0
 34 87  1  6
 35 88  1  0
 35 89  1  0
 36 90  1  0
 38 91  1  0
 39 92  1  0
 40 93  1  0
 41 94  1  0
 42 95  1  0
 45 96  1  0
 46 97  1  0
 48 98  1  0
 48 99  1  0
 49100  1  0
 49101  1  0
M  END
> <Uni-Dock RESULT> 
ENERGY=   -6.288  LOWER_BOUND=    1.169  UPPER_BOUND=    1.445
INTER + INTRA:          -6.288
INTER:                  -6.288
INTRA:                   0.000
UNBOUND:                 0.000

$$$$

     RDKit          3D

101102  0  0  0  0  0  0  0  0999 V2000
   47.9138    7.9947   12.2336 C   0  0  0  0  0  0  0  0  0  0  0  0
   48.3490    7.9348   13.6263 N   0  0  0  0  0  0  0  0  0  0  0  0
   49.8080    7.7723   13.7682 C   0  0  1  0  0  0  0  0  0  0  0  0
   50.3778    9.1752   13.5318 C   0  0  0  0  0  0  0  0  0  0  0  0
   49.2508   10.1190   13.9354 C   0  0  0  0  0  0  0  0  0  0  0  0
   48.1034    9.1928   14.3582 C   0  0  2  0  0  0  0  0  0  0  0  0
   48.1725    8.8834   15.8662 C   0  0  0  0  0  0  0  0  0  0  0  0
   48.9524    7.5981   16.1883 C   0  0  1  0  0  0  0  0  0  0  0  0
   50.0984    7.3013   15.2059 C   0  0  0  0  0  0  0  0  0  0  0  0
   49.5167    7.6748   17.5145 O   0  0  0  0  0  0  0  0  0  0  0  0
   48.7028    7.3310   18.5558 C   0  0  0  0  0  0  0  0  0  0  0  0
   47.5224    7.0309   18.4368 O   0  0  0  0  0  0  0  0  0  0  0  0
   49.4695    7.4305   19.8744 C   0  0  2  0  0  0  0  0  0  0  0  0
   50.7732    6.6127   19.8067 C   0  0  0  0  0  0  0  0  0  0  0  0
   51.8881    7.4439   19.4730 O   0  0  0  0  0  0  0  0  0  0  0  0
   48.6412    7.0028   21.0819 C   0  0  0  0  0  0  0  0  0  0  0  0
   48.3803    7.9169   22.1145 C   0  0  0  0  0  0  0  0  0  0  0  0
   47.6537    7.5277   23.2422 C   0  0  0  0  0  0  0  0  0  0  0  0
   47.1764    6.2224   23.3496 C   0  0  0  0  0  0  0  0  0  0  0  0
   47.4225    5.3048   22.3299 C   0  0  0  0  0  0  0  0  0  0  0  0
   48.1503    5.6907   21.2030 C   0  0  0  0  0  0  0  0  0  0  0  0
   49.8549    9.1245   12.6355 C   0  0  0  0  0  0  0  0  0  0  0  0
   49.5598    8.8846   14.0466 N   0  0  0  0  0  0  0  0  0  0  0  0
   48.1234    9.0023   14.3612 C   0  0  1  0  0  0  0  0  0  0  0  0
   47.5116    7.6798   13.8898 C   0  0  0  0  0  0  0  0  0  0  0  0
   48.6611    6.6818   13.9574 C   0  0  0  0  0  0  0  0  0  0  0  0
   49.8561    7.5011   14.4610 C   0  0  2  0  0  0  0  0  0  0  0  0
   49.9317    7.4708   15.9981 C   0  0  0  0  0  0  0  0  0  0  0  0
   49.1899    8.6349   16.6747 C   0  0  1  0  0  0  0  0  0  0  0  0
   47.9785    9.1566   15.8864 C   0  0  0  0  0  0  0  0  0  0  0  0
   48.7815    8.1865   17.9843 O   0  0  0  0  0  0  0  0  0  0  0  0
   48.5494    9.1401   18.9269 C   0  0  0  0  0  0  0  0  0  0  0  0
   48.6165   10.3481   18.7317 O   0  0  0  0  0  0  0  0  0  0  0  0
   48.1086    8.5173   20.2449 C   0  0  2  0  0  0  0  0  0  0  0  0
   48.1154    9.5816   21.3517 C   0  0  0  0  0  0  0  0  0  0  0  0
   47.0852   10.5472   21.1418 O   0  0  0  0  0  0  0  0  0  0  0  0
   48.9480    7.3127   20.6456 C   0  0  0  0  0  0  0  0  0  0  0  0
   50.3309    7.4259   20.8709 C   0  0  0  0  0  0  0  0  0  0  0  0
   51.0843    6.3057   21.2260 C   0  0  0  0  0  0  0  0  0  0  0  0
   50.4672    5.0617   21.3594 C   0  0  0  0  0  0  0  0  0  0  0  0
   49.0956    4.9357   21.1409 C   0  0  0  0  0  0  0  0  0  0  0  0
   48.3397    6.0533   20.7847 C   0  0  0  0  0  0  0  0  0  0  0  0
   48.5327    7.5338   17.3958 S   0  0  0  0  0  0  0  0  0  0  0  0
   48.6009    6.5837   16.3149 O   0  0  0  0  0  0  0  0  0  0  0  0
   48.6188    8.9894   16.7272 O   0  0  0  0  0  0  0  0  0  0  0  0
   49.9180    7.4824   18.2047 O   0  0  0  0  0  0  0  0  0  0  0  0
   47.4859    7.5492   18.3863 O   0  0  0  0  0  0  0  0  0  0  0  0
   48.5597    7.5892   17.3687 O   0  0  0  0  0  0  0  0  0  0  0  0
   48.5594    7.5874   17.3755 O   0  0  0  0  0  0  0  0  0  0  0  0
   46.8301    8.1492   12.1876 H   0  0  0  0  0  0  0  0  0  0  0  0
   48.1203    7.0399   11.7374 H   0  0  0  0  0  0  0  0  0  0  0  0
   48.3928    8.7883   11.6515 H   0  0  0  0  0  0  0  0  0  0  0  0
   50.2366    7.0512   13.0609 H   0  0  0  0  0  0  0  0  0  0  0  0
   50.6118    9.3189   12.4699 H   0  0  0  0  0  0  0  0  0  0  0  0
   51.2950    9.3701   14.0960 H   0  0  0  0  0  0  0  0  0  0  0  0
   48.9586   10.7260   13.0695 H   0  0  0  0  0  0  0  0  0  0  0  0
   49.5634   10.8079   14.7276 H   0  0  0  0  0  0  0  0  0  0  0  0
   47.1313    9.6460   14.1299 H   0  0  0  0  0  0  0  0  0  0  0  0
   48.5788    9.7341   16.4291 H   0  0  0  0  0  0  0  0  0  0  0  0
   47.1492    8.7494   16.2442 H   0  0  0  0  0  0  0  0  0  0  0  0
   48.2591    6.7446   16.1396 H   0  0  0  0  0  0  0  0  0  0  0  0
   50.2451    6.2119   15.2000 H   0  0  0  0  0  0  0  0  0  0  0  0
   51.0450    7.7190   15.5750 H   0  0  0  0  0  0  0  0  0  0  0  0
   49.7096    8.4970   19.9890 H   0  0  0  0  0  0  0  0  0  0  0  0
   50.7160    5.8163   19.0561 H   0  0  0  0  0  0  0  0  0  0  0  0
   51.0202    6.1397   20.7638 H   0  0  0  0  0  0  0  0  0  0  0  0
   52.0399    8.0478   20.2224 H   0  0  0  0  0  0  0  0  0  0  0  0
   48.7425    8.9419   22.0528 H   0  0  0  0  0  0  0  0  0  0  0  0
   47.4573    8.2427   24.0370 H   0  0  0  0  0  0  0  0  0  0  0  0
   46.6086    5.9204   24.2263 H   0  0  0  0  0  0  0  0  0  0  0  0
   47.0450    4.2884   22.4102 H   0  0  0  0  0  0  0  0  0  0  0  0
   48.3161    4.9604   20.4125 H   0  0  0  0  0  0  0  0  0  0  0  0
   50.9350    9.0533   12.4622 H   0  0  0  0  0  0  0  0  0  0  0  0
   49.5585   10.1424   12.3547 H   0  0  0  0  0  0  0  0  0  0  0  0
   49.3589    8.4274   11.9519 H   0  0  0  0  0  0  0  0  0  0  0  0
   47.6413    9.8562   13.8706 H   0  0  0  0  0  0  0  0  0  0  0  0
   47.1596    7.7639   12.8548 H   0  0  0  0  0  0  0  0  0  0  0  0
   46.6600    7.3573   14.4977 H   0  0  0  0  0  0  0  0  0  0  0  0
   48.4171    5.8279   14.5982 H   0  0  0  0  0  0  0  0  0  0  0  0
   48.8592    6.2881   12.9528 H   0  0  0  0  0  0  0  0  0  0  0  0
   50.7976    7.1147   14.0507 H   0  0  0  0  0  0  0  0  0  0  0  0
   49.5846    6.5054   16.3899 H   0  0  0  0  0  0  0  0  0  0  0  0
   50.9859    7.5360   16.3030 H   0  0  0  0  0  0  0  0  0  0  0  0
   49.9136    9.4529   16.7927 H   0  0  0  0  0  0  0  0  0  0  0  0
   47.0543    8.6886   16.2467 H   0  0  0  0  0  0  0  0  0  0  0  0
   47.8720   10.2257   16.1161 H   0  0  0  0  0  0  0  0  0  0  0  0
   47.0674    8.2068   20.0783 H   0  0  0  0  0  0  0  0  0  0  0  0
   47.9237    9.1221   22.3276 H   0  0  0  0  0  0  0  0  0  0  0  0
   49.0729   10.1106   21.4170 H   0  0  0  0  0  0  0  0  0  0  0  0
   47.3524   11.0702   20.3578 H   0  0  0  0  0  0  0  0  0  0  0  0
   50.8366    8.3852   20.7677 H   0  0  0  0  0  0  0  0  0  0  0  0
   52.1548    6.4005   21.3969 H   0  0  0  0  0  0  0  0  0  0  0  0
   51.0557    4.1922   21.6401 H   0  0  0  0  0  0  0  0  0  0  0  0
   48.6148    3.9682   21.2506 H   0  0  0  0  0  0  0  0  0  0  0  0
   47.2705    5.9350   20.6136 H   0  0  0  0  0  0  0  0  0  0  0  0
   49.0934    8.8872   15.8748 H   0  0  0  0  0  0  0  0  0  0  0  0
   49.7543    7.8955   19.0789 H   0  0  0  0  0  0  0  0  0  0  0  0
   49.0059    8.1419   16.7094 H   0  0  0  0  0  0  0  0  0  0  0  0
   49.0076    7.8066   18.2003 H   0  0  0  0  0  0  0  0  0  0  0  0
   48.9960    8.1340   16.7047 H   0  0  0  0  0  0  0  0  0  0  0  0
   49.0177    7.8162   18.1982 H   0  0  0  0  0  0  0  0  0  0  0  0
  1  2  1  0
  3  2  1  0
  3  4  1  0
  4  5  1  0
  6  5  1  0
  6  2  1  0
  6  7  1  0
  7  8  1  0
  8  9  1  0
  3  9  1  0
  8 10  1  0
 10 11  1  0
 11 12  2  0
 11 13  1  0
 13 14  1  0
 14 15  1  0
 13 16  1  0
 16 17  2  0
 17 18  1  0
 18 19  2  0
 19 20  1  0
 20 21  2  0
 16 21  1  0
 22 23  1  0
 24 23  1  0
 24 25  1  0
 25 26  1  0
 27 26  1  0
 27 23  1  0
 27 28  1  0
 28 29  1  0
 29 30  1  0
 24 30  1  0
 29 31  1  0
 31 32  1  0
 32 33  2  0
 32 34  1  0
 34 35  1  0
 35 36  1  0
 34 37  1  0
 37 38  2  0
 38 39  1  0
 39 40  2  0
 40 41  1  0
 41 42  2  0
 37 42  1  0
 43 44  2  0
 43 45  1  0
 43 46  1  0
 43 47  2  0
  1 50  1  0
  1 51  1  0
  1 52  1  0
  3 53  1  1
  4 54  1  0
  4 55  1  0
  5 56  1  0
  5 57  1  0
  6 58  1  6
  7 59  1  0
  7 60  1  0
  8 61  1  1
  9 62  1  0
  9 63  1  0
 13 64  1  6
 14 65  1  0
 14 66  1  0
 15 67  1  0
 17 68  1  0
 18 69  1  0
 19 70  1  0
 20 71  1  0
 21 72  1  0
 22 73  1  0
 22 74  1  0
 22 75  1  0
 24 76  1  6
 25 77  1  0
 25 78  1  0
 26 79  1  0
 26 80  1  0
 27 81  1  1
 28 82  1  0
 28 83  1  0
 29 84  1  6
 30 85  1  0
 30 86  1  0
 34 87  1  6
 35 88  1  0
 35 89  1  0
 36 90  1  0
 38 91  1  0
 39 92  1  0
 40 93  1  0
 41 94  1  0
 42 95  1  0
 45 96  1  0
 46 97  1  0
 48 98  1  0
 48 99  1  0
 49100  1  0
 49101  1  0
M  END
> <Uni-Dock RESULT> 
ENERGY=   -5.361  LOWER_BOUND=    4.290  UPPER_BOUND=    7.280
INTER + INTRA:          -5.361
INTER:                  -5.361
INTRA:                   0.000
UNBOUND:                 0.000

$$$$

     RDKit          3D

101102  0  0  0  0  0  0  0  0999 V2000
   50.4349    5.4263   20.1203 C   0  0  0  0  0  0  0  0  0  0  0  0
   50.2631    5.9586   18.7713 N   0  0  0  0  0  0  0  0  0  0  0  0
   51.3747    5.6088   17.8672 C   0  0  1  0  0  0  0  0  0  0  0  0
   51.0949    4.1599   17.4537 C   0  0  0  0  0  0  0  0  0  0  0  0
   49.5827    4.0119   17.5768 C   0  0  0  0  0  0  0  0  0  0  0  0
   49.0991    5.3811   18.0712 C   0  0  2  0  0  0  0  0  0  0  0  0
   48.7544    6.3043   16.8865 C   0  0  0  0  0  0  0  0  0  0  0  0
   49.9291    7.1933   16.4464 C   0  0  1  0  0  0  0  0  0  0  0  0
   51.3102    6.5461   16.6464 C   0  0  0  0  0  0  0  0  0  0  0  0
   49.8005    7.5368   15.0504 O   0  0  0  0  0  0  0  0  0  0  0  0
   49.0015    8.6012   14.7445 C   0  0  0  0  0  0  0  0  0  0  0  0
   48.3463    9.2286   15.5659 O   0  0  0  0  0  0  0  0  0  0  0  0
   49.0121    8.8470   13.2359 C   0  0  2  0  0  0  0  0  0  0  0  0
   50.4567    8.9838   12.7188 C   0  0  0  0  0  0  0  0  0  0  0  0
   50.9362    7.7444   12.1904 O   0  0  0  0  0  0  0  0  0  0  0  0
   48.1869   10.0614   12.8218 C   0  0  0  0  0  0  0  0  0  0  0  0
   47.0914    9.9053   11.9585 C   0  0  0  0  0  0  0  0  0  0  0  0
   46.3495   11.0135   11.5432 C   0  0  0  0  0  0  0  0  0  0  0  0
   46.6911   12.2896   11.9883 C   0  0  0  0  0  0  0  0  0  0  0  0
   47.7728   12.4600   12.8503 C   0  0  0  0  0  0  0  0  0  0  0  0
   48.5172   11.3543   13.2649 C   0  0  0  0  0  0  0  0  0  0  0  0
   51.0770    3.9798   18.4767 C   0  0  0  0  0  0  0  0  0  0  0  0
   50.4618    4.9385   17.5611 N   0  0  0  0  0  0  0  0  0  0  0  0
   49.2197    5.5279   18.0958 C   0  0  1  0  0  0  0  0  0  0  0  0
   49.6906    6.5992   19.0838 C   0  0  0  0  0  0  0  0  0  0  0  0
   51.0718    7.0011   18.5814 C   0  0  0  0  0  0  0  0  0  0  0  0
   51.3009    6.1303   17.3396 C   0  0  2  0  0  0  0  0  0  0  0  0
   50.7932    6.8405   16.0719 C   0  0  0  0  0  0  0  0  0  0  0  0
   49.3376    6.4984   15.7148 C   0  0  1  0  0  0  0  0  0  0  0  0
   48.4505    6.1669   16.9249 C   0  0  0  0  0  0  0  0  0  0  0  0
   48.7946    7.6197   14.9862 O   0  0  0  0  0  0  0  0  0  0  0  0
   47.7320    7.3792   14.1708 C   0  0  0  0  0  0  0  0  0  0  0  0
   47.1763    6.2940   14.0470 O   0  0  0  0  0  0  0  0  0  0  0  0
   47.2599    8.6565   13.4888 C   0  0  2  0  0  0  0  0  0  0  0  0
   46.2489    8.3140   12.3849 C   0  0  0  0  0  0  0  0  0  0  0  0
   45.0273    7.8273   12.9404 O   0  0  0  0  0  0  0  0  0  0  0  0
   48.4033    9.4951   12.9360 C   0  0  0  0  0  0  0  0  0  0  0  0
   49.2724    8.9913   11.9527 C   0  0  0  0  0  0  0  0  0  0  0  0
   50.3223    9.7732   11.4681 C   0  0  0  0  0  0  0  0  0  0  0  0
   50.5168   11.0644   11.9589 C   0  0  0  0  0  0  0  0  0  0  0  0
   49.6606   11.5775   12.9329 C   0  0  0  0  0  0  0  0  0  0  0  0
   48.6108   10.7981   13.4204 C   0  0  0  0  0  0  0  0  0  0  0  0
   49.2004    7.9632   15.7289 S   0  0  0  0  0  0  0  0  0  0  0  0
   50.1926    8.1978   16.7468 O   0  0  0  0  0  0  0  0  0  0  0  0
   48.6982    6.4521   15.9238 O   0  0  0  0  0  0  0  0  0  0  0  0
   49.9434    7.8617   14.3099 O   0  0  0  0  0  0  0  0  0  0  0  0
   48.0473    8.8029   15.5230 O   0  0  0  0  0  0  0  0  0  0  0  0
   49.1994    7.8960   15.7243 O   0  0  0  0  0  0  0  0  0  0  0  0
   49.1976    7.9007   15.7194 O   0  0  0  0  0  0  0  0  0  0  0  0
   49.5679    5.6867   20.7374 H   0  0  0  0  0  0  0  0  0  0  0  0
   51.3108    5.8847   20.5928 H   0  0  0  0  0  0  0  0  0  0  0  0
   50.5613    4.3397   20.1571 H   0  0  0  0  0  0  0  0  0  0  0  0
   52.3623    5.6984   18.3366 H   0  0  0  0  0  0  0  0  0  0  0  0
   51.5873    3.4636   18.1434 H   0  0  0  0  0  0  0  0  0  0  0  0
   51.4474    3.9223   16.4453 H   0  0  0  0  0  0  0  0  0  0  0  0
   49.3536    3.2318   18.3134 H   0  0  0  0  0  0  0  0  0  0  0  0
   49.1266    3.7102   16.6277 H   0  0  0  0  0  0  0  0  0  0  0  0
   48.2152    5.2753   18.7115 H   0  0  0  0  0  0  0  0  0  0  0  0
   48.3629    5.7310   16.0357 H   0  0  0  0  0  0  0  0  0  0  0  0
   47.9338    6.9704   17.1878 H   0  0  0  0  0  0  0  0  0  0  0  0
   49.9168    8.1152   17.0477 H   0  0  0  0  0  0  0  0  0  0  0  0
   52.0325    7.3626   16.7869 H   0  0  0  0  0  0  0  0  0  0  0  0
   51.6328    6.0280   15.7330 H   0  0  0  0  0  0  0  0  0  0  0  0
   48.5462    7.9545   12.7947 H   0  0  0  0  0  0  0  0  0  0  0  0
   51.1455    9.2955   13.5121 H   0  0  0  0  0  0  0  0  0  0  0  0
   50.5429    9.7156   11.9078 H   0  0  0  0  0  0  0  0  0  0  0  0
   50.4256    7.5511   11.3834 H   0  0  0  0  0  0  0  0  0  0  0  0
   46.8052    8.9184   11.5979 H   0  0  0  0  0  0  0  0  0  0  0  0
   45.5030   10.8826   10.8739 H   0  0  0  0  0  0  0  0  0  0  0  0
   46.1119   13.1518   11.6669 H   0  0  0  0  0  0  0  0  0  0  0  0
   48.0358   13.4543   13.2029 H   0  0  0  0  0  0  0  0  0  0  0  0
   49.3480   11.5110   13.9511 H   0  0  0  0  0  0  0  0  0  0  0  0
   51.9774    3.5522   18.0206 H   0  0  0  0  0  0  0  0  0  0  0  0
   50.3929    3.1435   18.6646 H   0  0  0  0  0  0  0  0  0  0  0  0
   51.3617    4.4073   19.4439 H   0  0  0  0  0  0  0  0  0  0  0  0
   48.5703    4.7951   18.5894 H   0  0  0  0  0  0  0  0  0  0  0  0
   49.7751    6.1825   20.0944 H   0  0  0  0  0  0  0  0  0  0  0  0
   49.0154    7.4592   19.1419 H   0  0  0  0  0  0  0  0  0  0  0  0
   51.1301    8.0755   18.3772 H   0  0  0  0  0  0  0  0  0  0  0  0
   51.8182    6.7761   19.3533 H   0  0  0  0  0  0  0  0  0  0  0  0
   52.3659    5.8974   17.2147 H   0  0  0  0  0  0  0  0  0  0  0  0
   50.9322    7.9273   16.1476 H   0  0  0  0  0  0  0  0  0  0  0  0
   51.4173    6.5353   15.2199 H   0  0  0  0  0  0  0  0  0  0  0  0
   49.3660    5.6260   15.0480 H   0  0  0  0  0  0  0  0  0  0  0  0
   47.8973    7.0559   17.2516 H   0  0  0  0  0  0  0  0  0  0  0  0
   47.6846    5.4556   16.5865 H   0  0  0  0  0  0  0  0  0  0  0  0
   46.7309    9.2180   14.2718 H   0  0  0  0  0  0  0  0  0  0  0  0
   45.9975    9.2080   11.8035 H   0  0  0  0  0  0  0  0  0  0  0  0
   46.6317    7.5614   11.6863 H   0  0  0  0  0  0  0  0  0  0  0  0
   45.2261    6.9433   13.3127 H   0  0  0  0  0  0  0  0  0  0  0  0
   49.1445    7.9842   11.5577 H   0  0  0  0  0  0  0  0  0  0  0  0
   50.9923    9.3758   10.7083 H   0  0  0  0  0  0  0  0  0  0  0  0
   51.3325   11.6724   11.5766 H   0  0  0  0  0  0  0  0  0  0  0  0
   49.8089   12.5848   13.3104 H   0  0  0  0  0  0  0  0  0  0  0  0
   47.9549   11.2137   14.1843 H   0  0  0  0  0  0  0  0  0  0  0  0
   49.4268    5.9604   16.3594 H   0  0  0  0  0  0  0  0  0  0  0  0
   49.2607    7.9976   13.6191 H   0  0  0  0  0  0  0  0  0  0  0  0
   49.4661    6.9791   15.8898 H   0  0  0  0  0  0  0  0  0  0  0  0
   49.0929    7.9402   14.7619 H   0  0  0  0  0  0  0  0  0  0  0  0
   49.4650    6.9870   15.9007 H   0  0  0  0  0  0  0  0  0  0  0  0
   49.0957    7.9277   14.7560 H   0  0  0  0  0  0  0  0  0  0  0  0
  1  2  1  0
  3  2  1  0
  3  4  1  0
  4  5  1  0
  6  5  1  0
  6  2  1  0
  6  7  1  0
  7  8  1  0
  8  9  1  0
  3  9  1  0
  8 10  1  0
 10 11  1  0
 11 12  2  0
 11 13  1  0
 13 14  1  0
 14 15  1  0
 13 16  1  0
 16 17  2  0
 17 18  1  0
 18 19  2  0
 19 20  1  0
 20 21  2  0
 16 21  1  0
 22 23  1  0
 24 23  1  0
 24 25  1  0
 25 26  1  0
 27 26  1  0
 27 23  1  0
 27 28  1  0
 28 29  1  0
 29 30  1  0
 24 30  1  0
 29 31  1  0
 31 32  1  0
 32 33  2  0
 32 34  1  0
 34 35  1  0
 35 36  1  0
 34 37  1  0
 37 38  2  0
 38 39  1  0
 39 40  2  0
 40 41  1  0
 41 42  2  0
 37 42  1  0
 43 44  2  0
 43 45  1  0
 43 46  1  0
 43 47  2  0
  1 50  1  0
  1 51  1  0
  1 52  1  0
  3 53  1  1
  4 54  1  0
  4 55  1  0
  5 56  1  0
  5 57  1  0
  6 58  1  6
  7 59  1  0
  7 60  1  0
  8 61  1  1
  9 62  1  0
  9 63  1  0
 13 64  1  6
 14 65  1  0
 14 66  1  0
 15 67  1  0
 17 68  1  0
 18 69  1  0
 19 70  1  0
 20 71  1  0
 21 72  1  0
 22 73  1  0
 22 74  1  0
 22 75  1  0
 24 76  1  6
 25 77  1  0
 25 78  1  0
 26 79  1  0
 26 80  1  0
 27 81  1  1
 28 82  1  0
 28 83  1  0
 29 84  1  6
 30 85  1  0
 30 86  1  0
 34 87  1  6
 35 88  1  0
 35 89  1  0
 36 90  1  0
 38 91  1  0
 39 92  1  0
 40 93  1  0
 41 94  1  0
 42 95  1  0
 45 96  1  0
 46 97  1  0
 48 98  1  0
 48 99  1  0
 49100  1  0
 49101  1  0
M  END
> <Uni-Dock RESULT> 
ENERGY=   -5.032  LOWER_BOUND=    3.116  UPPER_BOUND=    5.994
INTER + INTRA:          -5.032
INTER:                  -5.032
INTRA:                   0.000
UNBOUND:                 0.000

$$$$

     RDKit          3D

101102  0  0  0  0  0  0  0  0999 V2000
   49.1021    9.6072   21.7206 C   0  0  0  0  0  0  0  0  0  0  0  0
   48.8716    9.6131   20.2785 N   0  0  0  0  0  0  0  0  0  0  0  0
   47.5372    9.1075   19.9056 C   0  0  1  0  0  0  0  0  0  0  0  0
   46.5898   10.2812   20.1765 C   0  0  0  0  0  0  0  0  0  0  0  0
   47.4649   11.5209   20.0312 C   0  0  0  0  0  0  0  0  0  0  0  0
   48.8603   10.9732   19.7054 C   0  0  2  0  0  0  0  0  0  0  0  0
   49.0604   10.8461   18.1827 C   0  0  0  0  0  0  0  0  0  0  0  0
   48.6964    9.4561   17.6354 C   0  0  1  0  0  0  0  0  0  0  0  0
   47.5602    8.7609   18.4049 C   0  0  0  0  0  0  0  0  0  0  0  0
   48.2980    9.5524   16.2515 O   0  0  0  0  0  0  0  0  0  0  0  0
   49.2946    9.5566   15.3179 C   0  0  0  0  0  0  0  0  0  0  0  0
   50.4887    9.5509   15.5857 O   0  0  0  0  0  0  0  0  0  0  0  0
   48.6957    9.6228   13.9132 C   0  0  2  0  0  0  0  0  0  0  0  0
   47.6589    8.5013   13.7123 C   0  0  0  0  0  0  0  0  0  0  0  0
   46.3307    8.9771   13.9469 O   0  0  0  0  0  0  0  0  0  0  0  0
   49.7487    9.5707   12.8107 C   0  0  0  0  0  0  0  0  0  0  0  0
   49.8802   10.6419   11.9134 C   0  0  0  0  0  0  0  0  0  0  0  0
   50.8160   10.5913   10.8777 C   0  0  0  0  0  0  0  0  0  0  0  0
   51.6333    9.4719   10.7285 C   0  0  0  0  0  0  0  0  0  0  0  0
   51.5184    8.4027   11.6149 C   0  0  0  0  0  0  0  0  0  0  0  0
   50.5824    8.4499   12.6494 C   0  0  0  0  0  0  0  0  0  0  0  0
   46.9941   10.2529   21.1331 C   0  0  0  0  0  0  0  0  0  0  0  0
   47.5120   10.2721   19.7666 N   0  0  0  0  0  0  0  0  0  0  0  0
   48.8924   10.7857   19.6826 C   0  0  1  0  0  0  0  0  0  0  0  0
   49.7723    9.6118   20.1221 C   0  0  0  0  0  0  0  0  0  0  0  0
   48.9474    8.3730   19.7953 C   0  0  0  0  0  0  0  0  0  0  0  0
   47.6478    8.9211   19.1923 C   0  0  2  0  0  0  0  0  0  0  0  0
   47.7708    9.0638   17.6646 C   0  0  0  0  0  0  0  0  0  0  0  0
   48.2523   10.4519   17.2121 C   0  0  1  0  0  0  0  0  0  0  0  0
   49.1755   11.1596   18.2160 C   0  0  0  0  0  0  0  0  0  0  0  0
   48.9218   10.2869   15.9442 O   0  0  0  0  0  0  0  0  0  0  0  0
   49.0043   11.3776   15.1348 C   0  0  0  0  0  0  0  0  0  0  0  0
   48.5945   12.4960   15.4233 O   0  0  0  0  0  0  0  0  0  0  0  0
   49.7524   11.0545   13.8482 C   0  0  2  0  0  0  0  0  0  0  0  0
   49.5970   12.2117   12.8509 C   0  0  0  0  0  0  0  0  0  0  0  0
   50.2991   13.3718   13.2971 O   0  0  0  0  0  0  0  0  0  0  0  0
   49.3196    9.7367   13.2216 C   0  0  0  0  0  0  0  0  0  0  0  0
   47.9946    9.5253   12.8022 C   0  0  0  0  0  0  0  0  0  0  0  0
   47.6161    8.3045   12.2409 C   0  0  0  0  0  0  0  0  0  0  0  0
   48.5538    7.2825   12.0925 C   0  0  0  0  0  0  0  0  0  0  0  0
   49.8722    7.4796   12.5023 C   0  0  0  0  0  0  0  0  0  0  0  0
   50.2537    8.6983   13.0650 C   0  0  0  0  0  0  0  0  0  0  0  0
   49.2619    9.6499   16.5036 S   0  0  0  0  0  0  0  0  0  0  0  0
   49.3183    8.5867   17.4741 O   0  0  0  0  0  0  0  0  0  0  0  0
   48.7103   10.9424   17.2773 O   0  0  0  0  0  0  0  0  0  0  0  0
   48.0497    9.3524   15.4947 O   0  0  0  0  0  0  0  0  0  0  0  0
   50.3793   10.0512   15.6866 O   0  0  0  0  0  0  0  0  0  0  0  0
   49.2181    9.6930   16.5311 O   0  0  0  0  0  0  0  0  0  0  0  0
   49.2196    9.6922   16.5243 O   0  0  0  0  0  0  0  0  0  0  0  0
   50.0915   10.0225   21.9420 H   0  0  0  0  0  0  0  0  0  0  0  0
   49.0987    8.5772   22.0941 H   0  0  0  0  0  0  0  0  0  0  0  0
   48.3617   10.1761   22.2918 H   0  0  0  0  0  0  0  0  0  0  0  0
   47.2334    8.2197   20.4743 H   0  0  0  0  0  0  0  0  0  0  0  0
   46.1984   10.2284   21.1998 H   0  0  0  0  0  0  0  0  0  0  0  0
   45.7296   10.3075   19.5004 H   0  0  0  0  0  0  0  0  0  0  0  0
   47.4771   12.0695   20.9812 H   0  0  0  0  0  0  0  0  0  0  0  0
   47.0790   12.2017   19.2648 H   0  0  0  0  0  0  0  0  0  0  0  0
   49.6412   11.6245   20.1159 H   0  0  0  0  0  0  0  0  0  0  0  0
   48.5138   11.6302   17.6424 H   0  0  0  0  0  0  0  0  0  0  0  0
   50.1205   11.0220   17.9522 H   0  0  0  0  0  0  0  0  0  0  0  0
   49.5808    8.8054   17.7122 H   0  0  0  0  0  0  0  0  0  0  0  0
   47.7095    7.6776   18.2927 H   0  0  0  0  0  0  0  0  0  0  0  0
   46.5887    8.9693   17.9362 H   0  0  0  0  0  0  0  0  0  0  0  0
   48.1958   10.6002   13.8582 H   0  0  0  0  0  0  0  0  0  0  0  0
   47.8344    7.6581   14.3899 H   0  0  0  0  0  0  0  0  0  0  0  0
   47.6654    8.1040   12.6911 H   0  0  0  0  0  0  0  0  0  0  0  0
   46.1159    9.6115   13.2393 H   0  0  0  0  0  0  0  0  0  0  0  0
   49.2533   11.5270   12.0101 H   0  0  0  0  0  0  0  0  0  0  0  0
   50.9101   11.4257   10.1873 H   0  0  0  0  0  0  0  0  0  0  0  0
   52.3635    9.4338    9.9237 H   0  0  0  0  0  0  0  0  0  0  0  0
   52.1600    7.5321   11.5030 H   0  0  0  0  0  0  0  0  0  0  0  0
   50.5223    7.6092   13.3388 H   0  0  0  0  0  0  0  0  0  0  0  0
   45.9592    9.8912   21.1355 H   0  0  0  0  0  0  0  0  0  0  0  0
   46.9720   11.2696   21.5437 H   0  0  0  0  0  0  0  0  0  0  0  0
   47.5708    9.6238   21.8193 H   0  0  0  0  0  0  0  0  0  0  0  0
   49.0659   11.6657   20.3133 H   0  0  0  0  0  0  0  0  0  0  0  0
   49.9603    9.6526   21.2016 H   0  0  0  0  0  0  0  0  0  0  0  0
   50.7465    9.5921   19.6228 H   0  0  0  0  0  0  0  0  0  0  0  0
   49.4863    7.6944   19.1257 H   0  0  0  0  0  0  0  0  0  0  0  0
   48.7406    7.8206   20.7202 H   0  0  0  0  0  0  0  0  0  0  0  0
   46.8007    8.2623   19.4211 H   0  0  0  0  0  0  0  0  0  0  0  0
   48.4078    8.2733   17.2458 H   0  0  0  0  0  0  0  0  0  0  0  0
   46.7827    8.8990   17.2119 H   0  0  0  0  0  0  0  0  0  0  0  0
   47.3568   11.0695   17.0594 H   0  0  0  0  0  0  0  0  0  0  0  0
   50.2277   10.9878   17.9587 H   0  0  0  0  0  0  0  0  0  0  0  0
   49.0204   12.2411   18.0999 H   0  0  0  0  0  0  0  0  0  0  0  0
   50.8103   10.9978   14.1410 H   0  0  0  0  0  0  0  0  0  0  0  0
   50.0216   11.9401   11.8782 H   0  0  0  0  0  0  0  0  0  0  0  0
   48.5485   12.4865   12.6896 H   0  0  0  0  0  0  0  0  0  0  0  0
   49.8088   13.7091   14.0752 H   0  0  0  0  0  0  0  0  0  0  0  0
   47.2430   10.3059   12.9125 H   0  0  0  0  0  0  0  0  0  0  0  0
   46.5881    8.1474   11.9204 H   0  0  0  0  0  0  0  0  0  0  0  0
   48.2571    6.3347   11.6513 H   0  0  0  0  0  0  0  0  0  0  0  0
   50.6031    6.6857   12.3813 H   0  0  0  0  0  0  0  0  0  0  0  0
   51.2867    8.8327   13.3834 H   0  0  0  0  0  0  0  0  0  0  0  0
   48.1799   10.6190   18.0365 H   0  0  0  0  0  0  0  0  0  0  0  0
   48.2026    9.8987   14.6948 H   0  0  0  0  0  0  0  0  0  0  0  0
   48.5639   10.0293   17.1621 H   0  0  0  0  0  0  0  0  0  0  0  0
   48.8331    9.8922   15.6642 H   0  0  0  0  0  0  0  0  0  0  0  0
   48.5749   10.0236   17.1675 H   0  0  0  0  0  0  0  0  0  0  0  0
   48.8207    9.8986   15.6656 H   0  0  0  0  0  0  0  0  0  0  0  0
  1  2  1  0
  3  2  1  0
  3  4  1  0
  4  5  1  0
  6  5  1  0
  6  2  1  0
  6  7  1  0
  7  8  1  0
  8  9  1  0
  3  9  1  0
  8 10  1  0
 10 11  1  0
 11 12  2  0
 11 13  1  0
 13 14  1  0
 14 15  1  0
 13 16  1  0
 16 17  2  0
 17 18  1  0
 18 19  2  0
 19 20  1  0
 20 21  2  0
 16 21  1  0
 22 23  1  0
 24 23  1  0
 24 25  1  0
 25 26  1  0
 27 26  1  0
 27 23  1  0
 27 28  1  0
 28 29  1  0
 29 30  1  0
 24 30  1  0
 29 31  1  0
 31 32  1  0
 32 33  2  0
 32 34  1  0
 34 35  1  0
 35 36  1  0
 34 37  1  0
 37 38  2  0
 38 39  1  0
 39 40  2  0
 40 41  1  0
 41 42  2  0
 37 42  1  0
 43 44  2  0
 43 45  1  0
 43 46  1  0
 43 47  2  0
  1 50  1  0
  1 51  1  0
  1 52  1  0
  3 53  1  1
  4 54  1  0
  4 55  1  0
  5 56  1  0
  5 57  1  0
  6 58  1  6
  7 59  1  0
  7 60  1  0
  8 61  1  1
  9 62  1  0
  9 63  1  0
 13 64  1  6
 14 65  1  0
 14 66  1  0
 15 67  1  0
 17 68  1  0
 18 69  1  0
 19 70  1  0
 20 71  1  0
 21 72  1  0
 22 73  1  0
 22 74  1  0
 22 75  1  0
 24 76  1  6
 25 77  1  0
 25 78  1  0
 26 79  1  0
 26 80  1  0
 27 81  1  1
 28 82  1  0
 28 83  1  0
 29 84  1  6
 30 85  1  0
 30 86  1  0
 34 87  1  6
 35 88  1  0
 35 89  1  0
 36 90  1  0
 38 91  1  0
 39 92  1  0
 40 93  1  0
 41 94  1  0
 42 95  1  0
 45 96  1  0
 46 97  1  0
 48 98  1  0
 48 99  1  0
 49100  1  0
 49101  1  0
M  END
> <Uni-Dock RESULT> 
ENERGY=   -4.947  LOWER_BOUND=    4.017  UPPER_BOUND=    6.802
INTER + INTRA:          -4.947
INTER:                  -4.947
INTRA:                   0.000
UNBOUND:                 0.000

$$$$

     RDKit          3D

101102  0  0  0  0  0  0  0  0999 V2000
   50.5106    7.9864   12.8268 C   0  0  0  0  0  0  0  0  0  0  0  0
   49.9278    8.6446   13.9931 N   0  0  0  0  0  0  0  0  0  0  0  0
   49.0085    9.7416   13.6369 C   0  0  1  0  0  0  0  0  0  0  0  0
   47.7053    9.0399   13.2399 C   0  0  0  0  0  0  0  0  0  0  0  0
   47.7299    7.7234   14.0080 C   0  0  0  0  0  0  0  0  0  0  0  0
   49.0556    7.7506   14.7795 C   0  0  2  0  0  0  0  0  0  0  0  0
   48.8687    8.3794   16.1739 C   0  0  0  0  0  0  0  0  0  0  0  0
   49.1472    9.8913   16.2016 C   0  0  1  0  0  0  0  0  0  0  0  0
   48.7983   10.6138   14.8891 C   0  0  0  0  0  0  0  0  0  0  0  0
   48.3974   10.5184   17.2635 O   0  0  0  0  0  0  0  0  0  0  0  0
   48.9477   10.4883   18.5130 C   0  0  0  0  0  0  0  0  0  0  0  0
   49.9905    9.9119   18.7921 O   0  0  0  0  0  0  0  0  0  0  0  0
   48.0455   11.2283   19.5002 C   0  0  2  0  0  0  0  0  0  0  0  0
   47.7341   12.6484   18.9909 C   0  0  0  0  0  0  0  0  0  0  0  0
   46.4754   12.6902   18.3132 O   0  0  0  0  0  0  0  0  0  0  0  0
   48.6246   11.2893   20.9102 C   0  0  0  0  0  0  0  0  0  0  0  0
   47.9298   10.7060   21.9811 C   0  0  0  0  0  0  0  0  0  0  0  0
   48.4316   10.7859   23.2822 C   0  0  0  0  0  0  0  0  0  0  0  0
   49.6344   11.4462   23.5280 C   0  0  0  0  0  0  0  0  0  0  0  0
   50.3387   12.0255   22.4741 C   0  0  0  0  0  0  0  0  0  0  0  0
   49.8383   11.9490   21.1732 C   0  0  0  0  0  0  0  0  0  0  0  0
   48.3080    8.5235   12.5695 C   0  0  0  0  0  0  0  0  0  0  0  0
   48.3450    8.8429   13.9952 N   0  0  0  0  0  0  0  0  0  0  0  0
   49.1728    7.9020   14.7734 C   0  0  1  0  0  0  0  0  0  0  0  0
   50.6152    8.3492   14.5185 C   0  0  0  0  0  0  0  0  0  0  0  0
   50.5020    9.8320   14.1861 C   0  0  0  0  0  0  0  0  0  0  0  0
   49.0006   10.1344   14.2705 C   0  0  2  0  0  0  0  0  0  0  0  0
   48.6096   10.5726   15.6933 C   0  0  0  0  0  0  0  0  0  0  0  0
   48.1547    9.4117   16.5925 C   0  0  1  0  0  0  0  0  0  0  0  0
   48.8080    8.0610   16.2609 C   0  0  0  0  0  0  0  0  0  0  0  0
   48.4369    9.7842   17.9580 O   0  0  0  0  0  0  0  0  0  0  0  0
   47.7163    9.1694   18.9349 C   0  0  0  0  0  0  0  0  0  0  0  0
   46.8818    8.2927   18.7426 O   0  0  0  0  0  0  0  0  0  0  0  0
   48.1392    9.6490   20.3172 C   0  0  2  0  0  0  0  0  0  0  0  0
   47.1401    9.1482   21.3702 C   0  0  0  0  0  0  0  0  0  0  0  0
   47.2273    7.7322   21.5282 O   0  0  0  0  0  0  0  0  0  0  0  0
   48.3030   11.1598   20.4000 C   0  0  0  0  0  0  0  0  0  0  0  0
   47.2257   12.0280   20.1511 C   0  0  0  0  0  0  0  0  0  0  0  0
   47.4008   13.4112   20.2208 C   0  0  0  0  0  0  0  0  0  0  0  0
   48.6508   13.9427   20.5384 C   0  0  0  0  0  0  0  0  0  0  0  0
   49.7275   13.0927   20.7898 C   0  0  0  0  0  0  0  0  0  0  0  0
   49.5563   11.7095   20.7199 C   0  0  0  0  0  0  0  0  0  0  0  0
   49.1959    9.9543   17.4791 S   0  0  0  0  0  0  0  0  0  0  0  0
   50.0586   10.4272   16.4266 O   0  0  0  0  0  0  0  0  0  0  0  0
   48.2883    8.7977   16.8372 O   0  0  0  0  0  0  0  0  0  0  0  0
   48.0940   11.0825   17.7774 O   0  0  0  0  0  0  0  0  0  0  0  0
   49.6694    9.5014   18.7627 O   0  0  0  0  0  0  0  0  0  0  0  0
   49.1455    9.9252   17.4452 O   0  0  0  0  0  0  0  0  0  0  0  0
   49.1453    9.9280   17.4516 O   0  0  0  0  0  0  0  0  0  0  0  0
   51.1562    7.1614   13.1478 H   0  0  0  0  0  0  0  0  0  0  0  0
   51.1450    8.6921   12.2791 H   0  0  0  0  0  0  0  0  0  0  0  0
   49.7712    7.5839   12.1273 H   0  0  0  0  0  0  0  0  0  0  0  0
   49.3790   10.3717   12.8187 H   0  0  0  0  0  0  0  0  0  0  0  0
   47.6947    8.8339   12.1626 H   0  0  0  0  0  0  0  0  0  0  0  0
   46.8109    9.6282   13.4670 H   0  0  0  0  0  0  0  0  0  0  0  0
   47.7136    6.8883   13.2969 H   0  0  0  0  0  0  0  0  0  0  0  0
   46.8547    7.6172   14.6581 H   0  0  0  0  0  0  0  0  0  0  0  0
   49.4613    6.7383   14.8948 H   0  0  0  0  0  0  0  0  0  0  0  0
   47.8712    8.1621   16.5783 H   0  0  0  0  0  0  0  0  0  0  0  0
   49.5727    7.9034   16.8708 H   0  0  0  0  0  0  0  0  0  0  0  0
   50.2224   10.0475   16.3777 H   0  0  0  0  0  0  0  0  0  0  0  0
   49.4517   11.4952   14.8218 H   0  0  0  0  0  0  0  0  0  0  0  0
   47.7757   11.0135   14.9251 H   0  0  0  0  0  0  0  0  0  0  0  0
   47.1177   10.6401   19.5403 H   0  0  0  0  0  0  0  0  0  0  0  0
   48.4992   13.0079   18.2934 H   0  0  0  0  0  0  0  0  0  0  0  0
   47.6675   13.3792   19.8047 H   0  0  0  0  0  0  0  0  0  0  0  0
   45.7789   12.5309   18.9757 H   0  0  0  0  0  0  0  0  0  0  0  0
   46.9886   10.1847   21.8138 H   0  0  0  0  0  0  0  0  0  0  0  0
   47.8858   10.3315   24.1053 H   0  0  0  0  0  0  0  0  0  0  0  0
   50.0261   11.5060   24.5405 H   0  0  0  0  0  0  0  0  0  0  0  0
   51.2802   12.5350   22.6642 H   0  0  0  0  0  0  0  0  0  0  0  0
   50.4144   12.3955   20.3644 H   0  0  0  0  0  0  0  0  0  0  0  0
   47.6588    9.2336   12.0442 H   0  0  0  0  0  0  0  0  0  0  0  0
   47.8736    7.5283   12.4159 H   0  0  0  0  0  0  0  0  0  0  0  0
   49.2890    8.5428   12.0832 H   0  0  0  0  0  0  0  0  0  0  0  0
   49.0278    6.8549   14.4822 H   0  0  0  0  0  0  0  0  0  0  0  0
   51.0404    7.8130   13.6618 H   0  0  0  0  0  0  0  0  0  0  0  0
   51.2781    8.1757   15.3724 H   0  0  0  0  0  0  0  0  0  0  0  0
   51.1086   10.4444   14.8616 H   0  0  0  0  0  0  0  0  0  0  0  0
   50.8738   10.0050   13.1686 H   0  0  0  0  0  0  0  0  0  0  0  0
   48.7195   10.9259   13.5645 H   0  0  0  0  0  0  0  0  0  0  0  0
   49.4221   11.1393   16.1675 H   0  0  0  0  0  0  0  0  0  0  0  0
   47.7719   11.2814   15.6289 H   0  0  0  0  0  0  0  0  0  0  0  0
   47.0670    9.3174   16.4712 H   0  0  0  0  0  0  0  0  0  0  0  0
   49.6791    7.8865   16.9041 H   0  0  0  0  0  0  0  0  0  0  0  0
   48.0886    7.2737   16.5254 H   0  0  0  0  0  0  0  0  0  0  0  0
   49.1050    9.1589   20.5048 H   0  0  0  0  0  0  0  0  0  0  0  0
   47.3599    9.5894   22.3487 H   0  0  0  0  0  0  0  0  0  0  0  0
   46.1044    9.4018   21.1176 H   0  0  0  0  0  0  0  0  0  0  0  0
   46.8670    7.3398   20.7061 H   0  0  0  0  0  0  0  0  0  0  0  0
   46.2414   11.6374   19.8959 H   0  0  0  0  0  0  0  0  0  0  0  0
   46.5628   14.0772   20.0249 H   0  0  0  0  0  0  0  0  0  0  0  0
   48.7829   15.0198   20.5960 H   0  0  0  0  0  0  0  0  0  0  0  0
   50.6989   13.5069   21.0427 H   0  0  0  0  0  0  0  0  0  0  0  0
   50.4096   11.0612   20.9149 H   0  0  0  0  0  0  0  0  0  0  0  0
   48.2339    8.9756   15.8739 H   0  0  0  0  0  0  0  0  0  0  0  0
   47.7158   10.8865   18.6608 H   0  0  0  0  0  0  0  0  0  0  0  0
   48.6130    9.6572   16.6811 H   0  0  0  0  0  0  0  0  0  0  0  0
   48.4940   10.2570   18.0815 H   0  0  0  0  0  0  0  0  0  0  0  0
   48.6263    9.6554   16.6799 H   0  0  0  0  0  0  0  0  0  0  0  0
   48.4809   10.2561   18.0762 H   0  0  0  0  0  0  0  0  0  0  0  0
  1  2  1  0
  3  2  1  0
  3  4  1  0
  4  5  1  0
  6  5  1  0
  6  2  1  0
  6  7  1  0
  7  8  1  0
  8  9  1  0
  3  9  1  0
  8 10  1  0
 10 11  1  0
 11 12  2  0
 11 13  1  0
 13 14  1  0
 14 15  1  0
 13 16  1  0
 16 17  2  0
 17 18  1  0
 18 19  2  0
 19 20  1  0
 20 21  2  0
 16 21  1  0
 22 23  1  0
 24 23  1  0
 24 25  1  0
 25 26  1  0
 27 26  1  0
 27 23  1  0
 27 28  1  0
 28 29  1  0
 29 30  1  0
 24 30  1  0
 29 31  1  0
 31 32  1  0
 32 33  2  0
 32 34  1  0
 34 35  1  0
 35 36  1  0
 34 37  1  0
 37 38  2  0
 38 39  1  0
 39 40  2  0
 40 41  1  0
 41 42  2  0
 37 42  1  0
 43 44  2  0
 43 45  1  0
 43 46  1  0
 43 47  2  0
  1 50  1  0
  1 51  1  0
  1 52  1  0
  3 53  1  1
  4 54  1  0
  4 55  1  0
  5 56  1  0
  5 57  1  0
  6 58  1  6
  7 59  1  0
  7 60  1  0
  8 61  1  1
  9 62  1  0
  9 63  1  0
 13 64  1  6
 14 65  1  0
 14 66  1  0
 15 67  1  0
 17 68  1  0
 18 69  1  0
 19 70  1  0
 20 71  1  0
 21 72  1  0
 22 73  1  0
 22 74  1  0
 22 75  1  0
 24 76  1  6
 25 77  1  0
 25 78  1  0
 26 79  1  0
 26 80  1  0
 27 81  1  1
 28 82  1  0
 28 83  1  0
 29 84  1  6
 30 85  1  0
 30 86  1  0
 34 87  1  6
 35 88  1  0
 35 89  1  0
 36 90  1  0
 38 91  1  0
 39 92  1  0
 40 93  1  0
 41 94  1  0
 42 95  1  0
 45 96  1  0
 46 97  1  0
 48 98  1  0
 48 99  1  0
 49100  1  0
 49101  1  0
M  END
> <Uni-Dock RESULT> 
ENERGY=   -4.942  LOWER_BOUND=    5.038  UPPER_BOUND=    7.219
INTER + INTRA:          -4.942
INTER:                  -4.942
INTRA:                   0.000
UNBOUND:                 0.000

$$$$

     RDKit          3D

101102  0  0  0  0  0  0  0  0999 V2000
   55.7794    7.9019    8.6531 C   0  0  0  0  0  0  0  0  0  0  0  0
   54.6757    8.0473    9.5984 N   0  0  0  0  0  0  0  0  0  0  0  0
   55.1206    8.0786   11.0042 C   0  0  1  0  0  0  0  0  0  0  0  0
   55.6381    9.5057   11.2140 C   0  0  0  0  0  0  0  0  0  0  0  0
   54.8677   10.3450   10.2012 C   0  0  0  0  0  0  0  0  0  0  0  0
   53.9736    9.3388    9.4654 C   0  0  2  0  0  0  0  0  0  0  0  0
   52.6050    9.2064   10.1612 C   0  0  0  0  0  0  0  0  0  0  0  0
   52.5548    8.0676   11.1929 C   0  0  1  0  0  0  0  0  0  0  0  0
   53.8964    7.8058   11.8986 C   0  0  0  0  0  0  0  0  0  0  0  0
   51.5707    8.3560   12.2086 O   0  0  0  0  0  0  0  0  0  0  0  0
   50.2744    8.0323   11.9261 C   0  0  0  0  0  0  0  0  0  0  0  0
   49.8958    7.5807   10.8536 O   0  0  0  0  0  0  0  0  0  0  0  0
   49.3795    8.3668   13.1192 C   0  0  2  0  0  0  0  0  0  0  0  0
   49.9199    7.7100   14.4035 C   0  0  0  0  0  0  0  0  0  0  0  0
   50.7144    8.6283   15.1590 O   0  0  0  0  0  0  0  0  0  0  0  0
   47.9210    7.9766   12.9011 C   0  0  0  0  0  0  0  0  0  0  0  0
   46.9196    8.9598   12.9241 C   0  0  0  0  0  0  0  0  0  0  0  0
   45.5768    8.6112   12.7614 C   0  0  0  0  0  0  0  0  0  0  0  0
   45.2194    7.2773   12.5706 C   0  0  0  0  0  0  0  0  0  0  0  0
   46.2029    6.2904   12.5398 C   0  0  0  0  0  0  0  0  0  0  0  0
   47.5453    6.6360   12.7044 C   0  0  0  0  0  0  0  0  0  0  0  0
   56.2467    9.2948   10.3988 C   0  0  0  0  0  0  0  0  0  0  0  0
   54.8248    9.1765   10.7153 N   0  0  0  0  0  0  0  0  0  0  0  0
   53.9688    9.1535    9.5141 C   0  0  1  0  0  0  0  0  0  0  0  0
   54.0865    7.7234    8.9790 C   0  0  0  0  0  0  0  0  0  0  0  0
   54.4320    6.8849   10.2035 C   0  0  0  0  0  0  0  0  0  0  0  0
   54.4917    7.8924   11.3586 C   0  0  2  0  0  0  0  0  0  0  0  0
   53.1137    8.0394   12.0286 C   0  0  0  0  0  0  0  0  0  0  0  0
   52.2589    9.1723   11.4378 C   0  0  1  0  0  0  0  0  0  0  0  0
   52.5233    9.4548    9.9506 C   0  0  0  0  0  0  0  0  0  0  0  0
   50.8737    8.8234   11.6441 O   0  0  0  0  0  0  0  0  0  0  0  0
   49.9682    9.8392   11.6521 C   0  0  0  0  0  0  0  0  0  0  0  0
   50.2369   11.0180   11.4511 O   0  0  0  0  0  0  0  0  0  0  0  0
   48.5533    9.3153   11.8590 C   0  0  2  0  0  0  0  0  0  0  0  0
   47.5988   10.4871   12.1307 C   0  0  0  0  0  0  0  0  0  0  0  0
   47.4295   11.2926   10.9644 O   0  0  0  0  0  0  0  0  0  0  0  0
   48.4591    8.2718   12.9628 C   0  0  0  0  0  0  0  0  0  0  0  0
   48.8117    8.5751   14.2894 C   0  0  0  0  0  0  0  0  0  0  0  0
   48.7293    7.5995   15.2844 C   0  0  0  0  0  0  0  0  0  0  0  0
   48.2955    6.3122   14.9672 C   0  0  0  0  0  0  0  0  0  0  0  0
   47.9405    5.9984   13.6555 C   0  0  0  0  0  0  0  0  0  0  0  0
   48.0228    6.9710   12.6582 C   0  0  0  0  0  0  0  0  0  0  0  0
   51.2786    8.0852   11.2901 S   0  0  0  0  0  0  0  0  0  0  0  0
   52.2454    7.0380   11.0790 O   0  0  0  0  0  0  0  0  0  0  0  0
   52.0010    9.4589   10.8845 O   0  0  0  0  0  0  0  0  0  0  0  0
   51.0895    8.2900   12.8707 O   0  0  0  0  0  0  0  0  0  0  0  0
   49.9545    8.0821   10.7210 O   0  0  0  0  0  0  0  0  0  0  0  0
   51.3171    8.1401   11.2956 O   0  0  0  0  0  0  0  0  0  0  0  0
   51.3107    8.1391   11.2982 O   0  0  0  0  0  0  0  0  0  0  0  0
   55.3963    7.9185    7.6268 H   0  0  0  0  0  0  0  0  0  0  0  0
   56.2660    6.9306    8.7953 H   0  0  0  0  0  0  0  0  0  0  0  0
   56.5451    8.6792    8.7402 H   0  0  0  0  0  0  0  0  0  0  0  0
   55.9015    7.3417   11.2303 H   0  0  0  0  0  0  0  0  0  0  0  0
   56.7110    9.5599   10.9923 H   0  0  0  0  0  0  0  0  0  0  0  0
   55.4987    9.8704   12.2364 H   0  0  0  0  0  0  0  0  0  0  0  0
   55.5750   10.8141    9.5061 H   0  0  0  0  0  0  0  0  0  0  0  0
   54.3036   11.1489   10.6866 H   0  0  0  0  0  0  0  0  0  0  0  0
   53.8176    9.6436    8.4237 H   0  0  0  0  0  0  0  0  0  0  0  0
   52.2968   10.1563   10.6177 H   0  0  0  0  0  0  0  0  0  0  0  0
   51.8430    8.9920    9.3987 H   0  0  0  0  0  0  0  0  0  0  0  0
   52.2775    7.1364   10.6756 H   0  0  0  0  0  0  0  0  0  0  0  0
   53.9034    6.7481   12.1975 H   0  0  0  0  0  0  0  0  0  0  0  0
   53.9589    8.3725   12.8376 H   0  0  0  0  0  0  0  0  0  0  0  0
   49.4264    9.4607   13.2176 H   0  0  0  0  0  0  0  0  0  0  0  0
   50.5422    6.8354   14.1829 H   0  0  0  0  0  0  0  0  0  0  0  0
   49.1180    7.3775   15.0723 H   0  0  0  0  0  0  0  0  0  0  0  0
   50.1209    9.3242   15.4948 H   0  0  0  0  0  0  0  0  0  0  0  0
   47.1744   10.0082   13.0712 H   0  0  0  0  0  0  0  0  0  0  0  0
   44.8083    9.3797   12.7813 H   0  0  0  0  0  0  0  0  0  0  0  0
   44.1743    7.0065   12.4415 H   0  0  0  0  0  0  0  0  0  0  0  0
   45.9253    5.2508   12.3845 H   0  0  0  0  0  0  0  0  0  0  0  0
   48.2968    5.8492   12.6606 H   0  0  0  0  0  0  0  0  0  0  0  0
   56.8333    9.3360   11.3239 H   0  0  0  0  0  0  0  0  0  0  0  0
   56.4384   10.2327    9.8637 H   0  0  0  0  0  0  0  0  0  0  0  0
   56.6375    8.4726    9.7902 H   0  0  0  0  0  0  0  0  0  0  0  0
   54.2698    9.8844    8.7541 H   0  0  0  0  0  0  0  0  0  0  0  0
   54.8973    7.6509    8.2446 H   0  0  0  0  0  0  0  0  0  0  0  0
   53.1728    7.3688    8.4909 H   0  0  0  0  0  0  0  0  0  0  0  0
   53.7033    6.0828   10.3621 H   0  0  0  0  0  0  0  0  0  0  0  0
   55.4099    6.4107   10.0543 H   0  0  0  0  0  0  0  0  0  0  0  0
   55.2233    7.5800   12.1144 H   0  0  0  0  0  0  0  0  0  0  0  0
   52.5658    7.0877   12.0139 H   0  0  0  0  0  0  0  0  0  0  0  0
   53.2595    8.2643   13.0947 H   0  0  0  0  0  0  0  0  0  0  0  0
   52.4830   10.0796   12.0150 H   0  0  0  0  0  0  0  0  0  0  0  0
   51.7996    8.9208    9.3228 H   0  0  0  0  0  0  0  0  0  0  0  0
   52.3264   10.5219    9.7783 H   0  0  0  0  0  0  0  0  0  0  0  0
   48.2732    8.8651   10.8961 H   0  0  0  0  0  0  0  0  0  0  0  0
   46.6051   10.1171   12.4061 H   0  0  0  0  0  0  0  0  0  0  0  0
   47.9495   11.1318   12.9446 H   0  0  0  0  0  0  0  0  0  0  0  0
   48.2812   11.7553   10.8223 H   0  0  0  0  0  0  0  0  0  0  0  0
   49.1585    9.5713   14.5610 H   0  0  0  0  0  0  0  0  0  0  0  0
   49.0058    7.8409   16.3088 H   0  0  0  0  0  0  0  0  0  0  0  0
   48.2284    5.5559   15.7448 H   0  0  0  0  0  0  0  0  0  0  0  0
   47.5973    4.9978   13.4103 H   0  0  0  0  0  0  0  0  0  0  0  0
   47.7458    6.7066   11.6385 H   0  0  0  0  0  0  0  0  0  0  0  0
   52.9655    9.3222   11.0007 H   0  0  0  0  0  0  0  0  0  0  0  0
   50.2456    8.7733   12.9976 H   0  0  0  0  0  0  0  0  0  0  0  0
   52.1277    8.6674   11.3599 H   0  0  0  0  0  0  0  0  0  0  0  0
   50.7466    8.4995   11.9918 H   0  0  0  0  0  0  0  0  0  0  0  0
   52.1277    8.6579   11.3503 H   0  0  0  0  0  0  0  0  0  0  0  0
   50.7530    8.5100   11.9987 H   0  0  0  0  0  0  0  0  0  0  0  0
  1  2  1  0
  3  2  1  0
  3  4  1  0
  4  5  1  0
  6  5  1  0
  6  2  1  0
  6  7  1  0
  7  8  1  0
  8  9  1  0
  3  9  1  0
  8 10  1  0
 10 11  1  0
 11 12  2  0
 11 13  1  0
 13 14  1  0
 14 15  1  0
 13 16  1  0
 16 17  2  0
 17 18  1  0
 18 19  2  0
 19 20  1  0
 20 21  2  0
 16 21  1  0
 22 23  1  0
 24 23  1  0
 24 25  1  0
 25 26  1  0
 27 26  1  0
 27 23  1  0
 27 28  1  0
 28 29  1  0
 29 30  1  0
 24 30  1  0
 29 31  1  0
 31 32  1  0
 32 33  2  0
 32 34  1  0
 34 35  1  0
 35 36  1  0
 34 37  1  0
 37 38  2  0
 38 39  1  0
 39 40  2  0
 40 41  1  0
 41 42  2  0
 37 42  1  0
 43 44  2  0
 43 45  1  0
 43 46  1  0
 43 47  2  0
  1 50  1  0
  1 51  1  0
  1 52  1  0
  3 53  1  1
  4 54  1  0
  4 55  1  0
  5 56  1  0
  5 57  1  0
  6 58  1  6
  7 59  1  0
  7 60  1  0
  8 61  1  1
  9 62  1  0
  9 63  1  0
 13 64  1  6
 14 65  1  0
 14 66  1  0
 15 67  1  0
 17 68  1  0
 18 69  1  0
 19 70  1  0
 20 71  1  0
 21 72  1  0
 22 73  1  0
 22 74  1  0
 22 75  1  0
 24 76  1  6
 25 77  1  0
 25 78  1  0
 26 79  1  0
 26 80  1  0
 27 81  1  1
 28 82  1  0
 28 83  1  0
 29 84  1  6
 30 85  1  0
 30 86  1  0
 34 87  1  6
 35 88  1  0
 35 89  1  0
 36 90  1  0
 38 91  1  0
 39 92  1  0
 40 93  1  0
 41 94  1  0
 42 95  1  0
 45 96  1  0
 46 97  1  0
 48 98  1  0
 48 99  1  0
 49100  1  0
 49101  1  0
M  END
> <Uni-Dock RESULT> 
ENERGY=   -4.915  LOWER_BOUND=    3.271  UPPER_BOUND=    7.415
INTER + INTRA:          -4.915
INTER:                  -4.915
INTRA:                   0.000
UNBOUND:                 0.000

$$$$

     RDKit          3D

101102  0  0  0  0  0  0  0  0999 V2000
   42.5333    4.8060   10.9917 C   0  0  0  0  0  0  0  0  0  0  0  0
   43.7605    5.2268   11.6622 N   0  0  0  0  0  0  0  0  0  0  0  0
   44.3183    4.1887   12.5490 C   0  0  1  0  0  0  0  0  0  0  0  0
   45.0332    3.2168   11.6040 C   0  0  0  0  0  0  0  0  0  0  0  0
   45.4135    4.0666   10.3969 C   0  0  0  0  0  0  0  0  0  0  0  0
   44.8740    5.4650   10.7231 C   0  0  2  0  0  0  0  0  0  0  0  0
   45.9364    6.3087   11.4541 C   0  0  0  0  0  0  0  0  0  0  0  0
   45.8345    6.2209   12.9857 C   0  0  1  0  0  0  0  0  0  0  0  0
   45.3248    4.8636   13.5000 C   0  0  0  0  0  0  0  0  0  0  0  0
   47.1235    6.4651   13.5873 O   0  0  0  0  0  0  0  0  0  0  0  0
   47.4817    7.7689   13.7788 C   0  0  0  0  0  0  0  0  0  0  0  0
   46.8130    8.7270   13.4149 O   0  0  0  0  0  0  0  0  0  0  0  0
   48.8490    7.8417   14.4582 C   0  0  2  0  0  0  0  0  0  0  0  0
   48.8602    6.9971   15.7464 C   0  0  0  0  0  0  0  0  0  0  0  0
   49.4113    5.6990   15.5087 O   0  0  0  0  0  0  0  0  0  0  0  0
   49.2916    9.2699   14.7605 C   0  0  0  0  0  0  0  0  0  0  0  0
   50.4665    9.7782   14.1850 C   0  0  0  0  0  0  0  0  0  0  0  0
   50.9019   11.0718   14.4818 C   0  0  0  0  0  0  0  0  0  0  0  0
   50.1669   11.8736   15.3538 C   0  0  0  0  0  0  0  0  0  0  0  0
   48.9952   11.3850   15.9287 C   0  0  0  0  0  0  0  0  0  0  0  0
   48.5593   10.0917   15.6355 C   0  0  0  0  0  0  0  0  0  0  0  0
   44.1115    3.1639   11.1274 C   0  0  0  0  0  0  0  0  0  0  0  0
   45.0005    4.2254   11.5952 N   0  0  0  0  0  0  0  0  0  0  0  0
   44.7891    5.5040   10.8903 C   0  0  1  0  0  0  0  0  0  0  0  0
   43.5399    6.1057   11.5409 C   0  0  0  0  0  0  0  0  0  0  0  0
   43.5130    5.5068   12.9417 C   0  0  0  0  0  0  0  0  0  0  0  0
   44.7482    4.5992   12.9989 C   0  0  2  0  0  0  0  0  0  0  0  0
   45.9744    5.3754   13.5121 C   0  0  0  0  0  0  0  0  0  0  0  0
   46.8187    6.0045   12.3919 C   0  0  1  0  0  0  0  0  0  0  0  0
   46.0179    6.3974   11.1407 C   0  0  0  0  0  0  0  0  0  0  0  0
   47.4832    7.1597   12.9461 O   0  0  0  0  0  0  0  0  0  0  0  0
   48.6169    7.5856   12.3257 C   0  0  0  0  0  0  0  0  0  0  0  0
   49.0863    7.0899   11.3078 O   0  0  0  0  0  0  0  0  0  0  0  0
   49.1898    8.8198   13.0098 C   0  0  2  0  0  0  0  0  0  0  0  0
   50.5944    9.1132   12.4631 C   0  0  0  0  0  0  0  0  0  0  0  0
   50.5360    9.5497   11.1052 O   0  0  0  0  0  0  0  0  0  0  0  0
   49.2115    8.7045   14.5272 C   0  0  0  0  0  0  0  0  0  0  0  0
   49.9446    7.6948   15.1747 C   0  0  0  0  0  0  0  0  0  0  0  0
   49.9410    7.5999   16.5673 C   0  0  0  0  0  0  0  0  0  0  0  0
   49.2067    8.5096   17.3283 C   0  0  0  0  0  0  0  0  0  0  0  0
   48.4767    9.5175   16.6989 C   0  0  0  0  0  0  0  0  0  0  0  0
   48.4771    9.6146   15.3068 C   0  0  0  0  0  0  0  0  0  0  0  0
   46.6048    7.2228   13.1885 S   0  0  0  0  0  0  0  0  0  0  0  0
   45.3044    6.8517   13.6854 O   0  0  0  0  0  0  0  0  0  0  0  0
   46.8300    6.3879   11.8373 O   0  0  0  0  0  0  0  0  0  0  0  0
   47.7179    6.5715   14.1439 O   0  0  0  0  0  0  0  0  0  0  0  0
   47.0170    8.5841   12.9562 O   0  0  0  0  0  0  0  0  0  0  0  0
   46.6206    7.1713   13.1482 O   0  0  0  0  0  0  0  0  0  0  0  0
   46.6250    7.1757   13.1515 O   0  0  0  0  0  0  0  0  0  0  0  0
   42.1826    5.5997   10.3227 H   0  0  0  0  0  0  0  0  0  0  0  0
   41.7422    4.6412   11.7317 H   0  0  0  0  0  0  0  0  0  0  0  0
   42.6401    3.8902   10.4018 H   0  0  0  0  0  0  0  0  0  0  0  0
   43.5567    3.6684   13.1431 H   0  0  0  0  0  0  0  0  0  0  0  0
   44.3502    2.4187   11.2881 H   0  0  0  0  0  0  0  0  0  0  0  0
   45.9064    2.7370   12.0567 H   0  0  0  0  0  0  0  0  0  0  0  0
   44.9254    3.6631    9.5012 H   0  0  0  0  0  0  0  0  0  0  0  0
   46.4937    4.0524   10.2157 H   0  0  0  0  0  0  0  0  0  0  0  0
   44.5678    5.9884    9.8094 H   0  0  0  0  0  0  0  0  0  0  0  0
   46.9496    6.0513   11.1181 H   0  0  0  0  0  0  0  0  0  0  0  0
   45.7993    7.3631   11.1762 H   0  0  0  0  0  0  0  0  0  0  0  0
   45.1225    6.9841   13.3350 H   0  0  0  0  0  0  0  0  0  0  0  0
   44.8327    5.0479   14.4654 H   0  0  0  0  0  0  0  0  0  0  0  0
   46.1651    4.1932   13.7266 H   0  0  0  0  0  0  0  0  0  0  0  0
   49.5553    7.4148   13.7321 H   0  0  0  0  0  0  0  0  0  0  0  0
   47.8516    6.8607   16.1528 H   0  0  0  0  0  0  0  0  0  0  0  0
   49.4705    7.4483   16.5368 H   0  0  0  0  0  0  0  0  0  0  0  0
   50.3575    5.8133   15.3063 H   0  0  0  0  0  0  0  0  0  0  0  0
   51.0570    9.1709   13.5007 H   0  0  0  0  0  0  0  0  0  0  0  0
   51.8135   11.4564   14.0316 H   0  0  0  0  0  0  0  0  0  0  0  0
   50.5047   12.8814   15.5826 H   0  0  0  0  0  0  0  0  0  0  0  0
   48.4181   12.0121   16.6038 H   0  0  0  0  0  0  0  0  0  0  0  0
   47.6325    9.7381   16.0845 H   0  0  0  0  0  0  0  0  0  0  0  0
   44.3290    2.2318   11.6618 H   0  0  0  0  0  0  0  0  0  0  0  0
   44.2878    2.9642   10.0636 H   0  0  0  0  0  0  0  0  0  0  0  0
   43.0469    3.3847   11.2579 H   0  0  0  0  0  0  0  0  0  0  0  0
   44.6513    5.3846    9.8091 H   0  0  0  0  0  0  0  0  0  0  0  0
   42.6373    5.8046   10.9961 H   0  0  0  0  0  0  0  0  0  0  0  0
   43.5528    7.2001   11.5692 H   0  0  0  0  0  0  0  0  0  0  0  0
   43.5074    6.2843   13.7130 H   0  0  0  0  0  0  0  0  0  0  0  0
   42.5957    4.9182   13.0670 H   0  0  0  0  0  0  0  0  0  0  0  0
   44.5722    3.7377   13.6552 H   0  0  0  0  0  0  0  0  0  0  0  0
   45.6797    6.1320   14.2515 H   0  0  0  0  0  0  0  0  0  0  0  0
   46.6280    4.6833   14.0620 H   0  0  0  0  0  0  0  0  0  0  0  0
   47.5787    5.2644   12.1070 H   0  0  0  0  0  0  0  0  0  0  0  0
   45.7368    7.4568   11.1806 H   0  0  0  0  0  0  0  0  0  0  0  0
   46.6913    6.3073   10.2773 H   0  0  0  0  0  0  0  0  0  0  0  0
   48.5286    9.6445   12.7084 H   0  0  0  0  0  0  0  0  0  0  0  0
   51.0680    9.9195   13.0340 H   0  0  0  0  0  0  0  0  0  0  0  0
   51.2538    8.2395   12.5143 H   0  0  0  0  0  0  0  0  0  0  0  0
   50.2726    8.7690   10.5752 H   0  0  0  0  0  0  0  0  0  0  0  0
   50.5214    6.9694   14.6023 H   0  0  0  0  0  0  0  0  0  0  0  0
   50.5093    6.8144   17.0616 H   0  0  0  0  0  0  0  0  0  0  0  0
   49.2093    8.4357   18.4126 H   0  0  0  0  0  0  0  0  0  0  0  0
   47.9099   10.2290   17.2921 H   0  0  0  0  0  0  0  0  0  0  0  0
   47.8975   10.4055   14.8324 H   0  0  0  0  0  0  0  0  0  0  0  0
   46.2773    5.5801   11.9025 H   0  0  0  0  0  0  0  0  0  0  0  0
   48.5542    7.0571   13.9811 H   0  0  0  0  0  0  0  0  0  0  0  0
   46.5351    6.3072   12.7177 H   0  0  0  0  0  0  0  0  0  0  0  0
   47.5468    7.2023   13.4320 H   0  0  0  0  0  0  0  0  0  0  0  0
   46.5239    6.3147   12.7180 H   0  0  0  0  0  0  0  0  0  0  0  0
   47.5536    7.1905   13.4284 H   0  0  0  0  0  0  0  0  0  0  0  0
  1  2  1  0
  3  2  1  0
  3  4  1  0
  4  5  1  0
  6  5  1  0
  6  2  1  0
  6  7  1  0
  7  8  1  0
  8  9  1  0
  3  9  1  0
  8 10  1  0
 10 11  1  0
 11 12  2  0
 11 13  1  0
 13 14  1  0
 14 15  1  0
 13 16  1  0
 16 17  2  0
 17 18  1  0
 18 19  2  0
 19 20  1  0
 20 21  2  0
 16 21  1  0
 22 23  1  0
 24 23  1  0
 24 25  1  0
 25 26  1  0
 27 26  1  0
 27 23  1  0
 27 28  1  0
 28 29  1  0
 29 30  1  0
 24 30  1  0
 29 31  1  0
 31 32  1  0
 32 33  2  0
 32 34  1  0
 34 35  1  0
 35 36  1  0
 34 37  1  0
 37 38  2  0
 38 39  1  0
 39 40  2  0
 40 41  1  0
 41 42  2  0
 37 42  1  0
 43 44  2  0
 43 45  1  0
 43 46  1  0
 43 47  2  0
  1 50  1  0
  1 51  1  0
  1 52  1  0
  3 53  1  1
  4 54  1  0
  4 55  1  0
  5 56  1  0
  5 57  1  0
  6 58  1  6
  7 59  1  0
  7 60  1  0
  8 61  1  1
  9 62  1  0
  9 63  1  0
 13 64  1  6
 14 65  1  0
 14 66  1  0
 15 67  1  0
 17 68  1  0
 18 69  1  0
 19 70  1  0
 20 71  1  0
 21 72  1  0
 22 73  1  0
 22 74  1  0
 22 75  1  0
 24 76  1  6
 25 77  1  0
 25 78  1  0
 26 79  1  0
 26 80  1  0
 27 81  1  1
 28 82  1  0
 28 83  1  0
 29 84  1  6
 30 85  1  0
 30 86  1  0
 34 87  1  6
 35 88  1  0
 35 89  1  0
 36 90  1  0
 38 91  1  0
 39 92  1  0
 40 93  1  0
 41 94  1  0
 42 95  1  0
 45 96  1  0
 46 97  1  0
 48 98  1  0
 48 99  1  0
 49100  1  0
 49101  1  0
M  END
> <Uni-Dock RESULT> 
ENERGY=   -4.803  LOWER_BOUND=    1.365  UPPER_BOUND=    3.210
INTER + INTRA:          -4.803
INTER:                  -4.803
INTRA:                   0.000
UNBOUND:                 0.000

$$$$

     RDKit          3D

101102  0  0  0  0  0  0  0  0999 V2000
   50.0904    8.2022   12.6814 C   0  0  0  0  0  0  0  0  0  0  0  0
   49.6106    8.2442   14.0601 N   0  0  0  0  0  0  0  0  0  0  0  0
   48.5019    9.1969   14.2562 C   0  0  1  0  0  0  0  0  0  0  0  0
   47.2643    8.4636   13.7279 C   0  0  0  0  0  0  0  0  0  0  0  0
   47.5937    6.9850   13.8984 C   0  0  0  0  0  0  0  0  0  0  0  0
   49.0065    6.9699   14.4958 C   0  0  2  0  0  0  0  0  0  0  0  0
   48.9535    6.9743   16.0359 C   0  0  0  0  0  0  0  0  0  0  0  0
   49.0176    8.3856   16.6426 C   0  0  1  0  0  0  0  0  0  0  0  0
   48.3696    9.4712   15.7662 C   0  0  0  0  0  0  0  0  0  0  0  0
   48.3625    8.4072   17.9286 O   0  0  0  0  0  0  0  0  0  0  0  0
   49.1002    8.0107   19.0073 C   0  0  0  0  0  0  0  0  0  0  0  0
   50.2444    7.5821   18.9387 O   0  0  0  0  0  0  0  0  0  0  0  0
   48.2686    8.1338   20.2838 C   0  0  2  0  0  0  0  0  0  0  0  0
   47.6849    9.5532   20.4161 C   0  0  0  0  0  0  0  0  0  0  0  0
   46.3424    9.6079   19.9260 O   0  0  0  0  0  0  0  0  0  0  0  0
   49.0468    7.7645   21.5428 C   0  0  0  0  0  0  0  0  0  0  0  0
   48.6171    6.6973   22.3468 C   0  0  0  0  0  0  0  0  0  0  0  0
   49.2998    6.3717   23.5211 C   0  0  0  0  0  0  0  0  0  0  0  0
   50.4214    7.1058   23.9036 C   0  0  0  0  0  0  0  0  0  0  0  0
   50.8637    8.1646   23.1127 C   0  0  0  0  0  0  0  0  0  0  0  0
   50.1817    8.4935   21.9400 C   0  0  0  0  0  0  0  0  0  0  0  0
   47.8213    8.3655   12.8564 C   0  0  0  0  0  0  0  0  0  0  0  0
   48.0356    8.1207   14.2812 N   0  0  0  0  0  0  0  0  0  0  0  0
   49.0989    7.1316   14.5406 C   0  0  1  0  0  0  0  0  0  0  0  0
   50.4063    7.9086   14.3601 C   0  0  0  0  0  0  0  0  0  0  0  0
   50.0352    9.3555   14.6614 C   0  0  0  0  0  0  0  0  0  0  0  0
   48.5380    9.3106   14.9921 C   0  0  2  0  0  0  0  0  0  0  0  0
   48.3168    9.0926   16.4997 C   0  0  0  0  0  0  0  0  0  0  0  0
   48.1759    7.6136   16.8945 C   0  0  1  0  0  0  0  0  0  0  0  0
   48.9525    6.6414   15.9929 C   0  0  0  0  0  0  0  0  0  0  0  0
   48.6130    7.4865   18.2641 O   0  0  0  0  0  0  0  0  0  0  0  0
   48.1478    6.4216   18.9720 C   0  0  0  0  0  0  0  0  0  0  0  0
   47.4251    5.5416   18.5188 O   0  0  0  0  0  0  0  0  0  0  0  0
   48.7101    6.4119   20.3873 C   0  0  2  0  0  0  0  0  0  0  0  0
   47.9684    5.3682   21.2350 C   0  0  0  0  0  0  0  0  0  0  0  0
   48.2775    4.0429   20.8037 O   0  0  0  0  0  0  0  0  0  0  0  0
   48.6707    7.7794   21.0541 C   0  0  0  0  0  0  0  0  0  0  0  0
   47.4566    8.4542   21.2703 C   0  0  0  0  0  0  0  0  0  0  0  0
   47.4441    9.7133   21.8728 C   0  0  0  0  0  0  0  0  0  0  0  0
   48.6411   10.3125   22.2652 C   0  0  0  0  0  0  0  0  0  0  0  0
   49.8526    9.6532   22.0587 C   0  0  0  0  0  0  0  0  0  0  0  0
   49.8687    8.3950   21.4555 C   0  0  0  0  0  0  0  0  0  0  0  0
   49.2561    7.9671   17.8285 S   0  0  0  0  0  0  0  0  0  0  0  0
   49.8685    8.9594   16.9823 O   0  0  0  0  0  0  0  0  0  0  0  0
   48.4311    6.9904   16.8596 O   0  0  0  0  0  0  0  0  0  0  0  0
   48.0670    8.6649   18.6501 O   0  0  0  0  0  0  0  0  0  0  0  0
   49.9836    7.1603   18.7757 O   0  0  0  0  0  0  0  0  0  0  0  0
   49.2057    7.9441   17.7904 O   0  0  0  0  0  0  0  0  0  0  0  0
   49.2062    7.9440   17.7974 O   0  0  0  0  0  0  0  0  0  0  0  0
   50.8877    7.4568   12.5863 H   0  0  0  0  0  0  0  0  0  0  0  0
   50.5257    9.1700   12.4089 H   0  0  0  0  0  0  0  0  0  0  0  0
   49.3147    7.9621   11.9474 H   0  0  0  0  0  0  0  0  0  0  0  0
   48.6475   10.1487   13.7300 H   0  0  0  0  0  0  0  0  0  0  0  0
   47.1145    8.6839   12.6639 H   0  0  0  0  0  0  0  0  0  0  0  0
   46.3427    8.7392   14.2498 H   0  0  0  0  0  0  0  0  0  0  0  0
   47.5838    6.4957   12.9166 H   0  0  0  0  0  0  0  0  0  0  0  0
   46.8546    6.4750   14.5259 H   0  0  0  0  0  0  0  0  0  0  0  0
   49.5635    6.0872   14.1593 H   0  0  0  0  0  0  0  0  0  0  0  0
   48.0722    6.4336   16.4056 H   0  0  0  0  0  0  0  0  0  0  0  0
   49.8178    6.4133   16.4184 H   0  0  0  0  0  0  0  0  0  0  0  0
   50.0744    8.6654   16.7709 H   0  0  0  0  0  0  0  0  0  0  0  0
   48.8739   10.4194   16.0006 H   0  0  0  0  0  0  0  0  0  0  0  0
   47.3193    9.6241   16.0496 H   0  0  0  0  0  0  0  0  0  0  0  0
   47.4505    7.4089   20.1664 H   0  0  0  0  0  0  0  0  0  0  0  0
   48.2731   10.2894   19.8567 H   0  0  0  0  0  0  0  0  0  0  0  0
   47.6443    9.8932   21.4570 H   0  0  0  0  0  0  0  0  0  0  0  0
   45.7875    9.0793   20.5277 H   0  0  0  0  0  0  0  0  0  0  0  0
   47.7440    6.1092   22.0684 H   0  0  0  0  0  0  0  0  0  0  0  0
   48.9590    5.5438   24.1376 H   0  0  0  0  0  0  0  0  0  0  0  0
   50.9543    6.8504   24.8164 H   0  0  0  0  0  0  0  0  0  0  0  0
   51.7421    8.7334   23.4072 H   0  0  0  0  0  0  0  0  0  0  0  0
   50.5556    9.3147   21.3306 H   0  0  0  0  0  0  0  0  0  0  0  0
   47.0046    9.0838   12.7193 H   0  0  0  0  0  0  0  0  0  0  0  0
   47.5125    7.4400   12.3557 H   0  0  0  0  0  0  0  0  0  0  0  0
   48.7016    8.7549   12.3341 H   0  0  0  0  0  0  0  0  0  0  0  0
   49.0588    6.2665   13.8681 H   0  0  0  0  0  0  0  0  0  0  0  0
   50.7633    7.8295   13.3265 H   0  0  0  0  0  0  0  0  0  0  0  0
   51.2123    7.5540   15.0107 H   0  0  0  0  0  0  0  0  0  0  0  0
   50.6478    9.7693   15.4694 H   0  0  0  0  0  0  0  0  0  0  0  0
   50.2151    9.9692   13.7701 H   0  0  0  0  0  0  0  0  0  0  0  0
   48.0414   10.2414   14.6905 H   0  0  0  0  0  0  0  0  0  0  0  0
   49.1056    9.5808   17.0876 H   0  0  0  0  0  0  0  0  0  0  0  0
   47.3880    9.5989   16.7991 H   0  0  0  0  0  0  0  0  0  0  0  0
   47.1068    7.3666   16.8420 H   0  0  0  0  0  0  0  0  0  0  0  0
   49.9293    6.4056   16.4326 H   0  0  0  0  0  0  0  0  0  0  0  0
   48.4014    5.6910   15.9820 H   0  0  0  0  0  0  0  0  0  0  0  0
   49.7525    6.0814   20.2767 H   0  0  0  0  0  0  0  0  0  0  0  0
   48.2744    5.4382   22.2847 H   0  0  0  0  0  0  0  0  0  0  0  0
   46.8807    5.4959   21.1978 H   0  0  0  0  0  0  0  0  0  0  0  0
   47.8518    3.9310   19.9285 H   0  0  0  0  0  0  0  0  0  0  0  0
   46.5093    8.0095   20.9678 H   0  0  0  0  0  0  0  0  0  0  0  0
   46.5006   10.2306   22.0352 H   0  0  0  0  0  0  0  0  0  0  0  0
   48.6279   11.2911   22.7379 H   0  0  0  0  0  0  0  0  0  0  0  0
   50.7836   10.1176   22.3696 H   0  0  0  0  0  0  0  0  0  0  0  0
   50.8246    7.8970   21.2981 H   0  0  0  0  0  0  0  0  0  0  0  0
   48.2023    7.5066   16.0574 H   0  0  0  0  0  0  0  0  0  0  0  0
   47.8630    8.0800   19.4104 H   0  0  0  0  0  0  0  0  0  0  0  0
   48.6033    7.8897   17.0332 H   0  0  0  0  0  0  0  0  0  0  0  0
   48.6217    7.8785   18.5611 H   0  0  0  0  0  0  0  0  0  0  0  0
   48.6164    7.8911   17.0302 H   0  0  0  0  0  0  0  0  0  0  0  0
   48.6082    7.8772   18.5571 H   0  0  0  0  0  0  0  0  0  0  0  0
  1  2  1  0
  3  2  1  0
  3  4  1  0
  4  5  1  0
  6  5  1  0
  6  2  1  0
  6  7  1  0
  7  8  1  0
  8  9  1  0
  3  9  1  0
  8 10  1  0
 10 11  1  0
 11 12  2  0
 11 13  1  0
 13 14  1  0
 14 15  1  0
 13 16  1  0
 16 17  2  0
 17 18  1  0
 18 19  2  0
 19 20  1  0
 20 21  2  0
 16 21  1  0
 22 23  1  0
 24 23  1  0
 24 25  1  0
 25 26  1  0
 27 26  1  0
 27 23  1  0
 27 28  1  0
 28 29  1  0
 29 30  1  0
 24 30  1  0
 29 31  1  0
 31 32  1  0
 32 33  2  0
 32 34  1  0
 34 35  1  0
 35 36  1  0
 34 37  1  0
 37 38  2  0
 38 39  1  0
 39 40  2  0
 40 41  1  0
 41 42  2  0
 37 42  1  0
 43 44  2  0
 43 45  1  0
 43 46  1  0
 43 47  2  0
  1 50  1  0
  1 51  1  0
  1 52  1  0
  3 53  1  1
  4 54  1  0
  4 55  1  0
  5 56  1  0
  5 57  1  0
  6 58  1  6
  7 59  1  0
  7 60  1  0
  8 61  1  1
  9 62  1  0
  9 63  1  0
 13 64  1  6
 14 65  1  0
 14 66  1  0
 15 67  1  0
 17 68  1  0
 18 69  1  0
 19 70  1  0
 20 71  1  0
 21 72  1  0
 22 73  1  0
 22 74  1  0
 22 75  1  0
 24 76  1  6
 25 77  1  0
 25 78  1  0
 26 79  1  0
 26 80  1  0
 27 81  1  1
 28 82  1  0
 28 83  1  0
 29 84  1  6
 30 85  1  0
 30 86  1  0
 34 87  1  6
 35 88  1  0
 35 89  1  0
 36 90  1  0
 38 91  1  0
 39 92  1  0
 40 93  1  0
 41 94  1  0
 42 95  1  0
 45 96  1  0
 46 97  1  0
 48 98  1  0
 48 99  1  0
 49100  1  0
 49101  1  0
M  END
> <Uni-Dock RESULT> 
ENERGY=   -4.722  LOWER_BOUND=    4.519  UPPER_BOUND=    7.102
INTER + INTRA:          -4.722
INTER:                  -4.722
INTRA:                   0.000
UNBOUND:                 0.000

$$$$
