
     RDKit          3D

 27 20  0  0  0  0  0  0  0  0999 V2000
   47.5843    1.3328    6.9646 O   0  0  0  0  0  0  0  0  0  0  0  0
   47.3664    2.0880    6.4085 C   0  0  0  0  0  0  0  0  0  0  0  0
   48.4656    1.9789    5.7968 O   0  0  0  0  0  0  0  0  0  0  0  0
   46.4540    2.9524    6.2873 O   0  0  0  0  0  0  0  0  0  0  0  0
   47.1010    1.0146    7.4497 C   0  0  0  0  0  0  0  0  0  0  0  0
   47.4331    2.2043    6.5873 C   0  0  0  0  0  0  0  0  0  0  0  0
   46.4607    2.9027    6.1866 O   0  0  0  0  0  0  0  0  0  0  0  0
   48.6748    2.4026    6.4726 O   0  0  0  0  0  0  0  0  0  0  0  0
   47.0510    0.9296    7.3195 C   0  0  0  0  0  0  0  0  0  0  0  0
   47.2124    1.4667    7.0096 Mg  0  0  0  0  0 15  0  0  0  0  0  0
   47.5845    1.3338    6.9637 O   0  0  0  0  0  0  0  0  0  0  0  0
   47.5844    1.3334    6.9641 O   0  0  0  0  0  0  0  0  0  0  0  0
   47.5843    1.3328    6.9646 O   0  0  0  0  0  0  0  0  0  0  0  0
   46.8768    0.9574    7.5100 H   0  0  0  0  0  0  0  0  0  0  0  0
   47.1760    2.1099    6.5541 H   0  0  0  0  0  0  0  0  0  0  0  0
   46.5854    0.1718    6.9803 H   0  0  0  0  0  0  0  0  0  0  0  0
   46.4758    1.4046    8.2588 H   0  0  0  0  0  0  0  0  0  0  0  0
   48.0387    0.6566    7.8857 H   0  0  0  0  0  0  0  0  0  0  0  0
   47.8029    0.6752    8.0728 H   0  0  0  0  0  0  0  0  0  0  0  0
   46.0875    1.0458    7.8251 H   0  0  0  0  0  0  0  0  0  0  0  0
   46.9766    0.1066    6.6029 H   0  0  0  0  0  0  0  0  0  0  0  0
   47.1737    2.1103    6.5548 H   0  0  0  0  0  0  0  0  0  0  0  0
   46.8790    0.9561    7.5101 H   0  0  0  0  0  0  0  0  0  0  0  0
   47.1748    2.1101    6.5545 H   0  0  0  0  0  0  0  0  0  0  0  0
   46.8780    0.9566    7.5101 H   0  0  0  0  0  0  0  0  0  0  0  0
   47.1761    2.1099    6.5541 H   0  0  0  0  0  0  0  0  0  0  0  0
   46.8766    0.9574    7.5100 H   0  0  0  0  0  0  0  0  0  0  0  0
  5  2  1  0
  3  2  1  0
  4  2  2  0
  7  6  1  0
  8  6  2  0
  9  6  1  0
  1 14  1  0
  1 15  1  0
  5 16  1  0
  5 17  1  0
  5 18  1  0
  9 19  1  0
  9 20  1  0
  9 21  1  0
 11 22  1  0
 11 23  1  0
 12 24  1  0
 12 25  1  0
 13 26  1  0
 13 27  1  0
M  CHG  3   3  -1   7  -1  10   2
M  END
> <Uni-Dock RESULT> 
ENERGY=   -6.476  LOWER_BOUND=    0.000  UPPER_BOUND=    0.000
INTER + INTRA:          -6.476
INTER:                  -6.476
INTRA:                   0.000
UNBOUND:                 0.000

$$$$

     RDKit          3D

 27 20  0  0  0  0  0  0  0  0999 V2000
   47.1676    2.7382    6.9542 O   0  0  0  0  0  0  0  0  0  0  0  0
   47.5987    2.2907    6.2186 C   0  0  0  0  0  0  0  0  0  0  0  0
   47.5723    1.1947    6.8452 O   0  0  0  0  0  0  0  0  0  0  0  0
   48.0996    2.5689    5.0935 O   0  0  0  0  0  0  0  0  0  0  0  0
   46.9243    3.4525    6.9273 C   0  0  0  0  0  0  0  0  0  0  0  0
   47.7829    2.3812    6.3071 C   0  0  0  0  0  0  0  0  0  0  0  0
   48.0215    2.4907    5.0722 O   0  0  0  0  0  0  0  0  0  0  0  0
   48.2431    1.5635    7.1520 O   0  0  0  0  0  0  0  0  0  0  0  0
   46.7895    3.3874    6.8619 C   0  0  0  0  0  0  0  0  0  0  0  0
   47.2077    2.9621    6.6278 Mg  0  0  0  0  0 15  0  0  0  0  0  0
   47.1683    2.7372    6.9536 O   0  0  0  0  0  0  0  0  0  0  0  0
   47.1680    2.7377    6.9538 O   0  0  0  0  0  0  0  0  0  0  0  0
   47.1676    2.7382    6.9542 O   0  0  0  0  0  0  0  0  0  0  0  0
   46.8356    3.6356    6.8018 H   0  0  0  0  0  0  0  0  0  0  0  0
   47.6198    2.5124    6.1274 H   0  0  0  0  0  0  0  0  0  0  0  0
   45.8681    3.4875    6.6446 H   0  0  0  0  0  0  0  0  0  0  0  0
   47.3951    4.4012    6.6520 H   0  0  0  0  0  0  0  0  0  0  0  0
   46.9957    3.3388    8.0133 H   0  0  0  0  0  0  0  0  0  0  0  0
   47.0165    3.6203    7.9068 H   0  0  0  0  0  0  0  0  0  0  0  0
   46.8205    4.3199    6.2903 H   0  0  0  0  0  0  0  0  0  0  0  0
   45.7796    2.9715    6.8042 H   0  0  0  0  0  0  0  0  0  0  0  0
   47.6197    2.5142    6.1257 H   0  0  0  0  0  0  0  0  0  0  0  0
   46.8351    3.6347    6.8040 H   0  0  0  0  0  0  0  0  0  0  0  0
   47.6198    2.5133    6.1265 H   0  0  0  0  0  0  0  0  0  0  0  0
   46.8353    3.6352    6.8030 H   0  0  0  0  0  0  0  0  0  0  0  0
   47.6198    2.5123    6.1275 H   0  0  0  0  0  0  0  0  0  0  0  0
   46.8356    3.6358    6.8016 H   0  0  0  0  0  0  0  0  0  0  0  0
  5  2  1  0
  3  2  1  0
  4  2  2  0
  7  6  1  0
  8  6  2  0
  9  6  1  0
  1 14  1  0
  1 15  1  0
  5 16  1  0
  5 17  1  0
  5 18  1  0
  9 19  1  0
  9 20  1  0
  9 21  1  0
 11 22  1  0
 11 23  1  0
 12 24  1  0
 12 25  1  0
 13 26  1  0
 13 27  1  0
M  CHG  3   3  -1   7  -1  10   2
M  END
> <Uni-Dock RESULT> 
ENERGY=   -6.108  LOWER_BOUND=    1.038  UPPER_BOUND=    1.662
INTER + INTRA:          -6.108
INTER:                  -6.108
INTRA:                   0.000
UNBOUND:                 0.000

$$$$

     RDKit          3D

 27 20  0  0  0  0  0  0  0  0999 V2000
   47.3810    2.9156    6.6008 O   0  0  0  0  0  0  0  0  0  0  0  0
   47.6692    2.0253    6.8274 C   0  0  0  0  0  0  0  0  0  0  0  0
   48.7801    2.2200    6.2598 O   0  0  0  0  0  0  0  0  0  0  0  0
   47.2113    0.9848    7.3769 O   0  0  0  0  0  0  0  0  0  0  0  0
   46.7413    3.2275    6.8533 C   0  0  0  0  0  0  0  0  0  0  0  0
   47.5447    1.9694    6.6504 C   0  0  0  0  0  0  0  0  0  0  0  0
   47.3037    1.0106    7.4356 O   0  0  0  0  0  0  0  0  0  0  0  0
   48.2880    2.0145    5.6307 O   0  0  0  0  0  0  0  0  0  0  0  0
   46.8312    3.2683    6.9833 C   0  0  0  0  0  0  0  0  0  0  0  0
   47.1333    2.7207    6.8435 Mg  0  0  0  0  0 15  0  0  0  0  0  0
   47.3817    2.9146    6.6007 O   0  0  0  0  0  0  0  0  0  0  0  0
   47.3814    2.9151    6.6008 O   0  0  0  0  0  0  0  0  0  0  0  0
   47.3809    2.9157    6.6008 O   0  0  0  0  0  0  0  0  0  0  0  0
   46.5756    3.2487    7.0243 H   0  0  0  0  0  0  0  0  0  0  0  0
   47.4431    1.9978    6.9053 H   0  0  0  0  0  0  0  0  0  0  0  0
   46.9312    3.8144    7.7566 H   0  0  0  0  0  0  0  0  0  0  0  0
   45.6941    2.9098    6.8522 H   0  0  0  0  0  0  0  0  0  0  0  0
   46.9056    3.8633    5.9779 H   0  0  0  0  0  0  0  0  0  0  0  0
   46.6206    3.8389    6.0737 H   0  0  0  0  0  0  0  0  0  0  0  0
   45.8814    3.0712    7.4898 H   0  0  0  0  0  0  0  0  0  0  0  0
   47.4630    3.8724    7.6408 H   0  0  0  0  0  0  0  0  0  0  0  0
   47.4413    1.9971    6.9068 H   0  0  0  0  0  0  0  0  0  0  0  0
   46.5768    3.2504    7.0229 H   0  0  0  0  0  0  0  0  0  0  0  0
   47.4421    1.9974    6.9061 H   0  0  0  0  0  0  0  0  0  0  0  0
   46.5762    3.2497    7.0236 H   0  0  0  0  0  0  0  0  0  0  0  0
   47.4432    1.9979    6.9052 H   0  0  0  0  0  0  0  0  0  0  0  0
   46.5755    3.2486    7.0244 H   0  0  0  0  0  0  0  0  0  0  0  0
  5  2  1  0
  3  2  1  0
  4  2  2  0
  7  6  1  0
  8  6  2  0
  9  6  1  0
  1 14  1  0
  1 15  1  0
  5 16  1  0
  5 17  1  0
  5 18  1  0
  9 19  1  0
  9 20  1  0
  9 21  1  0
 11 22  1  0
 11 23  1  0
 12 24  1  0
 12 25  1  0
 13 26  1  0
 13 27  1  0
M  CHG  3   3  -1   7  -1  10   2
M  END
> <Uni-Dock RESULT> 
ENERGY=   -6.052  LOWER_BOUND=    0.872  UPPER_BOUND=    1.676
INTER + INTRA:          -6.052
INTER:                  -6.052
INTRA:                   0.000
UNBOUND:                 0.000

$$$$

     RDKit          3D

 27 20  0  0  0  0  0  0  0  0999 V2000
   47.2500    1.8098    7.1947 O   0  0  0  0  0  0  0  0  0  0  0  0
   46.7677    1.0315    7.4925 C   0  0  0  0  0  0  0  0  0  0  0  0
   45.8326    1.7564    7.9336 O   0  0  0  0  0  0  0  0  0  0  0  0
   46.9203   -0.2204    7.5539 O   0  0  0  0  0  0  0  0  0  0  0  0
   47.8794    1.7805    6.7785 C   0  0  0  0  0  0  0  0  0  0  0  0
   46.9098    1.0429    7.6647 C   0  0  0  0  0  0  0  0  0  0  0  0
   46.8251   -0.2054    7.4959 O   0  0  0  0  0  0  0  0  0  0  0  0
   46.3846    1.7790    8.5459 O   0  0  0  0  0  0  0  0  0  0  0  0
   47.7764    1.7715    6.6521 C   0  0  0  0  0  0  0  0  0  0  0  0
   47.4098    1.4645    7.0786 Mg  0  0  0  0  0 15  0  0  0  0  0  0
   47.2491    1.8091    7.1954 O   0  0  0  0  0  0  0  0  0  0  0  0
   47.2495    1.8094    7.1951 O   0  0  0  0  0  0  0  0  0  0  0  0
   47.2501    1.8098    7.1946 O   0  0  0  0  0  0  0  0  0  0  0  0
   48.0124    1.6706    6.6130 H   0  0  0  0  0  0  0  0  0  0  0  0
   46.9670    0.9129    7.4282 H   0  0  0  0  0  0  0  0  0  0  0  0
   47.6396    1.8599    5.7142 H   0  0  0  0  0  0  0  0  0  0  0  0
   48.8334    1.2556    6.8873 H   0  0  0  0  0  0  0  0  0  0  0  0
   47.9956    2.7877    7.1905 H   0  0  0  0  0  0  0  0  0  0  0  0
   48.2491    2.6479    7.1060 H   0  0  0  0  0  0  0  0  0  0  0  0
   48.5664    1.1158    6.2735 H   0  0  0  0  0  0  0  0  0  0  0  0
   47.1573    2.0995    5.8123 H   0  0  0  0  0  0  0  0  0  0  0  0
   46.9684    0.9112    7.4272 H   0  0  0  0  0  0  0  0  0  0  0  0
   48.0118    1.6730    6.6134 H   0  0  0  0  0  0  0  0  0  0  0  0
   46.9677    0.9120    7.4276 H   0  0  0  0  0  0  0  0  0  0  0  0
   48.0121    1.6720    6.6132 H   0  0  0  0  0  0  0  0  0  0  0  0
   46.9669    0.9130    7.4282 H   0  0  0  0  0  0  0  0  0  0  0  0
   48.0125    1.6705    6.6130 H   0  0  0  0  0  0  0  0  0  0  0  0
  5  2  1  0
  3  2  1  0
  4  2  2  0
  7  6  1  0
  8  6  2  0
  9  6  1  0
  1 14  1  0
  1 15  1  0
  5 16  1  0
  5 17  1  0
  5 18  1  0
  9 19  1  0
  9 20  1  0
  9 21  1  0
 11 22  1  0
 11 23  1  0
 12 24  1  0
 12 25  1  0
 13 26  1  0
 13 27  1  0
M  CHG  3   3  -1   7  -1  10   2
M  END
> <Uni-Dock RESULT> 
ENERGY=   -6.026  LOWER_BOUND=    1.153  UPPER_BOUND=    2.061
INTER + INTRA:          -6.026
INTER:                  -6.026
INTRA:                   0.000
UNBOUND:                 0.000

$$$$

     RDKit          3D

 27 20  0  0  0  0  0  0  0  0999 V2000
   42.7910    5.4966   12.6577 O   0  0  0  0  0  0  0  0  0  0  0  0
   42.8492    5.4788   11.6968 C   0  0  0  0  0  0  0  0  0  0  0  0
   42.3748    6.6469   11.6275 O   0  0  0  0  0  0  0  0  0  0  0  0
   43.1649    4.6764   10.7744 O   0  0  0  0  0  0  0  0  0  0  0  0
   43.0747    4.9592   13.1060 C   0  0  0  0  0  0  0  0  0  0  0  0
   42.6599    5.3613   11.7147 C   0  0  0  0  0  0  0  0  0  0  0  0
   43.2311    4.7660   10.7590 O   0  0  0  0  0  0  0  0  0  0  0  0
   41.6989    6.1801   11.7008 O   0  0  0  0  0  0  0  0  0  0  0  0
   43.2136    5.0440   13.0930 C   0  0  0  0  0  0  0  0  0  0  0  0
   42.9807    5.1789   12.5115 Mg  0  0  0  0  0 15  0  0  0  0  0  0
   42.7907    5.4969   12.6565 O   0  0  0  0  0  0  0  0  0  0  0  0
   42.7909    5.4968   12.6570 O   0  0  0  0  0  0  0  0  0  0  0  0
   42.7910    5.4965   12.6578 O   0  0  0  0  0  0  0  0  0  0  0  0
   43.2400    4.7917   13.1482 H   0  0  0  0  0  0  0  0  0  0  0  0
   42.9112    5.2484   11.7287 H   0  0  0  0  0  0  0  0  0  0  0  0
   44.0826    5.2275   13.4359 H   0  0  0  0  0  0  0  0  0  0  0  0
   42.9702    3.8704   13.1398 H   0  0  0  0  0  0  0  0  0  0  0  0
   42.3486    5.3931   13.8004 H   0  0  0  0  0  0  0  0  0  0  0  0
   42.4265    5.1061   13.8506 H   0  0  0  0  0  0  0  0  0  0  0  0
   43.6339    4.0340   13.1200 H   0  0  0  0  0  0  0  0  0  0  0  0
   44.0013    5.7607   13.3426 H   0  0  0  0  0  0  0  0  0  0  0  0
   42.9125    5.2463   11.7284 H   0  0  0  0  0  0  0  0  0  0  0  0
   43.2389    4.7935   13.1496 H   0  0  0  0  0  0  0  0  0  0  0  0
   42.9119    5.2473   11.7285 H   0  0  0  0  0  0  0  0  0  0  0  0
   43.2394    4.7926   13.1490 H   0  0  0  0  0  0  0  0  0  0  0  0
   42.9112    5.2485   11.7288 H   0  0  0  0  0  0  0  0  0  0  0  0
   43.2400    4.7916   13.1481 H   0  0  0  0  0  0  0  0  0  0  0  0
  5  2  1  0
  3  2  1  0
  4  2  2  0
  7  6  1  0
  8  6  2  0
  9  6  1  0
  1 14  1  0
  1 15  1  0
  5 16  1  0
  5 17  1  0
  5 18  1  0
  9 19  1  0
  9 20  1  0
  9 21  1  0
 11 22  1  0
 11 23  1  0
 12 24  1  0
 12 25  1  0
 13 26  1  0
 13 27  1  0
M  CHG  3   3  -1   7  -1  10   2
M  END
> <Uni-Dock RESULT> 
ENERGY=   -4.978  LOWER_BOUND=    7.506  UPPER_BOUND=    8.097
INTER + INTRA:          -4.978
INTER:                  -4.978
INTRA:                   0.000
UNBOUND:                 0.000

$$$$

     RDKit          3D

 27 20  0  0  0  0  0  0  0  0999 V2000
   42.7926    4.7320   11.4702 O   0  0  0  0  0  0  0  0  0  0  0  0
   42.7315    5.3203   12.2299 C   0  0  0  0  0  0  0  0  0  0  0  0
   41.8009    5.9697   11.6762 O   0  0  0  0  0  0  0  0  0  0  0  0
   43.3162    5.5214   13.3308 O   0  0  0  0  0  0  0  0  0  0  0  0
   43.2227    4.1115   11.4524 C   0  0  0  0  0  0  0  0  0  0  0  0
   42.9085    5.4176   12.1344 C   0  0  0  0  0  0  0  0  0  0  0  0
   43.2083    5.5043   13.3577 O   0  0  0  0  0  0  0  0  0  0  0  0
   42.4779    6.3004   11.3410 O   0  0  0  0  0  0  0  0  0  0  0  0
   43.0941    4.0397   11.5228 C   0  0  0  0  0  0  0  0  0  0  0  0
   43.0146    4.6207   11.7810 Mg  0  0  0  0  0 15  0  0  0  0  0  0
   42.7923    4.7331   11.4708 O   0  0  0  0  0  0  0  0  0  0  0  0
   42.7924    4.7326   11.4705 O   0  0  0  0  0  0  0  0  0  0  0  0
   42.7926    4.7319   11.4701 O   0  0  0  0  0  0  0  0  0  0  0  0
   43.3241    3.9275   11.5664 H   0  0  0  0  0  0  0  0  0  0  0  0
   42.9271    5.2027   12.3064 H   0  0  0  0  0  0  0  0  0  0  0  0
   42.6393    3.2321   11.7401 H   0  0  0  0  0  0  0  0  0  0  0  0
   44.2793    3.9184   11.6618 H   0  0  0  0  0  0  0  0  0  0  0  0
   43.1123    4.2718   10.3755 H   0  0  0  0  0  0  0  0  0  0  0  0
   43.3565    4.1181   10.4633 H   0  0  0  0  0  0  0  0  0  0  0  0
   43.8932    3.4927   12.0324 H   0  0  0  0  0  0  0  0  0  0  0  0
   42.1636    3.4722   11.6151 H   0  0  0  0  0  0  0  0  0  0  0  0
   42.9286    5.2015   12.3080 H   0  0  0  0  0  0  0  0  0  0  0  0
   43.3229    3.9277   11.5642 H   0  0  0  0  0  0  0  0  0  0  0  0
   42.9279    5.2021   12.3073 H   0  0  0  0  0  0  0  0  0  0  0  0
   43.3234    3.9275   11.5652 H   0  0  0  0  0  0  0  0  0  0  0  0
   42.9270    5.2027   12.3063 H   0  0  0  0  0  0  0  0  0  0  0  0
   43.3242    3.9274   11.5665 H   0  0  0  0  0  0  0  0  0  0  0  0
  5  2  1  0
  3  2  1  0
  4  2  2  0
  7  6  1  0
  8  6  2  0
  9  6  1  0
  1 14  1  0
  1 15  1  0
  5 16  1  0
  5 17  1  0
  5 18  1  0
  9 19  1  0
  9 20  1  0
  9 21  1  0
 11 22  1  0
 11 23  1  0
 12 24  1  0
 12 25  1  0
 13 26  1  0
 13 27  1  0
M  CHG  3   3  -1   7  -1  10   2
M  END
> <Uni-Dock RESULT> 
ENERGY=   -4.940  LOWER_BOUND=    7.186  UPPER_BOUND=    7.784
INTER + INTRA:          -4.940
INTER:                  -4.940
INTRA:                   0.000
UNBOUND:                 0.000

$$$$

     RDKit          3D

 27 20  0  0  0  0  0  0  0  0999 V2000
   42.5978    5.2319   12.2697 O   0  0  0  0  0  0  0  0  0  0  0  0
   43.4044    5.2649   12.7945 C   0  0  0  0  0  0  0  0  0  0  0  0
   43.1845    4.1042   13.2403 O   0  0  0  0  0  0  0  0  0  0  0  0
   44.3288    6.0784   13.0735 O   0  0  0  0  0  0  0  0  0  0  0  0
   42.4032    5.7581   11.7642 C   0  0  0  0  0  0  0  0  0  0  0  0
   43.2766    5.3845   12.9335 C   0  0  0  0  0  0  0  0  0  0  0  0
   44.3811    5.9882   13.0313 O   0  0  0  0  0  0  0  0  0  0  0  0
   42.7205    4.5782   13.7304 O   0  0  0  0  0  0  0  0  0  0  0  0
   42.4969    5.6717   11.6621 C   0  0  0  0  0  0  0  0  0  0  0  0
   42.8263    5.5495   12.1979 Mg  0  0  0  0  0 15  0  0  0  0  0  0
   42.5986    5.2315   12.2707 O   0  0  0  0  0  0  0  0  0  0  0  0
   42.5982    5.2317   12.2703 O   0  0  0  0  0  0  0  0  0  0  0  0
   42.5977    5.2319   12.2697 O   0  0  0  0  0  0  0  0  0  0  0  0
   42.4668    5.9227   11.6030 H   0  0  0  0  0  0  0  0  0  0  0  0
   43.4143    5.4939   12.7210 H   0  0  0  0  0  0  0  0  0  0  0  0
   42.7397    5.4716   10.7636 H   0  0  0  0  0  0  0  0  0  0  0  0
   42.3076    6.8474   11.8062 H   0  0  0  0  0  0  0  0  0  0  0  0
   41.4157    5.3219   11.9431 H   0  0  0  0  0  0  0  0  0  0  0  0
   41.4199    5.6071   11.8449 H   0  0  0  0  0  0  0  0  0  0  0  0
   42.7196    6.6757   11.2881 H   0  0  0  0  0  0  0  0  0  0  0  0
   42.7694    4.9410   10.8951 H   0  0  0  0  0  0  0  0  0  0  0  0
   43.4153    5.4960   12.7201 H   0  0  0  0  0  0  0  0  0  0  0  0
   42.4651    5.9210   11.6030 H   0  0  0  0  0  0  0  0  0  0  0  0
   43.4149    5.4950   12.7205 H   0  0  0  0  0  0  0  0  0  0  0  0
   42.4658    5.9218   11.6030 H   0  0  0  0  0  0  0  0  0  0  0  0
   43.4142    5.4938   12.7210 H   0  0  0  0  0  0  0  0  0  0  0  0
   42.4669    5.9229   11.6030 H   0  0  0  0  0  0  0  0  0  0  0  0
  5  2  1  0
  3  2  1  0
  4  2  2  0
  7  6  1  0
  8  6  2  0
  9  6  1  0
  1 14  1  0
  1 15  1  0
  5 16  1  0
  5 17  1  0
  5 18  1  0
  9 19  1  0
  9 20  1  0
  9 21  1  0
 11 22  1  0
 11 23  1  0
 12 24  1  0
 12 25  1  0
 13 26  1  0
 13 27  1  0
M  CHG  3   3  -1   7  -1  10   2
M  END
> <Uni-Dock RESULT> 
ENERGY=   -4.836  LOWER_BOUND=    8.085  UPPER_BOUND=    8.306
INTER + INTRA:          -4.836
INTER:                  -4.836
INTRA:                   0.000
UNBOUND:                 0.000

$$$$

     RDKit          3D

 27 20  0  0  0  0  0  0  0  0999 V2000
   45.8521    3.1343    7.9163 O   0  0  0  0  0  0  0  0  0  0  0  0
   45.1091    3.4093    8.4634 C   0  0  0  0  0  0  0  0  0  0  0  0
   45.3444    2.4789    9.2840 O   0  0  0  0  0  0  0  0  0  0  0  0
   44.1749    4.2586    8.4474 O   0  0  0  0  0  0  0  0  0  0  0  0
   46.1024    3.5245    7.3202 C   0  0  0  0  0  0  0  0  0  0  0  0
   44.9904    3.2971    8.3108 C   0  0  0  0  0  0  0  0  0  0  0  0
   44.2299    4.2775    8.5437 O   0  0  0  0  0  0  0  0  0  0  0  0
   44.9079    2.0978    8.6972 O   0  0  0  0  0  0  0  0  0  0  0  0
   46.1889    3.6075    7.4310 C   0  0  0  0  0  0  0  0  0  0  0  0
   45.6841    3.4767    7.8032 Mg  0  0  0  0  0 15  0  0  0  0  0  0
   45.8512    3.1342    7.9172 O   0  0  0  0  0  0  0  0  0  0  0  0
   45.8517    3.1343    7.9168 O   0  0  0  0  0  0  0  0  0  0  0  0
   45.8522    3.1343    7.9163 O   0  0  0  0  0  0  0  0  0  0  0  0
   46.1367    3.7340    7.2104 H   0  0  0  0  0  0  0  0  0  0  0  0
   45.0634    3.5616    8.2827 H   0  0  0  0  0  0  0  0  0  0  0  0
   46.9188    4.1910    7.6132 H   0  0  0  0  0  0  0  0  0  0  0  0
   45.6195    3.9296    6.4256 H   0  0  0  0  0  0  0  0  0  0  0  0
   46.5194    2.5446    7.0683 H   0  0  0  0  0  0  0  0  0  0  0  0
   46.4710    2.7325    6.8374 H   0  0  0  0  0  0  0  0  0  0  0  0
   45.9638    4.4280    6.7429 H   0  0  0  0  0  0  0  0  0  0  0  0
   47.0365    3.8962    8.0591 H   0  0  0  0  0  0  0  0  0  0  0  0
   45.0628    3.5637    8.2816 H   0  0  0  0  0  0  0  0  0  0  0  0
   46.1381    3.7320    7.2107 H   0  0  0  0  0  0  0  0  0  0  0  0
   45.0630    3.5628    8.2821 H   0  0  0  0  0  0  0  0  0  0  0  0
   46.1375    3.7330    7.2105 H   0  0  0  0  0  0  0  0  0  0  0  0
   45.0634    3.5615    8.2828 H   0  0  0  0  0  0  0  0  0  0  0  0
   46.1366    3.7342    7.2104 H   0  0  0  0  0  0  0  0  0  0  0  0
  5  2  1  0
  3  2  1  0
  4  2  2  0
  7  6  1  0
  8  6  2  0
  9  6  1  0
  1 14  1  0
  1 15  1  0
  5 16  1  0
  5 17  1  0
  5 18  1  0
  9 19  1  0
  9 20  1  0
  9 21  1  0
 11 22  1  0
 11 23  1  0
 12 24  1  0
 12 25  1  0
 13 26  1  0
 13 27  1  0
M  CHG  3   3  -1   7  -1  10   2
M  END
> <Uni-Dock RESULT> 
ENERGY=   -4.739  LOWER_BOUND=    2.642  UPPER_BOUND=    3.251
INTER + INTRA:          -4.739
INTER:                  -4.739
INTRA:                   0.000
UNBOUND:                 0.000

$$$$

     RDKit          3D

 27 20  0  0  0  0  0  0  0  0999 V2000
   45.1749    2.5989    8.5869 O   0  0  0  0  0  0  0  0  0  0  0  0
   44.8332    3.4579    8.3179 C   0  0  0  0  0  0  0  0  0  0  0  0
   45.4775    3.3959    7.2338 O   0  0  0  0  0  0  0  0  0  0  0  0
   44.1136    4.3864    8.7808 O   0  0  0  0  0  0  0  0  0  0  0  0
   44.9402    2.2265    9.2005 C   0  0  0  0  0  0  0  0  0  0  0  0
   44.9936    3.5338    8.4538 C   0  0  0  0  0  0  0  0  0  0  0  0
   44.0640    4.3563    8.6845 O   0  0  0  0  0  0  0  0  0  0  0  0
   46.0441    3.6700    7.7667 O   0  0  0  0  0  0  0  0  0  0  0  0
   44.8223    2.1710    9.1022 C   0  0  0  0  0  0  0  0  0  0  0  0
   44.8941    2.7455    8.8276 Mg  0  0  0  0  0 15  0  0  0  0  0  0
   45.1749    2.6000    8.5863 O   0  0  0  0  0  0  0  0  0  0  0  0
   45.1749    2.5995    8.5866 O   0  0  0  0  0  0  0  0  0  0  0  0
   45.1749    2.5988    8.5870 O   0  0  0  0  0  0  0  0  0  0  0  0
   44.7663    2.1734    9.3557 H   0  0  0  0  0  0  0  0  0  0  0  0
   44.7411    3.4641    8.5402 H   0  0  0  0  0  0  0  0  0  0  0  0
   44.1444    1.5224    8.9409 H   0  0  0  0  0  0  0  0  0  0  0  0
   44.8425    2.4960   10.2566 H   0  0  0  0  0  0  0  0  0  0  0  0
   45.9072    1.7331    9.0626 H   0  0  0  0  0  0  0  0  0  0  0  0
   45.7950    1.7311    9.3426 H   0  0  0  0  0  0  0  0  0  0  0  0
   44.2460    2.2512   10.0290 H   0  0  0  0  0  0  0  0  0  0  0  0
   44.2936    1.5047    8.4145 H   0  0  0  0  0  0  0  0  0  0  0  0
   44.7394    3.4645    8.5420 H   0  0  0  0  0  0  0  0  0  0  0  0
   44.7680    2.1720    9.3545 H   0  0  0  0  0  0  0  0  0  0  0  0
   44.7402    3.4643    8.5411 H   0  0  0  0  0  0  0  0  0  0  0  0
   44.7672    2.1726    9.3551 H   0  0  0  0  0  0  0  0  0  0  0  0
   44.7412    3.4641    8.5401 H   0  0  0  0  0  0  0  0  0  0  0  0
   44.7662    2.1735    9.3558 H   0  0  0  0  0  0  0  0  0  0  0  0
  5  2  1  0
  3  2  1  0
  4  2  2  0
  7  6  1  0
  8  6  2  0
  9  6  1  0
  1 14  1  0
  1 15  1  0
  5 16  1  0
  5 17  1  0
  5 18  1  0
  9 19  1  0
  9 20  1  0
  9 21  1  0
 11 22  1  0
 11 23  1  0
 12 24  1  0
 12 25  1  0
 13 26  1  0
 13 27  1  0
M  CHG  3   3  -1   7  -1  10   2
M  END
> <Uni-Dock RESULT> 
ENERGY=   -4.730  LOWER_BOUND=    2.953  UPPER_BOUND=    3.323
INTER + INTRA:          -4.730
INTER:                  -4.730
INTRA:                   0.000
UNBOUND:                 0.000

$$$$
