
     RDKit          3D

 27 20  0  0  0  0  0  0  0  0999 V2000
   47.4817    1.1006    7.0198 O   0  0  0  0  0  0  0  0  0  0  0  0
   46.7528    1.0742    7.6744 C   0  0  0  0  0  0  0  0  0  0  0  0
   46.6646   -0.1814    7.5787 O   0  0  0  0  0  0  0  0  0  0  0  0
   46.1133    1.8780    8.4092 O   0  0  0  0  0  0  0  0  0  0  0  0
   47.7851    1.7228    6.7687 C   0  0  0  0  0  0  0  0  0  0  0  0
   46.8492    0.9535    7.6743 C   0  0  0  0  0  0  0  0  0  0  0  0
   47.1293   -0.2778    7.6523 O   0  0  0  0  0  0  0  0  0  0  0  0
   45.9650    1.5716    8.3298 O   0  0  0  0  0  0  0  0  0  0  0  0
   47.7112    1.8190    6.7718 C   0  0  0  0  0  0  0  0  0  0  0  0
   47.3490    1.4517    7.1518 Mg  0  0  0  0  0 15  0  0  0  0  0  0
   47.4800    1.0994    7.0214 O   0  0  0  0  0  0  0  0  0  0  0  0
   47.4813    1.1004    7.0201 O   0  0  0  0  0  0  0  0  0  0  0  0
   47.4803    1.0996    7.0211 O   0  0  0  0  0  0  0  0  0  0  0  0
   47.7591    1.9865    6.7418 H   0  0  0  0  0  0  0  0  0  0  0  0
   46.8060    1.2678    7.6939 H   0  0  0  0  0  0  0  0  0  0  0  0
   47.2952    2.4368    6.1001 H   0  0  0  0  0  0  0  0  0  0  0  0
   48.5272    2.2532    7.3730 H   0  0  0  0  0  0  0  0  0  0  0  0
   48.3046    0.9778    6.1584 H   0  0  0  0  0  0  0  0  0  0  0  0
   48.7612    1.7310    7.0668 H   0  0  0  0  0  0  0  0  0  0  0  0
   47.4216    2.8723    6.8341 H   0  0  0  0  0  0  0  0  0  0  0  0
   47.6052    1.4919    5.7331 H   0  0  0  0  0  0  0  0  0  0  0  0
   46.8051    1.2729    7.6947 H   0  0  0  0  0  0  0  0  0  0  0  0
   47.7616    1.9827    6.7392 H   0  0  0  0  0  0  0  0  0  0  0  0
   46.8058    1.2690    7.6941 H   0  0  0  0  0  0  0  0  0  0  0  0
   47.7598    1.9856    6.7411 H   0  0  0  0  0  0  0  0  0  0  0  0
   47.7613    1.9832    6.7396 H   0  0  0  0  0  0  0  0  0  0  0  0
   46.8053    1.2722    7.6946 H   0  0  0  0  0  0  0  0  0  0  0  0
  5  2  1  0
  3  2  1  0
  4  2  2  0
  7  6  1  0
  8  6  2  0
  9  6  1  0
  1 14  1  0
  1 15  1  0
  5 16  1  0
  5 17  1  0
  5 18  1  0
  9 19  1  0
  9 20  1  0
  9 21  1  0
 11 22  1  0
 11 23  1  0
 12 24  1  0
 12 25  1  0
 13 26  1  0
 13 27  1  0
M  CHG  3   3  -1   7  -1  10   2
M  END
> <Uni-Dock RESULT> 
ENERGY=   -7.078  LOWER_BOUND=    0.000  UPPER_BOUND=    0.000
INTER + INTRA:          -7.078
INTER:                  -7.078
INTRA:                   0.000
UNBOUND:                 0.000

$$$$

     RDKit          3D

 27 20  0  0  0  0  0  0  0  0999 V2000
   47.2217    2.7605    7.0045 O   0  0  0  0  0  0  0  0  0  0  0  0
   47.7560    2.3653    6.2842 C   0  0  0  0  0  0  0  0  0  0  0  0
   48.1829    1.4576    7.0505 O   0  0  0  0  0  0  0  0  0  0  0  0
   47.9748    2.5580    5.0553 O   0  0  0  0  0  0  0  0  0  0  0  0
   46.8376    3.3849    6.9351 C   0  0  0  0  0  0  0  0  0  0  0  0
   47.6966    2.2668    6.3873 C   0  0  0  0  0  0  0  0  0  0  0  0
   47.7547    1.3123    7.2123 O   0  0  0  0  0  0  0  0  0  0  0  0
   48.2111    2.3784    5.2400 O   0  0  0  0  0  0  0  0  0  0  0  0
   46.8815    3.4612    6.8516 C   0  0  0  0  0  0  0  0  0  0  0  0
   47.2248    2.9560    6.6581 Mg  0  0  0  0  0 15  0  0  0  0  0  0
   47.2232    2.7586    7.0034 O   0  0  0  0  0  0  0  0  0  0  0  0
   47.2220    2.7600    7.0042 O   0  0  0  0  0  0  0  0  0  0  0  0
   47.2229    2.7589    7.0036 O   0  0  0  0  0  0  0  0  0  0  0  0
   46.8009    3.6075    6.7935 H   0  0  0  0  0  0  0  0  0  0  0  0
   47.6519    2.5001    6.1762 H   0  0  0  0  0  0  0  0  0  0  0  0
   47.2727    4.3848    6.8471 H   0  0  0  0  0  0  0  0  0  0  0  0
   45.8630    3.3762    6.4381 H   0  0  0  0  0  0  0  0  0  0  0  0
   46.6867    3.1655    7.9964 H   0  0  0  0  0  0  0  0  0  0  0  0
   45.8502    3.1526    7.0472 H   0  0  0  0  0  0  0  0  0  0  0  0
   46.8684    4.2529    6.0965 H   0  0  0  0  0  0  0  0  0  0  0  0
   47.3114    3.8681    7.7719 H   0  0  0  0  0  0  0  0  0  0  0  0
   47.6512    2.5036    6.1723 H   0  0  0  0  0  0  0  0  0  0  0  0
   46.8001    3.6060    6.7985 H   0  0  0  0  0  0  0  0  0  0  0  0
   47.6518    2.5009    6.1753 H   0  0  0  0  0  0  0  0  0  0  0  0
   46.8007    3.6072    6.7947 H   0  0  0  0  0  0  0  0  0  0  0  0
   46.8002    3.6061    6.7978 H   0  0  0  0  0  0  0  0  0  0  0  0
   47.6513    2.5032    6.1729 H   0  0  0  0  0  0  0  0  0  0  0  0
  5  2  1  0
  3  2  1  0
  4  2  2  0
  7  6  1  0
  8  6  2  0
  9  6  1  0
  1 14  1  0
  1 15  1  0
  5 16  1  0
  5 17  1  0
  5 18  1  0
  9 19  1  0
  9 20  1  0
  9 21  1  0
 11 22  1  0
 11 23  1  0
 12 24  1  0
 12 25  1  0
 13 26  1  0
 13 27  1  0
M  CHG  3   3  -1   7  -1  10   2
M  END
> <Uni-Dock RESULT> 
ENERGY=   -6.586  LOWER_BOUND=    1.609  UPPER_BOUND=    2.294
INTER + INTRA:          -6.586
INTER:                  -6.586
INTRA:                   0.000
UNBOUND:                 0.000

$$$$

     RDKit          3D

 27 20  0  0  0  0  0  0  0  0999 V2000
   47.2666    1.9183    7.1530 O   0  0  0  0  0  0  0  0  0  0  0  0
   47.6611    2.3356    6.3588 C   0  0  0  0  0  0  0  0  0  0  0  0
   47.2761    3.4805    6.7252 O   0  0  0  0  0  0  0  0  0  0  0  0
   48.3350    1.9923    5.3473 O   0  0  0  0  0  0  0  0  0  0  0  0
   47.2540    1.1915    7.2710 C   0  0  0  0  0  0  0  0  0  0  0  0
   47.6629    2.4197    6.4884 C   0  0  0  0  0  0  0  0  0  0  0  0
   47.4582    3.4634    7.1693 O   0  0  0  0  0  0  0  0  0  0  0  0
   48.1521    2.2898    5.3320 O   0  0  0  0  0  0  0  0  0  0  0  0
   47.2563    1.1247    7.1698 C   0  0  0  0  0  0  0  0  0  0  0  0
   47.4270    1.6724    6.8845 Mg  0  0  0  0  0 15  0  0  0  0  0  0
   47.2674    1.9203    7.1516 O   0  0  0  0  0  0  0  0  0  0  0  0
   47.2668    1.9187    7.1526 O   0  0  0  0  0  0  0  0  0  0  0  0
   47.2673    1.9200    7.1518 O   0  0  0  0  0  0  0  0  0  0  0  0
   47.2781    0.9494    7.1628 H   0  0  0  0  0  0  0  0  0  0  0  0
   47.7364    2.1496    6.3377 H   0  0  0  0  0  0  0  0  0  0  0  0
   46.6426    0.4743    6.7156 H   0  0  0  0  0  0  0  0  0  0  0  0
   48.1462    0.6820    7.6471 H   0  0  0  0  0  0  0  0  0  0  0  0
   46.6743    1.5507    8.1267 H   0  0  0  0  0  0  0  0  0  0  0  0
   47.8157    1.0052    8.1025 H   0  0  0  0  0  0  0  0  0  0  0  0
   47.4575    0.2583    6.5324 H   0  0  0  0  0  0  0  0  0  0  0  0
   46.1863    1.1457    7.3972 H   0  0  0  0  0  0  0  0  0  0  0  0
   47.7380    2.1455    6.3350 H   0  0  0  0  0  0  0  0  0  0  0  0
   47.2757    0.9514    7.1670 H   0  0  0  0  0  0  0  0  0  0  0  0
   47.7367    2.1487    6.3370 H   0  0  0  0  0  0  0  0  0  0  0  0
   47.2775    0.9498    7.1639 H   0  0  0  0  0  0  0  0  0  0  0  0
   47.2760    0.9512    7.1664 H   0  0  0  0  0  0  0  0  0  0  0  0
   47.7378    2.1460    6.3354 H   0  0  0  0  0  0  0  0  0  0  0  0
  5  2  1  0
  3  2  1  0
  4  2  2  0
  7  6  1  0
  8  6  2  0
  9  6  1  0
  1 14  1  0
  1 15  1  0
  5 16  1  0
  5 17  1  0
  5 18  1  0
  9 19  1  0
  9 20  1  0
  9 21  1  0
 11 22  1  0
 11 23  1  0
 12 24  1  0
 12 25  1  0
 13 26  1  0
 13 27  1  0
M  CHG  3   3  -1   7  -1  10   2
M  END
> <Uni-Dock RESULT> 
ENERGY=   -6.514  LOWER_BOUND=    1.393  UPPER_BOUND=    2.330
INTER + INTRA:          -6.514
INTER:                  -6.514
INTRA:                   0.000
UNBOUND:                 0.000

$$$$

     RDKit          3D

 27 20  0  0  0  0  0  0  0  0999 V2000
   46.7634    3.5593    6.4671 O   0  0  0  0  0  0  0  0  0  0  0  0
   47.2451    2.7092    6.3906 C   0  0  0  0  0  0  0  0  0  0  0  0
   47.1637    2.7353    5.1312 O   0  0  0  0  0  0  0  0  0  0  0  0
   47.8040    1.8685    7.1495 O   0  0  0  0  0  0  0  0  0  0  0  0
   46.5688    3.8642    7.1085 C   0  0  0  0  0  0  0  0  0  0  0  0
   47.2690    2.8119    6.2776 C   0  0  0  0  0  0  0  0  0  0  0  0
   47.3385    3.1786    5.0711 O   0  0  0  0  0  0  0  0  0  0  0  0
   47.7020    1.7637    6.8320 O   0  0  0  0  0  0  0  0  0  0  0  0
   46.5535    3.7846    7.1987 C   0  0  0  0  0  0  0  0  0  0  0  0
   46.8549    3.3760    6.8080 Mg  0  0  0  0  0 15  0  0  0  0  0  0
   46.7647    3.5575    6.4657 O   0  0  0  0  0  0  0  0  0  0  0  0
   46.7637    3.5589    6.4668 O   0  0  0  0  0  0  0  0  0  0  0  0
   46.7645    3.5578    6.4659 O   0  0  0  0  0  0  0  0  0  0  0  0
   46.5303    3.8257    7.3691 H   0  0  0  0  0  0  0  0  0  0  0  0
   47.2709    2.7428    6.5878 H   0  0  0  0  0  0  0  0  0  0  0  0
   45.7926    3.4812    7.7775 H   0  0  0  0  0  0  0  0  0  0  0  0
   47.3061    4.4164    7.6988 H   0  0  0  0  0  0  0  0  0  0  0  0
   46.1040    4.5568    6.4001 H   0  0  0  0  0  0  0  0  0  0  0  0
   47.0708    4.7487    7.1934 H   0  0  0  0  0  0  0  0  0  0  0  0
   46.5255    3.4128    8.2274 H   0  0  0  0  0  0  0  0  0  0  0  0
   45.5248    3.9313    6.8559 H   0  0  0  0  0  0  0  0  0  0  0  0
   47.2715    2.7414    6.5929 H   0  0  0  0  0  0  0  0  0  0  0  0
   46.5285    3.8289    7.3655 H   0  0  0  0  0  0  0  0  0  0  0  0
   47.2711    2.7425    6.5890 H   0  0  0  0  0  0  0  0  0  0  0  0
   46.5299    3.8265    7.3683 H   0  0  0  0  0  0  0  0  0  0  0  0
   46.5288    3.8285    7.3660 H   0  0  0  0  0  0  0  0  0  0  0  0
   47.2713    2.7416    6.5922 H   0  0  0  0  0  0  0  0  0  0  0  0
  5  2  1  0
  3  2  1  0
  4  2  2  0
  7  6  1  0
  8  6  2  0
  9  6  1  0
  1 14  1  0
  1 15  1  0
  5 16  1  0
  5 17  1  0
  5 18  1  0
  9 19  1  0
  9 20  1  0
  9 21  1  0
 11 22  1  0
 11 23  1  0
 12 24  1  0
 12 25  1  0
 13 26  1  0
 13 27  1  0
M  CHG  3   3  -1   7  -1  10   2
M  END
> <Uni-Dock RESULT> 
ENERGY=   -6.204  LOWER_BOUND=    2.162  UPPER_BOUND=    2.723
INTER + INTRA:          -6.204
INTER:                  -6.204
INTRA:                   0.000
UNBOUND:                 0.000

$$$$

     RDKit          3D

 27 20  0  0  0  0  0  0  0  0999 V2000
   45.7515    3.9064    7.5924 O   0  0  0  0  0  0  0  0  0  0  0  0
   46.3287    3.1693    7.3025 C   0  0  0  0  0  0  0  0  0  0  0  0
   46.6733    3.7999    6.2647 O   0  0  0  0  0  0  0  0  0  0  0  0
   46.6959    2.0359    7.7215 O   0  0  0  0  0  0  0  0  0  0  0  0
   45.3174    3.8782    8.1865 C   0  0  0  0  0  0  0  0  0  0  0  0
   46.3768    3.3119    7.2672 C   0  0  0  0  0  0  0  0  0  0  0  0
   46.8039    4.2064    6.4847 O   0  0  0  0  0  0  0  0  0  0  0  0
   46.7200    2.1023    7.3792 O   0  0  0  0  0  0  0  0  0  0  0  0
   45.2823    3.7662    8.2171 C   0  0  0  0  0  0  0  0  0  0  0  0
   45.7441    3.5770    7.8153 Mg  0  0  0  0  0 15  0  0  0  0  0  0
   45.7534    3.9053    7.5909 O   0  0  0  0  0  0  0  0  0  0  0  0
   45.7519    3.9061    7.5920 O   0  0  0  0  0  0  0  0  0  0  0  0
   45.7531    3.9055    7.5911 O   0  0  0  0  0  0  0  0  0  0  0  0
   45.1985    3.7219    8.3664 H   0  0  0  0  0  0  0  0  0  0  0  0
   46.2825    3.1027    7.4872 H   0  0  0  0  0  0  0  0  0  0  0  0
   44.4131    3.2692    8.2769 H   0  0  0  0  0  0  0  0  0  0  0  0
   45.7416    4.0347    9.1828 H   0  0  0  0  0  0  0  0  0  0  0  0
   45.0388    4.8519    7.7723 H   0  0  0  0  0  0  0  0  0  0  0  0
   45.6521    4.5819    8.8456 H   0  0  0  0  0  0  0  0  0  0  0  0
   44.9545    2.9497    8.8677 H   0  0  0  0  0  0  0  0  0  0  0  0
   44.4193    4.1209    7.6457 H   0  0  0  0  0  0  0  0  0  0  0  0
   46.2815    3.0990    7.4908 H   0  0  0  0  0  0  0  0  0  0  0  0
   45.1976    3.7266    8.3644 H   0  0  0  0  0  0  0  0  0  0  0  0
   46.2823    3.1019    7.4880 H   0  0  0  0  0  0  0  0  0  0  0  0
   45.1982    3.7231    8.3659 H   0  0  0  0  0  0  0  0  0  0  0  0
   45.1977    3.7260    8.3646 H   0  0  0  0  0  0  0  0  0  0  0  0
   46.2815    3.0996    7.4903 H   0  0  0  0  0  0  0  0  0  0  0  0
  5  2  1  0
  3  2  1  0
  4  2  2  0
  7  6  1  0
  8  6  2  0
  9  6  1  0
  1 14  1  0
  1 15  1  0
  5 16  1  0
  5 17  1  0
  5 18  1  0
  9 19  1  0
  9 20  1  0
  9 21  1  0
 11 22  1  0
 11 23  1  0
 12 24  1  0
 12 25  1  0
 13 26  1  0
 13 27  1  0
M  CHG  3   3  -1   7  -1  10   2
M  END
> <Uni-Dock RESULT> 
ENERGY=   -5.343  LOWER_BOUND=    2.414  UPPER_BOUND=    3.153
INTER + INTRA:          -5.343
INTER:                  -5.343
INTRA:                   0.000
UNBOUND:                 0.000

$$$$

     RDKit          3D

 27 20  0  0  0  0  0  0  0  0999 V2000
   38.6458    5.2330    4.9262 O   0  0  0  0  0  0  0  0  0  0  0  0
   38.9662    4.4126    5.3561 C   0  0  0  0  0  0  0  0  0  0  0  0
   40.1699    4.7330    5.1514 O   0  0  0  0  0  0  0  0  0  0  0  0
   38.4848    3.4051    5.9461 O   0  0  0  0  0  0  0  0  0  0  0  0
   37.9345    5.3848    4.8111 C   0  0  0  0  0  0  0  0  0  0  0  0
   39.0547    4.5381    5.3736 C   0  0  0  0  0  0  0  0  0  0  0  0
   40.1455    5.1737    5.3407 O   0  0  0  0  0  0  0  0  0  0  0  0
   38.8049    3.3796    5.8081 O   0  0  0  0  0  0  0  0  0  0  0  0
   37.8638    5.2868    4.8010 C   0  0  0  0  0  0  0  0  0  0  0  0
   38.3677    4.9731    5.0420 Mg  0  0  0  0  0 15  0  0  0  0  0  0
   38.6476    5.2314    4.9272 O   0  0  0  0  0  0  0  0  0  0  0  0
   38.6462    5.2326    4.9264 O   0  0  0  0  0  0  0  0  0  0  0  0
   38.6473    5.2317    4.9270 O   0  0  0  0  0  0  0  0  0  0  0  0
   37.6870    5.2876    4.7969 H   0  0  0  0  0  0  0  0  0  0  0  0
   38.7706    4.3987    5.4030 H   0  0  0  0  0  0  0  0  0  0  0  0
   37.2912    4.8755    4.0875 H   0  0  0  0  0  0  0  0  0  0  0  0
   37.3165    5.7665    5.6293 H   0  0  0  0  0  0  0  0  0  0  0  0
   38.4112    6.2342    4.3124 H   0  0  0  0  0  0  0  0  0  0  0  0
   37.7039    6.2129    5.3614 H   0  0  0  0  0  0  0  0  0  0  0  0
   36.9506    4.6865    4.8573 H   0  0  0  0  0  0  0  0  0  0  0  0
   38.0509    5.5341    3.7518 H   0  0  0  0  0  0  0  0  0  0  0  0
   38.7660    4.3962    5.4039 H   0  0  0  0  0  0  0  0  0  0  0  0
   37.6895    5.2917    4.7949 H   0  0  0  0  0  0  0  0  0  0  0  0
   38.7695    4.3981    5.4032 H   0  0  0  0  0  0  0  0  0  0  0  0
   37.6875    5.2886    4.7964 H   0  0  0  0  0  0  0  0  0  0  0  0
   37.6892    5.2912    4.7952 H   0  0  0  0  0  0  0  0  0  0  0  0
   38.7666    4.3966    5.4037 H   0  0  0  0  0  0  0  0  0  0  0  0
  5  2  1  0
  3  2  1  0
  4  2  2  0
  7  6  1  0
  8  6  2  0
  9  6  1  0
  1 14  1  0
  1 15  1  0
  5 16  1  0
  5 17  1  0
  5 18  1  0
  9 19  1  0
  9 20  1  0
  9 21  1  0
 11 22  1  0
 11 23  1  0
 12 24  1  0
 12 25  1  0
 13 26  1  0
 13 27  1  0
M  CHG  3   3  -1   7  -1  10   2
M  END
> <Uni-Dock RESULT> 
ENERGY=   -5.278  LOWER_BOUND=    8.816  UPPER_BOUND=    9.455
INTER + INTRA:          -5.278
INTER:                  -5.278
INTRA:                   0.000
UNBOUND:                 0.000

$$$$

     RDKit          3D

 27 20  0  0  0  0  0  0  0  0999 V2000
   45.4303    1.8483    8.9038 O   0  0  0  0  0  0  0  0  0  0  0  0
   44.8215    2.6147    8.8536 C   0  0  0  0  0  0  0  0  0  0  0  0
   44.2830    2.3042    9.9523 O   0  0  0  0  0  0  0  0  0  0  0  0
   44.5996    3.5967    8.0911 O   0  0  0  0  0  0  0  0  0  0  0  0
   45.9032    1.6645    8.3700 C   0  0  0  0  0  0  0  0  0  0  0  0
   44.8681    2.5734    8.9951 C   0  0  0  0  0  0  0  0  0  0  0  0
   44.6885    2.2672   10.2071 O   0  0  0  0  0  0  0  0  0  0  0  0
   44.3441    3.4915    8.3052 O   0  0  0  0  0  0  0  0  0  0  0  0
   45.8691    1.6999    8.2591 C   0  0  0  0  0  0  0  0  0  0  0  0
   45.4472    2.0669    8.5718 Mg  0  0  0  0  0 15  0  0  0  0  0  0
   45.4286    1.8500    8.9047 O   0  0  0  0  0  0  0  0  0  0  0  0
   45.4299    1.8487    8.9040 O   0  0  0  0  0  0  0  0  0  0  0  0
   45.4288    1.8497    8.9046 O   0  0  0  0  0  0  0  0  0  0  0  0
   45.9694    1.6930    8.1136 H   0  0  0  0  0  0  0  0  0  0  0  0
   44.9418    2.6595    8.6981 H   0  0  0  0  0  0  0  0  0  0  0  0
   45.6237    1.2492    7.3972 H   0  0  0  0  0  0  0  0  0  0  0  0
   46.8504    2.2025    8.2680 H   0  0  0  0  0  0  0  0  0  0  0  0
   46.0492    0.8366    9.0705 H   0  0  0  0  0  0  0  0  0  0  0  0
   46.8464    1.7644    8.7469 H   0  0  0  0  0  0  0  0  0  0  0  0
   45.9814    2.0133    7.2168 H   0  0  0  0  0  0  0  0  0  0  0  0
   45.5330    0.6587    8.2729 H   0  0  0  0  0  0  0  0  0  0  0  0
   44.9430    2.6614    8.6934 H   0  0  0  0  0  0  0  0  0  0  0  0
   45.9701    1.6894    8.1173 H   0  0  0  0  0  0  0  0  0  0  0  0
   44.9421    2.6600    8.6970 H   0  0  0  0  0  0  0  0  0  0  0  0
   45.9696    1.6921    8.1145 H   0  0  0  0  0  0  0  0  0  0  0  0
   45.9700    1.6899    8.1169 H   0  0  0  0  0  0  0  0  0  0  0  0
   44.9429    2.6611    8.6940 H   0  0  0  0  0  0  0  0  0  0  0  0
  5  2  1  0
  3  2  1  0
  4  2  2  0
  7  6  1  0
  8  6  2  0
  9  6  1  0
  1 14  1  0
  1 15  1  0
  5 16  1  0
  5 17  1  0
  5 18  1  0
  9 19  1  0
  9 20  1  0
  9 21  1  0
 11 22  1  0
 11 23  1  0
 12 24  1  0
 12 25  1  0
 13 26  1  0
 13 27  1  0
M  CHG  3   3  -1   7  -1  10   2
M  END
> <Uni-Dock RESULT> 
ENERGY=   -4.922  LOWER_BOUND=    2.352  UPPER_BOUND=    2.973
INTER + INTRA:          -4.922
INTER:                  -4.922
INTRA:                   0.000
UNBOUND:                 0.000

$$$$

     RDKit          3D

 27 20  0  0  0  0  0  0  0  0999 V2000
   42.6153    5.1885   12.2584 O   0  0  0  0  0  0  0  0  0  0  0  0
   43.3796    5.3441   12.8518 C   0  0  0  0  0  0  0  0  0  0  0  0
   43.1105    4.3124   13.5275 O   0  0  0  0  0  0  0  0  0  0  0  0
   44.3326    6.1644   12.9696 O   0  0  0  0  0  0  0  0  0  0  0  0
   42.4114    5.6505   11.7224 C   0  0  0  0  0  0  0  0  0  0  0  0
   43.3435    5.1965   12.8238 C   0  0  0  0  0  0  0  0  0  0  0  0
   43.0828    4.0068   13.1580 O   0  0  0  0  0  0  0  0  0  0  0  0
   44.2355    5.9810   13.2508 O   0  0  0  0  0  0  0  0  0  0  0  0
   42.4426    5.7661   11.7419 C   0  0  0  0  0  0  0  0  0  0  0  0
   42.8213    5.5234   12.1982 Mg  0  0  0  0  0 15  0  0  0  0  0  0
   42.6169    5.1878   12.2602 O   0  0  0  0  0  0  0  0  0  0  0  0
   42.6156    5.1884   12.2588 O   0  0  0  0  0  0  0  0  0  0  0  0
   42.6167    5.1880   12.2599 O   0  0  0  0  0  0  0  0  0  0  0  0
   42.4304    5.8972   11.6238 H   0  0  0  0  0  0  0  0  0  0  0  0
   43.4184    5.4846   12.7124 H   0  0  0  0  0  0  0  0  0  0  0  0
   41.9603    6.6350   11.8778 H   0  0  0  0  0  0  0  0  0  0  0  0
   42.9447    5.6506   10.7670 H   0  0  0  0  0  0  0  0  0  0  0  0
   41.6102    4.9070   11.6712 H   0  0  0  0  0  0  0  0  0  0  0  0
   42.5248    5.1603   10.8344 H   0  0  0  0  0  0  0  0  0  0  0  0
   42.7170    6.7964   11.4959 H   0  0  0  0  0  0  0  0  0  0  0  0
   41.4029    5.7568   12.0824 H   0  0  0  0  0  0  0  0  0  0  0  0
   43.4202    5.4892   12.7107 H   0  0  0  0  0  0  0  0  0  0  0  0
   42.4269    5.8933   11.6236 H   0  0  0  0  0  0  0  0  0  0  0  0
   43.4189    5.4857   12.7120 H   0  0  0  0  0  0  0  0  0  0  0  0
   42.4295    5.8963   11.6237 H   0  0  0  0  0  0  0  0  0  0  0  0
   42.4273    5.8938   11.6237 H   0  0  0  0  0  0  0  0  0  0  0  0
   43.4199    5.4886   12.7109 H   0  0  0  0  0  0  0  0  0  0  0  0
  5  2  1  0
  3  2  1  0
  4  2  2  0
  7  6  1  0
  8  6  2  0
  9  6  1  0
  1 14  1  0
  1 15  1  0
  5 16  1  0
  5 17  1  0
  5 18  1  0
  9 19  1  0
  9 20  1  0
  9 21  1  0
 11 22  1  0
 11 23  1  0
 12 24  1  0
 12 25  1  0
 13 26  1  0
 13 27  1  0
M  CHG  3   3  -1   7  -1  10   2
M  END
> <Uni-Dock RESULT> 
ENERGY=   -4.907  LOWER_BOUND=    7.707  UPPER_BOUND=    7.875
INTER + INTRA:          -4.907
INTER:                  -4.907
INTRA:                   0.000
UNBOUND:                 0.000

$$$$
