
     RDKit          3D

 27 20  0  0  0  0  0  0  0  0999 V2000
   47.4408    1.1313    6.9336 O   0  0  0  0  0  0  0  0  0  0  0  0
   46.8932    0.9986    7.6881 C   0  0  0  0  0  0  0  0  0  0  0  0
   47.0572   -0.2500    7.5933 O   0  0  0  0  0  0  0  0  0  0  0  0
   46.1553    1.6618    8.4685 O   0  0  0  0  0  0  0  0  0  0  0  0
   47.7118    1.8245    6.7111 C   0  0  0  0  0  0  0  0  0  0  0  0
   46.7157    1.1422    7.6082 C   0  0  0  0  0  0  0  0  0  0  0  0
   46.7079   -0.1182    7.6883 O   0  0  0  0  0  0  0  0  0  0  0  0
   45.9329    1.9912    8.1180 O   0  0  0  0  0  0  0  0  0  0  0  0
   47.8416    1.7201    6.7685 C   0  0  0  0  0  0  0  0  0  0  0  0
   47.3675    1.4738    7.1223 Mg  0  0  0  0  0 15  0  0  0  0  0  0
   47.4396    1.1303    6.9351 O   0  0  0  0  0  0  0  0  0  0  0  0
   47.4419    1.1323    6.9323 O   0  0  0  0  0  0  0  0  0  0  0  0
   47.4408    1.1313    6.9336 O   0  0  0  0  0  0  0  0  0  0  0  0
   47.7562    2.0184    6.7041 H   0  0  0  0  0  0  0  0  0  0  0  0
   46.9056    1.2718    7.7291 H   0  0  0  0  0  0  0  0  0  0  0  0
   47.4500    1.5511    5.6846 H   0  0  0  0  0  0  0  0  0  0  0  0
   47.5274    2.8952    6.8417 H   0  0  0  0  0  0  0  0  0  0  0  0
   48.7778    1.6355    6.8685 H   0  0  0  0  0  0  0  0  0  0  0  0
   47.7953    2.8130    6.7372 H   0  0  0  0  0  0  0  0  0  0  0  0
   48.8072    1.4268    7.1913 H   0  0  0  0  0  0  0  0  0  0  0  0
   47.7721    1.3415    5.7445 H   0  0  0  0  0  0  0  0  0  0  0  0
   47.7576    2.0152    6.7013 H   0  0  0  0  0  0  0  0  0  0  0  0
   46.9055    1.2760    7.7304 H   0  0  0  0  0  0  0  0  0  0  0  0
   46.9058    1.2679    7.7280 H   0  0  0  0  0  0  0  0  0  0  0  0
   47.7549    2.0211    6.7066 H   0  0  0  0  0  0  0  0  0  0  0  0
   47.7562    2.0184    6.7041 H   0  0  0  0  0  0  0  0  0  0  0  0
   46.9056    1.2718    7.7291 H   0  0  0  0  0  0  0  0  0  0  0  0
  5  2  1  0
  3  2  1  0
  4  2  2  0
  7  6  1  0
  8  6  2  0
  9  6  1  0
  1 14  1  0
  1 15  1  0
  5 16  1  0
  5 17  1  0
  5 18  1  0
  9 19  1  0
  9 20  1  0
  9 21  1  0
 11 22  1  0
 11 23  1  0
 12 24  1  0
 12 25  1  0
 13 26  1  0
 13 27  1  0
M  CHG  3   3  -1   7  -1  10   2
M  END
> <Uni-Dock RESULT> 
ENERGY=   -6.969  LOWER_BOUND=    0.000  UPPER_BOUND=    0.000
INTER + INTRA:          -6.969
INTER:                  -6.969
INTRA:                   0.000
UNBOUND:                 0.000

$$$$

     RDKit          3D

 27 20  0  0  0  0  0  0  0  0999 V2000
   47.6558    1.4185    6.7634 O   0  0  0  0  0  0  0  0  0  0  0  0
   47.6060    2.2770    6.3797 C   0  0  0  0  0  0  0  0  0  0  0  0
   48.3395    1.8975    5.4242 O   0  0  0  0  0  0  0  0  0  0  0  0
   47.1553    3.4250    6.6484 O   0  0  0  0  0  0  0  0  0  0  0  0
   47.2082    1.1800    7.3518 C   0  0  0  0  0  0  0  0  0  0  0  0
   47.6599    2.3928    6.5852 C   0  0  0  0  0  0  0  0  0  0  0  0
   48.3945    2.2508    5.5678 O   0  0  0  0  0  0  0  0  0  0  0  0
   47.2732    3.4455    7.1646 O   0  0  0  0  0  0  0  0  0  0  0  0
   47.1690    1.0948    7.2026 C   0  0  0  0  0  0  0  0  0  0  0  0
   47.3774    1.6410    6.9403 Mg  0  0  0  0  0 15  0  0  0  0  0  0
   47.6562    1.4202    6.7621 O   0  0  0  0  0  0  0  0  0  0  0  0
   47.6553    1.4170    6.7647 O   0  0  0  0  0  0  0  0  0  0  0  0
   47.6558    1.4185    6.7634 O   0  0  0  0  0  0  0  0  0  0  0  0
   47.0686    1.1708    7.4934 H   0  0  0  0  0  0  0  0  0  0  0  0
   47.4078    2.3337    6.5639 H   0  0  0  0  0  0  0  0  0  0  0  0
   48.1036    0.7393    7.8000 H   0  0  0  0  0  0  0  0  0  0  0  0
   46.5750    1.5692    8.1550 H   0  0  0  0  0  0  0  0  0  0  0  0
   46.6543    0.3990    6.8226 H   0  0  0  0  0  0  0  0  0  0  0  0
   46.5392    1.2826    8.0776 H   0  0  0  0  0  0  0  0  0  0  0  0
   46.5829    0.5338    6.4686 H   0  0  0  0  0  0  0  0  0  0  0  0
   48.0232    0.4869    7.5152 H   0  0  0  0  0  0  0  0  0  0  0  0
   47.0714    1.1676    7.4922 H   0  0  0  0  0  0  0  0  0  0  0  0
   47.4046    2.3353    6.5665 H   0  0  0  0  0  0  0  0  0  0  0  0
   47.4108    2.3323    6.5615 H   0  0  0  0  0  0  0  0  0  0  0  0
   47.0662    1.1737    7.4945 H   0  0  0  0  0  0  0  0  0  0  0  0
   47.0686    1.1708    7.4934 H   0  0  0  0  0  0  0  0  0  0  0  0
   47.4078    2.3337    6.5639 H   0  0  0  0  0  0  0  0  0  0  0  0
  5  2  1  0
  3  2  1  0
  4  2  2  0
  7  6  1  0
  8  6  2  0
  9  6  1  0
  1 14  1  0
  1 15  1  0
  5 16  1  0
  5 17  1  0
  5 18  1  0
  9 19  1  0
  9 20  1  0
  9 21  1  0
 11 22  1  0
 11 23  1  0
 12 24  1  0
 12 25  1  0
 13 26  1  0
 13 27  1  0
M  CHG  3   3  -1   7  -1  10   2
M  END
> <Uni-Dock RESULT> 
ENERGY=   -6.938  LOWER_BOUND=    1.242  UPPER_BOUND=    1.888
INTER + INTRA:          -6.938
INTER:                  -6.938
INTRA:                   0.000
UNBOUND:                 0.000

$$$$

     RDKit          3D

 27 20  0  0  0  0  0  0  0  0999 V2000
   47.0894    3.0909    6.1699 O   0  0  0  0  0  0  0  0  0  0  0  0
   47.7506    2.4229    6.2272 C   0  0  0  0  0  0  0  0  0  0  0  0
   48.0939    2.6538    5.0339 O   0  0  0  0  0  0  0  0  0  0  0  0
   48.1473    1.5295    7.0257 O   0  0  0  0  0  0  0  0  0  0  0  0
   46.6988    3.3679    6.7816 C   0  0  0  0  0  0  0  0  0  0  0  0
   47.6016    2.2566    6.3204 C   0  0  0  0  0  0  0  0  0  0  0  0
   48.0850    2.2878    5.1540 O   0  0  0  0  0  0  0  0  0  0  0  0
   47.6786    1.3599    7.2055 O   0  0  0  0  0  0  0  0  0  0  0  0
   46.8066    3.4896    6.7136 C   0  0  0  0  0  0  0  0  0  0  0  0
   47.1425    2.9705    6.5453 Mg  0  0  0  0  0 15  0  0  0  0  0  0
   47.0910    3.0895    6.1692 O   0  0  0  0  0  0  0  0  0  0  0  0
   47.0880    3.0922    6.1705 O   0  0  0  0  0  0  0  0  0  0  0  0
   47.0894    3.0909    6.1699 O   0  0  0  0  0  0  0  0  0  0  0  0
   46.6362    3.4045    6.9669 H   0  0  0  0  0  0  0  0  0  0  0  0
   47.7019    2.4161    6.4992 H   0  0  0  0  0  0  0  0  0  0  0  0
   45.7895    3.3064    6.1763 H   0  0  0  0  0  0  0  0  0  0  0  0
   46.4436    3.1179    7.8159 H   0  0  0  0  0  0  0  0  0  0  0  0
   47.0738    4.3953    6.7566 H   0  0  0  0  0  0  0  0  0  0  0  0
   46.4148    3.4035    7.7317 H   0  0  0  0  0  0  0  0  0  0  0  0
   47.4473    4.3751    6.6634 H   0  0  0  0  0  0  0  0  0  0  0  0
   45.9639    3.6211    6.0285 H   0  0  0  0  0  0  0  0  0  0  0  0
   46.6348    3.4065    6.9631 H   0  0  0  0  0  0  0  0  0  0  0  0
   47.7017    2.4156    6.5036 H   0  0  0  0  0  0  0  0  0  0  0  0
   47.7021    2.4166    6.4952 H   0  0  0  0  0  0  0  0  0  0  0  0
   46.6374    3.4027    6.9701 H   0  0  0  0  0  0  0  0  0  0  0  0
   46.6362    3.4045    6.9669 H   0  0  0  0  0  0  0  0  0  0  0  0
   47.7019    2.4161    6.4992 H   0  0  0  0  0  0  0  0  0  0  0  0
  5  2  1  0
  3  2  1  0
  4  2  2  0
  7  6  1  0
  8  6  2  0
  9  6  1  0
  1 14  1  0
  1 15  1  0
  5 16  1  0
  5 17  1  0
  5 18  1  0
  9 19  1  0
  9 20  1  0
  9 21  1  0
 11 22  1  0
 11 23  1  0
 12 24  1  0
 12 25  1  0
 13 26  1  0
 13 27  1  0
M  CHG  3   3  -1   7  -1  10   2
M  END
> <Uni-Dock RESULT> 
ENERGY=   -6.606  LOWER_BOUND=    1.772  UPPER_BOUND=    2.442
INTER + INTRA:          -6.606
INTER:                  -6.606
INTRA:                   0.000
UNBOUND:                 0.000

$$$$

     RDKit          3D

 27 20  0  0  0  0  0  0  0  0999 V2000
   47.3284    1.7801    7.3215 O   0  0  0  0  0  0  0  0  0  0  0  0
   46.7409    1.1040    7.6121 C   0  0  0  0  0  0  0  0  0  0  0  0
   46.1042    1.9478    8.3032 O   0  0  0  0  0  0  0  0  0  0  0  0
   46.6033   -0.1482    7.5340 O   0  0  0  0  0  0  0  0  0  0  0  0
   47.8398    1.6913    6.7435 C   0  0  0  0  0  0  0  0  0  0  0  0
   46.9175    0.9500    7.6723 C   0  0  0  0  0  0  0  0  0  0  0  0
   46.1633    1.5972    8.4515 O   0  0  0  0  0  0  0  0  0  0  0  0
   47.1108   -0.2940    7.5795 O   0  0  0  0  0  0  0  0  0  0  0  0
   47.7118    1.8041    6.6994 C   0  0  0  0  0  0  0  0  0  0  0  0
   47.3756    1.4460    7.1108 Mg  0  0  0  0  0 15  0  0  0  0  0  0
   47.3269    1.7792    7.3227 O   0  0  0  0  0  0  0  0  0  0  0  0
   47.3299    1.7810    7.3204 O   0  0  0  0  0  0  0  0  0  0  0  0
   47.3284    1.7801    7.3215 O   0  0  0  0  0  0  0  0  0  0  0  0
   47.9435    1.6173    6.5906 H   0  0  0  0  0  0  0  0  0  0  0  0
   46.8548    0.9406    7.4203 H   0  0  0  0  0  0  0  0  0  0  0  0
   48.5760    2.2013    7.3718 H   0  0  0  0  0  0  0  0  0  0  0  0
   48.3536    0.9135    6.1703 H   0  0  0  0  0  0  0  0  0  0  0  0
   47.4113    2.4124    6.0411 H   0  0  0  0  0  0  0  0  0  0  0  0
   48.3444    1.1884    6.0528 H   0  0  0  0  0  0  0  0  0  0  0  0
   47.0281    2.3795    6.0679 H   0  0  0  0  0  0  0  0  0  0  0  0
   48.3529    2.4969    7.2525 H   0  0  0  0  0  0  0  0  0  0  0  0
   47.9438    1.6214    6.5923 H   0  0  0  0  0  0  0  0  0  0  0  0
   46.8561    0.9375    7.4175 H   0  0  0  0  0  0  0  0  0  0  0  0
   46.8536    0.9434    7.4230 H   0  0  0  0  0  0  0  0  0  0  0  0
   47.9432    1.6136    6.5892 H   0  0  0  0  0  0  0  0  0  0  0  0
   47.9435    1.6173    6.5906 H   0  0  0  0  0  0  0  0  0  0  0  0
   46.8548    0.9406    7.4203 H   0  0  0  0  0  0  0  0  0  0  0  0
  5  2  1  0
  3  2  1  0
  4  2  2  0
  7  6  1  0
  8  6  2  0
  9  6  1  0
  1 14  1  0
  1 15  1  0
  5 16  1  0
  5 17  1  0
  5 18  1  0
  9 19  1  0
  9 20  1  0
  9 21  1  0
 11 22  1  0
 11 23  1  0
 12 24  1  0
 12 25  1  0
 13 26  1  0
 13 27  1  0
M  CHG  3   3  -1   7  -1  10   2
M  END
> <Uni-Dock RESULT> 
ENERGY=   -6.578  LOWER_BOUND=    0.435  UPPER_BOUND=    1.354
INTER + INTRA:          -6.578
INTER:                  -6.578
INTRA:                   0.000
UNBOUND:                 0.000

$$$$

     RDKit          3D

 27 20  0  0  0  0  0  0  0  0999 V2000
   47.3136    2.8168    7.0081 O   0  0  0  0  0  0  0  0  0  0  0  0
   47.6731    2.2150    6.3793 C   0  0  0  0  0  0  0  0  0  0  0  0
   47.8966    1.3796    7.2997 O   0  0  0  0  0  0  0  0  0  0  0  0
   47.9783    2.1728    5.1553 O   0  0  0  0  0  0  0  0  0  0  0  0
   46.9216    3.4599    6.8178 C   0  0  0  0  0  0  0  0  0  0  0  0
   47.8170    2.3797    6.2756 C   0  0  0  0  0  0  0  0  0  0  0  0
   48.1599    1.4198    7.0213 O   0  0  0  0  0  0  0  0  0  0  0  0
   48.1779    2.6604    5.0990 O   0  0  0  0  0  0  0  0  0  0  0  0
   46.8165    3.3407    6.8940 C   0  0  0  0  0  0  0  0  0  0  0  0
   47.2386    2.9338    6.6354 Mg  0  0  0  0  0 15  0  0  0  0  0  0
   47.3147    2.8150    7.0073 O   0  0  0  0  0  0  0  0  0  0  0  0
   47.3126    2.8184    7.0088 O   0  0  0  0  0  0  0  0  0  0  0  0
   47.3136    2.8168    7.0081 O   0  0  0  0  0  0  0  0  0  0  0  0
   46.8275    3.6024    6.7157 H   0  0  0  0  0  0  0  0  0  0  0  0
   47.5745    2.3821    6.1823 H   0  0  0  0  0  0  0  0  0  0  0  0
   47.4941    3.9866    7.5871 H   0  0  0  0  0  0  0  0  0  0  0  0
   46.7585    4.1435    5.9791 H   0  0  0  0  0  0  0  0  0  0  0  0
   45.9477    3.1790    7.2294 H   0  0  0  0  0  0  0  0  0  0  0  0
   46.5590    4.1482    6.2019 H   0  0  0  0  0  0  0  0  0  0  0  0
   45.8998    2.8037    7.1554 H   0  0  0  0  0  0  0  0  0  0  0  0
   47.2398    3.7837    7.8003 H   0  0  0  0  0  0  0  0  0  0  0  0
   46.8278    3.6020    6.7201 H   0  0  0  0  0  0  0  0  0  0  0  0
   47.5732    2.3843    6.1787 H   0  0  0  0  0  0  0  0  0  0  0  0
   47.5758    2.3801    6.1856 H   0  0  0  0  0  0  0  0  0  0  0  0
   46.8274    3.6027    6.7117 H   0  0  0  0  0  0  0  0  0  0  0  0
   46.8275    3.6024    6.7157 H   0  0  0  0  0  0  0  0  0  0  0  0
   47.5745    2.3821    6.1823 H   0  0  0  0  0  0  0  0  0  0  0  0
  5  2  1  0
  3  2  1  0
  4  2  2  0
  7  6  1  0
  8  6  2  0
  9  6  1  0
  1 14  1  0
  1 15  1  0
  5 16  1  0
  5 17  1  0
  5 18  1  0
  9 19  1  0
  9 20  1  0
  9 21  1  0
 11 22  1  0
 11 23  1  0
 12 24  1  0
 12 25  1  0
 13 26  1  0
 13 27  1  0
M  CHG  3   3  -1   7  -1  10   2
M  END
> <Uni-Dock RESULT> 
ENERGY=   -6.519  LOWER_BOUND=    1.589  UPPER_BOUND=    2.265
INTER + INTRA:          -6.519
INTER:                  -6.519
INTRA:                   0.000
UNBOUND:                 0.000

$$$$

     RDKit          3D

 27 20  0  0  0  0  0  0  0  0999 V2000
   47.1477    1.8172    7.1773 O   0  0  0  0  0  0  0  0  0  0  0  0
   47.7164    2.3465    6.6452 C   0  0  0  0  0  0  0  0  0  0  0  0
   47.3408    3.3810    7.2648 O   0  0  0  0  0  0  0  0  0  0  0  0
   48.4744    2.2334    5.6423 O   0  0  0  0  0  0  0  0  0  0  0  0
   47.1692    1.0409    7.1952 C   0  0  0  0  0  0  0  0  0  0  0  0
   47.6416    2.2505    6.4361 C   0  0  0  0  0  0  0  0  0  0  0  0
   47.3936    3.4050    6.8839 O   0  0  0  0  0  0  0  0  0  0  0  0
   48.1822    1.9016    5.3501 O   0  0  0  0  0  0  0  0  0  0  0  0
   47.2230    1.1102    7.3480 C   0  0  0  0  0  0  0  0  0  0  0  0
   47.3987    1.5930    6.9651 Mg  0  0  0  0  0 15  0  0  0  0  0  0
   47.1486    1.8190    7.1764 O   0  0  0  0  0  0  0  0  0  0  0  0
   47.1469    1.8155    7.1781 O   0  0  0  0  0  0  0  0  0  0  0  0
   47.1477    1.8172    7.1773 O   0  0  0  0  0  0  0  0  0  0  0  0
   47.2210    0.8510    7.1657 H   0  0  0  0  0  0  0  0  0  0  0  0
   47.8274    2.1110    6.5523 H   0  0  0  0  0  0  0  0  0  0  0  0
   46.0759    1.0509    7.1547 H   0  0  0  0  0  0  0  0  0  0  0  0
   47.5290    0.1832    6.6186 H   0  0  0  0  0  0  0  0  0  0  0  0
   47.4852    0.9155    8.2351 H   0  0  0  0  0  0  0  0  0  0  0  0
   47.4633    0.1381    6.9069 H   0  0  0  0  0  0  0  0  0  0  0  0
   47.7431    1.1929    8.3071 H   0  0  0  0  0  0  0  0  0  0  0  0
   46.1441    1.1532    7.5237 H   0  0  0  0  0  0  0  0  0  0  0  0
   47.2179    0.8525    7.1685 H   0  0  0  0  0  0  0  0  0  0  0  0
   47.8297    2.1076    6.5505 H   0  0  0  0  0  0  0  0  0  0  0  0
   47.8253    2.1140    6.5540 H   0  0  0  0  0  0  0  0  0  0  0  0
   47.2239    0.8497    7.1633 H   0  0  0  0  0  0  0  0  0  0  0  0
   47.2210    0.8510    7.1657 H   0  0  0  0  0  0  0  0  0  0  0  0
   47.8274    2.1110    6.5523 H   0  0  0  0  0  0  0  0  0  0  0  0
  5  2  1  0
  3  2  1  0
  4  2  2  0
  7  6  1  0
  8  6  2  0
  9  6  1  0
  1 14  1  0
  1 15  1  0
  5 16  1  0
  5 17  1  0
  5 18  1  0
  9 19  1  0
  9 20  1  0
  9 21  1  0
 11 22  1  0
 11 23  1  0
 12 24  1  0
 12 25  1  0
 13 26  1  0
 13 27  1  0
M  CHG  3   3  -1   7  -1  10   2
M  END
> <Uni-Dock RESULT> 
ENERGY=   -6.326  LOWER_BOUND=    1.271  UPPER_BOUND=    2.238
INTER + INTRA:          -6.326
INTER:                  -6.326
INTRA:                   0.000
UNBOUND:                 0.000

$$$$

     RDKit          3D

 27 20  0  0  0  0  0  0  0  0999 V2000
   42.6965    5.3312   12.7229 O   0  0  0  0  0  0  0  0  0  0  0  0
   42.7377    5.4568   11.7905 C   0  0  0  0  0  0  0  0  0  0  0  0
   41.9469    6.4372   11.8830 O   0  0  0  0  0  0  0  0  0  0  0  0
   43.2196    4.8985   10.7662 O   0  0  0  0  0  0  0  0  0  0  0  0
   43.1724    4.8617   13.1186 C   0  0  0  0  0  0  0  0  0  0  0  0
   42.6970    5.2241   11.7383 C   0  0  0  0  0  0  0  0  0  0  0  0
   41.9052    6.1960   11.5854 O   0  0  0  0  0  0  0  0  0  0  0  0
   43.1308    4.3920   10.8939 O   0  0  0  0  0  0  0  0  0  0  0  0
   43.2019    5.0310   13.1576 C   0  0  0  0  0  0  0  0  0  0  0  0
   42.9875    5.1146   12.5596 Mg  0  0  0  0  0 15  0  0  0  0  0  0
   42.6960    5.3320   12.7209 O   0  0  0  0  0  0  0  0  0  0  0  0
   42.6970    5.3305   12.7247 O   0  0  0  0  0  0  0  0  0  0  0  0
   42.6965    5.3312   12.7229 O   0  0  0  0  0  0  0  0  0  0  0  0
   43.3194    4.7369   13.1676 H   0  0  0  0  0  0  0  0  0  0  0  0
   42.9466    5.2757   11.7884 H   0  0  0  0  0  0  0  0  0  0  0  0
   42.2966    4.5072   13.6702 H   0  0  0  0  0  0  0  0  0  0  0  0
   43.8547    4.0186   12.9736 H   0  0  0  0  0  0  0  0  0  0  0  0
   43.6845    5.6223   13.7154 H   0  0  0  0  0  0  0  0  0  0  0  0
   43.8819    4.1764   13.2262 H   0  0  0  0  0  0  0  0  0  0  0  0
   43.7382    5.9268   13.4851 H   0  0  0  0  0  0  0  0  0  0  0  0
   42.3574    4.8562   13.8308 H   0  0  0  0  0  0  0  0  0  0  0  0
   43.3165    4.7388   13.1703 H   0  0  0  0  0  0  0  0  0  0  0  0
   42.9500    5.2730   11.7877 H   0  0  0  0  0  0  0  0  0  0  0  0
   42.9435    5.2782   11.7891 H   0  0  0  0  0  0  0  0  0  0  0  0
   43.3219    4.7352   13.1651 H   0  0  0  0  0  0  0  0  0  0  0  0
   43.3194    4.7369   13.1676 H   0  0  0  0  0  0  0  0  0  0  0  0
   42.9466    5.2757   11.7884 H   0  0  0  0  0  0  0  0  0  0  0  0
  5  2  1  0
  3  2  1  0
  4  2  2  0
  7  6  1  0
  8  6  2  0
  9  6  1  0
  1 14  1  0
  1 15  1  0
  5 16  1  0
  5 17  1  0
  5 18  1  0
  9 19  1  0
  9 20  1  0
  9 21  1  0
 11 22  1  0
 11 23  1  0
 12 24  1  0
 12 25  1  0
 13 26  1  0
 13 27  1  0
M  CHG  3   3  -1   7  -1  10   2
M  END
> <Uni-Dock RESULT> 
ENERGY=   -5.189  LOWER_BOUND=    6.815  UPPER_BOUND=    7.931
INTER + INTRA:          -5.189
INTER:                  -5.189
INTRA:                   0.000
UNBOUND:                 0.000

$$$$

     RDKit          3D

 27 20  0  0  0  0  0  0  0  0999 V2000
   44.5232    2.8623    8.9718 O   0  0  0  0  0  0  0  0  0  0  0  0
   44.8502    3.6059    8.4956 C   0  0  0  0  0  0  0  0  0  0  0  0
   43.9788    4.3421    9.0375 O   0  0  0  0  0  0  0  0  0  0  0  0
   45.6897    3.8749    7.5922 O   0  0  0  0  0  0  0  0  0  0  0  0
   44.8901    2.1789    9.0139 C   0  0  0  0  0  0  0  0  0  0  0  0
   44.8519    3.4924    8.2819 C   0  0  0  0  0  0  0  0  0  0  0  0
   44.0594    4.3981    8.6649 O   0  0  0  0  0  0  0  0  0  0  0  0
   45.6151    3.4554    7.2772 O   0  0  0  0  0  0  0  0  0  0  0  0
   44.8885    2.2607    9.1699 C   0  0  0  0  0  0  0  0  0  0  0  0
   44.8712    2.7815    8.7969 Mg  0  0  0  0  0 15  0  0  0  0  0  0
   44.5232    2.8643    8.9709 O   0  0  0  0  0  0  0  0  0  0  0  0
   44.5231    2.8604    8.9725 O   0  0  0  0  0  0  0  0  0  0  0  0
   44.5232    2.8623    8.9718 O   0  0  0  0  0  0  0  0  0  0  0  0
   45.0250    2.0337    8.9961 H   0  0  0  0  0  0  0  0  0  0  0  0
   45.0655    3.4484    8.4230 H   0  0  0  0  0  0  0  0  0  0  0  0
   43.9229    1.6961    8.8450 H   0  0  0  0  0  0  0  0  0  0  0  0
   45.6627    1.5921    8.5078 H   0  0  0  0  0  0  0  0  0  0  0  0
   45.1041    2.1802   10.0868 H   0  0  0  0  0  0  0  0  0  0  0  0
   45.5912    1.5141    8.7875 H   0  0  0  0  0  0  0  0  0  0  0  0
   45.1988    2.5419   10.1808 H   0  0  0  0  0  0  0  0  0  0  0  0
   43.8937    1.8077    9.2164 H   0  0  0  0  0  0  0  0  0  0  0  0
   45.0212    2.0336    8.9983 H   0  0  0  0  0  0  0  0  0  0  0  0
   45.0693    3.4465    8.4215 H   0  0  0  0  0  0  0  0  0  0  0  0
   45.0622    3.4502    8.4243 H   0  0  0  0  0  0  0  0  0  0  0  0
   45.0284    2.0339    8.9940 H   0  0  0  0  0  0  0  0  0  0  0  0
   45.0250    2.0337    8.9961 H   0  0  0  0  0  0  0  0  0  0  0  0
   45.0655    3.4484    8.4230 H   0  0  0  0  0  0  0  0  0  0  0  0
  5  2  1  0
  3  2  1  0
  4  2  2  0
  7  6  1  0
  8  6  2  0
  9  6  1  0
  1 14  1  0
  1 15  1  0
  5 16  1  0
  5 17  1  0
  5 18  1  0
  9 19  1  0
  9 20  1  0
  9 21  1  0
 11 22  1  0
 11 23  1  0
 12 24  1  0
 12 25  1  0
 13 26  1  0
 13 27  1  0
M  CHG  3   3  -1   7  -1  10   2
M  END
> <Uni-Dock RESULT> 
ENERGY=   -5.122  LOWER_BOUND=    3.094  UPPER_BOUND=    3.848
INTER + INTRA:          -5.122
INTER:                  -5.122
INTRA:                   0.000
UNBOUND:                 0.000

$$$$

     RDKit          3D

 27 20  0  0  0  0  0  0  0  0999 V2000
   44.9210    3.9302    8.0901 O   0  0  0  0  0  0  0  0  0  0  0  0
   45.6090    3.2949    7.9908 C   0  0  0  0  0  0  0  0  0  0  0  0
   46.0049    3.8805    6.9442 O   0  0  0  0  0  0  0  0  0  0  0  0
   46.0037    2.2162    8.5141 O   0  0  0  0  0  0  0  0  0  0  0  0
   44.4853    4.0010    8.7293 C   0  0  0  0  0  0  0  0  0  0  0  0
   45.4631    3.1042    8.0208 C   0  0  0  0  0  0  0  0  0  0  0  0
   46.0068    3.4952    6.9500 O   0  0  0  0  0  0  0  0  0  0  0  0
   45.5344    1.9872    8.6045 O   0  0  0  0  0  0  0  0  0  0  0  0
   44.5907    4.1405    8.7076 C   0  0  0  0  0  0  0  0  0  0  0  0
   44.9593    3.7051    8.4159 Mg  0  0  0  0  0 15  0  0  0  0  0  0
   44.9226    3.9290    8.0892 O   0  0  0  0  0  0  0  0  0  0  0  0
   44.9195    3.9312    8.0910 O   0  0  0  0  0  0  0  0  0  0  0  0
   44.9210    3.9302    8.0901 O   0  0  0  0  0  0  0  0  0  0  0  0
   44.4110    3.9790    8.9126 H   0  0  0  0  0  0  0  0  0  0  0  0
   45.5460    3.2061    8.2449 H   0  0  0  0  0  0  0  0  0  0  0  0
   43.6139    4.0961    8.0746 H   0  0  0  0  0  0  0  0  0  0  0  0
   44.1866    3.4472    9.6246 H   0  0  0  0  0  0  0  0  0  0  0  0
   44.8121    4.9998    9.0335 H   0  0  0  0  0  0  0  0  0  0  0  0
   44.1489    3.7439    9.6268 H   0  0  0  0  0  0  0  0  0  0  0  0
   45.1906    5.0191    8.9633 H   0  0  0  0  0  0  0  0  0  0  0  0
   43.7810    4.4455    8.0381 H   0  0  0  0  0  0  0  0  0  0  0  0
   44.4098    3.9820    8.9096 H   0  0  0  0  0  0  0  0  0  0  0  0
   45.5456    3.2042    8.2489 H   0  0  0  0  0  0  0  0  0  0  0  0
   45.5464    3.2077    8.2413 H   0  0  0  0  0  0  0  0  0  0  0  0
   44.4122    3.9763    8.9153 H   0  0  0  0  0  0  0  0  0  0  0  0
   44.4110    3.9790    8.9126 H   0  0  0  0  0  0  0  0  0  0  0  0
   45.5460    3.2061    8.2449 H   0  0  0  0  0  0  0  0  0  0  0  0
  5  2  1  0
  3  2  1  0
  4  2  2  0
  7  6  1  0
  8  6  2  0
  9  6  1  0
  1 14  1  0
  1 15  1  0
  5 16  1  0
  5 17  1  0
  5 18  1  0
  9 19  1  0
  9 20  1  0
  9 21  1  0
 11 22  1  0
 11 23  1  0
 12 24  1  0
 12 25  1  0
 13 26  1  0
 13 27  1  0
M  CHG  3   3  -1   7  -1  10   2
M  END
> <Uni-Dock RESULT> 
ENERGY=   -5.036  LOWER_BOUND=    2.504  UPPER_BOUND=    3.508
INTER + INTRA:          -5.036
INTER:                  -5.036
INTRA:                   0.000
UNBOUND:                 0.000

$$$$
