
     RDKit          3D

 27 20  0  0  0  0  0  0  0  0999 V2000
   47.5423    1.1298    7.0183 O   0  0  0  0  0  0  0  0  0  0  0  0
   46.7684    1.0304    7.5957 C   0  0  0  0  0  0  0  0  0  0  0  0
   46.7298   -0.2155    7.3966 O   0  0  0  0  0  0  0  0  0  0  0  0
   46.0785    1.7489    8.3722 O   0  0  0  0  0  0  0  0  0  0  0  0
   47.8015    1.7862    6.7784 C   0  0  0  0  0  0  0  0  0  0  0  0
   46.8823    1.0008    7.6885 C   0  0  0  0  0  0  0  0  0  0  0  0
   46.0901    1.6834    8.3969 O   0  0  0  0  0  0  0  0  0  0  0  0
   47.0832   -0.2451    7.6692 O   0  0  0  0  0  0  0  0  0  0  0  0
   47.7191    1.8079    6.7112 C   0  0  0  0  0  0  0  0  0  0  0  0
   47.3649    1.4697    7.1244 Mg  0  0  0  0  0 15  0  0  0  0  0  0
   47.5431    1.1306    7.0173 O   0  0  0  0  0  0  0  0  0  0  0  0
   47.5421    1.1296    7.0186 O   0  0  0  0  0  0  0  0  0  0  0  0
   47.5418    1.1294    7.0189 O   0  0  0  0  0  0  0  0  0  0  0  0
   46.8517    1.2596    7.6856 H   0  0  0  0  0  0  0  0  0  0  0  0
   47.7007    2.0197    6.6693 H   0  0  0  0  0  0  0  0  0  0  0  0
   48.3657    1.1120    6.1269 H   0  0  0  0  0  0  0  0  0  0  0  0
   48.5057    2.2911    7.4466 H   0  0  0  0  0  0  0  0  0  0  0  0
   47.3047    2.5350    6.1542 H   0  0  0  0  0  0  0  0  0  0  0  0
   47.0646    2.3467    6.0196 H   0  0  0  0  0  0  0  0  0  0  0  0
   48.3833    1.1632    6.1276 H   0  0  0  0  0  0  0  0  0  0  0  0
   48.3316    2.5314    7.2575 H   0  0  0  0  0  0  0  0  0  0  0  0
   47.6991    2.0218    6.6705 H   0  0  0  0  0  0  0  0  0  0  0  0
   46.8525    1.2569    7.6853 H   0  0  0  0  0  0  0  0  0  0  0  0
   47.7012    2.0192    6.6689 H   0  0  0  0  0  0  0  0  0  0  0  0
   46.8515    1.2604    7.6857 H   0  0  0  0  0  0  0  0  0  0  0  0
   47.7017    2.0186    6.6685 H   0  0  0  0  0  0  0  0  0  0  0  0
   46.8513    1.2612    7.6857 H   0  0  0  0  0  0  0  0  0  0  0  0
  5  2  1  0
  3  2  1  0
  4  2  2  0
  7  6  1  0
  8  6  2  0
  9  6  1  0
  1 14  1  0
  1 15  1  0
  5 16  1  0
  5 17  1  0
  5 18  1  0
  9 19  1  0
  9 20  1  0
  9 21  1  0
 11 22  1  0
 11 23  1  0
 12 24  1  0
 12 25  1  0
 13 26  1  0
 13 27  1  0
M  CHG  3   3  -1   7  -1  10   2
M  END
> <Uni-Dock RESULT> 
ENERGY=   -7.161  LOWER_BOUND=    0.000  UPPER_BOUND=    0.000
INTER + INTRA:          -7.161
INTER:                  -7.161
INTRA:                   0.000
UNBOUND:                 0.000

$$$$

     RDKit          3D

 27 20  0  0  0  0  0  0  0  0999 V2000
   47.6582    1.4435    7.0255 O   0  0  0  0  0  0  0  0  0  0  0  0
   47.5028    2.1984    6.4355 C   0  0  0  0  0  0  0  0  0  0  0  0
   48.6698    2.6396    6.6272 O   0  0  0  0  0  0  0  0  0  0  0  0
   46.6002    2.6070    5.6523 O   0  0  0  0  0  0  0  0  0  0  0  0
   47.1203    0.9906    7.2731 C   0  0  0  0  0  0  0  0  0  0  0  0
   47.5675    2.0987    6.3444 C   0  0  0  0  0  0  0  0  0  0  0  0
   46.6660    2.6167    5.6275 O   0  0  0  0  0  0  0  0  0  0  0  0
   48.8117    2.3102    6.3599 O   0  0  0  0  0  0  0  0  0  0  0  0
   47.0733    1.0628    7.3391 C   0  0  0  0  0  0  0  0  0  0  0  0
   47.2792    1.5001    6.9186 Mg  0  0  0  0  0 15  0  0  0  0  0  0
   47.6577    1.4425    7.0265 O   0  0  0  0  0  0  0  0  0  0  0  0
   47.6583    1.4438    7.0252 O   0  0  0  0  0  0  0  0  0  0  0  0
   47.6584    1.4440    7.0250 O   0  0  0  0  0  0  0  0  0  0  0  0
   47.3126    2.0443    6.3482 H   0  0  0  0  0  0  0  0  0  0  0  0
   46.8668    1.0126    7.3820 H   0  0  0  0  0  0  0  0  0  0  0  0
   47.9405    0.6847    7.9297 H   0  0  0  0  0  0  0  0  0  0  0  0
   46.8692    0.1504    6.6188 H   0  0  0  0  0  0  0  0  0  0  0  0
   46.2515    1.2301    7.8936 H   0  0  0  0  0  0  0  0  0  0  0  0
   46.3525    1.5202    8.0234 H   0  0  0  0  0  0  0  0  0  0  0  0
   47.8977    0.6515    7.9295 H   0  0  0  0  0  0  0  0  0  0  0  0
   46.5856    0.2408    6.8065 H   0  0  0  0  0  0  0  0  0  0  0  0
   46.8643    1.0135    7.3807 H   0  0  0  0  0  0  0  0  0  0  0  0
   47.3155    2.0443    6.3485 H   0  0  0  0  0  0  0  0  0  0  0  0
   46.8675    1.0123    7.3824 H   0  0  0  0  0  0  0  0  0  0  0  0
   47.3118    2.0442    6.3482 H   0  0  0  0  0  0  0  0  0  0  0  0
   46.8682    1.0121    7.3827 H   0  0  0  0  0  0  0  0  0  0  0  0
   47.3110    2.0441    6.3482 H   0  0  0  0  0  0  0  0  0  0  0  0
  5  2  1  0
  3  2  1  0
  4  2  2  0
  7  6  1  0
  8  6  2  0
  9  6  1  0
  1 14  1  0
  1 15  1  0
  5 16  1  0
  5 17  1  0
  5 18  1  0
  9 19  1  0
  9 20  1  0
  9 21  1  0
 11 22  1  0
 11 23  1  0
 12 24  1  0
 12 25  1  0
 13 26  1  0
 13 27  1  0
M  CHG  3   3  -1   7  -1  10   2
M  END
> <Uni-Dock RESULT> 
ENERGY=   -6.865  LOWER_BOUND=    1.189  UPPER_BOUND=    1.980
INTER + INTRA:          -6.865
INTER:                  -6.865
INTRA:                   0.000
UNBOUND:                 0.000

$$$$

     RDKit          3D

 27 20  0  0  0  0  0  0  0  0999 V2000
   47.3049    1.8220    7.2324 O   0  0  0  0  0  0  0  0  0  0  0  0
   47.6388    2.2608    6.4335 C   0  0  0  0  0  0  0  0  0  0  0  0
   47.2522    3.3902    6.8437 O   0  0  0  0  0  0  0  0  0  0  0  0
   48.3070    1.9568    5.4057 O   0  0  0  0  0  0  0  0  0  0  0  0
   47.2421    1.0830    7.3064 C   0  0  0  0  0  0  0  0  0  0  0  0
   47.7525    2.2772    6.5296 C   0  0  0  0  0  0  0  0  0  0  0  0
   48.3237    2.0202    5.4328 O   0  0  0  0  0  0  0  0  0  0  0  0
   47.6000    3.3797    7.1248 O   0  0  0  0  0  0  0  0  0  0  0  0
   47.1598    1.0709    7.2368 C   0  0  0  0  0  0  0  0  0  0  0  0
   47.4107    1.5781    6.9365 Mg  0  0  0  0  0 15  0  0  0  0  0  0
   47.3043    1.8209    7.2331 O   0  0  0  0  0  0  0  0  0  0  0  0
   47.3051    1.8223    7.2322 O   0  0  0  0  0  0  0  0  0  0  0  0
   47.3053    1.8227    7.2320 O   0  0  0  0  0  0  0  0  0  0  0  0
   47.7806    2.0435    6.4177 H   0  0  0  0  0  0  0  0  0  0  0  0
   47.1467    0.8689    7.1593 H   0  0  0  0  0  0  0  0  0  0  0  0
   46.6669    1.4087    8.1785 H   0  0  0  0  0  0  0  0  0  0  0  0
   48.1386    0.5635    7.6578 H   0  0  0  0  0  0  0  0  0  0  0  0
   46.6293    0.3839    6.7295 H   0  0  0  0  0  0  0  0  0  0  0  0
   46.4101    0.5970    6.5962 H   0  0  0  0  0  0  0  0  0  0  0  0
   46.6799    1.3562    8.1780 H   0  0  0  0  0  0  0  0  0  0  0  0
   47.9489    0.3457    7.4569 H   0  0  0  0  0  0  0  0  0  0  0  0
   47.1477    0.8677    7.1569 H   0  0  0  0  0  0  0  0  0  0  0  0
   47.7801    2.0458    6.4194 H   0  0  0  0  0  0  0  0  0  0  0  0
   47.1463    0.8691    7.1600 H   0  0  0  0  0  0  0  0  0  0  0  0
   47.7807    2.0429    6.4172 H   0  0  0  0  0  0  0  0  0  0  0  0
   47.1460    0.8695    7.1607 H   0  0  0  0  0  0  0  0  0  0  0  0
   47.7808    2.0421    6.4167 H   0  0  0  0  0  0  0  0  0  0  0  0
  5  2  1  0
  3  2  1  0
  4  2  2  0
  7  6  1  0
  8  6  2  0
  9  6  1  0
  1 14  1  0
  1 15  1  0
  5 16  1  0
  5 17  1  0
  5 18  1  0
  9 19  1  0
  9 20  1  0
  9 21  1  0
 11 22  1  0
 11 23  1  0
 12 24  1  0
 12 25  1  0
 13 26  1  0
 13 27  1  0
M  CHG  3   3  -1   7  -1  10   2
M  END
> <Uni-Dock RESULT> 
ENERGY=   -6.647  LOWER_BOUND=    1.288  UPPER_BOUND=    2.269
INTER + INTRA:          -6.647
INTER:                  -6.647
INTRA:                   0.000
UNBOUND:                 0.000

$$$$

     RDKit          3D

 27 20  0  0  0  0  0  0  0  0999 V2000
   47.1823    3.1786    6.2235 O   0  0  0  0  0  0  0  0  0  0  0  0
   47.6437    2.3250    6.2485 C   0  0  0  0  0  0  0  0  0  0  0  0
   47.8714    2.3664    5.0076 O   0  0  0  0  0  0  0  0  0  0  0  0
   48.0274    1.4908    7.1157 O   0  0  0  0  0  0  0  0  0  0  0  0
   46.7751    3.4488    6.7864 C   0  0  0  0  0  0  0  0  0  0  0  0
   47.7561    2.4232    6.2611 C   0  0  0  0  0  0  0  0  0  0  0  0
   48.0741    1.5007    7.0631 O   0  0  0  0  0  0  0  0  0  0  0  0
   48.1854    2.6712    5.1004 O   0  0  0  0  0  0  0  0  0  0  0  0
   46.6936    3.3777    6.7774 C   0  0  0  0  0  0  0  0  0  0  0  0
   47.1417    2.9736    6.5620 Mg  0  0  0  0  0 15  0  0  0  0  0  0
   47.1813    3.1796    6.2239 O   0  0  0  0  0  0  0  0  0  0  0  0
   47.1826    3.1784    6.2234 O   0  0  0  0  0  0  0  0  0  0  0  0
   47.1829    3.1781    6.2233 O   0  0  0  0  0  0  0  0  0  0  0  0
   47.6621    2.3838    6.5010 H   0  0  0  0  0  0  0  0  0  0  0  0
   46.5807    3.3585    6.9615 H   0  0  0  0  0  0  0  0  0  0  0  0
   46.4750    4.1369    5.9903 H   0  0  0  0  0  0  0  0  0  0  0  0
   47.3274    4.0146    7.5426 H   0  0  0  0  0  0  0  0  0  0  0  0
   45.8718    3.0329    7.2428 H   0  0  0  0  0  0  0  0  0  0  0  0
   45.7758    2.8254    7.0001 H   0  0  0  0  0  0  0  0  0  0  0  0
   46.4610    4.1522    6.0403 H   0  0  0  0  0  0  0  0  0  0  0  0
   47.0459    3.8649    7.6915 H   0  0  0  0  0  0  0  0  0  0  0  0
   46.5809    3.3566    6.9636 H   0  0  0  0  0  0  0  0  0  0  0  0
   47.6629    2.3847    6.4984 H   0  0  0  0  0  0  0  0  0  0  0  0
   46.5806    3.3591    6.9609 H   0  0  0  0  0  0  0  0  0  0  0  0
   47.6619    2.3835    6.5017 H   0  0  0  0  0  0  0  0  0  0  0  0
   46.5805    3.3596    6.9602 H   0  0  0  0  0  0  0  0  0  0  0  0
   47.6616    2.3833    6.5025 H   0  0  0  0  0  0  0  0  0  0  0  0
  5  2  1  0
  3  2  1  0
  4  2  2  0
  7  6  1  0
  8  6  2  0
  9  6  1  0
  1 14  1  0
  1 15  1  0
  5 16  1  0
  5 17  1  0
  5 18  1  0
  9 19  1  0
  9 20  1  0
  9 21  1  0
 11 22  1  0
 11 23  1  0
 12 24  1  0
 12 25  1  0
 13 26  1  0
 13 27  1  0
M  CHG  3   3  -1   7  -1  10   2
M  END
> <Uni-Dock RESULT> 
ENERGY=   -6.589  LOWER_BOUND=    1.830  UPPER_BOUND=    2.482
INTER + INTRA:          -6.589
INTER:                  -6.589
INTRA:                   0.000
UNBOUND:                 0.000

$$$$

     RDKit          3D

 27 20  0  0  0  0  0  0  0  0999 V2000
   38.6274    5.2477    4.9642 O   0  0  0  0  0  0  0  0  0  0  0  0
   39.0059    4.4210    5.3041 C   0  0  0  0  0  0  0  0  0  0  0  0
   40.1814    4.8144    5.0660 O   0  0  0  0  0  0  0  0  0  0  0  0
   38.6033    3.3727    5.8821 O   0  0  0  0  0  0  0  0  0  0  0  0
   37.9021    5.3470    4.8236 C   0  0  0  0  0  0  0  0  0  0  0  0
   39.0118    4.5111    5.4236 C   0  0  0  0  0  0  0  0  0  0  0  0
   38.6652    3.3970    5.9071 O   0  0  0  0  0  0  0  0  0  0  0  0
   40.1390    5.0790    5.4241 O   0  0  0  0  0  0  0  0  0  0  0  0
   37.8976    5.2818    4.7371 C   0  0  0  0  0  0  0  0  0  0  0  0
   38.3659    4.9546    5.0273 Mg  0  0  0  0  0 15  0  0  0  0  0  0
   38.6264    5.2485    4.9635 O   0  0  0  0  0  0  0  0  0  0  0  0
   38.6277    5.2474    4.9644 O   0  0  0  0  0  0  0  0  0  0  0  0
   38.6280    5.2472    4.9645 O   0  0  0  0  0  0  0  0  0  0  0  0
   38.7737    4.4051    5.4199 H   0  0  0  0  0  0  0  0  0  0  0  0
   37.6965    5.2111    4.6978 H   0  0  0  0  0  0  0  0  0  0  0  0
   38.3120    6.2348    4.3325 H   0  0  0  0  0  0  0  0  0  0  0  0
   37.2944    5.6715    5.6736 H   0  0  0  0  0  0  0  0  0  0  0  0
   37.2620    4.8211    4.1091 H   0  0  0  0  0  0  0  0  0  0  0  0
   37.4948    4.6918    3.9084 H   0  0  0  0  0  0  0  0  0  0  0  0
   38.2583    6.2353    4.3396 H   0  0  0  0  0  0  0  0  0  0  0  0
   37.0942    5.4865    5.4511 H   0  0  0  0  0  0  0  0  0  0  0  0
   37.6951    5.2087    4.6986 H   0  0  0  0  0  0  0  0  0  0  0  0
   38.7761    4.4068    5.4198 H   0  0  0  0  0  0  0  0  0  0  0  0
   37.6968    5.2119    4.6976 H   0  0  0  0  0  0  0  0  0  0  0  0
   38.7731    4.4046    5.4200 H   0  0  0  0  0  0  0  0  0  0  0  0
   37.6972    5.2125    4.6974 H   0  0  0  0  0  0  0  0  0  0  0  0
   38.7723    4.4042    5.4200 H   0  0  0  0  0  0  0  0  0  0  0  0
  5  2  1  0
  3  2  1  0
  4  2  2  0
  7  6  1  0
  8  6  2  0
  9  6  1  0
  1 14  1  0
  1 15  1  0
  5 16  1  0
  5 17  1  0
  5 18  1  0
  9 19  1  0
  9 20  1  0
  9 21  1  0
 11 22  1  0
 11 23  1  0
 12 24  1  0
 12 25  1  0
 13 26  1  0
 13 27  1  0
M  CHG  3   3  -1   7  -1  10   2
M  END
> <Uni-Dock RESULT> 
ENERGY=   -5.290  LOWER_BOUND=    8.847  UPPER_BOUND=    9.477
INTER + INTRA:          -5.290
INTER:                  -5.290
INTRA:                   0.000
UNBOUND:                 0.000

$$$$

     RDKit          3D

 27 20  0  0  0  0  0  0  0  0999 V2000
   42.7842    5.4217   12.6920 O   0  0  0  0  0  0  0  0  0  0  0  0
   42.6697    5.3277   11.7327 C   0  0  0  0  0  0  0  0  0  0  0  0
   41.7451    6.1868   11.7184 O   0  0  0  0  0  0  0  0  0  0  0  0
   43.2321    4.7260   10.7752 O   0  0  0  0  0  0  0  0  0  0  0  0
   43.1894    4.9569   13.1108 C   0  0  0  0  0  0  0  0  0  0  0  0
   42.7629    5.4444   11.7431 C   0  0  0  0  0  0  0  0  0  0  0  0
   43.2109    4.7918   10.7590 O   0  0  0  0  0  0  0  0  0  0  0  0
   42.0648    6.4957   11.7678 O   0  0  0  0  0  0  0  0  0  0  0  0
   43.1220    4.8722   13.1033 C   0  0  0  0  0  0  0  0  0  0  0  0
   42.9719    5.1116   12.5283 Mg  0  0  0  0  0 15  0  0  0  0  0  0
   42.7845    5.4212   12.6933 O   0  0  0  0  0  0  0  0  0  0  0  0
   42.7841    5.4219   12.6916 O   0  0  0  0  0  0  0  0  0  0  0  0
   42.7840    5.4220   12.6912 O   0  0  0  0  0  0  0  0  0  0  0  0
   42.9095    5.2291   11.7506 H   0  0  0  0  0  0  0  0  0  0  0  0
   43.2221    4.6839   13.1422 H   0  0  0  0  0  0  0  0  0  0  0  0
   42.6650    5.5090   13.8966 H   0  0  0  0  0  0  0  0  0  0  0  0
   44.2567    5.1881   13.1790 H   0  0  0  0  0  0  0  0  0  0  0  0
   43.0456    3.8865   13.2854 H   0  0  0  0  0  0  0  0  0  0  0  0
   42.7262    3.8563   13.1943 H   0  0  0  0  0  0  0  0  0  0  0  0
   42.7067    5.4791   13.9137 H   0  0  0  0  0  0  0  0  0  0  0  0
   44.2098    4.8414   13.2169 H   0  0  0  0  0  0  0  0  0  0  0  0
   43.2233    4.6820   13.1405 H   0  0  0  0  0  0  0  0  0  0  0  0
   42.9081    5.2315   11.7511 H   0  0  0  0  0  0  0  0  0  0  0  0
   43.2218    4.6844   13.1428 H   0  0  0  0  0  0  0  0  0  0  0  0
   42.9100    5.2284   11.7505 H   0  0  0  0  0  0  0  0  0  0  0  0
   43.2214    4.6850   13.1433 H   0  0  0  0  0  0  0  0  0  0  0  0
   42.9104    5.2277   11.7504 H   0  0  0  0  0  0  0  0  0  0  0  0
  5  2  1  0
  3  2  1  0
  4  2  2  0
  7  6  1  0
  8  6  2  0
  9  6  1  0
  1 14  1  0
  1 15  1  0
  5 16  1  0
  5 17  1  0
  5 18  1  0
  9 19  1  0
  9 20  1  0
  9 21  1  0
 11 22  1  0
 11 23  1  0
 12 24  1  0
 12 25  1  0
 13 26  1  0
 13 27  1  0
M  CHG  3   3  -1   7  -1  10   2
M  END
> <Uni-Dock RESULT> 
ENERGY=   -5.129  LOWER_BOUND=    6.901  UPPER_BOUND=    7.948
INTER + INTRA:          -5.129
INTER:                  -5.129
INTRA:                   0.000
UNBOUND:                 0.000

$$$$

     RDKit          3D

 27 20  0  0  0  0  0  0  0  0999 V2000
   44.5435    3.1499    8.8735 O   0  0  0  0  0  0  0  0  0  0  0  0
   44.9842    2.3253    9.1342 C   0  0  0  0  0  0  0  0  0  0  0  0
   44.4328    2.3426   10.2696 O   0  0  0  0  0  0  0  0  0  0  0  0
   45.7214    1.4473    8.6044 O   0  0  0  0  0  0  0  0  0  0  0  0
   44.7245    3.5457    8.2683 C   0  0  0  0  0  0  0  0  0  0  0  0
   44.8520    2.2768    9.0831 C   0  0  0  0  0  0  0  0  0  0  0  0
   45.6723    1.4206    8.6482 O   0  0  0  0  0  0  0  0  0  0  0  0
   44.0580    2.2138   10.0622 O   0  0  0  0  0  0  0  0  0  0  0  0
   44.8203    3.5809    8.3052 C   0  0  0  0  0  0  0  0  0  0  0  0
   44.8356    3.0298    8.6316 Mg  0  0  0  0  0 15  0  0  0  0  0  0
   44.5435    3.1512    8.8728 O   0  0  0  0  0  0  0  0  0  0  0  0
   44.5435    3.1495    8.8737 O   0  0  0  0  0  0  0  0  0  0  0  0
   44.5436    3.1492    8.8739 O   0  0  0  0  0  0  0  0  0  0  0  0
   45.0095    2.3003    8.8768 H   0  0  0  0  0  0  0  0  0  0  0  0
   44.9538    3.6391    8.1446 H   0  0  0  0  0  0  0  0  0  0  0  0
   44.0818    4.2684    8.7801 H   0  0  0  0  0  0  0  0  0  0  0  0
   44.2328    3.2429    7.3390 H   0  0  0  0  0  0  0  0  0  0  0  0
   45.6718    4.0364    8.0258 H   0  0  0  0  0  0  0  0  0  0  0  0
   45.8077    4.0514    8.3300 H   0  0  0  0  0  0  0  0  0  0  0  0
   44.0931    4.2803    8.7286 H   0  0  0  0  0  0  0  0  0  0  0  0
   44.5460    3.3848    7.2643 H   0  0  0  0  0  0  0  0  0  0  0  0
   44.9558    3.6376    8.1432 H   0  0  0  0  0  0  0  0  0  0  0  0
   45.0075    2.3005    8.8788 H   0  0  0  0  0  0  0  0  0  0  0  0
   44.9532    3.6396    8.1450 H   0  0  0  0  0  0  0  0  0  0  0  0
   45.0101    2.3002    8.8762 H   0  0  0  0  0  0  0  0  0  0  0  0
   44.9526    3.6400    8.1454 H   0  0  0  0  0  0  0  0  0  0  0  0
   45.0107    2.3003    8.8756 H   0  0  0  0  0  0  0  0  0  0  0  0
  5  2  1  0
  3  2  1  0
  4  2  2  0
  7  6  1  0
  8  6  2  0
  9  6  1  0
  1 14  1  0
  1 15  1  0
  5 16  1  0
  5 17  1  0
  5 18  1  0
  9 19  1  0
  9 20  1  0
  9 21  1  0
 11 22  1  0
 11 23  1  0
 12 24  1  0
 12 25  1  0
 13 26  1  0
 13 27  1  0
M  CHG  3   3  -1   7  -1  10   2
M  END
> <Uni-Dock RESULT> 
ENERGY=   -5.031  LOWER_BOUND=    2.605  UPPER_BOUND=    3.536
INTER + INTRA:          -5.031
INTER:                  -5.031
INTRA:                   0.000
UNBOUND:                 0.000

$$$$

     RDKit          3D

 27 20  0  0  0  0  0  0  0  0999 V2000
   44.7319    2.3293    9.7893 O   0  0  0  0  0  0  0  0  0  0  0  0
   44.9233    2.6041    8.8782 C   0  0  0  0  0  0  0  0  0  0  0  0
   45.7736    1.6821    8.7363 O   0  0  0  0  0  0  0  0  0  0  0  0
   44.4832    3.4374    8.0374 O   0  0  0  0  0  0  0  0  0  0  0  0
   44.3363    2.7360   10.2727 C   0  0  0  0  0  0  0  0  0  0  0  0
   44.8204    2.4970    8.8590 C   0  0  0  0  0  0  0  0  0  0  0  0
   44.5000    3.3745    8.0090 O   0  0  0  0  0  0  0  0  0  0  0  0
   45.4271    1.4013    8.7028 O   0  0  0  0  0  0  0  0  0  0  0  0
   44.4107    2.8138   10.2868 C   0  0  0  0  0  0  0  0  0  0  0  0
   44.5824    2.6825    9.6836 Mg  0  0  0  0  0 15  0  0  0  0  0  0
   44.7316    2.3296    9.7907 O   0  0  0  0  0  0  0  0  0  0  0  0
   44.7320    2.3292    9.7889 O   0  0  0  0  0  0  0  0  0  0  0  0
   44.7321    2.3292    9.7885 O   0  0  0  0  0  0  0  0  0  0  0  0
   44.6917    2.7193    8.9031 H   0  0  0  0  0  0  0  0  0  0  0  0
   44.3237    2.9989   10.3584 H   0  0  0  0  0  0  0  0  0  0  0  0
   44.7553    1.9894   10.9541 H   0  0  0  0  0  0  0  0  0  0  0  0
   43.2517    2.5979   10.2329 H   0  0  0  0  0  0  0  0  0  0  0  0
   44.5535    3.7306   10.6737 H   0  0  0  0  0  0  0  0  0  0  0  0
   44.8801    3.7483   10.6084 H   0  0  0  0  0  0  0  0  0  0  0  0
   44.7151    2.0191   10.9747 H   0  0  0  0  0  0  0  0  0  0  0  0
   43.3237    2.9237   10.3446 H   0  0  0  0  0  0  0  0  0  0  0  0
   44.3228    3.0013   10.3570 H   0  0  0  0  0  0  0  0  0  0  0  0
   44.6929    2.7166    8.9031 H   0  0  0  0  0  0  0  0  0  0  0  0
   44.3239    2.9982   10.3589 H   0  0  0  0  0  0  0  0  0  0  0  0
   44.6913    2.7200    8.9031 H   0  0  0  0  0  0  0  0  0  0  0  0
   44.3242    2.9976   10.3593 H   0  0  0  0  0  0  0  0  0  0  0  0
   44.6909    2.7208    8.9032 H   0  0  0  0  0  0  0  0  0  0  0  0
  5  2  1  0
  3  2  1  0
  4  2  2  0
  7  6  1  0
  8  6  2  0
  9  6  1  0
  1 14  1  0
  1 15  1  0
  5 16  1  0
  5 17  1  0
  5 18  1  0
  9 19  1  0
  9 20  1  0
  9 21  1  0
 11 22  1  0
 11 23  1  0
 12 24  1  0
 12 25  1  0
 13 26  1  0
 13 27  1  0
M  CHG  3   3  -1   7  -1  10   2
M  END
> <Uni-Dock RESULT> 
ENERGY=   -5.029  LOWER_BOUND=    2.719  UPPER_BOUND=    3.647
INTER + INTRA:          -5.029
INTER:                  -5.029
INTRA:                   0.000
UNBOUND:                 0.000

$$$$

     RDKit          3D

 27 20  0  0  0  0  0  0  0  0999 V2000
   44.6491    2.9233    9.0604 O   0  0  0  0  0  0  0  0  0  0  0  0
   44.8480    3.5354    8.3338 C   0  0  0  0  0  0  0  0  0  0  0  0
   43.9362    4.3282    8.6989 O   0  0  0  0  0  0  0  0  0  0  0  0
   45.7113    3.6583    7.4202 O   0  0  0  0  0  0  0  0  0  0  0  0
   44.9226    2.2315    9.1091 C   0  0  0  0  0  0  0  0  0  0  0  0
   44.9276    3.5924    8.4471 C   0  0  0  0  0  0  0  0  0  0  0  0
   45.6934    3.7198    7.4508 O   0  0  0  0  0  0  0  0  0  0  0  0
   44.2092    4.4499    9.0316 O   0  0  0  0  0  0  0  0  0  0  0  0
   44.8650    2.1900    9.0270 C   0  0  0  0  0  0  0  0  0  0  0  0
   44.8932    2.7808    8.7805 Mg  0  0  0  0  0 15  0  0  0  0  0  0
   44.6490    2.9219    9.0610 O   0  0  0  0  0  0  0  0  0  0  0  0
   44.6491    2.9236    9.0602 O   0  0  0  0  0  0  0  0  0  0  0  0
   44.6492    2.9240    9.0601 O   0  0  0  0  0  0  0  0  0  0  0  0
   45.0742    3.4074    8.3366 H   0  0  0  0  0  0  0  0  0  0  0  0
   44.9564    2.0117    8.9444 H   0  0  0  0  0  0  0  0  0  0  0  0
   44.1517    2.1837    9.8842 H   0  0  0  0  0  0  0  0  0  0  0  0
   45.9017    2.1412    9.5890 H   0  0  0  0  0  0  0  0  0  0  0  0
   44.7811    1.3869    8.4282 H   0  0  0  0  0  0  0  0  0  0  0  0
   44.5086    1.4897    8.2657 H   0  0  0  0  0  0  0  0  0  0  0  0
   44.1873    2.1430    9.8848 H   0  0  0  0  0  0  0  0  0  0  0  0
   45.8614    1.8804    9.3561 H   0  0  0  0  0  0  0  0  0  0  0  0
   44.9581    2.0113    8.9422 H   0  0  0  0  0  0  0  0  0  0  0  0
   45.0725    3.4091    8.3382 H   0  0  0  0  0  0  0  0  0  0  0  0
   44.9558    2.0117    8.9451 H   0  0  0  0  0  0  0  0  0  0  0  0
   45.0747    3.4069    8.3361 H   0  0  0  0  0  0  0  0  0  0  0  0
   44.9553    2.0118    8.9457 H   0  0  0  0  0  0  0  0  0  0  0  0
   45.0751    3.4064    8.3356 H   0  0  0  0  0  0  0  0  0  0  0  0
  5  2  1  0
  3  2  1  0
  4  2  2  0
  7  6  1  0
  8  6  2  0
  9  6  1  0
  1 14  1  0
  1 15  1  0
  5 16  1  0
  5 17  1  0
  5 18  1  0
  9 19  1  0
  9 20  1  0
  9 21  1  0
 11 22  1  0
 11 23  1  0
 12 24  1  0
 12 25  1  0
 13 26  1  0
 13 27  1  0
M  CHG  3   3  -1   7  -1  10   2
M  END
> <Uni-Dock RESULT> 
ENERGY=   -4.993  LOWER_BOUND=    3.200  UPPER_BOUND=    3.873
INTER + INTRA:          -4.993
INTER:                  -4.993
INTRA:                   0.000
UNBOUND:                 0.000

$$$$
