
     RDKit          3D

 27 20  0  0  0  0  0  0  0  0999 V2000
   47.4948    1.0871    7.0345 O   0  0  0  0  0  0  0  0  0  0  0  0
   46.7813    1.0175    7.6871 C   0  0  0  0  0  0  0  0  0  0  0  0
   46.0061    1.7623    8.3487 O   0  0  0  0  0  0  0  0  0  0  0  0
   46.8758   -0.2418    7.6688 O   0  0  0  0  0  0  0  0  0  0  0  0
   47.7516    1.7423    6.7707 C   0  0  0  0  0  0  0  0  0  0  0  0
   46.8033    0.9583    7.6594 C   0  0  0  0  0  0  0  0  0  0  0  0
   46.0884    1.6352    8.4505 O   0  0  0  0  0  0  0  0  0  0  0  0
   46.8577   -0.2904    7.4839 O   0  0  0  0  0  0  0  0  0  0  0  0
   47.7391    1.7773    6.7875 C   0  0  0  0  0  0  0  0  0  0  0  0
   47.3434    1.4341    7.1565 Mg  0  0  0  0  0 15  0  0  0  0  0  0
   47.4947    1.0870    7.0346 O   0  0  0  0  0  0  0  0  0  0  0  0
   47.4954    1.0876    7.0339 O   0  0  0  0  0  0  0  0  0  0  0  0
   47.4947    1.0870    7.0346 O   0  0  0  0  0  0  0  0  0  0  0  0
   47.7422    1.9793    6.7489 H   0  0  0  0  0  0  0  0  0  0  0  0
   46.7931    1.2361    7.6860 H   0  0  0  0  0  0  0  0  0  0  0  0
   48.7803    1.5023    7.0560 H   0  0  0  0  0  0  0  0  0  0  0  0
   47.6206    2.8271    6.8289 H   0  0  0  0  0  0  0  0  0  0  0  0
   47.5877    1.4292    5.7353 H   0  0  0  0  0  0  0  0  0  0  0  0
   48.3314    1.1369    6.1270 H   0  0  0  0  0  0  0  0  0  0  0  0
   48.4244    2.3522    7.4176 H   0  0  0  0  0  0  0  0  0  0  0  0
   47.1592    2.4693    6.1696 H   0  0  0  0  0  0  0  0  0  0  0  0
   46.7931    1.2362    7.6861 H   0  0  0  0  0  0  0  0  0  0  0  0
   47.7423    1.9791    6.7488 H   0  0  0  0  0  0  0  0  0  0  0  0
   47.7411    1.9808    6.7499 H   0  0  0  0  0  0  0  0  0  0  0  0
   46.7936    1.2339    7.6858 H   0  0  0  0  0  0  0  0  0  0  0  0
   46.7931    1.2362    7.6861 H   0  0  0  0  0  0  0  0  0  0  0  0
   47.7423    1.9791    6.7488 H   0  0  0  0  0  0  0  0  0  0  0  0
  5  2  1  0
  3  2  1  0
  4  2  2  0
  7  6  1  0
  8  6  2  0
  9  6  1  0
  1 14  1  0
  1 15  1  0
  5 16  1  0
  5 17  1  0
  5 18  1  0
  9 19  1  0
  9 20  1  0
  9 21  1  0
 11 22  1  0
 11 23  1  0
 12 24  1  0
 12 25  1  0
 13 26  1  0
 13 27  1  0
M  CHG  3   3  -1   7  -1  10   2
M  END
> <Uni-Dock RESULT> 
ENERGY=   -7.282  LOWER_BOUND=    0.000  UPPER_BOUND=    0.000
INTER + INTRA:          -7.282
INTER:                  -7.282
INTRA:                   0.000
UNBOUND:                 0.000

$$$$

     RDKit          3D

 27 20  0  0  0  0  0  0  0  0999 V2000
   47.4947    1.0869    7.0346 O   0  0  0  0  0  0  0  0  0  0  0  0
   46.7813    1.0173    7.6873 C   0  0  0  0  0  0  0  0  0  0  0  0
   46.0061    1.7620    8.3490 O   0  0  0  0  0  0  0  0  0  0  0  0
   46.8757   -0.2420    7.6688 O   0  0  0  0  0  0  0  0  0  0  0  0
   47.7515    1.7422    6.7709 C   0  0  0  0  0  0  0  0  0  0  0  0
   46.8032    0.9581    7.6595 C   0  0  0  0  0  0  0  0  0  0  0  0
   46.0884    1.6349    8.4508 O   0  0  0  0  0  0  0  0  0  0  0  0
   46.8576   -0.2906    7.4839 O   0  0  0  0  0  0  0  0  0  0  0  0
   47.7390    1.7773    6.7877 C   0  0  0  0  0  0  0  0  0  0  0  0
   47.3433    1.4340    7.1567 Mg  0  0  0  0  0 15  0  0  0  0  0  0
   47.4946    1.0869    7.0347 O   0  0  0  0  0  0  0  0  0  0  0  0
   47.4953    1.0875    7.0340 O   0  0  0  0  0  0  0  0  0  0  0  0
   47.4946    1.0869    7.0347 O   0  0  0  0  0  0  0  0  0  0  0  0
   47.7421    1.9792    6.7491 H   0  0  0  0  0  0  0  0  0  0  0  0
   46.7931    1.2358    7.6862 H   0  0  0  0  0  0  0  0  0  0  0  0
   48.7802    1.5022    7.0560 H   0  0  0  0  0  0  0  0  0  0  0  0
   47.6204    2.8270    6.8293 H   0  0  0  0  0  0  0  0  0  0  0  0
   47.5875    1.4292    5.7354 H   0  0  0  0  0  0  0  0  0  0  0  0
   48.3313    1.1369    6.1271 H   0  0  0  0  0  0  0  0  0  0  0  0
   48.4243    2.3521    7.4178 H   0  0  0  0  0  0  0  0  0  0  0  0
   47.1590    2.4693    6.1699 H   0  0  0  0  0  0  0  0  0  0  0  0
   46.7930    1.2360    7.6863 H   0  0  0  0  0  0  0  0  0  0  0  0
   47.7422    1.9790    6.7490 H   0  0  0  0  0  0  0  0  0  0  0  0
   47.7409    1.9807    6.7501 H   0  0  0  0  0  0  0  0  0  0  0  0
   46.7935    1.2337    7.6860 H   0  0  0  0  0  0  0  0  0  0  0  0
   46.7930    1.2360    7.6863 H   0  0  0  0  0  0  0  0  0  0  0  0
   47.7422    1.9790    6.7490 H   0  0  0  0  0  0  0  0  0  0  0  0
  5  2  1  0
  3  2  1  0
  4  2  2  0
  7  6  1  0
  8  6  2  0
  9  6  1  0
  1 14  1  0
  1 15  1  0
  5 16  1  0
  5 17  1  0
  5 18  1  0
  9 19  1  0
  9 20  1  0
  9 21  1  0
 11 22  1  0
 11 23  1  0
 12 24  1  0
 12 25  1  0
 13 26  1  0
 13 27  1  0
M  CHG  3   3  -1   7  -1  10   2
M  END
> <Uni-Dock RESULT> 
ENERGY=   -7.282  LOWER_BOUND=    0.000  UPPER_BOUND=    0.000
INTER + INTRA:          -7.282
INTER:                  -7.282
INTRA:                   0.000
UNBOUND:                 0.000

$$$$

     RDKit          3D

 27 20  0  0  0  0  0  0  0  0999 V2000
   47.5372    1.3474    6.7121 O   0  0  0  0  0  0  0  0  0  0  0  0
   47.6712    2.2953    6.5597 C   0  0  0  0  0  0  0  0  0  0  0  0
   47.4100    3.4040    7.1037 O   0  0  0  0  0  0  0  0  0  0  0  0
   48.2854    2.0445    5.4850 O   0  0  0  0  0  0  0  0  0  0  0  0
   47.1723    1.0718    7.3086 C   0  0  0  0  0  0  0  0  0  0  0  0
   47.7037    2.2525    6.5165 C   0  0  0  0  0  0  0  0  0  0  0  0
   47.3676    3.3989    6.9263 O   0  0  0  0  0  0  0  0  0  0  0  0
   48.4252    1.9227    5.5348 O   0  0  0  0  0  0  0  0  0  0  0  0
   47.1525    1.0972    7.3338 C   0  0  0  0  0  0  0  0  0  0  0  0
   47.3838    1.5864    6.9907 Mg  0  0  0  0  0 15  0  0  0  0  0  0
   47.5373    1.3475    6.7120 O   0  0  0  0  0  0  0  0  0  0  0  0
   47.5369    1.3466    6.7126 O   0  0  0  0  0  0  0  0  0  0  0  0
   47.5373    1.3475    6.7120 O   0  0  0  0  0  0  0  0  0  0  0  0
   47.0653    1.0956    7.5200 H   0  0  0  0  0  0  0  0  0  0  0  0
   47.5488    2.3160    6.7399 H   0  0  0  0  0  0  0  0  0  0  0  0
   46.4790    0.5081    6.6772 H   0  0  0  0  0  0  0  0  0  0  0  0
   46.6516    1.3525    8.2291 H   0  0  0  0  0  0  0  0  0  0  0  0
   48.0171    0.4283    7.5715 H   0  0  0  0  0  0  0  0  0  0  0  0
   47.4758    0.1330    6.9298 H   0  0  0  0  0  0  0  0  0  0  0  0
   46.0589    1.1263    7.3261 H   0  0  0  0  0  0  0  0  0  0  0  0
   47.5029    1.1741    8.3674 H   0  0  0  0  0  0  0  0  0  0  0  0
   47.5487    2.3161    6.7401 H   0  0  0  0  0  0  0  0  0  0  0  0
   47.0654    1.0955    7.5199 H   0  0  0  0  0  0  0  0  0  0  0  0
   47.0647    1.0974    7.5212 H   0  0  0  0  0  0  0  0  0  0  0  0
   47.5498    2.3152    6.7382 H   0  0  0  0  0  0  0  0  0  0  0  0
   47.5487    2.3161    6.7401 H   0  0  0  0  0  0  0  0  0  0  0  0
   47.0654    1.0955    7.5199 H   0  0  0  0  0  0  0  0  0  0  0  0
  5  2  1  0
  3  2  1  0
  4  2  2  0
  7  6  1  0
  8  6  2  0
  9  6  1  0
  1 14  1  0
  1 15  1  0
  5 16  1  0
  5 17  1  0
  5 18  1  0
  9 19  1  0
  9 20  1  0
  9 21  1  0
 11 22  1  0
 11 23  1  0
 12 24  1  0
 12 25  1  0
 13 26  1  0
 13 27  1  0
M  CHG  3   3  -1   7  -1  10   2
M  END
> <Uni-Dock RESULT> 
ENERGY=   -6.963  LOWER_BOUND=    1.252  UPPER_BOUND=    1.898
INTER + INTRA:          -6.963
INTER:                  -6.963
INTRA:                   0.000
UNBOUND:                 0.000

$$$$

     RDKit          3D

 27 20  0  0  0  0  0  0  0  0999 V2000
   47.1606    3.1858    6.2170 O   0  0  0  0  0  0  0  0  0  0  0  0
   47.6996    2.3825    6.2799 C   0  0  0  0  0  0  0  0  0  0  0  0
   47.9632    1.4622    7.1027 O   0  0  0  0  0  0  0  0  0  0  0  0
   48.1211    2.5630    5.1031 O   0  0  0  0  0  0  0  0  0  0  0  0
   46.7263    3.4374    6.7765 C   0  0  0  0  0  0  0  0  0  0  0  0
   47.6966    2.4126    6.2179 C   0  0  0  0  0  0  0  0  0  0  0  0
   48.1118    1.5354    7.0261 O   0  0  0  0  0  0  0  0  0  0  0  0
   47.9629    2.5783    4.9953 O   0  0  0  0  0  0  0  0  0  0  0  0
   46.7285    3.4200    6.8134 C   0  0  0  0  0  0  0  0  0  0  0  0
   47.1371    2.9937    6.5646 Mg  0  0  0  0  0 15  0  0  0  0  0  0
   47.1607    3.1857    6.2170 O   0  0  0  0  0  0  0  0  0  0  0  0
   47.1599    3.1866    6.2174 O   0  0  0  0  0  0  0  0  0  0  0  0
   47.1607    3.1857    6.2170 O   0  0  0  0  0  0  0  0  0  0  0  0
   46.6246    3.4158    6.9907 H   0  0  0  0  0  0  0  0  0  0  0  0
   47.6261    2.3797    6.4860 H   0  0  0  0  0  0  0  0  0  0  0  0
   47.2072    4.4202    6.7645 H   0  0  0  0  0  0  0  0  0  0  0  0
   46.3963    3.2262    7.7981 H   0  0  0  0  0  0  0  0  0  0  0  0
   45.8461    3.4645    6.1273 H   0  0  0  0  0  0  0  0  0  0  0  0
   46.4069    4.1530    6.0673 H   0  0  0  0  0  0  0  0  0  0  0  0
   47.2102    3.9542    7.6378 H   0  0  0  0  0  0  0  0  0  0  0  0
   45.8430    2.9026    7.1942 H   0  0  0  0  0  0  0  0  0  0  0  0
   47.6261    2.3796    6.4862 H   0  0  0  0  0  0  0  0  0  0  0  0
   46.6246    3.4159    6.9906 H   0  0  0  0  0  0  0  0  0  0  0  0
   46.6248    3.4144    6.9924 H   0  0  0  0  0  0  0  0  0  0  0  0
   47.6266    2.3803    6.4840 H   0  0  0  0  0  0  0  0  0  0  0  0
   47.6261    2.3796    6.4862 H   0  0  0  0  0  0  0  0  0  0  0  0
   46.6246    3.4159    6.9906 H   0  0  0  0  0  0  0  0  0  0  0  0
  5  2  1  0
  3  2  1  0
  4  2  2  0
  7  6  1  0
  8  6  2  0
  9  6  1  0
  1 14  1  0
  1 15  1  0
  5 16  1  0
  5 17  1  0
  5 18  1  0
  9 19  1  0
  9 20  1  0
  9 21  1  0
 11 22  1  0
 11 23  1  0
 12 24  1  0
 12 25  1  0
 13 26  1  0
 13 27  1  0
M  CHG  3   3  -1   7  -1  10   2
M  END
> <Uni-Dock RESULT> 
ENERGY=   -6.705  LOWER_BOUND=    1.886  UPPER_BOUND=    2.544
INTER + INTRA:          -6.705
INTER:                  -6.705
INTRA:                   0.000
UNBOUND:                 0.000

$$$$

     RDKit          3D

 27 20  0  0  0  0  0  0  0  0999 V2000
   47.2200    2.7757    6.9723 O   0  0  0  0  0  0  0  0  0  0  0  0
   47.7428    2.3718    6.2628 C   0  0  0  0  0  0  0  0  0  0  0  0
   48.0881    2.6024    5.0708 O   0  0  0  0  0  0  0  0  0  0  0  0
   48.0194    1.3934    7.0121 O   0  0  0  0  0  0  0  0  0  0  0  0
   46.8588    3.4306    6.8985 C   0  0  0  0  0  0  0  0  0  0  0  0
   47.7461    2.3411    6.3245 C   0  0  0  0  0  0  0  0  0  0  0  0
   48.0233    2.4337    5.0958 O   0  0  0  0  0  0  0  0  0  0  0  0
   48.0950    1.4716    7.1703 O   0  0  0  0  0  0  0  0  0  0  0  0
   46.8563    3.4485    6.8618 C   0  0  0  0  0  0  0  0  0  0  0  0
   47.2316    2.9825    6.6326 Mg  0  0  0  0  0 15  0  0  0  0  0  0
   47.2201    2.7756    6.9722 O   0  0  0  0  0  0  0  0  0  0  0  0
   47.2194    2.7764    6.9727 O   0  0  0  0  0  0  0  0  0  0  0  0
   47.2201    2.7756    6.9722 O   0  0  0  0  0  0  0  0  0  0  0  0
   46.8051    3.6298    6.7794 H   0  0  0  0  0  0  0  0  0  0  0  0
   47.6697    2.5420    6.1463 H   0  0  0  0  0  0  0  0  0  0  0  0
   45.9044    2.9863    7.1966 H   0  0  0  0  0  0  0  0  0  0  0  0
   46.6562    4.2509    6.2032 H   0  0  0  0  0  0  0  0  0  0  0  0
   47.3516    3.8418    7.7845 H   0  0  0  0  0  0  0  0  0  0  0  0
   46.6505    3.3128    7.9279 H   0  0  0  0  0  0  0  0  0  0  0  0
   45.9038    3.4526    6.3235 H   0  0  0  0  0  0  0  0  0  0  0  0
   47.3463    4.4170    6.7246 H   0  0  0  0  0  0  0  0  0  0  0  0
   47.6697    2.5421    6.1462 H   0  0  0  0  0  0  0  0  0  0  0  0
   46.8051    3.6297    6.7795 H   0  0  0  0  0  0  0  0  0  0  0  0
   46.8055    3.6304    6.7773 H   0  0  0  0  0  0  0  0  0  0  0  0
   47.6699    2.5405    6.1479 H   0  0  0  0  0  0  0  0  0  0  0  0
   47.6697    2.5421    6.1462 H   0  0  0  0  0  0  0  0  0  0  0  0
   46.8051    3.6297    6.7795 H   0  0  0  0  0  0  0  0  0  0  0  0
  5  2  1  0
  3  2  1  0
  4  2  2  0
  7  6  1  0
  8  6  2  0
  9  6  1  0
  1 14  1  0
  1 15  1  0
  5 16  1  0
  5 17  1  0
  5 18  1  0
  9 19  1  0
  9 20  1  0
  9 21  1  0
 11 22  1  0
 11 23  1  0
 12 24  1  0
 12 25  1  0
 13 26  1  0
 13 27  1  0
M  CHG  3   3  -1   7  -1  10   2
M  END
> <Uni-Dock RESULT> 
ENERGY=   -6.623  LOWER_BOUND=    1.662  UPPER_BOUND=    2.347
INTER + INTRA:          -6.623
INTER:                  -6.623
INTRA:                   0.000
UNBOUND:                 0.000

$$$$

     RDKit          3D

 27 20  0  0  0  0  0  0  0  0999 V2000
   46.8832    3.3979    6.3914 O   0  0  0  0  0  0  0  0  0  0  0  0
   47.4077    2.5897    6.2839 C   0  0  0  0  0  0  0  0  0  0  0  0
   47.8670    1.6409    6.9783 O   0  0  0  0  0  0  0  0  0  0  0  0
   47.5039    2.8069    5.0435 O   0  0  0  0  0  0  0  0  0  0  0  0
   46.6170    3.6332    7.0537 C   0  0  0  0  0  0  0  0  0  0  0  0
   47.3888    2.6219    6.2259 C   0  0  0  0  0  0  0  0  0  0  0  0
   47.9910    1.7156    6.8672 O   0  0  0  0  0  0  0  0  0  0  0  0
   47.3230    2.8268    4.9822 O   0  0  0  0  0  0  0  0  0  0  0  0
   46.6287    3.6145    7.0881 C   0  0  0  0  0  0  0  0  0  0  0  0
   46.9501    3.1944    6.7266 Mg  0  0  0  0  0 15  0  0  0  0  0  0
   46.8833    3.3978    6.3914 O   0  0  0  0  0  0  0  0  0  0  0  0
   46.8827    3.3986    6.3920 O   0  0  0  0  0  0  0  0  0  0  0  0
   46.8833    3.3978    6.3914 O   0  0  0  0  0  0  0  0  0  0  0  0
   46.5755    3.6050    7.2866 H   0  0  0  0  0  0  0  0  0  0  0  0
   47.3916    2.5804    6.5020 H   0  0  0  0  0  0  0  0  0  0  0  0
   47.0917    4.6129    6.9444 H   0  0  0  0  0  0  0  0  0  0  0  0
   46.5674    3.3899    8.1194 H   0  0  0  0  0  0  0  0  0  0  0  0
   45.5964    3.6873    6.6634 H   0  0  0  0  0  0  0  0  0  0  0  0
   46.1310    4.3740    6.4775 H   0  0  0  0  0  0  0  0  0  0  0  0
   47.3199    4.1180    7.7707 H   0  0  0  0  0  0  0  0  0  0  0  0
   45.8687    3.0900    7.6749 H   0  0  0  0  0  0  0  0  0  0  0  0
   47.3917    2.5803    6.5022 H   0  0  0  0  0  0  0  0  0  0  0  0
   46.5755    3.6051    7.2864 H   0  0  0  0  0  0  0  0  0  0  0  0
   46.5762    3.6035    7.2880 H   0  0  0  0  0  0  0  0  0  0  0  0
   47.3916    2.5811    6.4999 H   0  0  0  0  0  0  0  0  0  0  0  0
   47.3917    2.5803    6.5022 H   0  0  0  0  0  0  0  0  0  0  0  0
   46.5755    3.6051    7.2864 H   0  0  0  0  0  0  0  0  0  0  0  0
  5  2  1  0
  3  2  1  0
  4  2  2  0
  7  6  1  0
  8  6  2  0
  9  6  1  0
  1 14  1  0
  1 15  1  0
  5 16  1  0
  5 17  1  0
  5 18  1  0
  9 19  1  0
  9 20  1  0
  9 21  1  0
 11 22  1  0
 11 23  1  0
 12 24  1  0
 12 25  1  0
 13 26  1  0
 13 27  1  0
M  CHG  3   3  -1   7  -1  10   2
M  END
> <Uni-Dock RESULT> 
ENERGY=   -6.435  LOWER_BOUND=    2.055  UPPER_BOUND=    2.658
INTER + INTRA:          -6.435
INTER:                  -6.435
INTRA:                   0.000
UNBOUND:                 0.000

$$$$

     RDKit          3D

 27 20  0  0  0  0  0  0  0  0999 V2000
   46.4520    4.0982    7.5126 O   0  0  0  0  0  0  0  0  0  0  0  0
   45.6090    4.0237    7.9852 C   0  0  0  0  0  0  0  0  0  0  0  0
   44.5992    3.2682    8.0392 O   0  0  0  0  0  0  0  0  0  0  0  0
   45.8704    5.0749    8.6347 O   0  0  0  0  0  0  0  0  0  0  0  0
   46.6765    3.6093    6.9876 C   0  0  0  0  0  0  0  0  0  0  0  0
   45.6522    4.0726    8.0074 C   0  0  0  0  0  0  0  0  0  0  0  0
   44.5564    3.4450    8.0256 O   0  0  0  0  0  0  0  0  0  0  0  0
   46.0420    5.0426    8.7148 O   0  0  0  0  0  0  0  0  0  0  0  0
   46.6507    3.5807    6.9741 C   0  0  0  0  0  0  0  0  0  0  0  0
   46.2277    3.7863    7.4092 Mg  0  0  0  0  0 15  0  0  0  0  0  0
   46.4519    4.0982    7.5126 O   0  0  0  0  0  0  0  0  0  0  0  0
   46.4528    4.0978    7.5119 O   0  0  0  0  0  0  0  0  0  0  0  0
   46.4519    4.0982    7.5126 O   0  0  0  0  0  0  0  0  0  0  0  0
   46.6535    3.4071    6.8639 H   0  0  0  0  0  0  0  0  0  0  0  0
   45.5776    3.8537    7.8510 H   0  0  0  0  0  0  0  0  0  0  0  0
   46.8225    4.4039    6.2497 H   0  0  0  0  0  0  0  0  0  0  0  0
   46.3945    2.6938    6.4590 H   0  0  0  0  0  0  0  0  0  0  0  0
   47.6216    3.4306    7.5090 H   0  0  0  0  0  0  0  0  0  0  0  0
   47.5766    4.1630    7.0055 H   0  0  0  0  0  0  0  0  0  0  0  0
   46.2207    3.6688    5.9719 H   0  0  0  0  0  0  0  0  0  0  0  0
   46.8952    2.5316    7.1651 H   0  0  0  0  0  0  0  0  0  0  0  0
   45.5775    3.8535    7.8510 H   0  0  0  0  0  0  0  0  0  0  0  0
   46.6536    3.4073    6.8640 H   0  0  0  0  0  0  0  0  0  0  0  0
   46.6519    3.4056    6.8638 H   0  0  0  0  0  0  0  0  0  0  0  0
   45.5783    3.8555    7.8520 H   0  0  0  0  0  0  0  0  0  0  0  0
   45.5775    3.8535    7.8510 H   0  0  0  0  0  0  0  0  0  0  0  0
   46.6536    3.4073    6.8640 H   0  0  0  0  0  0  0  0  0  0  0  0
  5  2  1  0
  3  2  1  0
  4  2  2  0
  7  6  1  0
  8  6  2  0
  9  6  1  0
  1 14  1  0
  1 15  1  0
  5 16  1  0
  5 17  1  0
  5 18  1  0
  9 19  1  0
  9 20  1  0
  9 21  1  0
 11 22  1  0
 11 23  1  0
 12 24  1  0
 12 25  1  0
 13 26  1  0
 13 27  1  0
M  CHG  3   3  -1   7  -1  10   2
M  END
> <Uni-Dock RESULT> 
ENERGY=   -5.865  LOWER_BOUND=    3.000  UPPER_BOUND=    3.399
INTER + INTRA:          -5.865
INTER:                  -5.865
INTRA:                   0.000
UNBOUND:                 0.000

$$$$

     RDKit          3D

 27 20  0  0  0  0  0  0  0  0999 V2000
   46.4356    4.1040    7.5187 O   0  0  0  0  0  0  0  0  0  0  0  0
   45.5962    4.0245    7.9972 C   0  0  0  0  0  0  0  0  0  0  0  0
   44.5905    3.2640    8.0566 O   0  0  0  0  0  0  0  0  0  0  0  0
   45.8572    5.0756    8.6470 O   0  0  0  0  0  0  0  0  0  0  0  0
   46.6588    3.6173    6.9912 C   0  0  0  0  0  0  0  0  0  0  0  0
   45.6394    4.0736    8.0191 C   0  0  0  0  0  0  0  0  0  0  0  0
   44.5468    3.4406    8.0438 O   0  0  0  0  0  0  0  0  0  0  0  0
   46.0295    5.0440    8.7258 O   0  0  0  0  0  0  0  0  0  0  0  0
   46.6330    3.5887    6.9778 C   0  0  0  0  0  0  0  0  0  0  0  0
   46.2120    3.7913    7.4163 Mg  0  0  0  0  0 15  0  0  0  0  0  0
   46.4355    4.1040    7.5188 O   0  0  0  0  0  0  0  0  0  0  0  0
   46.4363    4.1037    7.5180 O   0  0  0  0  0  0  0  0  0  0  0  0
   46.4355    4.1040    7.5188 O   0  0  0  0  0  0  0  0  0  0  0  0
   46.6358    3.4153    6.8673 H   0  0  0  0  0  0  0  0  0  0  0  0
   45.5647    3.8546    7.8628 H   0  0  0  0  0  0  0  0  0  0  0  0
   46.7957    4.4141    6.2539 H   0  0  0  0  0  0  0  0  0  0  0  0
   46.3774    2.7015    6.4626 H   0  0  0  0  0  0  0  0  0  0  0  0
   47.6083    3.4421    7.5056 H   0  0  0  0  0  0  0  0  0  0  0  0
   47.5562    4.1753    7.0039 H   0  0  0  0  0  0  0  0  0  0  0  0
   46.1954    3.6766    5.9789 H   0  0  0  0  0  0  0  0  0  0  0  0
   46.8838    2.5403    7.1649 H   0  0  0  0  0  0  0  0  0  0  0  0
   45.5646    3.8545    7.8628 H   0  0  0  0  0  0  0  0  0  0  0  0
   46.6360    3.4154    6.8673 H   0  0  0  0  0  0  0  0  0  0  0  0
   46.6342    3.4138    6.8671 H   0  0  0  0  0  0  0  0  0  0  0  0
   45.5655    3.8564    7.8637 H   0  0  0  0  0  0  0  0  0  0  0  0
   45.5646    3.8545    7.8628 H   0  0  0  0  0  0  0  0  0  0  0  0
   46.6360    3.4154    6.8673 H   0  0  0  0  0  0  0  0  0  0  0  0
  5  2  1  0
  3  2  1  0
  4  2  2  0
  7  6  1  0
  8  6  2  0
  9  6  1  0
  1 14  1  0
  1 15  1  0
  5 16  1  0
  5 17  1  0
  5 18  1  0
  9 19  1  0
  9 20  1  0
  9 21  1  0
 11 22  1  0
 11 23  1  0
 12 24  1  0
 12 25  1  0
 13 26  1  0
 13 27  1  0
M  CHG  3   3  -1   7  -1  10   2
M  END
> <Uni-Dock RESULT> 
ENERGY=   -5.863  LOWER_BOUND=    3.009  UPPER_BOUND=    3.407
INTER + INTRA:          -5.863
INTER:                  -5.863
INTRA:                   0.000
UNBOUND:                 0.000

$$$$

     RDKit          3D

 27 20  0  0  0  0  0  0  0  0999 V2000
   42.7529    5.3828   12.6935 O   0  0  0  0  0  0  0  0  0  0  0  0
   42.7372    5.3395   11.7253 C   0  0  0  0  0  0  0  0  0  0  0  0
   43.2193    4.6494   10.7847 O   0  0  0  0  0  0  0  0  0  0  0  0
   41.9642    6.3375   11.6846 O   0  0  0  0  0  0  0  0  0  0  0  0
   43.1465    4.9075   13.1226 C   0  0  0  0  0  0  0  0  0  0  0  0
   42.6938    5.3844   11.7546 C   0  0  0  0  0  0  0  0  0  0  0  0
   43.2380    4.8291   10.7593 O   0  0  0  0  0  0  0  0  0  0  0  0
   41.8157    6.2902   11.7970 O   0  0  0  0  0  0  0  0  0  0  0  0
   43.1727    4.8814   13.1052 C   0  0  0  0  0  0  0  0  0  0  0  0
   42.9724    5.0918   12.5342 Mg  0  0  0  0  0 15  0  0  0  0  0  0
   42.7529    5.3829   12.6935 O   0  0  0  0  0  0  0  0  0  0  0  0
   42.7532    5.3825   12.6946 O   0  0  0  0  0  0  0  0  0  0  0  0
   42.7529    5.3829   12.6935 O   0  0  0  0  0  0  0  0  0  0  0  0
   43.2814    4.7137   13.1538 H   0  0  0  0  0  0  0  0  0  0  0  0
   42.8828    5.1789   11.7552 H   0  0  0  0  0  0  0  0  0  0  0  0
   43.6682    5.7271   13.6259 H   0  0  0  0  0  0  0  0  0  0  0  0
   43.8127    4.0400   13.0927 H   0  0  0  0  0  0  0  0  0  0  0  0
   42.2583    4.6417   13.7034 H   0  0  0  0  0  0  0  0  0  0  0  0
   42.6677    5.4000   13.9258 H   0  0  0  0  0  0  0  0  0  0  0  0
   44.2498    5.0475   13.2019 H   0  0  0  0  0  0  0  0  0  0  0  0
   42.9687    3.8103   13.1954 H   0  0  0  0  0  0  0  0  0  0  0  0
   42.8829    5.1788   11.7551 H   0  0  0  0  0  0  0  0  0  0  0  0
   43.2813    4.7138   13.1539 H   0  0  0  0  0  0  0  0  0  0  0  0
   43.2824    4.7123   13.1525 H   0  0  0  0  0  0  0  0  0  0  0  0
   42.8815    5.1806   11.7555 H   0  0  0  0  0  0  0  0  0  0  0  0
   42.8829    5.1788   11.7551 H   0  0  0  0  0  0  0  0  0  0  0  0
   43.2813    4.7138   13.1539 H   0  0  0  0  0  0  0  0  0  0  0  0
  5  2  1  0
  3  2  1  0
  4  2  2  0
  7  6  1  0
  8  6  2  0
  9  6  1  0
  1 14  1  0
  1 15  1  0
  5 16  1  0
  5 17  1  0
  5 18  1  0
  9 19  1  0
  9 20  1  0
  9 21  1  0
 11 22  1  0
 11 23  1  0
 12 24  1  0
 12 25  1  0
 13 26  1  0
 13 27  1  0
M  CHG  3   3  -1   7  -1  10   2
M  END
> <Uni-Dock RESULT> 
ENERGY=   -5.230  LOWER_BOUND=    6.851  UPPER_BOUND=    7.925
INTER + INTRA:          -5.230
INTER:                  -5.230
INTRA:                   0.000
UNBOUND:                 0.000

$$$$
