
     RDKit          3D

 27 20  0  0  0  0  0  0  0  0999 V2000
   47.6330    1.2196    7.0485 O   0  0  0  0  0  0  0  0  0  0  0  0
   46.7572    1.1321    7.4144 C   0  0  0  0  0  0  0  0  0  0  0  0
   45.8121    1.8764    7.7994 O   0  0  0  0  0  0  0  0  0  0  0  0
   46.8902   -0.1199    7.5036 O   0  0  0  0  0  0  0  0  0  0  0  0
   47.9078    1.8604    6.7419 C   0  0  0  0  0  0  0  0  0  0  0  0
   46.9474    1.1726    7.6583 C   0  0  0  0  0  0  0  0  0  0  0  0
   46.9358   -0.0896    7.6157 O   0  0  0  0  0  0  0  0  0  0  0  0
   46.3843    1.9611    8.4674 O   0  0  0  0  0  0  0  0  0  0  0  0
   47.7657    1.8392    6.5663 C   0  0  0  0  0  0  0  0  0  0  0  0
   47.4211    1.5556    7.0260 Mg  0  0  0  0  0 15  0  0  0  0  0  0
   47.6312    1.2186    7.0504 O   0  0  0  0  0  0  0  0  0  0  0  0
   47.6303    1.2181    7.0513 O   0  0  0  0  0  0  0  0  0  0  0  0
   47.6323    1.2193    7.0492 O   0  0  0  0  0  0  0  0  0  0  0  0
   47.8123    2.0030    6.5070 H   0  0  0  0  0  0  0  0  0  0  0  0
   46.8181    1.4441    7.5224 H   0  0  0  0  0  0  0  0  0  0  0  0
   48.3429    2.5862    7.4354 H   0  0  0  0  0  0  0  0  0  0  0  0
   48.6933    1.1646    6.4316 H   0  0  0  0  0  0  0  0  0  0  0  0
   47.5443    2.3891    5.8556 H   0  0  0  0  0  0  0  0  0  0  0  0
   47.7373    2.9294    6.6557 H   0  0  0  0  0  0  0  0  0  0  0  0
   47.3694    1.5623    5.5849 H   0  0  0  0  0  0  0  0  0  0  0  0
   48.8082    1.5138    6.6334 H   0  0  0  0  0  0  0  0  0  0  0  0
   47.8161    1.9989    6.5064 H   0  0  0  0  0  0  0  0  0  0  0  0
   46.8162    1.4492    7.5210 H   0  0  0  0  0  0  0  0  0  0  0  0
   46.8152    1.4516    7.5205 H   0  0  0  0  0  0  0  0  0  0  0  0
   47.8179    1.9969    6.5062 H   0  0  0  0  0  0  0  0  0  0  0  0
   47.8137    2.0015    6.5068 H   0  0  0  0  0  0  0  0  0  0  0  0
   46.8174    1.4459    7.5219 H   0  0  0  0  0  0  0  0  0  0  0  0
  5  2  1  0
  3  2  1  0
  4  2  2  0
  7  6  1  0
  8  6  2  0
  9  6  1  0
  1 14  1  0
  1 15  1  0
  5 16  1  0
  5 17  1  0
  5 18  1  0
  9 19  1  0
  9 20  1  0
  9 21  1  0
 11 22  1  0
 11 23  1  0
 12 24  1  0
 12 25  1  0
 13 26  1  0
 13 27  1  0
M  CHG  3   3  -1   7  -1  10   2
M  END
> <Uni-Dock RESULT> 
ENERGY=   -6.810  LOWER_BOUND=    0.000  UPPER_BOUND=    0.000
INTER + INTRA:          -6.810
INTER:                  -6.810
INTRA:                   0.000
UNBOUND:                 0.000

$$$$

     RDKit          3D

 27 20  0  0  0  0  0  0  0  0999 V2000
   47.4551    1.3691    6.6172 O   0  0  0  0  0  0  0  0  0  0  0  0
   47.7338    2.2762    6.5274 C   0  0  0  0  0  0  0  0  0  0  0  0
   47.4937    3.3982    7.0554 O   0  0  0  0  0  0  0  0  0  0  0  0
   48.4327    1.9897    5.5161 O   0  0  0  0  0  0  0  0  0  0  0  0
   47.0784    1.0936    7.2191 C   0  0  0  0  0  0  0  0  0  0  0  0
   47.4731    2.2504    6.3581 C   0  0  0  0  0  0  0  0  0  0  0  0
   48.3259    2.0150    5.4569 O   0  0  0  0  0  0  0  0  0  0  0  0
   46.7713    3.2800    6.5604 O   0  0  0  0  0  0  0  0  0  0  0  0
   47.2634    1.1179    7.3481 C   0  0  0  0  0  0  0  0  0  0  0  0
   47.3537    1.5942    6.9291 Mg  0  0  0  0  0 15  0  0  0  0  0  0
   47.4556    1.3714    6.6157 O   0  0  0  0  0  0  0  0  0  0  0  0
   47.4558    1.3726    6.6149 O   0  0  0  0  0  0  0  0  0  0  0  0
   47.4552    1.3699    6.6166 O   0  0  0  0  0  0  0  0  0  0  0  0
   47.1678    1.0771    7.4954 H   0  0  0  0  0  0  0  0  0  0  0  0
   47.4383    2.3363    6.6749 H   0  0  0  0  0  0  0  0  0  0  0  0
   45.9912    1.2166    7.2131 H   0  0  0  0  0  0  0  0  0  0  0  0
   47.3228    0.1524    6.7172 H   0  0  0  0  0  0  0  0  0  0  0  0
   47.4235    1.0325    8.2555 H   0  0  0  0  0  0  0  0  0  0  0  0
   46.5155    1.3807    8.1023 H   0  0  0  0  0  0  0  0  0  0  0  0
   48.2047    0.8926    7.8582 H   0  0  0  0  0  0  0  0  0  0  0  0
   46.9223    0.2225    6.8199 H   0  0  0  0  0  0  0  0  0  0  0  0
   47.1690    1.0729    7.4919 H   0  0  0  0  0  0  0  0  0  0  0  0
   47.4366    2.3381    6.6799 H   0  0  0  0  0  0  0  0  0  0  0  0
   47.4359    2.3390    6.6823 H   0  0  0  0  0  0  0  0  0  0  0  0
   47.1695    1.0710    7.4901 H   0  0  0  0  0  0  0  0  0  0  0  0
   47.1682    1.0756    7.4941 H   0  0  0  0  0  0  0  0  0  0  0  0
   47.4377    2.3369    6.6766 H   0  0  0  0  0  0  0  0  0  0  0  0
  5  2  1  0
  3  2  1  0
  4  2  2  0
  7  6  1  0
  8  6  2  0
  9  6  1  0
  1 14  1  0
  1 15  1  0
  5 16  1  0
  5 17  1  0
  5 18  1  0
  9 19  1  0
  9 20  1  0
  9 21  1  0
 11 22  1  0
 11 23  1  0
 12 24  1  0
 12 25  1  0
 13 26  1  0
 13 27  1  0
M  CHG  3   3  -1   7  -1  10   2
M  END
> <Uni-Dock RESULT> 
ENERGY=   -6.774  LOWER_BOUND=    1.184  UPPER_BOUND=    1.820
INTER + INTRA:          -6.774
INTER:                  -6.774
INTRA:                   0.000
UNBOUND:                 0.000

$$$$

     RDKit          3D

 27 20  0  0  0  0  0  0  0  0999 V2000
   47.4647    1.8622    7.2081 O   0  0  0  0  0  0  0  0  0  0  0  0
   47.5116    2.3888    6.4149 C   0  0  0  0  0  0  0  0  0  0  0  0
   47.6536    2.2187    5.1715 O   0  0  0  0  0  0  0  0  0  0  0  0
   47.4884    3.4555    7.0893 O   0  0  0  0  0  0  0  0  0  0  0  0
   47.3437    1.1103    7.2174 C   0  0  0  0  0  0  0  0  0  0  0  0
   47.8072    2.3377    6.5005 C   0  0  0  0  0  0  0  0  0  0  0  0
   47.6120    3.4388    7.0875 O   0  0  0  0  0  0  0  0  0  0  0  0
   48.4768    2.0809    5.4617 O   0  0  0  0  0  0  0  0  0  0  0  0
   47.1302    1.1422    7.1477 C   0  0  0  0  0  0  0  0  0  0  0  0
   47.4148    1.6481    6.8766 Mg  0  0  0  0  0 15  0  0  0  0  0  0
   47.4658    1.8643    7.2066 O   0  0  0  0  0  0  0  0  0  0  0  0
   47.4663    1.8654    7.2058 O   0  0  0  0  0  0  0  0  0  0  0  0
   47.4651    1.8630    7.2076 O   0  0  0  0  0  0  0  0  0  0  0  0
   47.1095    0.9645    7.1254 H   0  0  0  0  0  0  0  0  0  0  0  0
   47.6701    2.1177    6.2962 H   0  0  0  0  0  0  0  0  0  0  0  0
   48.2230    0.4725    7.0866 H   0  0  0  0  0  0  0  0  0  0  0  0
   47.2255    1.3218    8.2845 H   0  0  0  0  0  0  0  0  0  0  0  0
   46.4576    0.5695    6.8719 H   0  0  0  0  0  0  0  0  0  0  0  0
   47.3356    0.2201    6.5954 H   0  0  0  0  0  0  0  0  0  0  0  0
   46.0475    1.2973    7.1713 H   0  0  0  0  0  0  0  0  0  0  0  0
   47.4942    1.0200    8.1723 H   0  0  0  0  0  0  0  0  0  0  0  0
   47.1097    0.9664    7.1307 H   0  0  0  0  0  0  0  0  0  0  0  0
   47.6689    2.1137    6.2925 H   0  0  0  0  0  0  0  0  0  0  0  0
   47.6683    2.1118    6.2907 H   0  0  0  0  0  0  0  0  0  0  0  0
   47.1098    0.9673    7.1332 H   0  0  0  0  0  0  0  0  0  0  0  0
   47.1095    0.9652    7.1273 H   0  0  0  0  0  0  0  0  0  0  0  0
   47.6697    2.1163    6.2949 H   0  0  0  0  0  0  0  0  0  0  0  0
  5  2  1  0
  3  2  1  0
  4  2  2  0
  7  6  1  0
  8  6  2  0
  9  6  1  0
  1 14  1  0
  1 15  1  0
  5 16  1  0
  5 17  1  0
  5 18  1  0
  9 19  1  0
  9 20  1  0
  9 21  1  0
 11 22  1  0
 11 23  1  0
 12 24  1  0
 12 25  1  0
 13 26  1  0
 13 27  1  0
M  CHG  3   3  -1   7  -1  10   2
M  END
> <Uni-Dock RESULT> 
ENERGY=   -6.457  LOWER_BOUND=    1.288  UPPER_BOUND=    2.169
INTER + INTRA:          -6.457
INTER:                  -6.457
INTRA:                   0.000
UNBOUND:                 0.000

$$$$

     RDKit          3D

 27 20  0  0  0  0  0  0  0  0999 V2000
   46.8892    2.4683    6.9865 O   0  0  0  0  0  0  0  0  0  0  0  0
   47.7301    2.0754    6.7694 C   0  0  0  0  0  0  0  0  0  0  0  0
   48.7396    2.3313    6.0548 O   0  0  0  0  0  0  0  0  0  0  0  0
   47.4422    1.0336    7.4214 O   0  0  0  0  0  0  0  0  0  0  0  0
   46.7087    3.1962    6.8535 C   0  0  0  0  0  0  0  0  0  0  0  0
   47.5351    1.9900    6.5414 C   0  0  0  0  0  0  0  0  0  0  0  0
   47.3954    0.9986    7.3112 O   0  0  0  0  0  0  0  0  0  0  0  0
   48.1515    2.0830    5.4437 O   0  0  0  0  0  0  0  0  0  0  0  0
   46.8551    3.2634    7.0132 C   0  0  0  0  0  0  0  0  0  0  0  0
   47.1411    2.7249    6.8164 Mg  0  0  0  0  0 15  0  0  0  0  0  0
   46.8908    2.4662    6.9857 O   0  0  0  0  0  0  0  0  0  0  0  0
   46.8916    2.4651    6.9853 O   0  0  0  0  0  0  0  0  0  0  0  0
   46.8898    2.4676    6.9862 O   0  0  0  0  0  0  0  0  0  0  0  0
   46.8315    3.4354    6.9645 H   0  0  0  0  0  0  0  0  0  0  0  0
   47.7025    2.2711    6.4981 H   0  0  0  0  0  0  0  0  0  0  0  0
   46.3331    3.4312    5.8531 H   0  0  0  0  0  0  0  0  0  0  0  0
   45.8598    2.9158    7.4846 H   0  0  0  0  0  0  0  0  0  0  0  0
   47.1742    4.0908    7.2777 H   0  0  0  0  0  0  0  0  0  0  0  0
   47.0114    4.0844    6.3068 H   0  0  0  0  0  0  0  0  0  0  0  0
   47.2599    3.5615    7.9849 H   0  0  0  0  0  0  0  0  0  0  0  0
   45.7789    3.0936    7.1135 H   0  0  0  0  0  0  0  0  0  0  0  0
   46.8273    3.4329    6.9672 H   0  0  0  0  0  0  0  0  0  0  0  0
   47.7051    2.2757    6.4962 H   0  0  0  0  0  0  0  0  0  0  0  0
   47.7064    2.2779    6.4953 H   0  0  0  0  0  0  0  0  0  0  0  0
   46.8253    3.4317    6.9685 H   0  0  0  0  0  0  0  0  0  0  0  0
   46.8300    3.4345    6.9654 H   0  0  0  0  0  0  0  0  0  0  0  0
   47.7034    2.2727    6.4974 H   0  0  0  0  0  0  0  0  0  0  0  0
  5  2  1  0
  3  2  1  0
  4  2  2  0
  7  6  1  0
  8  6  2  0
  9  6  1  0
  1 14  1  0
  1 15  1  0
  5 16  1  0
  5 17  1  0
  5 18  1  0
  9 19  1  0
  9 20  1  0
  9 21  1  0
 11 22  1  0
 11 23  1  0
 12 24  1  0
 12 25  1  0
 13 26  1  0
 13 27  1  0
M  CHG  3   3  -1   7  -1  10   2
M  END
> <Uni-Dock RESULT> 
ENERGY=   -6.146  LOWER_BOUND=    1.347  UPPER_BOUND=    1.921
INTER + INTRA:          -6.146
INTER:                  -6.146
INTRA:                   0.000
UNBOUND:                 0.000

$$$$

     RDKit          3D

 27 20  0  0  0  0  0  0  0  0999 V2000
   47.3870    2.1367    6.8394 O   0  0  0  0  0  0  0  0  0  0  0  0
   47.1588    1.3855    7.3801 C   0  0  0  0  0  0  0  0  0  0  0  0
   47.4265    0.1533    7.4519 O   0  0  0  0  0  0  0  0  0  0  0  0
   46.3161    2.0704    8.0236 O   0  0  0  0  0  0  0  0  0  0  0  0
   47.9796    2.1571    6.3614 C   0  0  0  0  0  0  0  0  0  0  0  0
   46.9669    1.3747    7.1345 C   0  0  0  0  0  0  0  0  0  0  0  0
   46.2404    2.0303    7.9330 O   0  0  0  0  0  0  0  0  0  0  0  0
   46.8783    0.1728    6.7591 O   0  0  0  0  0  0  0  0  0  0  0  0
   48.1233    2.1572    6.5370 C   0  0  0  0  0  0  0  0  0  0  0  0
   47.6346    1.8293    6.7904 Mg  0  0  0  0  0 15  0  0  0  0  0  0
   47.3851    2.1350    6.8407 O   0  0  0  0  0  0  0  0  0  0  0  0
   47.3842    2.1342    6.8413 O   0  0  0  0  0  0  0  0  0  0  0  0
   47.3863    2.1361    6.8399 O   0  0  0  0  0  0  0  0  0  0  0  0
   48.2627    2.1363    6.4246 H   0  0  0  0  0  0  0  0  0  0  0  0
   47.2543    1.2149    7.1072 H   0  0  0  0  0  0  0  0  0  0  0  0
   47.8157    1.7420    5.3624 H   0  0  0  0  0  0  0  0  0  0  0  0
   47.7029    3.2157    6.3457 H   0  0  0  0  0  0  0  0  0  0  0  0
   49.0428    2.0812    6.6079 H   0  0  0  0  0  0  0  0  0  0  0  0
   48.7143    1.5377    5.8556 H   0  0  0  0  0  0  0  0  0  0  0  0
   48.7796    2.5162    7.3353 H   0  0  0  0  0  0  0  0  0  0  0  0
   47.7400    3.0165    5.9785 H   0  0  0  0  0  0  0  0  0  0  0  0
   48.2602    2.1413    6.4247 H   0  0  0  0  0  0  0  0  0  0  0  0
   47.2587    1.2117    7.1059 H   0  0  0  0  0  0  0  0  0  0  0  0
   47.2607    1.2100    7.1053 H   0  0  0  0  0  0  0  0  0  0  0  0
   48.2590    2.1437    6.4247 H   0  0  0  0  0  0  0  0  0  0  0  0
   48.2618    2.1381    6.4246 H   0  0  0  0  0  0  0  0  0  0  0  0
   47.2558    1.2138    7.1067 H   0  0  0  0  0  0  0  0  0  0  0  0
  5  2  1  0
  3  2  1  0
  4  2  2  0
  7  6  1  0
  8  6  2  0
  9  6  1  0
  1 14  1  0
  1 15  1  0
  5 16  1  0
  5 17  1  0
  5 18  1  0
  9 19  1  0
  9 20  1  0
  9 21  1  0
 11 22  1  0
 11 23  1  0
 12 24  1  0
 12 25  1  0
 13 26  1  0
 13 27  1  0
M  CHG  3   3  -1   7  -1  10   2
M  END
> <Uni-Dock RESULT> 
ENERGY=   -5.855  LOWER_BOUND=    0.683  UPPER_BOUND=    1.454
INTER + INTRA:          -5.855
INTER:                  -5.855
INTRA:                   0.000
UNBOUND:                 0.000

$$$$

     RDKit          3D

 27 20  0  0  0  0  0  0  0  0999 V2000
   47.4284    1.9672    7.1508 O   0  0  0  0  0  0  0  0  0  0  0  0
   46.6510    2.5130    7.0711 C   0  0  0  0  0  0  0  0  0  0  0  0
   46.2131    3.4362    6.3286 O   0  0  0  0  0  0  0  0  0  0  0  0
   46.1748    2.0377    8.1391 O   0  0  0  0  0  0  0  0  0  0  0  0
   47.9504    1.8814    6.6028 C   0  0  0  0  0  0  0  0  0  0  0  0
   46.8566    2.6815    7.2344 C   0  0  0  0  0  0  0  0  0  0  0  0
   46.2384    2.1327    8.1892 O   0  0  0  0  0  0  0  0  0  0  0  0
   46.8086    3.8713    6.8155 O   0  0  0  0  0  0  0  0  0  0  0  0
   47.8017    1.7650    6.4771 C   0  0  0  0  0  0  0  0  0  0  0  0
   47.4023    2.1495    6.7982 Mg  0  0  0  0  0 15  0  0  0  0  0  0
   47.4265    1.9689    7.1518 O   0  0  0  0  0  0  0  0  0  0  0  0
   47.4255    1.9698    7.1524 O   0  0  0  0  0  0  0  0  0  0  0  0
   47.4277    1.9678    7.1512 O   0  0  0  0  0  0  0  0  0  0  0  0
   47.9160    1.7667    6.3378 H   0  0  0  0  0  0  0  0  0  0  0  0
   46.8625    2.7148    6.9061 H   0  0  0  0  0  0  0  0  0  0  0  0
   48.7352    2.6421    6.5525 H   0  0  0  0  0  0  0  0  0  0  0  0
   48.2781    1.0909    7.2848 H   0  0  0  0  0  0  0  0  0  0  0  0
   47.8134    1.4456    5.6086 H   0  0  0  0  0  0  0  0  0  0  0  0
   48.3064    2.2960    5.6644 H   0  0  0  0  0  0  0  0  0  0  0  0
   47.2423    0.9281    6.0486 H   0  0  0  0  0  0  0  0  0  0  0  0
   48.5623    1.3722    7.1586 H   0  0  0  0  0  0  0  0  0  0  0  0
   47.9173    1.7633    6.3421 H   0  0  0  0  0  0  0  0  0  0  0  0
   46.8632    2.7163    6.9008 H   0  0  0  0  0  0  0  0  0  0  0  0
   46.8635    2.7171    6.8982 H   0  0  0  0  0  0  0  0  0  0  0  0
   47.9179    1.7618    6.3442 H   0  0  0  0  0  0  0  0  0  0  0  0
   47.9165    1.7655    6.3393 H   0  0  0  0  0  0  0  0  0  0  0  0
   46.8628    2.7153    6.9042 H   0  0  0  0  0  0  0  0  0  0  0  0
  5  2  1  0
  3  2  1  0
  4  2  2  0
  7  6  1  0
  8  6  2  0
  9  6  1  0
  1 14  1  0
  1 15  1  0
  5 16  1  0
  5 17  1  0
  5 18  1  0
  9 19  1  0
  9 20  1  0
  9 21  1  0
 11 22  1  0
 11 23  1  0
 12 24  1  0
 12 25  1  0
 13 26  1  0
 13 27  1  0
M  CHG  3   3  -1   7  -1  10   2
M  END
> <Uni-Dock RESULT> 
ENERGY=   -5.800  LOWER_BOUND=    1.171  UPPER_BOUND=    1.520
INTER + INTRA:          -5.800
INTER:                  -5.800
INTRA:                   0.000
UNBOUND:                 0.000

$$$$

     RDKit          3D

 27 20  0  0  0  0  0  0  0  0999 V2000
   42.7023    4.7000   11.5527 O   0  0  0  0  0  0  0  0  0  0  0  0
   42.8829    5.4036   12.1698 C   0  0  0  0  0  0  0  0  0  0  0  0
   43.5779    5.6005   13.2059 O   0  0  0  0  0  0  0  0  0  0  0  0
   42.0209    6.1437   11.6199 O   0  0  0  0  0  0  0  0  0  0  0  0
   43.1252    4.0702   11.4844 C   0  0  0  0  0  0  0  0  0  0  0  0
   42.6570    5.2324   12.3001 C   0  0  0  0  0  0  0  0  0  0  0  0
   41.9458    6.0882   11.7026 O   0  0  0  0  0  0  0  0  0  0  0  0
   42.9170    5.1111   13.5293 O   0  0  0  0  0  0  0  0  0  0  0  0
   43.2952    4.1919   11.3964 C   0  0  0  0  0  0  0  0  0  0  0  0
   43.0248    4.6320   11.7754 Mg  0  0  0  0  0 15  0  0  0  0  0  0
   42.7015    4.7020   11.5545 O   0  0  0  0  0  0  0  0  0  0  0  0
   42.7011    4.7030   11.5553 O   0  0  0  0  0  0  0  0  0  0  0  0
   42.7020    4.7007   11.5533 O   0  0  0  0  0  0  0  0  0  0  0  0
   43.4038    4.0483   11.4039 H   0  0  0  0  0  0  0  0  0  0  0  0
   42.9683    5.1479   12.3698 H   0  0  0  0  0  0  0  0  0  0  0  0
   42.8979    3.2521   12.1744 H   0  0  0  0  0  0  0  0  0  0  0  0
   42.4961    3.9583   10.5960 H   0  0  0  0  0  0  0  0  0  0  0  0
   44.1728    3.9960   11.1778 H   0  0  0  0  0  0  0  0  0  0  0  0
   43.8971    3.4806   11.9700 H   0  0  0  0  0  0  0  0  0  0  0  0
   43.9441    4.6837   10.6656 H   0  0  0  0  0  0  0  0  0  0  0  0
   42.5173    3.6364   10.8639 H   0  0  0  0  0  0  0  0  0  0  0  0
   43.3998    4.0482   11.4000 H   0  0  0  0  0  0  0  0  0  0  0  0
   42.9731    5.1459   12.3718 H   0  0  0  0  0  0  0  0  0  0  0  0
   42.9754    5.1450   12.3729 H   0  0  0  0  0  0  0  0  0  0  0  0
   43.3979    4.0482   11.3981 H   0  0  0  0  0  0  0  0  0  0  0  0
   43.4024    4.0482   11.4025 H   0  0  0  0  0  0  0  0  0  0  0  0
   42.9700    5.1472   12.3705 H   0  0  0  0  0  0  0  0  0  0  0  0
  5  2  1  0
  3  2  1  0
  4  2  2  0
  7  6  1  0
  8  6  2  0
  9  6  1  0
  1 14  1  0
  1 15  1  0
  5 16  1  0
  5 17  1  0
  5 18  1  0
  9 19  1  0
  9 20  1  0
  9 21  1  0
 11 22  1  0
 11 23  1  0
 12 24  1  0
 12 25  1  0
 13 26  1  0
 13 27  1  0
M  CHG  3   3  -1   7  -1  10   2
M  END
> <Uni-Dock RESULT> 
ENERGY=   -5.112  LOWER_BOUND=    6.933  UPPER_BOUND=    7.570
INTER + INTRA:          -5.112
INTER:                  -5.112
INTRA:                   0.000
UNBOUND:                 0.000

$$$$

     RDKit          3D

 27 20  0  0  0  0  0  0  0  0999 V2000
   42.8181    5.4277   12.6739 O   0  0  0  0  0  0  0  0  0  0  0  0
   42.6845    5.3403   11.7341 C   0  0  0  0  0  0  0  0  0  0  0  0
   43.1991    4.7281   10.7566 O   0  0  0  0  0  0  0  0  0  0  0  0
   41.7802    6.2207   11.7534 O   0  0  0  0  0  0  0  0  0  0  0  0
   43.2432    4.9544   13.0927 C   0  0  0  0  0  0  0  0  0  0  0  0
   42.9032    5.5600   11.7687 C   0  0  0  0  0  0  0  0  0  0  0  0
   41.8776    6.2963   11.7342 O   0  0  0  0  0  0  0  0  0  0  0  0
   43.7926    5.3683   10.8937 O   0  0  0  0  0  0  0  0  0  0  0  0
   43.0905    4.7891   13.0637 C   0  0  0  0  0  0  0  0  0  0  0  0
   43.0092    5.1154   12.5184 Mg  0  0  0  0  0 15  0  0  0  0  0  0
   42.8177    5.4288   12.6713 O   0  0  0  0  0  0  0  0  0  0  0  0
   42.8176    5.4293   12.6700 O   0  0  0  0  0  0  0  0  0  0  0  0
   42.8180    5.4281   12.6730 O   0  0  0  0  0  0  0  0  0  0  0  0
   43.2023    4.6704   13.1406 H   0  0  0  0  0  0  0  0  0  0  0  0
   43.0072    5.2481   11.7406 H   0  0  0  0  0  0  0  0  0  0  0  0
   44.3172    5.1607   13.1239 H   0  0  0  0  0  0  0  0  0  0  0  0
   42.7594    5.5166   13.8972 H   0  0  0  0  0  0  0  0  0  0  0  0
   43.0808    3.8871   13.2706 H   0  0  0  0  0  0  0  0  0  0  0  0
   43.9930    4.1711   13.0331 H   0  0  0  0  0  0  0  0  0  0  0  0
   42.2296    4.1357   13.2339 H   0  0  0  0  0  0  0  0  0  0  0  0
   43.1777    5.4875   13.9015 H   0  0  0  0  0  0  0  0  0  0  0  0
   43.1999    4.6741   13.1440 H   0  0  0  0  0  0  0  0  0  0  0  0
   43.0100    5.2433   11.7399 H   0  0  0  0  0  0  0  0  0  0  0  0
   43.0113    5.2410   11.7394 H   0  0  0  0  0  0  0  0  0  0  0  0
   43.1987    4.6760   13.1456 H   0  0  0  0  0  0  0  0  0  0  0  0
   43.2014    4.6717   13.1418 H   0  0  0  0  0  0  0  0  0  0  0  0
   43.0082    5.2464   11.7403 H   0  0  0  0  0  0  0  0  0  0  0  0
  5  2  1  0
  3  2  1  0
  4  2  2  0
  7  6  1  0
  8  6  2  0
  9  6  1  0
  1 14  1  0
  1 15  1  0
  5 16  1  0
  5 17  1  0
  5 18  1  0
  9 19  1  0
  9 20  1  0
  9 21  1  0
 11 22  1  0
 11 23  1  0
 12 24  1  0
 12 25  1  0
 13 26  1  0
 13 27  1  0
M  CHG  3   3  -1   7  -1  10   2
M  END
> <Uni-Dock RESULT> 
ENERGY=   -5.014  LOWER_BOUND=    6.907  UPPER_BOUND=    7.932
INTER + INTRA:          -5.014
INTER:                  -5.014
INTRA:                   0.000
UNBOUND:                 0.000

$$$$

     RDKit          3D

 27 20  0  0  0  0  0  0  0  0999 V2000
   45.6283    3.8902    7.9573 O   0  0  0  0  0  0  0  0  0  0  0  0
   46.1794    3.4171    7.3400 C   0  0  0  0  0  0  0  0  0  0  0  0
   46.3131    2.2421    6.8964 O   0  0  0  0  0  0  0  0  0  0  0  0
   46.8959    4.4396    7.1544 O   0  0  0  0  0  0  0  0  0  0  0  0
   44.9692    3.6265    8.2335 C   0  0  0  0  0  0  0  0  0  0  0  0
   46.3091    3.3735    7.6203 C   0  0  0  0  0  0  0  0  0  0  0  0
   46.9591    4.3912    7.2505 O   0  0  0  0  0  0  0  0  0  0  0  0
   46.6704    2.1667    7.7011 O   0  0  0  0  0  0  0  0  0  0  0  0
   44.8728    3.6492    8.0295 C   0  0  0  0  0  0  0  0  0  0  0  0
   45.4791    3.5355    7.8563 Mg  0  0  0  0  0 15  0  0  0  0  0  0
   45.6307    3.8894    7.9563 O   0  0  0  0  0  0  0  0  0  0  0  0
   45.6320    3.8891    7.9557 O   0  0  0  0  0  0  0  0  0  0  0  0
   45.6292    3.8899    7.9569 O   0  0  0  0  0  0  0  0  0  0  0  0
   44.7254    3.5635    8.0881 H   0  0  0  0  0  0  0  0  0  0  0  0
   46.0835    3.1529    7.5236 H   0  0  0  0  0  0  0  0  0  0  0  0
   45.0335    2.9680    9.1049 H   0  0  0  0  0  0  0  0  0  0  0  0
   44.9075    4.6608    8.5855 H   0  0  0  0  0  0  0  0  0  0  0  0
   44.0548    3.3947    7.6794 H   0  0  0  0  0  0  0  0  0  0  0  0
   44.3630    2.7317    8.3387 H   0  0  0  0  0  0  0  0  0  0  0  0
   44.3244    4.0827    7.1879 H   0  0  0  0  0  0  0  0  0  0  0  0
   44.8546    4.3539    8.8663 H   0  0  0  0  0  0  0  0  0  0  0  0
   44.7262    3.5687    8.0899 H   0  0  0  0  0  0  0  0  0  0  0  0
   46.0801    3.1485    7.5227 H   0  0  0  0  0  0  0  0  0  0  0  0
   46.0786    3.1463    7.5223 H   0  0  0  0  0  0  0  0  0  0  0  0
   44.7266    3.5712    8.0908 H   0  0  0  0  0  0  0  0  0  0  0  0
   44.7257    3.5654    8.0887 H   0  0  0  0  0  0  0  0  0  0  0  0
   46.0823    3.1513    7.5233 H   0  0  0  0  0  0  0  0  0  0  0  0
  5  2  1  0
  3  2  1  0
  4  2  2  0
  7  6  1  0
  8  6  2  0
  9  6  1  0
  1 14  1  0
  1 15  1  0
  5 16  1  0
  5 17  1  0
  5 18  1  0
  9 19  1  0
  9 20  1  0
  9 21  1  0
 11 22  1  0
 11 23  1  0
 12 24  1  0
 12 25  1  0
 13 26  1  0
 13 27  1  0
M  CHG  3   3  -1   7  -1  10   2
M  END
> <Uni-Dock RESULT> 
ENERGY=   -4.927  LOWER_BOUND=    2.382  UPPER_BOUND=    3.256
INTER + INTRA:          -4.927
INTER:                  -4.927
INTRA:                   0.000
UNBOUND:                 0.000

$$$$
