
     RDKit          3D

 27 20  0  0  0  0  0  0  0  0999 V2000
   47.5047    1.1470    6.9292 O   0  0  0  0  0  0  0  0  0  0  0  0
   46.8522    1.0993    7.6603 C   0  0  0  0  0  0  0  0  0  0  0  0
   47.0653   -0.1338    7.8313 O   0  0  0  0  0  0  0  0  0  0  0  0
   45.9722    1.8475    8.1691 O   0  0  0  0  0  0  0  0  0  0  0  0
   47.8037    1.7818    6.6930 C   0  0  0  0  0  0  0  0  0  0  0  0
   46.8283    0.9855    7.5296 C   0  0  0  0  0  0  0  0  0  0  0  0
   46.1755    1.5804    8.4326 O   0  0  0  0  0  0  0  0  0  0  0  0
   46.7785   -0.2184    7.1538 O   0  0  0  0  0  0  0  0  0  0  0  0
   47.8247    1.8570    6.7850 C   0  0  0  0  0  0  0  0  0  0  0  0
   47.4036    1.4915    7.1007 Mg  0  0  0  0  0 15  0  0  0  0  0  0
   47.5048    1.1471    6.9291 O   0  0  0  0  0  0  0  0  0  0  0  0
   47.5075    1.1492    6.9267 O   0  0  0  0  0  0  0  0  0  0  0  0
   47.5070    1.1488    6.9271 O   0  0  0  0  0  0  0  0  0  0  0  0
   47.8532    2.0316    6.7421 H   0  0  0  0  0  0  0  0  0  0  0  0
   46.8529    1.2959    7.6307 H   0  0  0  0  0  0  0  0  0  0  0  0
   47.5692    2.8453    6.5867 H   0  0  0  0  0  0  0  0  0  0  0  0
   47.7311    1.3115    5.7079 H   0  0  0  0  0  0  0  0  0  0  0  0
   48.8314    1.6888    7.0565 H   0  0  0  0  0  0  0  0  0  0  0  0
   48.5591    2.2629    7.4870 H   0  0  0  0  0  0  0  0  0  0  0  0
   48.3577    1.2870    6.0178 H   0  0  0  0  0  0  0  0  0  0  0  0
   47.3014    2.6858    6.2990 H   0  0  0  0  0  0  0  0  0  0  0  0
   47.8530    2.0319    6.7424 H   0  0  0  0  0  0  0  0  0  0  0  0
   46.8529    1.2953    7.6306 H   0  0  0  0  0  0  0  0  0  0  0  0
   46.8537    1.2875    7.6283 H   0  0  0  0  0  0  0  0  0  0  0  0
   47.8496    2.0378    6.7471 H   0  0  0  0  0  0  0  0  0  0  0  0
   47.8503    2.0367    6.7461 H   0  0  0  0  0  0  0  0  0  0  0  0
   46.8535    1.2890    7.6288 H   0  0  0  0  0  0  0  0  0  0  0  0
  5  2  1  0
  3  2  1  0
  4  2  2  0
  7  6  1  0
  8  6  2  0
  9  6  1  0
  1 14  1  0
  1 15  1  0
  5 16  1  0
  5 17  1  0
  5 18  1  0
  9 19  1  0
  9 20  1  0
  9 21  1  0
 11 22  1  0
 11 23  1  0
 12 24  1  0
 12 25  1  0
 13 26  1  0
 13 27  1  0
M  CHG  3   3  -1   7  -1  10   2
M  END
> <Uni-Dock RESULT> 
ENERGY=   -6.949  LOWER_BOUND=    0.000  UPPER_BOUND=    0.000
INTER + INTRA:          -6.949
INTER:                  -6.949
INTRA:                   0.000
UNBOUND:                 0.000

$$$$

     RDKit          3D

 27 20  0  0  0  0  0  0  0  0999 V2000
   47.6090    1.3960    7.0271 O   0  0  0  0  0  0  0  0  0  0  0  0
   47.3431    2.1094    6.4084 C   0  0  0  0  0  0  0  0  0  0  0  0
   48.4626    2.0831    5.8243 O   0  0  0  0  0  0  0  0  0  0  0  0
   46.3828    2.9189    6.2831 O   0  0  0  0  0  0  0  0  0  0  0  0
   47.1237    0.9935    7.4151 C   0  0  0  0  0  0  0  0  0  0  0  0
   47.4910    2.1373    6.4974 C   0  0  0  0  0  0  0  0  0  0  0  0
   46.5654    2.7777    5.9242 O   0  0  0  0  0  0  0  0  0  0  0  0
   48.7397    2.3192    6.4692 O   0  0  0  0  0  0  0  0  0  0  0  0
   47.0245    0.9704    7.3503 C   0  0  0  0  0  0  0  0  0  0  0  0
   47.2187    1.4632    6.9898 Mg  0  0  0  0  0 15  0  0  0  0  0  0
   47.6090    1.3958    7.0273 O   0  0  0  0  0  0  0  0  0  0  0  0
   47.6081    1.3927    7.0298 O   0  0  0  0  0  0  0  0  0  0  0  0
   47.6083    1.3933    7.0293 O   0  0  0  0  0  0  0  0  0  0  0  0
   46.8782    0.9145    7.4431 H   0  0  0  0  0  0  0  0  0  0  0  0
   47.1689    2.0791    6.4993 H   0  0  0  0  0  0  0  0  0  0  0  0
   46.1391    1.0697    7.8866 H   0  0  0  0  0  0  0  0  0  0  0  0
   47.8867    1.0448    8.1974 H   0  0  0  0  0  0  0  0  0  0  0  0
   47.1929    0.0234    6.9139 H   0  0  0  0  0  0  0  0  0  0  0  0
   46.4834    0.2504    6.7291 H   0  0  0  0  0  0  0  0  0  0  0  0
   47.8692    0.4565    7.8193 H   0  0  0  0  0  0  0  0  0  0  0  0
   46.3578    1.3311    8.1392 H   0  0  0  0  0  0  0  0  0  0  0  0
   46.8777    0.9148    7.4429 H   0  0  0  0  0  0  0  0  0  0  0  0
   47.1694    2.0792    6.4992 H   0  0  0  0  0  0  0  0  0  0  0  0
   47.1776    2.0793    6.4988 H   0  0  0  0  0  0  0  0  0  0  0  0
   46.8703    0.9177    7.4409 H   0  0  0  0  0  0  0  0  0  0  0  0
   46.8718    0.9171    7.4413 H   0  0  0  0  0  0  0  0  0  0  0  0
   47.1760    2.0794    6.4988 H   0  0  0  0  0  0  0  0  0  0  0  0
  5  2  1  0
  3  2  1  0
  4  2  2  0
  7  6  1  0
  8  6  2  0
  9  6  1  0
  1 14  1  0
  1 15  1  0
  5 16  1  0
  5 17  1  0
  5 18  1  0
  9 19  1  0
  9 20  1  0
  9 21  1  0
 11 22  1  0
 11 23  1  0
 12 24  1  0
 12 25  1  0
 13 26  1  0
 13 27  1  0
M  CHG  3   3  -1   7  -1  10   2
M  END
> <Uni-Dock RESULT> 
ENERGY=   -6.836  LOWER_BOUND=    1.132  UPPER_BOUND=    1.835
INTER + INTRA:          -6.836
INTER:                  -6.836
INTRA:                   0.000
UNBOUND:                 0.000

$$$$

     RDKit          3D

 27 20  0  0  0  0  0  0  0  0999 V2000
   47.2540    2.7782    6.9512 O   0  0  0  0  0  0  0  0  0  0  0  0
   47.6547    2.3431    6.1685 C   0  0  0  0  0  0  0  0  0  0  0  0
   47.6837    1.2220    6.7493 O   0  0  0  0  0  0  0  0  0  0  0  0
   48.1530    2.6964    5.0640 O   0  0  0  0  0  0  0  0  0  0  0  0
   46.9034    3.4294    6.9184 C   0  0  0  0  0  0  0  0  0  0  0  0
   47.7410    2.3227    6.3192 C   0  0  0  0  0  0  0  0  0  0  0  0
   47.9465    2.3231    5.0729 O   0  0  0  0  0  0  0  0  0  0  0  0
   48.1691    1.5383    7.2105 O   0  0  0  0  0  0  0  0  0  0  0  0
   46.8397    3.4396    6.8163 C   0  0  0  0  0  0  0  0  0  0  0  0
   47.2197    2.9694    6.6040 Mg  0  0  0  0  0 15  0  0  0  0  0  0
   47.2539    2.7784    6.9513 O   0  0  0  0  0  0  0  0  0  0  0  0
   47.2516    2.7814    6.9531 O   0  0  0  0  0  0  0  0  0  0  0  0
   47.2521    2.7808    6.9528 O   0  0  0  0  0  0  0  0  0  0  0  0
   46.7867    3.6076    6.7703 H   0  0  0  0  0  0  0  0  0  0  0  0
   47.6185    2.5224    6.0906 H   0  0  0  0  0  0  0  0  0  0  0  0
   46.9132    4.3745    6.3667 H   0  0  0  0  0  0  0  0  0  0  0  0
   47.3676    3.5944    7.8952 H   0  0  0  0  0  0  0  0  0  0  0  0
   45.8626    3.1259    7.0660 H   0  0  0  0  0  0  0  0  0  0  0  0
   45.8591    3.3656    6.3369 H   0  0  0  0  0  0  0  0  0  0  0  0
   46.6998    3.3864    7.9003 H   0  0  0  0  0  0  0  0  0  0  0  0
   47.2827    4.4097    6.5719 H   0  0  0  0  0  0  0  0  0  0  0  0
   46.7867    3.6077    6.7698 H   0  0  0  0  0  0  0  0  0  0  0  0
   47.6186    2.5220    6.0909 H   0  0  0  0  0  0  0  0  0  0  0  0
   47.6203    2.5168    6.0970 H   0  0  0  0  0  0  0  0  0  0  0  0
   46.7872    3.6100    6.7619 H   0  0  0  0  0  0  0  0  0  0  0  0
   46.7871    3.6096    6.7635 H   0  0  0  0  0  0  0  0  0  0  0  0
   47.6200    2.5177    6.0958 H   0  0  0  0  0  0  0  0  0  0  0  0
  5  2  1  0
  3  2  1  0
  4  2  2  0
  7  6  1  0
  8  6  2  0
  9  6  1  0
  1 14  1  0
  1 15  1  0
  5 16  1  0
  5 17  1  0
  5 18  1  0
  9 19  1  0
  9 20  1  0
  9 21  1  0
 11 22  1  0
 11 23  1  0
 12 24  1  0
 12 25  1  0
 13 26  1  0
 13 27  1  0
M  CHG  3   3  -1   7  -1  10   2
M  END
> <Uni-Dock RESULT> 
ENERGY=   -6.430  LOWER_BOUND=    1.599  UPPER_BOUND=    2.278
INTER + INTRA:          -6.430
INTER:                  -6.430
INTRA:                   0.000
UNBOUND:                 0.000

$$$$

     RDKit          3D

 27 20  0  0  0  0  0  0  0  0999 V2000
   47.2608    1.7708    7.2927 O   0  0  0  0  0  0  0  0  0  0  0  0
   46.8101    0.9436    7.5666 C   0  0  0  0  0  0  0  0  0  0  0  0
   45.8362    1.5819    8.0557 O   0  0  0  0  0  0  0  0  0  0  0  0
   47.0859   -0.2865    7.6295 O   0  0  0  0  0  0  0  0  0  0  0  0
   47.7980    1.7908    6.7836 C   0  0  0  0  0  0  0  0  0  0  0  0
   46.8352    1.0618    7.6930 C   0  0  0  0  0  0  0  0  0  0  0  0
   46.6813   -0.1827    7.5424 O   0  0  0  0  0  0  0  0  0  0  0  0
   46.3275    1.8437    8.5440 O   0  0  0  0  0  0  0  0  0  0  0  0
   47.7763    1.7126    6.6943 C   0  0  0  0  0  0  0  0  0  0  0  0
   47.3797    1.4356    7.1144 Mg  0  0  0  0  0 15  0  0  0  0  0  0
   47.2609    1.7709    7.2925 O   0  0  0  0  0  0  0  0  0  0  0  0
   47.2636    1.7731    7.2901 O   0  0  0  0  0  0  0  0  0  0  0  0
   47.2631    1.7727    7.2906 O   0  0  0  0  0  0  0  0  0  0  0  0
   47.9175    1.6707    6.5872 H   0  0  0  0  0  0  0  0  0  0  0  0
   46.9609    0.8653    7.4634 H   0  0  0  0  0  0  0  0  0  0  0  0
   48.6169    1.1834    6.3861 H   0  0  0  0  0  0  0  0  0  0  0  0
   48.2229    2.5610    7.4342 H   0  0  0  0  0  0  0  0  0  0  0  0
   47.2881    2.2750    5.9454 H   0  0  0  0  0  0  0  0  0  0  0  0
   47.3988    1.5641    5.6782 H   0  0  0  0  0  0  0  0  0  0  0  0
   47.8686    2.7878    6.8754 H   0  0  0  0  0  0  0  0  0  0  0  0
   48.7702    1.2620    6.7738 H   0  0  0  0  0  0  0  0  0  0  0  0
   47.9176    1.6702    6.5871 H   0  0  0  0  0  0  0  0  0  0  0  0
   46.9606    0.8656    7.4637 H   0  0  0  0  0  0  0  0  0  0  0  0
   46.9570    0.8713    7.4684 H   0  0  0  0  0  0  0  0  0  0  0  0
   47.9186    1.6624    6.5847 H   0  0  0  0  0  0  0  0  0  0  0  0
   47.9184    1.6640    6.5852 H   0  0  0  0  0  0  0  0  0  0  0  0
   46.9576    0.8702    7.4675 H   0  0  0  0  0  0  0  0  0  0  0  0
  5  2  1  0
  3  2  1  0
  4  2  2  0
  7  6  1  0
  8  6  2  0
  9  6  1  0
  1 14  1  0
  1 15  1  0
  5 16  1  0
  5 17  1  0
  5 18  1  0
  9 19  1  0
  9 20  1  0
  9 21  1  0
 11 22  1  0
 11 23  1  0
 12 24  1  0
 12 25  1  0
 13 26  1  0
 13 27  1  0
M  CHG  3   3  -1   7  -1  10   2
M  END
> <Uni-Dock RESULT> 
ENERGY=   -6.408  LOWER_BOUND=    0.462  UPPER_BOUND=    1.346
INTER + INTRA:          -6.408
INTER:                  -6.408
INTRA:                   0.000
UNBOUND:                 0.000

$$$$

     RDKit          3D

 27 20  0  0  0  0  0  0  0  0999 V2000
   47.1253    3.1843    6.2691 O   0  0  0  0  0  0  0  0  0  0  0  0
   47.6845    2.3902    6.4074 C   0  0  0  0  0  0  0  0  0  0  0  0
   48.3443    2.6149    5.3541 O   0  0  0  0  0  0  0  0  0  0  0  0
   47.6996    1.3878    7.1744 O   0  0  0  0  0  0  0  0  0  0  0  0
   46.7277    3.4995    6.8083 C   0  0  0  0  0  0  0  0  0  0  0  0
   47.6044    2.4006    6.2523 C   0  0  0  0  0  0  0  0  0  0  0  0
   48.0773    1.5401    7.0468 O   0  0  0  0  0  0  0  0  0  0  0  0
   47.7079    2.4877    4.9974 O   0  0  0  0  0  0  0  0  0  0  0  0
   46.7867    3.4965    6.9135 C   0  0  0  0  0  0  0  0  0  0  0  0
   47.1321    3.0330    6.6370 Mg  0  0  0  0  0 15  0  0  0  0  0  0
   47.1252    3.1845    6.2692 O   0  0  0  0  0  0  0  0  0  0  0  0
   47.1227    3.1876    6.2706 O   0  0  0  0  0  0  0  0  0  0  0  0
   47.1232    3.1870    6.2703 O   0  0  0  0  0  0  0  0  0  0  0  0
   46.6873    3.5260    7.0631 H   0  0  0  0  0  0  0  0  0  0  0  0
   47.5837    2.3887    6.5787 H   0  0  0  0  0  0  0  0  0  0  0  0
   46.1865    3.2473    7.7253 H   0  0  0  0  0  0  0  0  0  0  0  0
   45.9977    3.6655    6.0104 H   0  0  0  0  0  0  0  0  0  0  0  0
   47.2846    4.4256    6.9790 H   0  0  0  0  0  0  0  0  0  0  0  0
   47.4079    4.0404    7.6313 H   0  0  0  0  0  0  0  0  0  0  0  0
   46.4052    4.2093    6.1761 H   0  0  0  0  0  0  0  0  0  0  0  0
   45.9356    3.0563    7.4416 H   0  0  0  0  0  0  0  0  0  0  0  0
   46.6874    3.5256    7.0635 H   0  0  0  0  0  0  0  0  0  0  0  0
   47.5838    2.3888    6.5782 H   0  0  0  0  0  0  0  0  0  0  0  0
   47.5848    2.3903    6.5703 H   0  0  0  0  0  0  0  0  0  0  0  0
   46.6888    3.5211    7.0702 H   0  0  0  0  0  0  0  0  0  0  0  0
   46.6885    3.5220    7.0689 H   0  0  0  0  0  0  0  0  0  0  0  0
   47.5847    2.3900    6.5718 H   0  0  0  0  0  0  0  0  0  0  0  0
  5  2  1  0
  3  2  1  0
  4  2  2  0
  7  6  1  0
  8  6  2  0
  9  6  1  0
  1 14  1  0
  1 15  1  0
  5 16  1  0
  5 17  1  0
  5 18  1  0
  9 19  1  0
  9 20  1  0
  9 21  1  0
 11 22  1  0
 11 23  1  0
 12 24  1  0
 12 25  1  0
 13 26  1  0
 13 27  1  0
M  CHG  3   3  -1   7  -1  10   2
M  END
> <Uni-Dock RESULT> 
ENERGY=   -6.406  LOWER_BOUND=    1.794  UPPER_BOUND=    2.411
INTER + INTRA:          -6.406
INTER:                  -6.406
INTRA:                   0.000
UNBOUND:                 0.000

$$$$

     RDKit          3D

 27 20  0  0  0  0  0  0  0  0999 V2000
   47.0023    3.2888    6.3266 O   0  0  0  0  0  0  0  0  0  0  0  0
   47.5857    2.5001    6.3151 C   0  0  0  0  0  0  0  0  0  0  0  0
   47.9959    2.7637    5.1500 O   0  0  0  0  0  0  0  0  0  0  0  0
   47.7782    1.4777    7.0297 O   0  0  0  0  0  0  0  0  0  0  0  0
   46.7298    3.5829    6.9490 C   0  0  0  0  0  0  0  0  0  0  0  0
   47.4734    2.5135    6.1817 C   0  0  0  0  0  0  0  0  0  0  0  0
   48.1172    1.6392    6.8271 O   0  0  0  0  0  0  0  0  0  0  0  0
   47.2980    2.6363    4.9378 O   0  0  0  0  0  0  0  0  0  0  0  0
   46.8105    3.5780    7.0386 C   0  0  0  0  0  0  0  0  0  0  0  0
   47.0911    3.1277    6.6793 Mg  0  0  0  0  0 15  0  0  0  0  0  0
   47.0022    3.2890    6.3267 O   0  0  0  0  0  0  0  0  0  0  0  0
   47.0001    3.2920    6.3287 O   0  0  0  0  0  0  0  0  0  0  0  0
   47.0005    3.2914    6.3283 O   0  0  0  0  0  0  0  0  0  0  0  0
   46.7461    3.6018    7.2072 H   0  0  0  0  0  0  0  0  0  0  0  0
   47.5250    2.4924    6.5042 H   0  0  0  0  0  0  0  0  0  0  0  0
   46.4056    3.2974    7.9544 H   0  0  0  0  0  0  0  0  0  0  0  0
   45.8409    3.7590    6.3360 H   0  0  0  0  0  0  0  0  0  0  0  0
   47.3019    4.5127    7.0211 H   0  0  0  0  0  0  0  0  0  0  0  0
   47.5690    4.1119    7.6187 H   0  0  0  0  0  0  0  0  0  0  0  0
   46.2697    4.3045    6.4245 H   0  0  0  0  0  0  0  0  0  0  0  0
   46.1003    3.1103    7.7270 H   0  0  0  0  0  0  0  0  0  0  0  0
   46.7463    3.6015    7.2075 H   0  0  0  0  0  0  0  0  0  0  0  0
   47.5250    2.4925    6.5037 H   0  0  0  0  0  0  0  0  0  0  0  0
   47.5242    2.4943    6.4958 H   0  0  0  0  0  0  0  0  0  0  0  0
   46.7492    3.5967    7.2136 H   0  0  0  0  0  0  0  0  0  0  0  0
   46.7486    3.5977    7.2124 H   0  0  0  0  0  0  0  0  0  0  0  0
   47.5244    2.4939    6.4972 H   0  0  0  0  0  0  0  0  0  0  0  0
  5  2  1  0
  3  2  1  0
  4  2  2  0
  7  6  1  0
  8  6  2  0
  9  6  1  0
  1 14  1  0
  1 15  1  0
  5 16  1  0
  5 17  1  0
  5 18  1  0
  9 19  1  0
  9 20  1  0
  9 21  1  0
 11 22  1  0
 11 23  1  0
 12 24  1  0
 12 25  1  0
 13 26  1  0
 13 27  1  0
M  CHG  3   3  -1   7  -1  10   2
M  END
> <Uni-Dock RESULT> 
ENERGY=   -6.374  LOWER_BOUND=    1.894  UPPER_BOUND=    2.511
INTER + INTRA:          -6.374
INTER:                  -6.374
INTRA:                   0.000
UNBOUND:                 0.000

$$$$

     RDKit          3D

 27 20  0  0  0  0  0  0  0  0999 V2000
   46.3884    4.0293    7.4527 O   0  0  0  0  0  0  0  0  0  0  0  0
   45.6031    3.7395    7.9643 C   0  0  0  0  0  0  0  0  0  0  0  0
   45.3470    4.9215    8.3284 O   0  0  0  0  0  0  0  0  0  0  0  0
   45.0864    2.6484    8.3327 O   0  0  0  0  0  0  0  0  0  0  0  0
   46.7021    3.6179    6.9231 C   0  0  0  0  0  0  0  0  0  0  0  0
   45.7211    3.8333    8.0530 C   0  0  0  0  0  0  0  0  0  0  0  0
   44.8195    2.9703    8.2475 O   0  0  0  0  0  0  0  0  0  0  0  0
   45.9881    4.8852    8.6973 O   0  0  0  0  0  0  0  0  0  0  0  0
   46.6189    3.5582    6.8592 C   0  0  0  0  0  0  0  0  0  0  0  0
   46.2388    3.6719    7.3623 Mg  0  0  0  0  0 15  0  0  0  0  0  0
   46.3885    4.0293    7.4525 O   0  0  0  0  0  0  0  0  0  0  0  0
   46.3914    4.0288    7.4495 O   0  0  0  0  0  0  0  0  0  0  0  0
   46.3908    4.0289    7.4500 O   0  0  0  0  0  0  0  0  0  0  0  0
   46.6788    3.4191    6.7582 H   0  0  0  0  0  0  0  0  0  0  0  0
   45.6491    3.5675    7.8760 H   0  0  0  0  0  0  0  0  0  0  0  0
   46.8778    2.5732    6.6489 H   0  0  0  0  0  0  0  0  0  0  0  0
   47.6341    4.0333    7.3178 H   0  0  0  0  0  0  0  0  0  0  0  0
   46.4208    4.1697    6.0212 H   0  0  0  0  0  0  0  0  0  0  0  0
   46.0189    3.5202    5.9452 H   0  0  0  0  0  0  0  0  0  0  0  0
   47.3777    4.3381    6.7429 H   0  0  0  0  0  0  0  0  0  0  0  0
   47.1271    2.5983    6.9912 H   0  0  0  0  0  0  0  0  0  0  0  0
   46.6785    3.4186    6.7583 H   0  0  0  0  0  0  0  0  0  0  0  0
   45.6492    3.5679    7.8762 H   0  0  0  0  0  0  0  0  0  0  0  0
   45.6509    3.5752    7.8795 H   0  0  0  0  0  0  0  0  0  0  0  0
   46.6741    3.4117    6.7580 H   0  0  0  0  0  0  0  0  0  0  0  0
   46.6749    3.4131    6.7580 H   0  0  0  0  0  0  0  0  0  0  0  0
   45.6505    3.5739    7.8789 H   0  0  0  0  0  0  0  0  0  0  0  0
  5  2  1  0
  3  2  1  0
  4  2  2  0
  7  6  1  0
  8  6  2  0
  9  6  1  0
  1 14  1  0
  1 15  1  0
  5 16  1  0
  5 17  1  0
  5 18  1  0
  9 19  1  0
  9 20  1  0
  9 21  1  0
 11 22  1  0
 11 23  1  0
 12 24  1  0
 12 25  1  0
 13 26  1  0
 13 27  1  0
M  CHG  3   3  -1   7  -1  10   2
M  END
> <Uni-Dock RESULT> 
ENERGY=   -5.511  LOWER_BOUND=    2.723  UPPER_BOUND=    3.231
INTER + INTRA:          -5.511
INTER:                  -5.511
INTRA:                   0.000
UNBOUND:                 0.000

$$$$

     RDKit          3D

 27 20  0  0  0  0  0  0  0  0999 V2000
   45.8981    3.5553    7.3529 O   0  0  0  0  0  0  0  0  0  0  0  0
   45.6530    4.0691    8.1520 C   0  0  0  0  0  0  0  0  0  0  0  0
   44.7447    3.2467    8.4583 O   0  0  0  0  0  0  0  0  0  0  0  0
   45.9301    5.1939    8.6531 O   0  0  0  0  0  0  0  0  0  0  0  0
   46.5464    3.6326    7.0038 C   0  0  0  0  0  0  0  0  0  0  0  0
   45.5225    4.0346    8.0408 C   0  0  0  0  0  0  0  0  0  0  0  0
   45.8508    4.8747    8.9251 O   0  0  0  0  0  0  0  0  0  0  0  0
   44.4138    3.4680    7.8338 O   0  0  0  0  0  0  0  0  0  0  0  0
   46.6363    3.6508    7.0823 C   0  0  0  0  0  0  0  0  0  0  0  0
   46.1681    3.8144    7.4880 Mg  0  0  0  0  0 15  0  0  0  0  0  0
   45.8983    3.5553    7.3528 O   0  0  0  0  0  0  0  0  0  0  0  0
   45.9010    3.5540    7.3498 O   0  0  0  0  0  0  0  0  0  0  0  0
   45.9005    3.5543    7.3504 O   0  0  0  0  0  0  0  0  0  0  0  0
   46.7913    3.7174    7.0139 H   0  0  0  0  0  0  0  0  0  0  0  0
   45.8149    4.1705    8.0970 H   0  0  0  0  0  0  0  0  0  0  0  0
   47.3113    4.3842    6.7859 H   0  0  0  0  0  0  0  0  0  0  0  0
   45.9444    3.4806    6.1030 H   0  0  0  0  0  0  0  0  0  0  0  0
   47.0468    2.6939    7.2598 H   0  0  0  0  0  0  0  0  0  0  0  0
   47.4690    3.2107    7.6389 H   0  0  0  0  0  0  0  0  0  0  0  0
   46.2918    2.9224    6.3419 H   0  0  0  0  0  0  0  0  0  0  0  0
   46.9926    4.5397    6.5532 H   0  0  0  0  0  0  0  0  0  0  0  0
   46.7915    3.7178    7.0142 H   0  0  0  0  0  0  0  0  0  0  0  0
   45.8145    4.1702    8.0970 H   0  0  0  0  0  0  0  0  0  0  0  0
   45.8079    4.1656    8.0957 H   0  0  0  0  0  0  0  0  0  0  0  0
   46.7956    3.7236    7.0184 H   0  0  0  0  0  0  0  0  0  0  0  0
   46.7948    3.7225    7.0176 H   0  0  0  0  0  0  0  0  0  0  0  0
   45.8091    4.1665    8.0960 H   0  0  0  0  0  0  0  0  0  0  0  0
  5  2  1  0
  3  2  1  0
  4  2  2  0
  7  6  1  0
  8  6  2  0
  9  6  1  0
  1 14  1  0
  1 15  1  0
  5 16  1  0
  5 17  1  0
  5 18  1  0
  9 19  1  0
  9 20  1  0
  9 21  1  0
 11 22  1  0
 11 23  1  0
 12 24  1  0
 12 25  1  0
 13 26  1  0
 13 27  1  0
M  CHG  3   3  -1   7  -1  10   2
M  END
> <Uni-Dock RESULT> 
ENERGY=   -5.336  LOWER_BOUND=    2.826  UPPER_BOUND=    3.191
INTER + INTRA:          -5.336
INTER:                  -5.336
INTRA:                   0.000
UNBOUND:                 0.000

$$$$

     RDKit          3D

 27 20  0  0  0  0  0  0  0  0999 V2000
   42.7238    5.4462   12.6409 O   0  0  0  0  0  0  0  0  0  0  0  0
   42.8427    5.3914   11.6686 C   0  0  0  0  0  0  0  0  0  0  0  0
   42.3827    6.5556   11.5006 O   0  0  0  0  0  0  0  0  0  0  0  0
   43.1389    4.5068   10.8184 O   0  0  0  0  0  0  0  0  0  0  0  0
   43.0729    5.0008   13.1182 C   0  0  0  0  0  0  0  0  0  0  0  0
   42.6817    5.4326   11.7233 C   0  0  0  0  0  0  0  0  0  0  0  0
   43.2686    4.9051   10.7370 O   0  0  0  0  0  0  0  0  0  0  0  0
   41.7439    6.2769   11.7511 O   0  0  0  0  0  0  0  0  0  0  0  0
   43.1857    4.9778   13.0819 C   0  0  0  0  0  0  0  0  0  0  0  0
   42.9749    5.1680   12.5075 Mg  0  0  0  0  0 15  0  0  0  0  0  0
   42.7238    5.4461   12.6411 O   0  0  0  0  0  0  0  0  0  0  0  0
   42.7248    5.4451   12.6451 O   0  0  0  0  0  0  0  0  0  0  0  0
   42.7246    5.4453   12.6443 O   0  0  0  0  0  0  0  0  0  0  0  0
   43.2687    4.8358   13.1601 H   0  0  0  0  0  0  0  0  0  0  0  0
   42.9323    5.2220   11.7216 H   0  0  0  0  0  0  0  0  0  0  0  0
   43.4707    3.9845   13.1990 H   0  0  0  0  0  0  0  0  0  0  0  0
   42.1288    5.0474   13.6691 H   0  0  0  0  0  0  0  0  0  0  0  0
   43.7876    5.6895   13.5786 H   0  0  0  0  0  0  0  0  0  0  0  0
   44.2479    5.2196   13.1831 H   0  0  0  0  0  0  0  0  0  0  0  0
   42.6403    5.4681   13.8941 H   0  0  0  0  0  0  0  0  0  0  0  0
   43.0562    3.8960   13.1820 H   0  0  0  0  0  0  0  0  0  0  0  0
   43.2689    4.8355   13.1597 H   0  0  0  0  0  0  0  0  0  0  0  0
   42.9319    5.2224   11.7215 H   0  0  0  0  0  0  0  0  0  0  0  0
   42.9265    5.2284   11.7224 H   0  0  0  0  0  0  0  0  0  0  0  0
   43.2735    4.8305   13.1551 H   0  0  0  0  0  0  0  0  0  0  0  0
   43.2726    4.8315   13.1560 H   0  0  0  0  0  0  0  0  0  0  0  0
   42.9275    5.2273   11.7222 H   0  0  0  0  0  0  0  0  0  0  0  0
  5  2  1  0
  3  2  1  0
  4  2  2  0
  7  6  1  0
  8  6  2  0
  9  6  1  0
  1 14  1  0
  1 15  1  0
  5 16  1  0
  5 17  1  0
  5 18  1  0
  9 19  1  0
  9 20  1  0
  9 21  1  0
 11 22  1  0
 11 23  1  0
 12 24  1  0
 12 25  1  0
 13 26  1  0
 13 27  1  0
M  CHG  3   3  -1   7  -1  10   2
M  END
> <Uni-Dock RESULT> 
ENERGY=   -5.129  LOWER_BOUND=    6.858  UPPER_BOUND=    7.962
INTER + INTRA:          -5.129
INTER:                  -5.129
INTRA:                   0.000
UNBOUND:                 0.000

$$$$
