
     RDKit          3D

 27 20  0  0  0  0  0  0  0  0999 V2000
   47.4996    1.0849    7.0498 O   0  0  0  0  0  0  0  0  0  0  0  0
   46.7986    0.9569    7.6475 C   0  0  0  0  0  0  0  0  0  0  0  0
   46.0802    1.6281    8.4405 O   0  0  0  0  0  0  0  0  0  0  0  0
   46.8497   -0.2901    7.4590 O   0  0  0  0  0  0  0  0  0  0  0  0
   47.7443    1.7816    6.7919 C   0  0  0  0  0  0  0  0  0  0  0  0
   46.7979    1.0138    7.6964 C   0  0  0  0  0  0  0  0  0  0  0  0
   46.0503    1.7671    8.3811 O   0  0  0  0  0  0  0  0  0  0  0  0
   46.8772   -0.2457    7.6742 O   0  0  0  0  0  0  0  0  0  0  0  0
   47.7449    1.7399    6.7569 C   0  0  0  0  0  0  0  0  0  0  0  0
   47.3444    1.4360    7.1540 Mg  0  0  0  0  0 15  0  0  0  0  0  0
   47.4990    1.0844    7.0504 O   0  0  0  0  0  0  0  0  0  0  0  0
   47.5000    1.0851    7.0495 O   0  0  0  0  0  0  0  0  0  0  0  0
   47.4994    1.0847    7.0500 O   0  0  0  0  0  0  0  0  0  0  0  0
   46.7697    1.2560    7.6636 H   0  0  0  0  0  0  0  0  0  0  0  0
   47.7639    1.9672    6.7486 H   0  0  0  0  0  0  0  0  0  0  0  0
   47.1719    2.4837    6.1783 H   0  0  0  0  0  0  0  0  0  0  0  0
   48.3379    1.1462    6.1278 H   0  0  0  0  0  0  0  0  0  0  0  0
   48.4280    2.3456    7.4333 H   0  0  0  0  0  0  0  0  0  0  0  0
   47.1718    2.3431    6.0462 H   0  0  0  0  0  0  0  0  0  0  0  0
   48.3644    1.0362    6.1926 H   0  0  0  0  0  0  0  0  0  0  0  0
   48.4042    2.3979    7.3309 H   0  0  0  0  0  0  0  0  0  0  0  0
   47.7648    1.9658    6.7479 H   0  0  0  0  0  0  0  0  0  0  0  0
   46.7692    1.2578    7.6639 H   0  0  0  0  0  0  0  0  0  0  0  0
   46.7699    1.2550    7.6636 H   0  0  0  0  0  0  0  0  0  0  0  0
   47.7633    1.9679    6.7491 H   0  0  0  0  0  0  0  0  0  0  0  0
   47.7642    1.9667    6.7484 H   0  0  0  0  0  0  0  0  0  0  0  0
   46.7695    1.2566    7.6637 H   0  0  0  0  0  0  0  0  0  0  0  0
  5  2  1  0
  3  2  1  0
  4  2  2  0
  7  6  1  0
  8  6  2  0
  9  6  1  0
  1 14  1  0
  1 15  1  0
  5 16  1  0
  5 17  1  0
  5 18  1  0
  9 19  1  0
  9 20  1  0
  9 21  1  0
 11 22  1  0
 11 23  1  0
 12 24  1  0
 12 25  1  0
 13 26  1  0
 13 27  1  0
M  CHG  3   3  -1   7  -1  10   2
M  END
> <Uni-Dock RESULT> 
ENERGY=   -7.298  LOWER_BOUND=    0.000  UPPER_BOUND=    0.000
INTER + INTRA:          -7.298
INTER:                  -7.298
INTRA:                   0.000
UNBOUND:                 0.000

$$$$

     RDKit          3D

 27 20  0  0  0  0  0  0  0  0999 V2000
   47.5191    1.3511    6.6977 O   0  0  0  0  0  0  0  0  0  0  0  0
   47.7195    2.2440    6.5316 C   0  0  0  0  0  0  0  0  0  0  0  0
   47.4128    3.3915    6.9611 O   0  0  0  0  0  0  0  0  0  0  0  0
   48.4315    1.9127    5.5434 O   0  0  0  0  0  0  0  0  0  0  0  0
   47.1403    1.0892    7.3300 C   0  0  0  0  0  0  0  0  0  0  0  0
   47.6640    2.2866    6.5583 C   0  0  0  0  0  0  0  0  0  0  0  0
   47.3934    3.3881    7.1140 O   0  0  0  0  0  0  0  0  0  0  0  0
   48.2726    2.0522    5.4777 O   0  0  0  0  0  0  0  0  0  0  0  0
   47.1805    1.0585    7.3099 C   0  0  0  0  0  0  0  0  0  0  0  0
   47.3834    1.5782    6.9948 Mg  0  0  0  0  0 15  0  0  0  0  0  0
   47.5194    1.3519    6.6973 O   0  0  0  0  0  0  0  0  0  0  0  0
   47.5189    1.3507    6.6980 O   0  0  0  0  0  0  0  0  0  0  0  0
   47.5192    1.3514    6.6976 O   0  0  0  0  0  0  0  0  0  0  0  0
   47.5757    2.3144    6.7863 H   0  0  0  0  0  0  0  0  0  0  0  0
   47.0554    1.0691    7.5005 H   0  0  0  0  0  0  0  0  0  0  0  0
   47.4920    1.1409    8.3647 H   0  0  0  0  0  0  0  0  0  0  0  0
   47.4402    0.1243    6.9104 H   0  0  0  0  0  0  0  0  0  0  0  0
   46.0476    1.1449    7.3228 H   0  0  0  0  0  0  0  0  0  0  0  0
   47.6369    1.0288    8.3039 H   0  0  0  0  0  0  0  0  0  0  0  0
   47.4439    0.1377    6.7807 H   0  0  0  0  0  0  0  0  0  0  0  0
   46.0925    1.0955    7.4194 H   0  0  0  0  0  0  0  0  0  0  0  0
   47.0559    1.0678    7.4994 H   0  0  0  0  0  0  0  0  0  0  0  0
   47.5750    2.3151    6.7878 H   0  0  0  0  0  0  0  0  0  0  0  0
   47.5761    2.3140    6.7854 H   0  0  0  0  0  0  0  0  0  0  0  0
   47.0552    1.0699    7.5011 H   0  0  0  0  0  0  0  0  0  0  0  0
   47.0556    1.0687    7.5001 H   0  0  0  0  0  0  0  0  0  0  0  0
   47.5755    2.3146    6.7868 H   0  0  0  0  0  0  0  0  0  0  0  0
  5  2  1  0
  3  2  1  0
  4  2  2  0
  7  6  1  0
  8  6  2  0
  9  6  1  0
  1 14  1  0
  1 15  1  0
  5 16  1  0
  5 17  1  0
  5 18  1  0
  9 19  1  0
  9 20  1  0
  9 21  1  0
 11 22  1  0
 11 23  1  0
 12 24  1  0
 12 25  1  0
 13 26  1  0
 13 27  1  0
M  CHG  3   3  -1   7  -1  10   2
M  END
> <Uni-Dock RESULT> 
ENERGY=   -6.936  LOWER_BOUND=    1.253  UPPER_BOUND=    1.894
INTER + INTRA:          -6.936
INTER:                  -6.936
INTRA:                   0.000
UNBOUND:                 0.000

$$$$

     RDKit          3D

 27 20  0  0  0  0  0  0  0  0999 V2000
   47.1864    1.7035    7.2944 O   0  0  0  0  0  0  0  0  0  0  0  0
   46.8088    0.9470    7.6819 C   0  0  0  0  0  0  0  0  0  0  0  0
   46.7800   -0.3043    7.5122 O   0  0  0  0  0  0  0  0  0  0  0  0
   46.1712    1.6686    8.4980 O   0  0  0  0  0  0  0  0  0  0  0  0
   47.7576    1.6931    6.7602 C   0  0  0  0  0  0  0  0  0  0  0  0
   46.8070    0.8921    7.6309 C   0  0  0  0  0  0  0  0  0  0  0  0
   46.9172   -0.3549    7.4636 O   0  0  0  0  0  0  0  0  0  0  0  0
   46.0297    1.5431    8.3827 O   0  0  0  0  0  0  0  0  0  0  0  0
   47.7582    1.7329    6.7973 C   0  0  0  0  0  0  0  0  0  0  0  0
   47.3580    1.3759    7.1479 Mg  0  0  0  0  0 15  0  0  0  0  0  0
   47.1858    1.7029    7.2950 O   0  0  0  0  0  0  0  0  0  0  0  0
   47.1867    1.7038    7.2941 O   0  0  0  0  0  0  0  0  0  0  0  0
   47.1862    1.7033    7.2946 O   0  0  0  0  0  0  0  0  0  0  0  0
   46.9873    0.7794    7.5071 H   0  0  0  0  0  0  0  0  0  0  0  0
   47.9005    1.6449    6.6420 H   0  0  0  0  0  0  0  0  0  0  0  0
   48.7797    1.3328    6.9103 H   0  0  0  0  0  0  0  0  0  0  0  0
   47.7382    2.7697    6.9546 H   0  0  0  0  0  0  0  0  0  0  0  0
   47.4708    1.5246    5.7179 H   0  0  0  0  0  0  0  0  0  0  0  0
   48.7929    1.4739    7.0413 H   0  0  0  0  0  0  0  0  0  0  0  0
   47.6156    2.8014    6.9855 H   0  0  0  0  0  0  0  0  0  0  0  0
   47.5857    1.5430    5.7337 H   0  0  0  0  0  0  0  0  0  0  0  0
   47.8999    1.6466    6.6424 H   0  0  0  0  0  0  0  0  0  0  0  0
   46.9883    0.7781    7.5062 H   0  0  0  0  0  0  0  0  0  0  0  0
   46.9867    0.7800    7.5076 H   0  0  0  0  0  0  0  0  0  0  0  0
   47.9007    1.6439    6.6418 H   0  0  0  0  0  0  0  0  0  0  0  0
   47.9003    1.6455    6.6422 H   0  0  0  0  0  0  0  0  0  0  0  0
   46.9876    0.7789    7.5068 H   0  0  0  0  0  0  0  0  0  0  0  0
  5  2  1  0
  3  2  1  0
  4  2  2  0
  7  6  1  0
  8  6  2  0
  9  6  1  0
  1 14  1  0
  1 15  1  0
  5 16  1  0
  5 17  1  0
  5 18  1  0
  9 19  1  0
  9 20  1  0
  9 21  1  0
 11 22  1  0
 11 23  1  0
 12 24  1  0
 12 25  1  0
 13 26  1  0
 13 27  1  0
M  CHG  3   3  -1   7  -1  10   2
M  END
> <Uni-Dock RESULT> 
ENERGY=   -6.728  LOWER_BOUND=    0.418  UPPER_BOUND=    1.335
INTER + INTRA:          -6.728
INTER:                  -6.728
INTRA:                   0.000
UNBOUND:                 0.000

$$$$

     RDKit          3D

 27 20  0  0  0  0  0  0  0  0999 V2000
   47.3309    1.7982    7.2556 O   0  0  0  0  0  0  0  0  0  0  0  0
   47.7076    2.2631    6.5435 C   0  0  0  0  0  0  0  0  0  0  0  0
   48.3334    2.0314    5.4711 O   0  0  0  0  0  0  0  0  0  0  0  0
   47.4370    3.3621    7.1022 O   0  0  0  0  0  0  0  0  0  0  0  0
   47.2060    1.0261    7.2681 C   0  0  0  0  0  0  0  0  0  0  0  0
   47.7590    2.2195    6.5108 C   0  0  0  0  0  0  0  0  0  0  0  0
   48.2799    1.9032    5.4044 O   0  0  0  0  0  0  0  0  0  0  0  0
   47.6547    3.3494    7.0635 O   0  0  0  0  0  0  0  0  0  0  0  0
   47.1691    1.0583    7.2920 C   0  0  0  0  0  0  0  0  0  0  0  0
   47.4187    1.5464    6.9604 Mg  0  0  0  0  0 15  0  0  0  0  0  0
   47.3313    1.7989    7.2551 O   0  0  0  0  0  0  0  0  0  0  0  0
   47.3307    1.7978    7.2559 O   0  0  0  0  0  0  0  0  0  0  0  0
   47.3311    1.7985    7.2554 O   0  0  0  0  0  0  0  0  0  0  0  0
   47.7402    2.0002    6.4008 H   0  0  0  0  0  0  0  0  0  0  0  0
   47.1851    0.8407    7.2249 H   0  0  0  0  0  0  0  0  0  0  0  0
   46.5225    0.4690    6.6205 H   0  0  0  0  0  0  0  0  0  0  0  0
   46.6738    1.2906    8.1868 H   0  0  0  0  0  0  0  0  0  0  0  0
   48.0508    0.3824    7.5308 H   0  0  0  0  0  0  0  0  0  0  0  0
   46.3840    0.5756    6.7023 H   0  0  0  0  0  0  0  0  0  0  0  0
   46.7340    1.3942    8.2381 H   0  0  0  0  0  0  0  0  0  0  0  0
   47.9504    0.3245    7.5118 H   0  0  0  0  0  0  0  0  0  0  0  0
   47.1846    0.8416    7.2264 H   0  0  0  0  0  0  0  0  0  0  0  0
   47.7404    1.9987    6.3997 H   0  0  0  0  0  0  0  0  0  0  0  0
   47.7400    2.0010    6.4014 H   0  0  0  0  0  0  0  0  0  0  0  0
   47.1854    0.8403    7.2240 H   0  0  0  0  0  0  0  0  0  0  0  0
   47.1849    0.8410    7.2254 H   0  0  0  0  0  0  0  0  0  0  0  0
   47.7403    1.9997    6.4004 H   0  0  0  0  0  0  0  0  0  0  0  0
  5  2  1  0
  3  2  1  0
  4  2  2  0
  7  6  1  0
  8  6  2  0
  9  6  1  0
  1 14  1  0
  1 15  1  0
  5 16  1  0
  5 17  1  0
  5 18  1  0
  9 19  1  0
  9 20  1  0
  9 21  1  0
 11 22  1  0
 11 23  1  0
 12 24  1  0
 12 25  1  0
 13 26  1  0
 13 27  1  0
M  CHG  3   3  -1   7  -1  10   2
M  END
> <Uni-Dock RESULT> 
ENERGY=   -6.699  LOWER_BOUND=    1.299  UPPER_BOUND=    2.282
INTER + INTRA:          -6.699
INTER:                  -6.699
INTRA:                   0.000
UNBOUND:                 0.000

$$$$

     RDKit          3D

 27 20  0  0  0  0  0  0  0  0999 V2000
   47.1805    3.1825    6.2255 O   0  0  0  0  0  0  0  0  0  0  0  0
   47.6876    2.4029    6.2152 C   0  0  0  0  0  0  0  0  0  0  0  0
   48.1004    1.5170    7.0153 O   0  0  0  0  0  0  0  0  0  0  0  0
   47.9460    2.5730    4.9915 O   0  0  0  0  0  0  0  0  0  0  0  0
   46.7343    3.4165    6.8239 C   0  0  0  0  0  0  0  0  0  0  0  0
   47.7135    2.3901    6.2843 C   0  0  0  0  0  0  0  0  0  0  0  0
   47.9936    1.4876    7.1224 O   0  0  0  0  0  0  0  0  0  0  0  0
   48.1346    2.5612    5.1068 O   0  0  0  0  0  0  0  0  0  0  0  0
   46.7161    3.4258    6.7734 C   0  0  0  0  0  0  0  0  0  0  0  0
   47.1367    2.9876    6.5695 Mg  0  0  0  0  0 15  0  0  0  0  0  0
   47.1811    3.1818    6.2252 O   0  0  0  0  0  0  0  0  0  0  0  0
   47.1801    3.1829    6.2257 O   0  0  0  0  0  0  0  0  0  0  0  0
   47.1807    3.1822    6.2254 O   0  0  0  0  0  0  0  0  0  0  0  0
   47.5964    2.3505    6.4971 H   0  0  0  0  0  0  0  0  0  0  0  0
   46.6332    3.4297    6.9860 H   0  0  0  0  0  0  0  0  0  0  0  0
   45.8475    2.9055    7.2105 H   0  0  0  0  0  0  0  0  0  0  0  0
   46.4127    4.1557    6.0841 H   0  0  0  0  0  0  0  0  0  0  0  0
   47.2283    3.9424    7.6463 H   0  0  0  0  0  0  0  0  0  0  0  0
   45.7728    2.9373    7.0354 H   0  0  0  0  0  0  0  0  0  0  0  0
   46.5142    4.1788    6.0055 H   0  0  0  0  0  0  0  0  0  0  0  0
   47.1120    3.9323    7.6588 H   0  0  0  0  0  0  0  0  0  0  0  0
   46.6331    3.4309    6.9846 H   0  0  0  0  0  0  0  0  0  0  0  0
   47.5959    2.3499    6.4988 H   0  0  0  0  0  0  0  0  0  0  0  0
   47.5967    2.3508    6.4961 H   0  0  0  0  0  0  0  0  0  0  0  0
   46.6333    3.4290    6.9868 H   0  0  0  0  0  0  0  0  0  0  0  0
   46.6332    3.4301    6.9855 H   0  0  0  0  0  0  0  0  0  0  0  0
   47.5962    2.3503    6.4976 H   0  0  0  0  0  0  0  0  0  0  0  0
  5  2  1  0
  3  2  1  0
  4  2  2  0
  7  6  1  0
  8  6  2  0
  9  6  1  0
  1 14  1  0
  1 15  1  0
  5 16  1  0
  5 17  1  0
  5 18  1  0
  9 19  1  0
  9 20  1  0
  9 21  1  0
 11 22  1  0
 11 23  1  0
 12 24  1  0
 12 25  1  0
 13 26  1  0
 13 27  1  0
M  CHG  3   3  -1   7  -1  10   2
M  END
> <Uni-Dock RESULT> 
ENERGY=   -6.692  LOWER_BOUND=    1.887  UPPER_BOUND=    2.540
INTER + INTRA:          -6.692
INTER:                  -6.692
INTRA:                   0.000
UNBOUND:                 0.000

$$$$

     RDKit          3D

 27 20  0  0  0  0  0  0  0  0999 V2000
   39.6519    4.5616    5.3121 O   0  0  0  0  0  0  0  0  0  0  0  0
   38.7224    4.5304    5.3110 C   0  0  0  0  0  0  0  0  0  0  0  0
   37.7385    5.2713    5.0307 O   0  0  0  0  0  0  0  0  0  0  0  0
   38.7484    3.3817    5.8335 O   0  0  0  0  0  0  0  0  0  0  0  0
   40.0800    5.1163    4.9643 C   0  0  0  0  0  0  0  0  0  0  0  0
   38.6959    4.6005    5.3131 C   0  0  0  0  0  0  0  0  0  0  0  0
   37.7705    5.3586    4.9079 O   0  0  0  0  0  0  0  0  0  0  0  0
   38.6321    3.5196    5.9618 O   0  0  0  0  0  0  0  0  0  0  0  0
   40.0989    5.0653    4.9634 C   0  0  0  0  0  0  0  0  0  0  0  0
   39.5060    4.8714    5.1096 Mg  0  0  0  0  0 15  0  0  0  0  0  0
   39.6510    4.5613    5.3123 O   0  0  0  0  0  0  0  0  0  0  0  0
   39.6524    4.5618    5.3120 O   0  0  0  0  0  0  0  0  0  0  0  0
   39.6516    4.5615    5.3121 O   0  0  0  0  0  0  0  0  0  0  0  0
   38.7228    4.7892    5.1575 H   0  0  0  0  0  0  0  0  0  0  0  0
   40.1433    5.2635    4.8594 H   0  0  0  0  0  0  0  0  0  0  0  0
   40.1340    5.3159    3.8900 H   0  0  0  0  0  0  0  0  0  0  0  0
   40.8899    4.4303    5.2299 H   0  0  0  0  0  0  0  0  0  0  0  0
   40.2287    6.0540    5.5080 H   0  0  0  0  0  0  0  0  0  0  0  0
   40.2055    5.1372    3.8768 H   0  0  0  0  0  0  0  0  0  0  0  0
   40.8550    4.3696    5.3399 H   0  0  0  0  0  0  0  0  0  0  0  0
   40.2840    6.0493    5.4046 H   0  0  0  0  0  0  0  0  0  0  0  0
   40.1443    5.2622    4.8602 H   0  0  0  0  0  0  0  0  0  0  0  0
   38.7225    4.7907    5.1565 H   0  0  0  0  0  0  0  0  0  0  0  0
   38.7229    4.7883    5.1580 H   0  0  0  0  0  0  0  0  0  0  0  0
   40.1426    5.2642    4.8589 H   0  0  0  0  0  0  0  0  0  0  0  0
   40.1436    5.2631    4.8596 H   0  0  0  0  0  0  0  0  0  0  0  0
   38.7227    4.7897    5.1571 H   0  0  0  0  0  0  0  0  0  0  0  0
  5  2  1  0
  3  2  1  0
  4  2  2  0
  7  6  1  0
  8  6  2  0
  9  6  1  0
  1 14  1  0
  1 15  1  0
  5 16  1  0
  5 17  1  0
  5 18  1  0
  9 19  1  0
  9 20  1  0
  9 21  1  0
 11 22  1  0
 11 23  1  0
 12 24  1  0
 12 25  1  0
 13 26  1  0
 13 27  1  0
M  CHG  3   3  -1   7  -1  10   2
M  END
> <Uni-Dock RESULT> 
ENERGY=   -5.927  LOWER_BOUND=    8.530  UPPER_BOUND=    8.998
INTER + INTRA:          -5.927
INTER:                  -5.927
INTRA:                   0.000
UNBOUND:                 0.000

$$$$

     RDKit          3D

 27 20  0  0  0  0  0  0  0  0999 V2000
   42.7664    5.3913   12.6803 O   0  0  0  0  0  0  0  0  0  0  0  0
   42.6809    5.3748   11.7543 C   0  0  0  0  0  0  0  0  0  0  0  0
   43.2085    4.8148   10.7526 O   0  0  0  0  0  0  0  0  0  0  0  0
   41.8043    6.2815   11.8071 O   0  0  0  0  0  0  0  0  0  0  0  0
   43.1816    4.8775   13.0991 C   0  0  0  0  0  0  0  0  0  0  0  0
   42.7452    5.3504   11.7246 C   0  0  0  0  0  0  0  0  0  0  0  0
   43.2469    4.6695   10.7866 O   0  0  0  0  0  0  0  0  0  0  0  0
   41.9722    6.3471   11.6785 O   0  0  0  0  0  0  0  0  0  0  0  0
   43.1350    4.8958   13.1204 C   0  0  0  0  0  0  0  0  0  0  0  0
   42.9721    5.0855   12.5305 Mg  0  0  0  0  0 15  0  0  0  0  0  0
   42.7662    5.3916   12.6794 O   0  0  0  0  0  0  0  0  0  0  0  0
   42.7666    5.3912   12.6808 O   0  0  0  0  0  0  0  0  0  0  0  0
   42.7663    5.3914   12.6800 O   0  0  0  0  0  0  0  0  0  0  0  0
   42.8657    5.1374   11.7505 H   0  0  0  0  0  0  0  0  0  0  0  0
   43.2841    4.7279   13.1607 H   0  0  0  0  0  0  0  0  0  0  0  0
   42.9801    3.8066   13.1966 H   0  0  0  0  0  0  0  0  0  0  0  0
   42.6892    5.3988   13.9256 H   0  0  0  0  0  0  0  0  0  0  0  0
   44.2599    5.0449   13.1781 H   0  0  0  0  0  0  0  0  0  0  0  0
   42.8134    3.8617   13.2767 H   0  0  0  0  0  0  0  0  0  0  0  0
   42.6706    5.5223   13.8881 H   0  0  0  0  0  0  0  0  0  0  0  0
   44.2212    4.9520   13.2386 H   0  0  0  0  0  0  0  0  0  0  0  0
   43.2833    4.7291   13.1618 H   0  0  0  0  0  0  0  0  0  0  0  0
   42.8668    5.1359   11.7502 H   0  0  0  0  0  0  0  0  0  0  0  0
   42.8651    5.1383   11.7506 H   0  0  0  0  0  0  0  0  0  0  0  0
   43.2846    4.7272   13.1601 H   0  0  0  0  0  0  0  0  0  0  0  0
   43.2838    4.7283   13.1610 H   0  0  0  0  0  0  0  0  0  0  0  0
   42.8661    5.1369   11.7504 H   0  0  0  0  0  0  0  0  0  0  0  0
  5  2  1  0
  3  2  1  0
  4  2  2  0
  7  6  1  0
  8  6  2  0
  9  6  1  0
  1 14  1  0
  1 15  1  0
  5 16  1  0
  5 17  1  0
  5 18  1  0
  9 19  1  0
  9 20  1  0
  9 21  1  0
 11 22  1  0
 11 23  1  0
 12 24  1  0
 12 25  1  0
 13 26  1  0
 13 27  1  0
M  CHG  3   3  -1   7  -1  10   2
M  END
> <Uni-Dock RESULT> 
ENERGY=   -5.196  LOWER_BOUND=    6.850  UPPER_BOUND=    7.920
INTER + INTRA:          -5.196
INTER:                  -5.196
INTRA:                   0.000
UNBOUND:                 0.000

$$$$

     RDKit          3D

 27 20  0  0  0  0  0  0  0  0999 V2000
   42.7107    4.6699   11.5953 O   0  0  0  0  0  0  0  0  0  0  0  0
   42.8134    5.3643   12.2055 C   0  0  0  0  0  0  0  0  0  0  0  0
   43.4308    5.6140   13.2788 O   0  0  0  0  0  0  0  0  0  0  0  0
   41.9538    6.0510   11.5870 O   0  0  0  0  0  0  0  0  0  0  0  0
   43.1626    4.0322   11.5650 C   0  0  0  0  0  0  0  0  0  0  0  0
   42.8369    5.3358   12.2707 C   0  0  0  0  0  0  0  0  0  0  0  0
   43.5702    5.5485   13.2768 O   0  0  0  0  0  0  0  0  0  0  0  0
   41.8909    6.0245   11.7976 O   0  0  0  0  0  0  0  0  0  0  0  0
   43.1450    4.0531   11.5180 C   0  0  0  0  0  0  0  0  0  0  0  0
   43.0171    4.5937   11.8373 Mg  0  0  0  0  0 15  0  0  0  0  0  0
   42.7105    4.6707   11.5958 O   0  0  0  0  0  0  0  0  0  0  0  0
   42.7108    4.6695   11.5950 O   0  0  0  0  0  0  0  0  0  0  0  0
   42.7106    4.6702   11.5955 O   0  0  0  0  0  0  0  0  0  0  0  0
   43.0400    5.2099   12.3294 H   0  0  0  0  0  0  0  0  0  0  0  0
   43.3006    3.9012   11.5871 H   0  0  0  0  0  0  0  0  0  0  0  0
   44.2300    4.0043   11.3264 H   0  0  0  0  0  0  0  0  0  0  0  0
   42.5975    3.8734   10.6417 H   0  0  0  0  0  0  0  0  0  0  0  0
   42.9316    3.2166   12.2566 H   0  0  0  0  0  0  0  0  0  0  0  0
   44.1770    4.0752   11.1549 H   0  0  0  0  0  0  0  0  0  0  0  0
   42.4789    3.9248   10.6593 H   0  0  0  0  0  0  0  0  0  0  0  0
   43.0207    3.1938   12.1836 H   0  0  0  0  0  0  0  0  0  0  0  0
   43.2992    3.9012   11.5859 H   0  0  0  0  0  0  0  0  0  0  0  0
   43.0415    5.2092   12.3303 H   0  0  0  0  0  0  0  0  0  0  0  0
   43.0392    5.2103   12.3289 H   0  0  0  0  0  0  0  0  0  0  0  0
   43.3013    3.9012   11.5879 H   0  0  0  0  0  0  0  0  0  0  0  0
   43.3001    3.9012   11.5867 H   0  0  0  0  0  0  0  0  0  0  0  0
   43.0405    5.2097   12.3297 H   0  0  0  0  0  0  0  0  0  0  0  0
  5  2  1  0
  3  2  1  0
  4  2  2  0
  7  6  1  0
  8  6  2  0
  9  6  1  0
  1 14  1  0
  1 15  1  0
  5 16  1  0
  5 17  1  0
  5 18  1  0
  9 19  1  0
  9 20  1  0
  9 21  1  0
 11 22  1  0
 11 23  1  0
 12 24  1  0
 12 25  1  0
 13 26  1  0
 13 27  1  0
M  CHG  3   3  -1   7  -1  10   2
M  END
> <Uni-Dock RESULT> 
ENERGY=   -5.152  LOWER_BOUND=    6.937  UPPER_BOUND=    7.539
INTER + INTRA:          -5.152
INTER:                  -5.152
INTRA:                   0.000
UNBOUND:                 0.000

$$$$

     RDKit          3D

 27 20  0  0  0  0  0  0  0  0999 V2000
   44.6315    2.9174    9.0413 O   0  0  0  0  0  0  0  0  0  0  0  0
   44.8260    3.5286    8.3677 C   0  0  0  0  0  0  0  0  0  0  0  0
   45.6386    3.6758    7.4120 O   0  0  0  0  0  0  0  0  0  0  0  0
   43.9562    4.3231    8.8210 O   0  0  0  0  0  0  0  0  0  0  0  0
   44.9129    2.1885    9.0770 C   0  0  0  0  0  0  0  0  0  0  0  0
   44.8967    3.5180    8.3452 C   0  0  0  0  0  0  0  0  0  0  0  0
   45.6680    3.5401    7.3453 O   0  0  0  0  0  0  0  0  0  0  0  0
   44.1534    4.4235    8.8152 O   0  0  0  0  0  0  0  0  0  0  0  0
   44.8617    2.1968    9.0935 C   0  0  0  0  0  0  0  0  0  0  0  0
   44.8783    2.7531    8.7760 Mg  0  0  0  0  0 15  0  0  0  0  0  0
   44.6315    2.9183    9.0407 O   0  0  0  0  0  0  0  0  0  0  0  0
   44.6315    2.9170    9.0415 O   0  0  0  0  0  0  0  0  0  0  0  0
   44.6315    2.9178    9.0410 O   0  0  0  0  0  0  0  0  0  0  0  0
   45.0081    3.3225    8.2456 H   0  0  0  0  0  0  0  0  0  0  0  0
   44.9953    2.0193    9.0412 H   0  0  0  0  0  0  0  0  0  0  0  0
   44.7122    1.3801    8.3675 H   0  0  0  0  0  0  0  0  0  0  0  0
   44.1868    2.1212    9.8927 H   0  0  0  0  0  0  0  0  0  0  0  0
   45.9154    2.0544    9.4943 H   0  0  0  0  0  0  0  0  0  0  0  0
   44.5282    1.3995    8.4224 H   0  0  0  0  0  0  0  0  0  0  0  0
   44.1778    2.2396    9.9466 H   0  0  0  0  0  0  0  0  0  0  0  0
   45.8622    1.9542    9.4640 H   0  0  0  0  0  0  0  0  0  0  0  0
   44.9942    2.0197    9.0426 H   0  0  0  0  0  0  0  0  0  0  0  0
   45.0092    3.3214    8.2447 H   0  0  0  0  0  0  0  0  0  0  0  0
   45.0074    3.3232    8.2462 H   0  0  0  0  0  0  0  0  0  0  0  0
   44.9959    2.0192    9.0404 H   0  0  0  0  0  0  0  0  0  0  0  0
   44.9949    2.0195    9.0417 H   0  0  0  0  0  0  0  0  0  0  0  0
   45.0084    3.3222    8.2453 H   0  0  0  0  0  0  0  0  0  0  0  0
  5  2  1  0
  3  2  1  0
  4  2  2  0
  7  6  1  0
  8  6  2  0
  9  6  1  0
  1 14  1  0
  1 15  1  0
  5 16  1  0
  5 17  1  0
  5 18  1  0
  9 19  1  0
  9 20  1  0
  9 21  1  0
 11 22  1  0
 11 23  1  0
 12 24  1  0
 12 25  1  0
 13 26  1  0
 13 27  1  0
M  CHG  3   3  -1   7  -1  10   2
M  END
> <Uni-Dock RESULT> 
ENERGY=   -5.056  LOWER_BOUND=    3.152  UPPER_BOUND=    3.855
INTER + INTRA:          -5.056
INTER:                  -5.056
INTRA:                   0.000
UNBOUND:                 0.000

$$$$
