
     RDKit          3D

 27 20  0  0  0  0  0  0  0  0999 V2000
   47.5807    1.1648    7.0507 O   0  0  0  0  0  0  0  0  0  0  0  0
   46.7730    1.0846    7.5287 C   0  0  0  0  0  0  0  0  0  0  0  0
   46.9760   -0.1510    7.6875 O   0  0  0  0  0  0  0  0  0  0  0  0
   45.8074    1.8033    7.9110 O   0  0  0  0  0  0  0  0  0  0  0  0
   47.8532    1.8259    6.7601 C   0  0  0  0  0  0  0  0  0  0  0  0
   46.8851    1.0921    7.6596 C   0  0  0  0  0  0  0  0  0  0  0  0
   46.8318   -0.1612    7.5180 O   0  0  0  0  0  0  0  0  0  0  0  0
   46.3145    1.8373    8.5047 O   0  0  0  0  0  0  0  0  0  0  0  0
   47.7700    1.8204    6.6630 C   0  0  0  0  0  0  0  0  0  0  0  0
   47.3961    1.5155    7.0846 Mg  0  0  0  0  0 15  0  0  0  0  0  0
   47.5801    1.1644    7.0512 O   0  0  0  0  0  0  0  0  0  0  0  0
   47.5799    1.1642    7.0513 O   0  0  0  0  0  0  0  0  0  0  0  0
   47.5802    1.1645    7.0511 O   0  0  0  0  0  0  0  0  0  0  0  0
   46.7450    1.3581    7.5016 H   0  0  0  0  0  0  0  0  0  0  0  0
   47.8625    2.0236    6.7016 H   0  0  0  0  0  0  0  0  0  0  0  0
   48.6602    1.1522    6.4565 H   0  0  0  0  0  0  0  0  0  0  0  0
   47.4241    2.2786    5.8613 H   0  0  0  0  0  0  0  0  0  0  0  0
   48.2789    2.6149    7.3872 H   0  0  0  0  0  0  0  0  0  0  0  0
   48.5629    2.3559    7.1938 H   0  0  0  0  0  0  0  0  0  0  0  0
   48.2348    1.1237    5.9587 H   0  0  0  0  0  0  0  0  0  0  0  0
   47.1736    2.5403    6.0947 H   0  0  0  0  0  0  0  0  0  0  0  0
   47.8635    2.0224    6.7013 H   0  0  0  0  0  0  0  0  0  0  0  0
   46.7447    1.3597    7.5015 H   0  0  0  0  0  0  0  0  0  0  0  0
   46.7444    1.3604    7.5015 H   0  0  0  0  0  0  0  0  0  0  0  0
   47.8640    2.0219    6.7011 H   0  0  0  0  0  0  0  0  0  0  0  0
   47.8633    2.0227    6.7013 H   0  0  0  0  0  0  0  0  0  0  0  0
   46.7448    1.3593    7.5015 H   0  0  0  0  0  0  0  0  0  0  0  0
  5  2  1  0
  3  2  1  0
  4  2  2  0
  7  6  1  0
  8  6  2  0
  9  6  1  0
  1 14  1  0
  1 15  1  0
  5 16  1  0
  5 17  1  0
  5 18  1  0
  9 19  1  0
  9 20  1  0
  9 21  1  0
 11 22  1  0
 11 23  1  0
 12 24  1  0
 12 25  1  0
 13 26  1  0
 13 27  1  0
M  CHG  3   3  -1   7  -1  10   2
M  END
> <Uni-Dock RESULT> 
ENERGY=   -6.702  LOWER_BOUND=    0.000  UPPER_BOUND=    0.000
INTER + INTRA:          -6.702
INTER:                  -6.702
INTRA:                   0.000
UNBOUND:                 0.000

$$$$

     RDKit          3D

 27 20  0  0  0  0  0  0  0  0999 V2000
   47.5024    1.3503    6.6722 O   0  0  0  0  0  0  0  0  0  0  0  0
   47.6928    2.2607    6.5227 C   0  0  0  0  0  0  0  0  0  0  0  0
   48.2912    1.9714    5.4496 O   0  0  0  0  0  0  0  0  0  0  0  0
   47.5061    3.3838    7.0694 O   0  0  0  0  0  0  0  0  0  0  0  0
   47.1052    1.0801    7.2763 C   0  0  0  0  0  0  0  0  0  0  0  0
   47.5559    2.2410    6.4197 C   0  0  0  0  0  0  0  0  0  0  0  0
   48.4684    1.9959    5.5825 O   0  0  0  0  0  0  0  0  0  0  0  0
   46.8856    3.2957    6.6025 O   0  0  0  0  0  0  0  0  0  0  0  0
   47.2068    1.0947    7.3528 C   0  0  0  0  0  0  0  0  0  0  0  0
   47.3522    1.5799    6.9603 Mg  0  0  0  0  0 15  0  0  0  0  0  0
   47.5027    1.3511    6.6718 O   0  0  0  0  0  0  0  0  0  0  0  0
   47.5028    1.3513    6.6717 O   0  0  0  0  0  0  0  0  0  0  0  0
   47.5026    1.3509    6.6719 O   0  0  0  0  0  0  0  0  0  0  0  0
   47.5471    2.3152    6.7510 H   0  0  0  0  0  0  0  0  0  0  0  0
   47.0070    1.0741    7.4578 H   0  0  0  0  0  0  0  0  0  0  0  0
   47.2990    0.1378    6.7550 H   0  0  0  0  0  0  0  0  0  0  0  0
   47.5481    1.0204    8.2750 H   0  0  0  0  0  0  0  0  0  0  0  0
   46.0227    1.2048    7.3743 H   0  0  0  0  0  0  0  0  0  0  0  0
   46.1545    0.8224    7.2276 H   0  0  0  0  0  0  0  0  0  0  0  0
   47.8194    0.2118    7.1466 H   0  0  0  0  0  0  0  0  0  0  0  0
   47.3746    1.3975    8.3907 H   0  0  0  0  0  0  0  0  0  0  0  0
   47.0075    1.0728    7.4569 H   0  0  0  0  0  0  0  0  0  0  0  0
   47.5464    2.3157    6.7523 H   0  0  0  0  0  0  0  0  0  0  0  0
   47.5461    2.3160    6.7529 H   0  0  0  0  0  0  0  0  0  0  0  0
   47.0077    1.0723    7.4565 H   0  0  0  0  0  0  0  0  0  0  0  0
   47.0074    1.0731    7.4571 H   0  0  0  0  0  0  0  0  0  0  0  0
   47.5465    2.3155    6.7520 H   0  0  0  0  0  0  0  0  0  0  0  0
  5  2  1  0
  3  2  1  0
  4  2  2  0
  7  6  1  0
  8  6  2  0
  9  6  1  0
  1 14  1  0
  1 15  1  0
  5 16  1  0
  5 17  1  0
  5 18  1  0
  9 19  1  0
  9 20  1  0
  9 21  1  0
 11 22  1  0
 11 23  1  0
 12 24  1  0
 12 25  1  0
 13 26  1  0
 13 27  1  0
M  CHG  3   3  -1   7  -1  10   2
M  END
> <Uni-Dock RESULT> 
ENERGY=   -6.542  LOWER_BOUND=    1.209  UPPER_BOUND=    1.850
INTER + INTRA:          -6.542
INTER:                  -6.542
INTRA:                   0.000
UNBOUND:                 0.000

$$$$

     RDKit          3D

 27 20  0  0  0  0  0  0  0  0999 V2000
   47.2128    3.1891    6.2664 O   0  0  0  0  0  0  0  0  0  0  0  0
   47.5621    2.3166    6.2029 C   0  0  0  0  0  0  0  0  0  0  0  0
   48.1261    2.6091    5.1122 O   0  0  0  0  0  0  0  0  0  0  0  0
   47.5491    1.2275    6.8423 O   0  0  0  0  0  0  0  0  0  0  0  0
   46.7767    3.4442    6.8499 C   0  0  0  0  0  0  0  0  0  0  0  0
   47.6997    2.3999    6.2650 C   0  0  0  0  0  0  0  0  0  0  0  0
   47.9481    2.5022    5.0315 O   0  0  0  0  0  0  0  0  0  0  0  0
   48.1733    1.6042    7.1238 O   0  0  0  0  0  0  0  0  0  0  0  0
   46.6745    3.3823    6.8039 C   0  0  0  0  0  0  0  0  0  0  0  0
   47.1073    2.9668    6.5790 Mg  0  0  0  0  0 15  0  0  0  0  0  0
   47.2133    3.1884    6.2661 O   0  0  0  0  0  0  0  0  0  0  0  0
   47.2134    3.1882    6.2660 O   0  0  0  0  0  0  0  0  0  0  0  0
   47.2132    3.1886    6.2662 O   0  0  0  0  0  0  0  0  0  0  0  0
   47.4474    2.2668    6.4492 H   0  0  0  0  0  0  0  0  0  0  0  0
   46.6618    3.4446    7.0214 H   0  0  0  0  0  0  0  0  0  0  0  0
   46.8252    4.3587    6.2511 H   0  0  0  0  0  0  0  0  0  0  0  0
   45.7270    3.1533    6.9527 H   0  0  0  0  0  0  0  0  0  0  0  0
   47.1851    3.6584    7.8421 H   0  0  0  0  0  0  0  0  0  0  0  0
   47.1278    3.9992    7.5857 H   0  0  0  0  0  0  0  0  0  0  0  0
   46.3017    4.0426    6.0150 H   0  0  0  0  0  0  0  0  0  0  0  0
   45.8262    2.8372    7.2283 H   0  0  0  0  0  0  0  0  0  0  0  0
   46.6620    3.4458    7.0203 H   0  0  0  0  0  0  0  0  0  0  0  0
   47.4467    2.2663    6.4507 H   0  0  0  0  0  0  0  0  0  0  0  0
   47.4465    2.2660    6.4512 H   0  0  0  0  0  0  0  0  0  0  0  0
   46.6621    3.4463    7.0199 H   0  0  0  0  0  0  0  0  0  0  0  0
   46.6620    3.4455    7.0206 H   0  0  0  0  0  0  0  0  0  0  0  0
   47.4469    2.2664    6.4503 H   0  0  0  0  0  0  0  0  0  0  0  0
  5  2  1  0
  3  2  1  0
  4  2  2  0
  7  6  1  0
  8  6  2  0
  9  6  1  0
  1 14  1  0
  1 15  1  0
  5 16  1  0
  5 17  1  0
  5 18  1  0
  9 19  1  0
  9 20  1  0
  9 21  1  0
 11 22  1  0
 11 23  1  0
 12 24  1  0
 12 25  1  0
 13 26  1  0
 13 27  1  0
M  CHG  3   3  -1   7  -1  10   2
M  END
> <Uni-Dock RESULT> 
ENERGY=   -6.216  LOWER_BOUND=    1.816  UPPER_BOUND=    2.442
INTER + INTRA:          -6.216
INTER:                  -6.216
INTRA:                   0.000
UNBOUND:                 0.000

$$$$

     RDKit          3D

 27 20  0  0  0  0  0  0  0  0999 V2000
   47.3800    1.8267    7.2418 O   0  0  0  0  0  0  0  0  0  0  0  0
   47.6026    2.3102    6.4646 C   0  0  0  0  0  0  0  0  0  0  0  0
   47.6547    3.3807    7.1312 O   0  0  0  0  0  0  0  0  0  0  0  0
   47.7906    2.1131    5.2313 O   0  0  0  0  0  0  0  0  0  0  0  0
   47.2613    1.0644    7.2637 C   0  0  0  0  0  0  0  0  0  0  0  0
   47.7591    2.2912    6.5344 C   0  0  0  0  0  0  0  0  0  0  0  0
   47.4521    3.4054    7.0420 O   0  0  0  0  0  0  0  0  0  0  0  0
   48.5006    2.0272    5.5466 O   0  0  0  0  0  0  0  0  0  0  0  0
   47.1451    1.0785    7.2119 C   0  0  0  0  0  0  0  0  0  0  0  0
   47.4054    1.5885    6.9243 Mg  0  0  0  0  0 15  0  0  0  0  0  0
   47.3802    1.8274    7.2413 O   0  0  0  0  0  0  0  0  0  0  0  0
   47.3803    1.8277    7.2411 O   0  0  0  0  0  0  0  0  0  0  0  0
   47.3802    1.8273    7.2414 O   0  0  0  0  0  0  0  0  0  0  0  0
   47.6034    2.0687    6.3304 H   0  0  0  0  0  0  0  0  0  0  0  0
   47.2329    0.8699    7.2007 H   0  0  0  0  0  0  0  0  0  0  0  0
   47.1101    1.2984    8.3219 H   0  0  0  0  0  0  0  0  0  0  0  0
   46.3432    0.6143    6.8744 H   0  0  0  0  0  0  0  0  0  0  0  0
   48.0754    0.3379    7.1831 H   0  0  0  0  0  0  0  0  0  0  0  0
   47.9369    0.4203    7.5820 H   0  0  0  0  0  0  0  0  0  0  0  0
   46.5148    1.3705    8.0574 H   0  0  0  0  0  0  0  0  0  0  0  0
   46.5294    0.5261    6.4959 H   0  0  0  0  0  0  0  0  0  0  0  0
   47.2327    0.8705    7.2022 H   0  0  0  0  0  0  0  0  0  0  0  0
   47.6033    2.0674    6.3294 H   0  0  0  0  0  0  0  0  0  0  0  0
   47.6034    2.0669    6.3289 H   0  0  0  0  0  0  0  0  0  0  0  0
   47.2327    0.8708    7.2028 H   0  0  0  0  0  0  0  0  0  0  0  0
   47.2328    0.8704    7.2018 H   0  0  0  0  0  0  0  0  0  0  0  0
   47.6033    2.0677    6.3297 H   0  0  0  0  0  0  0  0  0  0  0  0
  5  2  1  0
  3  2  1  0
  4  2  2  0
  7  6  1  0
  8  6  2  0
  9  6  1  0
  1 14  1  0
  1 15  1  0
  5 16  1  0
  5 17  1  0
  5 18  1  0
  9 19  1  0
  9 20  1  0
  9 21  1  0
 11 22  1  0
 11 23  1  0
 12 24  1  0
 12 25  1  0
 13 26  1  0
 13 27  1  0
M  CHG  3   3  -1   7  -1  10   2
M  END
> <Uni-Dock RESULT> 
ENERGY=   -6.144  LOWER_BOUND=    1.278  UPPER_BOUND=    2.195
INTER + INTRA:          -6.144
INTER:                  -6.144
INTRA:                   0.000
UNBOUND:                 0.000

$$$$

     RDKit          3D

 27 20  0  0  0  0  0  0  0  0999 V2000
   47.5548    2.8750    6.2500 O   0  0  0  0  0  0  0  0  0  0  0  0
   47.0562    2.8607    7.0490 C   0  0  0  0  0  0  0  0  0  0  0  0
   46.7286    4.0680    6.8801 O   0  0  0  0  0  0  0  0  0  0  0  0
   46.7619    2.0642    7.9839 O   0  0  0  0  0  0  0  0  0  0  0  0
   47.9402    2.2705    5.9641 C   0  0  0  0  0  0  0  0  0  0  0  0
   46.9296    2.8387    6.9339 C   0  0  0  0  0  0  0  0  0  0  0  0
   46.8925    4.0970    7.0282 O   0  0  0  0  0  0  0  0  0  0  0  0
   46.1879    1.9641    7.4631 O   0  0  0  0  0  0  0  0  0  0  0  0
   48.0341    2.2868    6.0495 C   0  0  0  0  0  0  0  0  0  0  0  0
   47.5673    2.5171    6.4231 Mg  0  0  0  0  0 15  0  0  0  0  0  0
   47.5542    2.8753    6.2506 O   0  0  0  0  0  0  0  0  0  0  0  0
   47.5541    2.8754    6.2508 O   0  0  0  0  0  0  0  0  0  0  0  0
   47.5544    2.8752    6.2505 O   0  0  0  0  0  0  0  0  0  0  0  0
   47.1210    2.5930    7.0693 H   0  0  0  0  0  0  0  0  0  0  0  0
   48.0261    2.0833    5.9501 H   0  0  0  0  0  0  0  0  0  0  0  0
   48.1600    3.0063    5.1846 H   0  0  0  0  0  0  0  0  0  0  0  0
   48.8861    1.9342    6.3990 H   0  0  0  0  0  0  0  0  0  0  0  0
   47.4379    1.4158    5.5011 H   0  0  0  0  0  0  0  0  0  0  0  0
   47.5979    1.7086    5.2294 H   0  0  0  0  0  0  0  0  0  0  0  0
   48.6414    3.0902    5.6216 H   0  0  0  0  0  0  0  0  0  0  0  0
   48.6875    1.6343    6.6363 H   0  0  0  0  0  0  0  0  0  0  0  0
   48.0263    2.0846    5.9491 H   0  0  0  0  0  0  0  0  0  0  0  0
   47.1213    2.5914    7.0697 H   0  0  0  0  0  0  0  0  0  0  0  0
   47.1214    2.5907    7.0699 H   0  0  0  0  0  0  0  0  0  0  0  0
   48.0264    2.0852    5.9487 H   0  0  0  0  0  0  0  0  0  0  0  0
   48.0262    2.0843    5.9494 H   0  0  0  0  0  0  0  0  0  0  0  0
   47.1212    2.5918    7.0696 H   0  0  0  0  0  0  0  0  0  0  0  0
  5  2  1  0
  3  2  1  0
  4  2  2  0
  7  6  1  0
  8  6  2  0
  9  6  1  0
  1 14  1  0
  1 15  1  0
  5 16  1  0
  5 17  1  0
  5 18  1  0
  9 19  1  0
  9 20  1  0
  9 21  1  0
 11 22  1  0
 11 23  1  0
 12 24  1  0
 12 25  1  0
 13 26  1  0
 13 27  1  0
M  CHG  3   3  -1   7  -1  10   2
M  END
> <Uni-Dock RESULT> 
ENERGY=   -5.367  LOWER_BOUND=    1.660  UPPER_BOUND=    2.206
INTER + INTRA:          -5.367
INTER:                  -5.367
INTRA:                   0.000
UNBOUND:                 0.000

$$$$

     RDKit          3D

 27 20  0  0  0  0  0  0  0  0999 V2000
   42.7254    4.7073   11.5381 O   0  0  0  0  0  0  0  0  0  0  0  0
   42.8393    5.3707   12.1971 C   0  0  0  0  0  0  0  0  0  0  0  0
   41.9139    6.0576   11.6823 O   0  0  0  0  0  0  0  0  0  0  0  0
   43.5622    5.6100   13.2047 O   0  0  0  0  0  0  0  0  0  0  0  0
   43.1328    4.0528   11.5014 C   0  0  0  0  0  0  0  0  0  0  0  0
   42.7036    5.2865   12.2620 C   0  0  0  0  0  0  0  0  0  0  0  0
   42.0889    6.1663   11.5976 O   0  0  0  0  0  0  0  0  0  0  0  0
   42.9472    5.2286   13.4999 O   0  0  0  0  0  0  0  0  0  0  0  0
   43.2336    4.1153   11.4532 C   0  0  0  0  0  0  0  0  0  0  0  0
   43.0110    4.6083   11.7967 Mg  0  0  0  0  0 15  0  0  0  0  0  0
   42.7252    4.7080   11.5386 O   0  0  0  0  0  0  0  0  0  0  0  0
   42.7252    4.7083   11.5387 O   0  0  0  0  0  0  0  0  0  0  0  0
   42.7253    4.7079   11.5385 O   0  0  0  0  0  0  0  0  0  0  0  0
   43.0300    5.2064   12.3109 H   0  0  0  0  0  0  0  0  0  0  0  0
   43.2776    3.9111   11.5411 H   0  0  0  0  0  0  0  0  0  0  0  0
   42.4767    3.9025   10.6387 H   0  0  0  0  0  0  0  0  0  0  0  0
   44.1700    4.0404   11.1534 H   0  0  0  0  0  0  0  0  0  0  0  0
   42.9819    3.2238   12.1992 H   0  0  0  0  0  0  0  0  0  0  0  0
   42.7900    3.1834   11.8162 H   0  0  0  0  0  0  0  0  0  0  0  0
   42.9925    4.2224   10.3912 H   0  0  0  0  0  0  0  0  0  0  0  0
   44.3211    4.0554   11.5567 H   0  0  0  0  0  0  0  0  0  0  0  0
   43.2766    3.9112   11.5398 H   0  0  0  0  0  0  0  0  0  0  0  0
   43.0312    5.2056   12.3117 H   0  0  0  0  0  0  0  0  0  0  0  0
   43.0317    5.2053   12.3121 H   0  0  0  0  0  0  0  0  0  0  0  0
   43.2761    3.9112   11.5393 H   0  0  0  0  0  0  0  0  0  0  0  0
   43.2768    3.9112   11.5401 H   0  0  0  0  0  0  0  0  0  0  0  0
   43.0309    5.2057   12.3115 H   0  0  0  0  0  0  0  0  0  0  0  0
  5  2  1  0
  3  2  1  0
  4  2  2  0
  7  6  1  0
  8  6  2  0
  9  6  1  0
  1 14  1  0
  1 15  1  0
  5 16  1  0
  5 17  1  0
  5 18  1  0
  9 19  1  0
  9 20  1  0
  9 21  1  0
 11 22  1  0
 11 23  1  0
 12 24  1  0
 12 25  1  0
 13 26  1  0
 13 27  1  0
M  CHG  3   3  -1   7  -1  10   2
M  END
> <Uni-Dock RESULT> 
ENERGY=   -5.130  LOWER_BOUND=    6.917  UPPER_BOUND=    7.550
INTER + INTRA:          -5.130
INTER:                  -5.130
INTRA:                   0.000
UNBOUND:                 0.000

$$$$

     RDKit          3D

 27 20  0  0  0  0  0  0  0  0999 V2000
   42.7758    5.4027   12.6878 O   0  0  0  0  0  0  0  0  0  0  0  0
   42.7143    5.3739   11.7482 C   0  0  0  0  0  0  0  0  0  0  0  0
   41.9240    6.3582   11.7582 O   0  0  0  0  0  0  0  0  0  0  0  0
   43.1587    4.7009   10.7763 O   0  0  0  0  0  0  0  0  0  0  0  0
   43.2097    4.9261   13.1124 C   0  0  0  0  0  0  0  0  0  0  0  0
   42.8293    5.5010   11.7672 C   0  0  0  0  0  0  0  0  0  0  0  0
   41.7749    6.1943   11.7344 O   0  0  0  0  0  0  0  0  0  0  0  0
   43.6803    5.2766   10.8614 O   0  0  0  0  0  0  0  0  0  0  0  0
   43.1244    4.8318   13.0983 C   0  0  0  0  0  0  0  0  0  0  0  0
   43.0022    5.1131   12.5357 Mg  0  0  0  0  0 15  0  0  0  0  0  0
   42.7756    5.4029   12.6869 O   0  0  0  0  0  0  0  0  0  0  0  0
   42.7755    5.4030   12.6867 O   0  0  0  0  0  0  0  0  0  0  0  0
   42.7756    5.4029   12.6871 O   0  0  0  0  0  0  0  0  0  0  0  0
   42.8992    5.1689   11.7555 H   0  0  0  0  0  0  0  0  0  0  0  0
   43.3316    4.7676   13.1639 H   0  0  0  0  0  0  0  0  0  0  0  0
   42.7913    5.5453   13.9117 H   0  0  0  0  0  0  0  0  0  0  0  0
   42.9167    3.8871   13.2904 H   0  0  0  0  0  0  0  0  0  0  0  0
   44.3006    4.9999   13.1529 H   0  0  0  0  0  0  0  0  0  0  0  0
   44.0886    5.1788   13.4818 H   0  0  0  0  0  0  0  0  0  0  0  0
   42.3538    5.0625   13.8402 H   0  0  0  0  0  0  0  0  0  0  0  0
   43.1640    3.7464   12.9667 H   0  0  0  0  0  0  0  0  0  0  0  0
   43.3308    4.7687   13.1649 H   0  0  0  0  0  0  0  0  0  0  0  0
   42.9002    5.1676   11.7553 H   0  0  0  0  0  0  0  0  0  0  0  0
   42.9007    5.1671   11.7551 H   0  0  0  0  0  0  0  0  0  0  0  0
   43.3305    4.7691   13.1653 H   0  0  0  0  0  0  0  0  0  0  0  0
   43.3310    4.7684   13.1646 H   0  0  0  0  0  0  0  0  0  0  0  0
   42.9000    5.1679   11.7554 H   0  0  0  0  0  0  0  0  0  0  0  0
  5  2  1  0
  3  2  1  0
  4  2  2  0
  7  6  1  0
  8  6  2  0
  9  6  1  0
  1 14  1  0
  1 15  1  0
  5 16  1  0
  5 17  1  0
  5 18  1  0
  9 19  1  0
  9 20  1  0
  9 21  1  0
 11 22  1  0
 11 23  1  0
 12 24  1  0
 12 25  1  0
 13 26  1  0
 13 27  1  0
M  CHG  3   3  -1   7  -1  10   2
M  END
> <Uni-Dock RESULT> 
ENERGY=   -5.072  LOWER_BOUND=    6.912  UPPER_BOUND=    7.934
INTER + INTRA:          -5.072
INTER:                  -5.072
INTRA:                   0.000
UNBOUND:                 0.000

$$$$

     RDKit          3D

 27 20  0  0  0  0  0  0  0  0999 V2000
   42.6170    5.4298   12.2979 O   0  0  0  0  0  0  0  0  0  0  0  0
   43.0840    4.6160   12.2151 C   0  0  0  0  0  0  0  0  0  0  0  0
   42.9671    4.4092   13.4548 O   0  0  0  0  0  0  0  0  0  0  0  0
   43.6462    3.9168   11.3261 O   0  0  0  0  0  0  0  0  0  0  0  0
   42.4535    5.9020   11.7097 C   0  0  0  0  0  0  0  0  0  0  0  0
   42.9217    4.5576   12.2178 C   0  0  0  0  0  0  0  0  0  0  0  0
   43.1766    4.4852   13.4520 O   0  0  0  0  0  0  0  0  0  0  0  0
   42.9111    3.6518   11.3378 O   0  0  0  0  0  0  0  0  0  0  0  0
   42.5740    5.9453   11.7076 C   0  0  0  0  0  0  0  0  0  0  0  0
   42.7203    5.3589   11.9203 Mg  0  0  0  0  0 15  0  0  0  0  0  0
   42.6174    5.4290   12.2981 O   0  0  0  0  0  0  0  0  0  0  0  0
   42.6175    5.4288   12.2982 O   0  0  0  0  0  0  0  0  0  0  0  0
   42.6173    5.4292   12.2981 O   0  0  0  0  0  0  0  0  0  0  0  0
   43.0913    4.6629   11.9430 H   0  0  0  0  0  0  0  0  0  0  0  0
   42.4527    5.9839   11.5201 H   0  0  0  0  0  0  0  0  0  0  0  0
   41.9839    6.4626   12.5236 H   0  0  0  0  0  0  0  0  0  0  0  0
   43.2191    6.5347   11.2507 H   0  0  0  0  0  0  0  0  0  0  0  0
   41.6884    5.6708   10.9625 H   0  0  0  0  0  0  0  0  0  0  0  0
   41.5686    5.9401   11.2760 H   0  0  0  0  0  0  0  0  0  0  0  0
   42.6005    6.6848   12.5138 H   0  0  0  0  0  0  0  0  0  0  0  0
   43.2900    6.2472   10.9375 H   0  0  0  0  0  0  0  0  0  0  0  0
   42.4521    5.9845   11.5216 H   0  0  0  0  0  0  0  0  0  0  0  0
   43.0915    4.6630   11.9413 H   0  0  0  0  0  0  0  0  0  0  0  0
   43.0917    4.6630   11.9407 H   0  0  0  0  0  0  0  0  0  0  0  0
   42.4518    5.9848   11.5222 H   0  0  0  0  0  0  0  0  0  0  0  0
   42.4522    5.9844   11.5212 H   0  0  0  0  0  0  0  0  0  0  0  0
   43.0915    4.6630   11.9418 H   0  0  0  0  0  0  0  0  0  0  0  0
  5  2  1  0
  3  2  1  0
  4  2  2  0
  7  6  1  0
  8  6  2  0
  9  6  1  0
  1 14  1  0
  1 15  1  0
  5 16  1  0
  5 17  1  0
  5 18  1  0
  9 19  1  0
  9 20  1  0
  9 21  1  0
 11 22  1  0
 11 23  1  0
 12 24  1  0
 12 25  1  0
 13 26  1  0
 13 27  1  0
M  CHG  3   3  -1   7  -1  10   2
M  END
> <Uni-Dock RESULT> 
ENERGY=   -4.726  LOWER_BOUND=    6.588  UPPER_BOUND=    7.654
INTER + INTRA:          -4.726
INTER:                  -4.726
INTRA:                   0.000
UNBOUND:                 0.000

$$$$

     RDKit          3D

 27 20  0  0  0  0  0  0  0  0999 V2000
   42.7056    5.0554   11.5597 O   0  0  0  0  0  0  0  0  0  0  0  0
   42.9895    4.4276   12.2019 C   0  0  0  0  0  0  0  0  0  0  0  0
   43.0567    3.5325   11.3144 O   0  0  0  0  0  0  0  0  0  0  0  0
   43.2311    4.3615   13.4398 O   0  0  0  0  0  0  0  0  0  0  0  0
   42.5510    5.7964   11.7109 C   0  0  0  0  0  0  0  0  0  0  0  0
   43.1413    4.4700   12.1319 C   0  0  0  0  0  0  0  0  0  0  0  0
   42.8603    3.4777   11.4040 O   0  0  0  0  0  0  0  0  0  0  0  0
   43.9193    4.5537   13.1233 O   0  0  0  0  0  0  0  0  0  0  0  0
   42.4384    5.7649   11.7629 C   0  0  0  0  0  0  0  0  0  0  0  0
   42.7362    5.2199   11.9206 Mg  0  0  0  0  0 15  0  0  0  0  0  0
   42.7059    5.0547   11.5600 O   0  0  0  0  0  0  0  0  0  0  0  0
   42.7059    5.0544   11.5601 O   0  0  0  0  0  0  0  0  0  0  0  0
   42.7058    5.0548   11.5599 O   0  0  0  0  0  0  0  0  0  0  0  0
   42.9861    4.6336   12.3858 H   0  0  0  0  0  0  0  0  0  0  0  0
   42.5170    5.9706   11.8163 H   0  0  0  0  0  0  0  0  0  0  0  0
   42.3569    5.7904   10.6340 H   0  0  0  0  0  0  0  0  0  0  0  0
   41.6343    6.0987   12.2259 H   0  0  0  0  0  0  0  0  0  0  0  0
   43.3340    6.5323   11.9171 H   0  0  0  0  0  0  0  0  0  0  0  0
   43.1792    6.5311   11.5156 H   0  0  0  0  0  0  0  0  0  0  0  0
   41.7798    5.6291   10.8996 H   0  0  0  0  0  0  0  0  0  0  0  0
   41.8353    6.1127   12.6068 H   0  0  0  0  0  0  0  0  0  0  0  0
   42.5168    5.9703   11.8147 H   0  0  0  0  0  0  0  0  0  0  0  0
   42.9860    4.6347   12.3871 H   0  0  0  0  0  0  0  0  0  0  0  0
   42.9861    4.6351   12.3877 H   0  0  0  0  0  0  0  0  0  0  0  0
   42.5167    5.9701   11.8140 H   0  0  0  0  0  0  0  0  0  0  0  0
   42.5168    5.9703   11.8151 H   0  0  0  0  0  0  0  0  0  0  0  0
   42.9860    4.6345   12.3867 H   0  0  0  0  0  0  0  0  0  0  0  0
  5  2  1  0
  3  2  1  0
  4  2  2  0
  7  6  1  0
  8  6  2  0
  9  6  1  0
  1 14  1  0
  1 15  1  0
  5 16  1  0
  5 17  1  0
  5 18  1  0
  9 19  1  0
  9 20  1  0
  9 21  1  0
 11 22  1  0
 11 23  1  0
 12 24  1  0
 12 25  1  0
 13 26  1  0
 13 27  1  0
M  CHG  3   3  -1   7  -1  10   2
M  END
> <Uni-Dock RESULT> 
ENERGY=   -4.606  LOWER_BOUND=    6.630  UPPER_BOUND=    7.292
INTER + INTRA:          -4.606
INTER:                  -4.606
INTRA:                   0.000
UNBOUND:                 0.000

$$$$
