
     RDKit          3D

 27 20  0  0  0  0  0  0  0  0999 V2000
   47.4468    1.0672    7.0076 O   0  0  0  0  0  0  0  0  0  0  0  0
   46.8419    1.0312    7.7413 C   0  0  0  0  0  0  0  0  0  0  0  0
   46.8840   -0.2308    7.7116 O   0  0  0  0  0  0  0  0  0  0  0  0
   46.2022    1.8025    8.5087 O   0  0  0  0  0  0  0  0  0  0  0  0
   47.6937    1.7217    6.6904 C   0  0  0  0  0  0  0  0  0  0  0  0
   46.7280    0.9600    7.5609 C   0  0  0  0  0  0  0  0  0  0  0  0
   45.8465    1.6349    8.1615 O   0  0  0  0  0  0  0  0  0  0  0  0
   46.8743   -0.2918    7.4788 O   0  0  0  0  0  0  0  0  0  0  0  0
   47.7762    1.7734    6.8218 C   0  0  0  0  0  0  0  0  0  0  0  0
   47.3352    1.4280    7.1328 Mg  0  0  0  0  0 15  0  0  0  0  0  0
   47.4480    1.0680    7.0064 O   0  0  0  0  0  0  0  0  0  0  0  0
   47.4489    1.0687    7.0054 O   0  0  0  0  0  0  0  0  0  0  0  0
   47.4475    1.0677    7.0069 O   0  0  0  0  0  0  0  0  0  0  0  0
   46.8068    1.2865    7.7014 H   0  0  0  0  0  0  0  0  0  0  0  0
   47.7520    1.9301    6.6894 H   0  0  0  0  0  0  0  0  0  0  0  0
   47.6161    2.8106    6.7666 H   0  0  0  0  0  0  0  0  0  0  0  0
   47.3656    1.4207    5.6910 H   0  0  0  0  0  0  0  0  0  0  0  0
   48.7429    1.4399    6.8201 H   0  0  0  0  0  0  0  0  0  0  0  0
   47.5966    2.8475    6.9297 H   0  0  0  0  0  0  0  0  0  0  0  0
   48.7697    1.5472    7.2204 H   0  0  0  0  0  0  0  0  0  0  0  0
   47.7553    1.5246    5.7566 H   0  0  0  0  0  0  0  0  0  0  0  0
   46.8073    1.2828    7.7008 H   0  0  0  0  0  0  0  0  0  0  0  0
   47.7503    1.9331    6.6912 H   0  0  0  0  0  0  0  0  0  0  0  0
   46.8076    1.2798    7.7004 H   0  0  0  0  0  0  0  0  0  0  0  0
   47.7490    1.9353    6.6926 H   0  0  0  0  0  0  0  0  0  0  0  0
   46.8071    1.2844    7.7011 H   0  0  0  0  0  0  0  0  0  0  0  0
   47.7510    1.9318    6.6904 H   0  0  0  0  0  0  0  0  0  0  0  0
  5  2  1  0
  3  2  1  0
  4  2  2  0
  7  6  1  0
  8  6  2  0
  9  6  1  0
  1 14  1  0
  1 15  1  0
  5 16  1  0
  5 17  1  0
  5 18  1  0
  9 19  1  0
  9 20  1  0
  9 21  1  0
 11 22  1  0
 11 23  1  0
 12 24  1  0
 12 25  1  0
 13 26  1  0
 13 27  1  0
M  CHG  3   3  -1   7  -1  10   2
M  END
> <Uni-Dock RESULT> 
ENERGY=   -7.025  LOWER_BOUND=    0.000  UPPER_BOUND=    0.000
INTER + INTRA:          -7.025
INTER:                  -7.025
INTRA:                   0.000
UNBOUND:                 0.000

$$$$

     RDKit          3D

 27 20  0  0  0  0  0  0  0  0999 V2000
   47.5794    1.3697    6.7175 O   0  0  0  0  0  0  0  0  0  0  0  0
   47.5404    2.2925    6.4889 C   0  0  0  0  0  0  0  0  0  0  0  0
   48.2623    2.0703    5.4766 O   0  0  0  0  0  0  0  0  0  0  0  0
   47.0359    3.3730    6.9026 O   0  0  0  0  0  0  0  0  0  0  0  0
   47.2354    1.0685    7.3346 C   0  0  0  0  0  0  0  0  0  0  0  0
   47.7506    2.2526    6.5582 C   0  0  0  0  0  0  0  0  0  0  0  0
   47.5384    3.3949    7.0517 O   0  0  0  0  0  0  0  0  0  0  0  0
   48.4350    1.9196    5.5503 O   0  0  0  0  0  0  0  0  0  0  0  0
   47.0826    1.0979    7.2842 C   0  0  0  0  0  0  0  0  0  0  0  0
   47.3655    1.5833    6.9761 Mg  0  0  0  0  0 15  0  0  0  0  0  0
   47.5789    1.3681    6.7184 O   0  0  0  0  0  0  0  0  0  0  0  0
   47.5786    1.3669    6.7192 O   0  0  0  0  0  0  0  0  0  0  0  0
   47.5791    1.3688    6.7180 O   0  0  0  0  0  0  0  0  0  0  0  0
   47.4359    2.3280    6.7252 H   0  0  0  0  0  0  0  0  0  0  0  0
   47.0812    1.0522    7.4856 H   0  0  0  0  0  0  0  0  0  0  0  0
   46.6082    1.3239    8.1942 H   0  0  0  0  0  0  0  0  0  0  0  0
   48.1678    0.6318    7.7045 H   0  0  0  0  0  0  0  0  0  0  0  0
   46.7085    0.3232    6.7314 H   0  0  0  0  0  0  0  0  0  0  0  0
   46.5060    1.4485    8.1456 H   0  0  0  0  0  0  0  0  0  0  0  0
   46.4042    0.5751    6.6034 H   0  0  0  0  0  0  0  0  0  0  0  0
   47.8417    0.3945    7.6392 H   0  0  0  0  0  0  0  0  0  0  0  0
   47.4381    2.3268    6.7223 H   0  0  0  0  0  0  0  0  0  0  0  0
   47.0794    1.0551    7.4875 H   0  0  0  0  0  0  0  0  0  0  0  0
   47.4399    2.3259    6.7200 H   0  0  0  0  0  0  0  0  0  0  0  0
   47.0781    1.0573    7.4890 H   0  0  0  0  0  0  0  0  0  0  0  0
   47.4372    2.3273    6.7235 H   0  0  0  0  0  0  0  0  0  0  0  0
   47.0802    1.0539    7.4867 H   0  0  0  0  0  0  0  0  0  0  0  0
  5  2  1  0
  3  2  1  0
  4  2  2  0
  7  6  1  0
  8  6  2  0
  9  6  1  0
  1 14  1  0
  1 15  1  0
  5 16  1  0
  5 17  1  0
  5 18  1  0
  9 19  1  0
  9 20  1  0
  9 21  1  0
 11 22  1  0
 11 23  1  0
 12 24  1  0
 12 25  1  0
 13 26  1  0
 13 27  1  0
M  CHG  3   3  -1   7  -1  10   2
M  END
> <Uni-Dock RESULT> 
ENERGY=   -6.944  LOWER_BOUND=    1.264  UPPER_BOUND=    1.892
INTER + INTRA:          -6.944
INTER:                  -6.944
INTRA:                   0.000
UNBOUND:                 0.000

$$$$

     RDKit          3D

 27 20  0  0  0  0  0  0  0  0999 V2000
   47.1542    3.1650    6.1905 O   0  0  0  0  0  0  0  0  0  0  0  0
   47.7427    2.4240    6.2901 C   0  0  0  0  0  0  0  0  0  0  0  0
   48.1356    2.5785    5.0997 O   0  0  0  0  0  0  0  0  0  0  0  0
   48.0921    1.5732    7.1545 O   0  0  0  0  0  0  0  0  0  0  0  0
   46.6880    3.4169    6.7465 C   0  0  0  0  0  0  0  0  0  0  0  0
   47.5787    2.3573    6.1513 C   0  0  0  0  0  0  0  0  0  0  0  0
   47.7629    1.3146    6.8384 O   0  0  0  0  0  0  0  0  0  0  0  0
   47.9378    2.6235    4.9700 O   0  0  0  0  0  0  0  0  0  0  0  0
   46.8073    3.4650    6.8474 C   0  0  0  0  0  0  0  0  0  0  0  0
   47.1330    2.9993    6.5515 Mg  0  0  0  0  0 15  0  0  0  0  0  0
   47.1529    3.1664    6.1910 O   0  0  0  0  0  0  0  0  0  0  0  0
   47.1520    3.1675    6.1915 O   0  0  0  0  0  0  0  0  0  0  0  0
   47.1534    3.1658    6.1908 O   0  0  0  0  0  0  0  0  0  0  0  0
   47.6159    2.3766    6.5130 H   0  0  0  0  0  0  0  0  0  0  0  0
   46.6288    3.4562    6.9509 H   0  0  0  0  0  0  0  0  0  0  0  0
   46.3887    3.2327    7.7828 H   0  0  0  0  0  0  0  0  0  0  0  0
   45.8014    3.3344    6.1107 H   0  0  0  0  0  0  0  0  0  0  0  0
   47.0824    4.4350    6.6762 H   0  0  0  0  0  0  0  0  0  0  0  0
   46.5247    3.1760    7.8643 H   0  0  0  0  0  0  0  0  0  0  0  0
   47.4237    4.3673    6.9029 H   0  0  0  0  0  0  0  0  0  0  0  0
   45.8958    3.6911    6.2861 H   0  0  0  0  0  0  0  0  0  0  0  0
   47.6167    2.3775    6.5094 H   0  0  0  0  0  0  0  0  0  0  0  0
   46.6293    3.4539    6.9540 H   0  0  0  0  0  0  0  0  0  0  0  0
   47.6174    2.3781    6.5065 H   0  0  0  0  0  0  0  0  0  0  0  0
   46.6296    3.4521    6.9564 H   0  0  0  0  0  0  0  0  0  0  0  0
   47.6164    2.3771    6.5110 H   0  0  0  0  0  0  0  0  0  0  0  0
   46.6291    3.4549    6.9527 H   0  0  0  0  0  0  0  0  0  0  0  0
  5  2  1  0
  3  2  1  0
  4  2  2  0
  7  6  1  0
  8  6  2  0
  9  6  1  0
  1 14  1  0
  1 15  1  0
  5 16  1  0
  5 17  1  0
  5 18  1  0
  9 19  1  0
  9 20  1  0
  9 21  1  0
 11 22  1  0
 11 23  1  0
 12 24  1  0
 12 25  1  0
 13 26  1  0
 13 27  1  0
M  CHG  3   3  -1   7  -1  10   2
M  END
> <Uni-Dock RESULT> 
ENERGY=   -6.600  LOWER_BOUND=    1.893  UPPER_BOUND=    2.540
INTER + INTRA:          -6.600
INTER:                  -6.600
INTRA:                   0.000
UNBOUND:                 0.000

$$$$

     RDKit          3D

 27 20  0  0  0  0  0  0  0  0999 V2000
   47.3039    1.8988    7.1800 O   0  0  0  0  0  0  0  0  0  0  0  0
   47.8099    2.3148    6.4898 C   0  0  0  0  0  0  0  0  0  0  0  0
   47.6389    3.4370    7.0435 O   0  0  0  0  0  0  0  0  0  0  0  0
   48.4368    2.0190    5.4350 O   0  0  0  0  0  0  0  0  0  0  0  0
   47.1595    1.1449    7.2075 C   0  0  0  0  0  0  0  0  0  0  0  0
   47.5962    2.3779    6.4593 C   0  0  0  0  0  0  0  0  0  0  0  0
   47.9804    2.2163    5.2679 O   0  0  0  0  0  0  0  0  0  0  0  0
   47.4085    3.4420    7.1132 O   0  0  0  0  0  0  0  0  0  0  0  0
   47.3149    1.0993    7.2293 C   0  0  0  0  0  0  0  0  0  0  0  0
   47.4329    1.6402    6.9067 Mg  0  0  0  0  0 15  0  0  0  0  0  0
   47.3031    1.8974    7.1810 O   0  0  0  0  0  0  0  0  0  0  0  0
   47.3026    1.8962    7.1818 O   0  0  0  0  0  0  0  0  0  0  0  0
   47.3034    1.8980    7.1806 O   0  0  0  0  0  0  0  0  0  0  0  0
   47.7931    2.0865    6.3649 H   0  0  0  0  0  0  0  0  0  0  0  0
   47.2018    0.9352    7.1751 H   0  0  0  0  0  0  0  0  0  0  0  0
   47.3422    0.2029    6.6815 H   0  0  0  0  0  0  0  0  0  0  0  0
   46.0786    1.3025    7.2690 H   0  0  0  0  0  0  0  0  0  0  0  0
   47.5646    1.0598    8.2202 H   0  0  0  0  0  0  0  0  0  0  0  0
   47.4951    0.2140    6.6117 H   0  0  0  0  0  0  0  0  0  0  0  0
   47.9642    1.0457    8.1083 H   0  0  0  0  0  0  0  0  0  0  0  0
   46.2712    1.0859    7.5570 H   0  0  0  0  0  0  0  0  0  0  0  0
   47.7922    2.0896    6.3669 H   0  0  0  0  0  0  0  0  0  0  0  0
   47.2034    0.9335    7.1721 H   0  0  0  0  0  0  0  0  0  0  0  0
   47.7916    2.0921    6.3685 H   0  0  0  0  0  0  0  0  0  0  0  0
   47.2046    0.9322    7.1697 H   0  0  0  0  0  0  0  0  0  0  0  0
   47.7926    2.0883    6.3660 H   0  0  0  0  0  0  0  0  0  0  0  0
   47.2027    0.9343    7.1734 H   0  0  0  0  0  0  0  0  0  0  0  0
  5  2  1  0
  3  2  1  0
  4  2  2  0
  7  6  1  0
  8  6  2  0
  9  6  1  0
  1 14  1  0
  1 15  1  0
  5 16  1  0
  5 17  1  0
  5 18  1  0
  9 19  1  0
  9 20  1  0
  9 21  1  0
 11 22  1  0
 11 23  1  0
 12 24  1  0
 12 25  1  0
 13 26  1  0
 13 27  1  0
M  CHG  3   3  -1   7  -1  10   2
M  END
> <Uni-Dock RESULT> 
ENERGY=   -6.498  LOWER_BOUND=    1.388  UPPER_BOUND=    2.312
INTER + INTRA:          -6.498
INTER:                  -6.498
INTRA:                   0.000
UNBOUND:                 0.000

$$$$

     RDKit          3D

 27 20  0  0  0  0  0  0  0  0999 V2000
   46.4437    4.0944    7.5432 O   0  0  0  0  0  0  0  0  0  0  0  0
   45.5792    4.0527    7.9386 C   0  0  0  0  0  0  0  0  0  0  0  0
   45.8370    5.0926    8.6075 O   0  0  0  0  0  0  0  0  0  0  0  0
   44.5335    3.3464    7.9102 O   0  0  0  0  0  0  0  0  0  0  0  0
   46.7030    3.5846    7.0305 C   0  0  0  0  0  0  0  0  0  0  0  0
   45.7261    3.9993    8.1003 C   0  0  0  0  0  0  0  0  0  0  0  0
   44.7803    3.2014    8.3498 O   0  0  0  0  0  0  0  0  0  0  0  0
   46.0628    5.0659    8.6869 O   0  0  0  0  0  0  0  0  0  0  0  0
   46.5959    3.6234    6.9133 C   0  0  0  0  0  0  0  0  0  0  0  0
   46.2304    3.7842    7.4144 Mg  0  0  0  0  0 15  0  0  0  0  0  0
   46.4451    4.0940    7.5420 O   0  0  0  0  0  0  0  0  0  0  0  0
   46.4462    4.0936    7.5410 O   0  0  0  0  0  0  0  0  0  0  0  0
   46.4445    4.0942    7.5425 O   0  0  0  0  0  0  0  0  0  0  0  0
   45.5620    3.8152    7.8324 H   0  0  0  0  0  0  0  0  0  0  0  0
   46.6857    3.4431    6.8677 H   0  0  0  0  0  0  0  0  0  0  0  0
   46.4206    2.6827    6.4790 H   0  0  0  0  0  0  0  0  0  0  0  0
   47.5926    3.3610    7.6269 H   0  0  0  0  0  0  0  0  0  0  0  0
   46.9471    4.3694    6.3083 H   0  0  0  0  0  0  0  0  0  0  0  0
   46.2554    2.6933    6.4481 H   0  0  0  0  0  0  0  0  0  0  0  0
   46.5615    4.4185    6.1623 H   0  0  0  0  0  0  0  0  0  0  0  0
   47.6310    3.4879    7.2404 H   0  0  0  0  0  0  0  0  0  0  0  0
   45.5633    3.8183    7.8342 H   0  0  0  0  0  0  0  0  0  0  0  0
   46.6830    3.4405    6.8672 H   0  0  0  0  0  0  0  0  0  0  0  0
   45.5643    3.8207    7.8356 H   0  0  0  0  0  0  0  0  0  0  0  0
   46.6808    3.4384    6.8667 H   0  0  0  0  0  0  0  0  0  0  0  0
   45.5627    3.8169    7.8334 H   0  0  0  0  0  0  0  0  0  0  0  0
   46.6841    3.4416    6.8674 H   0  0  0  0  0  0  0  0  0  0  0  0
  5  2  1  0
  3  2  1  0
  4  2  2  0
  7  6  1  0
  8  6  2  0
  9  6  1  0
  1 14  1  0
  1 15  1  0
  5 16  1  0
  5 17  1  0
  5 18  1  0
  9 19  1  0
  9 20  1  0
  9 21  1  0
 11 22  1  0
 11 23  1  0
 12 24  1  0
 12 25  1  0
 13 26  1  0
 13 27  1  0
M  CHG  3   3  -1   7  -1  10   2
M  END
> <Uni-Dock RESULT> 
ENERGY=   -5.731  LOWER_BOUND=    2.954  UPPER_BOUND=    3.392
INTER + INTRA:          -5.731
INTER:                  -5.731
INTRA:                   0.000
UNBOUND:                 0.000

$$$$

     RDKit          3D

 27 20  0  0  0  0  0  0  0  0999 V2000
   47.0279    3.3112    6.0828 O   0  0  0  0  0  0  0  0  0  0  0  0
   46.7650    2.9724    6.9322 C   0  0  0  0  0  0  0  0  0  0  0  0
   46.5715    4.1518    7.3406 O   0  0  0  0  0  0  0  0  0  0  0  0
   46.6185    1.8725    7.5339 O   0  0  0  0  0  0  0  0  0  0  0  0
   47.2480    2.8669    5.4962 C   0  0  0  0  0  0  0  0  0  0  0  0
   46.9647    3.0716    6.9619 C   0  0  0  0  0  0  0  0  0  0  0  0
   47.0747    2.0616    7.7110 O   0  0  0  0  0  0  0  0  0  0  0  0
   46.7568    4.2816    7.2582 O   0  0  0  0  0  0  0  0  0  0  0  0
   47.1029    2.7947    5.4750 C   0  0  0  0  0  0  0  0  0  0  0  0
   47.0442    2.9142    6.1018 Mg  0  0  0  0  0 15  0  0  0  0  0  0
   47.0284    3.3111    6.0809 O   0  0  0  0  0  0  0  0  0  0  0  0
   47.0288    3.3110    6.0795 O   0  0  0  0  0  0  0  0  0  0  0  0
   47.0282    3.3111    6.0817 O   0  0  0  0  0  0  0  0  0  0  0  0
   46.8564    2.7429    6.8487 H   0  0  0  0  0  0  0  0  0  0  0  0
   47.2483    2.6884    5.3739 H   0  0  0  0  0  0  0  0  0  0  0  0
   47.3971    1.8237    5.2012 H   0  0  0  0  0  0  0  0  0  0  0  0
   48.1986    3.3970    5.3850 H   0  0  0  0  0  0  0  0  0  0  0  0
   46.5105    3.3145    4.8233 H   0  0  0  0  0  0  0  0  0  0  0  0
   47.2811    1.7324    5.2821 H   0  0  0  0  0  0  0  0  0  0  0  0
   46.1864    3.0914    4.9562 H   0  0  0  0  0  0  0  0  0  0  0  0
   47.9426    3.3658    5.0681 H   0  0  0  0  0  0  0  0  0  0  0  0
   46.8560    2.7466    6.8494 H   0  0  0  0  0  0  0  0  0  0  0  0
   47.2481    2.6847    5.3750 H   0  0  0  0  0  0  0  0  0  0  0  0
   46.8557    2.7495    6.8500 H   0  0  0  0  0  0  0  0  0  0  0  0
   47.2481    2.6819    5.3759 H   0  0  0  0  0  0  0  0  0  0  0  0
   46.8562    2.7450    6.8491 H   0  0  0  0  0  0  0  0  0  0  0  0
   47.2482    2.6863    5.3745 H   0  0  0  0  0  0  0  0  0  0  0  0
  5  2  1  0
  3  2  1  0
  4  2  2  0
  7  6  1  0
  8  6  2  0
  9  6  1  0
  1 14  1  0
  1 15  1  0
  5 16  1  0
  5 17  1  0
  5 18  1  0
  9 19  1  0
  9 20  1  0
  9 21  1  0
 11 22  1  0
 11 23  1  0
 12 24  1  0
 12 25  1  0
 13 26  1  0
 13 27  1  0
M  CHG  3   3  -1   7  -1  10   2
M  END
> <Uni-Dock RESULT> 
ENERGY=   -5.713  LOWER_BOUND=    2.073  UPPER_BOUND=    2.581
INTER + INTRA:          -5.713
INTER:                  -5.713
INTRA:                   0.000
UNBOUND:                 0.000

$$$$

     RDKit          3D

 27 20  0  0  0  0  0  0  0  0999 V2000
   44.5969    2.9126    8.9626 O   0  0  0  0  0  0  0  0  0  0  0  0
   45.0318    3.5515    8.4076 C   0  0  0  0  0  0  0  0  0  0  0  0
   44.1800    4.4212    8.7443 O   0  0  0  0  0  0  0  0  0  0  0  0
   46.0215    3.6456    7.6299 O   0  0  0  0  0  0  0  0  0  0  0  0
   44.8299    2.1847    9.0381 C   0  0  0  0  0  0  0  0  0  0  0  0
   44.8363    3.5027    8.3078 C   0  0  0  0  0  0  0  0  0  0  0  0
   45.6064    3.5998    7.3124 O   0  0  0  0  0  0  0  0  0  0  0  0
   43.9667    4.3094    8.7416 O   0  0  0  0  0  0  0  0  0  0  0  0
   44.9721    2.2205    9.1104 C   0  0  0  0  0  0  0  0  0  0  0  0
   44.9129    2.7623    8.7735 Mg  0  0  0  0  0 15  0  0  0  0  0  0
   44.5966    2.9110    8.9635 O   0  0  0  0  0  0  0  0  0  0  0  0
   44.5965    2.9097    8.9643 O   0  0  0  0  0  0  0  0  0  0  0  0
   44.5967    2.9117    8.9632 O   0  0  0  0  0  0  0  0  0  0  0  0
   45.1667    3.3498    8.3121 H   0  0  0  0  0  0  0  0  0  0  0  0
   44.9750    2.0243    9.0457 H   0  0  0  0  0  0  0  0  0  0  0  0
   45.5965    1.4766    8.7091 H   0  0  0  0  0  0  0  0  0  0  0  0
   43.8496    1.7882    8.7575 H   0  0  0  0  0  0  0  0  0  0  0  0
   44.8810    2.2681   10.1279 H   0  0  0  0  0  0  0  0  0  0  0  0
   45.7386    1.5642    8.6869 H   0  0  0  0  0  0  0  0  0  0  0  0
   45.2506    2.4568   10.1418 H   0  0  0  0  0  0  0  0  0  0  0  0
   44.0195    1.6826    9.1137 H   0  0  0  0  0  0  0  0  0  0  0  0
   45.1639    3.3520    8.3135 H   0  0  0  0  0  0  0  0  0  0  0  0
   44.9781    2.0238    9.0435 H   0  0  0  0  0  0  0  0  0  0  0  0
   45.1617    3.3538    8.3145 H   0  0  0  0  0  0  0  0  0  0  0  0
   44.9805    2.0234    9.0417 H   0  0  0  0  0  0  0  0  0  0  0  0
   45.1651    3.3510    8.3129 H   0  0  0  0  0  0  0  0  0  0  0  0
   44.9768    2.0241    9.0444 H   0  0  0  0  0  0  0  0  0  0  0  0
  5  2  1  0
  3  2  1  0
  4  2  2  0
  7  6  1  0
  8  6  2  0
  9  6  1  0
  1 14  1  0
  1 15  1  0
  5 16  1  0
  5 17  1  0
  5 18  1  0
  9 19  1  0
  9 20  1  0
  9 21  1  0
 11 22  1  0
 11 23  1  0
 12 24  1  0
 12 25  1  0
 13 26  1  0
 13 27  1  0
M  CHG  3   3  -1   7  -1  10   2
M  END
> <Uni-Dock RESULT> 
ENERGY=   -5.021  LOWER_BOUND=    3.125  UPPER_BOUND=    3.820
INTER + INTRA:          -5.021
INTER:                  -5.021
INTRA:                   0.000
UNBOUND:                 0.000

$$$$

     RDKit          3D

 27 20  0  0  0  0  0  0  0  0999 V2000
   44.8413    2.3181    9.7266 O   0  0  0  0  0  0  0  0  0  0  0  0
   44.8490    2.5213    8.7970 C   0  0  0  0  0  0  0  0  0  0  0  0
   45.5273    1.4789    8.5766 O   0  0  0  0  0  0  0  0  0  0  0  0
   44.4199    3.3938    7.9921 O   0  0  0  0  0  0  0  0  0  0  0  0
   44.4985    2.7565   10.2560 C   0  0  0  0  0  0  0  0  0  0  0  0
   45.0585    2.5551    8.8716 C   0  0  0  0  0  0  0  0  0  0  0  0
   44.9269    3.5112    8.0581 O   0  0  0  0  0  0  0  0  0  0  0  0
   45.6931    1.4698    8.7510 O   0  0  0  0  0  0  0  0  0  0  0  0
   44.3464    2.7320   10.2014 C   0  0  0  0  0  0  0  0  0  0  0  0
   44.6477    2.6549    9.6412 Mg  0  0  0  0  0 15  0  0  0  0  0  0
   44.8408    2.3183    9.7284 O   0  0  0  0  0  0  0  0  0  0  0  0
   44.8404    2.3184    9.7298 O   0  0  0  0  0  0  0  0  0  0  0  0
   44.8410    2.3182    9.7276 O   0  0  0  0  0  0  0  0  0  0  0  0
   44.7537    2.7541    8.8657 H   0  0  0  0  0  0  0  0  0  0  0  0
   44.3481    2.8926   10.3313 H   0  0  0  0  0  0  0  0  0  0  0  0
   43.9123    3.6717   10.3828 H   0  0  0  0  0  0  0  0  0  0  0  0
   45.4146    2.8478   10.8471 H   0  0  0  0  0  0  0  0  0  0  0  0
   43.9123    1.9147   10.6366 H   0  0  0  0  0  0  0  0  0  0  0  0
   43.8161    3.6882   10.2456 H   0  0  0  0  0  0  0  0  0  0  0  0
   43.6194    1.9266   10.3424 H   0  0  0  0  0  0  0  0  0  0  0  0
   45.0736    2.7017   11.0182 H   0  0  0  0  0  0  0  0  0  0  0  0
   44.7557    2.7509    8.8656 H   0  0  0  0  0  0  0  0  0  0  0  0
   44.3466    2.8956   10.3296 H   0  0  0  0  0  0  0  0  0  0  0  0
   44.7574    2.7484    8.8655 H   0  0  0  0  0  0  0  0  0  0  0  0
   44.3454    2.8980   10.3282 H   0  0  0  0  0  0  0  0  0  0  0  0
   44.7548    2.7523    8.8656 H   0  0  0  0  0  0  0  0  0  0  0  0
   44.3473    2.8943   10.3303 H   0  0  0  0  0  0  0  0  0  0  0  0
  5  2  1  0
  3  2  1  0
  4  2  2  0
  7  6  1  0
  8  6  2  0
  9  6  1  0
  1 14  1  0
  1 15  1  0
  5 16  1  0
  5 17  1  0
  5 18  1  0
  9 19  1  0
  9 20  1  0
  9 21  1  0
 11 22  1  0
 11 23  1  0
 12 24  1  0
 12 25  1  0
 13 26  1  0
 13 27  1  0
M  CHG  3   3  -1   7  -1  10   2
M  END
> <Uni-Dock RESULT> 
ENERGY=   -4.938  LOWER_BOUND=    2.643  UPPER_BOUND=    3.536
INTER + INTRA:          -4.938
INTER:                  -4.938
INTRA:                   0.000
UNBOUND:                 0.000

$$$$

     RDKit          3D

 27 20  0  0  0  0  0  0  0  0999 V2000
   45.1001    2.8469    8.3274 O   0  0  0  0  0  0  0  0  0  0  0  0
   45.2941    3.7575    8.1308 C   0  0  0  0  0  0  0  0  0  0  0  0
   45.6479    3.4282    6.9639 O   0  0  0  0  0  0  0  0  0  0  0  0
   45.2618    4.8951    8.6768 O   0  0  0  0  0  0  0  0  0  0  0  0
   44.8382    2.6041    9.0074 C   0  0  0  0  0  0  0  0  0  0  0  0
   45.4919    3.6512    8.1433 C   0  0  0  0  0  0  0  0  0  0  0  0
   45.7669    4.7540    8.6924 O   0  0  0  0  0  0  0  0  0  0  0  0
   45.7781    3.2271    6.9885 O   0  0  0  0  0  0  0  0  0  0  0  0
   44.6945    2.6817    8.9983 C   0  0  0  0  0  0  0  0  0  0  0  0
   45.0309    3.0889    8.6355 Mg  0  0  0  0  0 15  0  0  0  0  0  0
   45.0994    2.8455    8.3284 O   0  0  0  0  0  0  0  0  0  0  0  0
   45.0989    2.8443    8.3292 O   0  0  0  0  0  0  0  0  0  0  0  0
   45.0997    2.8461    8.3280 O   0  0  0  0  0  0  0  0  0  0  0  0
   45.2654    3.7999    8.3865 H   0  0  0  0  0  0  0  0  0  0  0  0
   44.7273    2.6199    9.1926 H   0  0  0  0  0  0  0  0  0  0  0  0
   44.5452    2.9514   10.0029 H   0  0  0  0  0  0  0  0  0  0  0  0
   45.6505    1.8798    9.1190 H   0  0  0  0  0  0  0  0  0  0  0  0
   43.9788    2.1066    8.5479 H   0  0  0  0  0  0  0  0  0  0  0  0
   44.4779    3.1045    9.9841 H   0  0  0  0  0  0  0  0  0  0  0  0
   43.7457    2.4477    8.5062 H   0  0  0  0  0  0  0  0  0  0  0  0
   45.2614    1.7562    9.1359 H   0  0  0  0  0  0  0  0  0  0  0  0
   45.2663    3.7984    8.3832 H   0  0  0  0  0  0  0  0  0  0  0  0
   44.7270    2.6229    9.1949 H   0  0  0  0  0  0  0  0  0  0  0  0
   45.2671    3.7972    8.3805 H   0  0  0  0  0  0  0  0  0  0  0  0
   44.7268    2.6253    9.1968 H   0  0  0  0  0  0  0  0  0  0  0  0
   45.2659    3.7990    8.3846 H   0  0  0  0  0  0  0  0  0  0  0  0
   44.7272    2.6216    9.1939 H   0  0  0  0  0  0  0  0  0  0  0  0
  5  2  1  0
  3  2  1  0
  4  2  2  0
  7  6  1  0
  8  6  2  0
  9  6  1  0
  1 14  1  0
  1 15  1  0
  5 16  1  0
  5 17  1  0
  5 18  1  0
  9 19  1  0
  9 20  1  0
  9 21  1  0
 11 22  1  0
 11 23  1  0
 12 24  1  0
 12 25  1  0
 13 26  1  0
 13 27  1  0
M  CHG  3   3  -1   7  -1  10   2
M  END
> <Uni-Dock RESULT> 
ENERGY=   -4.629  LOWER_BOUND=    2.894  UPPER_BOUND=    3.400
INTER + INTRA:          -4.629
INTER:                  -4.629
INTRA:                   0.000
UNBOUND:                 0.000

$$$$
