
     RDKit          3D

 61 60  0  0  0  0  0  0  0  0999 V2000
    0.3016   -0.9483   -0.0754 C   0  0  1  0  0  0  0  0  0  0  0  0
   -1.1103   -0.3835   -0.0717 C   0  0  0  0  0  0  0  0  0  0  0  0
    1.4089   -0.0831   -0.7764 C   0  0  1  0  0  0  0  0  0  0  0  0
    1.7915    1.2209   -0.1813 N   0  0  0  0  0  0  0  0  0  0  0  0
    0.6814   -1.3286    1.2503 O   0  0  0  0  0  0  0  0  0  0  0  0
   -1.3984    0.9345    0.3078 C   0  0  0  0  0  0  0  0  0  0  0  0
   -2.1851   -1.2267   -0.4059 C   0  0  0  0  0  0  0  0  0  0  0  0
    2.3101    1.1592    1.1768 C   0  0  0  0  0  0  0  0  0  0  0  0
    2.6626   -0.9373   -1.0268 C   0  0  0  0  0  0  0  0  0  0  0  0
   -2.7147    1.4020    0.3314 C   0  0  0  0  0  0  0  0  0  0  0  0
   -3.5005   -0.7587   -0.3859 C   0  0  0  0  0  0  0  0  0  0  0  0
   -3.7645    0.5575   -0.0179 C   0  0  0  0  0  0  0  0  0  0  0  0
   -0.1953   -0.2146    0.2960 S   0  0  0  0  0  0  0  0  0  0  0  0
   -0.1535   -1.6556    0.2534 O   0  0  0  0  0  0  0  0  0  0  0  0
   -0.7288    0.5346    1.4048 O   0  0  0  0  0  0  0  0  0  0  0  0
    1.3110    0.2819    0.0432 O   0  0  0  0  0  0  0  0  0  0  0  0
   -0.9369    0.3176   -1.0213 O   0  0  0  0  0  0  0  0  0  0  0  0
   -0.4797   -1.0796   -0.1014 C   0  0  1  0  0  0  0  0  0  0  0  0
    0.9375   -0.5323   -0.1507 C   0  0  0  0  0  0  0  0  0  0  0  0
   -1.6195   -0.0095   -0.2342 C   0  0  1  0  0  0  0  0  0  0  0  0
   -1.7939    0.8946    0.9232 N   0  0  0  0  0  0  0  0  0  0  0  0
   -0.6573   -2.0819   -1.1167 O   0  0  0  0  0  0  0  0  0  0  0  0
    1.7648   -0.7143   -1.2718 C   0  0  0  0  0  0  0  0  0  0  0  0
    1.4521    0.1816    0.9440 C   0  0  0  0  0  0  0  0  0  0  0  0
   -2.3435    0.2203    2.0913 C   0  0  0  0  0  0  0  0  0  0  0  0
   -1.4483    0.8469   -1.4998 C   0  0  0  0  0  0  0  0  0  0  0  0
    3.0620   -0.1963   -1.2989 C   0  0  0  0  0  0  0  0  0  0  0  0
    2.7489    0.7002    0.9174 C   0  0  0  0  0  0  0  0  0  0  0  0
    3.5526    0.5121   -0.2044 C   0  0  0  0  0  0  0  0  0  0  0  0
    0.2637   -1.8901   -0.6390 H   0  0  0  0  0  0  0  0  0  0  0  0
    1.0108    0.1698   -1.7693 H   0  0  0  0  0  0  0  0  0  0  0  0
    2.4995    1.6491   -0.7779 H   0  0  0  0  0  0  0  0  0  0  0  0
    0.0714   -0.8699    1.8569 H   0  0  0  0  0  0  0  0  0  0  0  0
   -0.6040    1.6195    0.5922 H   0  0  0  0  0  0  0  0  0  0  0  0
   -2.0035   -2.2639   -0.6849 H   0  0  0  0  0  0  0  0  0  0  0  0
    1.5290    0.9110    1.8983 H   0  0  0  0  0  0  0  0  0  0  0  0
    2.6799    2.1517    1.4570 H   0  0  0  0  0  0  0  0  0  0  0  0
    3.1452    0.4622    1.2839 H   0  0  0  0  0  0  0  0  0  0  0  0
    2.4193   -1.7935   -1.6675 H   0  0  0  0  0  0  0  0  0  0  0  0
    3.0879   -1.3286   -0.0969 H   0  0  0  0  0  0  0  0  0  0  0  0
    3.4382   -0.3588   -1.5428 H   0  0  0  0  0  0  0  0  0  0  0  0
   -2.9171    2.4293    0.6225 H   0  0  0  0  0  0  0  0  0  0  0  0
   -4.3168   -1.4219   -0.6575 H   0  0  0  0  0  0  0  0  0  0  0  0
   -4.7860    0.9263    0.0002 H   0  0  0  0  0  0  0  0  0  0  0  0
    1.8522   -0.5271   -0.0946 H   0  0  0  0  0  0  0  0  0  0  0  0
   -1.1485    1.2632   -0.8815 H   0  0  0  0  0  0  0  0  0  0  0  0
   -0.5866   -1.6212    0.8461 H   0  0  0  0  0  0  0  0  0  0  0  0
   -2.5633   -0.5543   -0.3795 H   0  0  0  0  0  0  0  0  0  0  0  0
   -2.4168    1.6590    0.6611 H   0  0  0  0  0  0  0  0  0  0  0  0
   -1.5115   -2.5124   -0.9427 H   0  0  0  0  0  0  0  0  0  0  0  0
    1.4001   -1.2640   -2.1378 H   0  0  0  0  0  0  0  0  0  0  0  0
    0.8372    0.3489    1.8260 H   0  0  0  0  0  0  0  0  0  0  0  0
   -3.3047   -0.2523    1.8698 H   0  0  0  0  0  0  0  0  0  0  0  0
   -1.6570   -0.5313    2.4883 H   0  0  0  0  0  0  0  0  0  0  0  0
   -2.5073    0.9554    2.8864 H   0  0  0  0  0  0  0  0  0  0  0  0
   -2.3282    1.4805   -1.6606 H   0  0  0  0  0  0  0  0  0  0  0  0
   -1.3363    0.2169   -2.3892 H   0  0  0  0  0  0  0  0  0  0  0  0
   -0.5750    1.5057   -1.4342 H   0  0  0  0  0  0  0  0  0  0  0  0
    3.6867   -0.3464   -2.1759 H   0  0  0  0  0  0  0  0  0  0  0  0
    3.1275    1.2550    1.7719 H   0  0  0  0  0  0  0  0  0  0  0  0
    4.5596    0.9188   -0.2277 H   0  0  0  0  0  0  0  0  0  0  0  0
  2  1  1  0
  3  1  1  0
  4  3  1  0
  1  5  1  0
  6  2  2  0
  7  2  1  0
  8  4  1  0
  3  9  1  0
 10  6  1  0
 11  7  2  0
 12 10  2  0
 12 11  1  0
 14 13  2  0
 15 13  2  0
 16 13  1  0
 17 13  1  0
 19 18  1  0
 20 18  1  0
 21 20  1  0
 18 22  1  0
 23 19  2  0
 24 19  1  0
 25 21  1  0
 20 26  1  0
 27 23  1  0
 28 24  2  0
 29 27  2  0
 29 28  1  0
  1 30  1  6
  3 31  1  6
  4 32  1  0
  5 33  1  0
  6 34  1  0
  7 35  1  0
  8 36  1  0
  8 37  1  0
  8 38  1  0
  9 39  1  0
  9 40  1  0
  9 41  1  0
 10 42  1  0
 11 43  1  0
 12 44  1  0
 16 45  1  0
 17 46  1  0
 18 47  1  1
 20 48  1  6
 21 49  1  0
 22 50  1  0
 23 51  1  0
 24 52  1  0
 25 53  1  0
 25 54  1  0
 25 55  1  0
 26 56  1  0
 26 57  1  0
 26 58  1  0
 27 59  1  0
 28 60  1  0
 29 61  1  0
M  END
$$$$
