
     RDKit          3D

 61 60  0  0  0  0  0  0  0  0999 V2000
   -0.1701   -0.0275   -0.9017 C   0  0  1  0  0  0  0  0  0  0  0  0
    1.0974    0.4558   -0.2247 C   0  0  0  0  0  0  0  0  0  0  0  0
   -1.2655   -0.5418    0.0860 C   0  0  1  0  0  0  0  0  0  0  0  0
   -2.5029   -0.8418   -0.6778 N   0  0  0  0  0  0  0  0  0  0  0  0
   -0.7194    1.0540   -1.6784 O   0  0  0  0  0  0  0  0  0  0  0  0
    1.0980    1.6159    0.5665 C   0  0  0  0  0  0  0  0  0  0  0  0
    2.2966   -0.2551   -0.3798 C   0  0  0  0  0  0  0  0  0  0  0  0
   -3.6954   -0.7874    0.1560 C   0  0  0  0  0  0  0  0  0  0  0  0
   -0.7973   -1.7894    0.8387 C   0  0  0  0  0  0  0  0  0  0  0  0
    2.2697    2.0541    1.1851 C   0  0  0  0  0  0  0  0  0  0  0  0
    3.4668    0.1837    0.2423 C   0  0  0  0  0  0  0  0  0  0  0  0
    3.4532    1.3375    1.0230 C   0  0  0  0  0  0  0  0  0  0  0  0
    0.0761    0.4096    0.2010 S   0  0  0  0  0  0  0  0  0  0  0  0
   -0.4156    1.5829   -0.4750 O   0  0  0  0  0  0  0  0  0  0  0  0
    0.7254    0.4374    1.4868 O   0  0  0  0  0  0  0  0  0  0  0  0
   -1.1585   -0.6118    0.2833 O   0  0  0  0  0  0  0  0  0  0  0  0
    1.0594   -0.3770   -0.7933 O   0  0  0  0  0  0  0  0  0  0  0  0
   -0.5063   -0.5903    0.3723 C   0  0  1  0  0  0  0  0  0  0  0  0
    0.9678   -0.2645    0.5222 C   0  0  0  0  0  0  0  0  0  0  0  0
   -1.1417   -0.0801   -0.9610 C   0  0  1  0  0  0  0  0  0  0  0  0
   -2.4982   -0.6386   -1.1970 N   0  0  0  0  0  0  0  0  0  0  0  0
   -0.6834   -2.0154    0.4597 O   0  0  0  0  0  0  0  0  0  0  0  0
    1.4022    0.5798    1.5547 C   0  0  0  0  0  0  0  0  0  0  0  0
    1.9222   -0.8026   -0.3560 C   0  0  0  0  0  0  0  0  0  0  0  0
   -3.5368   -0.0925   -0.3356 C   0  0  0  0  0  0  0  0  0  0  0  0
   -1.1025    1.4460   -1.0808 C   0  0  0  0  0  0  0  0  0  0  0  0
    2.7570    0.8823    1.7013 C   0  0  0  0  0  0  0  0  0  0  0  0
    3.2758   -0.4989   -0.2073 C   0  0  0  0  0  0  0  0  0  0  0  0
    3.6927    0.3434    0.8208 C   0  0  0  0  0  0  0  0  0  0  0  0
    0.0739   -0.8196   -1.6197 H   0  0  0  0  0  0  0  0  0  0  0  0
   -1.4813    0.2604    0.8034 H   0  0  0  0  0  0  0  0  0  0  0  0
   -2.5778   -0.1127   -1.3968 H   0  0  0  0  0  0  0  0  0  0  0  0
    0.0306    1.5929   -1.9822 H   0  0  0  0  0  0  0  0  0  0  0  0
    0.1810    2.1885    0.6995 H   0  0  0  0  0  0  0  0  0  0  0  0
    2.3268   -1.1604   -0.9836 H   0  0  0  0  0  0  0  0  0  0  0  0
   -3.6824   -1.5543    0.9351 H   0  0  0  0  0  0  0  0  0  0  0  0
   -4.5791   -0.9702   -0.4639 H   0  0  0  0  0  0  0  0  0  0  0  0
   -3.8155    0.1957    0.6221 H   0  0  0  0  0  0  0  0  0  0  0  0
    0.1014   -1.5811    1.4286 H   0  0  0  0  0  0  0  0  0  0  0  0
   -0.5640   -2.6076    0.1470 H   0  0  0  0  0  0  0  0  0  0  0  0
   -1.5597   -2.1478    1.5386 H   0  0  0  0  0  0  0  0  0  0  0  0
    2.2596    2.9552    1.7931 H   0  0  0  0  0  0  0  0  0  0  0  0
    4.3902   -0.3755    0.1181 H   0  0  0  0  0  0  0  0  0  0  0  0
    4.3651    1.6786    1.5065 H   0  0  0  0  0  0  0  0  0  0  0  0
   -1.7869   -0.3605   -0.4260 H   0  0  0  0  0  0  0  0  0  0  0  0
    1.5000   -1.0806   -0.2769 H   0  0  0  0  0  0  0  0  0  0  0  0
   -1.0558   -0.1671    1.2209 H   0  0  0  0  0  0  0  0  0  0  0  0
   -0.5437   -0.4798   -1.7898 H   0  0  0  0  0  0  0  0  0  0  0  0
   -2.4218   -1.6423   -0.9977 H   0  0  0  0  0  0  0  0  0  0  0  0
    0.0957   -2.3752    0.9168 H   0  0  0  0  0  0  0  0  0  0  0  0
    0.6884    1.0117    2.2530 H   0  0  0  0  0  0  0  0  0  0  0  0
    1.6145   -1.4653   -1.1628 H   0  0  0  0  0  0  0  0  0  0  0  0
   -3.3061   -0.2159    0.7258 H   0  0  0  0  0  0  0  0  0  0  0  0
   -3.7210    0.9652   -0.5443 H   0  0  0  0  0  0  0  0  0  0  0  0
   -4.4756   -0.6212   -0.5302 H   0  0  0  0  0  0  0  0  0  0  0  0
   -0.0704    1.8073   -1.1429 H   0  0  0  0  0  0  0  0  0  0  0  0
   -1.6140    1.7794   -1.9900 H   0  0  0  0  0  0  0  0  0  0  0  0
   -1.5743    1.9348   -0.2221 H   0  0  0  0  0  0  0  0  0  0  0  0
    3.0826    1.5398    2.5033 H   0  0  0  0  0  0  0  0  0  0  0  0
    4.0054   -0.9199   -0.8943 H   0  0  0  0  0  0  0  0  0  0  0  0
    4.7473    0.5803    0.9349 H   0  0  0  0  0  0  0  0  0  0  0  0
  2  1  1  0
  3  1  1  0
  4  3  1  0
  1  5  1  0
  6  2  2  0
  7  2  1  0
  8  4  1  0
  3  9  1  0
 10  6  1  0
 11  7  2  0
 12 10  2  0
 12 11  1  0
 14 13  2  0
 15 13  2  0
 16 13  1  0
 17 13  1  0
 19 18  1  0
 20 18  1  0
 21 20  1  0
 18 22  1  0
 23 19  2  0
 24 19  1  0
 25 21  1  0
 20 26  1  0
 27 23  1  0
 28 24  2  0
 29 27  2  0
 29 28  1  0
  1 30  1  6
  3 31  1  1
  4 32  1  0
  5 33  1  0
  6 34  1  0
  7 35  1  0
  8 36  1  0
  8 37  1  0
  8 38  1  0
  9 39  1  0
  9 40  1  0
  9 41  1  0
 10 42  1  0
 11 43  1  0
 12 44  1  0
 16 45  1  0
 17 46  1  0
 18 47  1  1
 20 48  1  6
 21 49  1  0
 22 50  1  0
 23 51  1  0
 24 52  1  0
 25 53  1  0
 25 54  1  0
 25 55  1  0
 26 56  1  0
 26 57  1  0
 26 58  1  0
 27 59  1  0
 28 60  1  0
 29 61  1  0
M  END
$$$$
