
     RDKit          3D

 61 60  0  0  0  0  0  0  0  0999 V2000
    0.3326   -1.0480   -0.7511 C   0  0  1  0  0  0  0  0  0  0  0  0
   -1.0328   -0.4015   -0.5894 C   0  0  0  0  0  0  0  0  0  0  0  0
    1.4685   -0.4773    0.1712 C   0  0  1  0  0  0  0  0  0  0  0  0
    1.9610    0.8370   -0.2994 N   0  0  0  0  0  0  0  0  0  0  0  0
    0.2344   -2.4674   -0.5552 O   0  0  0  0  0  0  0  0  0  0  0  0
   -1.2661    0.8861   -1.0991 C   0  0  0  0  0  0  0  0  0  0  0  0
   -2.0879   -1.0550    0.0676 C   0  0  0  0  0  0  0  0  0  0  0  0
    3.1403    1.3037    0.4178 C   0  0  0  0  0  0  0  0  0  0  0  0
    1.0392   -0.4582    1.6453 C   0  0  0  0  0  0  0  0  0  0  0  0
   -2.5131    1.4995   -0.9569 C   0  0  0  0  0  0  0  0  0  0  0  0
   -3.3353   -0.4423    0.2090 C   0  0  0  0  0  0  0  0  0  0  0  0
   -3.5476    0.8347   -0.3035 C   0  0  0  0  0  0  0  0  0  0  0  0
    0.0172    0.3965    0.2228 S   0  0  0  0  0  0  0  0  0  0  0  0
   -0.5837    1.5493   -0.3982 O   0  0  0  0  0  0  0  0  0  0  0  0
    0.6700    0.4250    1.5068 O   0  0  0  0  0  0  0  0  0  0  0  0
    1.0692   -0.2414   -0.8067 O   0  0  0  0  0  0  0  0  0  0  0  0
   -1.1128   -0.7417    0.2550 O   0  0  0  0  0  0  0  0  0  0  0  0
    0.2456    0.1679   -1.0141 C   0  0  1  0  0  0  0  0  0  0  0  0
   -1.2002    0.1348   -0.5701 C   0  0  0  0  0  0  0  0  0  0  0  0
    1.2646   -0.1178    0.1357 C   0  0  1  0  0  0  0  0  0  0  0  0
    2.6032   -0.3175   -0.4841 N   0  0  0  0  0  0  0  0  0  0  0  0
    0.4334   -0.8175   -2.0419 O   0  0  0  0  0  0  0  0  0  0  0  0
   -1.9251    1.3283   -0.4293 C   0  0  0  0  0  0  0  0  0  0  0  0
   -1.8391   -1.0782   -0.2697 C   0  0  0  0  0  0  0  0  0  0  0  0
    3.5185   -1.0410    0.3909 C   0  0  0  0  0  0  0  0  0  0  0  0
    1.2837    1.0170    1.1632 C   0  0  0  0  0  0  0  0  0  0  0  0
   -3.2520    1.3080    0.0057 C   0  0  0  0  0  0  0  0  0  0  0  0
   -3.1657   -1.0975    0.1640 C   0  0  0  0  0  0  0  0  0  0  0  0
   -3.8709    0.0957    0.3036 C   0  0  0  0  0  0  0  0  0  0  0  0
    0.6285   -0.9267   -1.8020 H   0  0  0  0  0  0  0  0  0  0  0  0
    2.3056   -1.1858    0.0953 H   0  0  0  0  0  0  0  0  0  0  0  0
    2.1881    0.7732   -1.2916 H   0  0  0  0  0  0  0  0  0  0  0  0
    1.0612   -2.8560   -0.8848 H   0  0  0  0  0  0  0  0  0  0  0  0
   -0.4703    1.4278   -1.6053 H   0  0  0  0  0  0  0  0  0  0  0  0
   -1.9426   -2.0528    0.4766 H   0  0  0  0  0  0  0  0  0  0  0  0
    3.9496    0.5673    0.3886 H   0  0  0  0  0  0  0  0  0  0  0  0
    2.9117    1.5532    1.4578 H   0  0  0  0  0  0  0  0  0  0  0  0
    3.5079    2.2206   -0.0541 H   0  0  0  0  0  0  0  0  0  0  0  0
    0.5933   -1.4153    1.9362 H   0  0  0  0  0  0  0  0  0  0  0  0
    1.8954   -0.2952    2.3078 H   0  0  0  0  0  0  0  0  0  0  0  0
    0.3078    0.3325    1.8438 H   0  0  0  0  0  0  0  0  0  0  0  0
   -2.6735    2.4984   -1.3537 H   0  0  0  0  0  0  0  0  0  0  0  0
   -4.1388   -0.9647    0.7208 H   0  0  0  0  0  0  0  0  0  0  0  0
   -4.5171    1.3120   -0.1916 H   0  0  0  0  0  0  0  0  0  0  0  0
    1.6631   -0.8236   -0.2891 H   0  0  0  0  0  0  0  0  0  0  0  0
   -1.7230   -0.5641   -0.4906 H   0  0  0  0  0  0  0  0  0  0  0  0
    0.4716    1.1361   -1.4785 H   0  0  0  0  0  0  0  0  0  0  0  0
    0.9713   -1.0531    0.6303 H   0  0  0  0  0  0  0  0  0  0  0  0
    3.0089    0.5921   -0.7120 H   0  0  0  0  0  0  0  0  0  0  0  0
    1.3929   -1.0115   -2.0017 H   0  0  0  0  0  0  0  0  0  0  0  0
   -1.4609    2.2843   -0.6603 H   0  0  0  0  0  0  0  0  0  0  0  0
   -1.3028   -2.0177   -0.3889 H   0  0  0  0  0  0  0  0  0  0  0  0
    4.4654   -1.2013   -0.1342 H   0  0  0  0  0  0  0  0  0  0  0  0
    3.1206   -2.0266    0.6527 H   0  0  0  0  0  0  0  0  0  0  0  0
    3.7387   -0.4867    1.3075 H   0  0  0  0  0  0  0  0  0  0  0  0
    0.3031    1.1384    1.6343 H   0  0  0  0  0  0  0  0  0  0  0  0
    1.9986    0.8192    1.9680 H   0  0  0  0  0  0  0  0  0  0  0  0
    1.5547    1.9712    0.6981 H   0  0  0  0  0  0  0  0  0  0  0  0
   -3.8041    2.2384    0.1080 H   0  0  0  0  0  0  0  0  0  0  0  0
   -3.6492   -2.0451    0.3854 H   0  0  0  0  0  0  0  0  0  0  0  0
   -4.9050    0.0799    0.6372 H   0  0  0  0  0  0  0  0  0  0  0  0
  2  1  1  0
  3  1  1  0
  4  3  1  0
  1  5  1  0
  6  2  2  0
  7  2  1  0
  8  4  1  0
  3  9  1  0
 10  6  1  0
 11  7  2  0
 12 10  2  0
 12 11  1  0
 14 13  2  0
 15 13  2  0
 16 13  1  0
 17 13  1  0
 19 18  1  0
 20 18  1  0
 21 20  1  0
 18 22  1  0
 23 19  2  0
 24 19  1  0
 25 21  1  0
 20 26  1  0
 27 23  1  0
 28 24  2  0
 29 27  2  0
 29 28  1  0
  1 30  1  6
  3 31  1  1
  4 32  1  0
  5 33  1  0
  6 34  1  0
  7 35  1  0
  8 36  1  0
  8 37  1  0
  8 38  1  0
  9 39  1  0
  9 40  1  0
  9 41  1  0
 10 42  1  0
 11 43  1  0
 12 44  1  0
 16 45  1  0
 17 46  1  0
 18 47  1  6
 20 48  1  1
 21 49  1  0
 22 50  1  0
 23 51  1  0
 24 52  1  0
 25 53  1  0
 25 54  1  0
 25 55  1  0
 26 56  1  0
 26 57  1  0
 26 58  1  0
 27 59  1  0
 28 60  1  0
 29 61  1  0
M  END
$$$$
