
     RDKit          3D

 61 60  0  0  0  0  0  0  0  0999 V2000
   -0.2786   -0.9039   -0.5994 C   0  0  1  0  0  0  0  0  0  0  0  0
    1.1517   -0.5179   -0.2591 C   0  0  0  0  0  0  0  0  0  0  0  0
   -1.4331   -0.2740    0.2523 C   0  0  1  0  0  0  0  0  0  0  0  0
   -1.6747    1.1339   -0.1526 N   0  0  0  0  0  0  0  0  0  0  0  0
   -0.4984   -0.5895   -1.9829 O   0  0  0  0  0  0  0  0  0  0  0  0
    2.1976   -1.2622   -0.8363 C   0  0  0  0  0  0  0  0  0  0  0  0
    1.4908    0.5510    0.5819 C   0  0  0  0  0  0  0  0  0  0  0  0
   -2.4335    1.8846    0.8376 C   0  0  0  0  0  0  0  0  0  0  0  0
   -2.7129   -1.1036    0.0581 C   0  0  0  0  0  0  0  0  0  0  0  0
    3.5337   -0.9589   -0.5683 C   0  0  0  0  0  0  0  0  0  0  0  0
    2.8289    0.8549    0.8503 C   0  0  0  0  0  0  0  0  0  0  0  0
    3.8490    0.0993    0.2783 C   0  0  0  0  0  0  0  0  0  0  0  0
   -0.0219    0.4501    0.0494 S   0  0  0  0  0  0  0  0  0  0  0  0
   -0.6919    1.2132   -0.9730 O   0  0  0  0  0  0  0  0  0  0  0  0
    0.5895    1.0343    1.2156 O   0  0  0  0  0  0  0  0  0  0  0  0
   -1.0610   -0.6734    0.5316 O   0  0  0  0  0  0  0  0  0  0  0  0
    1.1060   -0.4503   -0.6504 O   0  0  0  0  0  0  0  0  0  0  0  0
   -0.0295   -0.4492   -1.1064 C   0  0  1  0  0  0  0  0  0  0  0  0
    1.2501   -0.2757   -0.3080 C   0  0  0  0  0  0  0  0  0  0  0  0
   -1.3482   -0.6045   -0.2725 C   0  0  1  0  0  0  0  0  0  0  0  0
   -1.9044    0.7269    0.0894 N   0  0  0  0  0  0  0  0  0  0  0  0
   -0.1519    0.6684   -1.9948 O   0  0  0  0  0  0  0  0  0  0  0  0
    1.3112    0.4823    0.8713 C   0  0  0  0  0  0  0  0  0  0  0  0
    2.4373   -0.8609   -0.7830 C   0  0  0  0  0  0  0  0  0  0  0  0
   -2.7726    0.6613    1.2593 C   0  0  0  0  0  0  0  0  0  0  0  0
   -2.3825   -1.3818   -1.1022 C   0  0  0  0  0  0  0  0  0  0  0  0
    2.5134    0.6240    1.5696 C   0  0  0  0  0  0  0  0  0  0  0  0
    3.6388   -0.7198   -0.0848 C   0  0  0  0  0  0  0  0  0  0  0  0
    3.6754    0.0191    1.0944 C   0  0  0  0  0  0  0  0  0  0  0  0
   -0.3458   -1.9954   -0.5042 H   0  0  0  0  0  0  0  0  0  0  0  0
   -1.1503   -0.3253    1.3115 H   0  0  0  0  0  0  0  0  0  0  0  0
   -2.1818    1.1347   -1.0395 H   0  0  0  0  0  0  0  0  0  0  0  0
   -0.3060    0.3650   -2.0398 H   0  0  0  0  0  0  0  0  0  0  0  0
    1.9665   -2.0849   -1.5114 H   0  0  0  0  0  0  0  0  0  0  0  0
    0.7245    1.1737    1.0358 H   0  0  0  0  0  0  0  0  0  0  0  0
   -3.4504    1.5001    0.9601 H   0  0  0  0  0  0  0  0  0  0  0  0
   -1.9283    1.8839    1.8087 H   0  0  0  0  0  0  0  0  0  0  0  0
   -2.5133    2.9272    0.5133 H   0  0  0  0  0  0  0  0  0  0  0  0
   -2.5372   -2.1495    0.3329 H   0  0  0  0  0  0  0  0  0  0  0  0
   -3.0537   -1.0839   -0.9831 H   0  0  0  0  0  0  0  0  0  0  0  0
   -3.5298   -0.7408    0.6895 H   0  0  0  0  0  0  0  0  0  0  0  0
    4.3252   -1.5468   -1.0253 H   0  0  0  0  0  0  0  0  0  0  0  0
    3.0725    1.6884    1.5043 H   0  0  0  0  0  0  0  0  0  0  0  0
    4.8877    0.3399    0.4873 H   0  0  0  0  0  0  0  0  0  0  0  0
   -1.6586   -0.8576   -0.2225 H   0  0  0  0  0  0  0  0  0  0  0  0
    1.7380   -0.7163    0.0493 H   0  0  0  0  0  0  0  0  0  0  0  0
    0.0856   -1.3407   -1.7363 H   0  0  0  0  0  0  0  0  0  0  0  0
   -1.1228   -1.1908    0.6282 H   0  0  0  0  0  0  0  0  0  0  0  0
   -2.4413    1.0839   -0.7043 H   0  0  0  0  0  0  0  0  0  0  0  0
   -0.3742    1.4110   -1.3991 H   0  0  0  0  0  0  0  0  0  0  0  0
    0.4264    0.9811    1.2604 H   0  0  0  0  0  0  0  0  0  0  0  0
    2.4341   -1.4275   -1.7123 H   0  0  0  0  0  0  0  0  0  0  0  0
   -3.1301    1.6677    1.4992 H   0  0  0  0  0  0  0  0  0  0  0  0
   -2.2275    0.2921    2.1347 H   0  0  0  0  0  0  0  0  0  0  0  0
   -3.6493    0.0294    1.0897 H   0  0  0  0  0  0  0  0  0  0  0  0
   -1.9924   -2.3688   -1.3744 H   0  0  0  0  0  0  0  0  0  0  0  0
   -2.6341   -0.8540   -2.0290 H   0  0  0  0  0  0  0  0  0  0  0  0
   -3.3084   -1.5454   -0.5418 H   0  0  0  0  0  0  0  0  0  0  0  0
    2.5411    1.2128    2.4828 H   0  0  0  0  0  0  0  0  0  0  0  0
    4.5458   -1.1822   -0.4673 H   0  0  0  0  0  0  0  0  0  0  0  0
    4.6100    0.1325    1.6371 H   0  0  0  0  0  0  0  0  0  0  0  0
  2  1  1  0
  3  1  1  0
  4  3  1  0
  1  5  1  0
  6  2  2  0
  7  2  1  0
  8  4  1  0
  3  9  1  0
 10  6  1  0
 11  7  2  0
 12 10  2  0
 12 11  1  0
 14 13  2  0
 15 13  2  0
 16 13  1  0
 17 13  1  0
 19 18  1  0
 20 18  1  0
 21 20  1  0
 18 22  1  0
 23 19  2  0
 24 19  1  0
 25 21  1  0
 20 26  1  0
 27 23  1  0
 28 24  2  0
 29 27  2  0
 29 28  1  0
  1 30  1  6
  3 31  1  1
  4 32  1  0
  5 33  1  0
  6 34  1  0
  7 35  1  0
  8 36  1  0
  8 37  1  0
  8 38  1  0
  9 39  1  0
  9 40  1  0
  9 41  1  0
 10 42  1  0
 11 43  1  0
 12 44  1  0
 16 45  1  0
 17 46  1  0
 18 47  1  6
 20 48  1  1
 21 49  1  0
 22 50  1  0
 23 51  1  0
 24 52  1  0
 25 53  1  0
 25 54  1  0
 25 55  1  0
 26 56  1  0
 26 57  1  0
 26 58  1  0
 27 59  1  0
 28 60  1  0
 29 61  1  0
M  END
$$$$
