
     RDKit          3D

 71 70  0  0  0  0  0  0  0  0999 V2000
    1.5624   -0.1186   -0.2196 C   0  0  0  0  0  0  0  0  0  0  0  0
    2.0767    0.7945    0.7113 C   0  0  0  0  0  0  0  0  0  0  0  0
    2.4332   -0.6256   -1.2038 C   0  0  0  0  0  0  0  0  0  0  0  0
    3.4128    1.1886    0.6488 C   0  0  0  0  0  0  0  0  0  0  0  0
    3.7656   -0.2188   -1.2489 C   0  0  0  0  0  0  0  0  0  0  0  0
    4.2656    0.6891   -0.3267 C   0  0  0  0  0  0  0  0  0  0  0  0
   -2.2043   -0.4806    0.7783 N   0  0  0  0  0  0  0  0  0  0  0  0
    0.1254   -0.6055   -0.2137 C   0  0  2  0  0  0  0  0  0  0  0  0
   -0.8534    0.1151    0.7512 C   0  0  0  0  0  0  0  0  0  0  0  0
    4.6216   -0.6998   -2.1952 O   0  0  0  0  0  0  0  0  0  0  0  0
    3.8498    2.0817    1.5825 O   0  0  0  0  0  0  0  0  0  0  0  0
    0.1287   -2.0047    0.1104 O   0  0  0  0  0  0  0  0  0  0  0  0
   -3.0422   -0.1264   -0.3746 C   0  0  0  0  0  0  0  0  0  0  0  0
   -3.5386    1.3169   -0.2861 C   0  0  0  0  0  0  0  0  0  0  0  0
   -4.2414   -1.0797   -0.4066 C   0  0  0  0  0  0  0  0  0  0  0  0
   -0.0267    0.3458    0.2671 S   0  0  0  0  0  0  0  0  0  0  0  0
    0.6710    0.2906    1.5263 O   0  0  0  0  0  0  0  0  0  0  0  0
   -0.8903    1.4319   -0.1226 O   0  0  0  0  0  0  0  0  0  0  0  0
    1.0745    0.1349   -0.8799 O   0  0  0  0  0  0  0  0  0  0  0  0
   -0.8966   -0.9934    0.1175 O   0  0  0  0  0  0  0  0  0  0  0  0
    1.5610   -0.2986   -0.6675 C   0  0  0  0  0  0  0  0  0  0  0  0
    1.4351    1.0101   -1.1617 C   0  0  0  0  0  0  0  0  0  0  0  0
    2.6857   -0.6149    0.1121 C   0  0  0  0  0  0  0  0  0  0  0  0
    2.4127    1.9641   -0.8911 C   0  0  0  0  0  0  0  0  0  0  0  0
    3.6556    0.3534    0.3670 C   0  0  0  0  0  0  0  0  0  0  0  0
    3.5291    1.6451   -0.1287 C   0  0  0  0  0  0  0  0  0  0  0  0
   -1.5856   -0.1498   -0.1216 N   0  0  0  0  0  0  0  0  0  0  0  0
    0.4831   -1.3221   -0.9626 C   0  0  2  0  0  0  0  0  0  0  0  0
   -0.6841   -1.2936    0.0598 C   0  0  0  0  0  0  0  0  0  0  0  0
    4.7630    0.0651    1.1107 O   0  0  0  0  0  0  0  0  0  0  0  0
    2.2349    3.2188   -1.3989 O   0  0  0  0  0  0  0  0  0  0  0  0
    1.0601   -2.6355   -0.9738 O   0  0  0  0  0  0  0  0  0  0  0  0
   -2.6309   -0.0655    0.9023 C   0  0  0  0  0  0  0  0  0  0  0  0
   -3.1979    1.3555    0.8715 C   0  0  0  0  0  0  0  0  0  0  0  0
   -3.7535   -1.0780    0.6610 C   0  0  0  0  0  0  0  0  0  0  0  0
    1.4597    1.2179    1.4992 H   0  0  0  0  0  0  0  0  0  0  0  0
    2.0529   -1.3446   -1.9258 H   0  0  0  0  0  0  0  0  0  0  0  0
    5.3069    0.9882   -0.3808 H   0  0  0  0  0  0  0  0  0  0  0  0
   -2.0700   -1.4967    0.7882 H   0  0  0  0  0  0  0  0  0  0  0  0
   -0.2602   -0.5123   -1.2354 H   0  0  0  0  0  0  0  0  0  0  0  0
   -0.8876    1.1900    0.5467 H   0  0  0  0  0  0  0  0  0  0  0  0
   -0.4750    0.0061    1.7750 H   0  0  0  0  0  0  0  0  0  0  0  0
    4.1310   -1.2970   -2.7840 H   0  0  0  0  0  0  0  0  0  0  0  0
    4.7740    2.3097    1.3818 H   0  0  0  0  0  0  0  0  0  0  0  0
    0.7627   -2.1202    0.8406 H   0  0  0  0  0  0  0  0  0  0  0  0
   -2.4917   -0.2612   -1.3116 H   0  0  0  0  0  0  0  0  0  0  0  0
   -4.0440    1.5093    0.6671 H   0  0  0  0  0  0  0  0  0  0  0  0
   -2.7188    2.0334   -0.3853 H   0  0  0  0  0  0  0  0  0  0  0  0
   -4.2526    1.5285   -1.0896 H   0  0  0  0  0  0  0  0  0  0  0  0
   -4.8446   -0.9997    0.5056 H   0  0  0  0  0  0  0  0  0  0  0  0
   -4.8927   -0.8570   -1.2591 H   0  0  0  0  0  0  0  0  0  0  0  0
   -3.9121   -2.1202   -0.5074 H   0  0  0  0  0  0  0  0  0  0  0  0
    1.7684   -0.4538   -0.5157 H   0  0  0  0  0  0  0  0  0  0  0  0
   -1.7004   -0.7559   -0.3927 H   0  0  0  0  0  0  0  0  0  0  0  0
    0.5683    1.2953   -1.7529 H   0  0  0  0  0  0  0  0  0  0  0  0
    2.7953   -1.6214    0.5060 H   0  0  0  0  0  0  0  0  0  0  0  0
    4.2996    2.3768    0.0860 H   0  0  0  0  0  0  0  0  0  0  0  0
   -2.0004   -0.1604   -1.0520 H   0  0  0  0  0  0  0  0  0  0  0  0
    0.1032   -1.1508   -1.9778 H   0  0  0  0  0  0  0  0  0  0  0  0
   -1.2478   -2.2284   -0.0396 H   0  0  0  0  0  0  0  0  0  0  0  0
   -0.2685   -1.2890    1.0751 H   0  0  0  0  0  0  0  0  0  0  0  0
    4.7257   -0.8749    1.3566 H   0  0  0  0  0  0  0  0  0  0  0  0
    2.9748    3.7734   -1.0993 H   0  0  0  0  0  0  0  0  0  0  0  0
    0.4556   -3.1979   -1.4875 H   0  0  0  0  0  0  0  0  0  0  0  0
   -2.2014   -0.2304    1.8991 H   0  0  0  0  0  0  0  0  0  0  0  0
   -2.4116    2.0961    1.0558 H   0  0  0  0  0  0  0  0  0  0  0  0
   -3.9609    1.4844    1.6458 H   0  0  0  0  0  0  0  0  0  0  0  0
   -3.6596    1.5845   -0.0960 H   0  0  0  0  0  0  0  0  0  0  0  0
   -3.3926   -2.1065    0.7553 H   0  0  0  0  0  0  0  0  0  0  0  0
   -4.5552   -0.9458    1.3955 H   0  0  0  0  0  0  0  0  0  0  0  0
   -4.1928   -0.9591   -0.3365 H   0  0  0  0  0  0  0  0  0  0  0  0
  2  1  2  0
  3  1  1  0
  4  2  1  0
  5  3  2  0
  6  4  2  0
  7  9  1  0
  8  1  1  0
  9  8  1  0
 10  5  1  0
 11  4  1  0
 12  8  1  0
 13  7  1  0
 14 13  1  0
 15 13  1  0
  6  5  1  0
 17 16  2  0
 18 16  2  0
 19 16  1  0
 20 16  1  0
 22 21  2  0
 23 21  1  0
 24 22  1  0
 25 23  2  0
 26 24  2  0
 27 29  1  0
 28 21  1  0
 29 28  1  0
 30 25  1  0
 31 24  1  0
 32 28  1  0
 33 27  1  0
 34 33  1  0
 35 33  1  0
 26 25  1  0
  2 36  1  0
  3 37  1  0
  6 38  1  0
  7 39  1  0
  8 40  1  6
  9 41  1  0
  9 42  1  0
 10 43  1  0
 11 44  1  0
 12 45  1  0
 13 46  1  0
 14 47  1  0
 14 48  1  0
 14 49  1  0
 15 50  1  0
 15 51  1  0
 15 52  1  0
 19 53  1  0
 20 54  1  0
 22 55  1  0
 23 56  1  0
 26 57  1  0
 27 58  1  0
 28 59  1  6
 29 60  1  0
 29 61  1  0
 30 62  1  0
 31 63  1  0
 32 64  1  0
 33 65  1  0
 34 66  1  0
 34 67  1  0
 34 68  1  0
 35 69  1  0
 35 70  1  0
 35 71  1  0
M  END
$$$$
