
     RDKit          2D

 35 34  0  0  0  0  0  0  0  0999 V2000
    5.5794   -3.2030    0.0000 C   0  0  0  0  0  0  0  0  0  0  0  0
    5.5650   -4.0308    0.0000 C   0  0  0  0  0  0  0  0  0  0  0  0
    4.8815   -2.7843    0.0000 C   0  0  0  0  0  0  0  0  0  0  0  0
    4.8575   -4.4302    0.0000 C   0  0  0  0  0  0  0  0  0  0  0  0
    4.1501   -3.1790    0.0000 C   0  0  0  0  0  0  0  0  0  0  0  0
    4.1501   -4.0019    0.0000 C   0  0  0  0  0  0  0  0  0  0  0  0
    7.7257   -2.8276    0.0000 N   0  0  0  0  0  0  0  0  0  0  0  0
    6.2868   -2.8036    0.0000 C   0  0  0  0  0  0  0  0  0  0  0  0
    7.0039   -3.2223    0.0000 C   0  0  0  0  0  0  0  0  0  0  0  0
    3.4571   -2.7506    0.0000 O   0  0  0  0  0  0  0  0  0  0  0  0
    4.8431   -5.2436    0.0000 O   0  0  0  0  0  0  0  0  0  0  0  0
    6.3157   -1.9807    0.0000 O   0  0  0  0  0  0  0  0  0  0  0  0
    8.4236   -3.2463    0.0000 C   0  0  0  0  0  0  0  0  0  0  0  0
    8.4187   -4.0741    0.0000 C   0  0  0  0  0  0  0  0  0  0  0  0
    9.1455   -2.8469    0.0000 C   0  0  0  0  0  0  0  0  0  0  0  0
    7.8513   -0.5631    0.0000 S   0  0  0  0  0  0  0  0  0  0  0  0
    8.2555    0.1491    0.0000 O   0  0  0  0  0  0  0  0  0  0  0  0
    7.4326    0.1491    0.0000 O   0  0  0  0  0  0  0  0  0  0  0  0
    7.1438   -0.9770    0.0000 O   0  0  0  0  0  0  0  0  0  0  0  0
    8.5587   -0.9770    0.0000 O   0  0  0  0  0  0  0  0  0  0  0  0
    1.6796   -0.7074    0.0000 C   0  0  0  0  0  0  0  0  0  0  0  0
    1.6652   -1.5352    0.0000 C   0  0  0  0  0  0  0  0  0  0  0  0
    0.9818   -0.2888    0.0000 C   0  0  0  0  0  0  0  0  0  0  0  0
    0.9577   -1.9346    0.0000 C   0  0  0  0  0  0  0  0  0  0  0  0
    0.2503   -0.6834    0.0000 C   0  0  0  0  0  0  0  0  0  0  0  0
    0.2503   -1.5064    0.0000 C   0  0  0  0  0  0  0  0  0  0  0  0
    3.8259   -0.3321    0.0000 N   0  0  0  0  0  0  0  0  0  0  0  0
    2.3870   -0.3080    0.0000 C   0  0  0  0  0  0  0  0  0  0  0  0
    3.1041   -0.7267    0.0000 C   0  0  0  0  0  0  0  0  0  0  0  0
   -0.4427   -0.2550    0.0000 O   0  0  0  0  0  0  0  0  0  0  0  0
    0.9433   -2.7480    0.0000 O   0  0  0  0  0  0  0  0  0  0  0  0
    2.4159    0.5149    0.0000 O   0  0  0  0  0  0  0  0  0  0  0  0
    4.5238   -0.7508    0.0000 C   0  0  0  0  0  0  0  0  0  0  0  0
    4.5189   -1.5785    0.0000 C   0  0  0  0  0  0  0  0  0  0  0  0
    5.2457   -0.3514    0.0000 C   0  0  0  0  0  0  0  0  0  0  0  0
  2  1  1  0
  3  1  2  0
  4  2  2  0
  5  3  1  0
  6  4  1  0
  7  9  1  0
  8  1  1  0
  9  8  1  0
 10  5  1  0
 11  4  1  0
 12  8  1  0
 13  7  1  0
 14 13  1  0
 15 13  1  0
  6  5  2  0
 17 16  2  0
 18 16  2  0
 19 16  1  0
 20 16  1  0
 22 21  1  0
 23 21  2  0
 24 22  2  0
 25 23  1  0
 26 24  1  0
 27 29  1  0
 28 21  1  0
 29 28  1  0
 30 25  1  0
 31 24  1  0
 32 28  1  0
 33 27  1  0
 34 33  1  0
 35 33  1  0
 26 25  2  0
M  END
> <chembl_id>
CHEMBL1568057

> <chembl_pref_name>
METAPROTERENOL SULFATE
