
     RDKit          3D

 35 34  0  0  0  0  0  0  0  0999 V2000
   -0.5073   -0.7159    0.1567 C   0  0  0  0  0  0  0  0  0  0  0  0
   -0.4450    0.5738   -0.3033 C   0  0  0  0  0  0  0  0  0  0  0  0
   -1.7359   -1.3003    0.3899 C   0  0  0  0  0  0  0  0  0  0  0  0
   -1.6208    1.2812   -0.5305 C   0  0  0  0  0  0  0  0  0  0  0  0
   -2.9253   -0.6318    0.1769 C   0  0  0  0  0  0  0  0  0  0  0  0
   -2.8402    0.6636   -0.2856 C   0  0  0  0  0  0  0  0  0  0  0  0
    2.0056    0.4222    0.2530 N   0  0  0  0  0  0  0  0  0  0  0  0
    0.6966   -1.5521    0.4291 C   0  0  0  0  0  0  0  0  0  0  0  0
    1.8421   -0.9062   -0.3169 C   0  0  0  0  0  0  0  0  0  0  0  0
   -4.1522   -1.2414    0.4191 O   0  0  0  0  0  0  0  0  0  0  0  0
   -1.6120    2.5826   -0.9935 O   0  0  0  0  0  0  0  0  0  0  0  0
    0.5167   -2.8207   -0.0924 O   0  0  0  0  0  0  0  0  0  0  0  0
    3.1139    1.0394   -0.4731 C   0  0  0  0  0  0  0  0  0  0  0  0
    4.3311    0.1702   -0.2530 C   0  0  0  0  0  0  0  0  0  0  0  0
    3.3329    2.4356    0.1152 C   0  0  0  0  0  0  0  0  0  0  0  0
    0.0025   -0.0039    0.0463 S   0  0  0  0  0  0  0  0  0  0  0  0
    0.1801    1.3199    0.7338 O   0  0  0  0  0  0  0  0  0  0  0  0
   -0.2020   -1.0903    1.0540 O   0  0  0  0  0  0  0  0  0  0  0  0
   -1.3393    0.0562   -0.9496 O   0  0  0  0  0  0  0  0  0  0  0  0
    1.3587   -0.2819   -0.8844 O   0  0  0  0  0  0  0  0  0  0  0  0
   -0.7294   -0.4453    0.1347 C   0  0  0  0  0  0  0  0  0  0  0  0
   -1.9027   -1.0776    0.4690 C   0  0  0  0  0  0  0  0  0  0  0  0
   -0.8118    0.8429   -0.3495 C   0  0  0  0  0  0  0  0  0  0  0  0
   -3.1506   -0.4712    0.3371 C   0  0  0  0  0  0  0  0  0  0  0  0
   -2.0299    1.4844   -0.4971 C   0  0  0  0  0  0  0  0  0  0  0  0
   -3.1910    0.8311   -0.1558 C   0  0  0  0  0  0  0  0  0  0  0  0
    2.9276   -0.7598    0.3924 N   0  0  0  0  0  0  0  0  0  0  0  0
    0.5766   -1.0910    0.2769 C   0  0  0  0  0  0  0  0  0  0  0  0
    1.6834   -0.1824   -0.1383 C   0  0  0  0  0  0  0  0  0  0  0  0
   -2.0066    2.7829   -0.9937 O   0  0  0  0  0  0  0  0  0  0  0  0
   -4.3091   -1.1526    0.6889 O   0  0  0  0  0  0  0  0  0  0  0  0
    0.6615   -2.3838   -0.1718 O   0  0  0  0  0  0  0  0  0  0  0  0
    4.0604    0.0466    0.0444 C   0  0  0  0  0  0  0  0  0  0  0  0
    4.1966    0.1530   -1.4454 C   0  0  0  0  0  0  0  0  0  0  0  0
    4.0252    1.4228    0.6578 C   0  0  0  0  0  0  0  0  0  0  0  0
  2  1  2  0
  3  1  1  0
  4  2  1  0
  5  3  2  0
  6  4  2  0
  7  9  1  0
  8  1  1  0
  9  8  1  0
 10  5  1  0
 11  4  1  0
 12  8  1  0
 13  7  1  0
 14 13  1  0
 15 13  1  0
  6  5  1  0
 17 16  2  0
 18 16  2  0
 19 16  1  0
 20 16  1  0
 22 21  2  0
 23 21  1  0
 24 22  1  0
 25 23  2  0
 26 24  2  0
 27 29  1  0
 28 21  1  0
 29 28  1  0
 30 25  1  0
 31 24  1  0
 32 28  1  0
 33 27  1  0
 34 33  1  0
 35 33  1  0
 26 25  1  0
M  END
