
     RDKit          3D

 71 70  0  0  0  0  0  0  0  0999 V2000
   -1.7122   -0.5091    0.6484 C   0  0  0  0  0  0  0  0  0  0  0  0
   -2.5931   -1.5590    0.3235 C   0  0  0  0  0  0  0  0  0  0  0  0
   -2.2455    0.7857    0.7924 C   0  0  0  0  0  0  0  0  0  0  0  0
   -3.9490   -1.3093    0.1218 C   0  0  0  0  0  0  0  0  0  0  0  0
   -3.6067    1.0133    0.5813 C   0  0  0  0  0  0  0  0  0  0  0  0
   -4.4619   -0.0259    0.2414 C   0  0  0  0  0  0  0  0  0  0  0  0
    2.1028   -0.2954    0.2172 N   0  0  0  0  0  0  0  0  0  0  0  0
   -0.2370   -0.7680    0.8917 C   0  0  2  0  0  0  0  0  0  0  0  0
    0.7049    0.1658    0.0815 C   0  0  0  0  0  0  0  0  0  0  0  0
   -4.1436    2.2627    0.7006 O   0  0  0  0  0  0  0  0  0  0  0  0
   -4.8140   -2.3173   -0.1941 O   0  0  0  0  0  0  0  0  0  0  0  0
    0.1072   -2.1240    0.5646 O   0  0  0  0  0  0  0  0  0  0  0  0
    3.0285    0.4445   -0.6514 C   0  0  0  0  0  0  0  0  0  0  0  0
    4.3232   -0.3649   -0.7430 C   0  0  0  0  0  0  0  0  0  0  0  0
    3.3276    1.8467   -0.1197 C   0  0  0  0  0  0  0  0  0  0  0  0
    0.0193    0.4542   -0.0794 S   0  0  0  0  0  0  0  0  0  0  0  0
    0.3440    0.8879   -1.4144 O   0  0  0  0  0  0  0  0  0  0  0  0
   -0.2132    1.3521    1.0226 O   0  0  0  0  0  0  0  0  0  0  0  0
    1.1669   -0.5810    0.3492 O   0  0  0  0  0  0  0  0  0  0  0  0
   -1.2572   -0.5152   -0.1575 O   0  0  0  0  0  0  0  0  0  0  0  0
    1.6116    0.1805   -0.0270 C   0  0  0  0  0  0  0  0  0  0  0  0
    2.6610    0.5026   -0.9042 C   0  0  0  0  0  0  0  0  0  0  0  0
    1.9262   -0.4792    1.1753 C   0  0  0  0  0  0  0  0  0  0  0  0
    3.9754    0.1622   -0.5830 C   0  0  0  0  0  0  0  0  0  0  0  0
    3.2422   -0.8276    1.4663 C   0  0  0  0  0  0  0  0  0  0  0  0
    4.2767   -0.5102    0.5940 C   0  0  0  0  0  0  0  0  0  0  0  0
   -2.0981   -0.3565   -0.9381 N   0  0  0  0  0  0  0  0  0  0  0  0
    0.1724    0.5502   -0.3311 C   0  0  2  0  0  0  0  0  0  0  0  0
   -0.7682   -0.6854   -0.3669 C   0  0  0  0  0  0  0  0  0  0  0  0
    3.4773   -1.4810    2.6408 O   0  0  0  0  0  0  0  0  0  0  0  0
    5.0127    0.4902   -1.4110 O   0  0  0  0  0  0  0  0  0  0  0  0
    0.0619    1.2270   -1.5921 O   0  0  0  0  0  0  0  0  0  0  0  0
   -3.1408   -0.1675    0.0859 C   0  0  0  0  0  0  0  0  0  0  0  0
   -4.4944   -0.0866   -0.6261 C   0  0  0  0  0  0  0  0  0  0  0  0
   -2.9311    1.0835    0.9340 C   0  0  0  0  0  0  0  0  0  0  0  0
   -2.2093   -2.5732    0.2296 H   0  0  0  0  0  0  0  0  0  0  0  0
   -1.6003    1.6118    1.0767 H   0  0  0  0  0  0  0  0  0  0  0  0
   -5.5195    0.1577    0.0803 H   0  0  0  0  0  0  0  0  0  0  0  0
    2.4000   -0.2046    1.1913 H   0  0  0  0  0  0  0  0  0  0  0  0
   -0.0435   -0.6506    1.9663 H   0  0  0  0  0  0  0  0  0  0  0  0
    0.6042    1.2013    0.4270 H   0  0  0  0  0  0  0  0  0  0  0  0
    0.4178    0.1246   -0.9772 H   0  0  0  0  0  0  0  0  0  0  0  0
   -3.4397    2.8894    0.9385 H   0  0  0  0  0  0  0  0  0  0  0  0
   -4.3139   -3.1497   -0.2222 H   0  0  0  0  0  0  0  0  0  0  0  0
    1.0635   -2.0841    0.3608 H   0  0  0  0  0  0  0  0  0  0  0  0
    2.6121    0.5227   -1.6638 H   0  0  0  0  0  0  0  0  0  0  0  0
    5.0444    0.1331   -1.3992 H   0  0  0  0  0  0  0  0  0  0  0  0
    4.1334   -1.3625   -1.1585 H   0  0  0  0  0  0  0  0  0  0  0  0
    4.7921   -0.4914    0.2404 H   0  0  0  0  0  0  0  0  0  0  0  0
    2.4320    2.4752   -0.1236 H   0  0  0  0  0  0  0  0  0  0  0  0
    4.0773    2.3435   -0.7449 H   0  0  0  0  0  0  0  0  0  0  0  0
    3.7181    1.8110    0.9041 H   0  0  0  0  0  0  0  0  0  0  0  0
    1.5309   -0.9661   -0.4759 H   0  0  0  0  0  0  0  0  0  0  0  0
   -1.5908   -0.6318    0.7555 H   0  0  0  0  0  0  0  0  0  0  0  0
    2.4447    1.0240   -1.8338 H   0  0  0  0  0  0  0  0  0  0  0  0
    1.1514   -0.7304    1.8963 H   0  0  0  0  0  0  0  0  0  0  0  0
    5.3099   -0.7556    0.8155 H   0  0  0  0  0  0  0  0  0  0  0  0
   -2.3834   -1.1605   -1.5071 H   0  0  0  0  0  0  0  0  0  0  0  0
   -0.1545    1.2672    0.4296 H   0  0  0  0  0  0  0  0  0  0  0  0
   -0.8493   -1.1704    0.6139 H   0  0  0  0  0  0  0  0  0  0  0  0
   -0.3216   -1.4314   -1.0407 H   0  0  0  0  0  0  0  0  0  0  0  0
    4.4029   -1.7759    2.6434 H   0  0  0  0  0  0  0  0  0  0  0  0
    4.6593    1.0468   -2.1272 H   0  0  0  0  0  0  0  0  0  0  0  0
   -0.8876    1.1290   -1.8190 H   0  0  0  0  0  0  0  0  0  0  0  0
   -3.1690   -1.0443    0.7464 H   0  0  0  0  0  0  0  0  0  0  0  0
   -4.7063   -1.0188   -1.1671 H   0  0  0  0  0  0  0  0  0  0  0  0
   -5.3053    0.0614    0.0964 H   0  0  0  0  0  0  0  0  0  0  0  0
   -4.5266    0.7408   -1.3453 H   0  0  0  0  0  0  0  0  0  0  0  0
   -2.8240    1.9778    0.3105 H   0  0  0  0  0  0  0  0  0  0  0  0
   -3.7840    1.2419    1.6035 H   0  0  0  0  0  0  0  0  0  0  0  0
   -2.0414    0.9966    1.5676 H   0  0  0  0  0  0  0  0  0  0  0  0
  2  1  2  0
  3  1  1  0
  4  2  1  0
  5  3  2  0
  6  4  2  0
  7  9  1  0
  8  1  1  0
  9  8  1  0
 10  5  1  0
 11  4  1  0
 12  8  1  0
 13  7  1  0
 14 13  1  0
 15 13  1  0
  6  5  1  0
 17 16  2  0
 18 16  2  0
 19 16  1  0
 20 16  1  0
 22 21  2  0
 23 21  1  0
 24 22  1  0
 25 23  2  0
 26 24  2  0
 27 29  1  0
 28 21  1  0
 29 28  1  0
 30 25  1  0
 31 24  1  0
 32 28  1  0
 33 27  1  0
 34 33  1  0
 35 33  1  0
 26 25  1  0
  2 36  1  0
  3 37  1  0
  6 38  1  0
  7 39  1  0
  8 40  1  1
  9 41  1  0
  9 42  1  0
 10 43  1  0
 11 44  1  0
 12 45  1  0
 13 46  1  0
 14 47  1  0
 14 48  1  0
 14 49  1  0
 15 50  1  0
 15 51  1  0
 15 52  1  0
 19 53  1  0
 20 54  1  0
 22 55  1  0
 23 56  1  0
 26 57  1  0
 27 58  1  0
 28 59  1  1
 29 60  1  0
 29 61  1  0
 30 62  1  0
 31 63  1  0
 32 64  1  0
 33 65  1  0
 34 66  1  0
 34 67  1  0
 34 68  1  0
 35 69  1  0
 35 70  1  0
 35 71  1  0
M  END
$$$$
