
     RDKit          3D

 71 70  0  0  0  0  0  0  0  0999 V2000
   -1.3644   -0.3618    0.0423 C   0  0  0  0  0  0  0  0  0  0  0  0
   -2.1777   -1.3437    0.6316 C   0  0  0  0  0  0  0  0  0  0  0  0
   -1.9748    0.6950   -0.6549 C   0  0  0  0  0  0  0  0  0  0  0  0
   -3.5647   -1.2550    0.5200 C   0  0  0  0  0  0  0  0  0  0  0  0
   -3.3614    0.7624   -0.7534 C   0  0  0  0  0  0  0  0  0  0  0  0
   -4.1653   -0.2067   -0.1677 C   0  0  0  0  0  0  0  0  0  0  0  0
    1.9851    0.4608    1.7387 N   0  0  0  0  0  0  0  0  0  0  0  0
    0.1458   -0.4356    0.1701 C   0  0  2  0  0  0  0  0  0  0  0  0
    0.7047    0.7092    1.0567 C   0  0  0  0  0  0  0  0  0  0  0  0
   -3.8986    1.8137   -1.4367 O   0  0  0  0  0  0  0  0  0  0  0  0
   -4.3822   -2.1884    1.0856 O   0  0  0  0  0  0  0  0  0  0  0  0
    0.7181   -0.3995   -1.1375 O   0  0  0  0  0  0  0  0  0  0  0  0
    3.2198    0.5004    0.9485 C   0  0  0  0  0  0  0  0  0  0  0  0
    3.2860    1.5789   -0.1333 C   0  0  0  0  0  0  0  0  0  0  0  0
    3.6013   -0.8753    0.3971 C   0  0  0  0  0  0  0  0  0  0  0  0
    0.0093    0.4210    0.1717 S   0  0  0  0  0  0  0  0  0  0  0  0
   -0.5054    1.5011   -0.6303 O   0  0  0  0  0  0  0  0  0  0  0  0
    0.6137    0.6012    1.4670 O   0  0  0  0  0  0  0  0  0  0  0  0
   -1.1739   -0.6533    0.3076 O   0  0  0  0  0  0  0  0  0  0  0  0
    1.0708   -0.3974   -0.7088 O   0  0  0  0  0  0  0  0  0  0  0  0
    1.5617    0.1198   -0.1241 C   0  0  0  0  0  0  0  0  0  0  0  0
    1.9534   -1.2219    0.0205 C   0  0  0  0  0  0  0  0  0  0  0  0
    2.5420    1.1224   -0.0496 C   0  0  0  0  0  0  0  0  0  0  0  0
    3.2901   -1.5451    0.2331 C   0  0  0  0  0  0  0  0  0  0  0  0
    3.8753    0.7755    0.1660 C   0  0  0  0  0  0  0  0  0  0  0  0
    4.2593   -0.5528    0.3083 C   0  0  0  0  0  0  0  0  0  0  0  0
   -2.1281    0.7513    0.8836 N   0  0  0  0  0  0  0  0  0  0  0  0
    0.1082    0.4813   -0.3661 C   0  0  2  0  0  0  0  0  0  0  0  0
   -0.7887    0.1314    0.8529 C   0  0  0  0  0  0  0  0  0  0  0  0
    4.8517    1.7253    0.2445 O   0  0  0  0  0  0  0  0  0  0  0  0
    3.6103   -2.8638    0.3624 O   0  0  0  0  0  0  0  0  0  0  0  0
   -0.3449   -0.1860   -1.5471 O   0  0  0  0  0  0  0  0  0  0  0  0
   -3.0563    0.2904   -0.1583 C   0  0  0  0  0  0  0  0  0  0  0  0
   -4.3586    1.0836   -0.0022 C   0  0  0  0  0  0  0  0  0  0  0  0
   -3.3634   -1.2059   -0.0691 C   0  0  0  0  0  0  0  0  0  0  0  0
   -1.7242   -2.1683    1.1760 H   0  0  0  0  0  0  0  0  0  0  0  0
   -1.3702    1.4668   -1.1259 H   0  0  0  0  0  0  0  0  0  0  0  0
   -5.2472   -0.1639   -0.2345 H   0  0  0  0  0  0  0  0  0  0  0  0
    1.9384   -0.4125    2.2578 H   0  0  0  0  0  0  0  0  0  0  0  0
    0.4188   -1.4025    0.6096 H   0  0  0  0  0  0  0  0  0  0  0  0
   -0.0107    0.8833    1.8703 H   0  0  0  0  0  0  0  0  0  0  0  0
    0.7425    1.6514    0.4988 H   0  0  0  0  0  0  0  0  0  0  0  0
   -4.8673    1.7362   -1.4109 H   0  0  0  0  0  0  0  0  0  0  0  0
   -3.8364   -2.8602    1.5263 H   0  0  0  0  0  0  0  0  0  0  0  0
    0.0890   -0.8270   -1.7445 H   0  0  0  0  0  0  0  0  0  0  0  0
    4.0053    0.7550    1.6733 H   0  0  0  0  0  0  0  0  0  0  0  0
    3.0442    2.5654    0.2788 H   0  0  0  0  0  0  0  0  0  0  0  0
    2.6063    1.3776   -0.9663 H   0  0  0  0  0  0  0  0  0  0  0  0
    4.2999    1.6405   -0.5455 H   0  0  0  0  0  0  0  0  0  0  0  0
    4.6120   -0.8497   -0.0282 H   0  0  0  0  0  0  0  0  0  0  0  0
    2.9226   -1.2171   -0.3868 H   0  0  0  0  0  0  0  0  0  0  0  0
    3.6052   -1.6290    1.1940 H   0  0  0  0  0  0  0  0  0  0  0  0
   -1.6905   -0.6255   -0.5237 H   0  0  0  0  0  0  0  0  0  0  0  0
    1.6759   -0.8471   -0.0836 H   0  0  0  0  0  0  0  0  0  0  0  0
    1.2176   -2.0219   -0.0372 H   0  0  0  0  0  0  0  0  0  0  0  0
    2.2578    2.1655   -0.1608 H   0  0  0  0  0  0  0  0  0  0  0  0
    5.3041   -0.7902    0.4765 H   0  0  0  0  0  0  0  0  0  0  0  0
   -2.0247    1.7627    0.8038 H   0  0  0  0  0  0  0  0  0  0  0  0
    0.0327    1.5574   -0.5657 H   0  0  0  0  0  0  0  0  0  0  0  0
   -0.8786   -0.9546    0.9669 H   0  0  0  0  0  0  0  0  0  0  0  0
   -0.2811    0.4800    1.7618 H   0  0  0  0  0  0  0  0  0  0  0  0
    4.4484    2.6022    0.1381 H   0  0  0  0  0  0  0  0  0  0  0  0
    4.5713   -2.9392    0.4908 H   0  0  0  0  0  0  0  0  0  0  0  0
    0.4320   -0.3715   -2.1017 H   0  0  0  0  0  0  0  0  0  0  0  0
   -2.6596    0.5226   -1.1520 H   0  0  0  0  0  0  0  0  0  0  0  0
   -4.8247    0.9037    0.9730 H   0  0  0  0  0  0  0  0  0  0  0  0
   -5.0795    0.7990   -0.7771 H   0  0  0  0  0  0  0  0  0  0  0  0
   -4.1804    2.1607   -0.1024 H   0  0  0  0  0  0  0  0  0  0  0  0
   -2.4844   -1.8166   -0.2990 H   0  0  0  0  0  0  0  0  0  0  0  0
   -4.1394   -1.4819   -0.7905 H   0  0  0  0  0  0  0  0  0  0  0  0
   -3.7233   -1.4831    0.9281 H   0  0  0  0  0  0  0  0  0  0  0  0
  2  1  2  0
  3  1  1  0
  4  2  1  0
  5  3  2  0
  6  4  2  0
  7  9  1  0
  8  1  1  0
  9  8  1  0
 10  5  1  0
 11  4  1  0
 12  8  1  0
 13  7  1  0
 14 13  1  0
 15 13  1  0
  6  5  1  0
 17 16  2  0
 18 16  2  0
 19 16  1  0
 20 16  1  0
 22 21  2  0
 23 21  1  0
 24 22  1  0
 25 23  2  0
 26 24  2  0
 27 29  1  0
 28 21  1  0
 29 28  1  0
 30 25  1  0
 31 24  1  0
 32 28  1  0
 33 27  1  0
 34 33  1  0
 35 33  1  0
 26 25  1  0
  2 36  1  0
  3 37  1  0
  6 38  1  0
  7 39  1  0
  8 40  1  1
  9 41  1  0
  9 42  1  0
 10 43  1  0
 11 44  1  0
 12 45  1  0
 13 46  1  0
 14 47  1  0
 14 48  1  0
 14 49  1  0
 15 50  1  0
 15 51  1  0
 15 52  1  0
 19 53  1  0
 20 54  1  0
 22 55  1  0
 23 56  1  0
 26 57  1  0
 27 58  1  0
 28 59  1  6
 29 60  1  0
 29 61  1  0
 30 62  1  0
 31 63  1  0
 32 64  1  0
 33 65  1  0
 34 66  1  0
 34 67  1  0
 34 68  1  0
 35 69  1  0
 35 70  1  0
 35 71  1  0
M  END
$$$$
