
     RDKit          3D

 71 70  0  0  0  0  0  0  0  0999 V2000
   -1.5707    0.2320   -0.3194 C   0  0  0  0  0  0  0  0  0  0  0  0
   -2.5696    1.0784    0.1884 C   0  0  0  0  0  0  0  0  0  0  0  0
   -1.9483   -1.0205   -0.8320 C   0  0  0  0  0  0  0  0  0  0  0  0
   -3.9034    0.6729    0.1755 C   0  0  0  0  0  0  0  0  0  0  0  0
   -3.2858   -1.4076   -0.8315 C   0  0  0  0  0  0  0  0  0  0  0  0
   -4.2722   -0.5686   -0.3288 C   0  0  0  0  0  0  0  0  0  0  0  0
    2.0255    0.4637    1.0406 N   0  0  0  0  0  0  0  0  0  0  0  0
   -0.1083    0.6225   -0.3042 C   0  0  2  0  0  0  0  0  0  0  0  0
    0.6574   -0.0647    0.8540 C   0  0  0  0  0  0  0  0  0  0  0  0
   -3.5898   -2.6364   -1.3398 O   0  0  0  0  0  0  0  0  0  0  0  0
   -4.8915    1.4817    0.6581 O   0  0  0  0  0  0  0  0  0  0  0  0
    0.0422    2.0413   -0.1711 O   0  0  0  0  0  0  0  0  0  0  0  0
    2.9605    0.1632   -0.0539 C   0  0  0  0  0  0  0  0  0  0  0  0
    4.2628    0.9157    0.2337 C   0  0  0  0  0  0  0  0  0  0  0  0
    3.2496   -1.3322   -0.2014 C   0  0  0  0  0  0  0  0  0  0  0  0
   -0.0471    0.4169    0.1786 S   0  0  0  0  0  0  0  0  0  0  0  0
   -0.4365    0.5190    1.5618 O   0  0  0  0  0  0  0  0  0  0  0  0
    0.1915    1.5524   -0.6757 O   0  0  0  0  0  0  0  0  0  0  0  0
   -1.1346   -0.5269   -0.5282 O   0  0  0  0  0  0  0  0  0  0  0  0
    1.2648   -0.5023    0.0888 O   0  0  0  0  0  0  0  0  0  0  0  0
   -1.1574   -0.7090    0.3830 C   0  0  0  0  0  0  0  0  0  0  0  0
   -1.5359    0.2862    1.2998 C   0  0  0  0  0  0  0  0  0  0  0  0
   -1.9793   -0.9481   -0.7299 C   0  0  0  0  0  0  0  0  0  0  0  0
   -2.6994    1.0243    1.0875 C   0  0  0  0  0  0  0  0  0  0  0  0
   -3.1368   -0.1987   -0.9224 C   0  0  0  0  0  0  0  0  0  0  0  0
   -3.5048    0.7919   -0.0206 C   0  0  0  0  0  0  0  0  0  0  0  0
    1.5031   -0.2433   -1.1272 N   0  0  0  0  0  0  0  0  0  0  0  0
    0.1039   -1.5184    0.6193 C   0  0  2  0  0  0  0  0  0  0  0  0
    1.0997   -1.5413   -0.5741 C   0  0  0  0  0  0  0  0  0  0  0  0
   -3.8935   -0.4743   -2.0227 O   0  0  0  0  0  0  0  0  0  0  0  0
   -3.0898    1.9990    1.9590 O   0  0  0  0  0  0  0  0  0  0  0  0
   -0.2492   -2.8650    0.9539 O   0  0  0  0  0  0  0  0  0  0  0  0
    2.7643    0.2930   -0.6178 C   0  0  0  0  0  0  0  0  0  0  0  0
    3.1229    1.5144   -1.4685 C   0  0  0  0  0  0  0  0  0  0  0  0
    2.7071    0.6916    0.8556 C   0  0  0  0  0  0  0  0  0  0  0  0
   -2.2940    2.0519    0.5867 H   0  0  0  0  0  0  0  0  0  0  0  0
   -1.2033   -1.7020   -1.2362 H   0  0  0  0  0  0  0  0  0  0  0  0
   -5.3177   -0.8556   -0.3238 H   0  0  0  0  0  0  0  0  0  0  0  0
    2.4003    0.0795    1.9102 H   0  0  0  0  0  0  0  0  0  0  0  0
    0.3326    0.3524   -1.2701 H   0  0  0  0  0  0  0  0  0  0  0  0
    0.6554   -1.1547    0.7438 H   0  0  0  0  0  0  0  0  0  0  0  0
    0.1244    0.1470    1.7902 H   0  0  0  0  0  0  0  0  0  0  0  0
   -4.5519   -2.7609   -1.2825 H   0  0  0  0  0  0  0  0  0  0  0  0
   -4.4891    2.3256    0.9247 H   0  0  0  0  0  0  0  0  0  0  0  0
    0.9316    2.1482    0.2250 H   0  0  0  0  0  0  0  0  0  0  0  0
    2.5693    0.5483   -1.0021 H   0  0  0  0  0  0  0  0  0  0  0  0
    4.7273    0.5786    1.1673 H   0  0  0  0  0  0  0  0  0  0  0  0
    4.9857    0.7614   -0.5753 H   0  0  0  0  0  0  0  0  0  0  0  0
    4.0839    1.9941    0.3128 H   0  0  0  0  0  0  0  0  0  0  0  0
    2.3614   -1.8843   -0.5243 H   0  0  0  0  0  0  0  0  0  0  0  0
    3.5993   -1.7684    0.7413 H   0  0  0  0  0  0  0  0  0  0  0  0
    4.0262   -1.5022   -0.9558 H   0  0  0  0  0  0  0  0  0  0  0  0
   -1.5046   -1.1107    0.1661 H   0  0  0  0  0  0  0  0  0  0  0  0
    1.6664   -0.3483   -0.7914 H   0  0  0  0  0  0  0  0  0  0  0  0
   -0.9181    0.4781    2.1727 H   0  0  0  0  0  0  0  0  0  0  0  0
   -1.7239   -1.7182   -1.4550 H   0  0  0  0  0  0  0  0  0  0  0  0
   -4.4046    1.3813   -0.1591 H   0  0  0  0  0  0  0  0  0  0  0  0
    0.7478    0.4377   -1.0449 H   0  0  0  0  0  0  0  0  0  0  0  0
    0.6204   -1.1211    1.4981 H   0  0  0  0  0  0  0  0  0  0  0  0
    1.9758   -2.1462   -0.3041 H   0  0  0  0  0  0  0  0  0  0  0  0
    0.6357   -2.1049   -1.3940 H   0  0  0  0  0  0  0  0  0  0  0  0
   -4.6447    0.1411   -2.0440 H   0  0  0  0  0  0  0  0  0  0  0  0
   -2.4543    2.0404    2.6922 H   0  0  0  0  0  0  0  0  0  0  0  0
   -1.2169   -2.9102    1.0433 H   0  0  0  0  0  0  0  0  0  0  0  0
    3.5606   -0.4482   -0.7573 H   0  0  0  0  0  0  0  0  0  0  0  0
    3.1960    1.2474   -2.5289 H   0  0  0  0  0  0  0  0  0  0  0  0
    4.0916    1.9266   -1.1654 H   0  0  0  0  0  0  0  0  0  0  0  0
    2.3740    2.3084   -1.3701 H   0  0  0  0  0  0  0  0  0  0  0  0
    2.6348   -0.1880    1.5014 H   0  0  0  0  0  0  0  0  0  0  0  0
    3.6170    1.2271    1.1486 H   0  0  0  0  0  0  0  0  0  0  0  0
    1.8539    1.3466    1.0629 H   0  0  0  0  0  0  0  0  0  0  0  0
  2  1  2  0
  3  1  1  0
  4  2  1  0
  5  3  2  0
  6  4  2  0
  7  9  1  0
  8  1  1  0
  9  8  1  0
 10  5  1  0
 11  4  1  0
 12  8  1  0
 13  7  1  0
 14 13  1  0
 15 13  1  0
  6  5  1  0
 17 16  2  0
 18 16  2  0
 19 16  1  0
 20 16  1  0
 22 21  2  0
 23 21  1  0
 24 22  1  0
 25 23  2  0
 26 24  2  0
 27 29  1  0
 28 21  1  0
 29 28  1  0
 30 25  1  0
 31 24  1  0
 32 28  1  0
 33 27  1  0
 34 33  1  0
 35 33  1  0
 26 25  1  0
  2 36  1  0
  3 37  1  0
  6 38  1  0
  7 39  1  0
  8 40  1  6
  9 41  1  0
  9 42  1  0
 10 43  1  0
 11 44  1  0
 12 45  1  0
 13 46  1  0
 14 47  1  0
 14 48  1  0
 14 49  1  0
 15 50  1  0
 15 51  1  0
 15 52  1  0
 19 53  1  0
 20 54  1  0
 22 55  1  0
 23 56  1  0
 26 57  1  0
 27 58  1  0
 28 59  1  1
 29 60  1  0
 29 61  1  0
 30 62  1  0
 31 63  1  0
 32 64  1  0
 33 65  1  0
 34 66  1  0
 34 67  1  0
 34 68  1  0
 35 69  1  0
 35 70  1  0
 35 71  1  0
M  END
$$$$
