
     RDKit          3D

 71 70  0  0  0  0  0  0  0  0999 V2000
    1.6129   -0.2125    0.1552 C   0  0  0  0  0  0  0  0  0  0  0  0
    2.3032    0.9170   -0.3207 C   0  0  0  0  0  0  0  0  0  0  0  0
    2.3046   -1.4306    0.2755 C   0  0  0  0  0  0  0  0  0  0  0  0
    3.6547    0.8239   -0.6460 C   0  0  0  0  0  0  0  0  0  0  0  0
    3.6568   -1.5007   -0.0573 C   0  0  0  0  0  0  0  0  0  0  0  0
    4.3369   -0.3793   -0.5163 C   0  0  0  0  0  0  0  0  0  0  0  0
   -2.1398   -0.6956   -0.5015 N   0  0  0  0  0  0  0  0  0  0  0  0
    0.1416   -0.1393    0.5112 C   0  0  2  0  0  0  0  0  0  0  0  0
   -0.7555   -0.2474   -0.7489 C   0  0  0  0  0  0  0  0  0  0  0  0
    4.3556   -2.6683    0.0558 O   0  0  0  0  0  0  0  0  0  0  0  0
    4.3499    1.9090   -1.0950 O   0  0  0  0  0  0  0  0  0  0  0  0
   -0.0925    1.1025    1.1818 O   0  0  0  0  0  0  0  0  0  0  0  0
   -2.9477    0.2015    0.3362 C   0  0  0  0  0  0  0  0  0  0  0  0
   -3.2428    1.5388   -0.3433 C   0  0  0  0  0  0  0  0  0  0  0  0
   -4.2644   -0.5170    0.6435 C   0  0  0  0  0  0  0  0  0  0  0  0
   -0.0660    0.3156    0.2709 S   0  0  0  0  0  0  0  0  0  0  0  0
   -1.0830    1.2854   -0.0492 O   0  0  0  0  0  0  0  0  0  0  0  0
    0.6688    0.3046    1.5105 O   0  0  0  0  0  0  0  0  0  0  0  0
    1.0242    0.3182   -0.9052 O   0  0  0  0  0  0  0  0  0  0  0  0
   -0.7442   -1.1239    0.0720 O   0  0  0  0  0  0  0  0  0  0  0  0
   -1.7592   -0.4563   -0.2977 C   0  0  0  0  0  0  0  0  0  0  0  0
   -2.0930   -1.3205    0.7610 C   0  0  0  0  0  0  0  0  0  0  0  0
   -2.6900    0.5167   -0.6935 C   0  0  0  0  0  0  0  0  0  0  0  0
   -3.3221   -1.1943    1.4066 C   0  0  0  0  0  0  0  0  0  0  0  0
   -3.9158    0.6207   -0.0381 C   0  0  0  0  0  0  0  0  0  0  0  0
   -4.2348   -0.2229    1.0170 C   0  0  0  0  0  0  0  0  0  0  0  0
    1.9880    0.1546   -0.8128 N   0  0  0  0  0  0  0  0  0  0  0  0
   -0.3968   -0.5618   -0.9493 C   0  0  2  0  0  0  0  0  0  0  0  0
    0.6718    0.2143   -0.1432 C   0  0  0  0  0  0  0  0  0  0  0  0
   -4.8360    1.5568   -0.4069 O   0  0  0  0  0  0  0  0  0  0  0  0
   -3.6592   -2.0053    2.4496 O   0  0  0  0  0  0  0  0  0  0  0  0
   -0.4402   -0.0678   -2.2927 O   0  0  0  0  0  0  0  0  0  0  0  0
    3.0710    0.7252    0.0064 C   0  0  0  0  0  0  0  0  0  0  0  0
    4.3241    0.8327   -0.8670 C   0  0  0  0  0  0  0  0  0  0  0  0
    3.3828   -0.1339    1.2343 C   0  0  0  0  0  0  0  0  0  0  0  0
    1.7743    1.8617   -0.4277 H   0  0  0  0  0  0  0  0  0  0  0  0
    1.7802   -2.3149    0.6284 H   0  0  0  0  0  0  0  0  0  0  0  0
    5.3909   -0.4417   -0.7689 H   0  0  0  0  0  0  0  0  0  0  0  0
   -2.6055   -0.8260   -1.3985 H   0  0  0  0  0  0  0  0  0  0  0  0
   -0.1063   -0.9440    1.2149 H   0  0  0  0  0  0  0  0  0  0  0  0
   -0.7594    0.7021   -1.2969 H   0  0  0  0  0  0  0  0  0  0  0  0
   -0.3211   -0.9933   -1.4250 H   0  0  0  0  0  0  0  0  0  0  0  0
    3.7577   -3.3597    0.3864 H   0  0  0  0  0  0  0  0  0  0  0  0
    3.7556    2.6760   -1.0990 H   0  0  0  0  0  0  0  0  0  0  0  0
    0.3019    1.0100    2.0640 H   0  0  0  0  0  0  0  0  0  0  0  0
   -2.4558    0.3745    1.2996 H   0  0  0  0  0  0  0  0  0  0  0  0
   -2.3336    2.1274   -0.4910 H   0  0  0  0  0  0  0  0  0  0  0  0
   -3.9261    2.1408    0.2648 H   0  0  0  0  0  0  0  0  0  0  0  0
   -3.7165    1.3882   -1.3188 H   0  0  0  0  0  0  0  0  0  0  0  0
   -4.8956    0.0963    1.2954 H   0  0  0  0  0  0  0  0  0  0  0  0
   -4.0821   -1.4659    1.1593 H   0  0  0  0  0  0  0  0  0  0  0  0
   -4.8321   -0.7334   -0.2682 H   0  0  0  0  0  0  0  0  0  0  0  0
    1.8223   -0.1309   -0.5642 H   0  0  0  0  0  0  0  0  0  0  0  0
   -1.6220   -0.9691   -0.3347 H   0  0  0  0  0  0  0  0  0  0  0  0
   -1.3807   -2.0732    1.0825 H   0  0  0  0  0  0  0  0  0  0  0  0
   -2.4422    1.1902   -1.5087 H   0  0  0  0  0  0  0  0  0  0  0  0
   -5.1882   -0.1277    1.5276 H   0  0  0  0  0  0  0  0  0  0  0  0
    1.9117    0.7152   -1.6628 H   0  0  0  0  0  0  0  0  0  0  0  0
   -0.1233   -1.6220   -1.0134 H   0  0  0  0  0  0  0  0  0  0  0  0
    0.3733    1.2655   -0.0481 H   0  0  0  0  0  0  0  0  0  0  0  0
    0.7195   -0.2124    0.8638 H   0  0  0  0  0  0  0  0  0  0  0  0
   -4.5267    1.9839   -1.2210 H   0  0  0  0  0  0  0  0  0  0  0  0
   -2.9508   -2.6555    2.5843 H   0  0  0  0  0  0  0  0  0  0  0  0
    0.3741   -0.4033   -2.7034 H   0  0  0  0  0  0  0  0  0  0  0  0
    2.7977    1.7387    0.3257 H   0  0  0  0  0  0  0  0  0  0  0  0
    5.1455    1.2892   -0.3068 H   0  0  0  0  0  0  0  0  0  0  0  0
    4.1389    1.4559   -1.7482 H   0  0  0  0  0  0  0  0  0  0  0  0
    4.6585   -0.1531   -1.2091 H   0  0  0  0  0  0  0  0  0  0  0  0
    3.5249   -1.1861    0.9608 H   0  0  0  0  0  0  0  0  0  0  0  0
    2.5772   -0.0742    1.9779 H   0  0  0  0  0  0  0  0  0  0  0  0
    4.2999    0.2107    1.7254 H   0  0  0  0  0  0  0  0  0  0  0  0
  2  1  2  0
  3  1  1  0
  4  2  1  0
  5  3  2  0
  6  4  2  0
  7  9  1  0
  8  1  1  0
  9  8  1  0
 10  5  1  0
 11  4  1  0
 12  8  1  0
 13  7  1  0
 14 13  1  0
 15 13  1  0
  6  5  1  0
 17 16  2  0
 18 16  2  0
 19 16  1  0
 20 16  1  0
 22 21  2  0
 23 21  1  0
 24 22  1  0
 25 23  2  0
 26 24  2  0
 27 29  1  0
 28 21  1  0
 29 28  1  0
 30 25  1  0
 31 24  1  0
 32 28  1  0
 33 27  1  0
 34 33  1  0
 35 33  1  0
 26 25  1  0
  2 36  1  0
  3 37  1  0
  6 38  1  0
  7 39  1  0
  8 40  1  1
  9 41  1  0
  9 42  1  0
 10 43  1  0
 11 44  1  0
 12 45  1  0
 13 46  1  0
 14 47  1  0
 14 48  1  0
 14 49  1  0
 15 50  1  0
 15 51  1  0
 15 52  1  0
 19 53  1  0
 20 54  1  0
 22 55  1  0
 23 56  1  0
 26 57  1  0
 27 58  1  0
 28 59  1  6
 29 60  1  0
 29 61  1  0
 30 62  1  0
 31 63  1  0
 32 64  1  0
 33 65  1  0
 34 66  1  0
 34 67  1  0
 34 68  1  0
 35 69  1  0
 35 70  1  0
 35 71  1  0
M  END
$$$$
