
     RDKit          3D

 71 70  0  0  0  0  0  0  0  0999 V2000
   -1.5504    0.0268   -0.1905 C   0  0  0  0  0  0  0  0  0  0  0  0
   -2.5613   -0.9406   -0.3040 C   0  0  0  0  0  0  0  0  0  0  0  0
   -1.9117    1.3542    0.0969 C   0  0  0  0  0  0  0  0  0  0  0  0
   -3.8966   -0.5836   -0.1362 C   0  0  0  0  0  0  0  0  0  0  0  0
   -3.2549    1.6880    0.2614 C   0  0  0  0  0  0  0  0  0  0  0  0
   -4.2542    0.7290    0.1451 C   0  0  0  0  0  0  0  0  0  0  0  0
    1.9754   -1.0070    1.0143 N   0  0  0  0  0  0  0  0  0  0  0  0
   -0.0971   -0.3641   -0.3737 C   0  0  2  0  0  0  0  0  0  0  0  0
    0.7018   -0.2630    0.9549 C   0  0  0  0  0  0  0  0  0  0  0  0
   -3.6370    2.9669    0.5413 O   0  0  0  0  0  0  0  0  0  0  0  0
   -4.8352   -1.5668   -0.2551 O   0  0  0  0  0  0  0  0  0  0  0  0
    0.4759    0.4777   -1.3794 O   0  0  0  0  0  0  0  0  0  0  0  0
    3.0091   -0.5571    0.0723 C   0  0  0  0  0  0  0  0  0  0  0  0
    3.4682    0.8782    0.3366 C   0  0  0  0  0  0  0  0  0  0  0  0
    4.2051   -1.5063    0.2082 C   0  0  0  0  0  0  0  0  0  0  0  0
   -0.3067   -0.2426    0.1991 S   0  0  0  0  0  0  0  0  0  0  0  0
   -1.6571   -0.2656   -0.3045 O   0  0  0  0  0  0  0  0  0  0  0  0
    0.0294   -0.5696    1.5623 O   0  0  0  0  0  0  0  0  0  0  0  0
    0.2539    1.2338   -0.0828 O   0  0  0  0  0  0  0  0  0  0  0  0
    0.6307   -1.1235   -0.7603 O   0  0  0  0  0  0  0  0  0  0  0  0
    1.1750   -0.6259    0.4801 C   0  0  0  0  0  0  0  0  0  0  0  0
    1.6847    0.2321    1.4684 C   0  0  0  0  0  0  0  0  0  0  0  0
    1.8962   -0.7760   -0.7181 C   0  0  0  0  0  0  0  0  0  0  0  0
    2.8725    0.9265    1.2534 C   0  0  0  0  0  0  0  0  0  0  0  0
    3.0806   -0.0669   -0.9137 C   0  0  0  0  0  0  0  0  0  0  0  0
    3.5786    0.7839    0.0655 C   0  0  0  0  0  0  0  0  0  0  0  0
   -1.7491    0.5451    0.6209 N   0  0  0  0  0  0  0  0  0  0  0  0
   -0.0889   -1.4348    0.7007 C   0  0  2  0  0  0  0  0  0  0  0  0
   -1.2941   -0.6693    1.3146 C   0  0  0  0  0  0  0  0  0  0  0  0
    3.7967   -0.1909   -2.0689 O   0  0  0  0  0  0  0  0  0  0  0  0
    3.3184    1.7452    2.2501 O   0  0  0  0  0  0  0  0  0  0  0  0
    0.2145   -2.5567    1.5436 O   0  0  0  0  0  0  0  0  0  0  0  0
   -2.1802    0.3470   -0.7652 C   0  0  0  0  0  0  0  0  0  0  0  0
   -3.4574   -0.4872   -0.8731 C   0  0  0  0  0  0  0  0  0  0  0  0
   -2.4091    1.7283   -1.3831 C   0  0  0  0  0  0  0  0  0  0  0  0
   -2.3193   -1.9787   -0.5212 H   0  0  0  0  0  0  0  0  0  0  0  0
   -1.1379    2.1144    0.1810 H   0  0  0  0  0  0  0  0  0  0  0  0
   -5.2904    1.0212    0.2777 H   0  0  0  0  0  0  0  0  0  0  0  0
    1.7858   -1.9944    0.8463 H   0  0  0  0  0  0  0  0  0  0  0  0
   -0.0420   -1.3930   -0.7524 H   0  0  0  0  0  0  0  0  0  0  0  0
    0.0810   -0.6733    1.7634 H   0  0  0  0  0  0  0  0  0  0  0  0
    0.8769    0.7874    1.2189 H   0  0  0  0  0  0  0  0  0  0  0  0
   -2.8421    3.5095    0.6654 H   0  0  0  0  0  0  0  0  0  0  0  0
   -5.7104   -1.1776   -0.0853 H   0  0  0  0  0  0  0  0  0  0  0  0
   -0.2032    0.5970   -2.0674 H   0  0  0  0  0  0  0  0  0  0  0  0
    2.6478   -0.6433   -0.9586 H   0  0  0  0  0  0  0  0  0  0  0  0
    2.6751    1.6022    0.1266 H   0  0  0  0  0  0  0  0  0  0  0  0
    4.3174    1.1349   -0.3043 H   0  0  0  0  0  0  0  0  0  0  0  0
    3.7847    1.0124    1.3772 H   0  0  0  0  0  0  0  0  0  0  0  0
    4.6450   -1.4549    1.2100 H   0  0  0  0  0  0  0  0  0  0  0  0
    3.9099   -2.5434    0.0176 H   0  0  0  0  0  0  0  0  0  0  0  0
    4.9846   -1.2526   -0.5169 H   0  0  0  0  0  0  0  0  0  0  0  0
   -0.5108    1.8479   -0.0270 H   0  0  0  0  0  0  0  0  0  0  0  0
    1.5606   -0.8804   -0.5868 H   0  0  0  0  0  0  0  0  0  0  0  0
    1.1631    0.3668    2.4127 H   0  0  0  0  0  0  0  0  0  0  0  0
    1.5264   -1.4500   -1.4866 H   0  0  0  0  0  0  0  0  0  0  0  0
    4.5050    1.3193   -0.1127 H   0  0  0  0  0  0  0  0  0  0  0  0
   -2.5060    0.9702    1.1587 H   0  0  0  0  0  0  0  0  0  0  0  0
   -0.4102   -1.8625   -0.2557 H   0  0  0  0  0  0  0  0  0  0  0  0
   -1.0376   -0.3844    2.3428 H   0  0  0  0  0  0  0  0  0  0  0  0
   -2.1306   -1.3694    1.4381 H   0  0  0  0  0  0  0  0  0  0  0  0
    3.2915   -0.7392   -2.6907 H   0  0  0  0  0  0  0  0  0  0  0  0
    4.1353    2.1775    1.9489 H   0  0  0  0  0  0  0  0  0  0  0  0
    1.1689   -2.5345    1.7329 H   0  0  0  0  0  0  0  0  0  0  0  0
   -1.3851   -0.1339   -1.3453 H   0  0  0  0  0  0  0  0  0  0  0  0
   -3.7882   -0.5509   -1.9155 H   0  0  0  0  0  0  0  0  0  0  0  0
   -4.2735   -0.0448   -0.2914 H   0  0  0  0  0  0  0  0  0  0  0  0
   -3.3031   -1.5114   -0.5203 H   0  0  0  0  0  0  0  0  0  0  0  0
   -1.5070    2.3459   -1.3125 H   0  0  0  0  0  0  0  0  0  0  0  0
   -2.6591    1.6341   -2.4450 H   0  0  0  0  0  0  0  0  0  0  0  0
   -3.2281    2.2667   -0.8930 H   0  0  0  0  0  0  0  0  0  0  0  0
  2  1  2  0
  3  1  1  0
  4  2  1  0
  5  3  2  0
  6  4  2  0
  7  9  1  0
  8  1  1  0
  9  8  1  0
 10  5  1  0
 11  4  1  0
 12  8  1  0
 13  7  1  0
 14 13  1  0
 15 13  1  0
  6  5  1  0
 17 16  2  0
 18 16  2  0
 19 16  1  0
 20 16  1  0
 22 21  2  0
 23 21  1  0
 24 22  1  0
 25 23  2  0
 26 24  2  0
 27 29  1  0
 28 21  1  0
 29 28  1  0
 30 25  1  0
 31 24  1  0
 32 28  1  0
 33 27  1  0
 34 33  1  0
 35 33  1  0
 26 25  1  0
  2 36  1  0
  3 37  1  0
  6 38  1  0
  7 39  1  0
  8 40  1  6
  9 41  1  0
  9 42  1  0
 10 43  1  0
 11 44  1  0
 12 45  1  0
 13 46  1  0
 14 47  1  0
 14 48  1  0
 14 49  1  0
 15 50  1  0
 15 51  1  0
 15 52  1  0
 19 53  1  0
 20 54  1  0
 22 55  1  0
 23 56  1  0
 26 57  1  0
 27 58  1  0
 28 59  1  6
 29 60  1  0
 29 61  1  0
 30 62  1  0
 31 63  1  0
 32 64  1  0
 33 65  1  0
 34 66  1  0
 34 67  1  0
 34 68  1  0
 35 69  1  0
 35 70  1  0
 35 71  1  0
M  END
$$$$
