
     RDKit          3D

 24 23  0  0  0  0  0  0  0  0999 V2000
   45.3753    3.2276    9.1194 Na  0  0  0  0  0 15  0  0  0  0  0  0
   43.8318    4.7447   12.5661 C   0  0  0  0  0  0  0  0  0  0  0  0
   45.0320    4.7050   12.9497 O   0  0  0  0  0  0  0  0  0  0  0  0
   42.8024    5.1337   13.1905 O   0  0  0  0  0  0  0  0  0  0  0  0
   45.5411    2.8393    8.1436 C   0  0  0  0  0  0  0  0  0  0  0  0
   43.5481    4.2583   11.1428 C   0  0  0  0  0  0  0  0  0  0  0  0
   44.7646    3.7802   10.3550 C   0  0  0  0  0  0  0  0  0  0  0  0
   44.3611    3.3200    8.9535 C   0  0  0  0  0  0  0  0  0  0  0  0
   45.9346    1.4957    8.1899 C   0  0  0  0  0  0  0  0  0  0  0  0
   46.2754    3.7358    7.3564 C   0  0  0  0  0  0  0  0  0  0  0  0
   47.3728    3.2930    6.6162 C   0  0  0  0  0  0  0  0  0  0  0  0
   47.0324    1.0537    7.4495 C   0  0  0  0  0  0  0  0  0  0  0  0
   47.7497    1.9518    6.6608 C   0  0  0  0  0  0  0  0  0  0  0  0
   42.8166    3.4435   11.2129 H   0  0  0  0  0  0  0  0  0  0  0  0
   43.0658    5.0828   10.6030 H   0  0  0  0  0  0  0  0  0  0  0  0
   45.2542    2.9577   10.8920 H   0  0  0  0  0  0  0  0  0  0  0  0
   45.5023    4.5897   10.2847 H   0  0  0  0  0  0  0  0  0  0  0  0
   43.6185    2.5145    9.0204 H   0  0  0  0  0  0  0  0  0  0  0  0
   43.8654    4.1387    8.4160 H   0  0  0  0  0  0  0  0  0  0  0  0
   45.3899    0.7913    8.8145 H   0  0  0  0  0  0  0  0  0  0  0  0
   45.9974    4.7870    7.3278 H   0  0  0  0  0  0  0  0  0  0  0  0
   47.9374    3.9986    6.0138 H   0  0  0  0  0  0  0  0  0  0  0  0
   47.3310    0.0107    7.4976 H   0  0  0  0  0  0  0  0  0  0  0  0
   48.6081    1.6091    6.0907 H   0  0  0  0  0  0  0  0  0  0  0  0
  3  2  1  0
  4  2  2  0
  5  8  1  0
  6  2  1  0
  7  6  1  0
  8  7  1  0
  9  5  2  0
 10  5  1  0
 11 10  2  0
 12  9  1  0
 13 12  2  0
 13 11  1  0
  6 14  1  0
  6 15  1  0
  7 16  1  0
  7 17  1  0
  8 18  1  0
  8 19  1  0
  9 20  1  0
 10 21  1  0
 11 22  1  0
 12 23  1  0
 13 24  1  0
M  CHG  2   1   1   3  -1
M  END
> <Uni-Dock RESULT> 
ENERGY=   -6.576  LOWER_BOUND=    0.000  UPPER_BOUND=    0.000
INTER + INTRA:          -6.576
INTER:                  -6.576
INTRA:                   0.000
UNBOUND:                 0.000

$$$$

     RDKit          3D

 24 23  0  0  0  0  0  0  0  0999 V2000
   45.3982    3.5666    9.1277 Na  0  0  0  0  0 15  0  0  0  0  0  0
   47.7830    2.4649    6.0192 C   0  0  0  0  0  0  0  0  0  0  0  0
   48.5554    2.0801    6.9382 O   0  0  0  0  0  0  0  0  0  0  0  0
   47.9379    2.4085    4.7647 O   0  0  0  0  0  0  0  0  0  0  0  0
   44.6227    3.9303    9.7577 C   0  0  0  0  0  0  0  0  0  0  0  0
   46.4578    3.0959    6.4537 C   0  0  0  0  0  0  0  0  0  0  0  0
   46.2319    3.1826    7.9605 C   0  0  0  0  0  0  0  0  0  0  0  0
   44.8811    3.8277    8.2738 C   0  0  0  0  0  0  0  0  0  0  0  0
   45.0366    5.0605   10.4745 C   0  0  0  0  0  0  0  0  0  0  0  0
   43.9903    2.8848   10.4430 C   0  0  0  0  0  0  0  0  0  0  0  0
   43.7614    2.9755   11.8169 C   0  0  0  0  0  0  0  0  0  0  0  0
   44.8073    5.1503   11.8486 C   0  0  0  0  0  0  0  0  0  0  0  0
   44.1675    4.1090   12.5190 C   0  0  0  0  0  0  0  0  0  0  0  0
   46.4150    4.1031    6.0205 H   0  0  0  0  0  0  0  0  0  0  0  0
   45.6494    2.5110    5.9973 H   0  0  0  0  0  0  0  0  0  0  0  0
   47.0398    3.7633    8.4236 H   0  0  0  0  0  0  0  0  0  0  0  0
   46.2775    2.1783    8.4006 H   0  0  0  0  0  0  0  0  0  0  0  0
   44.8299    4.8301    7.8294 H   0  0  0  0  0  0  0  0  0  0  0  0
   44.0712    3.2526    7.8065 H   0  0  0  0  0  0  0  0  0  0  0  0
   45.5501    5.8708    9.9620 H   0  0  0  0  0  0  0  0  0  0  0  0
   43.6839    1.9902    9.9055 H   0  0  0  0  0  0  0  0  0  0  0  0
   43.2749    2.1562   12.3380 H   0  0  0  0  0  0  0  0  0  0  0  0
   45.1374    6.0293   12.3943 H   0  0  0  0  0  0  0  0  0  0  0  0
   43.9959    4.1761   13.5893 H   0  0  0  0  0  0  0  0  0  0  0  0
  3  2  1  0
  4  2  2  0
  5  8  1  0
  6  2  1  0
  7  6  1  0
  8  7  1  0
  9  5  2  0
 10  5  1  0
 11 10  2  0
 12  9  1  0
 13 12  2  0
 13 11  1  0
  6 14  1  0
  6 15  1  0
  7 16  1  0
  7 17  1  0
  8 18  1  0
  8 19  1  0
  9 20  1  0
 10 21  1  0
 11 22  1  0
 12 23  1  0
 13 24  1  0
M  CHG  2   1   1   3  -1
M  END
> <Uni-Dock RESULT> 
ENERGY=   -5.502  LOWER_BOUND=    3.415  UPPER_BOUND=    5.798
INTER + INTRA:          -5.502
INTER:                  -5.502
INTRA:                   0.000
UNBOUND:                 0.000

$$$$

     RDKit          3D

 24 23  0  0  0  0  0  0  0  0999 V2000
   45.8928    6.4133   11.5505 Na  0  0  0  0  0 15  0  0  0  0  0  0
   45.1047    4.0051    8.3656 C   0  0  0  0  0  0  0  0  0  0  0  0
   46.1600    4.5166    7.9032 O   0  0  0  0  0  0  0  0  0  0  0  0
   44.3372    3.1428    7.8477 O   0  0  0  0  0  0  0  0  0  0  0  0
   45.8899    6.9410   12.4735 C   0  0  0  0  0  0  0  0  0  0  0  0
   44.6628    4.4763    9.7533 C   0  0  0  0  0  0  0  0  0  0  0  0
   45.5624    5.5174   10.4133 C   0  0  0  0  0  0  0  0  0  0  0  0
   45.0238    5.9108   11.7895 C   0  0  0  0  0  0  0  0  0  0  0  0
   45.6566    8.3083   12.2780 C   0  0  0  0  0  0  0  0  0  0  0  0
   46.9560    6.5434   13.2910 C   0  0  0  0  0  0  0  0  0  0  0  0
   47.7631    7.4963   13.9146 C   0  0  0  0  0  0  0  0  0  0  0  0
   46.4644    9.2605   12.9020 C   0  0  0  0  0  0  0  0  0  0  0  0
   47.5159    8.8545   13.7221 C   0  0  0  0  0  0  0  0  0  0  0  0
   43.6478    4.8815    9.6557 H   0  0  0  0  0  0  0  0  0  0  0  0
   44.5985    3.5900   10.3970 H   0  0  0  0  0  0  0  0  0  0  0  0
   45.6341    6.4052    9.7722 H   0  0  0  0  0  0  0  0  0  0  0  0
   46.5807    5.1195   10.5102 H   0  0  0  0  0  0  0  0  0  0  0  0
   44.0030    6.3033   11.6967 H   0  0  0  0  0  0  0  0  0  0  0  0
   44.9450    5.0237   12.4312 H   0  0  0  0  0  0  0  0  0  0  0  0
   44.8479    8.6338   11.6276 H   0  0  0  0  0  0  0  0  0  0  0  0
   47.1653    5.4857   13.4344 H   0  0  0  0  0  0  0  0  0  0  0  0
   48.5898    7.1758   14.5419 H   0  0  0  0  0  0  0  0  0  0  0  0
   46.2769   10.3177   12.7386 H   0  0  0  0  0  0  0  0  0  0  0  0
   48.1487    9.5955   14.2015 H   0  0  0  0  0  0  0  0  0  0  0  0
  3  2  1  0
  4  2  2  0
  5  8  1  0
  6  2  1  0
  7  6  1  0
  8  7  1  0
  9  5  2  0
 10  5  1  0
 11 10  2  0
 12  9  1  0
 13 12  2  0
 13 11  1  0
  6 14  1  0
  6 15  1  0
  7 16  1  0
  7 17  1  0
  8 18  1  0
  8 19  1  0
  9 20  1  0
 10 21  1  0
 11 22  1  0
 12 23  1  0
 13 24  1  0
M  CHG  2   1   1   3  -1
M  END
> <Uni-Dock RESULT> 
ENERGY=   -3.774  LOWER_BOUND=    3.962  UPPER_BOUND=    6.375
INTER + INTRA:          -3.774
INTER:                  -3.774
INTRA:                   0.000
UNBOUND:                 0.000

$$$$

     RDKit          3D

 24 23  0  0  0  0  0  0  0  0999 V2000
   46.0379    6.1966   12.3786 Na  0  0  0  0  0 15  0  0  0  0  0  0
   43.7259    3.0159   11.3291 C   0  0  0  0  0  0  0  0  0  0  0  0
   43.8081    3.5219   10.1774 O   0  0  0  0  0  0  0  0  0  0  0  0
   43.1215    1.9697   11.7046 O   0  0  0  0  0  0  0  0  0  0  0  0
   46.6254    6.9271   12.8804 C   0  0  0  0  0  0  0  0  0  0  0  0
   44.4527    3.7521   12.4573 C   0  0  0  0  0  0  0  0  0  0  0  0
   45.1949    5.0204   12.0457 C   0  0  0  0  0  0  0  0  0  0  0  0
   45.8798    5.6675   13.2503 C   0  0  0  0  0  0  0  0  0  0  0  0
   45.9789    8.1696   12.9080 C   0  0  0  0  0  0  0  0  0  0  0  0
   47.9659    6.8672   12.4778 C   0  0  0  0  0  0  0  0  0  0  0  0
   48.6517    8.0308   12.1255 C   0  0  0  0  0  0  0  0  0  0  0  0
   46.6655    9.3327   12.5554 C   0  0  0  0  0  0  0  0  0  0  0  0
   48.0024    9.2635   12.1667 C   0  0  0  0  0  0  0  0  0  0  0  0
   43.7069    3.9990   13.2234 H   0  0  0  0  0  0  0  0  0  0  0  0
   45.1609    3.0459   12.9086 H   0  0  0  0  0  0  0  0  0  0  0  0
   44.4924    5.7296   11.5896 H   0  0  0  0  0  0  0  0  0  0  0  0
   45.9399    4.7808   11.2763 H   0  0  0  0  0  0  0  0  0  0  0  0
   45.1380    5.9027   14.0244 H   0  0  0  0  0  0  0  0  0  0  0  0
   46.5786    4.9584   13.7125 H   0  0  0  0  0  0  0  0  0  0  0  0
   44.9317    8.2307   13.1955 H   0  0  0  0  0  0  0  0  0  0  0  0
   48.4757    5.9077   12.4282 H   0  0  0  0  0  0  0  0  0  0  0  0
   49.6892    7.9710   11.8100 H   0  0  0  0  0  0  0  0  0  0  0  0
   46.1521   10.2895   12.5758 H   0  0  0  0  0  0  0  0  0  0  0  0
   48.5341   10.1677   11.8854 H   0  0  0  0  0  0  0  0  0  0  0  0
  3  2  1  0
  4  2  2  0
  5  8  1  0
  6  2  1  0
  7  6  1  0
  8  7  1  0
  9  5  2  0
 10  5  1  0
 11 10  2  0
 12  9  1  0
 13 12  2  0
 13 11  1  0
  6 14  1  0
  6 15  1  0
  7 16  1  0
  7 17  1  0
  8 18  1  0
  8 19  1  0
  9 20  1  0
 10 21  1  0
 11 22  1  0
 12 23  1  0
 13 24  1  0
M  CHG  2   1   1   3  -1
M  END
> <Uni-Dock RESULT> 
ENERGY=   -3.651  LOWER_BOUND=    4.042  UPPER_BOUND=    5.949
INTER + INTRA:          -3.651
INTER:                  -3.651
INTRA:                   0.000
UNBOUND:                 0.000

$$$$

     RDKit          3D

 24 23  0  0  0  0  0  0  0  0999 V2000
   44.3003    6.1632   11.4015 Na  0  0  0  0  0 15  0  0  0  0  0  0
   45.7616    9.8924   12.1233 C   0  0  0  0  0  0  0  0  0  0  0  0
   46.8125    9.2642   12.4235 O   0  0  0  0  0  0  0  0  0  0  0  0
   45.5409   11.1383   12.1338 O   0  0  0  0  0  0  0  0  0  0  0  0
   43.7110    5.3136   11.1537 C   0  0  0  0  0  0  0  0  0  0  0  0
   44.5618    9.0529   11.6776 C   0  0  0  0  0  0  0  0  0  0  0  0
   44.7870    7.5437   11.6511 C   0  0  0  0  0  0  0  0  0  0  0  0
   43.5252    6.8114   11.1923 C   0  0  0  0  0  0  0  0  0  0  0  0
   43.4390    4.5344   12.2856 C   0  0  0  0  0  0  0  0  0  0  0  0
   44.1843    4.6858    9.9941 C   0  0  0  0  0  0  0  0  0  0  0  0
   44.3662    3.3023    9.9624 C   0  0  0  0  0  0  0  0  0  0  0  0
   43.6213    3.1508   12.2530 C   0  0  0  0  0  0  0  0  0  0  0  0
   44.0824    2.5347   11.0907 C   0  0  0  0  0  0  0  0  0  0  0  0
   43.7286    9.2849   12.3528 H   0  0  0  0  0  0  0  0  0  0  0  0
   44.2739    9.3958   10.6759 H   0  0  0  0  0  0  0  0  0  0  0  0
   45.0794    7.1949   12.6497 H   0  0  0  0  0  0  0  0  0  0  0  0
   45.6223    7.3052   10.9803 H   0  0  0  0  0  0  0  0  0  0  0  0
   42.6862    7.0529   11.8576 H   0  0  0  0  0  0  0  0  0  0  0  0
   43.2265    7.1627   10.1962 H   0  0  0  0  0  0  0  0  0  0  0  0
   43.0934    5.0088   13.2014 H   0  0  0  0  0  0  0  0  0  0  0  0
   44.4226    5.2791    9.1142 H   0  0  0  0  0  0  0  0  0  0  0  0
   44.7386    2.8277    9.0592 H   0  0  0  0  0  0  0  0  0  0  0  0
   43.4120    2.5580   13.1385 H   0  0  0  0  0  0  0  0  0  0  0  0
   44.2310    1.4592   11.0680 H   0  0  0  0  0  0  0  0  0  0  0  0
  3  2  1  0
  4  2  2  0
  5  8  1  0
  6  2  1  0
  7  6  1  0
  8  7  1  0
  9  5  2  0
 10  5  1  0
 11 10  2  0
 12  9  1  0
 13 12  2  0
 13 11  1  0
  6 14  1  0
  6 15  1  0
  7 16  1  0
  7 17  1  0
  8 18  1  0
  8 19  1  0
  9 20  1  0
 10 21  1  0
 11 22  1  0
 12 23  1  0
 13 24  1  0
M  CHG  2   1   1   3  -1
M  END
> <Uni-Dock RESULT> 
ENERGY=   -3.621  LOWER_BOUND=    3.543  UPPER_BOUND=    5.024
INTER + INTRA:          -3.621
INTER:                  -3.621
INTRA:                   0.000
UNBOUND:                 0.000

$$$$

     RDKit          3D

 24 23  0  0  0  0  0  0  0  0999 V2000
   44.6880    6.3800   11.5774 Na  0  0  0  0  0 15  0  0  0  0  0  0
   44.4314   10.4366   11.7803 C   0  0  0  0  0  0  0  0  0  0  0  0
   43.2336   10.2320   11.4451 O   0  0  0  0  0  0  0  0  0  0  0  0
   45.0240   11.5301   12.0127 O   0  0  0  0  0  0  0  0  0  0  0  0
   44.9918    5.3611   11.5906 C   0  0  0  0  0  0  0  0  0  0  0  0
   45.3224    9.2019   11.9367 C   0  0  0  0  0  0  0  0  0  0  0  0
   44.6450    7.8616   11.6651 C   0  0  0  0  0  0  0  0  0  0  0  0
   45.6281    6.7051   11.8515 C   0  0  0  0  0  0  0  0  0  0  0  0
   44.9925    4.8128   10.3016 C   0  0  0  0  0  0  0  0  0  0  0  0
   44.3678    4.6568   12.6285 C   0  0  0  0  0  0  0  0  0  0  0  0
   43.7702    3.4192   12.3846 C   0  0  0  0  0  0  0  0  0  0  0  0
   44.3945    3.5750   10.0586 C   0  0  0  0  0  0  0  0  0  0  0  0
   43.7857    2.8773   11.1005 C   0  0  0  0  0  0  0  0  0  0  0  0
   46.1754    9.3230   11.2572 H   0  0  0  0  0  0  0  0  0  0  0  0
   45.7183    9.2090   12.9600 H   0  0  0  0  0  0  0  0  0  0  0  0
   44.2430    7.8497   10.6439 H   0  0  0  0  0  0  0  0  0  0  0  0
   43.7880    7.7360   12.3391 H   0  0  0  0  0  0  0  0  0  0  0  0
   46.4896    6.8312   11.1830 H   0  0  0  0  0  0  0  0  0  0  0  0
   46.0367    6.7181   12.8701 H   0  0  0  0  0  0  0  0  0  0  0  0
   45.4519    5.3575    9.4798 H   0  0  0  0  0  0  0  0  0  0  0  0
   44.3378    5.0794   13.6303 H   0  0  0  0  0  0  0  0  0  0  0  0
   43.2850    2.8851   13.1963 H   0  0  0  0  0  0  0  0  0  0  0  0
   44.3969    3.1626    9.0539 H   0  0  0  0  0  0  0  0  0  0  0  0
   43.3142    1.9179   10.9096 H   0  0  0  0  0  0  0  0  0  0  0  0
  3  2  1  0
  4  2  2  0
  5  8  1  0
  6  2  1  0
  7  6  1  0
  8  7  1  0
  9  5  2  0
 10  5  1  0
 11 10  2  0
 12  9  1  0
 13 12  2  0
 13 11  1  0
  6 14  1  0
  6 15  1  0
  7 16  1  0
  7 17  1  0
  8 18  1  0
  8 19  1  0
  9 20  1  0
 10 21  1  0
 11 22  1  0
 12 23  1  0
 13 24  1  0
M  CHG  2   1   1   3  -1
M  END
> <Uni-Dock RESULT> 
ENERGY=   -3.595  LOWER_BOUND=    3.705  UPPER_BOUND=    5.342
INTER + INTRA:          -3.595
INTER:                  -3.595
INTRA:                   0.000
UNBOUND:                 0.000

$$$$
