
     RDKit          3D

 24 23  0  0  0  0  0  0  0  0999 V2000
   45.2972    3.6340    8.8904 Na  0  0  0  0  0 15  0  0  0  0  0  0
   42.9490    4.8801   11.4624 C   0  0  0  0  0  0  0  0  0  0  0  0
   42.9813    3.6280   11.6118 O   0  0  0  0  0  0  0  0  0  0  0  0
   42.0113    5.6933   11.7031 O   0  0  0  0  0  0  0  0  0  0  0  0
   45.5840    3.2250    8.1138 C   0  0  0  0  0  0  0  0  0  0  0  0
   44.2229    5.5334   10.9183 C   0  0  0  0  0  0  0  0  0  0  0  0
   45.1872    4.6105   10.1787 C   0  0  0  0  0  0  0  0  0  0  0  0
   44.6033    4.1032    8.8566 C   0  0  0  0  0  0  0  0  0  0  0  0
   46.3985    3.7516    7.1037 C   0  0  0  0  0  0  0  0  0  0  0  0
   45.7046    1.8701    8.4496 C   0  0  0  0  0  0  0  0  0  0  0  0
   46.6159    1.0532    7.7793 C   0  0  0  0  0  0  0  0  0  0  0  0
   47.3099    2.9336    6.4333 C   0  0  0  0  0  0  0  0  0  0  0  0
   47.4175    1.5847    6.7702 C   0  0  0  0  0  0  0  0  0  0  0  0
   43.9424    6.3680   10.2638 H   0  0  0  0  0  0  0  0  0  0  0  0
   44.7451    5.9668   11.7804 H   0  0  0  0  0  0  0  0  0  0  0  0
   46.1139    5.1636    9.9780 H   0  0  0  0  0  0  0  0  0  0  0  0
   45.4664    3.7649   10.8196 H   0  0  0  0  0  0  0  0  0  0  0  0
   43.6794    3.5370    9.0237 H   0  0  0  0  0  0  0  0  0  0  0  0
   44.3227    4.9530    8.2215 H   0  0  0  0  0  0  0  0  0  0  0  0
   46.3248    4.8036    6.8396 H   0  0  0  0  0  0  0  0  0  0  0  0
   45.0842    1.4553    9.2433 H   0  0  0  0  0  0  0  0  0  0  0  0
   46.6984    0.0049    8.0506 H   0  0  0  0  0  0  0  0  0  0  0  0
   47.9365    3.3513    5.6509 H   0  0  0  0  0  0  0  0  0  0  0  0
   48.1274    0.9487    6.2500 H   0  0  0  0  0  0  0  0  0  0  0  0
  3  2  1  0
  4  2  2  0
  5  8  1  0
  6  2  1  0
  7  6  1  0
  8  7  1  0
  9  5  2  0
 10  5  1  0
 11 10  2  0
 12  9  1  0
 13 12  2  0
 13 11  1  0
  6 14  1  0
  6 15  1  0
  7 16  1  0
  7 17  1  0
  8 18  1  0
  8 19  1  0
  9 20  1  0
 10 21  1  0
 11 22  1  0
 12 23  1  0
 13 24  1  0
M  CHG  2   1   1   3  -1
M  END
> <Uni-Dock RESULT> 
ENERGY=   -7.005  LOWER_BOUND=    0.000  UPPER_BOUND=    0.000
INTER + INTRA:          -7.005
INTER:                  -7.005
INTRA:                   0.000
UNBOUND:                 0.000

$$$$

     RDKit          3D

 24 23  0  0  0  0  0  0  0  0999 V2000
   45.3070    3.6317    8.9111 Na  0  0  0  0  0 15  0  0  0  0  0  0
   42.9307    4.8844   11.4541 C   0  0  0  0  0  0  0  0  0  0  0  0
   42.9432    3.6305   11.5912 O   0  0  0  0  0  0  0  0  0  0  0  0
   42.0001    5.7081   11.6866 O   0  0  0  0  0  0  0  0  0  0  0  0
   45.6018    3.2266    8.1356 C   0  0  0  0  0  0  0  0  0  0  0  0
   44.2229    5.5254   10.9392 C   0  0  0  0  0  0  0  0  0  0  0  0
   45.1874    4.5967   10.2073 C   0  0  0  0  0  0  0  0  0  0  0  0
   44.6203    4.1108    8.8700 C   0  0  0  0  0  0  0  0  0  0  0  0
   46.4413    3.7520    7.1455 C   0  0  0  0  0  0  0  0  0  0  0  0
   45.6979    1.8668    8.4595 C   0  0  0  0  0  0  0  0  0  0  0  0
   46.6096    1.0442    7.7970 C   0  0  0  0  0  0  0  0  0  0  0  0
   47.3532    2.9281    6.4829 C   0  0  0  0  0  0  0  0  0  0  0  0
   47.4363    1.5746    6.8077 C   0  0  0  0  0  0  0  0  0  0  0  0
   43.9655    6.3704   10.2885 H   0  0  0  0  0  0  0  0  0  0  0  0
   44.7356    5.9429   11.8148 H   0  0  0  0  0  0  0  0  0  0  0  0
   46.1251    5.1388   10.0286 H   0  0  0  0  0  0  0  0  0  0  0  0
   45.4436    3.7409   10.8443 H   0  0  0  0  0  0  0  0  0  0  0  0
   43.6858    3.5558    9.0150 H   0  0  0  0  0  0  0  0  0  0  0  0
   44.3626    4.9708    8.2388 H   0  0  0  0  0  0  0  0  0  0  0  0
   46.3867    4.8075    6.8910 H   0  0  0  0  0  0  0  0  0  0  0  0
   45.0578    1.4528    9.2378 H   0  0  0  0  0  0  0  0  0  0  0  0
   46.6730   -0.0078    8.0589 H   0  0  0  0  0  0  0  0  0  0  0  0
   47.9992    3.3449    5.7159 H   0  0  0  0  0  0  0  0  0  0  0  0
   48.1466    0.9340    6.2936 H   0  0  0  0  0  0  0  0  0  0  0  0
  3  2  1  0
  4  2  2  0
  5  8  1  0
  6  2  1  0
  7  6  1  0
  8  7  1  0
  9  5  2  0
 10  5  1  0
 11 10  2  0
 12  9  1  0
 13 12  2  0
 13 11  1  0
  6 14  1  0
  6 15  1  0
  7 16  1  0
  7 17  1  0
  8 18  1  0
  8 19  1  0
  9 20  1  0
 10 21  1  0
 11 22  1  0
 12 23  1  0
 13 24  1  0
M  CHG  2   1   1   3  -1
M  END
> <Uni-Dock RESULT> 
ENERGY=   -6.991  LOWER_BOUND=    0.036  UPPER_BOUND=    0.036
INTER + INTRA:          -6.991
INTER:                  -6.991
INTRA:                   0.000
UNBOUND:                 0.000

$$$$

     RDKit          3D

 24 23  0  0  0  0  0  0  0  0999 V2000
   45.1612    3.6573    9.1288 Na  0  0  0  0  0 15  0  0  0  0  0  0
   47.4232    2.0086    6.7105 C   0  0  0  0  0  0  0  0  0  0  0  0
   47.0836    1.1073    7.5251 O   0  0  0  0  0  0  0  0  0  0  0  0
   48.4902    2.1265    6.0426 O   0  0  0  0  0  0  0  0  0  0  0  0
   44.8785    4.0324    9.9237 C   0  0  0  0  0  0  0  0  0  0  0  0
   46.4074    3.1303    6.4747 C   0  0  0  0  0  0  0  0  0  0  0  0
   45.3465    3.3133    7.5563 C   0  0  0  0  0  0  0  0  0  0  0  0
   45.9444    3.8146    8.8744 C   0  0  0  0  0  0  0  0  0  0  0  0
   44.3304    5.3030   10.1387 C   0  0  0  0  0  0  0  0  0  0  0  0
   44.4084    2.9505   10.6797 C   0  0  0  0  0  0  0  0  0  0  0  0
   43.4155    3.1379   11.6420 C   0  0  0  0  0  0  0  0  0  0  0  0
   43.3371    5.4897   11.1019 C   0  0  0  0  0  0  0  0  0  0  0  0
   42.8808    4.4078   11.8540 C   0  0  0  0  0  0  0  0  0  0  0  0
   46.9475    4.0742    6.3302 H   0  0  0  0  0  0  0  0  0  0  0  0
   45.9047    2.9030    5.5264 H   0  0  0  0  0  0  0  0  0  0  0  0
   44.6031    4.0364    7.1964 H   0  0  0  0  0  0  0  0  0  0  0  0
   44.8065    2.3720    7.7182 H   0  0  0  0  0  0  0  0  0  0  0  0
   46.6858    3.1083    9.2662 H   0  0  0  0  0  0  0  0  0  0  0  0
   46.4860    4.7540    8.7056 H   0  0  0  0  0  0  0  0  0  0  0  0
   44.6766    6.1503    9.5521 H   0  0  0  0  0  0  0  0  0  0  0  0
   44.8199    1.9562   10.5096 H   0  0  0  0  0  0  0  0  0  0  0  0
   43.0608    2.2898   12.2202 H   0  0  0  0  0  0  0  0  0  0  0  0
   42.9190    6.4791   11.2618 H   0  0  0  0  0  0  0  0  0  0  0  0
   42.1071    4.5524   12.6020 H   0  0  0  0  0  0  0  0  0  0  0  0
  3  2  1  0
  4  2  2  0
  5  8  1  0
  6  2  1  0
  7  6  1  0
  8  7  1  0
  9  5  2  0
 10  5  1  0
 11 10  2  0
 12  9  1  0
 13 12  2  0
 13 11  1  0
  6 14  1  0
  6 15  1  0
  7 16  1  0
  7 17  1  0
  8 18  1  0
  8 19  1  0
  9 20  1  0
 10 21  1  0
 11 22  1  0
 12 23  1  0
 13 24  1  0
M  CHG  2   1   1   3  -1
M  END
> <Uni-Dock RESULT> 
ENERGY=   -4.912  LOWER_BOUND=    2.975  UPPER_BOUND=    5.367
INTER + INTRA:          -4.912
INTER:                  -4.912
INTRA:                   0.000
UNBOUND:                 0.000

$$$$

     RDKit          3D

 24 23  0  0  0  0  0  0  0  0999 V2000
   45.5473    2.8111    8.7818 Na  0  0  0  0  0 15  0  0  0  0  0  0
   43.6445    4.1480   11.6583 C   0  0  0  0  0  0  0  0  0  0  0  0
   43.8185    5.1276   10.8830 O   0  0  0  0  0  0  0  0  0  0  0  0
   43.5202    4.1322   12.9165 O   0  0  0  0  0  0  0  0  0  0  0  0
   46.2668    2.6558    8.2243 C   0  0  0  0  0  0  0  0  0  0  0  0
   43.5609    2.7670   11.0015 C   0  0  0  0  0  0  0  0  0  0  0  0
   44.1592    2.6519    9.6024 C   0  0  0  0  0  0  0  0  0  0  0  0
   45.6823    2.8142    9.6092 C   0  0  0  0  0  0  0  0  0  0  0  0
   46.7886    1.4273    7.8005 C   0  0  0  0  0  0  0  0  0  0  0  0
   46.2688    3.7399    7.3367 C   0  0  0  0  0  0  0  0  0  0  0  0
   46.7940    3.6011    6.0514 C   0  0  0  0  0  0  0  0  0  0  0  0
   47.3142    1.2894    6.5144 C   0  0  0  0  0  0  0  0  0  0  0  0
   47.3179    2.3763    5.6408 C   0  0  0  0  0  0  0  0  0  0  0  0
   44.0341    2.0301   11.6623 H   0  0  0  0  0  0  0  0  0  0  0  0
   42.4958    2.5094   10.9489 H   0  0  0  0  0  0  0  0  0  0  0  0
   43.9008    1.6668    9.1928 H   0  0  0  0  0  0  0  0  0  0  0  0
   43.7017    3.3923    8.9344 H   0  0  0  0  0  0  0  0  0  0  0  0
   45.9738    3.7943   10.0049 H   0  0  0  0  0  0  0  0  0  0  0  0
   46.1340    2.0737   10.2815 H   0  0  0  0  0  0  0  0  0  0  0  0
   46.7837    0.5737    8.4737 H   0  0  0  0  0  0  0  0  0  0  0  0
   45.8526    4.6954    7.6537 H   0  0  0  0  0  0  0  0  0  0  0  0
   46.7886    4.4502    5.3743 H   0  0  0  0  0  0  0  0  0  0  0  0
   47.7174    0.3329    6.1955 H   0  0  0  0  0  0  0  0  0  0  0  0
   47.7251    2.2688    4.6399 H   0  0  0  0  0  0  0  0  0  0  0  0
  3  2  1  0
  4  2  2  0
  5  8  1  0
  6  2  1  0
  7  6  1  0
  8  7  1  0
  9  5  2  0
 10  5  1  0
 11 10  2  0
 12  9  1  0
 13 12  2  0
 13 11  1  0
  6 14  1  0
  6 15  1  0
  7 16  1  0
  7 17  1  0
  8 18  1  0
  8 19  1  0
  9 20  1  0
 10 21  1  0
 11 22  1  0
 12 23  1  0
 13 24  1  0
M  CHG  2   1   1   3  -1
M  END
> <Uni-Dock RESULT> 
ENERGY=   -4.479  LOWER_BOUND=    1.266  UPPER_BOUND=    2.042
INTER + INTRA:          -4.479
INTER:                  -4.479
INTRA:                   0.000
UNBOUND:                 0.000

$$$$
