
     RDKit          3D

 24 23  0  0  0  0  0  0  0  0999 V2000
   45.3244    3.2247    9.0910 Na  0  0  0  0  0 15  0  0  0  0  0  0
   43.8317    4.7466   12.5655 C   0  0  0  0  0  0  0  0  0  0  0  0
   42.8023    5.1357   13.1898 O   0  0  0  0  0  0  0  0  0  0  0  0
   45.0319    4.7067   12.9492 O   0  0  0  0  0  0  0  0  0  0  0  0
   45.5411    2.8402    8.1434 C   0  0  0  0  0  0  0  0  0  0  0  0
   43.5481    4.2600   11.1423 C   0  0  0  0  0  0  0  0  0  0  0  0
   44.7646    3.7815   10.3546 C   0  0  0  0  0  0  0  0  0  0  0  0
   44.3612    3.3213    8.9531 C   0  0  0  0  0  0  0  0  0  0  0  0
   45.9345    1.4965    8.1900 C   0  0  0  0  0  0  0  0  0  0  0  0
   46.2756    3.7365    7.3562 C   0  0  0  0  0  0  0  0  0  0  0  0
   47.3731    3.2934    6.6162 C   0  0  0  0  0  0  0  0  0  0  0  0
   47.0321    1.0543    7.4497 C   0  0  0  0  0  0  0  0  0  0  0  0
   47.7498    1.9521    6.6610 C   0  0  0  0  0  0  0  0  0  0  0  0
   43.0659    5.0845   10.6022 H   0  0  0  0  0  0  0  0  0  0  0  0
   42.8164    3.4453   11.2125 H   0  0  0  0  0  0  0  0  0  0  0  0
   45.2539    2.9591   10.8918 H   0  0  0  0  0  0  0  0  0  0  0  0
   45.5023    4.5909   10.2843 H   0  0  0  0  0  0  0  0  0  0  0  0
   43.6184    2.5158    9.0201 H   0  0  0  0  0  0  0  0  0  0  0  0
   43.8657    4.1399    8.4155 H   0  0  0  0  0  0  0  0  0  0  0  0
   45.3895    0.7924    8.8147 H   0  0  0  0  0  0  0  0  0  0  0  0
   45.9978    4.7876    7.3274 H   0  0  0  0  0  0  0  0  0  0  0  0
   47.9378    3.9988    6.0137 H   0  0  0  0  0  0  0  0  0  0  0  0
   47.3307    0.0112    7.4981 H   0  0  0  0  0  0  0  0  0  0  0  0
   48.6081    1.6092    6.0910 H   0  0  0  0  0  0  0  0  0  0  0  0
  3  2  1  0
  4  2  2  0
  5  8  1  0
  6  2  1  0
  7  6  1  0
  8  7  1  0
  9  5  2  0
 10  5  1  0
 11 10  2  0
 12  9  1  0
 13 12  2  0
 13 11  1  0
  6 14  1  0
  6 15  1  0
  7 16  1  0
  7 17  1  0
  8 18  1  0
  8 19  1  0
  9 20  1  0
 10 21  1  0
 11 22  1  0
 12 23  1  0
 13 24  1  0
M  CHG  2   1   1   3  -1
M  END
> <Uni-Dock RESULT> 
ENERGY=   -6.575  LOWER_BOUND=    0.000  UPPER_BOUND=    0.000
INTER + INTRA:          -6.575
INTER:                  -6.575
INTRA:                   0.000
UNBOUND:                 0.000

$$$$

     RDKit          3D

 24 23  0  0  0  0  0  0  0  0999 V2000
   45.4833    5.1630   10.4104 Na  0  0  0  0  0 15  0  0  0  0  0  0
   46.7614    7.7939   13.2496 C   0  0  0  0  0  0  0  0  0  0  0  0
   46.5092    8.8513   13.8969 O   0  0  0  0  0  0  0  0  0  0  0  0
   47.7661    7.0355   13.3173 O   0  0  0  0  0  0  0  0  0  0  0  0
   45.0152    4.5928    9.6698 C   0  0  0  0  0  0  0  0  0  0  0  0
   45.6718    7.4043   12.2476 C   0  0  0  0  0  0  0  0  0  0  0  0
   45.9378    6.1333   11.4457 C   0  0  0  0  0  0  0  0  0  0  0  0
   44.7864    5.8451   10.4814 C   0  0  0  0  0  0  0  0  0  0  0  0
   44.5845    3.3481   10.1470 C   0  0  0  0  0  0  0  0  0  0  0  0
   45.6859    4.6547    8.4414 C   0  0  0  0  0  0  0  0  0  0  0  0
   45.9068    3.4952    7.6964 C   0  0  0  0  0  0  0  0  0  0  0  0
   44.8059    2.1891    9.4013 C   0  0  0  0  0  0  0  0  0  0  0  0
   45.4647    2.2629    8.1751 C   0  0  0  0  0  0  0  0  0  0  0  0
   45.5405    8.2484   11.5590 H   0  0  0  0  0  0  0  0  0  0  0  0
   44.7346    7.2922   12.8073 H   0  0  0  0  0  0  0  0  0  0  0  0
   46.0741    5.2856   12.1292 H   0  0  0  0  0  0  0  0  0  0  0  0
   46.8764    6.2375   10.8867 H   0  0  0  0  0  0  0  0  0  0  0  0
   43.8449    5.7466   11.0371 H   0  0  0  0  0  0  0  0  0  0  0  0
   44.6435    6.6940    9.8005 H   0  0  0  0  0  0  0  0  0  0  0  0
   44.0832    3.2794   11.1098 H   0  0  0  0  0  0  0  0  0  0  0  0
   46.0476    5.6099    8.0677 H   0  0  0  0  0  0  0  0  0  0  0  0
   46.4326    3.5552    6.7480 H   0  0  0  0  0  0  0  0  0  0  0  0
   44.4720    1.2291    9.7842 H   0  0  0  0  0  0  0  0  0  0  0  0
   45.6433    1.3601    7.5988 H   0  0  0  0  0  0  0  0  0  0  0  0
  3  2  1  0
  4  2  2  0
  5  8  1  0
  6  2  1  0
  7  6  1  0
  8  7  1  0
  9  5  2  0
 10  5  1  0
 11 10  2  0
 12  9  1  0
 13 12  2  0
 13 11  1  0
  6 14  1  0
  6 15  1  0
  7 16  1  0
  7 17  1  0
  8 18  1  0
  8 19  1  0
  9 20  1  0
 10 21  1  0
 11 22  1  0
 12 23  1  0
 13 24  1  0
M  CHG  2   1   1   3  -1
M  END
> <Uni-Dock RESULT> 
ENERGY=   -4.375  LOWER_BOUND=    2.568  UPPER_BOUND=    3.231
INTER + INTRA:          -4.375
INTER:                  -4.375
INTRA:                   0.000
UNBOUND:                 0.000

$$$$

     RDKit          3D

 24 23  0  0  0  0  0  0  0  0999 V2000
   45.4972    6.6066   11.3530 Na  0  0  0  0  0 15  0  0  0  0  0  0
   44.8638    3.6179    8.6544 C   0  0  0  0  0  0  0  0  0  0  0  0
   44.2604    2.5346    8.4033 O   0  0  0  0  0  0  0  0  0  0  0  0
   45.6715    4.2680    7.9372 O   0  0  0  0  0  0  0  0  0  0  0  0
   45.5485    7.2839   12.1477 C   0  0  0  0  0  0  0  0  0  0  0  0
   44.5481    4.1992   10.0347 C   0  0  0  0  0  0  0  0  0  0  0  0
   45.2565    5.5070   10.3769 C   0  0  0  0  0  0  0  0  0  0  0  0
   44.8658    5.9902   11.7742 C   0  0  0  0  0  0  0  0  0  0  0  0
   44.9561    8.5151   11.8385 C   0  0  0  0  0  0  0  0  0  0  0  0
   46.7968    7.2709   12.7835 C   0  0  0  0  0  0  0  0  0  0  0  0
   47.4328    8.4673   13.1188 C   0  0  0  0  0  0  0  0  0  0  0  0
   45.5929    9.7110   12.1743 C   0  0  0  0  0  0  0  0  0  0  0  0
   46.8298    9.6872   12.8165 C   0  0  0  0  0  0  0  0  0  0  0  0
   44.8093    3.4378   10.7803 H   0  0  0  0  0  0  0  0  0  0  0  0
   43.4623    4.3483   10.0887 H   0  0  0  0  0  0  0  0  0  0  0  0
   45.0024    6.2720    9.6322 H   0  0  0  0  0  0  0  0  0  0  0  0
   46.3433    5.3655   10.3206 H   0  0  0  0  0  0  0  0  0  0  0  0
   43.7783    6.1266   11.8356 H   0  0  0  0  0  0  0  0  0  0  0  0
   45.1129    5.2245   12.5207 H   0  0  0  0  0  0  0  0  0  0  0  0
   43.9983    8.5430   11.3239 H   0  0  0  0  0  0  0  0  0  0  0  0
   47.2814    6.3237   13.0093 H   0  0  0  0  0  0  0  0  0  0  0  0
   48.4028    8.4443   13.6068 H   0  0  0  0  0  0  0  0  0  0  0  0
   45.1261   10.6594   11.9246 H   0  0  0  0  0  0  0  0  0  0  0  0
   47.3283   10.6177   13.0708 H   0  0  0  0  0  0  0  0  0  0  0  0
  3  2  1  0
  4  2  2  0
  5  8  1  0
  6  2  1  0
  7  6  1  0
  8  7  1  0
  9  5  2  0
 10  5  1  0
 11 10  2  0
 12  9  1  0
 13 12  2  0
 13 11  1  0
  6 14  1  0
  6 15  1  0
  7 16  1  0
  7 17  1  0
  8 18  1  0
  8 19  1  0
  9 20  1  0
 10 21  1  0
 11 22  1  0
 12 23  1  0
 13 24  1  0
M  CHG  2   1   1   3  -1
M  END
> <Uni-Dock RESULT> 
ENERGY=   -3.691  LOWER_BOUND=    3.969  UPPER_BOUND=    6.331
INTER + INTRA:          -3.691
INTER:                  -3.691
INTRA:                   0.000
UNBOUND:                 0.000

$$$$

     RDKit          3D

 24 23  0  0  0  0  0  0  0  0999 V2000
   44.9565    6.5956   11.1628 Na  0  0  0  0  0 15  0  0  0  0  0  0
   44.9242    3.2450    8.8415 C   0  0  0  0  0  0  0  0  0  0  0  0
   44.4874    2.0663    8.6976 O   0  0  0  0  0  0  0  0  0  0  0  0
   45.6928    3.9094    8.0953 O   0  0  0  0  0  0  0  0  0  0  0  0
   44.8587    7.3642   11.8645 C   0  0  0  0  0  0  0  0  0  0  0  0
   44.4314    3.9389   10.1137 C   0  0  0  0  0  0  0  0  0  0  0  0
   44.9357    5.3637   10.3249 C   0  0  0  0  0  0  0  0  0  0  0  0
   44.3802    5.9530   11.6221 C   0  0  0  0  0  0  0  0  0  0  0  0
   44.1367    8.4553   11.3638 C   0  0  0  0  0  0  0  0  0  0  0  0
   46.0460    7.6008   12.5695 C   0  0  0  0  0  0  0  0  0  0  0  0
   46.4938    8.9053   12.7841 C   0  0  0  0  0  0  0  0  0  0  0  0
   44.5853    9.7595   11.5789 C   0  0  0  0  0  0  0  0  0  0  0  0
   45.7623    9.9846   12.2910 C   0  0  0  0  0  0  0  0  0  0  0  0
   44.7316    3.3164   10.9659 H   0  0  0  0  0  0  0  0  0  0  0  0
   43.3344    3.9417   10.0834 H   0  0  0  0  0  0  0  0  0  0  0  0
   44.6419    5.9909    9.4735 H   0  0  0  0  0  0  0  0  0  0  0  0
   46.0328    5.3684   10.3519 H   0  0  0  0  0  0  0  0  0  0  0  0
   43.2827    5.9440   11.6007 H   0  0  0  0  0  0  0  0  0  0  0  0
   44.6670    5.3244   12.4749 H   0  0  0  0  0  0  0  0  0  0  0  0
   43.2255    8.2881   10.7940 H   0  0  0  0  0  0  0  0  0  0  0  0
   46.6308    6.7640   12.9445 H   0  0  0  0  0  0  0  0  0  0  0  0
   47.4185    9.0758   13.3276 H   0  0  0  0  0  0  0  0  0  0  0  0
   44.0197   10.5971   11.1812 H   0  0  0  0  0  0  0  0  0  0  0  0
   46.1148   10.9989   12.4517 H   0  0  0  0  0  0  0  0  0  0  0  0
  3  2  1  0
  4  2  2  0
  5  8  1  0
  6  2  1  0
  7  6  1  0
  8  7  1  0
  9  5  2  0
 10  5  1  0
 11 10  2  0
 12  9  1  0
 13 12  2  0
 13 11  1  0
  6 14  1  0
  6 15  1  0
  7 16  1  0
  7 17  1  0
  8 18  1  0
  8 19  1  0
  9 20  1  0
 10 21  1  0
 11 22  1  0
 12 23  1  0
 13 24  1  0
M  CHG  2   1   1   3  -1
M  END
> <Uni-Dock RESULT> 
ENERGY=   -3.688  LOWER_BOUND=    3.829  UPPER_BOUND=    6.304
INTER + INTRA:          -3.688
INTER:                  -3.688
INTRA:                   0.000
UNBOUND:                 0.000

$$$$

     RDKit          3D

 24 23  0  0  0  0  0  0  0  0999 V2000
   44.7652    6.3804   11.6300 Na  0  0  0  0  0 15  0  0  0  0  0  0
   44.5037   10.4442   11.8116 C   0  0  0  0  0  0  0  0  0  0  0  0
   45.1111   11.5307   12.0384 O   0  0  0  0  0  0  0  0  0  0  0  0
   43.3017   10.2538   11.4827 O   0  0  0  0  0  0  0  0  0  0  0  0
   44.9997    5.3616   11.6306 C   0  0  0  0  0  0  0  0  0  0  0  0
   45.3799    9.1988   11.9664 C   0  0  0  0  0  0  0  0  0  0  0  0
   44.6845    7.8664   11.7011 C   0  0  0  0  0  0  0  0  0  0  0  0
   45.6540    6.6982   11.8853 C   0  0  0  0  0  0  0  0  0  0  0  0
   44.9870    4.8105   10.3427 C   0  0  0  0  0  0  0  0  0  0  0  0
   44.3721    4.6675   12.6731 C   0  0  0  0  0  0  0  0  0  0  0  0
   43.7578    3.4369   12.4350 C   0  0  0  0  0  0  0  0  0  0  0  0
   44.3725    3.5798   10.1056 C   0  0  0  0  0  0  0  0  0  0  0  0
   43.7602    2.8920   11.1520 C   0  0  0  0  0  0  0  0  0  0  0  0
   45.7810    9.2031   12.9876 H   0  0  0  0  0  0  0  0  0  0  0  0
   46.2309    9.3078   11.2822 H   0  0  0  0  0  0  0  0  0  0  0  0
   44.2774    7.8573   10.6820 H   0  0  0  0  0  0  0  0  0  0  0  0
   43.8294    7.7531   12.3796 H   0  0  0  0  0  0  0  0  0  0  0  0
   46.5136    6.8119   11.2122 H   0  0  0  0  0  0  0  0  0  0  0  0
   46.0677    6.7083   12.9018 H   0  0  0  0  0  0  0  0  0  0  0  0
   45.4492    5.3476    9.5176 H   0  0  0  0  0  0  0  0  0  0  0  0
   44.3523    5.0926   13.6740 H   0  0  0  0  0  0  0  0  0  0  0  0
   43.2699    2.9107   13.2503 H   0  0  0  0  0  0  0  0  0  0  0  0
   44.3646    3.1652    9.1018 H   0  0  0  0  0  0  0  0  0  0  0  0
   43.2758    1.9382   10.9657 H   0  0  0  0  0  0  0  0  0  0  0  0
  3  2  1  0
  4  2  2  0
  5  8  1  0
  6  2  1  0
  7  6  1  0
  8  7  1  0
  9  5  2  0
 10  5  1  0
 11 10  2  0
 12  9  1  0
 13 12  2  0
 13 11  1  0
  6 14  1  0
  6 15  1  0
  7 16  1  0
  7 17  1  0
  8 18  1  0
  8 19  1  0
  9 20  1  0
 10 21  1  0
 11 22  1  0
 12 23  1  0
 13 24  1  0
M  CHG  2   1   1   3  -1
M  END
> <Uni-Dock RESULT> 
ENERGY=   -3.594  LOWER_BOUND=    3.731  UPPER_BOUND=    5.369
INTER + INTRA:          -3.594
INTER:                  -3.594
INTRA:                   0.000
UNBOUND:                 0.000

$$$$
