
     RDKit          3D

 24 23  0  0  0  0  0  0  0  0999 V2000
   45.5349    3.0936    9.0372 Na  0  0  0  0  0 15  0  0  0  0  0  0
   44.0266    5.1202   10.8848 C   0  0  0  0  0  0  0  0  0  0  0  0
   44.4333    6.1689   10.3091 O   0  0  0  0  0  0  0  0  0  0  0  0
   42.8643    4.8177   11.2752 O   0  0  0  0  0  0  0  0  0  0  0  0
   45.4479    2.5169    8.3544 C   0  0  0  0  0  0  0  0  0  0  0  0
   45.1069    4.0681   11.1435 C   0  0  0  0  0  0  0  0  0  0  0  0
   44.6712    2.6489   10.7804 C   0  0  0  0  0  0  0  0  0  0  0  0
   44.2784    2.4645    9.3092 C   0  0  0  0  0  0  0  0  0  0  0  0
   46.1917    1.3638    8.0701 C   0  0  0  0  0  0  0  0  0  0  0  0
   45.8155    3.7273    7.7525 C   0  0  0  0  0  0  0  0  0  0  0  0
   46.9005    3.7821    6.8766 C   0  0  0  0  0  0  0  0  0  0  0  0
   47.2754    1.4190    7.1913 C   0  0  0  0  0  0  0  0  0  0  0  0
   47.6288    2.6280    6.5936 C   0  0  0  0  0  0  0  0  0  0  0  0
   46.0267    4.3322   10.6100 H   0  0  0  0  0  0  0  0  0  0  0  0
   45.3468    4.1055   12.2131 H   0  0  0  0  0  0  0  0  0  0  0  0
   43.8109    2.3693   11.4015 H   0  0  0  0  0  0  0  0  0  0  0  0
   45.4784    1.9535   11.0418 H   0  0  0  0  0  0  0  0  0  0  0  0
   43.5198    3.1962    9.0068 H   0  0  0  0  0  0  0  0  0  0  0  0
   43.7912    1.4864    9.1988 H   0  0  0  0  0  0  0  0  0  0  0  0
   45.9277    0.4190    8.5379 H   0  0  0  0  0  0  0  0  0  0  0  0
   45.2636    4.6397    7.9836 H   0  0  0  0  0  0  0  0  0  0  0  0
   47.1763    4.7320    6.4278 H   0  0  0  0  0  0  0  0  0  0  0  0
   47.8457    0.5199    6.9789 H   0  0  0  0  0  0  0  0  0  0  0  0
   48.4751    2.6747    5.9152 H   0  0  0  0  0  0  0  0  0  0  0  0
  3  2  1  0
  4  2  2  0
  5  8  1  0
  6  2  1  0
  7  6  1  0
  8  7  1  0
  9  5  2  0
 10  5  1  0
 11 10  2  0
 12  9  1  0
 13 12  2  0
 13 11  1  0
  6 14  1  0
  6 15  1  0
  7 16  1  0
  7 17  1  0
  8 18  1  0
  8 19  1  0
  9 20  1  0
 10 21  1  0
 11 22  1  0
 12 23  1  0
 13 24  1  0
M  CHG  2   1   1   3  -1
M  END
> <Uni-Dock RESULT> 
ENERGY=   -5.591  LOWER_BOUND=    0.000  UPPER_BOUND=    0.000
INTER + INTRA:          -5.591
INTER:                  -5.591
INTRA:                   0.000
UNBOUND:                 0.000

$$$$

     RDKit          3D

 24 23  0  0  0  0  0  0  0  0999 V2000
   44.8850    3.6742   10.4017 Na  0  0  0  0  0 15  0  0  0  0  0  0
   44.0972    5.6274   12.7168 C   0  0  0  0  0  0  0  0  0  0  0  0
   44.5171    6.6826   12.1630 O   0  0  0  0  0  0  0  0  0  0  0  0
   43.0120    5.4183   13.3278 O   0  0  0  0  0  0  0  0  0  0  0  0
   44.5768    3.1975    9.7059 C   0  0  0  0  0  0  0  0  0  0  0  0
   45.0492    4.4328   12.6302 C   0  0  0  0  0  0  0  0  0  0  0  0
   44.3525    3.1281   12.2458 C   0  0  0  0  0  0  0  0  0  0  0  0
   43.6380    3.1683   10.8890 C   0  0  0  0  0  0  0  0  0  0  0  0
   45.0752    2.0077    9.1584 C   0  0  0  0  0  0  0  0  0  0  0  0
   44.9760    4.4198    9.1501 C   0  0  0  0  0  0  0  0  0  0  0  0
   45.8499    4.4519    8.0626 C   0  0  0  0  0  0  0  0  0  0  0  0
   45.9473    2.0406    8.0684 C   0  0  0  0  0  0  0  0  0  0  0  0
   46.3334    3.2627    7.5198 C   0  0  0  0  0  0  0  0  0  0  0  0
   45.8645    4.6496   11.9310 H   0  0  0  0  0  0  0  0  0  0  0  0
   45.5110    4.3136   13.6180 H   0  0  0  0  0  0  0  0  0  0  0  0
   43.6111    2.8786   13.0152 H   0  0  0  0  0  0  0  0  0  0  0  0
   45.0910    2.3167   12.2554 H   0  0  0  0  0  0  0  0  0  0  0  0
   42.9431    4.0146   10.8320 H   0  0  0  0  0  0  0  0  0  0  0  0
   43.0063    2.2742   10.8015 H   0  0  0  0  0  0  0  0  0  0  0  0
   44.7854    1.0511    9.5852 H   0  0  0  0  0  0  0  0  0  0  0  0
   44.6184    5.3563    9.5810 H   0  0  0  0  0  0  0  0  0  0  0  0
   46.1558    5.4099    7.6521 H   0  0  0  0  0  0  0  0  0  0  0  0
   46.3286    1.1129    7.6527 H   0  0  0  0  0  0  0  0  0  0  0  0
   47.0166    3.2911    6.6765 H   0  0  0  0  0  0  0  0  0  0  0  0
  3  2  1  0
  4  2  2  0
  5  8  1  0
  6  2  1  0
  7  6  1  0
  8  7  1  0
  9  5  2  0
 10  5  1  0
 11 10  2  0
 12  9  1  0
 13 12  2  0
 13 11  1  0
  6 14  1  0
  6 15  1  0
  7 16  1  0
  7 17  1  0
  8 18  1  0
  8 19  1  0
  9 20  1  0
 10 21  1  0
 11 22  1  0
 12 23  1  0
 13 24  1  0
M  CHG  2   1   1   3  -1
M  END
> <Uni-Dock RESULT> 
ENERGY=   -5.345  LOWER_BOUND=    1.454  UPPER_BOUND=    1.768
INTER + INTRA:          -5.345
INTER:                  -5.345
INTRA:                   0.000
UNBOUND:                 0.000

$$$$

     RDKit          3D

 24 23  0  0  0  0  0  0  0  0999 V2000
   44.5915    4.1279    9.8764 Na  0  0  0  0  0 15  0  0  0  0  0  0
   46.4900    3.3087    7.5271 C   0  0  0  0  0  0  0  0  0  0  0  0
   47.0153    4.4462    7.3641 O   0  0  0  0  0  0  0  0  0  0  0  0
   47.0363    2.1711    7.5730 O   0  0  0  0  0  0  0  0  0  0  0  0
   44.4663    4.0958   10.7651 C   0  0  0  0  0  0  0  0  0  0  0  0
   44.9690    3.3201    7.6915 C   0  0  0  0  0  0  0  0  0  0  0  0
   44.4752    2.4312    8.8324 C   0  0  0  0  0  0  0  0  0  0  0  0
   45.0289    2.8072   10.2126 C   0  0  0  0  0  0  0  0  0  0  0  0
   43.2673    4.1002   11.4904 C   0  0  0  0  0  0  0  0  0  0  0  0
   45.1299    5.3094   10.5435 C   0  0  0  0  0  0  0  0  0  0  0  0
   44.6094    6.5033   11.0446 C   0  0  0  0  0  0  0  0  0  0  0  0
   42.7486    5.2948   11.9939 C   0  0  0  0  0  0  0  0  0  0  0  0
   43.4206    6.4961   11.7720 C   0  0  0  0  0  0  0  0  0  0  0  0
   44.6114    4.3470    7.8268 H   0  0  0  0  0  0  0  0  0  0  0  0
   44.5378    2.9630    6.7482 H   0  0  0  0  0  0  0  0  0  0  0  0
   44.7567    1.3915    8.6230 H   0  0  0  0  0  0  0  0  0  0  0  0
   43.3785    2.4554    8.8504 H   0  0  0  0  0  0  0  0  0  0  0  0
   46.1243    2.8560   10.2004 H   0  0  0  0  0  0  0  0  0  0  0  0
   44.7872    1.9997   10.9166 H   0  0  0  0  0  0  0  0  0  0  0  0
   42.7332    3.1691   11.6610 H   0  0  0  0  0  0  0  0  0  0  0  0
   46.0505    5.3273    9.9581 H   0  0  0  0  0  0  0  0  0  0  0  0
   45.1332    7.4355   10.8535 H   0  0  0  0  0  0  0  0  0  0  0  0
   41.8183    5.2871   12.5535 H   0  0  0  0  0  0  0  0  0  0  0  0
   43.0158    7.4271   12.1568 H   0  0  0  0  0  0  0  0  0  0  0  0
  3  2  1  0
  4  2  2  0
  5  8  1  0
  6  2  1  0
  7  6  1  0
  8  7  1  0
  9  5  2  0
 10  5  1  0
 11 10  2  0
 12  9  1  0
 13 12  2  0
 13 11  1  0
  6 14  1  0
  6 15  1  0
  7 16  1  0
  7 17  1  0
  8 18  1  0
  8 19  1  0
  9 20  1  0
 10 21  1  0
 11 22  1  0
 12 23  1  0
 13 24  1  0
M  CHG  2   1   1   3  -1
M  END
> <Uni-Dock RESULT> 
ENERGY=   -4.232  LOWER_BOUND=    2.320  UPPER_BOUND=    4.751
INTER + INTRA:          -4.232
INTER:                  -4.232
INTRA:                   0.000
UNBOUND:                 0.000

$$$$

     RDKit          3D

 24 23  0  0  0  0  0  0  0  0999 V2000
   45.5435    5.6663   12.6511 Na  0  0  0  0  0 15  0  0  0  0  0  0
   46.5298    8.5643   13.3023 C   0  0  0  0  0  0  0  0  0  0  0  0
   45.4354    9.1465   13.0575 O   0  0  0  0  0  0  0  0  0  0  0  0
   47.3218    8.7188   14.2737 O   0  0  0  0  0  0  0  0  0  0  0  0
   45.2751    4.8852   13.0034 C   0  0  0  0  0  0  0  0  0  0  0  0
   46.9499    7.5215   12.2646 C   0  0  0  0  0  0  0  0  0  0  0  0
   47.4479    6.2159   12.8835 C   0  0  0  0  0  0  0  0  0  0  0  0
   46.4195    5.5039   13.7714 C   0  0  0  0  0  0  0  0  0  0  0  0
   45.3844    3.5920   12.4748 C   0  0  0  0  0  0  0  0  0  0  0  0
   44.0922    5.6060   12.7947 C   0  0  0  0  0  0  0  0  0  0  0  0
   43.0357    5.0417   12.0786 C   0  0  0  0  0  0  0  0  0  0  0  0
   44.3257    3.0271   11.7608 C   0  0  0  0  0  0  0  0  0  0  0  0
   43.1510    3.7516   11.5640 C   0  0  0  0  0  0  0  0  0  0  0  0
   46.1242    7.3240   11.5720 H   0  0  0  0  0  0  0  0  0  0  0  0
   47.7566    7.9643   11.6677 H   0  0  0  0  0  0  0  0  0  0  0  0
   48.3374    6.4247   13.4910 H   0  0  0  0  0  0  0  0  0  0  0  0
   47.7750    5.5454   12.0790 H   0  0  0  0  0  0  0  0  0  0  0  0
   46.0273    6.1779   14.5423 H   0  0  0  0  0  0  0  0  0  0  0  0
   46.9309    4.7047   14.3246 H   0  0  0  0  0  0  0  0  0  0  0  0
   46.2998    3.0235   12.6169 H   0  0  0  0  0  0  0  0  0  0  0  0
   44.0005    6.6239   13.1766 H   0  0  0  0  0  0  0  0  0  0  0  0
   42.1305    5.6204   11.9184 H   0  0  0  0  0  0  0  0  0  0  0  0
   44.4215    2.0249   11.3543 H   0  0  0  0  0  0  0  0  0  0  0  0
   42.3290    3.3170   11.0034 H   0  0  0  0  0  0  0  0  0  0  0  0
  3  2  1  0
  4  2  2  0
  5  8  1  0
  6  2  1  0
  7  6  1  0
  8  7  1  0
  9  5  2  0
 10  5  1  0
 11 10  2  0
 12  9  1  0
 13 12  2  0
 13 11  1  0
  6 14  1  0
  6 15  1  0
  7 16  1  0
  7 17  1  0
  8 18  1  0
  8 19  1  0
  9 20  1  0
 10 21  1  0
 11 22  1  0
 12 23  1  0
 13 24  1  0
M  CHG  2   1   1   3  -1
M  END
> <Uni-Dock RESULT> 
ENERGY=   -3.921  LOWER_BOUND=    4.210  UPPER_BOUND=    5.451
INTER + INTRA:          -3.921
INTER:                  -3.921
INTRA:                   0.000
UNBOUND:                 0.000

$$$$

     RDKit          3D

 24 23  0  0  0  0  0  0  0  0999 V2000
   45.0313    6.1128   11.8658 Na  0  0  0  0  0 15  0  0  0  0  0  0
   44.0214    3.2733   11.0214 C   0  0  0  0  0  0  0  0  0  0  0  0
   45.1625    2.7411   10.9155 O   0  0  0  0  0  0  0  0  0  0  0  0
   42.9749    2.8270   11.5695 O   0  0  0  0  0  0  0  0  0  0  0  0
   45.1423    6.6782   12.5545 C   0  0  0  0  0  0  0  0  0  0  0  0
   43.8978    4.6615   10.3900 C   0  0  0  0  0  0  0  0  0  0  0  0
   43.1751    5.6712   11.2809 C   0  0  0  0  0  0  0  0  0  0  0  0
   43.8449    5.9091   12.6401 C   0  0  0  0  0  0  0  0  0  0  0  0
   45.1450    8.0795   12.5573 C   0  0  0  0  0  0  0  0  0  0  0  0
   46.3624    5.9973   12.4535 C   0  0  0  0  0  0  0  0  0  0  0  0
   47.5627    6.7038   12.3655 C   0  0  0  0  0  0  0  0  0  0  0  0
   46.3466    8.7855   12.4722 C   0  0  0  0  0  0  0  0  0  0  0  0
   47.5555    8.0974   12.3776 C   0  0  0  0  0  0  0  0  0  0  0  0
   44.8880    5.0393   10.1118 H   0  0  0  0  0  0  0  0  0  0  0  0
   43.3364    4.5439    9.4550 H   0  0  0  0  0  0  0  0  0  0  0  0
   42.1512    5.3203   11.4612 H   0  0  0  0  0  0  0  0  0  0  0  0
   43.0840    6.6202   10.7379 H   0  0  0  0  0  0  0  0  0  0  0  0
   44.0083    4.9643   13.1722 H   0  0  0  0  0  0  0  0  0  0  0  0
   43.1523    6.4778   13.2750 H   0  0  0  0  0  0  0  0  0  0  0  0
   44.2064    8.6235   12.6228 H   0  0  0  0  0  0  0  0  0  0  0  0
   46.3763    4.9068   12.4231 H   0  0  0  0  0  0  0  0  0  0  0  0
   48.4977    6.1579   12.2775 H   0  0  0  0  0  0  0  0  0  0  0  0
   46.3372    9.8712   12.4739 H   0  0  0  0  0  0  0  0  0  0  0  0
   48.4906    8.6442   12.3046 H   0  0  0  0  0  0  0  0  0  0  0  0
  3  2  1  0
  4  2  2  0
  5  8  1  0
  6  2  1  0
  7  6  1  0
  8  7  1  0
  9  5  2  0
 10  5  1  0
 11 10  2  0
 12  9  1  0
 13 12  2  0
 13 11  1  0
  6 14  1  0
  6 15  1  0
  7 16  1  0
  7 17  1  0
  8 18  1  0
  8 19  1  0
  9 20  1  0
 10 21  1  0
 11 22  1  0
 12 23  1  0
 13 24  1  0
M  CHG  2   1   1   3  -1
M  END
> <Uni-Dock RESULT> 
ENERGY=   -3.875  LOWER_BOUND=    3.535  UPPER_BOUND=    5.471
INTER + INTRA:          -3.875
INTER:                  -3.875
INTRA:                   0.000
UNBOUND:                 0.000

$$$$

     RDKit          3D

 24 23  0  0  0  0  0  0  0  0999 V2000
   45.4334    3.1607    8.7225 Na  0  0  0  0  0 15  0  0  0  0  0  0
   47.0276    1.1617    6.9175 C   0  0  0  0  0  0  0  0  0  0  0  0
   46.9694    0.1776    7.7077 O   0  0  0  0  0  0  0  0  0  0  0  0
   46.8341    1.2026    5.6702 O   0  0  0  0  0  0  0  0  0  0  0  0
   44.6405    3.5622    8.8514 C   0  0  0  0  0  0  0  0  0  0  0  0
   47.3859    2.4954    7.5761 C   0  0  0  0  0  0  0  0  0  0  0  0
   46.5058    3.6563    7.1141 C   0  0  0  0  0  0  0  0  0  0  0  0
   45.0091    3.4643    7.3896 C   0  0  0  0  0  0  0  0  0  0  0  0
   44.3627    4.8043    9.4376 C   0  0  0  0  0  0  0  0  0  0  0  0
   44.5886    2.4098    9.6461 C   0  0  0  0  0  0  0  0  0  0  0  0
   44.2570    2.4965   10.9989 C   0  0  0  0  0  0  0  0  0  0  0  0
   44.0281    4.8898   10.7906 C   0  0  0  0  0  0  0  0  0  0  0  0
   43.9740    3.7356   11.5707 C   0  0  0  0  0  0  0  0  0  0  0  0
   47.3485    2.3999    8.6670 H   0  0  0  0  0  0  0  0  0  0  0  0
   48.4296    2.7141    7.3193 H   0  0  0  0  0  0  0  0  0  0  0  0
   46.6391    3.7980    6.0343 H   0  0  0  0  0  0  0  0  0  0  0  0
   46.8584    4.5790    7.5915 H   0  0  0  0  0  0  0  0  0  0  0  0
   44.6494    2.5131    6.9794 H   0  0  0  0  0  0  0  0  0  0  0  0
   44.4526    4.2385    6.8447 H   0  0  0  0  0  0  0  0  0  0  0  0
   44.4104    5.7097    8.8383 H   0  0  0  0  0  0  0  0  0  0  0  0
   44.8280    1.4379    9.2118 H   0  0  0  0  0  0  0  0  0  0  0  0
   44.2320    1.5927   11.6010 H   0  0  0  0  0  0  0  0  0  0  0  0
   43.8160    5.8574   11.2350 H   0  0  0  0  0  0  0  0  0  0  0  0
   43.7207    3.8003   12.6244 H   0  0  0  0  0  0  0  0  0  0  0  0
  3  2  1  0
  4  2  2  0
  5  8  1  0
  6  2  1  0
  7  6  1  0
  8  7  1  0
  9  5  2  0
 10  5  1  0
 11 10  2  0
 12  9  1  0
 13 12  2  0
 13 11  1  0
  6 14  1  0
  6 15  1  0
  7 16  1  0
  7 17  1  0
  8 18  1  0
  8 19  1  0
  9 20  1  0
 10 21  1  0
 11 22  1  0
 12 23  1  0
 13 24  1  0
M  CHG  2   1   1   3  -1
M  END
> <Uni-Dock RESULT> 
ENERGY=   -3.831  LOWER_BOUND=    2.901  UPPER_BOUND=    4.959
INTER + INTRA:          -3.831
INTER:                  -3.831
INTRA:                   0.000
UNBOUND:                 0.000

$$$$

     RDKit          3D

 24 23  0  0  0  0  0  0  0  0999 V2000
   44.6145    4.5551   10.0970 Na  0  0  0  0  0 15  0  0  0  0  0  0
   43.1611    5.2393   12.7830 C   0  0  0  0  0  0  0  0  0  0  0  0
   42.8097    4.0579   13.0607 O   0  0  0  0  0  0  0  0  0  0  0  0
   43.6730    6.1210   13.5283 O   0  0  0  0  0  0  0  0  0  0  0  0
   45.4127    4.4343    9.7037 C   0  0  0  0  0  0  0  0  0  0  0  0
   42.9288    5.6548   11.3290 C   0  0  0  0  0  0  0  0  0  0  0  0
   44.1180    6.3882   10.7099 C   0  0  0  0  0  0  0  0  0  0  0  0
   45.4205    5.5782   10.6904 C   0  0  0  0  0  0  0  0  0  0  0  0
   45.7806    4.6397    8.3672 C   0  0  0  0  0  0  0  0  0  0  0  0
   45.0195    3.1527   10.1102 C   0  0  0  0  0  0  0  0  0  0  0  0
   45.0025    2.0950    9.2001 C   0  0  0  0  0  0  0  0  0  0  0  0
   45.7661    3.5801    7.4580 C   0  0  0  0  0  0  0  0  0  0  0  0
   45.3783    2.3075    7.8750 C   0  0  0  0  0  0  0  0  0  0  0  0
   42.6638    4.7804   10.7242 H   0  0  0  0  0  0  0  0  0  0  0  0
   42.0546    6.3173   11.3165 H   0  0  0  0  0  0  0  0  0  0  0  0
   44.2992    7.3132   11.2715 H   0  0  0  0  0  0  0  0  0  0  0  0
   43.8529    6.6942    9.6902 H   0  0  0  0  0  0  0  0  0  0  0  0
   45.6692    5.2036   11.6905 H   0  0  0  0  0  0  0  0  0  0  0  0
   46.2459    6.2524   10.4250 H   0  0  0  0  0  0  0  0  0  0  0  0
   46.0766    5.6304    8.0322 H   0  0  0  0  0  0  0  0  0  0  0  0
   44.7045    2.9813   11.1407 H   0  0  0  0  0  0  0  0  0  0  0  0
   44.6847    1.1107    9.5320 H   0  0  0  0  0  0  0  0  0  0  0  0
   46.0518    3.7505    6.4245 H   0  0  0  0  0  0  0  0  0  0  0  0
   45.3598    1.4836    7.1683 H   0  0  0  0  0  0  0  0  0  0  0  0
  3  2  1  0
  4  2  2  0
  5  8  1  0
  6  2  1  0
  7  6  1  0
  8  7  1  0
  9  5  2  0
 10  5  1  0
 11 10  2  0
 12  9  1  0
 13 12  2  0
 13 11  1  0
  6 14  1  0
  6 15  1  0
  7 16  1  0
  7 17  1  0
  8 18  1  0
  8 19  1  0
  9 20  1  0
 10 21  1  0
 11 22  1  0
 12 23  1  0
 13 24  1  0
M  CHG  2   1   1   3  -1
M  END
> <Uni-Dock RESULT> 
ENERGY=   -3.530  LOWER_BOUND=    1.698  UPPER_BOUND=    2.958
INTER + INTRA:          -3.530
INTER:                  -3.530
INTRA:                   0.000
UNBOUND:                 0.000

$$$$

     RDKit          3D

 24 23  0  0  0  0  0  0  0  0999 V2000
   47.3972   10.7003   19.8851 Na  0  0  0  0  0 15  0  0  0  0  0  0
   47.6990   12.9369   17.7167 C   0  0  0  0  0  0  0  0  0  0  0  0
   48.1867   12.1977   16.8154 O   0  0  0  0  0  0  0  0  0  0  0  0
   46.7918   13.8115   17.6343 O   0  0  0  0  0  0  0  0  0  0  0  0
   46.8196   10.1503   20.2978 C   0  0  0  0  0  0  0  0  0  0  0  0
   48.3017   12.7370   19.1087 C   0  0  0  0  0  0  0  0  0  0  0  0
   47.2539   12.6626   20.2188 C   0  0  0  0  0  0  0  0  0  0  0  0
   46.2391   11.5239   20.0557 C   0  0  0  0  0  0  0  0  0  0  0  0
   46.8775    9.6158   21.5919 C   0  0  0  0  0  0  0  0  0  0  0  0
   47.3249    9.3981   19.2295 C   0  0  0  0  0  0  0  0  0  0  0  0
   47.8699    8.1324   19.4496 C   0  0  0  0  0  0  0  0  0  0  0  0
   47.4203    8.3481   21.8108 C   0  0  0  0  0  0  0  0  0  0  0  0
   47.9152    7.6060   20.7393 C   0  0  0  0  0  0  0  0  0  0  0  0
   48.9341   11.8423   19.1215 H   0  0  0  0  0  0  0  0  0  0  0  0
   48.9653   13.5891   19.3004 H   0  0  0  0  0  0  0  0  0  0  0  0
   46.7016   13.6101   20.2531 H   0  0  0  0  0  0  0  0  0  0  0  0
   47.7672   12.5704   21.1840 H   0  0  0  0  0  0  0  0  0  0  0  0
   45.7622   11.5563   19.0689 H   0  0  0  0  0  0  0  0  0  0  0  0
   45.4220   11.6803   20.7726 H   0  0  0  0  0  0  0  0  0  0  0  0
   46.5011   10.1912   22.4336 H   0  0  0  0  0  0  0  0  0  0  0  0
   47.3119    9.8103   18.2194 H   0  0  0  0  0  0  0  0  0  0  0  0
   48.2660    7.5687   18.6098 H   0  0  0  0  0  0  0  0  0  0  0  0
   47.4615    7.9441   22.8177 H   0  0  0  0  0  0  0  0  0  0  0  0
   48.3439    6.6229   20.9079 H   0  0  0  0  0  0  0  0  0  0  0  0
  3  2  1  0
  4  2  2  0
  5  8  1  0
  6  2  1  0
  7  6  1  0
  8  7  1  0
  9  5  2  0
 10  5  1  0
 11 10  2  0
 12  9  1  0
 13 12  2  0
 13 11  1  0
  6 14  1  0
  6 15  1  0
  7 16  1  0
  7 17  1  0
  8 18  1  0
  8 19  1  0
  9 20  1  0
 10 21  1  0
 11 22  1  0
 12 23  1  0
 13 24  1  0
M  CHG  2   1   1   3  -1
M  END
> <Uni-Dock RESULT> 
ENERGY=   -3.309  LOWER_BOUND=   12.112  UPPER_BOUND=   13.477
INTER + INTRA:          -3.309
INTER:                  -3.309
INTRA:                   0.000
UNBOUND:                 0.000

$$$$

     RDKit          3D

 24 23  0  0  0  0  0  0  0  0999 V2000
   46.5054    7.2465   12.3091 Na  0  0  0  0  0 15  0  0  0  0  0  0
   44.1443    5.2331   12.7173 C   0  0  0  0  0  0  0  0  0  0  0  0
   44.8413    4.2877   13.1831 O   0  0  0  0  0  0  0  0  0  0  0  0
   43.0373    5.6885   13.1197 O   0  0  0  0  0  0  0  0  0  0  0  0
   46.9163    7.9735   12.6393 C   0  0  0  0  0  0  0  0  0  0  0  0
   44.7351    5.9214   11.4852 C   0  0  0  0  0  0  0  0  0  0  0  0
   44.6697    7.4468   11.5523 C   0  0  0  0  0  0  0  0  0  0  0  0
   45.4120    8.0599   12.7465 C   0  0  0  0  0  0  0  0  0  0  0  0
   47.6435    8.9624   11.9633 C   0  0  0  0  0  0  0  0  0  0  0  0
   47.6041    6.8904   13.2017 C   0  0  0  0  0  0  0  0  0  0  0  0
   48.9929    6.8021   13.0976 C   0  0  0  0  0  0  0  0  0  0  0  0
   49.0334    8.8747   11.8622 C   0  0  0  0  0  0  0  0  0  0  0  0
   49.7080    7.7951   12.4306 C   0  0  0  0  0  0  0  0  0  0  0  0
   45.7677    5.5911   11.3269 H   0  0  0  0  0  0  0  0  0  0  0  0
   44.1623    5.5773   10.6153 H   0  0  0  0  0  0  0  0  0  0  0  0
   43.6188    7.7574   11.6071 H   0  0  0  0  0  0  0  0  0  0  0  0
   45.0641    7.8592   10.6153 H   0  0  0  0  0  0  0  0  0  0  0  0
   45.0812    7.6120   13.6912 H   0  0  0  0  0  0  0  0  0  0  0  0
   45.1354    9.1202   12.8213 H   0  0  0  0  0  0  0  0  0  0  0  0
   47.1245    9.8032   11.5106 H   0  0  0  0  0  0  0  0  0  0  0  0
   47.0508    6.0982   13.7083 H   0  0  0  0  0  0  0  0  0  0  0  0
   49.5072    5.9492   13.5314 H   0  0  0  0  0  0  0  0  0  0  0  0
   49.5870    9.6458   11.3351 H   0  0  0  0  0  0  0  0  0  0  0  0
   50.7880    7.7213   12.3475 H   0  0  0  0  0  0  0  0  0  0  0  0
  3  2  1  0
  4  2  2  0
  5  8  1  0
  6  2  1  0
  7  6  1  0
  8  7  1  0
  9  5  2  0
 10  5  1  0
 11 10  2  0
 12  9  1  0
 13 12  2  0
 13 11  1  0
  6 14  1  0
  6 15  1  0
  7 16  1  0
  7 17  1  0
  8 18  1  0
  8 19  1  0
  9 20  1  0
 10 21  1  0
 11 22  1  0
 12 23  1  0
 13 24  1  0
M  CHG  2   1   1   3  -1
M  END
> <Uni-Dock RESULT> 
ENERGY=   -3.162  LOWER_BOUND=    4.567  UPPER_BOUND=    6.115
INTER + INTRA:          -3.162
INTER:                  -3.162
INTRA:                   0.000
UNBOUND:                 0.000

$$$$
