
     RDKit          3D

 24 23  0  0  0  0  0  0  0  0999 V2000
   45.4399    3.5291    9.1295 Na  0  0  0  0  0 15  0  0  0  0  0  0
   44.0838    5.4852   12.2727 C   0  0  0  0  0  0  0  0  0  0  0  0
   44.5579    6.6557   12.2764 O   0  0  0  0  0  0  0  0  0  0  0  0
   43.9269    4.6711   13.2254 O   0  0  0  0  0  0  0  0  0  0  0  0
   45.4989    3.0585    8.1396 C   0  0  0  0  0  0  0  0  0  0  0  0
   43.6117    4.9841   10.9112 C   0  0  0  0  0  0  0  0  0  0  0  0
   44.7795    4.2844   10.2244 C   0  0  0  0  0  0  0  0  0  0  0  0
   44.3656    3.7586    8.8501 C   0  0  0  0  0  0  0  0  0  0  0  0
   46.3740    3.7787    7.3162 C   0  0  0  0  0  0  0  0  0  0  0  0
   45.7085    1.6849    8.3176 C   0  0  0  0  0  0  0  0  0  0  0  0
   46.7638    1.0403    7.6701 C   0  0  0  0  0  0  0  0  0  0  0  0
   47.4291    3.1333    6.6691 C   0  0  0  0  0  0  0  0  0  0  0  0
   47.6224    1.7639    6.8440 C   0  0  0  0  0  0  0  0  0  0  0  0
   43.2559    5.8285   10.3095 H   0  0  0  0  0  0  0  0  0  0  0  0
   42.7686    4.2960   11.0423 H   0  0  0  0  0  0  0  0  0  0  0  0
   45.1386    3.4567   10.8499 H   0  0  0  0  0  0  0  0  0  0  0  0
   45.6228    4.9796   10.1214 H   0  0  0  0  0  0  0  0  0  0  0  0
   44.0030    4.5839    8.2240 H   0  0  0  0  0  0  0  0  0  0  0  0
   43.5203    3.0656    8.9502 H   0  0  0  0  0  0  0  0  0  0  0  0
   46.2395    4.8503    7.1865 H   0  0  0  0  0  0  0  0  0  0  0  0
   45.0524    1.1158    8.9726 H   0  0  0  0  0  0  0  0  0  0  0  0
   46.9190   -0.0242    7.8199 H   0  0  0  0  0  0  0  0  0  0  0  0
   48.1039    3.7032    6.0371 H   0  0  0  0  0  0  0  0  0  0  0  0
   48.4475    1.2635    6.3462 H   0  0  0  0  0  0  0  0  0  0  0  0
  3  2  1  0
  4  2  2  0
  5  8  1  0
  6  2  1  0
  7  6  1  0
  8  7  1  0
  9  5  2  0
 10  5  1  0
 11 10  2  0
 12  9  1  0
 13 12  2  0
 13 11  1  0
  6 14  1  0
  6 15  1  0
  7 16  1  0
  7 17  1  0
  8 18  1  0
  8 19  1  0
  9 20  1  0
 10 21  1  0
 11 22  1  0
 12 23  1  0
 13 24  1  0
M  CHG  2   1   1   3  -1
M  END
> <Uni-Dock RESULT> 
ENERGY=   -6.329  LOWER_BOUND=    0.000  UPPER_BOUND=    0.000
INTER + INTRA:          -6.329
INTER:                  -6.329
INTRA:                   0.000
UNBOUND:                 0.000

$$$$

     RDKit          3D

 24 23  0  0  0  0  0  0  0  0999 V2000
   45.3486    3.7559    9.4704 Na  0  0  0  0  0 15  0  0  0  0  0  0
   47.4746    2.0190    6.6407 C   0  0  0  0  0  0  0  0  0  0  0  0
   47.2489    0.7764    6.6477 O   0  0  0  0  0  0  0  0  0  0  0  0
   48.5633    2.6443    6.5040 O   0  0  0  0  0  0  0  0  0  0  0  0
   44.5630    4.3253    9.9839 C   0  0  0  0  0  0  0  0  0  0  0  0
   46.2402    2.9003    6.8045 C   0  0  0  0  0  0  0  0  0  0  0  0
   46.0300    3.1626    8.2919 C   0  0  0  0  0  0  0  0  0  0  0  0
   44.8023    4.0442    8.5200 C   0  0  0  0  0  0  0  0  0  0  0  0
   43.7689    3.4641   10.7521 C   0  0  0  0  0  0  0  0  0  0  0  0
   45.1559    5.4346   10.6006 C   0  0  0  0  0  0  0  0  0  0  0  0
   44.9442    5.6873   11.9570 C   0  0  0  0  0  0  0  0  0  0  0  0
   43.5578    3.7174   12.1084 C   0  0  0  0  0  0  0  0  0  0  0  0
   44.1433    4.8302   12.7102 C   0  0  0  0  0  0  0  0  0  0  0  0
   45.3673    2.3986    6.3710 H   0  0  0  0  0  0  0  0  0  0  0  0
   46.3823    3.8410    6.2600 H   0  0  0  0  0  0  0  0  0  0  0  0
   46.9212    3.6440    8.7154 H   0  0  0  0  0  0  0  0  0  0  0  0
   45.9123    2.2107    8.8257 H   0  0  0  0  0  0  0  0  0  0  0  0
   43.9105    3.5667    8.0943 H   0  0  0  0  0  0  0  0  0  0  0  0
   44.9163    4.9956    7.9844 H   0  0  0  0  0  0  0  0  0  0  0  0
   43.3209    2.5850   10.2939 H   0  0  0  0  0  0  0  0  0  0  0  0
   45.7947    6.0998   10.0238 H   0  0  0  0  0  0  0  0  0  0  0  0
   45.4133    6.5478   12.4251 H   0  0  0  0  0  0  0  0  0  0  0  0
   42.9441    3.0397   12.6948 H   0  0  0  0  0  0  0  0  0  0  0  0
   43.9847    5.0231   13.7669 H   0  0  0  0  0  0  0  0  0  0  0  0
  3  2  1  0
  4  2  2  0
  5  8  1  0
  6  2  1  0
  7  6  1  0
  8  7  1  0
  9  5  2  0
 10  5  1  0
 11 10  2  0
 12  9  1  0
 13 12  2  0
 13 11  1  0
  6 14  1  0
  6 15  1  0
  7 16  1  0
  7 17  1  0
  8 18  1  0
  8 19  1  0
  9 20  1  0
 10 21  1  0
 11 22  1  0
 12 23  1  0
 13 24  1  0
M  CHG  2   1   1   3  -1
M  END
> <Uni-Dock RESULT> 
ENERGY=   -5.217  LOWER_BOUND=    3.351  UPPER_BOUND=    5.704
INTER + INTRA:          -5.217
INTER:                  -5.217
INTRA:                   0.000
UNBOUND:                 0.000

$$$$

     RDKit          3D

 24 23  0  0  0  0  0  0  0  0999 V2000
   44.9280    5.8146   11.4087 Na  0  0  0  0  0 15  0  0  0  0  0  0
   46.7163    8.9437   13.0073 C   0  0  0  0  0  0  0  0  0  0  0  0
   47.5559    9.4121   12.1885 O   0  0  0  0  0  0  0  0  0  0  0  0
   46.8108    8.7686   14.2545 O   0  0  0  0  0  0  0  0  0  0  0  0
   44.1791    5.1783   10.9196 C   0  0  0  0  0  0  0  0  0  0  0  0
   45.3752    8.5446   12.3994 C   0  0  0  0  0  0  0  0  0  0  0  0
   45.4559    7.0828   11.9732 C   0  0  0  0  0  0  0  0  0  0  0  0
   44.1358    6.6236   11.3542 C   0  0  0  0  0  0  0  0  0  0  0  0
   44.6065    4.8368    9.6301 C   0  0  0  0  0  0  0  0  0  0  0  0
   43.8207    4.1577   11.8097 C   0  0  0  0  0  0  0  0  0  0  0  0
   43.8724    2.8209   11.4115 C   0  0  0  0  0  0  0  0  0  0  0  0
   44.6581    3.4996    9.2326 C   0  0  0  0  0  0  0  0  0  0  0  0
   44.2887    2.4921   10.1223 C   0  0  0  0  0  0  0  0  0  0  0  0
   45.1521    9.1883   11.5406 H   0  0  0  0  0  0  0  0  0  0  0  0
   44.5767    8.6914   13.1360 H   0  0  0  0  0  0  0  0  0  0  0  0
   45.7024    6.4546   12.8392 H   0  0  0  0  0  0  0  0  0  0  0  0
   46.2740    6.9484   11.2537 H   0  0  0  0  0  0  0  0  0  0  0  0
   43.8854    7.2522   10.4901 H   0  0  0  0  0  0  0  0  0  0  0  0
   43.3155    6.7599   12.0708 H   0  0  0  0  0  0  0  0  0  0  0  0
   44.9112    5.6158    8.9347 H   0  0  0  0  0  0  0  0  0  0  0  0
   43.5095    4.4047   12.8224 H   0  0  0  0  0  0  0  0  0  0  0  0
   43.5968    2.0382   12.1122 H   0  0  0  0  0  0  0  0  0  0  0  0
   44.9958    3.2469    8.2318 H   0  0  0  0  0  0  0  0  0  0  0  0
   44.3357    1.4517    9.8152 H   0  0  0  0  0  0  0  0  0  0  0  0
  3  2  1  0
  4  2  2  0
  5  8  1  0
  6  2  1  0
  7  6  1  0
  8  7  1  0
  9  5  2  0
 10  5  1  0
 11 10  2  0
 12  9  1  0
 13 12  2  0
 13 11  1  0
  6 14  1  0
  6 15  1  0
  7 16  1  0
  7 17  1  0
  8 18  1  0
  8 19  1  0
  9 20  1  0
 10 21  1  0
 11 22  1  0
 12 23  1  0
 13 24  1  0
M  CHG  2   1   1   3  -1
M  END
> <Uni-Dock RESULT> 
ENERGY=   -3.907  LOWER_BOUND=    2.941  UPPER_BOUND=    4.156
INTER + INTRA:          -3.907
INTER:                  -3.907
INTRA:                   0.000
UNBOUND:                 0.000

$$$$

     RDKit          3D

 24 23  0  0  0  0  0  0  0  0999 V2000
   45.3500    5.9591   11.3752 Na  0  0  0  0  0 15  0  0  0  0  0  0
   44.8265    2.9947    8.8290 C   0  0  0  0  0  0  0  0  0  0  0  0
   45.7763    2.1701    8.9425 O   0  0  0  0  0  0  0  0  0  0  0  0
   44.2595    3.4405    7.7923 O   0  0  0  0  0  0  0  0  0  0  0  0
   45.2528    6.6068   12.2560 C   0  0  0  0  0  0  0  0  0  0  0  0
   44.2662    3.5194   10.1474 C   0  0  0  0  0  0  0  0  0  0  0  0
   45.0336    4.7807   10.5285 C   0  0  0  0  0  0  0  0  0  0  0  0
   44.5148    5.3550   11.8467 C   0  0  0  0  0  0  0  0  0  0  0  0
   46.4086    6.5247   13.0433 C   0  0  0  0  0  0  0  0  0  0  0  0
   44.8087    7.8651   11.8296 C   0  0  0  0  0  0  0  0  0  0  0  0
   45.4983    9.0213   12.1982 C   0  0  0  0  0  0  0  0  0  0  0  0
   47.0978    7.6814   13.4114 C   0  0  0  0  0  0  0  0  0  0  0  0
   46.6413    8.9296   12.9910 C   0  0  0  0  0  0  0  0  0  0  0  0
   44.3682    2.7525   10.9240 H   0  0  0  0  0  0  0  0  0  0  0  0
   43.1969    3.7335   10.0358 H   0  0  0  0  0  0  0  0  0  0  0  0
   44.9405    5.5295    9.7310 H   0  0  0  0  0  0  0  0  0  0  0  0
   46.1044    4.5546   10.6139 H   0  0  0  0  0  0  0  0  0  0  0  0
   44.6036    4.6071   12.6450 H   0  0  0  0  0  0  0  0  0  0  0  0
   43.4433    5.5790   11.7649 H   0  0  0  0  0  0  0  0  0  0  0  0
   46.7804    5.5536   13.3627 H   0  0  0  0  0  0  0  0  0  0  0  0
   43.9266    7.9443   11.1980 H   0  0  0  0  0  0  0  0  0  0  0  0
   45.1470    9.9908   11.8572 H   0  0  0  0  0  0  0  0  0  0  0  0
   47.9955    7.6047   14.0179 H   0  0  0  0  0  0  0  0  0  0  0  0
   47.1816    9.8287   13.2716 H   0  0  0  0  0  0  0  0  0  0  0  0
  3  2  1  0
  4  2  2  0
  5  8  1  0
  6  2  1  0
  7  6  1  0
  8  7  1  0
  9  5  2  0
 10  5  1  0
 11 10  2  0
 12  9  1  0
 13 12  2  0
 13 11  1  0
  6 14  1  0
  6 15  1  0
  7 16  1  0
  7 17  1  0
  8 18  1  0
  8 19  1  0
  9 20  1  0
 10 21  1  0
 11 22  1  0
 12 23  1  0
 13 24  1  0
M  CHG  2   1   1   3  -1
M  END
> <Uni-Dock RESULT> 
ENERGY=   -3.722  LOWER_BOUND=    3.242  UPPER_BOUND=    6.025
INTER + INTRA:          -3.722
INTER:                  -3.722
INTRA:                   0.000
UNBOUND:                 0.000

$$$$

     RDKit          3D

 24 23  0  0  0  0  0  0  0  0999 V2000
   45.6774    4.3333   14.0290 Na  0  0  0  0  0 15  0  0  0  0  0  0
   47.3910    3.8906   17.5521 C   0  0  0  0  0  0  0  0  0  0  0  0
   47.3785    2.6698   17.8755 O   0  0  0  0  0  0  0  0  0  0  0  0
   47.1611    4.9168   18.2514 O   0  0  0  0  0  0  0  0  0  0  0  0
   45.5321    4.4804   12.9510 C   0  0  0  0  0  0  0  0  0  0  0  0
   47.7577    4.1693   16.0977 C   0  0  0  0  0  0  0  0  0  0  0  0
   46.4757    4.1833   15.2723 C   0  0  0  0  0  0  0  0  0  0  0  0
   46.7804    4.4592   13.8000 C   0  0  0  0  0  0  0  0  0  0  0  0
   45.0512    3.3023   12.3653 C   0  0  0  0  0  0  0  0  0  0  0  0
   44.8217    5.6728   12.7619 C   0  0  0  0  0  0  0  0  0  0  0  0
   43.6609    5.6896   11.9868 C   0  0  0  0  0  0  0  0  0  0  0  0
   43.8903    3.3199   11.5904 C   0  0  0  0  0  0  0  0  0  0  0  0
   43.1967    4.5138   11.3992 C   0  0  0  0  0  0  0  0  0  0  0  0
   48.4454    3.3965   15.7350 H   0  0  0  0  0  0  0  0  0  0  0  0
   48.2776    5.1317   16.0252 H   0  0  0  0  0  0  0  0  0  0  0  0
   45.7891    4.9461   15.6623 H   0  0  0  0  0  0  0  0  0  0  0  0
   45.9560    3.2217   15.3737 H   0  0  0  0  0  0  0  0  0  0  0  0
   47.4694    3.6998   13.4086 H   0  0  0  0  0  0  0  0  0  0  0  0
   47.3030    5.4189   13.6963 H   0  0  0  0  0  0  0  0  0  0  0  0
   45.5779    2.3635   12.5222 H   0  0  0  0  0  0  0  0  0  0  0  0
   45.1685    6.5917   13.2296 H   0  0  0  0  0  0  0  0  0  0  0  0
   43.1159    6.6194   11.8516 H   0  0  0  0  0  0  0  0  0  0  0  0
   43.5245    2.3991   11.1455 H   0  0  0  0  0  0  0  0  0  0  0  0
   42.2897    4.5259   10.8023 H   0  0  0  0  0  0  0  0  0  0  0  0
  3  2  1  0
  4  2  2  0
  5  8  1  0
  6  2  1  0
  7  6  1  0
  8  7  1  0
  9  5  2  0
 10  5  1  0
 11 10  2  0
 12  9  1  0
 13 12  2  0
 13 11  1  0
  6 14  1  0
  6 15  1  0
  7 16  1  0
  7 17  1  0
  8 18  1  0
  8 19  1  0
  9 20  1  0
 10 21  1  0
 11 22  1  0
 12 23  1  0
 13 24  1  0
M  CHG  2   1   1   3  -1
M  END
> <Uni-Dock RESULT> 
ENERGY=   -3.698  LOWER_BOUND=    4.631  UPPER_BOUND=    6.106
INTER + INTRA:          -3.698
INTER:                  -3.698
INTRA:                   0.000
UNBOUND:                 0.000

$$$$

     RDKit          3D

 24 23  0  0  0  0  0  0  0  0999 V2000
   46.2442    7.2623   12.3017 Na  0  0  0  0  0 15  0  0  0  0  0  0
   42.9305    5.2132   11.6975 C   0  0  0  0  0  0  0  0  0  0  0  0
   43.1670    4.2532   10.9117 O   0  0  0  0  0  0  0  0  0  0  0  0
   41.9467    6.0040   11.7381 O   0  0  0  0  0  0  0  0  0  0  0  0
   47.1576    7.6547   12.7671 C   0  0  0  0  0  0  0  0  0  0  0  0
   43.9870    5.4414   12.7742 C   0  0  0  0  0  0  0  0  0  0  0  0
   45.0234    6.4196   12.2319 C   0  0  0  0  0  0  0  0  0  0  0  0
   46.1123    6.6886   13.2704 C   0  0  0  0  0  0  0  0  0  0  0  0
   48.2860    7.1868   12.0815 C   0  0  0  0  0  0  0  0  0  0  0  0
   46.9985    9.0340   12.9531 C   0  0  0  0  0  0  0  0  0  0  0  0
   47.9592    9.9278   12.4770 C   0  0  0  0  0  0  0  0  0  0  0  0
   49.2462    8.0812   11.6056 C   0  0  0  0  0  0  0  0  0  0  0  0
   49.0841    9.4512   11.8055 C   0  0  0  0  0  0  0  0  0  0  0  0
   44.4554    4.4868   13.0409 H   0  0  0  0  0  0  0  0  0  0  0  0
   43.5131    5.8388   13.6792 H   0  0  0  0  0  0  0  0  0  0  0  0
   44.5352    7.3612   11.9482 H   0  0  0  0  0  0  0  0  0  0  0  0
   45.4718    6.0176   11.3141 H   0  0  0  0  0  0  0  0  0  0  0  0
   46.5996    5.7483   13.5583 H   0  0  0  0  0  0  0  0  0  0  0  0
   45.6659    7.0878   14.1904 H   0  0  0  0  0  0  0  0  0  0  0  0
   48.4125    6.1205   11.9077 H   0  0  0  0  0  0  0  0  0  0  0  0
   46.1161    9.4152   13.4624 H   0  0  0  0  0  0  0  0  0  0  0  0
   47.8223   10.9953   12.6229 H   0  0  0  0  0  0  0  0  0  0  0  0
   50.1144    7.7068   11.0711 H   0  0  0  0  0  0  0  0  0  0  0  0
   49.8277   10.1472   11.4289 H   0  0  0  0  0  0  0  0  0  0  0  0
  3  2  1  0
  4  2  2  0
  5  8  1  0
  6  2  1  0
  7  6  1  0
  8  7  1  0
  9  5  2  0
 10  5  1  0
 11 10  2  0
 12  9  1  0
 13 12  2  0
 13 11  1  0
  6 14  1  0
  6 15  1  0
  7 16  1  0
  7 17  1  0
  8 18  1  0
  8 19  1  0
  9 20  1  0
 10 21  1  0
 11 22  1  0
 12 23  1  0
 13 24  1  0
M  CHG  2   1   1   3  -1
M  END
> <Uni-Dock RESULT> 
ENERGY=   -3.562  LOWER_BOUND=    4.795  UPPER_BOUND=    6.136
INTER + INTRA:          -3.562
INTER:                  -3.562
INTRA:                   0.000
UNBOUND:                 0.000

$$$$

     RDKit          3D

 24 23  0  0  0  0  0  0  0  0999 V2000
   46.6651    5.2304   14.3919 Na  0  0  0  0  0 15  0  0  0  0  0  0
   47.7536    3.1878   17.5836 C   0  0  0  0  0  0  0  0  0  0  0  0
   46.7692    2.5240   18.0141 O   0  0  0  0  0  0  0  0  0  0  0  0
   48.6242    3.8490   18.2159 O   0  0  0  0  0  0  0  0  0  0  0  0
   46.5335    5.5413   13.3474 C   0  0  0  0  0  0  0  0  0  0  0  0
   47.9283    3.1741   16.0681 C   0  0  0  0  0  0  0  0  0  0  0  0
   47.1523    4.3494   15.4836 C   0  0  0  0  0  0  0  0  0  0  0  0
   47.2902    4.3884   13.9617 C   0  0  0  0  0  0  0  0  0  0  0  0
   45.1944    5.3891   12.9654 C   0  0  0  0  0  0  0  0  0  0  0  0
   47.1513    6.7872   13.1785 C   0  0  0  0  0  0  0  0  0  0  0  0
   46.4475    7.8564   12.6216 C   0  0  0  0  0  0  0  0  0  0  0  0
   44.4913    6.4588   12.4087 C   0  0  0  0  0  0  0  0  0  0  0  0
   45.1185    7.6915   12.2346 C   0  0  0  0  0  0  0  0  0  0  0  0
   47.5605    2.2247   15.6620 H   0  0  0  0  0  0  0  0  0  0  0  0
   48.9929    3.2478   15.8178 H   0  0  0  0  0  0  0  0  0  0  0  0
   47.5168    5.2898   15.9172 H   0  0  0  0  0  0  0  0  0  0  0  0
   46.0933    4.2729   15.7621 H   0  0  0  0  0  0  0  0  0  0  0  0
   46.9296    3.4478   13.5260 H   0  0  0  0  0  0  0  0  0  0  0  0
   48.3488    4.4616   13.6805 H   0  0  0  0  0  0  0  0  0  0  0  0
   44.6928    4.4351   13.1120 H   0  0  0  0  0  0  0  0  0  0  0  0
   48.1833    6.9287   13.4920 H   0  0  0  0  0  0  0  0  0  0  0  0
   46.9359    8.8189   12.5003 H   0  0  0  0  0  0  0  0  0  0  0  0
   43.4520    6.3300   12.1209 H   0  0  0  0  0  0  0  0  0  0  0  0
   44.5692    8.5254   11.8081 H   0  0  0  0  0  0  0  0  0  0  0  0
  3  2  1  0
  4  2  2  0
  5  8  1  0
  6  2  1  0
  7  6  1  0
  8  7  1  0
  9  5  2  0
 10  5  1  0
 11 10  2  0
 12  9  1  0
 13 12  2  0
 13 11  1  0
  6 14  1  0
  6 15  1  0
  7 16  1  0
  7 17  1  0
  8 18  1  0
  8 19  1  0
  9 20  1  0
 10 21  1  0
 11 22  1  0
 12 23  1  0
 13 24  1  0
M  CHG  2   1   1   3  -1
M  END
> <Uni-Dock RESULT> 
ENERGY=   -3.514  LOWER_BOUND=    5.641  UPPER_BOUND=    6.876
INTER + INTRA:          -3.514
INTER:                  -3.514
INTRA:                   0.000
UNBOUND:                 0.000

$$$$

     RDKit          3D

 24 23  0  0  0  0  0  0  0  0999 V2000
   41.2464   11.0548   10.5918 Na  0  0  0  0  0 15  0  0  0  0  0  0
   43.9219   11.3753    7.7136 C   0  0  0  0  0  0  0  0  0  0  0  0
   44.5533   12.4610    7.8453 O   0  0  0  0  0  0  0  0  0  0  0  0
   43.4716   10.8206    6.6721 O   0  0  0  0  0  0  0  0  0  0  0  0
   40.7427   10.7504   11.5183 C   0  0  0  0  0  0  0  0  0  0  0  0
   43.6815   10.6069    9.0094 C   0  0  0  0  0  0  0  0  0  0  0  0
   42.3513   11.0623    9.5994 C   0  0  0  0  0  0  0  0  0  0  0  0
   42.0546   10.3242   10.9047 C   0  0  0  0  0  0  0  0  0  0  0  0
   40.6939   11.8258   12.4148 C   0  0  0  0  0  0  0  0  0  0  0  0
   39.5525   10.0953   11.1769 C   0  0  0  0  0  0  0  0  0  0  0  0
   38.3380   10.4976   11.7352 C   0  0  0  0  0  0  0  0  0  0  0  0
   39.4790   12.2275   12.9726 C   0  0  0  0  0  0  0  0  0  0  0  0
   38.3017   11.5619   12.6348 C   0  0  0  0  0  0  0  0  0  0  0  0
   44.5030   10.7970    9.7099 H   0  0  0  0  0  0  0  0  0  0  0  0
   43.6677    9.5302    8.8040 H   0  0  0  0  0  0  0  0  0  0  0  0
   41.5431   10.8864    8.8773 H   0  0  0  0  0  0  0  0  0  0  0  0
   42.3733   12.1452    9.7778 H   0  0  0  0  0  0  0  0  0  0  0  0
   42.8629   10.4956   11.6271 H   0  0  0  0  0  0  0  0  0  0  0  0
   42.0353    9.2407   10.7294 H   0  0  0  0  0  0  0  0  0  0  0  0
   41.6057   12.3604   12.6718 H   0  0  0  0  0  0  0  0  0  0  0  0
   39.5699    9.2739   10.4640 H   0  0  0  0  0  0  0  0  0  0  0  0
   37.4212    9.9850   11.4589 H   0  0  0  0  0  0  0  0  0  0  0  0
   39.4531   13.0658   13.6626 H   0  0  0  0  0  0  0  0  0  0  0  0
   37.3558   11.8791   13.0634 H   0  0  0  0  0  0  0  0  0  0  0  0
  3  2  1  0
  4  2  2  0
  5  8  1  0
  6  2  1  0
  7  6  1  0
  8  7  1  0
  9  5  2  0
 10  5  1  0
 11 10  2  0
 12  9  1  0
 13 12  2  0
 13 11  1  0
  6 14  1  0
  6 15  1  0
  7 16  1  0
  7 17  1  0
  8 18  1  0
  8 19  1  0
  9 20  1  0
 10 21  1  0
 11 22  1  0
 12 23  1  0
 13 24  1  0
M  CHG  2   1   1   3  -1
M  END
> <Uni-Dock RESULT> 
ENERGY=   -3.489  LOWER_BOUND=    8.020  UPPER_BOUND=   10.070
INTER + INTRA:          -3.489
INTER:                  -3.489
INTRA:                   0.000
UNBOUND:                 0.000

$$$$

     RDKit          3D

 24 23  0  0  0  0  0  0  0  0999 V2000
   43.8507    6.5912   11.2656 Na  0  0  0  0  0 15  0  0  0  0  0  0
   42.7857   10.3359   10.6433 C   0  0  0  0  0  0  0  0  0  0  0  0
   42.0447   10.7252   11.5890 O   0  0  0  0  0  0  0  0  0  0  0  0
   42.6829   10.5314    9.3998 O   0  0  0  0  0  0  0  0  0  0  0  0
   44.4406    5.7057   11.5355 C   0  0  0  0  0  0  0  0  0  0  0  0
   44.0015    9.5192   11.0700 C   0  0  0  0  0  0  0  0  0  0  0  0
   43.6098    8.0456   11.0863 C   0  0  0  0  0  0  0  0  0  0  0  0
   44.7923    7.1737   11.5081 C   0  0  0  0  0  0  0  0  0  0  0  0
   43.9246    5.1205   12.6990 C   0  0  0  0  0  0  0  0  0  0  0  0
   44.5976    4.9159   10.3893 C   0  0  0  0  0  0  0  0  0  0  0  0
   44.2608    3.5615   10.4115 C   0  0  0  0  0  0  0  0  0  0  0  0
   43.5880    3.7660   12.7204 C   0  0  0  0  0  0  0  0  0  0  0  0
   43.7584    2.9861   11.5776 C   0  0  0  0  0  0  0  0  0  0  0  0
   44.3354    9.8439   12.0623 H   0  0  0  0  0  0  0  0  0  0  0  0
   44.8283    9.6941   10.3718 H   0  0  0  0  0  0  0  0  0  0  0  0
   43.2563    7.7424   10.0921 H   0  0  0  0  0  0  0  0  0  0  0  0
   42.7667    7.8911   11.7722 H   0  0  0  0  0  0  0  0  0  0  0  0
   45.1498    7.4771   12.5004 H   0  0  0  0  0  0  0  0  0  0  0  0
   45.6379    7.3289   10.8255 H   0  0  0  0  0  0  0  0  0  0  0  0
   43.7740    5.7254   13.5904 H   0  0  0  0  0  0  0  0  0  0  0  0
   44.9745    5.3605    9.4708 H   0  0  0  0  0  0  0  0  0  0  0  0
   44.3823    2.9606    9.5150 H   0  0  0  0  0  0  0  0  0  0  0  0
   43.1842    3.3246   13.6269 H   0  0  0  0  0  0  0  0  0  0  0  0
   43.4898    1.9341   11.5925 H   0  0  0  0  0  0  0  0  0  0  0  0
  3  2  1  0
  4  2  2  0
  5  8  1  0
  6  2  1  0
  7  6  1  0
  8  7  1  0
  9  5  2  0
 10  5  1  0
 11 10  2  0
 12  9  1  0
 13 12  2  0
 13 11  1  0
  6 14  1  0
  6 15  1  0
  7 16  1  0
  7 17  1  0
  8 18  1  0
  8 19  1  0
  9 20  1  0
 10 21  1  0
 11 22  1  0
 12 23  1  0
 13 24  1  0
M  CHG  2   1   1   3  -1
M  END
> <Uni-Dock RESULT> 
ENERGY=   -3.433  LOWER_BOUND=    3.820  UPPER_BOUND=    5.242
INTER + INTRA:          -3.433
INTER:                  -3.433
INTRA:                   0.000
UNBOUND:                 0.000

$$$$
