
     RDKit          3D

 24 23  0  0  0  0  0  0  0  0999 V2000
   45.3715    3.6118    8.9421 Na  0  0  0  0  0 15  0  0  0  0  0  0
   42.9489    4.8797   11.4624 C   0  0  0  0  0  0  0  0  0  0  0  0
   42.0114    5.6931   11.7031 O   0  0  0  0  0  0  0  0  0  0  0  0
   42.9812    3.6276   11.6116 O   0  0  0  0  0  0  0  0  0  0  0  0
   45.5839    3.2248    8.1138 C   0  0  0  0  0  0  0  0  0  0  0  0
   44.2231    5.5329   10.9185 C   0  0  0  0  0  0  0  0  0  0  0  0
   45.1873    4.6100   10.1788 C   0  0  0  0  0  0  0  0  0  0  0  0
   44.6034    4.1031    8.8566 C   0  0  0  0  0  0  0  0  0  0  0  0
   46.3988    3.7515    7.1039 C   0  0  0  0  0  0  0  0  0  0  0  0
   45.7044    1.8699    8.4493 C   0  0  0  0  0  0  0  0  0  0  0  0
   46.6156    1.0530    7.7790 C   0  0  0  0  0  0  0  0  0  0  0  0
   47.3100    2.9334    6.4334 C   0  0  0  0  0  0  0  0  0  0  0  0
   47.4174    1.5844    6.7700 C   0  0  0  0  0  0  0  0  0  0  0  0
   44.7452    5.9662   11.7808 H   0  0  0  0  0  0  0  0  0  0  0  0
   43.9427    6.3677   10.2641 H   0  0  0  0  0  0  0  0  0  0  0  0
   45.4662    3.7644   10.8196 H   0  0  0  0  0  0  0  0  0  0  0  0
   46.1141    5.1630    9.9783 H   0  0  0  0  0  0  0  0  0  0  0  0
   43.6794    3.5369    9.0235 H   0  0  0  0  0  0  0  0  0  0  0  0
   44.3230    4.9531    8.2215 H   0  0  0  0  0  0  0  0  0  0  0  0
   46.3251    4.8035    6.8400 H   0  0  0  0  0  0  0  0  0  0  0  0
   45.0838    1.4550    9.2430 H   0  0  0  0  0  0  0  0  0  0  0  0
   46.6980    0.0046    8.0501 H   0  0  0  0  0  0  0  0  0  0  0  0
   47.9367    3.3511    5.6511 H   0  0  0  0  0  0  0  0  0  0  0  0
   48.1274    0.9485    6.2499 H   0  0  0  0  0  0  0  0  0  0  0  0
  3  2  1  0
  4  2  2  0
  5  8  1  0
  6  2  1  0
  7  6  1  0
  8  7  1  0
  9  5  2  0
 10  5  1  0
 11 10  2  0
 12  9  1  0
 13 12  2  0
 13 11  1  0
  6 14  1  0
  6 15  1  0
  7 16  1  0
  7 17  1  0
  8 18  1  0
  8 19  1  0
  9 20  1  0
 10 21  1  0
 11 22  1  0
 12 23  1  0
 13 24  1  0
M  CHG  2   1   1   3  -1
M  END
> <Uni-Dock RESULT> 
ENERGY=   -7.007  LOWER_BOUND=    0.000  UPPER_BOUND=    0.000
INTER + INTRA:          -7.007
INTER:                  -7.007
INTRA:                   0.000
UNBOUND:                 0.000

$$$$

     RDKit          3D

 24 23  0  0  0  0  0  0  0  0999 V2000
   45.4487    2.7948    8.7747 Na  0  0  0  0  0 15  0  0  0  0  0  0
   43.6276    4.1244   11.7317 C   0  0  0  0  0  0  0  0  0  0  0  0
   43.5047    4.0982   12.9898 O   0  0  0  0  0  0  0  0  0  0  0  0
   43.8099    5.1093   10.9650 O   0  0  0  0  0  0  0  0  0  0  0  0
   46.2316    2.6390    8.2809 C   0  0  0  0  0  0  0  0  0  0  0  0
   43.5303    2.7502   11.0624 C   0  0  0  0  0  0  0  0  0  0  0  0
   44.1257    2.6422    9.6615 C   0  0  0  0  0  0  0  0  0  0  0  0
   45.6503    2.7902    9.6679 C   0  0  0  0  0  0  0  0  0  0  0  0
   46.7413    1.4095    7.8452 C   0  0  0  0  0  0  0  0  0  0  0  0
   46.2427    3.7309    7.4031 C   0  0  0  0  0  0  0  0  0  0  0  0
   46.7649    3.5990    6.1159 C   0  0  0  0  0  0  0  0  0  0  0  0
   47.2640    1.2785    6.5572 C   0  0  0  0  0  0  0  0  0  0  0  0
   47.2769    2.3731    5.6935 C   0  0  0  0  0  0  0  0  0  0  0  0
   42.4626    2.5030   11.0089 H   0  0  0  0  0  0  0  0  0  0  0  0
   43.9974    2.0029   11.7160 H   0  0  0  0  0  0  0  0  0  0  0  0
   43.6744    3.3929    9.0010 H   0  0  0  0  0  0  0  0  0  0  0  0
   43.8576    1.6633    9.2435 H   0  0  0  0  0  0  0  0  0  0  0  0
   45.9516    3.7639   10.0721 H   0  0  0  0  0  0  0  0  0  0  0  0
   46.0959    2.0393   10.3328 H   0  0  0  0  0  0  0  0  0  0  0  0
   46.7292    0.5500    8.5107 H   0  0  0  0  0  0  0  0  0  0  0  0
   45.8358    4.6875    7.7294 H   0  0  0  0  0  0  0  0  0  0  0  0
   46.7667    4.4542    5.4465 H   0  0  0  0  0  0  0  0  0  0  0  0
   47.6578    0.3211    6.2291 H   0  0  0  0  0  0  0  0  0  0  0  0
   47.6817    2.2708    4.6911 H   0  0  0  0  0  0  0  0  0  0  0  0
  3  2  1  0
  4  2  2  0
  5  8  1  0
  6  2  1  0
  7  6  1  0
  8  7  1  0
  9  5  2  0
 10  5  1  0
 11 10  2  0
 12  9  1  0
 13 12  2  0
 13 11  1  0
  6 14  1  0
  6 15  1  0
  7 16  1  0
  7 17  1  0
  8 18  1  0
  8 19  1  0
  9 20  1  0
 10 21  1  0
 11 22  1  0
 12 23  1  0
 13 24  1  0
M  CHG  2   1   1   3  -1
M  END
> <Uni-Dock RESULT> 
ENERGY=   -4.474  LOWER_BOUND=    1.273  UPPER_BOUND=    2.041
INTER + INTRA:          -4.474
INTER:                  -4.474
INTRA:                   0.000
UNBOUND:                 0.000

$$$$

     RDKit          3D

 24 23  0  0  0  0  0  0  0  0999 V2000
   44.9944    4.1684    9.7713 Na  0  0  0  0  0 15  0  0  0  0  0  0
   46.7006    3.1297    6.6346 C   0  0  0  0  0  0  0  0  0  0  0  0
   46.5588    2.7403    5.4402 O   0  0  0  0  0  0  0  0  0  0  0  0
   47.3671    4.1004    7.0870 O   0  0  0  0  0  0  0  0  0  0  0  0
   44.4118    4.7208   10.2575 C   0  0  0  0  0  0  0  0  0  0  0  0
   45.9512    2.2801    7.6654 C   0  0  0  0  0  0  0  0  0  0  0  0
   45.6880    2.9404    9.0157 C   0  0  0  0  0  0  0  0  0  0  0  0
   44.6965    4.1029    8.9078 C   0  0  0  0  0  0  0  0  0  0  0  0
   43.2868    4.3399   10.9996 C   0  0  0  0  0  0  0  0  0  0  0  0
   45.2920    5.6701   10.7931 C   0  0  0  0  0  0  0  0  0  0  0  0
   45.0459    6.2372   12.0440 C   0  0  0  0  0  0  0  0  0  0  0  0
   43.0410    4.9082   12.2510 C   0  0  0  0  0  0  0  0  0  0  0  0
   43.9196    5.8573   12.7723 C   0  0  0  0  0  0  0  0  0  0  0  0
   46.5565    1.3795    7.8282 H   0  0  0  0  0  0  0  0  0  0  0  0
   45.0002    1.9495    7.2294 H   0  0  0  0  0  0  0  0  0  0  0  0
   46.6312    3.2858    9.4568 H   0  0  0  0  0  0  0  0  0  0  0  0
   45.2866    2.1832    9.7015 H   0  0  0  0  0  0  0  0  0  0  0  0
   45.0731    4.8829    8.2354 H   0  0  0  0  0  0  0  0  0  0  0  0
   43.7565    3.7524    8.4627 H   0  0  0  0  0  0  0  0  0  0  0  0
   42.6006    3.5962   10.6025 H   0  0  0  0  0  0  0  0  0  0  0  0
   46.1768    5.9622   10.2283 H   0  0  0  0  0  0  0  0  0  0  0  0
   45.7372    6.9718   12.4464 H   0  0  0  0  0  0  0  0  0  0  0  0
   42.1654    4.6069   12.8182 H   0  0  0  0  0  0  0  0  0  0  0  0
   43.7295    6.2980   13.7463 H   0  0  0  0  0  0  0  0  0  0  0  0
  3  2  1  0
  4  2  2  0
  5  8  1  0
  6  2  1  0
  7  6  1  0
  8  7  1  0
  9  5  2  0
 10  5  1  0
 11 10  2  0
 12  9  1  0
 13 12  2  0
 13 11  1  0
  6 14  1  0
  6 15  1  0
  7 16  1  0
  7 17  1  0
  8 18  1  0
  8 19  1  0
  9 20  1  0
 10 21  1  0
 11 22  1  0
 12 23  1  0
 13 24  1  0
M  CHG  2   1   1   3  -1
M  END
> <Uni-Dock RESULT> 
ENERGY=   -4.381  LOWER_BOUND=    2.829  UPPER_BOUND=    5.562
INTER + INTRA:          -4.381
INTER:                  -4.381
INTRA:                   0.000
UNBOUND:                 0.000

$$$$
