
     RDKit          3D

 24 23  0  0  0  0  0  0  0  0999 V2000
   45.3736    3.1773    9.1140 Na  0  0  0  0  0 15  0  0  0  0  0  0
   43.1316    5.1259   11.3511 C   0  0  0  0  0  0  0  0  0  0  0  0
   43.5754    5.9496   10.5051 O   0  0  0  0  0  0  0  0  0  0  0  0
   42.0404    5.1401   11.9895 O   0  0  0  0  0  0  0  0  0  0  0  0
   45.5645    2.7167    8.3226 C   0  0  0  0  0  0  0  0  0  0  0  0
   44.0323    3.9297   11.6732 C   0  0  0  0  0  0  0  0  0  0  0  0
   45.1008    3.5956   10.6363 C   0  0  0  0  0  0  0  0  0  0  0  0
   44.4953    3.0842    9.3256 C   0  0  0  0  0  0  0  0  0  0  0  0
   46.1535    3.7110    7.5305 C   0  0  0  0  0  0  0  0  0  0  0  0
   45.9983    1.3920    8.1871 C   0  0  0  0  0  0  0  0  0  0  0  0
   46.9959    1.0664    7.2661 C   0  0  0  0  0  0  0  0  0  0  0  0
   47.1508    3.3848    6.6107 C   0  0  0  0  0  0  0  0  0  0  0  0
   47.5710    2.0624    6.4775 C   0  0  0  0  0  0  0  0  0  0  0  0
   43.4031    3.0478   11.8459 H   0  0  0  0  0  0  0  0  0  0  0  0
   44.5277    4.1585   12.6250 H   0  0  0  0  0  0  0  0  0  0  0  0
   45.7637    2.8271   11.0543 H   0  0  0  0  0  0  0  0  0  0  0  0
   45.7298    4.4742   10.4463 H   0  0  0  0  0  0  0  0  0  0  0  0
   43.8334    3.8342    8.8765 H   0  0  0  0  0  0  0  0  0  0  0  0
   43.8644    2.2079    9.5222 H   0  0  0  0  0  0  0  0  0  0  0  0
   45.8315    4.7461    7.6390 H   0  0  0  0  0  0  0  0  0  0  0  0
   45.5591    0.6110    8.8026 H   0  0  0  0  0  0  0  0  0  0  0  0
   47.3247    0.0361    7.1679 H   0  0  0  0  0  0  0  0  0  0  0  0
   47.5982    4.1664    6.0036 H   0  0  0  0  0  0  0  0  0  0  0  0
   48.3481    1.8095    5.7626 H   0  0  0  0  0  0  0  0  0  0  0  0
  3  2  1  0
  4  2  2  0
  5  8  1  0
  6  2  1  0
  7  6  1  0
  8  7  1  0
  9  5  2  0
 10  5  1  0
 11 10  2  0
 12  9  1  0
 13 12  2  0
 13 11  1  0
  6 14  1  0
  6 15  1  0
  7 16  1  0
  7 17  1  0
  8 18  1  0
  8 19  1  0
  9 20  1  0
 10 21  1  0
 11 22  1  0
 12 23  1  0
 13 24  1  0
M  CHG  2   1   1   3  -1
M  END
> <Uni-Dock RESULT> 
ENERGY=   -6.355  LOWER_BOUND=    0.000  UPPER_BOUND=    0.000
INTER + INTRA:          -6.355
INTER:                  -6.355
INTRA:                   0.000
UNBOUND:                 0.000

$$$$

     RDKit          3D

 24 23  0  0  0  0  0  0  0  0999 V2000
   45.4039    3.3738    8.6857 Na  0  0  0  0  0 15  0  0  0  0  0  0
   43.5411    4.0939   11.8225 C   0  0  0  0  0  0  0  0  0  0  0  0
   43.7923    2.8579   11.8466 O   0  0  0  0  0  0  0  0  0  0  0  0
   43.3759    4.8984   12.7838 O   0  0  0  0  0  0  0  0  0  0  0  0
   46.1883    3.2205    8.1997 C   0  0  0  0  0  0  0  0  0  0  0  0
   43.4047    4.7336   10.4376 C   0  0  0  0  0  0  0  0  0  0  0  0
   44.0404    3.9695    9.2798 C   0  0  0  0  0  0  0  0  0  0  0  0
   45.5690    3.9430    9.3740 C   0  0  0  0  0  0  0  0  0  0  0  0
   46.2770    1.8222    8.2052 C   0  0  0  0  0  0  0  0  0  0  0  0
   46.6567    3.9284    7.0858 C   0  0  0  0  0  0  0  0  0  0  0  0
   47.2152    3.2492    6.0013 C   0  0  0  0  0  0  0  0  0  0  0  0
   46.8349    1.1442    7.1207 C   0  0  0  0  0  0  0  0  0  0  0  0
   47.3052    1.8578    6.0194 C   0  0  0  0  0  0  0  0  0  0  0  0
   43.8162    5.7499   10.4737 H   0  0  0  0  0  0  0  0  0  0  0  0
   42.3294    4.8324   10.2432 H   0  0  0  0  0  0  0  0  0  0  0  0
   43.7427    4.4510    8.3394 H   0  0  0  0  0  0  0  0  0  0  0  0
   43.6450    2.9468    9.2404 H   0  0  0  0  0  0  0  0  0  0  0  0
   45.8999    3.4588   10.3003 H   0  0  0  0  0  0  0  0  0  0  0  0
   45.9585    4.9682    9.4167 H   0  0  0  0  0  0  0  0  0  0  0  0
   45.9028    1.2629    9.0620 H   0  0  0  0  0  0  0  0  0  0  0  0
   46.5844    5.0128    7.0617 H   0  0  0  0  0  0  0  0  0  0  0  0
   47.5764    3.8073    5.1426 H   0  0  0  0  0  0  0  0  0  0  0  0
   46.8969    0.0601    7.1392 H   0  0  0  0  0  0  0  0  0  0  0  0
   47.7378    1.3293    5.1753 H   0  0  0  0  0  0  0  0  0  0  0  0
  3  2  1  0
  4  2  2  0
  5  8  1  0
  6  2  1  0
  7  6  1  0
  8  7  1  0
  9  5  2  0
 10  5  1  0
 11 10  2  0
 12  9  1  0
 13 12  2  0
 13 11  1  0
  6 14  1  0
  6 15  1  0
  7 16  1  0
  7 17  1  0
  8 18  1  0
  8 19  1  0
  9 20  1  0
 10 21  1  0
 11 22  1  0
 12 23  1  0
 13 24  1  0
M  CHG  2   1   1   3  -1
M  END
> <Uni-Dock RESULT> 
ENERGY=   -4.787  LOWER_BOUND=    1.158  UPPER_BOUND=    1.922
INTER + INTRA:          -4.787
INTER:                  -4.787
INTRA:                   0.000
UNBOUND:                 0.000

$$$$

     RDKit          3D

 24 23  0  0  0  0  0  0  0  0999 V2000
   44.7742    3.4493   10.1046 Na  0  0  0  0  0 15  0  0  0  0  0  0
   46.7608    2.4077    7.1386 C   0  0  0  0  0  0  0  0  0  0  0  0
   46.2784    3.5374    6.8512 O   0  0  0  0  0  0  0  0  0  0  0  0
   47.8235    1.8603    6.7268 O   0  0  0  0  0  0  0  0  0  0  0  0
   44.6516    3.9304   10.8972 C   0  0  0  0  0  0  0  0  0  0  0  0
   45.9549    1.5541    8.1222 C   0  0  0  0  0  0  0  0  0  0  0  0
   44.9562    2.3036    8.9994 C   0  0  0  0  0  0  0  0  0  0  0  0
   45.6493    3.2266   10.0064 C   0  0  0  0  0  0  0  0  0  0  0  0
   44.0081    5.0912   10.4481 C   0  0  0  0  0  0  0  0  0  0  0  0
   44.3377    3.4248   12.1650 C   0  0  0  0  0  0  0  0  0  0  0  0
   43.4049    4.0765   12.9740 C   0  0  0  0  0  0  0  0  0  0  0  0
   43.0756    5.7416   11.2571 C   0  0  0  0  0  0  0  0  0  0  0  0
   42.7750    5.2350   12.5205 C   0  0  0  0  0  0  0  0  0  0  0  0
   46.6506    0.9934    8.7587 H   0  0  0  0  0  0  0  0  0  0  0  0
   45.4083    0.8165    7.5215 H   0  0  0  0  0  0  0  0  0  0  0  0
   44.3470    1.5681    9.5405 H   0  0  0  0  0  0  0  0  0  0  0  0
   44.2615    2.8780    8.3740 H   0  0  0  0  0  0  0  0  0  0  0  0
   46.2601    3.9808    9.4964 H   0  0  0  0  0  0  0  0  0  0  0  0
   46.3454    2.6474   10.6266 H   0  0  0  0  0  0  0  0  0  0  0  0
   44.2365    5.4838    9.4578 H   0  0  0  0  0  0  0  0  0  0  0  0
   44.8200    2.5187   12.5230 H   0  0  0  0  0  0  0  0  0  0  0  0
   43.1690    3.6770   13.9559 H   0  0  0  0  0  0  0  0  0  0  0  0
   42.5849    6.6403   10.8953 H   0  0  0  0  0  0  0  0  0  0  0  0
   42.0482    5.7409   13.1488 H   0  0  0  0  0  0  0  0  0  0  0  0
  3  2  1  0
  4  2  2  0
  5  8  1  0
  6  2  1  0
  7  6  1  0
  8  7  1  0
  9  5  2  0
 10  5  1  0
 11 10  2  0
 12  9  1  0
 13 12  2  0
 13 11  1  0
  6 14  1  0
  6 15  1  0
  7 16  1  0
  7 17  1  0
  8 18  1  0
  8 19  1  0
  9 20  1  0
 10 21  1  0
 11 22  1  0
 12 23  1  0
 13 24  1  0
M  CHG  2   1   1   3  -1
M  END
> <Uni-Dock RESULT> 
ENERGY=   -4.257  LOWER_BOUND=    2.580  UPPER_BOUND=    5.412
INTER + INTRA:          -4.257
INTER:                  -4.257
INTRA:                   0.000
UNBOUND:                 0.000

$$$$

     RDKit          3D

 24 23  0  0  0  0  0  0  0  0999 V2000
   45.3590    5.1721   10.5204 Na  0  0  0  0  0 15  0  0  0  0  0  0
   45.5140    8.4101   12.3425 C   0  0  0  0  0  0  0  0  0  0  0  0
   46.0073    8.6317   11.2029 O   0  0  0  0  0  0  0  0  0  0  0  0
   44.9179    9.2023   13.1272 O   0  0  0  0  0  0  0  0  0  0  0  0
   44.9734    4.5785    9.9092 C   0  0  0  0  0  0  0  0  0  0  0  0
   45.6519    6.9816   12.8774 C   0  0  0  0  0  0  0  0  0  0  0  0
   45.9152    5.8976   11.8363 C   0  0  0  0  0  0  0  0  0  0  0  0
   44.7159    5.6833   10.9079 C   0  0  0  0  0  0  0  0  0  0  0  0
   45.6894    4.8480    8.7354 C   0  0  0  0  0  0  0  0  0  0  0  0
   44.5262    3.2733   10.1498 C   0  0  0  0  0  0  0  0  0  0  0  0
   44.7812    2.2580    9.2259 C   0  0  0  0  0  0  0  0  0  0  0  0
   45.9441    3.8326    7.8128 C   0  0  0  0  0  0  0  0  0  0  0  0
   45.4888    2.5380    8.0574 C   0  0  0  0  0  0  0  0  0  0  0  0
   44.7503    6.7276   13.4485 H   0  0  0  0  0  0  0  0  0  0  0  0
   46.4866    6.9933   13.5893 H   0  0  0  0  0  0  0  0  0  0  0  0
   46.1416    4.9596   12.3595 H   0  0  0  0  0  0  0  0  0  0  0  0
   46.8089    6.1464   11.2504 H   0  0  0  0  0  0  0  0  0  0  0  0
   44.4692    6.6017   10.3620 H   0  0  0  0  0  0  0  0  0  0  0  0
   43.8245    5.4383   11.4995 H   0  0  0  0  0  0  0  0  0  0  0  0
   46.0524    5.8577    8.5467 H   0  0  0  0  0  0  0  0  0  0  0  0
   43.9793    3.0459   11.0613 H   0  0  0  0  0  0  0  0  0  0  0  0
   44.4294    1.2493    9.4212 H   0  0  0  0  0  0  0  0  0  0  0  0
   46.5005    4.0566    6.9074 H   0  0  0  0  0  0  0  0  0  0  0  0
   45.6887    1.7481    7.3396 H   0  0  0  0  0  0  0  0  0  0  0  0
  3  2  1  0
  4  2  2  0
  5  8  1  0
  6  2  1  0
  7  6  1  0
  8  7  1  0
  9  5  2  0
 10  5  1  0
 11 10  2  0
 12  9  1  0
 13 12  2  0
 13 11  1  0
  6 14  1  0
  6 15  1  0
  7 16  1  0
  7 17  1  0
  8 18  1  0
  8 19  1  0
  9 20  1  0
 10 21  1  0
 11 22  1  0
 12 23  1  0
 13 24  1  0
M  CHG  2   1   1   3  -1
M  END
> <Uni-Dock RESULT> 
ENERGY=   -3.982  LOWER_BOUND=    2.556  UPPER_BOUND=    3.191
INTER + INTRA:          -3.982
INTER:                  -3.982
INTRA:                   0.000
UNBOUND:                 0.000

$$$$

     RDKit          3D

 24 23  0  0  0  0  0  0  0  0999 V2000
   45.7420    6.2236   12.2630 Na  0  0  0  0  0 15  0  0  0  0  0  0
   43.5312    3.2665   11.8197 C   0  0  0  0  0  0  0  0  0  0  0  0
   42.7610    4.2591   11.9324 O   0  0  0  0  0  0  0  0  0  0  0  0
   43.3492    2.1744   11.2091 O   0  0  0  0  0  0  0  0  0  0  0  0
   46.1887    6.9834   11.9502 C   0  0  0  0  0  0  0  0  0  0  0  0
   44.8875    3.3745   12.5230 C   0  0  0  0  0  0  0  0  0  0  0  0
   45.3589    4.7864   12.8587 C   0  0  0  0  0  0  0  0  0  0  0  0
   45.6826    5.6021   11.6033 C   0  0  0  0  0  0  0  0  0  0  0  0
   45.2805    8.0089   12.2444 C   0  0  0  0  0  0  0  0  0  0  0  0
   47.5619    7.2526   12.0072 C   0  0  0  0  0  0  0  0  0  0  0  0
   48.0179    8.5292   12.3413 C   0  0  0  0  0  0  0  0  0  0  0  0
   45.7371    9.2844   12.5787 C   0  0  0  0  0  0  0  0  0  0  0  0
   47.1057    9.5449   12.6258 C   0  0  0  0  0  0  0  0  0  0  0  0
   45.6463    2.8725   11.9101 H   0  0  0  0  0  0  0  0  0  0  0  0
   44.8026    2.8029   13.4557 H   0  0  0  0  0  0  0  0  0  0  0  0
   46.2566    4.7140   13.4862 H   0  0  0  0  0  0  0  0  0  0  0  0
   44.6024    5.3032   13.4624 H   0  0  0  0  0  0  0  0  0  0  0  0
   44.8018    5.7011   10.9579 H   0  0  0  0  0  0  0  0  0  0  0  0
   46.4369    5.0788   11.0018 H   0  0  0  0  0  0  0  0  0  0  0  0
   44.2107    7.8046   12.2155 H   0  0  0  0  0  0  0  0  0  0  0  0
   48.2792    6.4644   11.7927 H   0  0  0  0  0  0  0  0  0  0  0  0
   49.0847    8.7281   12.3819 H   0  0  0  0  0  0  0  0  0  0  0  0
   45.0211   10.0692   12.8044 H   0  0  0  0  0  0  0  0  0  0  0  0
   47.4602   10.5373   12.8874 H   0  0  0  0  0  0  0  0  0  0  0  0
  3  2  1  0
  4  2  2  0
  5  8  1  0
  6  2  1  0
  7  6  1  0
  8  7  1  0
  9  5  2  0
 10  5  1  0
 11 10  2  0
 12  9  1  0
 13 12  2  0
 13 11  1  0
  6 14  1  0
  6 15  1  0
  7 16  1  0
  7 17  1  0
  8 18  1  0
  8 19  1  0
  9 20  1  0
 10 21  1  0
 11 22  1  0
 12 23  1  0
 13 24  1  0
M  CHG  2   1   1   3  -1
M  END
> <Uni-Dock RESULT> 
ENERGY=   -3.770  LOWER_BOUND=    4.050  UPPER_BOUND=    5.781
INTER + INTRA:          -3.770
INTER:                  -3.770
INTRA:                   0.000
UNBOUND:                 0.000

$$$$

     RDKit          3D

 24 23  0  0  0  0  0  0  0  0999 V2000
   47.2687    9.1531   20.7568 Na  0  0  0  0  0 15  0  0  0  0  0  0
   47.1783   12.8707   20.7521 C   0  0  0  0  0  0  0  0  0  0  0  0
   47.3514   12.5314   21.9547 O   0  0  0  0  0  0  0  0  0  0  0  0
   47.5333   13.9283   20.1572 O   0  0  0  0  0  0  0  0  0  0  0  0
   47.7148    8.3312   20.7724 C   0  0  0  0  0  0  0  0  0  0  0  0
   46.4236   11.8749   19.8663 C   0  0  0  0  0  0  0  0  0  0  0  0
   46.3880   10.4311   20.3591 C   0  0  0  0  0  0  0  0  0  0  0  0
   47.7707    9.7731   20.3227 C   0  0  0  0  0  0  0  0  0  0  0  0
   47.7292    8.0226   22.1390 C   0  0  0  0  0  0  0  0  0  0  0  0
   47.6233    7.2903   19.8400 C   0  0  0  0  0  0  0  0  0  0  0  0
   47.5594    5.9628   20.2678 C   0  0  0  0  0  0  0  0  0  0  0  0
   47.6648    6.6956   22.5657 C   0  0  0  0  0  0  0  0  0  0  0  0
   47.5813    5.6657   21.6301 C   0  0  0  0  0  0  0  0  0  0  0  0
   46.8493   11.9050   18.8557 H   0  0  0  0  0  0  0  0  0  0  0  0
   45.3932   12.2436   19.7886 H   0  0  0  0  0  0  0  0  0  0  0  0
   45.6983    9.8624   19.7222 H   0  0  0  0  0  0  0  0  0  0  0  0
   45.9745   10.3892   21.3745 H   0  0  0  0  0  0  0  0  0  0  0  0
   48.4827   10.3132   20.9578 H   0  0  0  0  0  0  0  0  0  0  0  0
   48.1808    9.8212   19.3057 H   0  0  0  0  0  0  0  0  0  0  0  0
   47.7867    8.8271   22.8715 H   0  0  0  0  0  0  0  0  0  0  0  0
   47.5996    7.5143   18.7765 H   0  0  0  0  0  0  0  0  0  0  0  0
   47.4895    5.1626   19.5368 H   0  0  0  0  0  0  0  0  0  0  0  0
   47.6768    6.4718   23.6284 H   0  0  0  0  0  0  0  0  0  0  0  0
   47.5297    4.6334   21.9629 H   0  0  0  0  0  0  0  0  0  0  0  0
  3  2  1  0
  4  2  2  0
  5  8  1  0
  6  2  1  0
  7  6  1  0
  8  7  1  0
  9  5  2  0
 10  5  1  0
 11 10  2  0
 12  9  1  0
 13 12  2  0
 13 11  1  0
  6 14  1  0
  6 15  1  0
  7 16  1  0
  7 17  1  0
  8 18  1  0
  8 19  1  0
  9 20  1  0
 10 21  1  0
 11 22  1  0
 12 23  1  0
 13 24  1  0
M  CHG  2   1   1   3  -1
M  END
> <Uni-Dock RESULT> 
ENERGY=   -3.578  LOWER_BOUND=   12.505  UPPER_BOUND=   13.751
INTER + INTRA:          -3.578
INTER:                  -3.578
INTRA:                   0.000
UNBOUND:                 0.000

$$$$

     RDKit          3D

 24 23  0  0  0  0  0  0  0  0999 V2000
   45.9854    5.5974   12.9121 Na  0  0  0  0  0 15  0  0  0  0  0  0
   48.3315    8.0647   14.4076 C   0  0  0  0  0  0  0  0  0  0  0  0
   47.2159    8.6492   14.3358 O   0  0  0  0  0  0  0  0  0  0  0  0
   49.2838    8.2493   15.2185 O   0  0  0  0  0  0  0  0  0  0  0  0
   45.3087    4.9538   12.9652 C   0  0  0  0  0  0  0  0  0  0  0  0
   48.5960    6.9735   13.3659 C   0  0  0  0  0  0  0  0  0  0  0  0
   47.3646    6.3810   12.6870 C   0  0  0  0  0  0  0  0  0  0  0  0
   46.5018    5.5703   13.6588 C   0  0  0  0  0  0  0  0  0  0  0  0
   44.1521    5.7151   12.7515 C   0  0  0  0  0  0  0  0  0  0  0  0
   45.3481    3.6312   12.5065 C   0  0  0  0  0  0  0  0  0  0  0  0
   44.2444    3.0765   11.8557 C   0  0  0  0  0  0  0  0  0  0  0  0
   43.0497    5.1600   12.1007 C   0  0  0  0  0  0  0  0  0  0  0  0
   43.0953    3.8403   11.6540 C   0  0  0  0  0  0  0  0  0  0  0  0
   49.1770    6.1691   13.8339 H   0  0  0  0  0  0  0  0  0  0  0  0
   49.2370    7.4233   12.5974 H   0  0  0  0  0  0  0  0  0  0  0  0
   47.6974    5.7308   11.8676 H   0  0  0  0  0  0  0  0  0  0  0  0
   46.7687    7.1779   12.2246 H   0  0  0  0  0  0  0  0  0  0  0  0
   46.1447    6.1949   14.4862 H   0  0  0  0  0  0  0  0  0  0  0  0
   47.1038    4.7773   14.1207 H   0  0  0  0  0  0  0  0  0  0  0  0
   44.1179    6.7490   13.0933 H   0  0  0  0  0  0  0  0  0  0  0  0
   46.2425    3.0314   12.6546 H   0  0  0  0  0  0  0  0  0  0  0  0
   44.2845    2.0496   11.5045 H   0  0  0  0  0  0  0  0  0  0  0  0
   42.1600    5.7624   11.9421 H   0  0  0  0  0  0  0  0  0  0  0  0
   42.2376    3.4096   11.1462 H   0  0  0  0  0  0  0  0  0  0  0  0
  3  2  1  0
  4  2  2  0
  5  8  1  0
  6  2  1  0
  7  6  1  0
  8  7  1  0
  9  5  2  0
 10  5  1  0
 11 10  2  0
 12  9  1  0
 13 12  2  0
 13 11  1  0
  6 14  1  0
  6 15  1  0
  7 16  1  0
  7 17  1  0
  8 18  1  0
  8 19  1  0
  9 20  1  0
 10 21  1  0
 11 22  1  0
 12 23  1  0
 13 24  1  0
M  CHG  2   1   1   3  -1
M  END
> <Uni-Dock RESULT> 
ENERGY=   -3.536  LOWER_BOUND=    4.616  UPPER_BOUND=    6.021
INTER + INTRA:          -3.536
INTER:                  -3.536
INTRA:                   0.000
UNBOUND:                 0.000

$$$$

     RDKit          3D

 24 23  0  0  0  0  0  0  0  0999 V2000
   45.5335    6.2048   11.9881 Na  0  0  0  0  0 15  0  0  0  0  0  0
   47.3809    8.9903   13.6181 C   0  0  0  0  0  0  0  0  0  0  0  0
   47.3873    8.0401   14.4478 O   0  0  0  0  0  0  0  0  0  0  0  0
   48.2154    9.9276   13.4647 O   0  0  0  0  0  0  0  0  0  0  0  0
   45.4899    5.3983   11.5165 C   0  0  0  0  0  0  0  0  0  0  0  0
   46.1951    9.0402   12.6501 C   0  0  0  0  0  0  0  0  0  0  0  0
   45.4311    7.7336   12.4567 C   0  0  0  0  0  0  0  0  0  0  0  0
   46.2716    6.6724   11.7399 C   0  0  0  0  0  0  0  0  0  0  0  0
   45.3809    4.4537   12.5455 C   0  0  0  0  0  0  0  0  0  0  0  0
   44.8464    5.1541   10.2968 C   0  0  0  0  0  0  0  0  0  0  0  0
   44.1165    3.9793   10.1064 C   0  0  0  0  0  0  0  0  0  0  0  0
   44.6508    3.2800   12.3546 C   0  0  0  0  0  0  0  0  0  0  0  0
   44.0198    3.0422   11.1346 C   0  0  0  0  0  0  0  0  0  0  0  0
   46.5462    9.4050   11.6769 H   0  0  0  0  0  0  0  0  0  0  0  0
   45.5028    9.7957   13.0422 H   0  0  0  0  0  0  0  0  0  0  0  0
   44.5289    7.9415   11.8670 H   0  0  0  0  0  0  0  0  0  0  0  0
   45.0844    7.3524   13.4253 H   0  0  0  0  0  0  0  0  0  0  0  0
   47.1780    6.4348   12.3093 H   0  0  0  0  0  0  0  0  0  0  0  0
   46.6185    7.0605   10.7736 H   0  0  0  0  0  0  0  0  0  0  0  0
   45.8673    4.6419   13.5021 H   0  0  0  0  0  0  0  0  0  0  0  0
   44.9122    5.8826    9.4927 H   0  0  0  0  0  0  0  0  0  0  0  0
   43.6219    3.7988    9.1566 H   0  0  0  0  0  0  0  0  0  0  0  0
   44.5752    2.5571   13.1615 H   0  0  0  0  0  0  0  0  0  0  0  0
   43.4506    2.1294   10.9872 H   0  0  0  0  0  0  0  0  0  0  0  0
  3  2  1  0
  4  2  2  0
  5  8  1  0
  6  2  1  0
  7  6  1  0
  8  7  1  0
  9  5  2  0
 10  5  1  0
 11 10  2  0
 12  9  1  0
 13 12  2  0
 13 11  1  0
  6 14  1  0
  6 15  1  0
  7 16  1  0
  7 17  1  0
  8 18  1  0
  8 19  1  0
  9 20  1  0
 10 21  1  0
 11 22  1  0
 12 23  1  0
 13 24  1  0
M  CHG  2   1   1   3  -1
M  END
> <Uni-Dock RESULT> 
ENERGY=   -3.423  LOWER_BOUND=    4.018  UPPER_BOUND=    5.480
INTER + INTRA:          -3.423
INTER:                  -3.423
INTRA:                   0.000
UNBOUND:                 0.000

$$$$

     RDKit          3D

 24 23  0  0  0  0  0  0  0  0999 V2000
   47.7600    5.8170   20.0730 Na  0  0  0  0  0 15  0  0  0  0  0  0
   47.3592    3.9181   16.9009 C   0  0  0  0  0  0  0  0  0  0  0  0
   47.1693    3.0843   17.8284 O   0  0  0  0  0  0  0  0  0  0  0  0
   46.8995    3.9273   15.7232 O   0  0  0  0  0  0  0  0  0  0  0  0
   47.4260    6.2726   20.8184 C   0  0  0  0  0  0  0  0  0  0  0  0
   48.2842    5.0954   17.2235 C   0  0  0  0  0  0  0  0  0  0  0  0
   48.4840    5.4060   18.7041 C   0  0  0  0  0  0  0  0  0  0  0  0
   47.2041    5.9286   19.3635 C   0  0  0  0  0  0  0  0  0  0  0  0
   47.3806    5.2654   21.7913 C   0  0  0  0  0  0  0  0  0  0  0  0
   47.7029    7.5879   21.2120 C   0  0  0  0  0  0  0  0  0  0  0  0
   47.9189    7.8915   22.5576 C   0  0  0  0  0  0  0  0  0  0  0  0
   47.5970    5.5697   23.1357 C   0  0  0  0  0  0  0  0  0  0  0  0
   47.8648    6.8829   23.5190 C   0  0  0  0  0  0  0  0  0  0  0  0
   47.9120    5.9905   16.7099 H   0  0  0  0  0  0  0  0  0  0  0  0
   49.2596    4.8573   16.7812 H   0  0  0  0  0  0  0  0  0  0  0  0
   49.2753    6.1609   18.7980 H   0  0  0  0  0  0  0  0  0  0  0  0
   48.8454    4.5142   19.2311 H   0  0  0  0  0  0  0  0  0  0  0  0
   46.3946    5.1923   19.2948 H   0  0  0  0  0  0  0  0  0  0  0  0
   46.8453    6.8182   18.8300 H   0  0  0  0  0  0  0  0  0  0  0  0
   47.1790    4.2374   21.4921 H   0  0  0  0  0  0  0  0  0  0  0  0
   47.7528    8.3785   20.4676 H   0  0  0  0  0  0  0  0  0  0  0  0
   48.1321    8.9146   22.8528 H   0  0  0  0  0  0  0  0  0  0  0  0
   47.5588    4.7783   23.8785 H   0  0  0  0  0  0  0  0  0  0  0  0
   48.0346    7.1187   24.5653 H   0  0  0  0  0  0  0  0  0  0  0  0
  3  2  1  0
  4  2  2  0
  5  8  1  0
  6  2  1  0
  7  6  1  0
  8  7  1  0
  9  5  2  0
 10  5  1  0
 11 10  2  0
 12  9  1  0
 13 12  2  0
 13 11  1  0
  6 14  1  0
  6 15  1  0
  7 16  1  0
  7 17  1  0
  8 18  1  0
  8 19  1  0
  9 20  1  0
 10 21  1  0
 11 22  1  0
 12 23  1  0
 13 24  1  0
M  CHG  2   1   1   3  -1
M  END
> <Uni-Dock RESULT> 
ENERGY=   -3.394  LOWER_BOUND=    9.858  UPPER_BOUND=   12.423
INTER + INTRA:          -3.394
INTER:                  -3.394
INTRA:                   0.000
UNBOUND:                 0.000

$$$$
