
     RDKit          3D

 24 23  0  0  0  0  0  0  0  0999 V2000
   45.4119    3.1736    9.1363 Na  0  0  0  0  0 15  0  0  0  0  0  0
   43.1316    5.1259   11.3512 C   0  0  0  0  0  0  0  0  0  0  0  0
   43.5753    5.9496   10.5051 O   0  0  0  0  0  0  0  0  0  0  0  0
   42.0404    5.1402   11.9895 O   0  0  0  0  0  0  0  0  0  0  0  0
   45.5645    2.7167    8.3226 C   0  0  0  0  0  0  0  0  0  0  0  0
   44.0323    3.9298   11.6733 C   0  0  0  0  0  0  0  0  0  0  0  0
   45.1008    3.5957   10.6363 C   0  0  0  0  0  0  0  0  0  0  0  0
   44.4953    3.0843    9.3257 C   0  0  0  0  0  0  0  0  0  0  0  0
   46.1534    3.7110    7.5304 C   0  0  0  0  0  0  0  0  0  0  0  0
   45.9984    1.3921    8.1871 C   0  0  0  0  0  0  0  0  0  0  0  0
   46.9960    1.0665    7.2662 C   0  0  0  0  0  0  0  0  0  0  0  0
   47.1507    3.3850    6.6106 C   0  0  0  0  0  0  0  0  0  0  0  0
   47.5709    2.0624    6.4775 C   0  0  0  0  0  0  0  0  0  0  0  0
   43.4032    3.0478   11.8461 H   0  0  0  0  0  0  0  0  0  0  0  0
   44.5278    4.1586   12.6251 H   0  0  0  0  0  0  0  0  0  0  0  0
   45.7298    4.4743   10.4464 H   0  0  0  0  0  0  0  0  0  0  0  0
   45.7638    2.8272   11.0544 H   0  0  0  0  0  0  0  0  0  0  0  0
   43.8645    2.2079    9.5224 H   0  0  0  0  0  0  0  0  0  0  0  0
   43.8335    3.8342    8.8766 H   0  0  0  0  0  0  0  0  0  0  0  0
   45.8313    4.7462    7.6390 H   0  0  0  0  0  0  0  0  0  0  0  0
   45.5593    0.6111    8.8027 H   0  0  0  0  0  0  0  0  0  0  0  0
   47.3247    0.0363    7.1680 H   0  0  0  0  0  0  0  0  0  0  0  0
   47.5980    4.1664    6.0035 H   0  0  0  0  0  0  0  0  0  0  0  0
   48.3481    1.8097    5.7626 H   0  0  0  0  0  0  0  0  0  0  0  0
  3  2  1  0
  4  2  2  0
  5  8  1  0
  6  2  1  0
  7  6  1  0
  8  7  1  0
  9  5  2  0
 10  5  1  0
 11 10  2  0
 12  9  1  0
 13 12  2  0
 13 11  1  0
  6 14  1  0
  6 15  1  0
  7 16  1  0
  7 17  1  0
  8 18  1  0
  8 19  1  0
  9 20  1  0
 10 21  1  0
 11 22  1  0
 12 23  1  0
 13 24  1  0
M  CHG  2   1   1   3  -1
M  END
> <Uni-Dock RESULT> 
ENERGY=   -6.355  LOWER_BOUND=    0.000  UPPER_BOUND=    0.000
INTER + INTRA:          -6.355
INTER:                  -6.355
INTRA:                   0.000
UNBOUND:                 0.000

$$$$

     RDKit          3D

 24 23  0  0  0  0  0  0  0  0999 V2000
   44.9420    4.0155    9.6549 Na  0  0  0  0  0 15  0  0  0  0  0  0
   46.7700    2.6162    6.7193 C   0  0  0  0  0  0  0  0  0  0  0  0
   46.9233    1.7781    7.6496 O   0  0  0  0  0  0  0  0  0  0  0  0
   46.7723    2.4359    5.4680 O   0  0  0  0  0  0  0  0  0  0  0  0
   44.1727    4.0316   10.2046 C   0  0  0  0  0  0  0  0  0  0  0  0
   46.5554    4.0720    7.1439 C   0  0  0  0  0  0  0  0  0  0  0  0
   46.0760    4.2899    8.5762 C   0  0  0  0  0  0  0  0  0  0  0  0
   44.6513    3.7717    8.7946 C   0  0  0  0  0  0  0  0  0  0  0  0
   44.5285    3.1548   11.2378 C   0  0  0  0  0  0  0  0  0  0  0  0
   43.3938    5.1563   10.5036 C   0  0  0  0  0  0  0  0  0  0  0  0
   42.9684    5.3929   11.8121 C   0  0  0  0  0  0  0  0  0  0  0  0
   44.1033    3.3922   12.5454 C   0  0  0  0  0  0  0  0  0  0  0  0
   43.3220    4.5105   12.8322 C   0  0  0  0  0  0  0  0  0  0  0  0
   45.8516    4.5450    6.4477 H   0  0  0  0  0  0  0  0  0  0  0  0
   47.5192    4.5805    7.0163 H   0  0  0  0  0  0  0  0  0  0  0  0
   46.7663    3.8111    9.2818 H   0  0  0  0  0  0  0  0  0  0  0  0
   46.1091    5.3650    8.7949 H   0  0  0  0  0  0  0  0  0  0  0  0
   43.9662    4.2513    8.0839 H   0  0  0  0  0  0  0  0  0  0  0  0
   44.5864    2.6960    8.5930 H   0  0  0  0  0  0  0  0  0  0  0  0
   45.1456    2.2846   11.0164 H   0  0  0  0  0  0  0  0  0  0  0  0
   43.1191    5.8521    9.7148 H   0  0  0  0  0  0  0  0  0  0  0  0
   42.3638    6.2674   12.0335 H   0  0  0  0  0  0  0  0  0  0  0  0
   44.3870    2.7038   13.3361 H   0  0  0  0  0  0  0  0  0  0  0  0
   42.9928    4.6954   13.8503 H   0  0  0  0  0  0  0  0  0  0  0  0
  3  2  1  0
  4  2  2  0
  5  8  1  0
  6  2  1  0
  7  6  1  0
  8  7  1  0
  9  5  2  0
 10  5  1  0
 11 10  2  0
 12  9  1  0
 13 12  2  0
 13 11  1  0
  6 14  1  0
  6 15  1  0
  7 16  1  0
  7 17  1  0
  8 18  1  0
  8 19  1  0
  9 20  1  0
 10 21  1  0
 11 22  1  0
 12 23  1  0
 13 24  1  0
M  CHG  2   1   1   3  -1
M  END
> <Uni-Dock RESULT> 
ENERGY=   -4.994  LOWER_BOUND=    2.860  UPPER_BOUND=    5.542
INTER + INTRA:          -4.994
INTER:                  -4.994
INTRA:                   0.000
UNBOUND:                 0.000

$$$$

     RDKit          3D

 24 23  0  0  0  0  0  0  0  0999 V2000
   45.3732    3.3706    8.6536 Na  0  0  0  0  0 15  0  0  0  0  0  0
   43.5413    4.0937   11.8220 C   0  0  0  0  0  0  0  0  0  0  0  0
   43.7925    2.8577   11.8459 O   0  0  0  0  0  0  0  0  0  0  0  0
   43.3762    4.8981   12.7833 O   0  0  0  0  0  0  0  0  0  0  0  0
   46.1887    3.2202    8.1992 C   0  0  0  0  0  0  0  0  0  0  0  0
   43.4051    4.7334   10.4371 C   0  0  0  0  0  0  0  0  0  0  0  0
   44.0409    3.9693    9.2792 C   0  0  0  0  0  0  0  0  0  0  0  0
   45.5694    3.9427    9.3735 C   0  0  0  0  0  0  0  0  0  0  0  0
   46.2774    1.8220    8.2047 C   0  0  0  0  0  0  0  0  0  0  0  0
   46.6572    3.9280    7.0854 C   0  0  0  0  0  0  0  0  0  0  0  0
   47.2156    3.2488    6.0009 C   0  0  0  0  0  0  0  0  0  0  0  0
   46.8352    1.1438    7.1203 C   0  0  0  0  0  0  0  0  0  0  0  0
   47.3057    1.8575    6.0190 C   0  0  0  0  0  0  0  0  0  0  0  0
   43.8167    5.7497   10.4732 H   0  0  0  0  0  0  0  0  0  0  0  0
   42.3298    4.8323   10.2426 H   0  0  0  0  0  0  0  0  0  0  0  0
   43.6452    2.9467    9.2398 H   0  0  0  0  0  0  0  0  0  0  0  0
   43.7432    4.4508    8.3388 H   0  0  0  0  0  0  0  0  0  0  0  0
   45.9590    4.9679    9.4163 H   0  0  0  0  0  0  0  0  0  0  0  0
   45.9002    3.4583   10.2998 H   0  0  0  0  0  0  0  0  0  0  0  0
   45.9030    1.2626    9.0614 H   0  0  0  0  0  0  0  0  0  0  0  0
   46.5850    5.0125    7.0613 H   0  0  0  0  0  0  0  0  0  0  0  0
   47.5770    3.8069    5.1423 H   0  0  0  0  0  0  0  0  0  0  0  0
   46.8971    0.0597    7.1386 H   0  0  0  0  0  0  0  0  0  0  0  0
   47.7382    1.3289    5.1749 H   0  0  0  0  0  0  0  0  0  0  0  0
  3  2  1  0
  4  2  2  0
  5  8  1  0
  6  2  1  0
  7  6  1  0
  8  7  1  0
  9  5  2  0
 10  5  1  0
 11 10  2  0
 12  9  1  0
 13 12  2  0
 13 11  1  0
  6 14  1  0
  6 15  1  0
  7 16  1  0
  7 17  1  0
  8 18  1  0
  8 19  1  0
  9 20  1  0
 10 21  1  0
 11 22  1  0
 12 23  1  0
 13 24  1  0
M  CHG  2   1   1   3  -1
M  END
> <Uni-Dock RESULT> 
ENERGY=   -4.793  LOWER_BOUND=    1.159  UPPER_BOUND=    1.923
INTER + INTRA:          -4.793
INTER:                  -4.793
INTRA:                   0.000
UNBOUND:                 0.000

$$$$

     RDKit          3D

 24 23  0  0  0  0  0  0  0  0999 V2000
   45.3943    5.1476   10.5350 Na  0  0  0  0  0 15  0  0  0  0  0  0
   45.5146    8.4087   12.3427 C   0  0  0  0  0  0  0  0  0  0  0  0
   46.0073    8.6306   11.2028 O   0  0  0  0  0  0  0  0  0  0  0  0
   44.9187    9.2007   13.1276 O   0  0  0  0  0  0  0  0  0  0  0  0
   44.9737    4.5773    9.9089 C   0  0  0  0  0  0  0  0  0  0  0  0
   45.6530    6.9802   12.8773 C   0  0  0  0  0  0  0  0  0  0  0  0
   45.9161    5.8963   11.8358 C   0  0  0  0  0  0  0  0  0  0  0  0
   44.7165    5.6820   10.9079 C   0  0  0  0  0  0  0  0  0  0  0  0
   45.6892    4.8472    8.7349 C   0  0  0  0  0  0  0  0  0  0  0  0
   44.5271    3.2720   10.1495 C   0  0  0  0  0  0  0  0  0  0  0  0
   44.7819    2.2569    9.2253 C   0  0  0  0  0  0  0  0  0  0  0  0
   45.9438    3.8321    7.8120 C   0  0  0  0  0  0  0  0  0  0  0  0
   45.4888    2.5373    8.0566 C   0  0  0  0  0  0  0  0  0  0  0  0
   44.7516    6.7258   13.4487 H   0  0  0  0  0  0  0  0  0  0  0  0
   46.4881    6.9919   13.5888 H   0  0  0  0  0  0  0  0  0  0  0  0
   46.8095    6.1454   11.2497 H   0  0  0  0  0  0  0  0  0  0  0  0
   46.1430    4.9583   12.3588 H   0  0  0  0  0  0  0  0  0  0  0  0
   43.8254    5.4367   11.4998 H   0  0  0  0  0  0  0  0  0  0  0  0
   44.4695    6.6002   10.3622 H   0  0  0  0  0  0  0  0  0  0  0  0
   46.0520    5.8570    8.5462 H   0  0  0  0  0  0  0  0  0  0  0  0
   43.9805    3.0443   11.0612 H   0  0  0  0  0  0  0  0  0  0  0  0
   44.4304    1.2482    9.4206 H   0  0  0  0  0  0  0  0  0  0  0  0
   46.4999    4.0562    6.9064 H   0  0  0  0  0  0  0  0  0  0  0  0
   45.6887    1.7476    7.3387 H   0  0  0  0  0  0  0  0  0  0  0  0
  3  2  1  0
  4  2  2  0
  5  8  1  0
  6  2  1  0
  7  6  1  0
  8  7  1  0
  9  5  2  0
 10  5  1  0
 11 10  2  0
 12  9  1  0
 13 12  2  0
 13 11  1  0
  6 14  1  0
  6 15  1  0
  7 16  1  0
  7 17  1  0
  8 18  1  0
  8 19  1  0
  9 20  1  0
 10 21  1  0
 11 22  1  0
 12 23  1  0
 13 24  1  0
M  CHG  2   1   1   3  -1
M  END
> <Uni-Dock RESULT> 
ENERGY=   -3.982  LOWER_BOUND=    2.554  UPPER_BOUND=    3.189
INTER + INTRA:          -3.982
INTER:                  -3.982
INTRA:                   0.000
UNBOUND:                 0.000

$$$$

     RDKit          3D

 24 23  0  0  0  0  0  0  0  0999 V2000
   45.3265    6.5352   11.9178 Na  0  0  0  0  0 15  0  0  0  0  0  0
   44.0527    3.0396   11.6425 C   0  0  0  0  0  0  0  0  0  0  0  0
   45.1302    2.9613   12.2938 O   0  0  0  0  0  0  0  0  0  0  0  0
   43.0412    2.2818   11.6700 O   0  0  0  0  0  0  0  0  0  0  0  0
   45.4311    7.3276   12.4231 C   0  0  0  0  0  0  0  0  0  0  0  0
   43.9331    4.2118   10.6640 C   0  0  0  0  0  0  0  0  0  0  0  0
   44.8670    5.3926   10.9137 C   0  0  0  0  0  0  0  0  0  0  0  0
   44.5268    6.1356   12.2091 C   0  0  0  0  0  0  0  0  0  0  0  0
   46.6998    7.1514   12.9911 C   0  0  0  0  0  0  0  0  0  0  0  0
   45.0300    8.6128   12.0378 C   0  0  0  0  0  0  0  0  0  0  0  0
   45.8792    9.7045   12.2286 C   0  0  0  0  0  0  0  0  0  0  0  0
   47.5481    8.2427   13.1810 C   0  0  0  0  0  0  0  0  0  0  0  0
   47.1371    9.5196   12.8012 C   0  0  0  0  0  0  0  0  0  0  0  0
   42.8940    4.5638   10.6567 H   0  0  0  0  0  0  0  0  0  0  0  0
   44.1392    3.8078    9.6650 H   0  0  0  0  0  0  0  0  0  0  0  0
   45.9094    5.0511   10.9346 H   0  0  0  0  0  0  0  0  0  0  0  0
   44.7872    6.0853   10.0659 H   0  0  0  0  0  0  0  0  0  0  0  0
   43.4822    6.4716   12.1839 H   0  0  0  0  0  0  0  0  0  0  0  0
   44.6065    5.4721   13.0783 H   0  0  0  0  0  0  0  0  0  0  0  0
   47.0252    6.1529   13.2813 H   0  0  0  0  0  0  0  0  0  0  0  0
   44.0532    8.7641   11.5853 H   0  0  0  0  0  0  0  0  0  0  0  0
   45.5584   10.6972   11.9275 H   0  0  0  0  0  0  0  0  0  0  0  0
   48.5287    8.0908   13.6224 H   0  0  0  0  0  0  0  0  0  0  0  0
   47.7985   10.3682   12.9479 H   0  0  0  0  0  0  0  0  0  0  0  0
  3  2  1  0
  4  2  2  0
  5  8  1  0
  6  2  1  0
  7  6  1  0
  8  7  1  0
  9  5  2  0
 10  5  1  0
 11 10  2  0
 12  9  1  0
 13 12  2  0
 13 11  1  0
  6 14  1  0
  6 15  1  0
  7 16  1  0
  7 17  1  0
  8 18  1  0
  8 19  1  0
  9 20  1  0
 10 21  1  0
 11 22  1  0
 12 23  1  0
 13 24  1  0
M  CHG  2   1   1   3  -1
M  END
> <Uni-Dock RESULT> 
ENERGY=   -3.773  LOWER_BOUND=    3.899  UPPER_BOUND=    6.085
INTER + INTRA:          -3.773
INTER:                  -3.773
INTRA:                   0.000
UNBOUND:                 0.000

$$$$

     RDKit          3D

 24 23  0  0  0  0  0  0  0  0999 V2000
   45.7546    6.2232   12.3087 Na  0  0  0  0  0 15  0  0  0  0  0  0
   43.5323    3.2666   11.8215 C   0  0  0  0  0  0  0  0  0  0  0  0
   42.7621    4.2595   11.9317 O   0  0  0  0  0  0  0  0  0  0  0  0
   43.3512    2.1740   11.2119 O   0  0  0  0  0  0  0  0  0  0  0  0
   46.1904    6.9832   11.9529 C   0  0  0  0  0  0  0  0  0  0  0  0
   44.8873    3.3751   12.5273 C   0  0  0  0  0  0  0  0  0  0  0  0
   45.3585    4.7874   12.8623 C   0  0  0  0  0  0  0  0  0  0  0  0
   45.6846    5.6016   11.6066 C   0  0  0  0  0  0  0  0  0  0  0  0
   45.2818    8.0092   12.2443 C   0  0  0  0  0  0  0  0  0  0  0  0
   47.5634    7.2522   12.0123 C   0  0  0  0  0  0  0  0  0  0  0  0
   48.0190    8.5291   12.3459 C   0  0  0  0  0  0  0  0  0  0  0  0
   45.7379    9.2849   12.5781 C   0  0  0  0  0  0  0  0  0  0  0  0
   47.1065    9.5452   12.6274 C   0  0  0  0  0  0  0  0  0  0  0  0
   45.6473    2.8723   11.9163 H   0  0  0  0  0  0  0  0  0  0  0  0
   44.8006    2.8045   13.4604 H   0  0  0  0  0  0  0  0  0  0  0  0
   44.6009    5.3049   13.4640 H   0  0  0  0  0  0  0  0  0  0  0  0
   46.2549    4.7155   13.4916 H   0  0  0  0  0  0  0  0  0  0  0  0
   46.4399    5.0775   11.0071 H   0  0  0  0  0  0  0  0  0  0  0  0
   44.8050    5.7002   10.9596 H   0  0  0  0  0  0  0  0  0  0  0  0
   44.2120    7.8050   12.2137 H   0  0  0  0  0  0  0  0  0  0  0  0
   48.2811    6.4637   11.8000 H   0  0  0  0  0  0  0  0  0  0  0  0
   49.0858    8.7278   12.3882 H   0  0  0  0  0  0  0  0  0  0  0  0
   45.0218   10.0702   12.8017 H   0  0  0  0  0  0  0  0  0  0  0  0
   47.4607   10.5378   12.8888 H   0  0  0  0  0  0  0  0  0  0  0  0
  3  2  1  0
  4  2  2  0
  5  8  1  0
  6  2  1  0
  7  6  1  0
  8  7  1  0
  9  5  2  0
 10  5  1  0
 11 10  2  0
 12  9  1  0
 13 12  2  0
 13 11  1  0
  6 14  1  0
  6 15  1  0
  7 16  1  0
  7 17  1  0
  8 18  1  0
  8 19  1  0
  9 20  1  0
 10 21  1  0
 11 22  1  0
 12 23  1  0
 13 24  1  0
M  CHG  2   1   1   3  -1
M  END
> <Uni-Dock RESULT> 
ENERGY=   -3.771  LOWER_BOUND=    4.053  UPPER_BOUND=    5.783
INTER + INTRA:          -3.771
INTER:                  -3.771
INTRA:                   0.000
UNBOUND:                 0.000

$$$$

     RDKit          3D

 24 23  0  0  0  0  0  0  0  0999 V2000
   45.7312    5.2738   11.1943 Na  0  0  0  0  0 15  0  0  0  0  0  0
   46.7904    8.3121   13.0822 C   0  0  0  0  0  0  0  0  0  0  0  0
   46.9753    8.5838   11.8642 O   0  0  0  0  0  0  0  0  0  0  0  0
   46.5483    9.0886   14.0500 O   0  0  0  0  0  0  0  0  0  0  0  0
   45.0804    4.8178   10.6819 C   0  0  0  0  0  0  0  0  0  0  0  0
   46.8739    6.8326   13.4693 C   0  0  0  0  0  0  0  0  0  0  0  0
   46.6888    5.8301   12.3338 C   0  0  0  0  0  0  0  0  0  0  0  0
   45.2623    5.8442   11.7763 C   0  0  0  0  0  0  0  0  0  0  0  0
   45.4744    5.1147    9.3706 C   0  0  0  0  0  0  0  0  0  0  0  0
   44.5431    3.5553   10.9623 C   0  0  0  0  0  0  0  0  0  0  0  0
   44.3918    2.6106    9.9455 C   0  0  0  0  0  0  0  0  0  0  0  0
   45.3233    4.1699    8.3550 C   0  0  0  0  0  0  0  0  0  0  0  0
   44.7805    2.9183    8.6423 C   0  0  0  0  0  0  0  0  0  0  0  0
   46.1391    6.6299   14.2584 H   0  0  0  0  0  0  0  0  0  0  0  0
   47.8663    6.6806   13.9121 H   0  0  0  0  0  0  0  0  0  0  0  0
   47.4113    6.0300   11.5327 H   0  0  0  0  0  0  0  0  0  0  0  0
   46.9205    4.8267   12.7137 H   0  0  0  0  0  0  0  0  0  0  0  0
   44.5441    5.6473   12.5826 H   0  0  0  0  0  0  0  0  0  0  0  0
   45.0025    6.8326   11.3793 H   0  0  0  0  0  0  0  0  0  0  0  0
   45.9058    6.0897    9.1462 H   0  0  0  0  0  0  0  0  0  0  0  0
   44.2433    3.3058   11.9770 H   0  0  0  0  0  0  0  0  0  0  0  0
   43.9732    1.6348   10.1730 H   0  0  0  0  0  0  0  0  0  0  0  0
   45.6333    4.4142    7.3432 H   0  0  0  0  0  0  0  0  0  0  0  0
   44.6647    2.1831    7.8517 H   0  0  0  0  0  0  0  0  0  0  0  0
  3  2  1  0
  4  2  2  0
  5  8  1  0
  6  2  1  0
  7  6  1  0
  8  7  1  0
  9  5  2  0
 10  5  1  0
 11 10  2  0
 12  9  1  0
 13 12  2  0
 13 11  1  0
  6 14  1  0
  6 15  1  0
  7 16  1  0
  7 17  1  0
  8 18  1  0
  8 19  1  0
  9 20  1  0
 10 21  1  0
 11 22  1  0
 12 23  1  0
 13 24  1  0
M  CHG  2   1   1   3  -1
M  END
> <Uni-Dock RESULT> 
ENERGY=   -3.646  LOWER_BOUND=    3.174  UPPER_BOUND=    3.992
INTER + INTRA:          -3.646
INTER:                  -3.646
INTRA:                   0.000
UNBOUND:                 0.000

$$$$

     RDKit          3D

 24 23  0  0  0  0  0  0  0  0999 V2000
   47.2258    9.1406   20.7553 Na  0  0  0  0  0 15  0  0  0  0  0  0
   47.1778   12.8708   20.7519 C   0  0  0  0  0  0  0  0  0  0  0  0
   47.3505   12.5315   21.9546 O   0  0  0  0  0  0  0  0  0  0  0  0
   47.5331   13.9284   20.1573 O   0  0  0  0  0  0  0  0  0  0  0  0
   47.7146    8.3313   20.7726 C   0  0  0  0  0  0  0  0  0  0  0  0
   46.4236   11.8749   19.8658 C   0  0  0  0  0  0  0  0  0  0  0  0
   46.3880   10.4311   20.3586 C   0  0  0  0  0  0  0  0  0  0  0  0
   47.7707    9.7732   20.3229 C   0  0  0  0  0  0  0  0  0  0  0  0
   47.7284    8.0228   22.1392 C   0  0  0  0  0  0  0  0  0  0  0  0
   47.6236    7.2903   19.8403 C   0  0  0  0  0  0  0  0  0  0  0  0
   47.5594    5.9629   20.2681 C   0  0  0  0  0  0  0  0  0  0  0  0
   47.6638    6.6959   22.5660 C   0  0  0  0  0  0  0  0  0  0  0  0
   47.5808    5.6659   21.6303 C   0  0  0  0  0  0  0  0  0  0  0  0
   46.8498   11.9051   18.8553 H   0  0  0  0  0  0  0  0  0  0  0  0
   45.3932   12.2436   19.7877 H   0  0  0  0  0  0  0  0  0  0  0  0
   45.9739   10.3892   21.3738 H   0  0  0  0  0  0  0  0  0  0  0  0
   45.6985    9.8624   19.7214 H   0  0  0  0  0  0  0  0  0  0  0  0
   48.1812    9.8213   19.3062 H   0  0  0  0  0  0  0  0  0  0  0  0
   48.4823   10.3133   20.9584 H   0  0  0  0  0  0  0  0  0  0  0  0
   47.7855    8.8273   22.8718 H   0  0  0  0  0  0  0  0  0  0  0  0
   47.6003    7.5143   18.7767 H   0  0  0  0  0  0  0  0  0  0  0  0
   47.4900    5.1628   19.5371 H   0  0  0  0  0  0  0  0  0  0  0  0
   47.6753    6.4720   23.6287 H   0  0  0  0  0  0  0  0  0  0  0  0
   47.5290    4.6336   21.9632 H   0  0  0  0  0  0  0  0  0  0  0  0
  3  2  1  0
  4  2  2  0
  5  8  1  0
  6  2  1  0
  7  6  1  0
  8  7  1  0
  9  5  2  0
 10  5  1  0
 11 10  2  0
 12  9  1  0
 13 12  2  0
 13 11  1  0
  6 14  1  0
  6 15  1  0
  7 16  1  0
  7 17  1  0
  8 18  1  0
  8 19  1  0
  9 20  1  0
 10 21  1  0
 11 22  1  0
 12 23  1  0
 13 24  1  0
M  CHG  2   1   1   3  -1
M  END
> <Uni-Dock RESULT> 
ENERGY=   -3.578  LOWER_BOUND=   12.502  UPPER_BOUND=   13.748
INTER + INTRA:          -3.578
INTER:                  -3.578
INTRA:                   0.000
UNBOUND:                 0.000

$$$$
