
     RDKit          3D

 24 23  0  0  0  0  0  0  0  0999 V2000
   45.3753    3.2273    9.1195 Na  0  0  0  0  0 15  0  0  0  0  0  0
   43.8319    4.7443   12.5662 C   0  0  0  0  0  0  0  0  0  0  0  0
   42.8024    5.1331   13.1906 O   0  0  0  0  0  0  0  0  0  0  0  0
   45.0321    4.7046   12.9497 O   0  0  0  0  0  0  0  0  0  0  0  0
   45.5411    2.8389    8.1436 C   0  0  0  0  0  0  0  0  0  0  0  0
   43.5482    4.2578   11.1429 C   0  0  0  0  0  0  0  0  0  0  0  0
   44.7646    3.7797   10.3550 C   0  0  0  0  0  0  0  0  0  0  0  0
   44.3611    3.3196    8.9536 C   0  0  0  0  0  0  0  0  0  0  0  0
   46.2752    3.7355    7.3564 C   0  0  0  0  0  0  0  0  0  0  0  0
   45.9348    1.4954    8.1899 C   0  0  0  0  0  0  0  0  0  0  0  0
   47.0324    1.0536    7.4494 C   0  0  0  0  0  0  0  0  0  0  0  0
   47.3726    3.2929    6.6162 C   0  0  0  0  0  0  0  0  0  0  0  0
   47.7497    1.9515    6.6607 C   0  0  0  0  0  0  0  0  0  0  0  0
   43.0658    5.0823   10.6031 H   0  0  0  0  0  0  0  0  0  0  0  0
   42.8166    3.4430   11.2131 H   0  0  0  0  0  0  0  0  0  0  0  0
   45.5023    4.5893   10.2847 H   0  0  0  0  0  0  0  0  0  0  0  0
   45.2542    2.9574   10.8920 H   0  0  0  0  0  0  0  0  0  0  0  0
   43.6186    2.5140    9.0204 H   0  0  0  0  0  0  0  0  0  0  0  0
   43.8653    4.1383    8.4161 H   0  0  0  0  0  0  0  0  0  0  0  0
   45.9972    4.7867    7.3279 H   0  0  0  0  0  0  0  0  0  0  0  0
   45.3900    0.7910    8.8145 H   0  0  0  0  0  0  0  0  0  0  0  0
   47.3311    0.0104    7.4975 H   0  0  0  0  0  0  0  0  0  0  0  0
   47.9372    3.9985    6.0136 H   0  0  0  0  0  0  0  0  0  0  0  0
   48.6080    1.6090    6.0905 H   0  0  0  0  0  0  0  0  0  0  0  0
  3  2  1  0
  4  2  2  0
  5  8  1  0
  6  2  1  0
  7  6  1  0
  8  7  1  0
  9  5  2  0
 10  5  1  0
 11 10  2  0
 12  9  1  0
 13 12  2  0
 13 11  1  0
  6 14  1  0
  6 15  1  0
  7 16  1  0
  7 17  1  0
  8 18  1  0
  8 19  1  0
  9 20  1  0
 10 21  1  0
 11 22  1  0
 12 23  1  0
 13 24  1  0
M  CHG  2   1   1   3  -1
M  END
> <Uni-Dock RESULT> 
ENERGY=   -6.576  LOWER_BOUND=    0.000  UPPER_BOUND=    0.000
INTER + INTRA:          -6.576
INTER:                  -6.576
INTRA:                   0.000
UNBOUND:                 0.000

$$$$

     RDKit          3D

 24 23  0  0  0  0  0  0  0  0999 V2000
   45.3995    3.5750    9.1313 Na  0  0  0  0  0 15  0  0  0  0  0  0
   47.7797    2.4661    6.0219 C   0  0  0  0  0  0  0  0  0  0  0  0
   47.9343    2.4101    4.7674 O   0  0  0  0  0  0  0  0  0  0  0  0
   48.5507    2.0778    6.9406 O   0  0  0  0  0  0  0  0  0  0  0  0
   44.6255    3.9413    9.7617 C   0  0  0  0  0  0  0  0  0  0  0  0
   46.4571    3.1019    6.4569 C   0  0  0  0  0  0  0  0  0  0  0  0
   46.2316    3.1886    7.9638 C   0  0  0  0  0  0  0  0  0  0  0  0
   44.8834    3.8386    8.2776 C   0  0  0  0  0  0  0  0  0  0  0  0
   43.9893    2.8979   10.4463 C   0  0  0  0  0  0  0  0  0  0  0  0
   45.0439    5.0694   10.4792 C   0  0  0  0  0  0  0  0  0  0  0  0
   44.8150    5.1592   11.8532 C   0  0  0  0  0  0  0  0  0  0  0  0
   43.7607    2.9885   11.8203 C   0  0  0  0  0  0  0  0  0  0  0  0
   44.1713    4.1201   12.5232 C   0  0  0  0  0  0  0  0  0  0  0  0
   45.6463    2.5205    6.0003 H   0  0  0  0  0  0  0  0  0  0  0  0
   46.4181    4.1096    6.0244 H   0  0  0  0  0  0  0  0  0  0  0  0
   46.2734    2.1838    8.4032 H   0  0  0  0  0  0  0  0  0  0  0  0
   47.0418    3.7658    8.4272 H   0  0  0  0  0  0  0  0  0  0  0  0
   44.8360    4.8415    7.8340 H   0  0  0  0  0  0  0  0  0  0  0  0
   44.0713    3.2670    7.8101 H   0  0  0  0  0  0  0  0  0  0  0  0
   43.6793    2.0048    9.9083 H   0  0  0  0  0  0  0  0  0  0  0  0
   45.5604    5.8781    9.9671 H   0  0  0  0  0  0  0  0  0  0  0  0
   45.1486    6.0366   12.3996 H   0  0  0  0  0  0  0  0  0  0  0  0
   43.2711    2.1707   12.3410 H   0  0  0  0  0  0  0  0  0  0  0  0
   44.0000    4.1870   13.5934 H   0  0  0  0  0  0  0  0  0  0  0  0
  3  2  1  0
  4  2  2  0
  5  8  1  0
  6  2  1  0
  7  6  1  0
  8  7  1  0
  9  5  2  0
 10  5  1  0
 11 10  2  0
 12  9  1  0
 13 12  2  0
 13 11  1  0
  6 14  1  0
  6 15  1  0
  7 16  1  0
  7 17  1  0
  8 18  1  0
  8 19  1  0
  9 20  1  0
 10 21  1  0
 11 22  1  0
 12 23  1  0
 13 24  1  0
M  CHG  2   1   1   3  -1
M  END
> <Uni-Dock RESULT> 
ENERGY=   -5.500  LOWER_BOUND=    3.413  UPPER_BOUND=    5.798
INTER + INTRA:          -5.500
INTER:                  -5.500
INTRA:                   0.000
UNBOUND:                 0.000

$$$$

     RDKit          3D

 24 23  0  0  0  0  0  0  0  0999 V2000
   45.6059    6.6323   11.3031 Na  0  0  0  0  0 15  0  0  0  0  0  0
   44.7819    3.5365    8.7931 C   0  0  0  0  0  0  0  0  0  0  0  0
   44.2408    2.4026    8.6437 O   0  0  0  0  0  0  0  0  0  0  0  0
   45.4072    4.2405    7.9548 O   0  0  0  0  0  0  0  0  0  0  0  0
   45.6975    7.3016   12.1243 C   0  0  0  0  0  0  0  0  0  0  0  0
   44.6408    4.1110   10.2047 C   0  0  0  0  0  0  0  0  0  0  0  0
   45.2805    5.4787   10.4267 C   0  0  0  0  0  0  0  0  0  0  0  0
   45.0767    5.9495   11.8673 C   0  0  0  0  0  0  0  0  0  0  0  0
   47.0272    7.4031   12.5530 C   0  0  0  0  0  0  0  0  0  0  0  0
   44.9608    8.4738   11.9108 C   0  0  0  0  0  0  0  0  0  0  0  0
   45.5386    9.7240   12.1380 C   0  0  0  0  0  0  0  0  0  0  0  0
   47.6042    8.6536   12.7801 C   0  0  0  0  0  0  0  0  0  0  0  0
   46.8591    9.8139   12.5750 C   0  0  0  0  0  0  0  0  0  0  0  0
   45.0808    3.3860   10.9008 H   0  0  0  0  0  0  0  0  0  0  0  0
   43.5687    4.1695   10.4308 H   0  0  0  0  0  0  0  0  0  0  0  0
   46.3527    5.4279   10.1982 H   0  0  0  0  0  0  0  0  0  0  0  0
   44.8473    6.2079    9.7303 H   0  0  0  0  0  0  0  0  0  0  0  0
   44.0052    5.9954   12.1010 H   0  0  0  0  0  0  0  0  0  0  0  0
   45.5034    5.2190   12.5666 H   0  0  0  0  0  0  0  0  0  0  0  0
   47.6203    6.5035   12.7008 H   0  0  0  0  0  0  0  0  0  0  0  0
   43.9347    8.4133   11.5553 H   0  0  0  0  0  0  0  0  0  0  0  0
   44.9590   10.6260   11.9640 H   0  0  0  0  0  0  0  0  0  0  0  0
   48.6377    8.7197   13.1073 H   0  0  0  0  0  0  0  0  0  0  0  0
   47.3106   10.7868   12.7446 H   0  0  0  0  0  0  0  0  0  0  0  0
  3  2  1  0
  4  2  2  0
  5  8  1  0
  6  2  1  0
  7  6  1  0
  8  7  1  0
  9  5  2  0
 10  5  1  0
 11 10  2  0
 12  9  1  0
 13 12  2  0
 13 11  1  0
  6 14  1  0
  6 15  1  0
  7 16  1  0
  7 17  1  0
  8 18  1  0
  8 19  1  0
  9 20  1  0
 10 21  1  0
 11 22  1  0
 12 23  1  0
 13 24  1  0
M  CHG  2   1   1   3  -1
M  END
> <Uni-Dock RESULT> 
ENERGY=   -3.695  LOWER_BOUND=    4.006  UPPER_BOUND=    6.286
INTER + INTRA:          -3.695
INTER:                  -3.695
INTRA:                   0.000
UNBOUND:                 0.000

$$$$

     RDKit          3D

 24 23  0  0  0  0  0  0  0  0999 V2000
   46.1613    5.5108   12.6984 Na  0  0  0  0  0 15  0  0  0  0  0  0
   49.6498    7.6032   12.5743 C   0  0  0  0  0  0  0  0  0  0  0  0
   50.6298    8.0775   13.2189 O   0  0  0  0  0  0  0  0  0  0  0  0
   49.4013    7.6619   11.3397 O   0  0  0  0  0  0  0  0  0  0  0  0
   45.2994    4.9528   12.9749 C   0  0  0  0  0  0  0  0  0  0  0  0
   48.6367    6.8562   13.4450 C   0  0  0  0  0  0  0  0  0  0  0  0
   47.4385    6.2681   12.7050 C   0  0  0  0  0  0  0  0  0  0  0  0
   46.4985    5.5483   13.6729 C   0  0  0  0  0  0  0  0  0  0  0  0
   44.1297    5.7048   12.8057 C   0  0  0  0  0  0  0  0  0  0  0  0
   45.3499    3.6500   12.4626 C   0  0  0  0  0  0  0  0  0  0  0  0
   44.2449    3.1037   11.8078 C   0  0  0  0  0  0  0  0  0  0  0  0
   43.0251    5.1577   12.1509 C   0  0  0  0  0  0  0  0  0  0  0  0
   43.0818    3.8565   11.6541 C   0  0  0  0  0  0  0  0  0  0  0  0
   48.2830    7.5558   14.2126 H   0  0  0  0  0  0  0  0  0  0  0  0
   49.1759    6.0521   13.9615 H   0  0  0  0  0  0  0  0  0  0  0  0
   46.8969    7.0671   12.1827 H   0  0  0  0  0  0  0  0  0  0  0  0
   47.7859    5.5702   11.9327 H   0  0  0  0  0  0  0  0  0  0  0  0
   47.0389    4.7525   14.2016 H   0  0  0  0  0  0  0  0  0  0  0  0
   46.1542    6.2424   14.4504 H   0  0  0  0  0  0  0  0  0  0  0  0
   44.0822    6.7261   13.1768 H   0  0  0  0  0  0  0  0  0  0  0  0
   46.2586    3.0611   12.5647 H   0  0  0  0  0  0  0  0  0  0  0  0
   44.2979    2.0943   11.4102 H   0  0  0  0  0  0  0  0  0  0  0  0
   42.1255    5.7524   12.0211 H   0  0  0  0  0  0  0  0  0  0  0  0
   42.2249    3.4338   11.1382 H   0  0  0  0  0  0  0  0  0  0  0  0
  3  2  1  0
  4  2  2  0
  5  8  1  0
  6  2  1  0
  7  6  1  0
  8  7  1  0
  9  5  2  0
 10  5  1  0
 11 10  2  0
 12  9  1  0
 13 12  2  0
 13 11  1  0
  6 14  1  0
  6 15  1  0
  7 16  1  0
  7 17  1  0
  8 18  1  0
  8 19  1  0
  9 20  1  0
 10 21  1  0
 11 22  1  0
 12 23  1  0
 13 24  1  0
M  CHG  2   1   1   3  -1
M  END
> <Uni-Dock RESULT> 
ENERGY=   -3.620  LOWER_BOUND=    4.649  UPPER_BOUND=    6.034
INTER + INTRA:          -3.620
INTER:                  -3.620
INTRA:                   0.000
UNBOUND:                 0.000

$$$$
