
     RDKit          3D

 24 23  0  0  0  0  0  0  0  0999 V2000
   45.5521    3.7254    9.0034 Na  0  0  0  0  0 15  0  0  0  0  0  0
   44.0556    5.6546   12.1550 C   0  0  0  0  0  0  0  0  0  0  0  0
   43.8810    4.8676   13.1272 O   0  0  0  0  0  0  0  0  0  0  0  0
   44.5389    6.8212   12.1331 O   0  0  0  0  0  0  0  0  0  0  0  0
   45.5014    3.1071    8.1061 C   0  0  0  0  0  0  0  0  0  0  0  0
   43.5961    5.1207   10.8018 C   0  0  0  0  0  0  0  0  0  0  0  0
   44.7665    4.3939   10.1484 C   0  0  0  0  0  0  0  0  0  0  0  0
   44.3652    3.8345    8.7836 C   0  0  0  0  0  0  0  0  0  0  0  0
   46.3920    3.7982    7.2745 C   0  0  0  0  0  0  0  0  0  0  0  0
   45.6978    1.7372    8.3233 C   0  0  0  0  0  0  0  0  0  0  0  0
   46.7558    1.0674    7.7064 C   0  0  0  0  0  0  0  0  0  0  0  0
   47.4496    3.1276    6.6579 C   0  0  0  0  0  0  0  0  0  0  0  0
   47.6300    1.7621    6.8719 C   0  0  0  0  0  0  0  0  0  0  0  0
   42.7461    4.4427   10.9410 H   0  0  0  0  0  0  0  0  0  0  0  0
   43.2542    5.9512   10.1733 H   0  0  0  0  0  0  0  0  0  0  0  0
   45.1115    3.5806   10.8000 H   0  0  0  0  0  0  0  0  0  0  0  0
   45.6164    5.0798   10.0371 H   0  0  0  0  0  0  0  0  0  0  0  0
   43.5132    3.1510    8.8917 H   0  0  0  0  0  0  0  0  0  0  0  0
   44.0165    4.6456    8.1312 H   0  0  0  0  0  0  0  0  0  0  0  0
   46.2676    4.8670    7.1145 H   0  0  0  0  0  0  0  0  0  0  0  0
   45.0294    1.1910    8.9853 H   0  0  0  0  0  0  0  0  0  0  0  0
   46.9007    0.0063    7.8865 H   0  0  0  0  0  0  0  0  0  0  0  0
   48.1365    3.6753    6.0192 H   0  0  0  0  0  0  0  0  0  0  0  0
   48.4571    1.2422    6.3978 H   0  0  0  0  0  0  0  0  0  0  0  0
  3  2  1  0
  4  2  2  0
  5  8  1  0
  6  2  1  0
  7  6  1  0
  8  7  1  0
  9  5  2  0
 10  5  1  0
 11 10  2  0
 12  9  1  0
 13 12  2  0
 13 11  1  0
  6 14  1  0
  6 15  1  0
  7 16  1  0
  7 17  1  0
  8 18  1  0
  8 19  1  0
  9 20  1  0
 10 21  1  0
 11 22  1  0
 12 23  1  0
 13 24  1  0
M  CHG  2   1   1   3  -1
M  END
> <Uni-Dock RESULT> 
ENERGY=   -6.374  LOWER_BOUND=    0.000  UPPER_BOUND=    0.000
INTER + INTRA:          -6.374
INTER:                  -6.374
INTRA:                   0.000
UNBOUND:                 0.000

$$$$

     RDKit          3D

 24 23  0  0  0  0  0  0  0  0999 V2000
   45.2492    3.5628    9.8681 Na  0  0  0  0  0 15  0  0  0  0  0  0
   47.2634    2.6818    6.5423 C   0  0  0  0  0  0  0  0  0  0  0  0
   46.9967    3.5023    5.6200 O   0  0  0  0  0  0  0  0  0  0  0  0
   48.3741    2.2014    6.9038 O   0  0  0  0  0  0  0  0  0  0  0  0
   44.3807    3.5632   10.5282 C   0  0  0  0  0  0  0  0  0  0  0  0
   46.0565    2.1806    7.3294 C   0  0  0  0  0  0  0  0  0  0  0  0
   45.8333    3.1138    8.5145 C   0  0  0  0  0  0  0  0  0  0  0  0
   44.6320    2.6608    9.3442 C   0  0  0  0  0  0  0  0  0  0  0  0
   45.0006    3.3099   11.7586 C   0  0  0  0  0  0  0  0  0  0  0  0
   43.5475    4.6823   10.4042 C   0  0  0  0  0  0  0  0  0  0  0  0
   43.3250    5.5234   11.4958 C   0  0  0  0  0  0  0  0  0  0  0  0
   44.7775    4.1514   12.8498 C   0  0  0  0  0  0  0  0  0  0  0  0
   43.9380    5.2564   12.7191 C   0  0  0  0  0  0  0  0  0  0  0  0
   45.1740    2.1593    6.6795 H   0  0  0  0  0  0  0  0  0  0  0  0
   46.2375    1.1548    7.6709 H   0  0  0  0  0  0  0  0  0  0  0  0
   45.6763    4.1399    8.1571 H   0  0  0  0  0  0  0  0  0  0  0  0
   46.7334    3.1416    9.1423 H   0  0  0  0  0  0  0  0  0  0  0  0
   43.7313    2.6289    8.7177 H   0  0  0  0  0  0  0  0  0  0  0  0
   44.7851    1.6337    9.6999 H   0  0  0  0  0  0  0  0  0  0  0  0
   45.6694    2.4586   11.8648 H   0  0  0  0  0  0  0  0  0  0  0  0
   43.0776    4.9065    9.4491 H   0  0  0  0  0  0  0  0  0  0  0  0
   42.6809    6.3908   11.3861 H   0  0  0  0  0  0  0  0  0  0  0  0
   45.2678    3.9476   13.7973 H   0  0  0  0  0  0  0  0  0  0  0  0
   43.7703    5.9149   13.5662 H   0  0  0  0  0  0  0  0  0  0  0  0
  3  2  1  0
  4  2  2  0
  5  8  1  0
  6  2  1  0
  7  6  1  0
  8  7  1  0
  9  5  2  0
 10  5  1  0
 11 10  2  0
 12  9  1  0
 13 12  2  0
 13 11  1  0
  6 14  1  0
  6 15  1  0
  7 16  1  0
  7 17  1  0
  8 18  1  0
  8 19  1  0
  9 20  1  0
 10 21  1  0
 11 22  1  0
 12 23  1  0
 13 24  1  0
M  CHG  2   1   1   3  -1
M  END
> <Uni-Dock RESULT> 
ENERGY=   -4.634  LOWER_BOUND=    3.247  UPPER_BOUND=    5.661
INTER + INTRA:          -4.634
INTER:                  -4.634
INTRA:                   0.000
UNBOUND:                 0.000

$$$$

     RDKit          3D

 24 23  0  0  0  0  0  0  0  0999 V2000
   45.6420    5.7516   11.5722 Na  0  0  0  0  0 15  0  0  0  0  0  0
   44.8381    2.9687    8.8329 C   0  0  0  0  0  0  0  0  0  0  0  0
   44.2473    3.4711    7.8362 O   0  0  0  0  0  0  0  0  0  0  0  0
   45.7796    2.1281    8.8783 O   0  0  0  0  0  0  0  0  0  0  0  0
   45.4138    6.4054   12.4151 C   0  0  0  0  0  0  0  0  0  0  0  0
   44.3239    3.4359   10.1912 C   0  0  0  0  0  0  0  0  0  0  0  0
   45.1192    4.6679   10.6093 C   0  0  0  0  0  0  0  0  0  0  0  0
   44.6470    5.1840   11.9684 C   0  0  0  0  0  0  0  0  0  0  0  0
   46.5909    6.2713   13.1626 C   0  0  0  0  0  0  0  0  0  0  0  0
   44.9743    7.6881   12.0631 C   0  0  0  0  0  0  0  0  0  0  0  0
   45.6901    8.8167   12.4659 C   0  0  0  0  0  0  0  0  0  0  0  0
   47.3061    7.4004   13.5651 C   0  0  0  0  0  0  0  0  0  0  0  0
   46.8544    8.6729   13.2189 C   0  0  0  0  0  0  0  0  0  0  0  0
   43.2548    3.6681   10.1219 H   0  0  0  0  0  0  0  0  0  0  0  0
   44.4381    2.6312   10.9267 H   0  0  0  0  0  0  0  0  0  0  0  0
   45.0130    5.4554    9.8519 H   0  0  0  0  0  0  0  0  0  0  0  0
   46.1889    4.4248   10.6516 H   0  0  0  0  0  0  0  0  0  0  0  0
   43.5768    5.4245   11.9297 H   0  0  0  0  0  0  0  0  0  0  0  0
   44.7491    4.3971   12.7269 H   0  0  0  0  0  0  0  0  0  0  0  0
   46.9586    5.2814   13.4237 H   0  0  0  0  0  0  0  0  0  0  0  0
   44.0752    7.8084   11.4627 H   0  0  0  0  0  0  0  0  0  0  0  0
   45.3421    9.8057   12.1827 H   0  0  0  0  0  0  0  0  0  0  0  0
   48.2201    7.2835   14.1400 H   0  0  0  0  0  0  0  0  0  0  0  0
   47.4149    9.5509   13.5260 H   0  0  0  0  0  0  0  0  0  0  0  0
  3  2  1  0
  4  2  2  0
  5  8  1  0
  6  2  1  0
  7  6  1  0
  8  7  1  0
  9  5  2  0
 10  5  1  0
 11 10  2  0
 12  9  1  0
 13 12  2  0
 13 11  1  0
  6 14  1  0
  6 15  1  0
  7 16  1  0
  7 17  1  0
  8 18  1  0
  8 19  1  0
  9 20  1  0
 10 21  1  0
 11 22  1  0
 12 23  1  0
 13 24  1  0
M  CHG  2   1   1   3  -1
M  END
> <Uni-Dock RESULT> 
ENERGY=   -3.695  LOWER_BOUND=    3.216  UPPER_BOUND=    6.004
INTER + INTRA:          -3.695
INTER:                  -3.695
INTRA:                   0.000
UNBOUND:                 0.000

$$$$

     RDKit          3D

 24 23  0  0  0  0  0  0  0  0999 V2000
   45.6219    4.1580   13.9933 Na  0  0  0  0  0 15  0  0  0  0  0  0
   47.3965    3.8916   17.5534 C   0  0  0  0  0  0  0  0  0  0  0  0
   47.1656    4.9176   18.2528 O   0  0  0  0  0  0  0  0  0  0  0  0
   47.3861    2.6708   17.8769 O   0  0  0  0  0  0  0  0  0  0  0  0
   45.5309    4.4784   12.9545 C   0  0  0  0  0  0  0  0  0  0  0  0
   47.7609    4.1709   16.0985 C   0  0  0  0  0  0  0  0  0  0  0  0
   46.4778    4.1830   15.2747 C   0  0  0  0  0  0  0  0  0  0  0  0
   46.7803    4.4592   13.8020 C   0  0  0  0  0  0  0  0  0  0  0  0
   45.0511    3.2995   12.3694 C   0  0  0  0  0  0  0  0  0  0  0  0
   44.8186    5.6698   12.7662 C   0  0  0  0  0  0  0  0  0  0  0  0
   43.6568    5.6848   11.9927 C   0  0  0  0  0  0  0  0  0  0  0  0
   43.8893    3.3155   11.5960 C   0  0  0  0  0  0  0  0  0  0  0  0
   43.1936    4.5083   11.4056 C   0  0  0  0  0  0  0  0  0  0  0  0
   48.2791    5.1341   16.0254 H   0  0  0  0  0  0  0  0  0  0  0  0
   48.4493    3.3992   15.7350 H   0  0  0  0  0  0  0  0  0  0  0  0
   45.7906    4.9446   15.6653 H   0  0  0  0  0  0  0  0  0  0  0  0
   45.9597    3.2205   15.3768 H   0  0  0  0  0  0  0  0  0  0  0  0
   47.3014    5.4195   13.6975 H   0  0  0  0  0  0  0  0  0  0  0  0
   47.4701    3.7007   13.4099 H   0  0  0  0  0  0  0  0  0  0  0  0
   45.5794    2.3615   12.5258 H   0  0  0  0  0  0  0  0  0  0  0  0
   45.1646    6.5891   13.2335 H   0  0  0  0  0  0  0  0  0  0  0  0
   43.1103    6.6137   11.8579 H   0  0  0  0  0  0  0  0  0  0  0  0
   43.5243    2.3941   11.1516 H   0  0  0  0  0  0  0  0  0  0  0  0
   42.2858    4.5190   10.8098 H   0  0  0  0  0  0  0  0  0  0  0  0
  3  2  1  0
  4  2  2  0
  5  8  1  0
  6  2  1  0
  7  6  1  0
  8  7  1  0
  9  5  2  0
 10  5  1  0
 11 10  2  0
 12  9  1  0
 13 12  2  0
 13 11  1  0
  6 14  1  0
  6 15  1  0
  7 16  1  0
  7 17  1  0
  8 18  1  0
  8 19  1  0
  9 20  1  0
 10 21  1  0
 11 22  1  0
 12 23  1  0
 13 24  1  0
M  CHG  2   1   1   3  -1
M  END
> <Uni-Dock RESULT> 
ENERGY=   -3.695  LOWER_BOUND=    4.677  UPPER_BOUND=    6.167
INTER + INTRA:          -3.695
INTER:                  -3.695
INTRA:                   0.000
UNBOUND:                 0.000

$$$$

     RDKit          3D

 24 23  0  0  0  0  0  0  0  0999 V2000
   46.3653    7.1750   12.1900 Na  0  0  0  0  0 15  0  0  0  0  0  0
   42.9301    5.2123   11.6981 C   0  0  0  0  0  0  0  0  0  0  0  0
   41.9464    6.0033   11.7382 O   0  0  0  0  0  0  0  0  0  0  0  0
   43.1667    4.2521   10.9126 O   0  0  0  0  0  0  0  0  0  0  0  0
   47.1572    7.6542   12.7672 C   0  0  0  0  0  0  0  0  0  0  0  0
   43.9865    5.4409   12.7748 C   0  0  0  0  0  0  0  0  0  0  0  0
   45.0229    6.4190   12.2323 C   0  0  0  0  0  0  0  0  0  0  0  0
   46.1118    6.6883   13.2708 C   0  0  0  0  0  0  0  0  0  0  0  0
   48.2857    7.1860   12.0819 C   0  0  0  0  0  0  0  0  0  0  0  0
   46.9981    9.0335   12.9529 C   0  0  0  0  0  0  0  0  0  0  0  0
   47.9588    9.9271   12.4765 C   0  0  0  0  0  0  0  0  0  0  0  0
   49.2459    8.0803   11.6058 C   0  0  0  0  0  0  0  0  0  0  0  0
   49.0837    9.4503   11.8053 C   0  0  0  0  0  0  0  0  0  0  0  0
   43.5124    5.8387   13.6795 H   0  0  0  0  0  0  0  0  0  0  0  0
   44.4548    4.4865   13.0420 H   0  0  0  0  0  0  0  0  0  0  0  0
   44.5349    7.3604   11.9483 H   0  0  0  0  0  0  0  0  0  0  0  0
   45.4714    6.0165   11.3146 H   0  0  0  0  0  0  0  0  0  0  0  0
   45.6654    7.0876   14.1906 H   0  0  0  0  0  0  0  0  0  0  0  0
   46.5991    5.7478   13.5590 H   0  0  0  0  0  0  0  0  0  0  0  0
   48.4121    6.1196   11.9084 H   0  0  0  0  0  0  0  0  0  0  0  0
   46.1156    9.4147   13.4620 H   0  0  0  0  0  0  0  0  0  0  0  0
   47.8220   10.9946   12.6222 H   0  0  0  0  0  0  0  0  0  0  0  0
   50.1141    7.7056   11.0715 H   0  0  0  0  0  0  0  0  0  0  0  0
   49.8274   10.1462   11.4286 H   0  0  0  0  0  0  0  0  0  0  0  0
  3  2  1  0
  4  2  2  0
  5  8  1  0
  6  2  1  0
  7  6  1  0
  8  7  1  0
  9  5  2  0
 10  5  1  0
 11 10  2  0
 12  9  1  0
 13 12  2  0
 13 11  1  0
  6 14  1  0
  6 15  1  0
  7 16  1  0
  7 17  1  0
  8 18  1  0
  8 19  1  0
  9 20  1  0
 10 21  1  0
 11 22  1  0
 12 23  1  0
 13 24  1  0
M  CHG  2   1   1   3  -1
M  END
> <Uni-Dock RESULT> 
ENERGY=   -3.563  LOWER_BOUND=    4.775  UPPER_BOUND=    6.111
INTER + INTRA:          -3.563
INTER:                  -3.563
INTRA:                   0.000
UNBOUND:                 0.000

$$$$

     RDKit          3D

 24 23  0  0  0  0  0  0  0  0999 V2000
   46.1471    6.9773   13.0979 Na  0  0  0  0  0 15  0  0  0  0  0  0
   42.8834    5.1733   11.6879 C   0  0  0  0  0  0  0  0  0  0  0  0
   42.8973    3.9387   11.9535 O   0  0  0  0  0  0  0  0  0  0  0  0
   41.9400    6.0091   11.7680 O   0  0  0  0  0  0  0  0  0  0  0  0
   47.1920    7.2899   13.0772 C   0  0  0  0  0  0  0  0  0  0  0  0
   44.2045    5.7381   11.1749 C   0  0  0  0  0  0  0  0  0  0  0  0
   45.0181    6.2214   12.3706 C   0  0  0  0  0  0  0  0  0  0  0  0
   46.3582    6.8004   11.9176 C   0  0  0  0  0  0  0  0  0  0  0  0
   47.0687    8.6082   13.5344 C   0  0  0  0  0  0  0  0  0  0  0  0
   48.0786    6.4239   13.7301 C   0  0  0  0  0  0  0  0  0  0  0  0
   48.8403    6.8733   14.8100 C   0  0  0  0  0  0  0  0  0  0  0  0
   47.8309    9.0569   14.6143 C   0  0  0  0  0  0  0  0  0  0  0  0
   48.7183    8.1903   15.2503 C   0  0  0  0  0  0  0  0  0  0  0  0
   44.7482    4.9633   10.6221 H   0  0  0  0  0  0  0  0  0  0  0  0
   44.0090    6.5621   10.4789 H   0  0  0  0  0  0  0  0  0  0  0  0
   45.1854    5.3907   13.0684 H   0  0  0  0  0  0  0  0  0  0  0  0
   44.4507    6.9796   12.9260 H   0  0  0  0  0  0  0  0  0  0  0  0
   46.9260    6.0452   11.3589 H   0  0  0  0  0  0  0  0  0  0  0  0
   46.1936    7.6292   11.2169 H   0  0  0  0  0  0  0  0  0  0  0  0
   46.3672    9.2865   13.0535 H   0  0  0  0  0  0  0  0  0  0  0  0
   48.1685    5.3904   13.4026 H   0  0  0  0  0  0  0  0  0  0  0  0
   49.5207    6.1912   15.3113 H   0  0  0  0  0  0  0  0  0  0  0  0
   47.7228   10.0798   14.9629 H   0  0  0  0  0  0  0  0  0  0  0  0
   49.3058    8.5376   16.0950 H   0  0  0  0  0  0  0  0  0  0  0  0
  3  2  1  0
  4  2  2  0
  5  8  1  0
  6  2  1  0
  7  6  1  0
  8  7  1  0
  9  5  2  0
 10  5  1  0
 11 10  2  0
 12  9  1  0
 13 12  2  0
 13 11  1  0
  6 14  1  0
  6 15  1  0
  7 16  1  0
  7 17  1  0
  8 18  1  0
  8 19  1  0
  9 20  1  0
 10 21  1  0
 11 22  1  0
 12 23  1  0
 13 24  1  0
M  CHG  2   1   1   3  -1
M  END
> <Uni-Dock RESULT> 
ENERGY=   -3.531  LOWER_BOUND=    4.343  UPPER_BOUND=    6.425
INTER + INTRA:          -3.531
INTER:                  -3.531
INTRA:                   0.000
UNBOUND:                 0.000

$$$$

     RDKit          3D

 24 23  0  0  0  0  0  0  0  0999 V2000
   41.2658   11.2170   10.6817 Na  0  0  0  0  0 15  0  0  0  0  0  0
   43.9220   11.3751    7.7128 C   0  0  0  0  0  0  0  0  0  0  0  0
   43.4714   10.8205    6.6715 O   0  0  0  0  0  0  0  0  0  0  0  0
   44.5535   12.4609    7.8445 O   0  0  0  0  0  0  0  0  0  0  0  0
   40.7431   10.7507   11.5180 C   0  0  0  0  0  0  0  0  0  0  0  0
   43.6817   10.6068    9.0088 C   0  0  0  0  0  0  0  0  0  0  0  0
   42.3514   11.0623    9.5988 C   0  0  0  0  0  0  0  0  0  0  0  0
   42.0549   10.3243   10.9042 C   0  0  0  0  0  0  0  0  0  0  0  0
   40.6945   11.8260   12.4144 C   0  0  0  0  0  0  0  0  0  0  0  0
   39.5529   10.0955   11.1768 C   0  0  0  0  0  0  0  0  0  0  0  0
   38.3385   10.4979   11.7351 C   0  0  0  0  0  0  0  0  0  0  0  0
   39.4797   12.2278   12.9724 C   0  0  0  0  0  0  0  0  0  0  0  0
   38.3023   11.5622   12.6347 C   0  0  0  0  0  0  0  0  0  0  0  0
   43.6677    9.5302    8.8033 H   0  0  0  0  0  0  0  0  0  0  0  0
   44.5032   10.7968    9.7092 H   0  0  0  0  0  0  0  0  0  0  0  0
   41.5433   10.8864    8.8771 H   0  0  0  0  0  0  0  0  0  0  0  0
   42.3736   12.1453    9.7772 H   0  0  0  0  0  0  0  0  0  0  0  0
   42.0356    9.2409   10.7291 H   0  0  0  0  0  0  0  0  0  0  0  0
   42.8634   10.4958   11.6266 H   0  0  0  0  0  0  0  0  0  0  0  0
   41.6064   12.3607   12.6713 H   0  0  0  0  0  0  0  0  0  0  0  0
   39.5703    9.2741   10.4639 H   0  0  0  0  0  0  0  0  0  0  0  0
   37.4217    9.9854   11.4591 H   0  0  0  0  0  0  0  0  0  0  0  0
   39.4539   13.0662   13.6623 H   0  0  0  0  0  0  0  0  0  0  0  0
   37.3564   11.8796   13.0634 H   0  0  0  0  0  0  0  0  0  0  0  0
  3  2  1  0
  4  2  2  0
  5  8  1  0
  6  2  1  0
  7  6  1  0
  8  7  1  0
  9  5  2  0
 10  5  1  0
 11 10  2  0
 12  9  1  0
 13 12  2  0
 13 11  1  0
  6 14  1  0
  6 15  1  0
  7 16  1  0
  7 17  1  0
  8 18  1  0
  8 19  1  0
  9 20  1  0
 10 21  1  0
 11 22  1  0
 12 23  1  0
 13 24  1  0
M  CHG  2   1   1   3  -1
M  END
> <Uni-Dock RESULT> 
ENERGY=   -3.488  LOWER_BOUND=    7.953  UPPER_BOUND=   10.013
INTER + INTRA:          -3.488
INTER:                  -3.488
INTRA:                   0.000
UNBOUND:                 0.000

$$$$

     RDKit          3D

 24 23  0  0  0  0  0  0  0  0999 V2000
   46.1168    5.4487   12.0634 Na  0  0  0  0  0 15  0  0  0  0  0  0
   49.3296    7.3096   13.5158 C   0  0  0  0  0  0  0  0  0  0  0  0
   49.6300    6.8687   14.6605 O   0  0  0  0  0  0  0  0  0  0  0  0
   50.0722    7.5799   12.5306 O   0  0  0  0  0  0  0  0  0  0  0  0
   45.0477    5.2671   11.9448 C   0  0  0  0  0  0  0  0  0  0  0  0
   47.8431    7.5725   13.2949 C   0  0  0  0  0  0  0  0  0  0  0  0
   47.2071    6.3030   12.7390 C   0  0  0  0  0  0  0  0  0  0  0  0
   45.7116    6.5058   12.4963 C   0  0  0  0  0  0  0  0  0  0  0  0
   44.9816    5.0522   10.5621 C   0  0  0  0  0  0  0  0  0  0  0  0
   44.5151    4.3020   12.8091 C   0  0  0  0  0  0  0  0  0  0  0  0
   43.9122    3.1509   12.2992 C   0  0  0  0  0  0  0  0  0  0  0  0
   44.3784    3.9010   10.0530 C   0  0  0  0  0  0  0  0  0  0  0  0
   43.8417    2.9518   10.9213 C   0  0  0  0  0  0  0  0  0  0  0  0
   47.3736    7.8598   14.2428 H   0  0  0  0  0  0  0  0  0  0  0  0
   47.7150    8.4089   12.5982 H   0  0  0  0  0  0  0  0  0  0  0  0
   47.3639    5.4705   13.4371 H   0  0  0  0  0  0  0  0  0  0  0  0
   47.7033    6.0162   11.8027 H   0  0  0  0  0  0  0  0  0  0  0  0
   45.2137    6.7960   13.4305 H   0  0  0  0  0  0  0  0  0  0  0  0
   45.5521    7.3401   11.8010 H   0  0  0  0  0  0  0  0  0  0  0  0
   45.4118    5.7805    9.8781 H   0  0  0  0  0  0  0  0  0  0  0  0
   44.5797    4.4423   13.8859 H   0  0  0  0  0  0  0  0  0  0  0  0
   43.5072    2.4074   12.9794 H   0  0  0  0  0  0  0  0  0  0  0  0
   44.3377    3.7431    8.9792 H   0  0  0  0  0  0  0  0  0  0  0  0
   43.3789    2.0528   10.5250 H   0  0  0  0  0  0  0  0  0  0  0  0
  3  2  1  0
  4  2  2  0
  5  8  1  0
  6  2  1  0
  7  6  1  0
  8  7  1  0
  9  5  2  0
 10  5  1  0
 11 10  2  0
 12  9  1  0
 13 12  2  0
 13 11  1  0
  6 14  1  0
  6 15  1  0
  7 16  1  0
  7 17  1  0
  8 18  1  0
  8 19  1  0
  9 20  1  0
 10 21  1  0
 11 22  1  0
 12 23  1  0
 13 24  1  0
M  CHG  2   1   1   3  -1
M  END
> <Uni-Dock RESULT> 
ENERGY=   -3.425  LOWER_BOUND=    3.736  UPPER_BOUND=    5.072
INTER + INTRA:          -3.425
INTER:                  -3.425
INTRA:                   0.000
UNBOUND:                 0.000

$$$$
