
     RDKit          3D

 69 74  0  0  0  0  0  0  0  0999 V2000
    4.4613   -0.8734   -0.0298 C   0  0  0  0  0  0  0  0  0  0  0  0
    0.3225    1.6434   -1.3066 N   0  0  0  0  0  0  0  0  0  0  0  0
    0.8679    3.4524   -0.1425 N   0  0  0  0  0  0  0  0  0  0  0  0
    4.8013   -1.5314   -1.1247 N   0  0  0  0  0  0  0  0  0  0  0  0
    5.0185   -1.4807    1.0810 N   0  0  0  0  0  0  0  0  0  0  0  0
    1.5394    1.3610   -0.7191 C   0  0  0  0  0  0  0  0  0  0  0  0
   -0.0581    2.9100   -0.9087 C   0  0  0  0  0  0  0  0  0  0  0  0
    1.8562    2.5123   -0.0073 C   0  0  0  0  0  0  0  0  0  0  0  0
    3.5752    0.2951   -0.0145 C   0  0  0  0  0  0  0  0  0  0  0  0
    5.8044   -2.5291    0.6575 C   0  0  0  0  0  0  0  0  0  0  0  0
    5.6418   -2.5358   -0.7234 C   0  0  0  0  0  0  0  0  0  0  0  0
    2.3793    0.2398   -0.7474 C   0  0  0  0  0  0  0  0  0  0  0  0
   -6.0723   -1.0439    0.7434 C   0  0  0  0  0  0  0  0  0  0  0  0
    3.0657    2.5911    0.7105 C   0  0  0  0  0  0  0  0  0  0  0  0
   -5.1329   -1.7184   -0.0653 C   0  0  0  0  0  0  0  0  0  0  0  0
   -5.8647    0.3689    1.1603 C   0  0  0  0  0  0  0  0  0  0  0  0
    3.9143    1.4637    0.6826 C   0  0  0  0  0  0  0  0  0  0  0  0
   -0.3710    0.7816   -2.2556 C   0  0  0  0  0  0  0  0  0  0  0  0
   -3.9273   -1.0839   -0.6130 C   0  0  0  0  0  0  0  0  0  0  0  0
   -4.8116    0.9461    1.3421 O   0  0  0  0  0  0  0  0  0  0  0  0
   -2.6830   -1.2498    0.0098 C   0  0  0  0  0  0  0  0  0  0  0  0
   -3.9909   -0.3194   -1.7858 C   0  0  0  0  0  0  0  0  0  0  0  0
   -1.6022    0.1311   -1.6750 C   0  0  0  0  0  0  0  0  0  0  0  0
    4.7760   -1.1297    2.4603 C   0  0  0  0  0  0  0  0  0  0  0  0
   -7.0366    1.0136    1.3317 O   0  0  0  0  0  0  0  0  0  0  0  0
   -1.3333    3.5888   -1.2974 C   0  0  0  0  0  0  0  0  0  0  0  0
   -2.8421    0.2772   -2.3136 C   0  0  0  0  0  0  0  0  0  0  0  0
   -1.5334   -0.6522   -0.5146 C   0  0  0  0  0  0  0  0  0  0  0  0
    6.6142   -3.4579    1.3254 C   0  0  0  0  0  0  0  0  0  0  0  0
    6.3048   -3.5022   -1.4941 C   0  0  0  0  0  0  0  0  0  0  0  0
   -7.2206   -1.7180    1.2002 C   0  0  0  0  0  0  0  0  0  0  0  0
   -5.3817   -3.0674   -0.3909 C   0  0  0  0  0  0  0  0  0  0  0  0
    3.4788    3.8104    1.4807 C   0  0  0  0  0  0  0  0  0  0  0  0
   -2.4263    3.4527   -0.2350 C   0  0  0  0  0  0  0  0  0  0  0  0
    7.2691   -4.4145    0.5404 C   0  0  0  0  0  0  0  0  0  0  0  0
   -7.4442   -3.0527    0.8620 C   0  0  0  0  0  0  0  0  0  0  0  0
   -6.5237   -3.7277    0.0675 C   0  0  0  0  0  0  0  0  0  0  0  0
    7.1188   -4.4396   -0.8470 C   0  0  0  0  0  0  0  0  0  0  0  0
   -2.1415    4.2491    1.0314 C   0  0  0  0  0  0  0  0  0  0  0  0
    2.1251   -0.6525   -1.3122 H   0  0  0  0  0  0  0  0  0  0  0  0
    4.8680    1.5232    1.2035 H   0  0  0  0  0  0  0  0  0  0  0  0
   -0.6110    1.4000   -3.1281 H   0  0  0  0  0  0  0  0  0  0  0  0
    0.3185    0.0069   -2.6064 H   0  0  0  0  0  0  0  0  0  0  0  0
   -2.6045   -1.8358    0.9230 H   0  0  0  0  0  0  0  0  0  0  0  0
   -4.9422   -0.1822   -2.2958 H   0  0  0  0  0  0  0  0  0  0  0  0
    3.7348   -0.8228    2.5808 H   0  0  0  0  0  0  0  0  0  0  0  0
    5.4557   -0.3195    2.7323 H   0  0  0  0  0  0  0  0  0  0  0  0
    4.9561   -1.9969    3.0994 H   0  0  0  0  0  0  0  0  0  0  0  0
   -6.7595    1.9179    1.5897 H   0  0  0  0  0  0  0  0  0  0  0  0
   -1.7059    3.1949   -2.2483 H   0  0  0  0  0  0  0  0  0  0  0  0
   -1.1256    4.6513   -1.4767 H   0  0  0  0  0  0  0  0  0  0  0  0
   -2.9304    0.8666   -3.2239 H   0  0  0  0  0  0  0  0  0  0  0  0
   -0.5878   -0.7950    0.0049 H   0  0  0  0  0  0  0  0  0  0  0  0
    6.7377   -3.4465    2.4029 H   0  0  0  0  0  0  0  0  0  0  0  0
    6.1826   -3.5125   -2.5714 H   0  0  0  0  0  0  0  0  0  0  0  0
   -7.9448   -1.2065    1.8314 H   0  0  0  0  0  0  0  0  0  0  0  0
   -4.6758   -3.6116   -1.0184 H   0  0  0  0  0  0  0  0  0  0  0  0
    2.7336    4.6077    1.3997 H   0  0  0  0  0  0  0  0  0  0  0  0
    4.4290    4.1953    1.0962 H   0  0  0  0  0  0  0  0  0  0  0  0
    3.5960    3.5637    2.5410 H   0  0  0  0  0  0  0  0  0  0  0  0
   -3.3698    3.8145   -0.6613 H   0  0  0  0  0  0  0  0  0  0  0  0
   -2.5800    2.4022    0.0325 H   0  0  0  0  0  0  0  0  0  0  0  0
    7.9077   -5.1532    1.0218 H   0  0  0  0  0  0  0  0  0  0  0  0
   -8.3344   -3.5636    1.2212 H   0  0  0  0  0  0  0  0  0  0  0  0
   -6.6928   -4.7683   -0.1998 H   0  0  0  0  0  0  0  0  0  0  0  0
    7.6383   -5.1927   -1.4343 H   0  0  0  0  0  0  0  0  0  0  0  0
   -1.2663    3.8618    1.5610 H   0  0  0  0  0  0  0  0  0  0  0  0
   -1.9683    5.3057    0.8019 H   0  0  0  0  0  0  0  0  0  0  0  0
   -2.9961    4.1868    1.7137 H   0  0  0  0  0  0  0  0  0  0  0  0
  2  6  1  0
  3  8  1  0
  4  1  2  0
  5  1  1  0
  6 12  2  0
  7  2  1  0
  8 14  2  0
  9  1  1  0
 10  5  1  0
 11  4  1  0
 12  9  1  0
 13 15  2  0
 14 17  1  0
 15 19  1  0
 16 13  1  0
 17  9  2  0
 18  2  1  0
 19 21  2  0
 20 16  2  0
 21 28  1  0
 22 27  2  0
 23 18  1  0
 24  5  1  0
 25 16  1  0
 26  7  1  0
 27 23  1  0
 28 23  2  0
 29 10  2  0
 30 11  2  0
 31 13  1  0
 32 15  1  0
 33 14  1  0
 34 26  1  0
 35 29  1  0
 36 37  1  0
 37 32  2  0
 38 30  1  0
 39 34  1  0
 10 11  1  0
  8  6  1  0
 35 38  2  0
  3  7  2  0
 19 22  1  0
 36 31  2  0
 12 40  1  0
 17 41  1  0
 18 42  1  0
 18 43  1  0
 21 44  1  0
 22 45  1  0
 24 46  1  0
 24 47  1  0
 24 48  1  0
 25 49  1  0
 26 50  1  0
 26 51  1  0
 27 52  1  0
 28 53  1  0
 29 54  1  0
 30 55  1  0
 31 56  1  0
 32 57  1  0
 33 58  1  0
 33 59  1  0
 33 60  1  0
 34 61  1  0
 34 62  1  0
 35 63  1  0
 36 64  1  0
 37 65  1  0
 38 66  1  0
 39 67  1  0
 39 68  1  0
 39 69  1  0
M  END
$$$$
