
     RDKit          3D

 69 74  0  0  0  0  0  0  0  0999 V2000
    4.3146    1.0104   -0.2587 C   0  0  0  0  0  0  0  0  0  0  0  0
    0.1513   -1.4772    0.9957 N   0  0  0  0  0  0  0  0  0  0  0  0
    0.6520   -3.2589   -0.2265 N   0  0  0  0  0  0  0  0  0  0  0  0
    4.6833    1.6359    0.8458 N   0  0  0  0  0  0  0  0  0  0  0  0
    4.8610    1.6375   -1.3638 N   0  0  0  0  0  0  0  0  0  0  0  0
    1.3708   -1.2013    0.4124 C   0  0  0  0  0  0  0  0  0  0  0  0
   -0.2500   -2.7312    0.5780 C   0  0  0  0  0  0  0  0  0  0  0  0
    1.6591   -2.3356   -0.3380 C   0  0  0  0  0  0  0  0  0  0  0  0
    3.4126   -0.1457   -0.2888 C   0  0  0  0  0  0  0  0  0  0  0  0
    5.6823    2.6527   -0.9273 C   0  0  0  0  0  0  0  0  0  0  0  0
    5.5411    2.6301    0.4554 C   0  0  0  0  0  0  0  0  0  0  0  0
    2.2295   -0.0950    0.4645 C   0  0  0  0  0  0  0  0  0  0  0  0
   -6.1083    1.1979   -1.3459 C   0  0  0  0  0  0  0  0  0  0  0  0
    2.8595   -2.4129   -1.0715 C   0  0  0  0  0  0  0  0  0  0  0  0
   -5.2605    1.8509   -0.4272 C   0  0  0  0  0  0  0  0  0  0  0  0
   -5.7984   -0.1649   -1.8522 C   0  0  0  0  0  0  0  0  0  0  0  0
    3.7243   -1.2981   -1.0248 C   0  0  0  0  0  0  0  0  0  0  0  0
   -0.5547   -0.6060    1.9257 C   0  0  0  0  0  0  0  0  0  0  0  0
   -4.0687    1.2279    0.1618 C   0  0  0  0  0  0  0  0  0  0  0  0
   -4.7045   -0.6572   -2.0377 O   0  0  0  0  0  0  0  0  0  0  0  0
   -4.1738    0.4266    1.3069 C   0  0  0  0  0  0  0  0  0  0  0  0
   -2.7991    1.4402   -0.3915 C   0  0  0  0  0  0  0  0  0  0  0  0
   -1.7734    0.0352    1.3082 C   0  0  0  0  0  0  0  0  0  0  0  0
    4.5783    1.3365   -2.7474 C   0  0  0  0  0  0  0  0  0  0  0  0
   -6.9209   -0.8627   -2.1210 O   0  0  0  0  0  0  0  0  0  0  0  0
   -1.5504   -3.3699    0.9583 C   0  0  0  0  0  0  0  0  0  0  0  0
   -1.6647    0.8517    0.1739 C   0  0  0  0  0  0  0  0  0  0  0  0
   -3.0399   -0.1591    1.8769 C   0  0  0  0  0  0  0  0  0  0  0  0
    6.5064    3.5749   -1.5856 C   0  0  0  0  0  0  0  0  0  0  0  0
    6.2397    3.5615    1.2380 C   0  0  0  0  0  0  0  0  0  0  0  0
   -7.2561    1.8502   -1.8333 C   0  0  0  0  0  0  0  0  0  0  0  0
   -5.5955    3.1603   -0.0277 C   0  0  0  0  0  0  0  0  0  0  0  0
    3.2372   -3.6102   -1.8927 C   0  0  0  0  0  0  0  0  0  0  0  0
   -1.5098   -4.8996    0.9199 C   0  0  0  0  0  0  0  0  0  0  0  0
    7.1982    4.4949   -0.7889 C   0  0  0  0  0  0  0  0  0  0  0  0
   -7.5664    3.1457   -1.4200 C   0  0  0  0  0  0  0  0  0  0  0  0
   -6.7341    3.8017   -0.5196 C   0  0  0  0  0  0  0  0  0  0  0  0
    7.0685    4.4919    0.6006 C   0  0  0  0  0  0  0  0  0  0  0  0
   -0.6453   -5.4963    2.0216 C   0  0  0  0  0  0  0  0  0  0  0  0
    1.9971    0.7838    1.0590 H   0  0  0  0  0  0  0  0  0  0  0  0
    4.6679   -1.3529   -1.5647 H   0  0  0  0  0  0  0  0  0  0  0  0
    0.1291    0.1726    2.2789 H   0  0  0  0  0  0  0  0  0  0  0  0
   -0.8120   -1.2133    2.8012 H   0  0  0  0  0  0  0  0  0  0  0  0
   -5.1466    0.2523    1.7623 H   0  0  0  0  0  0  0  0  0  0  0  0
   -2.6889    2.0538   -1.2830 H   0  0  0  0  0  0  0  0  0  0  0  0
    5.2534    0.5413   -3.0709 H   0  0  0  0  0  0  0  0  0  0  0  0
    4.7342    2.2288   -3.3581 H   0  0  0  0  0  0  0  0  0  0  0  0
    3.5355    1.0281   -2.8492 H   0  0  0  0  0  0  0  0  0  0  0  0
   -6.5792   -1.7256   -2.4369 H   0  0  0  0  0  0  0  0  0  0  0  0
   -1.8670   -3.0544    1.9571 H   0  0  0  0  0  0  0  0  0  0  0  0
   -2.3145   -3.0246    0.2520 H   0  0  0  0  0  0  0  0  0  0  0  0
   -0.6975    1.0274   -0.2926 H   0  0  0  0  0  0  0  0  0  0  0  0
   -3.1601   -0.7759    2.7650 H   0  0  0  0  0  0  0  0  0  0  0  0
    6.6133    3.5849   -2.6645 H   0  0  0  0  0  0  0  0  0  0  0  0
    6.1338    3.5499    2.3171 H   0  0  0  0  0  0  0  0  0  0  0  0
   -7.9103    1.3532   -2.5472 H   0  0  0  0  0  0  0  0  0  0  0  0
   -4.9608    3.6874    0.6837 H   0  0  0  0  0  0  0  0  0  0  0  0
    2.5307   -4.4337   -1.7493 H   0  0  0  0  0  0  0  0  0  0  0  0
    4.2315   -3.9678   -1.6074 H   0  0  0  0  0  0  0  0  0  0  0  0
    3.2432   -3.3474   -2.9549 H   0  0  0  0  0  0  0  0  0  0  0  0
   -1.1562   -5.2538   -0.0549 H   0  0  0  0  0  0  0  0  0  0  0  0
   -2.5319   -5.2772    1.0405 H   0  0  0  0  0  0  0  0  0  0  0  0
    7.8492    5.2264   -1.2629 H   0  0  0  0  0  0  0  0  0  0  0  0
   -8.4542    3.6418   -1.8046 H   0  0  0  0  0  0  0  0  0  0  0  0
   -6.9699    4.8127   -0.1954 H   0  0  0  0  0  0  0  0  0  0  0  0
    7.6164    5.2176    1.1964 H   0  0  0  0  0  0  0  0  0  0  0  0
   -0.6884   -6.5899    1.9824 H   0  0  0  0  0  0  0  0  0  0  0  0
    0.4028   -5.2000    1.9160 H   0  0  0  0  0  0  0  0  0  0  0  0
   -0.9957   -5.1782    3.0087 H   0  0  0  0  0  0  0  0  0  0  0  0
  2  6  1  0
  3  8  1  0
  4  1  2  0
  5  1  1  0
  6 12  2  0
  7  2  1  0
  8 14  2  0
  9  1  1  0
 10  5  1  0
 11  4  1  0
 12  9  1  0
 13 15  2  0
 14 17  1  0
 15 19  1  0
 16 13  1  0
 17  9  2  0
 18  2  1  0
 19 21  2  0
 20 16  2  0
 21 28  1  0
 22 27  2  0
 23 18  1  0
 24  5  1  0
 25 16  1  0
 26  7  1  0
 27 23  1  0
 28 23  2  0
 29 10  2  0
 30 11  2  0
 31 13  1  0
 32 15  1  0
 33 14  1  0
 34 26  1  0
 35 29  1  0
 36 37  1  0
 37 32  2  0
 38 30  1  0
 39 34  1  0
 10 11  1  0
  8  6  1  0
 35 38  2  0
  3  7  2  0
 19 22  1  0
 36 31  2  0
 12 40  1  0
 17 41  1  0
 18 42  1  0
 18 43  1  0
 21 44  1  0
 22 45  1  0
 24 46  1  0
 24 47  1  0
 24 48  1  0
 25 49  1  0
 26 50  1  0
 26 51  1  0
 27 52  1  0
 28 53  1  0
 29 54  1  0
 30 55  1  0
 31 56  1  0
 32 57  1  0
 33 58  1  0
 33 59  1  0
 33 60  1  0
 34 61  1  0
 34 62  1  0
 35 63  1  0
 36 64  1  0
 37 65  1  0
 38 66  1  0
 39 67  1  0
 39 68  1  0
 39 69  1  0
M  END
$$$$
