
     RDKit          3D

 69 74  0  0  0  0  0  0  0  0999 V2000
   -4.2782   -1.0054   -0.4133 C   0  0  0  0  0  0  0  0  0  0  0  0
   -0.2422    2.0006   -0.4007 N   0  0  0  0  0  0  0  0  0  0  0  0
   -1.0473    3.2979    1.2069 N   0  0  0  0  0  0  0  0  0  0  0  0
   -5.5015   -0.9168   -0.9018 N   0  0  0  0  0  0  0  0  0  0  0  0
   -3.8944   -2.3303   -0.3223 N   0  0  0  0  0  0  0  0  0  0  0  0
   -1.4809    1.4787   -0.0826 C   0  0  0  0  0  0  0  0  0  0  0  0
   -0.0234    3.1048    0.3997 C   0  0  0  0  0  0  0  0  0  0  0  0
   -1.9617    2.3183    0.9172 C   0  0  0  0  0  0  0  0  0  0  0  0
   -3.4683    0.1356    0.0160 C   0  0  0  0  0  0  0  0  0  0  0  0
   -4.9077   -3.1135   -0.8262 C   0  0  0  0  0  0  0  0  0  0  0  0
   -5.8982   -2.2004   -1.1730 C   0  0  0  0  0  0  0  0  0  0  0  0
   -2.2122    0.3811   -0.5601 C   0  0  0  0  0  0  0  0  0  0  0  0
    6.1853   -2.0188   -0.0428 C   0  0  0  0  0  0  0  0  0  0  0  0
   -3.2339    2.0964    1.4802 C   0  0  0  0  0  0  0  0  0  0  0  0
    5.1278   -1.5155    0.7422 C   0  0  0  0  0  0  0  0  0  0  0  0
    6.2093   -1.8850   -1.5108 C   0  0  0  0  0  0  0  0  0  0  0  0
   -3.9706    0.9927    1.0036 C   0  0  0  0  0  0  0  0  0  0  0  0
    0.6463    1.4922   -1.4365 C   0  0  0  0  0  0  0  0  0  0  0  0
    3.9942   -0.7573    0.1836 C   0  0  0  0  0  0  0  0  0  0  0  0
    7.0962   -1.3730   -2.1663 O   0  0  0  0  0  0  0  0  0  0  0  0
    4.1966    0.4504   -0.5023 C   0  0  0  0  0  0  0  0  0  0  0  0
    2.6773   -1.2153    0.3369 C   0  0  0  0  0  0  0  0  0  0  0  0
    1.8057    0.7122   -0.8657 C   0  0  0  0  0  0  0  0  0  0  0  0
   -2.6642   -2.8181    0.2546 C   0  0  0  0  0  0  0  0  0  0  0  0
    5.1459   -2.4823   -2.0748 O   0  0  0  0  0  0  0  0  0  0  0  0
    1.2165    3.9442    0.3779 C   0  0  0  0  0  0  0  0  0  0  0  0
    1.5976   -0.4926   -0.1806 C   0  0  0  0  0  0  0  0  0  0  0  0
    3.1195    1.1716   -1.0274 C   0  0  0  0  0  0  0  0  0  0  0  0
   -5.0629   -4.4951   -1.0009 C   0  0  0  0  0  0  0  0  0  0  0  0
   -7.1054   -2.6628   -1.7180 C   0  0  0  0  0  0  0  0  0  0  0  0
    7.2795   -2.6732    0.5444 C   0  0  0  0  0  0  0  0  0  0  0  0
    5.1950   -1.7293    2.1336 C   0  0  0  0  0  0  0  0  0  0  0  0
   -3.8191    2.9675    2.5521 C   0  0  0  0  0  0  0  0  0  0  0  0
    0.9386    5.4305    0.6165 C   0  0  0  0  0  0  0  0  0  0  0  0
   -6.2736   -4.9385   -1.5475 C   0  0  0  0  0  0  0  0  0  0  0  0
    7.3187   -2.8678    1.9241 C   0  0  0  0  0  0  0  0  0  0  0  0
    6.2743   -2.4011    2.7171 C   0  0  0  0  0  0  0  0  0  0  0  0
   -7.2811   -4.0395   -1.9012 C   0  0  0  0  0  0  0  0  0  0  0  0
    0.1665    6.0810   -0.5246 C   0  0  0  0  0  0  0  0  0  0  0  0
   -1.8326   -0.2526   -1.3541 H   0  0  0  0  0  0  0  0  0  0  0  0
   -4.9615    0.7992    1.4149 H   0  0  0  0  0  0  0  0  0  0  0  0
    0.9816    2.3486   -2.0323 H   0  0  0  0  0  0  0  0  0  0  0  0
    0.0727    0.8535   -2.1162 H   0  0  0  0  0  0  0  0  0  0  0  0
    5.2037    0.8448   -0.6308 H   0  0  0  0  0  0  0  0  0  0  0  0
    2.4835   -2.1510    0.8592 H   0  0  0  0  0  0  0  0  0  0  0  0
   -2.4161   -2.2241    1.1376 H   0  0  0  0  0  0  0  0  0  0  0  0
   -2.7842   -3.8600    0.5590 H   0  0  0  0  0  0  0  0  0  0  0  0
   -1.8778   -2.7386   -0.4992 H   0  0  0  0  0  0  0  0  0  0  0  0
    5.2743   -2.3486   -3.0361 H   0  0  0  0  0  0  0  0  0  0  0  0
    1.8817    3.5805    1.1692 H   0  0  0  0  0  0  0  0  0  0  0  0
    1.7571    3.8402   -0.5660 H   0  0  0  0  0  0  0  0  0  0  0  0
    0.5924   -0.8819   -0.0368 H   0  0  0  0  0  0  0  0  0  0  0  0
    3.3229    2.0992   -1.5598 H   0  0  0  0  0  0  0  0  0  0  0  0
   -4.2877   -5.2023   -0.7276 H   0  0  0  0  0  0  0  0  0  0  0  0
   -7.8822   -1.9561   -1.9886 H   0  0  0  0  0  0  0  0  0  0  0  0
    8.0947   -3.0388   -0.0760 H   0  0  0  0  0  0  0  0  0  0  0  0
    4.4043   -1.3519    2.7810 H   0  0  0  0  0  0  0  0  0  0  0  0
   -3.1795    3.8311    2.7595 H   0  0  0  0  0  0  0  0  0  0  0  0
   -4.7992    3.3429    2.2415 H   0  0  0  0  0  0  0  0  0  0  0  0
   -3.9318    2.3962    3.4784 H   0  0  0  0  0  0  0  0  0  0  0  0
    1.8979    5.9509    0.7267 H   0  0  0  0  0  0  0  0  0  0  0  0
    0.3916    5.5745    1.5565 H   0  0  0  0  0  0  0  0  0  0  0  0
   -6.4313   -6.0050   -1.6957 H   0  0  0  0  0  0  0  0  0  0  0  0
    8.1621   -3.3816    2.3797 H   0  0  0  0  0  0  0  0  0  0  0  0
    6.3008   -2.5496    3.7950 H   0  0  0  0  0  0  0  0  0  0  0  0
   -8.2137   -4.4068   -2.3230 H   0  0  0  0  0  0  0  0  0  0  0  0
   -0.8330    5.6490   -0.6332 H   0  0  0  0  0  0  0  0  0  0  0  0
    0.0479    7.1521   -0.3351 H   0  0  0  0  0  0  0  0  0  0  0  0
    0.6976    5.9618   -1.4746 H   0  0  0  0  0  0  0  0  0  0  0  0
  2  6  1  0
  3  8  1  0
  4  1  2  0
  5  1  1  0
  6 12  2  0
  7  2  1  0
  8 14  2  0
  9  1  1  0
 10  5  1  0
 11  4  1  0
 12  9  1  0
 13 15  2  0
 14 17  1  0
 15 19  1  0
 16 13  1  0
 17  9  2  0
 18  2  1  0
 19 21  2  0
 20 16  2  0
 21 28  1  0
 22 27  2  0
 23 18  1  0
 24  5  1  0
 25 16  1  0
 26  7  1  0
 27 23  1  0
 28 23  2  0
 29 10  2  0
 30 11  2  0
 31 13  1  0
 32 15  1  0
 33 14  1  0
 34 26  1  0
 35 29  1  0
 36 37  1  0
 37 32  2  0
 38 30  1  0
 39 34  1  0
 10 11  1  0
  8  6  1  0
 35 38  2  0
  3  7  2  0
 19 22  1  0
 36 31  2  0
 12 40  1  0
 17 41  1  0
 18 42  1  0
 18 43  1  0
 21 44  1  0
 22 45  1  0
 24 46  1  0
 24 47  1  0
 24 48  1  0
 25 49  1  0
 26 50  1  0
 26 51  1  0
 27 52  1  0
 28 53  1  0
 29 54  1  0
 30 55  1  0
 31 56  1  0
 32 57  1  0
 33 58  1  0
 33 59  1  0
 33 60  1  0
 34 61  1  0
 34 62  1  0
 35 63  1  0
 36 64  1  0
 37 65  1  0
 38 66  1  0
 39 67  1  0
 39 68  1  0
 39 69  1  0
M  END
$$$$
