
     RDKit          3D

 69 74  0  0  0  0  0  0  0  0999 V2000
    4.0667   -0.9553   -0.4692 C   0  0  0  0  0  0  0  0  0  0  0  0
    0.6226    2.5566    0.5720 N   0  0  0  0  0  0  0  0  0  0  0  0
    1.2723    3.8927   -1.0729 N   0  0  0  0  0  0  0  0  0  0  0  0
    5.3800   -1.0882   -0.4027 N   0  0  0  0  0  0  0  0  0  0  0  0
    3.4584   -2.1937   -0.3761 N   0  0  0  0  0  0  0  0  0  0  0  0
    1.6872    1.9181   -0.0329 C   0  0  0  0  0  0  0  0  0  0  0  0
    0.4076    3.7483   -0.0881 C   0  0  0  0  0  0  0  0  0  0  0  0
    2.0686    2.7746   -1.0585 C   0  0  0  0  0  0  0  0  0  0  0  0
    3.3717    0.3231   -0.6458 C   0  0  0  0  0  0  0  0  0  0  0  0
    4.4316   -3.1404   -0.1476 C   0  0  0  0  0  0  0  0  0  0  0  0
    5.6195   -2.4187   -0.1820 C   0  0  0  0  0  0  0  0  0  0  0  0
    2.3208    0.6915    0.2073 C   0  0  0  0  0  0  0  0  0  0  0  0
   -4.6058   -2.8010    0.6610 C   0  0  0  0  0  0  0  0  0  0  0  0
    3.1428    2.4296   -1.9018 C   0  0  0  0  0  0  0  0  0  0  0  0
   -4.6757   -1.3934    0.6101 C   0  0  0  0  0  0  0  0  0  0  0  0
   -3.3658   -3.4982    1.0903 C   0  0  0  0  0  0  0  0  0  0  0  0
    3.7831    1.1933   -1.6654 C   0  0  0  0  0  0  0  0  0  0  0  0
   -0.1123    2.0405    1.7194 C   0  0  0  0  0  0  0  0  0  0  0  0
   -3.5278   -0.5188    0.8758 C   0  0  0  0  0  0  0  0  0  0  0  0
   -2.5642   -3.1424    1.9313 O   0  0  0  0  0  0  0  0  0  0  0  0
   -3.3656    0.1057    2.1182 C   0  0  0  0  0  0  0  0  0  0  0  0
   -2.5730   -0.2781   -0.1195 C   0  0  0  0  0  0  0  0  0  0  0  0
   -1.3055    1.1775    1.3676 C   0  0  0  0  0  0  0  0  0  0  0  0
    2.0527   -2.4779   -0.5450 C   0  0  0  0  0  0  0  0  0  0  0  0
   -3.1932   -4.6522    0.4170 O   0  0  0  0  0  0  0  0  0  0  0  0
   -0.6569    4.7427    0.2503 C   0  0  0  0  0  0  0  0  0  0  0  0
   -1.4745    0.5528    0.1234 C   0  0  0  0  0  0  0  0  0  0  0  0
   -2.2666    0.9363    2.3623 C   0  0  0  0  0  0  0  0  0  0  0  0
    4.3960   -4.5232    0.0714 C   0  0  0  0  0  0  0  0  0  0  0  0
    6.8403   -3.0859    0.0001 C   0  0  0  0  0  0  0  0  0  0  0  0
   -5.7332   -3.5771    0.3366 C   0  0  0  0  0  0  0  0  0  0  0  0
   -5.8994   -0.8017    0.2390 C   0  0  0  0  0  0  0  0  0  0  0  0
    3.6260    3.3094   -3.0160 C   0  0  0  0  0  0  0  0  0  0  0  0
   -1.9549    4.4579   -0.5054 C   0  0  0  0  0  0  0  0  0  0  0  0
    5.6229   -5.1720    0.2583 C   0  0  0  0  0  0  0  0  0  0  0  0
   -6.9312   -2.9669   -0.0337 C   0  0  0  0  0  0  0  0  0  0  0  0
   -7.0155   -1.5793   -0.0783 C   0  0  0  0  0  0  0  0  0  0  0  0
    6.8274   -4.4679    0.2215 C   0  0  0  0  0  0  0  0  0  0  0  0
   -3.0085    5.5164   -0.2182 C   0  0  0  0  0  0  0  0  0  0  0  0
    2.0104    0.0494    1.0245 H   0  0  0  0  0  0  0  0  0  0  0  0
    4.6235    0.9030   -2.2969 H   0  0  0  0  0  0  0  0  0  0  0  0
    0.5877    1.4584    2.3297 H   0  0  0  0  0  0  0  0  0  0  0  0
   -0.4246    2.8972    2.3251 H   0  0  0  0  0  0  0  0  0  0  0  0
   -4.0873   -0.0691    2.9136 H   0  0  0  0  0  0  0  0  0  0  0  0
   -2.6762   -0.7410   -1.0990 H   0  0  0  0  0  0  0  0  0  0  0  0
    1.5749   -2.4472    0.4373 H   0  0  0  0  0  0  0  0  0  0  0  0
    1.9356   -3.4697   -0.9901 H   0  0  0  0  0  0  0  0  0  0  0  0
    1.6026   -1.7452   -1.2187 H   0  0  0  0  0  0  0  0  0  0  0  0
   -2.3681   -5.0206    0.7996 H   0  0  0  0  0  0  0  0  0  0  0  0
   -0.8440    4.7680    1.3281 H   0  0  0  0  0  0  0  0  0  0  0  0
   -0.2906    5.7421   -0.0188 H   0  0  0  0  0  0  0  0  0  0  0  0
   -0.7660    0.7008   -0.6877 H   0  0  0  0  0  0  0  0  0  0  0  0
   -2.1649    1.3884    3.3477 H   0  0  0  0  0  0  0  0  0  0  0  0
    3.4651   -5.0776    0.0997 H   0  0  0  0  0  0  0  0  0  0  0  0
    7.7709   -2.5288   -0.0269 H   0  0  0  0  0  0  0  0  0  0  0  0
   -5.6834   -4.6630    0.3785 H   0  0  0  0  0  0  0  0  0  0  0  0
   -5.9831    0.2830    0.1852 H   0  0  0  0  0  0  0  0  0  0  0  0
    3.0050    4.2052   -3.1167 H   0  0  0  0  0  0  0  0  0  0  0  0
    4.6552    3.6289   -2.8237 H   0  0  0  0  0  0  0  0  0  0  0  0
    3.5923    2.7672   -3.9668 H   0  0  0  0  0  0  0  0  0  0  0  0
   -2.3529    3.4779   -0.2214 H   0  0  0  0  0  0  0  0  0  0  0  0
   -1.7652    4.4222   -1.5855 H   0  0  0  0  0  0  0  0  0  0  0  0
    5.6373   -6.2458    0.4343 H   0  0  0  0  0  0  0  0  0  0  0  0
   -7.7976   -3.5739   -0.2837 H   0  0  0  0  0  0  0  0  0  0  0  0
   -7.9482   -1.0983   -0.3661 H   0  0  0  0  0  0  0  0  0  0  0  0
    7.7670   -4.9949    0.3670 H   0  0  0  0  0  0  0  0  0  0  0  0
   -2.6747    6.5033   -0.5568 H   0  0  0  0  0  0  0  0  0  0  0  0
   -3.9392    5.2757   -0.7435 H   0  0  0  0  0  0  0  0  0  0  0  0
   -3.2301    5.5696    0.8525 H   0  0  0  0  0  0  0  0  0  0  0  0
  2  6  1  0
  3  8  1  0
  4  1  2  0
  5  1  1  0
  6 12  2  0
  7  2  1  0
  8 14  2  0
  9  1  1  0
 10  5  1  0
 11  4  1  0
 12  9  1  0
 13 15  2  0
 14 17  1  0
 15 19  1  0
 16 13  1  0
 17  9  2  0
 18  2  1  0
 19 21  2  0
 20 16  2  0
 21 28  1  0
 22 27  2  0
 23 18  1  0
 24  5  1  0
 25 16  1  0
 26  7  1  0
 27 23  1  0
 28 23  2  0
 29 10  2  0
 30 11  2  0
 31 13  1  0
 32 15  1  0
 33 14  1  0
 34 26  1  0
 35 29  1  0
 36 37  1  0
 37 32  2  0
 38 30  1  0
 39 34  1  0
 10 11  1  0
  8  6  1  0
 35 38  2  0
  3  7  2  0
 19 22  1  0
 36 31  2  0
 12 40  1  0
 17 41  1  0
 18 42  1  0
 18 43  1  0
 21 44  1  0
 22 45  1  0
 24 46  1  0
 24 47  1  0
 24 48  1  0
 25 49  1  0
 26 50  1  0
 26 51  1  0
 27 52  1  0
 28 53  1  0
 29 54  1  0
 30 55  1  0
 31 56  1  0
 32 57  1  0
 33 58  1  0
 33 59  1  0
 33 60  1  0
 34 61  1  0
 34 62  1  0
 35 63  1  0
 36 64  1  0
 37 65  1  0
 38 66  1  0
 39 67  1  0
 39 68  1  0
 39 69  1  0
M  END
$$$$
