
     RDKit          3D

 69 74  0  0  0  0  0  0  0  0999 V2000
   -4.0739   -1.2831    0.3894 C   0  0  0  0  0  0  0  0  0  0  0  0
   -0.3994    2.0951   -0.0353 N   0  0  0  0  0  0  0  0  0  0  0  0
   -0.9740    3.1936    1.8061 N   0  0  0  0  0  0  0  0  0  0  0  0
   -4.4817   -1.4845   -0.8513 N   0  0  0  0  0  0  0  0  0  0  0  0
   -4.4321   -2.3557    1.1853 N   0  0  0  0  0  0  0  0  0  0  0  0
   -1.5002    1.4334    0.4700 C   0  0  0  0  0  0  0  0  0  0  0  0
   -0.1257    3.1611    0.7977 C   0  0  0  0  0  0  0  0  0  0  0  0
   -1.8344    2.1423    1.6185 C   0  0  0  0  0  0  0  0  0  0  0  0
   -3.3099   -0.1086    0.8234 C   0  0  0  0  0  0  0  0  0  0  0  0
   -5.1734   -3.2336    0.4267 C   0  0  0  0  0  0  0  0  0  0  0  0
   -5.1772   -2.6641   -0.8411 C   0  0  0  0  0  0  0  0  0  0  0  0
   -2.2217    0.3108    0.0425 C   0  0  0  0  0  0  0  0  0  0  0  0
    5.7191   -2.1474   -1.3746 C   0  0  0  0  0  0  0  0  0  0  0  0
   -2.9396    1.7471    2.3978 C   0  0  0  0  0  0  0  0  0  0  0  0
    5.2664   -1.1367   -0.5029 C   0  0  0  0  0  0  0  0  0  0  0  0
    4.9781   -2.4869   -2.6134 C   0  0  0  0  0  0  0  0  0  0  0  0
   -3.6674    0.6156    1.9700 C   0  0  0  0  0  0  0  0  0  0  0  0
    0.2903    1.7612   -1.2748 C   0  0  0  0  0  0  0  0  0  0  0  0
    4.0089   -0.4052   -0.6987 C   0  0  0  0  0  0  0  0  0  0  0  0
    4.4341   -1.7226   -3.3856 O   0  0  0  0  0  0  0  0  0  0  0  0
    3.9773    0.7941   -1.4214 C   0  0  0  0  0  0  0  0  0  0  0  0
    2.8121   -0.8863   -0.1507 C   0  0  0  0  0  0  0  0  0  0  0  0
    1.5820    1.0133   -1.0443 C   0  0  0  0  0  0  0  0  0  0  0  0
   -4.0477   -2.5706    2.5603 C   0  0  0  0  0  0  0  0  0  0  0  0
    4.9610   -3.8179   -2.8216 O   0  0  0  0  0  0  0  0  0  0  0  0
    0.9696    4.1554    0.5872 C   0  0  0  0  0  0  0  0  0  0  0  0
    1.6127   -0.1893   -0.3249 C   0  0  0  0  0  0  0  0  0  0  0  0
    2.7782    1.4906   -1.5999 C   0  0  0  0  0  0  0  0  0  0  0  0
   -5.8170   -4.4455    0.7097 C   0  0  0  0  0  0  0  0  0  0  0  0
   -5.8422   -3.3150   -1.8908 C   0  0  0  0  0  0  0  0  0  0  0  0
    6.9098   -2.8426   -1.0986 C   0  0  0  0  0  0  0  0  0  0  0  0
    6.0428   -0.8471    0.6360 C   0  0  0  0  0  0  0  0  0  0  0  0
   -3.3684    2.4781    3.6358 C   0  0  0  0  0  0  0  0  0  0  0  0
    0.4763    5.3641   -0.2082 C   0  0  0  0  0  0  0  0  0  0  0  0
   -6.4795   -5.0791   -0.3488 C   0  0  0  0  0  0  0  0  0  0  0  0
    7.6596   -2.5376    0.0366 C   0  0  0  0  0  0  0  0  0  0  0  0
    7.2272   -1.5382    0.9022 C   0  0  0  0  0  0  0  0  0  0  0  0
   -6.4934   -4.5257   -1.6297 C   0  0  0  0  0  0  0  0  0  0  0  0
    1.5796    6.3927   -0.3983 C   0  0  0  0  0  0  0  0  0  0  0  0
   -1.9578   -0.2285   -0.8629 H   0  0  0  0  0  0  0  0  0  0  0  0
   -4.5452    0.3199    2.5417 H   0  0  0  0  0  0  0  0  0  0  0  0
    0.4615    2.7014   -1.8103 H   0  0  0  0  0  0  0  0  0  0  0  0
   -0.3763    1.1611   -1.9029 H   0  0  0  0  0  0  0  0  0  0  0  0
    4.8894    1.1836   -1.8693 H   0  0  0  0  0  0  0  0  0  0  0  0
    2.8061   -1.8152    0.4164 H   0  0  0  0  0  0  0  0  0  0  0  0
   -4.0243   -3.6422    2.7721 H   0  0  0  0  0  0  0  0  0  0  0  0
   -3.0479   -2.1648    2.7303 H   0  0  0  0  0  0  0  0  0  0  0  0
   -4.7821   -2.0788    3.2022 H   0  0  0  0  0  0  0  0  0  0  0  0
    4.4317   -3.9139   -3.6408 H   0  0  0  0  0  0  0  0  0  0  0  0
    1.8286    3.6977    0.0887 H   0  0  0  0  0  0  0  0  0  0  0  0
    1.3278    4.4876    1.5698 H   0  0  0  0  0  0  0  0  0  0  0  0
    0.7039   -0.6013    0.1086 H   0  0  0  0  0  0  0  0  0  0  0  0
    2.7914    2.4083   -2.1844 H   0  0  0  0  0  0  0  0  0  0  0  0
   -5.8130   -4.8822    1.7018 H   0  0  0  0  0  0  0  0  0  0  0  0
   -5.8485   -2.8763   -2.8821 H   0  0  0  0  0  0  0  0  0  0  0  0
    7.2593   -3.6210   -1.7733 H   0  0  0  0  0  0  0  0  0  0  0  0
    5.7159   -0.0750    1.3317 H   0  0  0  0  0  0  0  0  0  0  0  0
   -3.3067    1.8136    4.5039 H   0  0  0  0  0  0  0  0  0  0  0  0
   -4.3996    2.8304    3.5285 H   0  0  0  0  0  0  0  0  0  0  0  0
   -2.7323    3.3472    3.8298 H   0  0  0  0  0  0  0  0  0  0  0  0
   -0.3688    5.8351    0.3090 H   0  0  0  0  0  0  0  0  0  0  0  0
    0.1075    5.0481   -1.1914 H   0  0  0  0  0  0  0  0  0  0  0  0
   -6.9935   -6.0208   -0.1689 H   0  0  0  0  0  0  0  0  0  0  0  0
    8.5799   -3.0782    0.2434 H   0  0  0  0  0  0  0  0  0  0  0  0
    7.8079   -1.2968    1.7893 H   0  0  0  0  0  0  0  0  0  0  0  0
   -7.0153   -5.0366   -2.4353 H   0  0  0  0  0  0  0  0  0  0  0  0
    1.9439    6.7599    0.5663 H   0  0  0  0  0  0  0  0  0  0  0  0
    1.2051    7.2488   -0.9683 H   0  0  0  0  0  0  0  0  0  0  0  0
    2.4252    5.9638   -0.9455 H   0  0  0  0  0  0  0  0  0  0  0  0
  2  6  1  0
  3  8  1  0
  4  1  2  0
  5  1  1  0
  6 12  2  0
  7  2  1  0
  8 14  2  0
  9  1  1  0
 10  5  1  0
 11  4  1  0
 12  9  1  0
 13 15  2  0
 14 17  1  0
 15 19  1  0
 16 13  1  0
 17  9  2  0
 18  2  1  0
 19 21  2  0
 20 16  2  0
 21 28  1  0
 22 27  2  0
 23 18  1  0
 24  5  1  0
 25 16  1  0
 26  7  1  0
 27 23  1  0
 28 23  2  0
 29 10  2  0
 30 11  2  0
 31 13  1  0
 32 15  1  0
 33 14  1  0
 34 26  1  0
 35 29  1  0
 36 37  1  0
 37 32  2  0
 38 30  1  0
 39 34  1  0
 10 11  1  0
  8  6  1  0
 35 38  2  0
  3  7  2  0
 19 22  1  0
 36 31  2  0
 12 40  1  0
 17 41  1  0
 18 42  1  0
 18 43  1  0
 21 44  1  0
 22 45  1  0
 24 46  1  0
 24 47  1  0
 24 48  1  0
 25 49  1  0
 26 50  1  0
 26 51  1  0
 27 52  1  0
 28 53  1  0
 29 54  1  0
 30 55  1  0
 31 56  1  0
 32 57  1  0
 33 58  1  0
 33 59  1  0
 33 60  1  0
 34 61  1  0
 34 62  1  0
 35 63  1  0
 36 64  1  0
 37 65  1  0
 38 66  1  0
 39 67  1  0
 39 68  1  0
 39 69  1  0
M  END
$$$$
