
     RDKit          3D

 69 74  0  0  0  0  0  0  0  0999 V2000
    3.8279   -1.5070   -0.3687 C   0  0  0  0  0  0  0  0  0  0  0  0
    0.1978    1.8763    0.3361 N   0  0  0  0  0  0  0  0  0  0  0  0
    1.0028    3.2842   -1.1800 N   0  0  0  0  0  0  0  0  0  0  0  0
    3.2387   -2.6900   -0.3537 N   0  0  0  0  0  0  0  0  0  0  0  0
    5.1690   -1.6383   -0.0594 N   0  0  0  0  0  0  0  0  0  0  0  0
    1.3325    1.2752   -0.1722 C   0  0  0  0  0  0  0  0  0  0  0  0
    0.0497    3.0991   -0.2885 C   0  0  0  0  0  0  0  0  0  0  0  0
    1.8037    2.1734   -1.1236 C   0  0  0  0  0  0  0  0  0  0  0  0
    3.1379   -0.2417   -0.6303 C   0  0  0  0  0  0  0  0  0  0  0  0
    5.4555   -2.9775    0.0781 C   0  0  0  0  0  0  0  0  0  0  0  0
    4.2280   -3.6053   -0.1057 C   0  0  0  0  0  0  0  0  0  0  0  0
    1.9757    0.0591    0.0963 C   0  0  0  0  0  0  0  0  0  0  0  0
   -6.4545   -1.8215    0.5100 C   0  0  0  0  0  0  0  0  0  0  0  0
    2.9622    1.8761   -1.8683 C   0  0  0  0  0  0  0  0  0  0  0  0
   -5.5038   -1.2780   -0.3777 C   0  0  0  0  0  0  0  0  0  0  0  0
   -6.2534   -1.8130    1.9683 C   0  0  0  0  0  0  0  0  0  0  0  0
    3.6044    0.6472   -1.6092 C   0  0  0  0  0  0  0  0  0  0  0  0
   -0.6248    1.3447    1.4145 C   0  0  0  0  0  0  0  0  0  0  0  0
   -4.2682   -0.6120    0.0709 C   0  0  0  0  0  0  0  0  0  0  0  0
   -6.9637   -1.2587    2.7843 O   0  0  0  0  0  0  0  0  0  0  0  0
   -4.3149    0.5332    0.8806 C   0  0  0  0  0  0  0  0  0  0  0  0
   -3.0087   -1.0995   -0.3074 C   0  0  0  0  0  0  0  0  0  0  0  0
   -1.8847    0.6747    0.9224 C   0  0  0  0  0  0  0  0  0  0  0  0
    6.1085   -0.5614    0.1496 C   0  0  0  0  0  0  0  0  0  0  0  0
   -5.1938   -2.5615    2.3171 O   0  0  0  0  0  0  0  0  0  0  0  0
   -1.0337    4.0887   -0.0023 C   0  0  0  0  0  0  0  0  0  0  0  0
   -1.8331   -0.4668    0.1116 C   0  0  0  0  0  0  0  0  0  0  0  0
   -3.1413    1.1623    1.3085 C   0  0  0  0  0  0  0  0  0  0  0  0
    6.6332   -3.6867    0.3489 C   0  0  0  0  0  0  0  0  0  0  0  0
    4.1464   -5.0028   -0.0188 C   0  0  0  0  0  0  0  0  0  0  0  0
   -7.6501   -2.3883    0.0424 C   0  0  0  0  0  0  0  0  0  0  0  0
   -5.7862   -1.3563   -1.7553 C   0  0  0  0  0  0  0  0  0  0  0  0
    3.5055    2.7880   -2.9288 C   0  0  0  0  0  0  0  0  0  0  0  0
   -0.6642    5.0630    1.1176 C   0  0  0  0  0  0  0  0  0  0  0  0
    6.5339   -5.0805    0.4301 C   0  0  0  0  0  0  0  0  0  0  0  0
   -7.9019   -2.4507   -1.3267 C   0  0  0  0  0  0  0  0  0  0  0  0
   -6.9686   -1.9392   -2.2248 C   0  0  0  0  0  0  0  0  0  0  0  0
    5.3116   -5.7309    0.2498 C   0  0  0  0  0  0  0  0  0  0  0  0
    0.4491    6.0292    0.7324 C   0  0  0  0  0  0  0  0  0  0  0  0
    1.5937   -0.6419    0.8324 H   0  0  0  0  0  0  0  0  0  0  0  0
    4.4776    0.3824   -2.2031 H   0  0  0  0  0  0  0  0  0  0  0  0
   -0.0293    0.6317    1.9947 H   0  0  0  0  0  0  0  0  0  0  0  0
   -0.8527    2.1753    2.0916 H   0  0  0  0  0  0  0  0  0  0  0  0
   -5.2741    0.9492    1.1870 H   0  0  0  0  0  0  0  0  0  0  0  0
   -2.9319   -1.9913   -0.9277 H   0  0  0  0  0  0  0  0  0  0  0  0
    5.5957    0.2906    0.6011 H   0  0  0  0  0  0  0  0  0  0  0  0
    6.5383   -0.2884   -0.8171 H   0  0  0  0  0  0  0  0  0  0  0  0
    6.8958   -0.8891    0.8327 H   0  0  0  0  0  0  0  0  0  0  0  0
   -5.1530   -2.4883    3.2925 H   0  0  0  0  0  0  0  0  0  0  0  0
   -1.2518    4.6499   -0.9194 H   0  0  0  0  0  0  0  0  0  0  0  0
   -1.9610    3.5725    0.2596 H   0  0  0  0  0  0  0  0  0  0  0  0
   -0.8792   -0.8852   -0.2037 H   0  0  0  0  0  0  0  0  0  0  0  0
   -3.2248    2.0394    1.9472 H   0  0  0  0  0  0  0  0  0  0  0  0
    7.5863   -3.1896    0.4898 H   0  0  0  0  0  0  0  0  0  0  0  0
    3.1931   -5.5006   -0.1607 H   0  0  0  0  0  0  0  0  0  0  0  0
   -8.3779   -2.7879    0.7456 H   0  0  0  0  0  0  0  0  0  0  0  0
   -5.0841   -0.9438   -2.4789 H   0  0  0  0  0  0  0  0  0  0  0  0
    3.3266    2.3571   -3.9185 H   0  0  0  0  0  0  0  0  0  0  0  0
    4.5818    2.9326   -2.7912 H   0  0  0  0  0  0  0  0  0  0  0  0
    3.0301    3.7729   -2.8907 H   0  0  0  0  0  0  0  0  0  0  0  0
   -0.3688    4.5185    2.0219 H   0  0  0  0  0  0  0  0  0  0  0  0
   -1.5543    5.6498    1.3756 H   0  0  0  0  0  0  0  0  0  0  0  0
    7.4262   -5.6683    0.6380 H   0  0  0  0  0  0  0  0  0  0  0  0
   -8.8228   -2.8985   -1.6922 H   0  0  0  0  0  0  0  0  0  0  0  0
   -7.1616   -1.9839   -3.2942 H   0  0  0  0  0  0  0  0  0  0  0  0
    5.2606   -6.8149    0.3183 H   0  0  0  0  0  0  0  0  0  0  0  0
    0.1810    6.5993   -0.1627 H   0  0  0  0  0  0  0  0  0  0  0  0
    1.3898    5.5038    0.5400 H   0  0  0  0  0  0  0  0  0  0  0  0
    0.6266    6.7400    1.5453 H   0  0  0  0  0  0  0  0  0  0  0  0
  2  6  1  0
  3  8  1  0
  4  1  2  0
  5  1  1  0
  6 12  2  0
  7  2  1  0
  8 14  2  0
  9  1  1  0
 10  5  1  0
 11  4  1  0
 12  9  1  0
 13 15  2  0
 14 17  1  0
 15 19  1  0
 16 13  1  0
 17  9  2  0
 18  2  1  0
 19 21  2  0
 20 16  2  0
 21 28  1  0
 22 27  2  0
 23 18  1  0
 24  5  1  0
 25 16  1  0
 26  7  1  0
 27 23  1  0
 28 23  2  0
 29 10  2  0
 30 11  2  0
 31 13  1  0
 32 15  1  0
 33 14  1  0
 34 26  1  0
 35 29  1  0
 36 37  1  0
 37 32  2  0
 38 30  1  0
 39 34  1  0
 10 11  1  0
  8  6  1  0
 35 38  2  0
  3  7  2  0
 19 22  1  0
 36 31  2  0
 12 40  1  0
 17 41  1  0
 18 42  1  0
 18 43  1  0
 21 44  1  0
 22 45  1  0
 24 46  1  0
 24 47  1  0
 24 48  1  0
 25 49  1  0
 26 50  1  0
 26 51  1  0
 27 52  1  0
 28 53  1  0
 29 54  1  0
 30 55  1  0
 31 56  1  0
 32 57  1  0
 33 58  1  0
 33 59  1  0
 33 60  1  0
 34 61  1  0
 34 62  1  0
 35 63  1  0
 36 64  1  0
 37 65  1  0
 38 66  1  0
 39 67  1  0
 39 68  1  0
 39 69  1  0
M  END
$$$$
