
     RDKit          3D

 39 44  0  0  0  0  0  0  0  0999 V2000
    3.9723   -0.4724   -0.2523 C   0  0  0  0  0  0  0  0  0  0  0  0
    0.2049    2.0602    1.7193 N   0  0  0  0  0  0  0  0  0  0  0  0
    0.7611    1.6455    3.8168 N   0  0  0  0  0  0  0  0  0  0  0  0
    5.0144    0.2414   -0.7699 N   0  0  0  0  0  0  0  0  0  0  0  0
    3.8377   -1.6089   -0.9464 N   0  0  0  0  0  0  0  0  0  0  0  0
    1.3191    1.3014    1.7064 C   0  0  0  0  0  0  0  0  0  0  0  0
   -0.1142    2.2555    3.0099 C   0  0  0  0  0  0  0  0  0  0  0  0
    1.6614    1.0458    3.0212 C   0  0  0  0  0  0  0  0  0  0  0  0
    3.2025    0.0326    0.8821 C   0  0  0  0  0  0  0  0  0  0  0  0
    4.7898   -1.6115   -1.8965 C   0  0  0  0  0  0  0  0  0  0  0  0
    5.5420   -0.4570   -1.8041 C   0  0  0  0  0  0  0  0  0  0  0  0
    2.0792    0.8016    0.6589 C   0  0  0  0  0  0  0  0  0  0  0  0
   -5.5965   -0.9490   -1.9516 C   0  0  0  0  0  0  0  0  0  0  0  0
    2.7983    0.2674    3.2568 C   0  0  0  0  0  0  0  0  0  0  0  0
   -4.3987   -1.2058   -1.3743 C   0  0  0  0  0  0  0  0  0  0  0  0
   -6.0567    0.4037   -2.1931 C   0  0  0  0  0  0  0  0  0  0  0  0
    3.5458   -0.2237    2.1949 C   0  0  0  0  0  0  0  0  0  0  0  0
   -0.4532    2.5290    0.5177 C   0  0  0  0  0  0  0  0  0  0  0  0
   -3.4589   -0.2241   -0.8790 C   0  0  0  0  0  0  0  0  0  0  0  0
   -5.4282    1.4503   -1.9254 O   0  0  0  0  0  0  0  0  0  0  0  0
   -2.1292   -0.3076   -1.3075 C   0  0  0  0  0  0  0  0  0  0  0  0
   -3.7411    0.7830    0.0074 C   0  0  0  0  0  0  0  0  0  0  0  0
   -1.4792    1.5789    0.0327 C   0  0  0  0  0  0  0  0  0  0  0  0
    2.8416   -2.6270   -0.6964 C   0  0  0  0  0  0  0  0  0  0  0  0
   -7.3190    0.5925   -2.7799 O   0  0  0  0  0  0  0  0  0  0  0  0
   -1.2874    3.0472    3.4489 C   0  0  0  0  0  0  0  0  0  0  0  0
   -2.7900    1.6760    0.4669 C   0  0  0  0  0  0  0  0  0  0  0  0
   -1.1537    0.5650   -0.8709 C   0  0  0  0  0  0  0  0  0  0  0  0
    5.1415   -2.4992   -2.8935 C   0  0  0  0  0  0  0  0  0  0  0  0
    6.5957   -0.1766   -2.6491 C   0  0  0  0  0  0  0  0  0  0  0  0
   -6.3834   -2.0049   -2.3413 C   0  0  0  0  0  0  0  0  0  0  0  0
   -4.0315   -2.5451   -1.2097 C   0  0  0  0  0  0  0  0  0  0  0  0
    3.1961   -0.0274    4.6540 C   0  0  0  0  0  0  0  0  0  0  0  0
   -1.4055    3.1021    4.9411 C   0  0  0  0  0  0  0  0  0  0  0  0
    6.1886   -2.2644   -3.7651 C   0  0  0  0  0  0  0  0  0  0  0  0
   -6.0187   -3.3133   -2.1771 C   0  0  0  0  0  0  0  0  0  0  0  0
   -4.8005   -3.5983   -1.5913 C   0  0  0  0  0  0  0  0  0  0  0  0
    6.9120   -1.0893   -3.6292 C   0  0  0  0  0  0  0  0  0  0  0  0
   -1.5584    1.7261    5.5682 C   0  0  0  0  0  0  0  0  0  0  0  0
  2  6  1  0
  3  8  1  0
  4  1  2  0
  5  1  1  0
  6 12  2  0
  7  2  1  0
  8 14  2  0
  9  1  1  0
 10  5  1  0
 11  4  1  0
 12  9  1  0
 13 15  2  0
 14 17  1  0
 15 19  1  0
 16 13  1  0
 17  9  2  0
 18  2  1  0
 19 21  2  0
 20 16  2  0
 21 28  1  0
 22 27  2  0
 23 18  1  0
 24  5  1  0
 25 16  1  0
 26  7  1  0
 27 23  1  0
 28 23  2  0
 29 10  2  0
 30 11  2  0
 31 13  1  0
 32 15  1  0
 33 14  1  0
 34 26  1  0
 35 29  1  0
 36 37  1  0
 37 32  2  0
 38 30  1  0
 39 34  1  0
 10 11  1  0
  8  6  1  0
 35 38  2  0
  3  7  2  0
 19 22  1  0
 36 31  2  0
M  END
