
     RDKit          3D

 69 74  0  0  0  0  0  0  0  0999 V2000
   -4.2230    1.1766    0.0049 C   0  0  0  0  0  0  0  0  0  0  0  0
   -0.4097   -1.9378   -0.9169 N   0  0  0  0  0  0  0  0  0  0  0  0
   -1.0003   -3.3904    0.6518 N   0  0  0  0  0  0  0  0  0  0  0  0
   -4.5749    1.6209   -1.1892 N   0  0  0  0  0  0  0  0  0  0  0  0
   -4.6626    2.0498    0.9837 N   0  0  0  0  0  0  0  0  0  0  0  0
   -1.5522   -1.4231   -0.3403 C   0  0  0  0  0  0  0  0  0  0  0  0
   -0.1120   -3.1308   -0.2873 C   0  0  0  0  0  0  0  0  0  0  0  0
   -1.8989   -2.3547    0.6315 C   0  0  0  0  0  0  0  0  0  0  0  0
   -3.4330   -0.0390    0.2297 C   0  0  0  0  0  0  0  0  0  0  0  0
   -5.4021    3.0432    0.3815 C   0  0  0  0  0  0  0  0  0  0  0  0
   -5.3190    2.7507   -0.9748 C   0  0  0  0  0  0  0  0  0  0  0  0
   -2.3007   -0.2610   -0.5694 C   0  0  0  0  0  0  0  0  0  0  0  0
    5.8047    2.3543   -1.0285 C   0  0  0  0  0  0  0  0  0  0  0  0
   -3.0475   -2.1578    1.4229 C   0  0  0  0  0  0  0  0  0  0  0  0
    5.2495    1.2314   -0.3827 C   0  0  0  0  0  0  0  0  0  0  0  0
    5.1954    2.9147   -2.2588 C   0  0  0  0  0  0  0  0  0  0  0  0
   -3.8049   -0.9891    1.1920 C   0  0  0  0  0  0  0  0  0  0  0  0
    0.3150   -1.3446   -2.0328 C   0  0  0  0  0  0  0  0  0  0  0  0
    4.0028    0.5865   -0.8118 C   0  0  0  0  0  0  0  0  0  0  0  0
    4.7097    2.3046   -3.1903 O   0  0  0  0  0  0  0  0  0  0  0  0
    2.7659    1.0402   -0.3332 C   0  0  0  0  0  0  0  0  0  0  0  0
    4.0209   -0.5068   -1.6874 C   0  0  0  0  0  0  0  0  0  0  0  0
    1.5957   -0.6772   -1.5956 C   0  0  0  0  0  0  0  0  0  0  0  0
   -4.3526    1.9871    2.3921 C   0  0  0  0  0  0  0  0  0  0  0  0
    5.2301    4.2610   -2.2492 O   0  0  0  0  0  0  0  0  0  0  0  0
    1.0750   -3.9792   -0.6255 C   0  0  0  0  0  0  0  0  0  0  0  0
    2.8314   -1.1270   -2.0813 C   0  0  0  0  0  0  0  0  0  0  0  0
    1.5761    0.4191   -0.7222 C   0  0  0  0  0  0  0  0  0  0  0  0
   -6.1088    4.1490    0.8719 C   0  0  0  0  0  0  0  0  0  0  0  0
   -5.9571    3.5858   -1.9035 C   0  0  0  0  0  0  0  0  0  0  0  0
    6.9751    2.9540   -0.5305 C   0  0  0  0  0  0  0  0  0  0  0  0
    5.9041    0.7339    0.7613 C   0  0  0  0  0  0  0  0  0  0  0  0
   -3.4945   -3.1348    2.4698 C   0  0  0  0  0  0  0  0  0  0  0  0
    0.9989   -5.3711    0.0053 C   0  0  0  0  0  0  0  0  0  0  0  0
   -6.7426    4.9695   -0.0687 C   0  0  0  0  0  0  0  0  0  0  0  0
    7.6029    2.4429    0.6048 C   0  0  0  0  0  0  0  0  0  0  0  0
    7.0688    1.3315    1.2490 C   0  0  0  0  0  0  0  0  0  0  0  0
   -6.6693    4.6956   -1.4351 C   0  0  0  0  0  0  0  0  0  0  0  0
    2.2184   -6.2083   -0.3482 C   0  0  0  0  0  0  0  0  0  0  0  0
   -2.0245    0.4562   -1.3371 H   0  0  0  0  0  0  0  0  0  0  0  0
   -4.7159   -0.8430    1.7694 H   0  0  0  0  0  0  0  0  0  0  0  0
   -0.3303   -0.6142   -2.5322 H   0  0  0  0  0  0  0  0  0  0  0  0
    0.5005   -2.1428   -2.7605 H   0  0  0  0  0  0  0  0  0  0  0  0
    2.7213    1.8859    0.3507 H   0  0  0  0  0  0  0  0  0  0  0  0
    4.9669   -0.8714   -2.0824 H   0  0  0  0  0  0  0  0  0  0  0  0
   -5.0845    1.3372    2.8770 H   0  0  0  0  0  0  0  0  0  0  0  0
   -4.4005    2.9896    2.8243 H   0  0  0  0  0  0  0  0  0  0  0  0
   -3.3391    1.6030    2.5274 H   0  0  0  0  0  0  0  0  0  0  0  0
    4.7839    4.5075   -3.0866 H   0  0  0  0  0  0  0  0  0  0  0  0
    1.9820   -3.4727   -0.2752 H   0  0  0  0  0  0  0  0  0  0  0  0
    1.1538   -4.0893   -1.7133 H   0  0  0  0  0  0  0  0  0  0  0  0
    2.8837   -1.9639   -2.7747 H   0  0  0  0  0  0  0  0  0  0  0  0
    0.6349    0.8016   -0.3328 H   0  0  0  0  0  0  0  0  0  0  0  0
   -6.1712    4.3701    1.9317 H   0  0  0  0  0  0  0  0  0  0  0  0
   -5.8960    3.3649   -2.9631 H   0  0  0  0  0  0  0  0  0  0  0  0
    7.4040    3.8192   -1.0319 H   0  0  0  0  0  0  0  0  0  0  0  0
    5.4947   -0.1281    1.2869 H   0  0  0  0  0  0  0  0  0  0  0  0
   -4.4758   -3.5436    2.2086 H   0  0  0  0  0  0  0  0  0  0  0  0
   -3.5620   -2.6390    3.4435 H   0  0  0  0  0  0  0  0  0  0  0  0
   -2.7930   -3.9692    2.5652 H   0  0  0  0  0  0  0  0  0  0  0  0
    0.9251   -5.2893    1.0965 H   0  0  0  0  0  0  0  0  0  0  0  0
    0.0954   -5.8897   -0.3375 H   0  0  0  0  0  0  0  0  0  0  0  0
   -7.3031    5.8377    0.2718 H   0  0  0  0  0  0  0  0  0  0  0  0
    8.5076    2.9114    0.9844 H   0  0  0  0  0  0  0  0  0  0  0  0
    7.5538    0.9299    2.1357 H   0  0  0  0  0  0  0  0  0  0  0  0
   -7.1700    5.3485   -2.1460 H   0  0  0  0  0  0  0  0  0  0  0  0
    2.3025   -6.3421   -1.4312 H   0  0  0  0  0  0  0  0  0  0  0  0
    2.1442   -7.1991    0.1113 H   0  0  0  0  0  0  0  0  0  0  0  0
    3.1371   -5.7349    0.0120 H   0  0  0  0  0  0  0  0  0  0  0  0
  2  6  1  0
  3  8  1  0
  4  1  2  0
  5  1  1  0
  6 12  2  0
  7  2  1  0
  8 14  2  0
  9  1  1  0
 10  5  1  0
 11  4  1  0
 12  9  1  0
 13 15  2  0
 14 17  1  0
 15 19  1  0
 16 13  1  0
 17  9  2  0
 18  2  1  0
 19 21  2  0
 20 16  2  0
 21 28  1  0
 22 27  2  0
 23 18  1  0
 24  5  1  0
 25 16  1  0
 26  7  1  0
 27 23  1  0
 28 23  2  0
 29 10  2  0
 30 11  2  0
 31 13  1  0
 32 15  1  0
 33 14  1  0
 34 26  1  0
 35 29  1  0
 36 37  1  0
 37 32  2  0
 38 30  1  0
 39 34  1  0
 10 11  1  0
  8  6  1  0
 35 38  2  0
  3  7  2  0
 19 22  1  0
 36 31  2  0
 12 40  1  0
 17 41  1  0
 18 42  1  0
 18 43  1  0
 21 44  1  0
 22 45  1  0
 24 46  1  0
 24 47  1  0
 24 48  1  0
 25 49  1  0
 26 50  1  0
 26 51  1  0
 27 52  1  0
 28 53  1  0
 29 54  1  0
 30 55  1  0
 31 56  1  0
 32 57  1  0
 33 58  1  0
 33 59  1  0
 33 60  1  0
 34 61  1  0
 34 62  1  0
 35 63  1  0
 36 64  1  0
 37 65  1  0
 38 66  1  0
 39 67  1  0
 39 68  1  0
 39 69  1  0
M  END
$$$$
