
     RDKit          3D

106114  0  0  0  0  0  0  0  0999 V2000
   49.2996    8.5140   19.6209 C   0  0  2  0  0  0  0  0  0  0  0  0
   48.2105    8.4393   20.6980 C   0  0  2  0  0  0  0  0  0  0  0  0
   49.3845    9.7887   18.7719 C   0  0  1  0  0  0  0  0  0  0  0  0
   49.8755    9.3836   17.4545 O   0  0  0  0  0  0  0  0  0  0  0  0
   48.9733    7.5749   18.5124 C   0  0  0  0  0  0  0  0  0  0  0  0
   48.1417    6.9387   21.1530 C   0  0  2  0  0  0  0  0  0  0  0  0
   49.3820    8.1052   17.3037 C   0  0  0  0  0  0  0  0  0  0  0  0
   48.3251    6.3624   18.6350 C   0  0  0  0  0  0  0  0  0  0  0  0
   49.4391    6.6679   21.8513 N   0  0  0  0  0  0  0  0  0  0  0  0
   47.7690    5.9669   19.9781 C   0  0  0  0  0  0  0  0  0  0  0  0
   50.6692    8.1169   20.2231 C   0  0  0  0  0  0  0  0  0  0  0  0
   46.8733    9.0187   20.2253 C   0  0  0  0  0  0  0  0  0  0  0  0
   48.0432   10.5283   18.6074 C   0  0  0  0  0  0  0  0  0  0  0  0
   49.2448    7.3880   16.1312 C   0  0  0  0  0  0  0  0  0  0  0  0
   48.1613    5.6250   17.4642 C   0  0  0  0  0  0  0  0  0  0  0  0
   50.6094    6.7693   20.9633 C   0  0  0  0  0  0  0  0  0  0  0  0
   48.6332    6.1268   16.2270 C   0  0  0  0  0  0  0  0  0  0  0  0
   47.0550   10.4556   19.7491 C   0  0  0  0  0  0  0  0  0  0  0  0
   48.6070    9.2404   21.8311 O   0  0  0  0  0  0  0  0  0  0  0  0
   47.7923   11.2329   17.6262 O   0  0  0  0  0  0  0  0  0  0  0  0
   49.4393    5.3930   22.5677 C   0  0  0  0  0  0  0  0  0  0  0  0
   49.7065    7.9762   14.9920 O   0  0  0  0  0  0  0  0  0  0  0  0
   49.4745    7.2898   13.7705 C   0  0  0  0  0  0  0  0  0  0  0  0
   49.6972    6.9039   19.0496 C   0  0  2  0  0  0  0  0  0  0  0  0
   49.0858    6.4592   17.7149 C   0  0  2  0  0  0  0  0  0  0  0  0
   49.8258    5.8589   20.1653 C   0  0  1  0  0  0  0  0  0  0  0  0
   49.6851    6.5776   21.4321 O   0  0  0  0  0  0  0  0  0  0  0  0
   48.7522    7.8125   19.7557 C   0  0  0  0  0  0  0  0  0  0  0  0
   48.7681    7.7720   16.9156 C   0  0  2  0  0  0  0  0  0  0  0  0
   48.8363    7.6185   21.1213 C   0  0  0  0  0  0  0  0  0  0  0  0
   47.8796    8.7027   19.1627 C   0  0  0  0  0  0  0  0  0  0  0  0
   50.0983    8.3762   16.5845 N   0  0  0  0  0  0  0  0  0  0  0  0
   47.7487    8.7029   17.6619 C   0  0  0  0  0  0  0  0  0  0  0  0
   51.0230    7.6623   18.7983 C   0  0  0  0  0  0  0  0  0  0  0  0
   47.8858    5.5246   17.8979 C   0  0  0  0  0  0  0  0  0  0  0  0
   48.7736    4.7354   20.1006 C   0  0  0  0  0  0  0  0  0  0  0  0
   48.0992    8.3938   21.9951 C   0  0  0  0  0  0  0  0  0  0  0  0
   47.1132    9.4868   20.0223 C   0  0  0  0  0  0  0  0  0  0  0  0
   50.8572    8.7984   17.7740 C   0  0  0  0  0  0  0  0  0  0  0  0
   47.2362    9.3451   21.4259 C   0  0  0  0  0  0  0  0  0  0  0  0
   48.2790    4.3132   18.7360 C   0  0  0  0  0  0  0  0  0  0  0  0
   50.0644    5.7007   16.9734 O   0  0  0  0  0  0  0  0  0  0  0  0
   48.3927    4.1269   21.1037 O   0  0  0  0  0  0  0  0  0  0  0  0
   49.9973    9.4691   15.6181 C   0  0  0  0  0  0  0  0  0  0  0  0
   48.2719    8.1553   23.3256 O   0  0  0  0  0  0  0  0  0  0  0  0
   47.4435    8.8773   24.2249 C   0  0  0  0  0  0  0  0  0  0  0  0
   47.7626    7.2636   21.8547 C   0  0  0  0  0  0  0  0  0  0  0  0
   49.1551    7.6355   16.2651 C   0  0  0  0  0  0  0  0  0  0  0  0
   48.8256    7.5799   17.7102 C   0  0  0  0  0  0  0  0  0  0  0  0
   48.1484    7.3985   20.4287 C   0  0  0  0  0  0  0  0  0  0  0  0
   48.7465    6.8707   15.4114 O   0  0  0  0  0  0  0  0  0  0  0  0
   47.0274    6.4108   22.3160 O   0  0  0  0  0  0  0  0  0  0  0  0
   47.6327    6.4744   19.5110 C   0  0  0  0  0  0  0  0  0  0  0  0
   47.9702    6.5646   18.1571 C   0  0  0  0  0  0  0  0  0  0  0  0
   49.0044    8.4139   19.9824 C   0  0  0  0  0  0  0  0  0  0  0  0
   49.3418    8.5044   18.6273 C   0  0  0  0  0  0  0  0  0  0  0  0
   48.3175    8.2063   22.6363 O   0  0  0  0  0  0  0  0  0  0  0  0
   49.9828    8.6493   15.9574 O   0  0  0  0  0  0  0  0  0  0  0  0
   50.0926   10.5088   19.1986 H   0  0  0  0  0  0  0  0  0  0  0  0
   47.3603    6.8576   21.9211 H   0  0  0  0  0  0  0  0  0  0  0  0
   46.6747    5.9650   19.8872 H   0  0  0  0  0  0  0  0  0  0  0  0
   48.0625    4.9381   20.2086 H   0  0  0  0  0  0  0  0  0  0  0  0
   51.4474    8.0579   19.4507 H   0  0  0  0  0  0  0  0  0  0  0  0
   50.9979    8.8952   20.9244 H   0  0  0  0  0  0  0  0  0  0  0  0
   46.1553    9.0191   21.0546 H   0  0  0  0  0  0  0  0  0  0  0  0
   46.4333    8.4210   19.4197 H   0  0  0  0  0  0  0  0  0  0  0  0
   47.6588    4.6605   17.4871 H   0  0  0  0  0  0  0  0  0  0  0  0
   51.5270    6.6750   21.5576 H   0  0  0  0  0  0  0  0  0  0  0  0
   50.6262    5.9442   20.2406 H   0  0  0  0  0  0  0  0  0  0  0  0
   48.4860    5.5071   15.3473 H   0  0  0  0  0  0  0  0  0  0  0  0
   47.4064   11.1124   20.5515 H   0  0  0  0  0  0  0  0  0  0  0  0
   46.0911   10.8438   19.4013 H   0  0  0  0  0  0  0  0  0  0  0  0
   49.1249    8.6308   22.4023 H   0  0  0  0  0  0  0  0  0  0  0  0
   49.4221    4.5276   21.8977 H   0  0  0  0  0  0  0  0  0  0  0  0
   48.5795    5.3273   23.2431 H   0  0  0  0  0  0  0  0  0  0  0  0
   50.3340    5.3136   23.1954 H   0  0  0  0  0  0  0  0  0  0  0  0
   49.8670    7.9092   12.9582 H   0  0  0  0  0  0  0  0  0  0  0  0
   50.0091    6.3343   13.7483 H   0  0  0  0  0  0  0  0  0  0  0  0
   48.4033    7.1470   13.5929 H   0  0  0  0  0  0  0  0  0  0  0  0
   50.8089    5.3739   20.1499 H   0  0  0  0  0  0  0  0  0  0  0  0
   48.3202    7.4789   15.9562 H   0  0  0  0  0  0  0  0  0  0  0  0
   46.7391    8.3417   17.4256 H   0  0  0  0  0  0  0  0  0  0  0  0
   47.8055    9.7300   17.2883 H   0  0  0  0  0  0  0  0  0  0  0  0
   51.7812    6.9580   18.4310 H   0  0  0  0  0  0  0  0  0  0  0  0
   51.4282    8.0847   19.7272 H   0  0  0  0  0  0  0  0  0  0  0  0
   47.0405    6.0360   18.3711 H   0  0  0  0  0  0  0  0  0  0  0  0
   47.5403    5.1692   16.9195 H   0  0  0  0  0  0  0  0  0  0  0  0
   46.4038   10.2086   19.6231 H   0  0  0  0  0  0  0  0  0  0  0  0
   50.3871    9.6669   18.2514 H   0  0  0  0  0  0  0  0  0  0  0  0
   51.8609    9.1214   17.4696 H   0  0  0  0  0  0  0  0  0  0  0  0
   46.6205    9.9871   22.0490 H   0  0  0  0  0  0  0  0  0  0  0  0
   49.0616    3.7177   18.2546 H   0  0  0  0  0  0  0  0  0  0  0  0
   47.4039    3.6666   18.8665 H   0  0  0  0  0  0  0  0  0  0  0  0
   50.5578    6.3697   16.4491 H   0  0  0  0  0  0  0  0  0  0  0  0
   49.4464    9.1498   14.7268 H   0  0  0  0  0  0  0  0  0  0  0  0
   50.9961    9.7640   15.2773 H   0  0  0  0  0  0  0  0  0  0  0  0
   49.5079   10.3574   16.0295 H   0  0  0  0  0  0  0  0  0  0  0  0
   47.6791    8.5426   25.2399 H   0  0  0  0  0  0  0  0  0  0  0  0
   46.3840    8.6684   24.0430 H   0  0  0  0  0  0  0  0  0  0  0  0
   47.6487    9.9516   24.1728 H   0  0  0  0  0  0  0  0  0  0  0  0
   46.9666    5.6807   19.8458 H   0  0  0  0  0  0  0  0  0  0  0  0
   47.5625    5.8406   17.4533 H   0  0  0  0  0  0  0  0  0  0  0  0
   49.4143    9.1406   20.6803 H   0  0  0  0  0  0  0  0  0  0  0  0
   50.0076    9.2997   18.2993 H   0  0  0  0  0  0  0  0  0  0  0  0
   47.9801    7.9966   23.5327 H   0  0  0  0  0  0  0  0  0  0  0  0
   50.1104    8.5627   14.9892 H   0  0  0  0  0  0  0  0  0  0  0  0
 14  7  2  0
 15  8  1  0
 16 11  1  0
 17 15  2  0
 18 13  1  0
  2 19  1  6
 20 13  2  0
 21  9  1  0
  4  7  1  0
 16  9  1  0
  6 10  1  0
 18 12  1  0
 17 14  1  0
 14 22  1  0
 22 23  1  0
  2  1  1  0
  3  1  1  0
  3  4  1  0
  5  1  1  0
  6  2  1  0
  7  5  1  0
  8  5  2  0
  6  9  1  0
 10  8  1  0
  1 11  1  6
 12  2  1  0
 13  3  1  0
 37 30  2  0
 38 31  1  0
 39 34  1  0
 40 38  2  0
 41 36  1  0
 25 42  1  6
 43 36  2  0
 44 32  1  0
 27 30  1  0
 39 32  1  0
 29 33  1  0
 41 35  1  0
 40 37  1  0
 37 45  1  0
 45 46  1  0
 25 24  1  0
 26 24  1  0
 26 27  1  0
 28 24  1  0
 29 25  1  0
 30 28  1  0
 31 28  2  0
 29 32  1  0
 33 31  1  0
 24 34  1  6
 35 25  1  0
 36 26  1  0
 48 49  1  0
 49 56  2  0
 50 47  1  0
 51 48  2  0
 52 47  2  0
 53 50  1  0
 54 53  2  0
 55 50  2  0
 56 55  1  0
 57 47  1  0
 58 48  1  0
 49 54  1  0
  3 59  1  6
  6 60  1  1
 10 61  1  0
 10 62  1  0
 11 63  1  0
 11 64  1  0
 12 65  1  0
 12 66  1  0
 15 67  1  0
 16 68  1  0
 16 69  1  0
 17 70  1  0
 18 71  1  0
 18 72  1  0
 19 73  1  0
 21 74  1  0
 21 75  1  0
 21 76  1  0
 23 77  1  0
 23 78  1  0
 23 79  1  0
 26 80  1  6
 29 81  1  1
 33 82  1  0
 33 83  1  0
 34 84  1  0
 34 85  1  0
 35 86  1  0
 35 87  1  0
 38 88  1  0
 39 89  1  0
 39 90  1  0
 40 91  1  0
 41 92  1  0
 41 93  1  0
 42 94  1  0
 44 95  1  0
 44 96  1  0
 44 97  1  0
 46 98  1  0
 46 99  1  0
 46100  1  0
 53101  1  0
 54102  1  0
 55103  1  0
 56104  1  0
 57105  1  0
 58106  1  0
M  END
> <Uni-Dock RESULT> 
ENERGY=   -6.219  LOWER_BOUND=    0.000  UPPER_BOUND=    0.000
INTER + INTRA:          -6.219
INTER:                  -6.219
INTRA:                   0.000
UNBOUND:                 0.000

$$$$

     RDKit          3D

106114  0  0  0  0  0  0  0  0999 V2000
   49.1255   10.6579   19.5854 C   0  0  2  0  0  0  0  0  0  0  0  0
   48.0387    9.8912   20.3490 C   0  0  2  0  0  0  0  0  0  0  0  0
   49.0393   12.1891   19.5567 C   0  0  1  0  0  0  0  0  0  0  0  0
   49.6093   12.6177   18.2792 O   0  0  0  0  0  0  0  0  0  0  0  0
   48.9611   10.4359   18.1223 C   0  0  0  0  0  0  0  0  0  0  0  0
   48.1813    8.3860   19.9274 C   0  0  2  0  0  0  0  0  0  0  0  0
   49.3110   11.5769   17.4257 C   0  0  0  0  0  0  0  0  0  0  0  0
   48.4950    9.2851   17.5192 C   0  0  0  0  0  0  0  0  0  0  0  0
   49.4908    7.9296   20.4941 N   0  0  0  0  0  0  0  0  0  0  0  0
   47.9771    8.1675   18.3866 C   0  0  0  0  0  0  0  0  0  0  0  0
   50.5267   10.1561   20.0109 C   0  0  0  0  0  0  0  0  0  0  0  0
   46.6404   10.4787   20.1324 C   0  0  0  0  0  0  0  0  0  0  0  0
   47.6077   12.7434   19.6844 C   0  0  0  0  0  0  0  0  0  0  0  0
   49.3024   11.5960   16.0446 C   0  0  0  0  0  0  0  0  0  0  0  0
   48.4630    9.2835   16.1263 C   0  0  0  0  0  0  0  0  0  0  0  0
   50.6504    8.6257   19.9116 C   0  0  0  0  0  0  0  0  0  0  0  0
   48.8800   10.4232   15.3966 C   0  0  0  0  0  0  0  0  0  0  0  0
   46.6192   11.9550   20.5129 C   0  0  0  0  0  0  0  0  0  0  0  0
   48.2922    9.9927   21.7661 O   0  0  0  0  0  0  0  0  0  0  0  0
   47.2753   13.8325   19.2095 O   0  0  0  0  0  0  0  0  0  0  0  0
   49.6638    6.4795   20.4191 C   0  0  0  0  0  0  0  0  0  0  0  0
   49.6947   12.7537   15.4423 O   0  0  0  0  0  0  0  0  0  0  0  0
   49.5889   12.8143   14.0273 C   0  0  0  0  0  0  0  0  0  0  0  0
   49.7650    9.6680   18.2861 C   0  0  2  0  0  0  0  0  0  0  0  0
   49.2507    9.9484   16.8685 C   0  0  2  0  0  0  0  0  0  0  0  0
   50.0237    8.2085   18.6817 C   0  0  1  0  0  0  0  0  0  0  0  0
   49.7553    8.1084   20.1166 O   0  0  0  0  0  0  0  0  0  0  0  0
   48.6841    9.9381   19.2739 C   0  0  0  0  0  0  0  0  0  0  0  0
   48.7598   11.4391   16.8637 C   0  0  2  0  0  0  0  0  0  0  0  0
   48.7696    9.0487   20.3281 C   0  0  0  0  0  0  0  0  0  0  0  0
   47.7022   10.9023   19.1655 C   0  0  0  0  0  0  0  0  0  0  0  0
   49.9935   12.2721   17.0324 N   0  0  0  0  0  0  0  0  0  0  0  0
   47.6013   11.6978   17.8902 C   0  0  0  0  0  0  0  0  0  0  0  0
   50.9703   10.5859   18.6036 C   0  0  0  0  0  0  0  0  0  0  0  0
   48.1970    8.9345   16.4118 C   0  0  0  0  0  0  0  0  0  0  0  0
   49.1484    7.1874   17.9300 C   0  0  0  0  0  0  0  0  0  0  0  0
   47.9106    9.1405   21.4058 C   0  0  0  0  0  0  0  0  0  0  0  0
   46.8132   11.0059   20.2332 C   0  0  0  0  0  0  0  0  0  0  0  0
   50.6598   12.0679   18.3299 C   0  0  0  0  0  0  0  0  0  0  0  0
   46.9288   10.1440   21.3508 C   0  0  0  0  0  0  0  0  0  0  0  0
   48.7470    7.5160   16.5102 C   0  0  0  0  0  0  0  0  0  0  0  0
   50.3437    9.8264   15.9338 O   0  0  0  0  0  0  0  0  0  0  0  0
   48.8415    6.0954   18.4146 O   0  0  0  0  0  0  0  0  0  0  0  0
   49.7522   13.6940   16.7906 C   0  0  0  0  0  0  0  0  0  0  0  0
   48.0909    8.2429   22.4151 O   0  0  0  0  0  0  0  0  0  0  0  0
   47.1488    8.2663   23.4774 C   0  0  0  0  0  0  0  0  0  0  0  0
   47.7455    8.2355   20.6547 C   0  0  0  0  0  0  0  0  0  0  0  0
   49.1749   11.7201   16.2803 C   0  0  0  0  0  0  0  0  0  0  0  0
   48.8296   10.8564   17.4357 C   0  0  0  0  0  0  0  0  0  0  0  0
   48.1346    9.1614   19.5630 C   0  0  0  0  0  0  0  0  0  0  0  0
   48.8989   11.4968   15.1165 O   0  0  0  0  0  0  0  0  0  0  0  0
   47.1342    7.1921   20.5199 O   0  0  0  0  0  0  0  0  0  0  0  0
   47.7770    8.8275   18.2504 C   0  0  0  0  0  0  0  0  0  0  0  0
   48.1235    9.6717   17.1909 C   0  0  0  0  0  0  0  0  0  0  0  0
   48.8413   10.3458   19.8084 C   0  0  0  0  0  0  0  0  0  0  0  0
   49.1876   11.1910   18.7481 C   0  0  0  0  0  0  0  0  0  0  0  0
   48.1417    8.6627   21.8664 O   0  0  0  0  0  0  0  0  0  0  0  0
   49.8513   12.8253   16.6390 O   0  0  0  0  0  0  0  0  0  0  0  0
   49.6263   12.6394   20.3659 H   0  0  0  0  0  0  0  0  0  0  0  0
   47.4057    7.8156   20.4567 H   0  0  0  0  0  0  0  0  0  0  0  0
   46.8968    8.0914   18.2053 H   0  0  0  0  0  0  0  0  0  0  0  0
   48.4134    7.2180   18.0613 H   0  0  0  0  0  0  0  0  0  0  0  0
   51.3198   10.6117   19.4032 H   0  0  0  0  0  0  0  0  0  0  0  0
   50.7247   10.4640   21.0461 H   0  0  0  0  0  0  0  0  0  0  0  0
   45.9144    9.9504   20.7625 H   0  0  0  0  0  0  0  0  0  0  0  0
   46.3080   10.3653   19.0949 H   0  0  0  0  0  0  0  0  0  0  0  0
   48.1066    8.4098   15.5850 H   0  0  0  0  0  0  0  0  0  0  0  0
   51.5605    8.3298   20.4486 H   0  0  0  0  0  0  0  0  0  0  0  0
   50.8014    8.3293   18.8662 H   0  0  0  0  0  0  0  0  0  0  0  0
   48.8417   10.3644   14.3128 H   0  0  0  0  0  0  0  0  0  0  0  0
   46.8554   12.1094   21.5707 H   0  0  0  0  0  0  0  0  0  0  0  0
   45.6157   12.3577   20.3353 H   0  0  0  0  0  0  0  0  0  0  0  0
   48.8827    9.2343   21.9718 H   0  0  0  0  0  0  0  0  0  0  0  0
   49.7860    6.1173   19.3935 H   0  0  0  0  0  0  0  0  0  0  0  0
   48.8100    5.9630   20.8711 H   0  0  0  0  0  0  0  0  0  0  0  0
   50.5483    6.1753   20.9900 H   0  0  0  0  0  0  0  0  0  0  0  0
   49.9021   13.8138   13.7103 H   0  0  0  0  0  0  0  0  0  0  0  0
   50.2578   12.0895   13.5513 H   0  0  0  0  0  0  0  0  0  0  0  0
   48.5536   12.6701   13.7005 H   0  0  0  0  0  0  0  0  0  0  0  0
   51.0672    7.9232   18.5040 H   0  0  0  0  0  0  0  0  0  0  0  0
   48.3779   11.6620   15.8580 H   0  0  0  0  0  0  0  0  0  0  0  0
   46.6600   11.4100   17.4035 H   0  0  0  0  0  0  0  0  0  0  0  0
   47.5144   12.7627   18.1273 H   0  0  0  0  0  0  0  0  0  0  0  0
   51.8301   10.2822   17.9919 H   0  0  0  0  0  0  0  0  0  0  0  0
   51.2915   10.4826   19.6484 H   0  0  0  0  0  0  0  0  0  0  0  0
   47.2771    9.0103   17.0018 H   0  0  0  0  0  0  0  0  0  0  0  0
   47.9258    9.1271   15.3666 H   0  0  0  0  0  0  0  0  0  0  0  0
   46.0136   11.7434   20.2138 H   0  0  0  0  0  0  0  0  0  0  0  0
   50.0587   12.4816   19.1490 H   0  0  0  0  0  0  0  0  0  0  0  0
   51.6110   12.6149   18.3406 H   0  0  0  0  0  0  0  0  0  0  0  0
   46.2141   10.2737   22.1582 H   0  0  0  0  0  0  0  0  0  0  0  0
   49.6172    7.3674   15.8627 H   0  0  0  0  0  0  0  0  0  0  0  0
   47.9734    6.8074   16.1933 H   0  0  0  0  0  0  0  0  0  0  0  0
   50.7438   10.7232   15.8951 H   0  0  0  0  0  0  0  0  0  0  0  0
   49.2710   13.8466   15.8186 H   0  0  0  0  0  0  0  0  0  0  0  0
   50.7035   14.2367   16.7553 H   0  0  0  0  0  0  0  0  0  0  0  0
   49.1305   14.1577   17.5628 H   0  0  0  0  0  0  0  0  0  0  0  0
   47.4115    7.4658   24.1759 H   0  0  0  0  0  0  0  0  0  0  0  0
   46.1350    8.0706   23.1128 H   0  0  0  0  0  0  0  0  0  0  0  0
   47.1957    9.2138   24.0242 H   0  0  0  0  0  0  0  0  0  0  0  0
   47.2278    7.9096   18.0470 H   0  0  0  0  0  0  0  0  0  0  0  0
   47.8395    9.4016   16.1750 H   0  0  0  0  0  0  0  0  0  0  0  0
   49.1272   10.6217   20.8211 H   0  0  0  0  0  0  0  0  0  0  0  0
   49.7361   12.1066   18.9580 H   0  0  0  0  0  0  0  0  0  0  0  0
   47.8215    7.9658   22.4773 H   0  0  0  0  0  0  0  0  0  0  0  0
   50.0085   13.2901   15.7902 H   0  0  0  0  0  0  0  0  0  0  0  0
 14  7  2  0
 15  8  1  0
 16 11  1  0
 17 15  2  0
 18 13  1  0
  2 19  1  6
 20 13  2  0
 21  9  1  0
  4  7  1  0
 16  9  1  0
  6 10  1  0
 18 12  1  0
 17 14  1  0
 14 22  1  0
 22 23  1  0
  2  1  1  0
  3  1  1  0
  3  4  1  0
  5  1  1  0
  6  2  1  0
  7  5  1  0
  8  5  2  0
  6  9  1  0
 10  8  1  0
  1 11  1  6
 12  2  1  0
 13  3  1  0
 37 30  2  0
 38 31  1  0
 39 34  1  0
 40 38  2  0
 41 36  1  0
 25 42  1  6
 43 36  2  0
 44 32  1  0
 27 30  1  0
 39 32  1  0
 29 33  1  0
 41 35  1  0
 40 37  1  0
 37 45  1  0
 45 46  1  0
 25 24  1  0
 26 24  1  0
 26 27  1  0
 28 24  1  0
 29 25  1  0
 30 28  1  0
 31 28  2  0
 29 32  1  0
 33 31  1  0
 24 34  1  6
 35 25  1  0
 36 26  1  0
 48 49  1  0
 49 56  2  0
 50 47  1  0
 51 48  2  0
 52 47  2  0
 53 50  1  0
 54 53  2  0
 55 50  2  0
 56 55  1  0
 57 47  1  0
 58 48  1  0
 49 54  1  0
  3 59  1  6
  6 60  1  1
 10 61  1  0
 10 62  1  0
 11 63  1  0
 11 64  1  0
 12 65  1  0
 12 66  1  0
 15 67  1  0
 16 68  1  0
 16 69  1  0
 17 70  1  0
 18 71  1  0
 18 72  1  0
 19 73  1  0
 21 74  1  0
 21 75  1  0
 21 76  1  0
 23 77  1  0
 23 78  1  0
 23 79  1  0
 26 80  1  6
 29 81  1  1
 33 82  1  0
 33 83  1  0
 34 84  1  0
 34 85  1  0
 35 86  1  0
 35 87  1  0
 38 88  1  0
 39 89  1  0
 39 90  1  0
 40 91  1  0
 41 92  1  0
 41 93  1  0
 42 94  1  0
 44 95  1  0
 44 96  1  0
 44 97  1  0
 46 98  1  0
 46 99  1  0
 46100  1  0
 53101  1  0
 54102  1  0
 55103  1  0
 56104  1  0
 57105  1  0
 58106  1  0
M  END
> <Uni-Dock RESULT> 
ENERGY=   -5.998  LOWER_BOUND=    1.778  UPPER_BOUND=    2.982
INTER + INTRA:          -5.998
INTER:                  -5.998
INTRA:                   0.000
UNBOUND:                 0.000

$$$$

     RDKit          3D

106114  0  0  0  0  0  0  0  0999 V2000
   49.6364    9.8526   18.3516 C   0  0  2  0  0  0  0  0  0  0  0  0
   49.0440   10.5398   17.1151 C   0  0  2  0  0  0  0  0  0  0  0  0
   49.9403    8.3517   18.2633 C   0  0  1  0  0  0  0  0  0  0  0  0
   49.7488    7.8049   19.6068 O   0  0  0  0  0  0  0  0  0  0  0  0
   48.6041    9.7697   19.4215 C   0  0  0  0  0  0  0  0  0  0  0  0
   48.5292   11.9431   17.5940 C   0  0  2  0  0  0  0  0  0  0  0  0
   48.7594    8.6014   20.1429 C   0  0  0  0  0  0  0  0  0  0  0  0
   47.6022   10.6885   19.6612 C   0  0  0  0  0  0  0  0  0  0  0  0
   49.7564   12.7218   17.9570 N   0  0  0  0  0  0  0  0  0  0  0  0
   47.4219   11.8355   18.7012 C   0  0  0  0  0  0  0  0  0  0  0  0
   50.8412   10.6657   18.8840 C   0  0  0  0  0  0  0  0  0  0  0  0
   47.9844    9.6826   16.4154 C   0  0  0  0  0  0  0  0  0  0  0  0
   49.0461    7.5838   17.2713 C   0  0  0  0  0  0  0  0  0  0  0  0
   47.9563    8.3283   21.2330 C   0  0  0  0  0  0  0  0  0  0  0  0
   46.7690   10.4291   20.7472 C   0  0  0  0  0  0  0  0  0  0  0  0
   50.4923   12.1491   19.0967 C   0  0  0  0  0  0  0  0  0  0  0  0
   46.9567    9.2680   21.5358 C   0  0  0  0  0  0  0  0  0  0  0  0
   48.5620    8.3214   16.0439 C   0  0  0  0  0  0  0  0  0  0  0  0
   50.0881   10.7467   16.1406 O   0  0  0  0  0  0  0  0  0  0  0  0
   48.7887    6.3846   17.4046 O   0  0  0  0  0  0  0  0  0  0  0  0
   49.4801   14.1409   18.1772 C   0  0  0  0  0  0  0  0  0  0  0  0
   48.2034    7.1687   21.9048 O   0  0  0  0  0  0  0  0  0  0  0  0
   47.3159    6.8319   22.9611 C   0  0  0  0  0  0  0  0  0  0  0  0
   49.1273   10.6856   19.8090 C   0  0  2  0  0  0  0  0  0  0  0  0
   47.9776   10.0629   20.6110 C   0  0  2  0  0  0  0  0  0  0  0  0
   49.1880   12.2152   19.7082 C   0  0  1  0  0  0  0  0  0  0  0  0
   49.7874   12.5270   18.4104 O   0  0  0  0  0  0  0  0  0  0  0  0
   48.9319   10.4126   18.3584 C   0  0  0  0  0  0  0  0  0  0  0  0
   47.9718    8.5333   20.2595 C   0  0  2  0  0  0  0  0  0  0  0  0
   49.3847   11.4809   17.6079 C   0  0  0  0  0  0  0  0  0  0  0  0
   48.3526    9.2854   17.8112 C   0  0  0  0  0  0  0  0  0  0  0  0
   49.2355    7.9791   20.8428 N   0  0  0  0  0  0  0  0  0  0  0  0
   47.7357    8.2646   18.7315 C   0  0  0  0  0  0  0  0  0  0  0  0
   50.4768   10.0715   20.2537 C   0  0  0  0  0  0  0  0  0  0  0  0
   46.6404   10.7713   20.3725 C   0  0  0  0  0  0  0  0  0  0  0  0
   47.8160   12.9083   19.8124 C   0  0  0  0  0  0  0  0  0  0  0  0
   49.3681   11.4364   16.2275 C   0  0  0  0  0  0  0  0  0  0  0  0
   48.3099    9.2223   16.4201 C   0  0  0  0  0  0  0  0  0  0  0  0
   50.4524    8.5332   20.2255 C   0  0  0  0  0  0  0  0  0  0  0  0
   48.8299   10.2810   15.6364 C   0  0  0  0  0  0  0  0  0  0  0  0
   46.7645   12.2588   20.6828 C   0  0  0  0  0  0  0  0  0  0  0  0
   48.2506   10.2046   22.0211 O   0  0  0  0  0  0  0  0  0  0  0  0
   47.5833   13.9980   19.2834 O   0  0  0  0  0  0  0  0  0  0  0  0
   49.2680    6.5171   20.8336 C   0  0  0  0  0  0  0  0  0  0  0  0
   49.8663   12.5213   15.5704 O   0  0  0  0  0  0  0  0  0  0  0  0
   49.7592   12.5253   14.1545 C   0  0  0  0  0  0  0  0  0  0  0  0
   48.5757   12.1441   16.7580 C   0  0  0  0  0  0  0  0  0  0  0  0
   48.0257    8.2288   20.9637 C   0  0  0  0  0  0  0  0  0  0  0  0
   48.2103    9.2139   19.8703 C   0  0  0  0  0  0  0  0  0  0  0  0
   48.4777   11.1184   17.8251 C   0  0  0  0  0  0  0  0  0  0  0  0
   47.0803    8.1821   21.7283 O   0  0  0  0  0  0  0  0  0  0  0  0
   47.7603   13.0190   16.5338 O   0  0  0  0  0  0  0  0  0  0  0  0
   47.3548   11.1367   18.6625 C   0  0  0  0  0  0  0  0  0  0  0  0
   47.2219   10.1883   19.6813 C   0  0  0  0  0  0  0  0  0  0  0  0
   49.4668   10.1444   18.0140 C   0  0  0  0  0  0  0  0  0  0  0  0
   49.3335    9.1949   19.0333 C   0  0  0  0  0  0  0  0  0  0  0  0
   49.6935   12.0240   16.0206 O   0  0  0  0  0  0  0  0  0  0  0  0
   49.0370    7.3468   21.0474 O   0  0  0  0  0  0  0  0  0  0  0  0
   50.9780    8.1695   17.9603 H   0  0  0  0  0  0  0  0  0  0  0  0
   48.0915   12.4532   16.7249 H   0  0  0  0  0  0  0  0  0  0  0  0
   46.4611   11.6830   18.1920 H   0  0  0  0  0  0  0  0  0  0  0  0
   47.3309   12.7717   19.2608 H   0  0  0  0  0  0  0  0  0  0  0  0
   51.2179   10.2554   19.8304 H   0  0  0  0  0  0  0  0  0  0  0  0
   51.6729   10.5931   18.1709 H   0  0  0  0  0  0  0  0  0  0  0  0
   47.6542   10.1794   15.4948 H   0  0  0  0  0  0  0  0  0  0  0  0
   47.0964    9.5428   17.0412 H   0  0  0  0  0  0  0  0  0  0  0  0
   45.9580   11.1109   20.9939 H   0  0  0  0  0  0  0  0  0  0  0  0
   51.4336   12.6960   19.2345 H   0  0  0  0  0  0  0  0  0  0  0  0
   49.9278   12.2709   20.0294 H   0  0  0  0  0  0  0  0  0  0  0  0
   46.2834    9.1193   22.3749 H   0  0  0  0  0  0  0  0  0  0  0  0
   49.3978    8.4082   15.3419 H   0  0  0  0  0  0  0  0  0  0  0  0
   47.7839    7.7205   15.5600 H   0  0  0  0  0  0  0  0  0  0  0  0
   50.4728   11.6229   16.3650 H   0  0  0  0  0  0  0  0  0  0  0  0
   48.8881   14.3248   19.0793 H   0  0  0  0  0  0  0  0  0  0  0  0
   48.9507   14.5706   17.3199 H   0  0  0  0  0  0  0  0  0  0  0  0
   50.4192   14.6973   18.2729 H   0  0  0  0  0  0  0  0  0  0  0  0
   47.6272    5.8634   23.3645 H   0  0  0  0  0  0  0  0  0  0  0  0
   47.3742    7.5647   23.7729 H   0  0  0  0  0  0  0  0  0  0  0  0
   46.2882    6.7267   22.5974 H   0  0  0  0  0  0  0  0  0  0  0  0
   49.8207   12.6446   20.4938 H   0  0  0  0  0  0  0  0  0  0  0  0
   47.1489    8.0654   20.8172 H   0  0  0  0  0  0  0  0  0  0  0  0
   46.6518    8.2857   18.5572 H   0  0  0  0  0  0  0  0  0  0  0  0
   48.0754    7.2631   18.4497 H   0  0  0  0  0  0  0  0  0  0  0  0
   50.7108   10.4063   21.2730 H   0  0  0  0  0  0  0  0  0  0  0  0
   51.3056   10.4201   19.6236 H   0  0  0  0  0  0  0  0  0  0  0  0
   46.2896   10.6420   19.3428 H   0  0  0  0  0  0  0  0  0  0  0  0
   45.8727   10.3451   21.0299 H   0  0  0  0  0  0  0  0  0  0  0  0
   47.8662    8.3631   15.9216 H   0  0  0  0  0  0  0  0  0  0  0  0
   50.5669    8.1761   19.1946 H   0  0  0  0  0  0  0  0  0  0  0  0
   51.3335    8.1761   20.7736 H   0  0  0  0  0  0  0  0  0  0  0  0
   48.7777   10.1761   14.5567 H   0  0  0  0  0  0  0  0  0  0  0  0
   47.0251   12.4390   21.7309 H   0  0  0  0  0  0  0  0  0  0  0  0
   45.8025   12.7477   20.4918 H   0  0  0  0  0  0  0  0  0  0  0  0
   48.7648    9.4019   22.2605 H   0  0  0  0  0  0  0  0  0  0  0  0
   48.3701    6.1056   21.3069 H   0  0  0  0  0  0  0  0  0  0  0  0
   50.1212    6.1558   21.4185 H   0  0  0  0  0  0  0  0  0  0  0  0
   49.3519    6.0994   19.8255 H   0  0  0  0  0  0  0  0  0  0  0  0
   50.1653   13.4740   13.7904 H   0  0  0  0  0  0  0  0  0  0  0  0
   48.7132   12.4667   13.8357 H   0  0  0  0  0  0  0  0  0  0  0  0
   50.3523   11.7179   13.7126 H   0  0  0  0  0  0  0  0  0  0  0  0
   46.5795   11.8889   18.5257 H   0  0  0  0  0  0  0  0  0  0  0  0
   46.3443   10.2126   20.3254 H   0  0  0  0  0  0  0  0  0  0  0  0
   50.3454   10.1144   17.3734 H   0  0  0  0  0  0  0  0  0  0  0  0
   50.1115    8.4460   19.1647 H   0  0  0  0  0  0  0  0  0  0  0  0
   49.6238   12.7525   15.3681 H   0  0  0  0  0  0  0  0  0  0  0  0
   48.7838    6.7700   21.7987 H   0  0  0  0  0  0  0  0  0  0  0  0
 14  7  2  0
 15  8  1  0
 16 11  1  0
 17 15  2  0
 18 13  1  0
  2 19  1  6
 20 13  2  0
 21  9  1  0
  4  7  1  0
 16  9  1  0
  6 10  1  0
 18 12  1  0
 17 14  1  0
 14 22  1  0
 22 23  1  0
  2  1  1  0
  3  1  1  0
  3  4  1  0
  5  1  1  0
  6  2  1  0
  7  5  1  0
  8  5  2  0
  6  9  1  0
 10  8  1  0
  1 11  1  6
 12  2  1  0
 13  3  1  0
 37 30  2  0
 38 31  1  0
 39 34  1  0
 40 38  2  0
 41 36  1  0
 25 42  1  6
 43 36  2  0
 44 32  1  0
 27 30  1  0
 39 32  1  0
 29 33  1  0
 41 35  1  0
 40 37  1  0
 37 45  1  0
 45 46  1  0
 25 24  1  0
 26 24  1  0
 26 27  1  0
 28 24  1  0
 29 25  1  0
 30 28  1  0
 31 28  2  0
 29 32  1  0
 33 31  1  0
 24 34  1  6
 35 25  1  0
 36 26  1  0
 48 49  1  0
 49 56  2  0
 50 47  1  0
 51 48  2  0
 52 47  2  0
 53 50  1  0
 54 53  2  0
 55 50  2  0
 56 55  1  0
 57 47  1  0
 58 48  1  0
 49 54  1  0
  3 59  1  6
  6 60  1  1
 10 61  1  0
 10 62  1  0
 11 63  1  0
 11 64  1  0
 12 65  1  0
 12 66  1  0
 15 67  1  0
 16 68  1  0
 16 69  1  0
 17 70  1  0
 18 71  1  0
 18 72  1  0
 19 73  1  0
 21 74  1  0
 21 75  1  0
 21 76  1  0
 23 77  1  0
 23 78  1  0
 23 79  1  0
 26 80  1  6
 29 81  1  1
 33 82  1  0
 33 83  1  0
 34 84  1  0
 34 85  1  0
 35 86  1  0
 35 87  1  0
 38 88  1  0
 39 89  1  0
 39 90  1  0
 40 91  1  0
 41 92  1  0
 41 93  1  0
 42 94  1  0
 44 95  1  0
 44 96  1  0
 44 97  1  0
 46 98  1  0
 46 99  1  0
 46100  1  0
 53101  1  0
 54102  1  0
 55103  1  0
 56104  1  0
 57105  1  0
 58106  1  0
M  END
> <Uni-Dock RESULT> 
ENERGY=   -5.990  LOWER_BOUND=    1.778  UPPER_BOUND=    5.737
INTER + INTRA:          -5.990
INTER:                  -5.990
INTRA:                   0.000
UNBOUND:                 0.000

$$$$

     RDKit          3D

106114  0  0  0  0  0  0  0  0999 V2000
   49.4118    7.2144   20.8572 C   0  0  2  0  0  0  0  0  0  0  0  0
   48.5448    6.1831   20.1246 C   0  0  2  0  0  0  0  0  0  0  0  0
   49.5251    7.1041   22.3829 C   0  0  1  0  0  0  0  0  0  0  0  0
   49.6950    8.4657   22.8908 O   0  0  0  0  0  0  0  0  0  0  0  0
   48.7477    8.5465   20.8169 C   0  0  0  0  0  0  0  0  0  0  0  0
   48.3397    6.7331   18.6689 C   0  0  2  0  0  0  0  0  0  0  0  0
   48.9973    9.2381   21.9868 C   0  0  0  0  0  0  0  0  0  0  0  0
   47.9608    9.0348   19.7934 C   0  0  0  0  0  0  0  0  0  0  0  0
   49.6898    6.6787   18.0220 N   0  0  0  0  0  0  0  0  0  0  0  0
   47.6133    8.1242   18.6446 C   0  0  0  0  0  0  0  0  0  0  0  0
   50.7952    7.3268   20.1719 C   0  0  0  0  0  0  0  0  0  0  0  0
   47.2442    5.8698   20.8712 C   0  0  0  0  0  0  0  0  0  0  0  0
   48.3021    6.4588   23.0619 C   0  0  0  0  0  0  0  0  0  0  0  0
   48.5378   10.5291   22.1600 C   0  0  0  0  0  0  0  0  0  0  0  0
   47.4728   10.3305   19.9497 C   0  0  0  0  0  0  0  0  0  0  0  0
   50.6751    7.5698   18.6573 C   0  0  0  0  0  0  0  0  0  0  0  0
   47.7741   11.0762   21.1152 C   0  0  0  0  0  0  0  0  0  0  0  0
   47.5454    5.4016   22.2906 C   0  0  0  0  0  0  0  0  0  0  0  0
   49.2611    4.9330   20.0418 O   0  0  0  0  0  0  0  0  0  0  0  0
   47.9797    6.7145   24.2250 O   0  0  0  0  0  0  0  0  0  0  0  0
   49.6344    6.9100   16.5791 C   0  0  0  0  0  0  0  0  0  0  0  0
   48.8604   11.1457   23.3316 O   0  0  0  0  0  0  0  0  0  0  0  0
   48.3044   12.4325   23.5593 C   0  0  0  0  0  0  0  0  0  0  0  0
   49.4512    8.7200   19.9580 C   0  0  2  0  0  0  0  0  0  0  0  0
   48.5416    9.8551   20.4448 C   0  0  2  0  0  0  0  0  0  0  0  0
   49.6293    8.5399   18.4450 C   0  0  1  0  0  0  0  0  0  0  0  0
   49.8368    7.1100   18.2139 O   0  0  0  0  0  0  0  0  0  0  0  0
   48.8011    7.4073   20.2249 C   0  0  0  0  0  0  0  0  0  0  0  0
   48.2789    9.5877   21.9689 C   0  0  2  0  0  0  0  0  0  0  0  0
   49.1095    6.5104   19.2199 C   0  0  0  0  0  0  0  0  0  0  0  0
   47.9754    7.1074   21.2897 C   0  0  0  0  0  0  0  0  0  0  0  0
   49.5985    9.7898   22.6486 N   0  0  0  0  0  0  0  0  0  0  0  0
   47.5674    8.2132   22.2280 C   0  0  0  0  0  0  0  0  0  0  0  0
   50.8045    8.7670   20.7081 C   0  0  0  0  0  0  0  0  0  0  0  0
   47.2715    9.9969   19.6000 C   0  0  0  0  0  0  0  0  0  0  0  0
   48.4283    9.0194   17.6077 C   0  0  0  0  0  0  0  0  0  0  0  0
   48.6727    5.2014   19.2781 C   0  0  0  0  0  0  0  0  0  0  0  0
   47.5089    5.7968   21.3637 C   0  0  0  0  0  0  0  0  0  0  0  0
   50.6209    8.8137   22.2351 C   0  0  0  0  0  0  0  0  0  0  0  0
   47.8699    4.8487   20.3757 C   0  0  0  0  0  0  0  0  0  0  0  0
   47.6298   10.1915   18.1309 C   0  0  0  0  0  0  0  0  0  0  0  0
   49.2401   11.1116   20.3172 O   0  0  0  0  0  0  0  0  0  0  0  0
   48.1556    8.5377   16.5054 O   0  0  0  0  0  0  0  0  0  0  0  0
   49.4823    9.8344   24.1056 C   0  0  0  0  0  0  0  0  0  0  0  0
   49.0540    4.3793   18.2603 O   0  0  0  0  0  0  0  0  0  0  0  0
   48.5254    3.0613   18.2609 C   0  0  0  0  0  0  0  0  0  0  0  0
   48.1514    5.9135   18.4835 C   0  0  0  0  0  0  0  0  0  0  0  0
   48.5126   10.2560   22.2694 C   0  0  0  0  0  0  0  0  0  0  0  0
   48.4549    9.1160   21.3222 C   0  0  0  0  0  0  0  0  0  0  0  0
   48.2792    7.0043   19.4806 C   0  0  0  0  0  0  0  0  0  0  0  0
   47.8423   11.2695   22.2058 O   0  0  0  0  0  0  0  0  0  0  0  0
   47.3969    5.9058   17.5289 O   0  0  0  0  0  0  0  0  0  0  0  0
   47.4690    8.1374   19.3326 C   0  0  0  0  0  0  0  0  0  0  0  0
   47.5568    9.1893   20.2497 C   0  0  0  0  0  0  0  0  0  0  0  0
   49.1779    6.9307   20.5528 C   0  0  0  0  0  0  0  0  0  0  0  0
   49.2654    7.9831   21.4709 C   0  0  0  0  0  0  0  0  0  0  0  0
   48.9768    4.8816   18.7311 O   0  0  0  0  0  0  0  0  0  0  0  0
   49.4097   10.0715   23.2536 O   0  0  0  0  0  0  0  0  0  0  0  0
   50.3997    6.5128   22.6787 H   0  0  0  0  0  0  0  0  0  0  0  0
   47.7127    6.0134   18.1247 H   0  0  0  0  0  0  0  0  0  0  0  0
   46.5334    7.9325   18.6990 H   0  0  0  0  0  0  0  0  0  0  0  0
   47.7882    8.6445   17.6978 H   0  0  0  0  0  0  0  0  0  0  0  0
   51.3976    8.1340   20.6094 H   0  0  0  0  0  0  0  0  0  0  0  0
   51.3615    6.4014   20.3413 H   0  0  0  0  0  0  0  0  0  0  0  0
   46.7023    5.0694   20.3524 H   0  0  0  0  0  0  0  0  0  0  0  0
   46.5772    6.7379   20.9080 H   0  0  0  0  0  0  0  0  0  0  0  0
   46.8455   10.7786   19.1821 H   0  0  0  0  0  0  0  0  0  0  0  0
   51.6632    7.3962   18.2129 H   0  0  0  0  0  0  0  0  0  0  0  0
   50.4333    8.6225   18.4651 H   0  0  0  0  0  0  0  0  0  0  0  0
   47.3742   12.0837   21.1813 H   0  0  0  0  0  0  0  0  0  0  0  0
   48.1346    4.4788   22.3018 H   0  0  0  0  0  0  0  0  0  0  0  0
   46.6022    5.1989   22.8101 H   0  0  0  0  0  0  0  0  0  0  0  0
   49.7802    4.9942   19.2094 H   0  0  0  0  0  0  0  0  0  0  0  0
   49.3634    7.9390   16.3226 H   0  0  0  0  0  0  0  0  0  0  0  0
   48.9161    6.2325   16.1049 H   0  0  0  0  0  0  0  0  0  0  0  0
   50.6087    6.6965   16.1254 H   0  0  0  0  0  0  0  0  0  0  0  0
   48.6257   12.7658   24.5510 H   0  0  0  0  0  0  0  0  0  0  0  0
   48.6771   13.1573   22.8279 H   0  0  0  0  0  0  0  0  0  0  0  0
   47.2098   12.3975   23.5580 H   0  0  0  0  0  0  0  0  0  0  0  0
   50.5088    9.0811   18.0769 H   0  0  0  0  0  0  0  0  0  0  0  0
   47.6208   10.3854   22.3395 H   0  0  0  0  0  0  0  0  0  0  0  0
   46.4891    8.3701   22.0930 H   0  0  0  0  0  0  0  0  0  0  0  0
   47.7056    7.8862   23.2633 H   0  0  0  0  0  0  0  0  0  0  0  0
   51.3670    9.6543   20.3887 H   0  0  0  0  0  0  0  0  0  0  0  0
   51.4346    7.9036   20.4574 H   0  0  0  0  0  0  0  0  0  0  0  0
   46.6154    9.1257   19.7026 H   0  0  0  0  0  0  0  0  0  0  0  0
   46.6999   10.8715   19.9339 H   0  0  0  0  0  0  0  0  0  0  0  0
   46.8528    5.4913   22.1760 H   0  0  0  0  0  0  0  0  0  0  0  0
   50.3831    7.8122   22.6141 H   0  0  0  0  0  0  0  0  0  0  0  0
   51.5865    9.0883   22.6783 H   0  0  0  0  0  0  0  0  0  0  0  0
   47.4842    3.8395   20.4867 H   0  0  0  0  0  0  0  0  0  0  0  0
   48.2110   11.1050   17.9677 H   0  0  0  0  0  0  0  0  0  0  0  0
   46.7082   10.2759   17.5439 H   0  0  0  0  0  0  0  0  0  0  0  0
   49.7206   11.2207   21.1675 H   0  0  0  0  0  0  0  0  0  0  0  0
   48.7331   10.5718   24.4132 H   0  0  0  0  0  0  0  0  0  0  0  0
   50.4322   10.1524   24.5497 H   0  0  0  0  0  0  0  0  0  0  0  0
   49.2163    8.8662   24.5413 H   0  0  0  0  0  0  0  0  0  0  0  0
   48.8943    2.5519   17.3654 H   0  0  0  0  0  0  0  0  0  0  0  0
   47.4315    3.0727   18.2107 H   0  0  0  0  0  0  0  0  0  0  0  0
   48.8748    2.4976   19.1322 H   0  0  0  0  0  0  0  0  0  0  0  0
   46.7668    8.2064   18.5033 H   0  0  0  0  0  0  0  0  0  0  0  0
   46.9214   10.0646   20.1242 H   0  0  0  0  0  0  0  0  0  0  0  0
   49.8148    6.0586   20.6840 H   0  0  0  0  0  0  0  0  0  0  0  0
   49.9689    7.9081   22.2973 H   0  0  0  0  0  0  0  0  0  0  0  0
   48.7857    4.2490   18.0067 H   0  0  0  0  0  0  0  0  0  0  0  0
   49.3394   10.8882   23.7914 H   0  0  0  0  0  0  0  0  0  0  0  0
 14  7  2  0
 15  8  1  0
 16 11  1  0
 17 15  2  0
 18 13  1  0
  2 19  1  6
 20 13  2  0
 21  9  1  0
  4  7  1  0
 16  9  1  0
  6 10  1  0
 18 12  1  0
 17 14  1  0
 14 22  1  0
 22 23  1  0
  2  1  1  0
  3  1  1  0
  3  4  1  0
  5  1  1  0
  6  2  1  0
  7  5  1  0
  8  5  2  0
  6  9  1  0
 10  8  1  0
  1 11  1  6
 12  2  1  0
 13  3  1  0
 37 30  2  0
 38 31  1  0
 39 34  1  0
 40 38  2  0
 41 36  1  0
 25 42  1  6
 43 36  2  0
 44 32  1  0
 27 30  1  0
 39 32  1  0
 29 33  1  0
 41 35  1  0
 40 37  1  0
 37 45  1  0
 45 46  1  0
 25 24  1  0
 26 24  1  0
 26 27  1  0
 28 24  1  0
 29 25  1  0
 30 28  1  0
 31 28  2  0
 29 32  1  0
 33 31  1  0
 24 34  1  6
 35 25  1  0
 36 26  1  0
 48 49  1  0
 49 56  2  0
 50 47  1  0
 51 48  2  0
 52 47  2  0
 53 50  1  0
 54 53  2  0
 55 50  2  0
 56 55  1  0
 57 47  1  0
 58 48  1  0
 49 54  1  0
  3 59  1  6
  6 60  1  1
 10 61  1  0
 10 62  1  0
 11 63  1  0
 11 64  1  0
 12 65  1  0
 12 66  1  0
 15 67  1  0
 16 68  1  0
 16 69  1  0
 17 70  1  0
 18 71  1  0
 18 72  1  0
 19 73  1  0
 21 74  1  0
 21 75  1  0
 21 76  1  0
 23 77  1  0
 23 78  1  0
 23 79  1  0
 26 80  1  6
 29 81  1  1
 33 82  1  0
 33 83  1  0
 34 84  1  0
 34 85  1  0
 35 86  1  0
 35 87  1  0
 38 88  1  0
 39 89  1  0
 39 90  1  0
 40 91  1  0
 41 92  1  0
 41 93  1  0
 42 94  1  0
 44 95  1  0
 44 96  1  0
 44 97  1  0
 46 98  1  0
 46 99  1  0
 46100  1  0
 53101  1  0
 54102  1  0
 55103  1  0
 56104  1  0
 57105  1  0
 58106  1  0
M  END
> <Uni-Dock RESULT> 
ENERGY=   -5.944  LOWER_BOUND=    1.511  UPPER_BOUND=    5.101
INTER + INTRA:          -5.944
INTER:                  -5.944
INTRA:                   0.000
UNBOUND:                 0.000

$$$$

     RDKit          3D

106114  0  0  0  0  0  0  0  0999 V2000
   48.6668    8.9463   12.0668 C   0  0  2  0  0  0  0  0  0  0  0  0
   48.3924   10.4370   11.8329 C   0  0  2  0  0  0  0  0  0  0  0  0
   47.4831    7.9749   11.9763 C   0  0  1  0  0  0  0  0  0  0  0  0
   47.7646    6.8825   12.9080 O   0  0  0  0  0  0  0  0  0  0  0  0
   48.9867    8.7149   13.5024 C   0  0  0  0  0  0  0  0  0  0  0  0
   49.6742   11.2030   12.3167 C   0  0  2  0  0  0  0  0  0  0  0  0
   48.4941    7.4892   13.9081 C   0  0  0  0  0  0  0  0  0  0  0  0
   49.6440    9.5906   14.3429 C   0  0  0  0  0  0  0  0  0  0  0  0
   50.7594   10.8223   11.3566 N   0  0  0  0  0  0  0  0  0  0  0  0
   49.9797   10.9700   13.8385 C   0  0  0  0  0  0  0  0  0  0  0  0
   49.8702    8.4875   11.2081 C   0  0  0  0  0  0  0  0  0  0  0  0
   47.0899   10.9065   12.4888 C   0  0  0  0  0  0  0  0  0  0  0  0
   46.1218    8.6039   12.3291 C   0  0  0  0  0  0  0  0  0  0  0  0
   48.7220    7.0209   15.1874 C   0  0  0  0  0  0  0  0  0  0  0  0
   49.8742    9.1477   15.6437 C   0  0  0  0  0  0  0  0  0  0  0  0
   51.1007    9.3906   11.4031 C   0  0  0  0  0  0  0  0  0  0  0  0
   49.4321    7.8670   16.0556 C   0  0  0  0  0  0  0  0  0  0  0  0
   45.9157   10.0651   12.0013 C   0  0  0  0  0  0  0  0  0  0  0  0
   48.2277   10.6737   10.4188 O   0  0  0  0  0  0  0  0  0  0  0  0
   45.1856    7.9420   12.7847 O   0  0  0  0  0  0  0  0  0  0  0  0
   51.9579   11.6472   11.5033 C   0  0  0  0  0  0  0  0  0  0  0  0
   48.2278    5.7872   15.4886 O   0  0  0  0  0  0  0  0  0  0  0  0
   48.3680    5.3447   16.8308 C   0  0  0  0  0  0  0  0  0  0  0  0
   50.0468    8.7445   13.1307 C   0  0  2  0  0  0  0  0  0  0  0  0
   49.7599    8.4274   14.6037 C   0  0  2  0  0  0  0  0  0  0  0  0
   51.2235    9.6756   12.8114 C   0  0  1  0  0  0  0  0  0  0  0  0
   50.8663   10.4007   11.5917 O   0  0  0  0  0  0  0  0  0  0  0  0
   48.9690    9.6160   12.5865 C   0  0  0  0  0  0  0  0  0  0  0  0
   48.3395    7.7610   14.6435 C   0  0  2  0  0  0  0  0  0  0  0  0
   49.4935   10.5031   11.6661 C   0  0  0  0  0  0  0  0  0  0  0  0
   47.6383    9.5931   12.9532 C   0  0  0  0  0  0  0  0  0  0  0  0
   48.4929    6.4397   13.9544 N   0  0  0  0  0  0  0  0  0  0  0  0
   47.2129    8.7048   14.0932 C   0  0  0  0  0  0  0  0  0  0  0  0
   50.0922    7.4353   12.3061 C   0  0  0  0  0  0  0  0  0  0  0  0
   49.9087    9.6529   15.5109 C   0  0  0  0  0  0  0  0  0  0  0  0
   51.5461   10.6883   13.9268 C   0  0  0  0  0  0  0  0  0  0  0  0
   48.6754   11.3752   10.9747 C   0  0  0  0  0  0  0  0  0  0  0  0
   46.7939   10.4740   12.2811 C   0  0  0  0  0  0  0  0  0  0  0  0
   48.8434    6.5645   12.5294 C   0  0  0  0  0  0  0  0  0  0  0  0
   47.3062   11.3440   11.2881 C   0  0  0  0  0  0  0  0  0  0  0  0
   51.2973   10.2631   15.3558 C   0  0  0  0  0  0  0  0  0  0  0  0
   50.7264    7.4671   15.0799 O   0  0  0  0  0  0  0  0  0  0  0  0
   52.0683   11.7819   13.6968 O   0  0  0  0  0  0  0  0  0  0  0  0
   47.3277    5.5733   14.1286 C   0  0  0  0  0  0  0  0  0  0  0  0
   49.2755   12.1896   10.0618 O   0  0  0  0  0  0  0  0  0  0  0  0
   48.4570   13.1576    9.4218 C   0  0  0  0  0  0  0  0  0  0  0  0
   49.3726   11.8369   11.8180 C   0  0  0  0  0  0  0  0  0  0  0  0
   48.5053    7.1021   15.0039 C   0  0  0  0  0  0  0  0  0  0  0  0
   48.7134    8.2934   14.1451 C   0  0  0  0  0  0  0  0  0  0  0  0
   49.1355   10.5962   12.5959 C   0  0  0  0  0  0  0  0  0  0  0  0
   48.7002    7.0461   16.2037 O   0  0  0  0  0  0  0  0  0  0  0  0
   49.7724   12.8944   12.2680 O   0  0  0  0  0  0  0  0  0  0  0  0
   49.3860   10.6186   13.9739 C   0  0  0  0  0  0  0  0  0  0  0  0
   49.1760    9.4715   14.7454 C   0  0  0  0  0  0  0  0  0  0  0  0
   48.6734    9.4182   11.9948 C   0  0  0  0  0  0  0  0  0  0  0  0
   48.4627    8.2703   12.7670 C   0  0  0  0  0  0  0  0  0  0  0  0
   49.0963   11.6930   10.5102 O   0  0  0  0  0  0  0  0  0  0  0  0
   48.0618    6.0348   14.3169 O   0  0  0  0  0  0  0  0  0  0  0  0
   47.3855    7.5538   10.9688 H   0  0  0  0  0  0  0  0  0  0  0  0
   49.4985   12.2771   12.1665 H   0  0  0  0  0  0  0  0  0  0  0  0
   49.3680   11.6809   14.4096 H   0  0  0  0  0  0  0  0  0  0  0  0
   51.0234   11.2022   14.0717 H   0  0  0  0  0  0  0  0  0  0  0  0
   50.1564    7.4520   11.4355 H   0  0  0  0  0  0  0  0  0  0  0  0
   49.5853    8.4963   10.1478 H   0  0  0  0  0  0  0  0  0  0  0  0
   46.8972   11.9532   12.2231 H   0  0  0  0  0  0  0  0  0  0  0  0
   47.1442   10.8572   13.5817 H   0  0  0  0  0  0  0  0  0  0  0  0
   50.3866    9.7863   16.3600 H   0  0  0  0  0  0  0  0  0  0  0  0
   51.8134    9.1597   10.6013 H   0  0  0  0  0  0  0  0  0  0  0  0
   51.6052    9.1379   12.3438 H   0  0  0  0  0  0  0  0  0  0  0  0
   49.6451    7.5696   17.0782 H   0  0  0  0  0  0  0  0  0  0  0  0
   45.7650   10.1580   10.9208 H   0  0  0  0  0  0  0  0  0  0  0  0
   44.9989   10.4073   12.4944 H   0  0  0  0  0  0  0  0  0  0  0  0
   49.1349   10.8533   10.0856 H   0  0  0  0  0  0  0  0  0  0  0  0
   52.4890   11.4641   12.4427 H   0  0  0  0  0  0  0  0  0  0  0  0
   51.7055   12.7117   11.4481 H   0  0  0  0  0  0  0  0  0  0  0  0
   52.6541   11.4502   10.6804 H   0  0  0  0  0  0  0  0  0  0  0  0
   47.8884    4.3645   16.9125 H   0  0  0  0  0  0  0  0  0  0  0  0
   49.4233    5.2219   17.0965 H   0  0  0  0  0  0  0  0  0  0  0  0
   47.8621    6.0224   17.5267 H   0  0  0  0  0  0  0  0  0  0  0  0
   52.1430    9.1099   12.6210 H   0  0  0  0  0  0  0  0  0  0  0  0
   48.1073    7.5315   15.6925 H   0  0  0  0  0  0  0  0  0  0  0  0
   46.9028    9.3619   14.9164 H   0  0  0  0  0  0  0  0  0  0  0  0
   46.3262    8.1331   13.8023 H   0  0  0  0  0  0  0  0  0  0  0  0
   50.9840    6.8593   12.5865 H   0  0  0  0  0  0  0  0  0  0  0  0
   50.1896    7.6387   11.2316 H   0  0  0  0  0  0  0  0  0  0  0  0
   49.1504   10.4134   15.2948 H   0  0  0  0  0  0  0  0  0  0  0  0
   49.7777    9.3564   16.5588 H   0  0  0  0  0  0  0  0  0  0  0  0
   45.7332   10.5101   12.5204 H   0  0  0  0  0  0  0  0  0  0  0  0
   48.0007    6.9637   11.9516 H   0  0  0  0  0  0  0  0  0  0  0  0
   49.0535    5.5692   12.1178 H   0  0  0  0  0  0  0  0  0  0  0  0
   46.6021   12.0043   10.7904 H   0  0  0  0  0  0  0  0  0  0  0  0
   52.0876    9.5649   15.6505 H   0  0  0  0  0  0  0  0  0  0  0  0
   51.3768   11.1451   16.0014 H   0  0  0  0  0  0  0  0  0  0  0  0
   50.3293    6.5901   14.8821 H   0  0  0  0  0  0  0  0  0  0  0  0
   47.0771    5.4681   15.1897 H   0  0  0  0  0  0  0  0  0  0  0  0
   47.5493    4.5655   13.7601 H   0  0  0  0  0  0  0  0  0  0  0  0
   46.4431    5.9375   13.5970 H   0  0  0  0  0  0  0  0  0  0  0  0
   49.0943   13.7485    8.7568 H   0  0  0  0  0  0  0  0  0  0  0  0
   48.0097   13.8426   10.1498 H   0  0  0  0  0  0  0  0  0  0  0  0
   47.6883   12.6782    8.8067 H   0  0  0  0  0  0  0  0  0  0  0  0
   49.7456   11.5281   14.4524 H   0  0  0  0  0  0  0  0  0  0  0  0
   49.3738    9.5014   15.8157 H   0  0  0  0  0  0  0  0  0  0  0  0
   48.4731    9.3821   10.9262 H   0  0  0  0  0  0  0  0  0  0  0  0
   48.1032    7.3649   12.2830 H   0  0  0  0  0  0  0  0  0  0  0  0
   49.2947   12.5746   10.1298 H   0  0  0  0  0  0  0  0  0  0  0  0
   47.9721    5.3370   14.9996 H   0  0  0  0  0  0  0  0  0  0  0  0
 14  7  2  0
 15  8  1  0
 16 11  1  0
 17 15  2  0
 18 13  1  0
  2 19  1  6
 20 13  2  0
 21  9  1  0
  4  7  1  0
 16  9  1  0
  6 10  1  0
 18 12  1  0
 17 14  1  0
 14 22  1  0
 22 23  1  0
  2  1  1  0
  3  1  1  0
  3  4  1  0
  5  1  1  0
  6  2  1  0
  7  5  1  0
  8  5  2  0
  6  9  1  0
 10  8  1  0
  1 11  1  6
 12  2  1  0
 13  3  1  0
 37 30  2  0
 38 31  1  0
 39 34  1  0
 40 38  2  0
 41 36  1  0
 25 42  1  6
 43 36  2  0
 44 32  1  0
 27 30  1  0
 39 32  1  0
 29 33  1  0
 41 35  1  0
 40 37  1  0
 37 45  1  0
 45 46  1  0
 25 24  1  0
 26 24  1  0
 26 27  1  0
 28 24  1  0
 29 25  1  0
 30 28  1  0
 31 28  2  0
 29 32  1  0
 33 31  1  0
 24 34  1  6
 35 25  1  0
 36 26  1  0
 48 49  1  0
 49 56  2  0
 50 47  1  0
 51 48  2  0
 52 47  2  0
 53 50  1  0
 54 53  2  0
 55 50  2  0
 56 55  1  0
 57 47  1  0
 58 48  1  0
 49 54  1  0
  3 59  1  6
  6 60  1  1
 10 61  1  0
 10 62  1  0
 11 63  1  0
 11 64  1  0
 12 65  1  0
 12 66  1  0
 15 67  1  0
 16 68  1  0
 16 69  1  0
 17 70  1  0
 18 71  1  0
 18 72  1  0
 19 73  1  0
 21 74  1  0
 21 75  1  0
 21 76  1  0
 23 77  1  0
 23 78  1  0
 23 79  1  0
 26 80  1  6
 29 81  1  1
 33 82  1  0
 33 83  1  0
 34 84  1  0
 34 85  1  0
 35 86  1  0
 35 87  1  0
 38 88  1  0
 39 89  1  0
 39 90  1  0
 40 91  1  0
 41 92  1  0
 41 93  1  0
 42 94  1  0
 44 95  1  0
 44 96  1  0
 44 97  1  0
 46 98  1  0
 46 99  1  0
 46100  1  0
 53101  1  0
 54102  1  0
 55103  1  0
 56104  1  0
 57105  1  0
 58106  1  0
M  END
> <Uni-Dock RESULT> 
ENERGY=   -5.696  LOWER_BOUND=    4.045  UPPER_BOUND=    7.911
INTER + INTRA:          -5.696
INTER:                  -5.696
INTRA:                   0.000
UNBOUND:                 0.000

$$$$

     RDKit          3D

106114  0  0  0  0  0  0  0  0999 V2000
   55.1944    8.1835    9.9744 C   0  0  2  0  0  0  0  0  0  0  0  0
   54.8902    7.2708   11.1688 C   0  0  2  0  0  0  0  0  0  0  0  0
   54.8010    9.6622   10.0815 C   0  0  1  0  0  0  0  0  0  0  0  0
   54.4712   10.1079    8.7274 O   0  0  0  0  0  0  0  0  0  0  0  0
   54.2986    7.8356    8.8371 C   0  0  0  0  0  0  0  0  0  0  0  0
   55.0756    5.7983   10.6577 C   0  0  2  0  0  0  0  0  0  0  0  0
   53.9680    8.9737    8.1265 C   0  0  0  0  0  0  0  0  0  0  0  0
   53.8198    6.5776    8.5311 C   0  0  0  0  0  0  0  0  0  0  0  0
   56.5399    5.6481   10.3795 N   0  0  0  0  0  0  0  0  0  0  0  0
   54.1040    5.4407    9.4780 C   0  0  0  0  0  0  0  0  0  0  0  0
   56.6641    7.9975    9.5257 C   0  0  0  0  0  0  0  0  0  0  0  0
   53.5208    7.5553   11.7942 C   0  0  0  0  0  0  0  0  0  0  0  0
   53.6013    9.9308   11.0098 C   0  0  0  0  0  0  0  0  0  0  0  0
   53.1951    8.8978    6.9843 C   0  0  0  0  0  0  0  0  0  0  0  0
   53.0257    6.4760    7.3909 C   0  0  0  0  0  0  0  0  0  0  0  0
   57.0171    6.5183    9.2916 C   0  0  0  0  0  0  0  0  0  0  0  0
   52.7314    7.6239    6.6155 C   0  0  0  0  0  0  0  0  0  0  0  0
   53.4168    9.0206   12.2025 C   0  0  0  0  0  0  0  0  0  0  0  0
   55.8569    7.5152   12.2120 O   0  0  0  0  0  0  0  0  0  0  0  0
   52.8513   10.8986   10.8580 O   0  0  0  0  0  0  0  0  0  0  0  0
   56.9300    4.2588   10.1427 C   0  0  0  0  0  0  0  0  0  0  0  0
   52.9476   10.0670    6.3294 O   0  0  0  0  0  0  0  0  0  0  0  0
   52.0690   10.0102    5.2150 C   0  0  0  0  0  0  0  0  0  0  0  0
   55.1940    7.2539    8.4868 C   0  0  2  0  0  0  0  0  0  0  0  0
   53.9391    7.3315    7.6082 C   0  0  2  0  0  0  0  0  0  0  0  0
   55.9150    5.9040    8.5932 C   0  0  1  0  0  0  0  0  0  0  0  0
   56.5097    5.8497    9.9291 O   0  0  0  0  0  0  0  0  0  0  0  0
   54.8099    7.3715    9.9206 C   0  0  0  0  0  0  0  0  0  0  0  0
   53.2395    8.6925    7.9568 C   0  0  2  0  0  0  0  0  0  0  0  0
   55.6396    6.5893   10.7013 C   0  0  0  0  0  0  0  0  0  0  0  0
   53.7615    8.1138   10.4261 C   0  0  0  0  0  0  0  0  0  0  0  0
   54.1637    9.7617    7.4598 N   0  0  0  0  0  0  0  0  0  0  0  0
   52.8162    8.7862    9.4650 C   0  0  0  0  0  0  0  0  0  0  0  0
   56.1602    8.4106    8.1338 C   0  0  0  0  0  0  0  0  0  0  0  0
   53.0380    6.1015    7.7564 C   0  0  0  0  0  0  0  0  0  0  0  0
   54.9971    4.6823    8.3972 C   0  0  0  0  0  0  0  0  0  0  0  0
   55.5205    6.5823   12.0773 C   0  0  0  0  0  0  0  0  0  0  0  0
   53.6103    8.1117   11.8111 C   0  0  0  0  0  0  0  0  0  0  0  0
   55.4600    9.7805    8.1586 C   0  0  0  0  0  0  0  0  0  0  0  0
   54.4938    7.3666   12.6293 C   0  0  0  0  0  0  0  0  0  0  0  0
   53.8227    4.8291    7.4569 C   0  0  0  0  0  0  0  0  0  0  0  0
   54.3325    7.3647    6.2200 O   0  0  0  0  0  0  0  0  0  0  0  0
   55.2356    3.5863    8.9105 O   0  0  0  0  0  0  0  0  0  0  0  0
   53.5492   11.0886    7.4695 C   0  0  0  0  0  0  0  0  0  0  0  0
   56.4039    5.8078   12.7678 O   0  0  0  0  0  0  0  0  0  0  0  0
   56.2229    5.7164   14.1733 C   0  0  0  0  0  0  0  0  0  0  0  0
   55.1544    5.6142   11.4952 C   0  0  0  0  0  0  0  0  0  0  0  0
   53.1971    9.0099    7.2575 C   0  0  0  0  0  0  0  0  0  0  0  0
   53.7288    8.1748    8.3620 C   0  0  0  0  0  0  0  0  0  0  0  0
   54.6808    6.5230   10.4227 C   0  0  0  0  0  0  0  0  0  0  0  0
   52.3763    8.6588    6.4306 O   0  0  0  0  0  0  0  0  0  0  0  0
   54.7950    4.4641   11.6646 O   0  0  0  0  0  0  0  0  0  0  0  0
   53.7342    6.0377    9.5113 C   0  0  0  0  0  0  0  0  0  0  0  0
   53.2603    6.8604    8.4848 C   0  0  0  0  0  0  0  0  0  0  0  0
   55.1501    7.8373   10.3001 C   0  0  0  0  0  0  0  0  0  0  0  0
   54.6754    8.6608    9.2731 C   0  0  0  0  0  0  0  0  0  0  0  0
   56.0578    6.1915   12.3064 O   0  0  0  0  0  0  0  0  0  0  0  0
   53.7203   10.2483    7.2414 O   0  0  0  0  0  0  0  0  0  0  0  0
   55.6321   10.2727   10.4538 H   0  0  0  0  0  0  0  0  0  0  0  0
   54.8545    5.1231   11.4958 H   0  0  0  0  0  0  0  0  0  0  0  0
   53.1448    5.1412    9.9208 H   0  0  0  0  0  0  0  0  0  0  0  0
   54.4685    4.5762    8.9146 H   0  0  0  0  0  0  0  0  0  0  0  0
   56.8792    8.5585    8.6066 H   0  0  0  0  0  0  0  0  0  0  0  0
   57.3337    8.4072   10.2934 H   0  0  0  0  0  0  0  0  0  0  0  0
   53.3871    6.9378   12.6909 H   0  0  0  0  0  0  0  0  0  0  0  0
   52.7020    7.3091   11.1096 H   0  0  0  0  0  0  0  0  0  0  0  0
   52.6141    5.5148    7.0907 H   0  0  0  0  0  0  0  0  0  0  0  0
   58.1095    6.4443    9.2185 H   0  0  0  0  0  0  0  0  0  0  0  0
   56.6221    6.1879    8.3230 H   0  0  0  0  0  0  0  0  0  0  0  0
   52.1142    7.4859    5.7326 H   0  0  0  0  0  0  0  0  0  0  0  0
   54.1608    9.2893   12.9595 H   0  0  0  0  0  0  0  0  0  0  0  0
   52.4256    9.2047   12.6318 H   0  0  0  0  0  0  0  0  0  0  0  0
   56.6008    6.9037   12.0151 H   0  0  0  0  0  0  0  0  0  0  0  0
   56.5358    3.8596    9.2028 H   0  0  0  0  0  0  0  0  0  0  0  0
   56.5922    3.6158   10.9627 H   0  0  0  0  0  0  0  0  0  0  0  0
   58.0221    4.1740   10.1114 H   0  0  0  0  0  0  0  0  0  0  0  0
   51.9466   11.0282    4.8325 H   0  0  0  0  0  0  0  0  0  0  0  0
   52.4934    9.4011    4.4099 H   0  0  0  0  0  0  0  0  0  0  0  0
   51.0797    9.6432    5.5082 H   0  0  0  0  0  0  0  0  0  0  0  0
   56.7190    5.8186    7.8528 H   0  0  0  0  0  0  0  0  0  0  0  0
   52.3306    8.7676    7.3442 H   0  0  0  0  0  0  0  0  0  0  0  0
   51.8437    8.2865    9.5656 H   0  0  0  0  0  0  0  0  0  0  0  0
   52.6627    9.8266    9.7680 H   0  0  0  0  0  0  0  0  0  0  0  0
   56.5796    8.2419    7.1331 H   0  0  0  0  0  0  0  0  0  0  0  0
   57.0175    8.4431    8.8190 H   0  0  0  0  0  0  0  0  0  0  0  0
   52.6038    6.0340    8.7599 H   0  0  0  0  0  0  0  0  0  0  0  0
   52.2030    6.1662    7.0481 H   0  0  0  0  0  0  0  0  0  0  0  0
   52.8042    8.6742   12.2774 H   0  0  0  0  0  0  0  0  0  0  0  0
   55.3423   10.1218    9.1945 H   0  0  0  0  0  0  0  0  0  0  0  0
   56.1258   10.5037    7.6710 H   0  0  0  0  0  0  0  0  0  0  0  0
   54.3348    7.4069   13.7029 H   0  0  0  0  0  0  0  0  0  0  0  0
   54.1996    4.8117    6.4291 H   0  0  0  0  0  0  0  0  0  0  0  0
   53.1641    3.9623    7.5829 H   0  0  0  0  0  0  0  0  0  0  0  0
   54.4547    8.3181    6.0151 H   0  0  0  0  0  0  0  0  0  0  0  0
   52.5926   11.0777    6.9360 H   0  0  0  0  0  0  0  0  0  0  0  0
   54.1905   11.8045    6.9433 H   0  0  0  0  0  0  0  0  0  0  0  0
   53.3788   11.4715    8.4805 H   0  0  0  0  0  0  0  0  0  0  0  0
   56.9818    5.0322   14.5651 H   0  0  0  0  0  0  0  0  0  0  0  0
   55.2404    5.3007   14.4205 H   0  0  0  0  0  0  0  0  0  0  0  0
   56.3721    6.6892   14.6534 H   0  0  0  0  0  0  0  0  0  0  0  0
   53.3620    5.0180    9.5961 H   0  0  0  0  0  0  0  0  0  0  0  0
   52.5241    6.4719    7.7827 H   0  0  0  0  0  0  0  0  0  0  0  0
   55.8848    8.2315   10.9987 H   0  0  0  0  0  0  0  0  0  0  0  0
   55.0511    9.6786    9.1939 H   0  0  0  0  0  0  0  0  0  0  0  0
   56.2759    5.4879   12.9536 H   0  0  0  0  0  0  0  0  0  0  0  0
   53.2857   10.6768    6.4741 H   0  0  0  0  0  0  0  0  0  0  0  0
 14  7  2  0
 15  8  1  0
 16 11  1  0
 17 15  2  0
 18 13  1  0
  2 19  1  6
 20 13  2  0
 21  9  1  0
  4  7  1  0
 16  9  1  0
  6 10  1  0
 18 12  1  0
 17 14  1  0
 14 22  1  0
 22 23  1  0
  2  1  1  0
  3  1  1  0
  3  4  1  0
  5  1  1  0
  6  2  1  0
  7  5  1  0
  8  5  2  0
  6  9  1  0
 10  8  1  0
  1 11  1  6
 12  2  1  0
 13  3  1  0
 37 30  2  0
 38 31  1  0
 39 34  1  0
 40 38  2  0
 41 36  1  0
 25 42  1  6
 43 36  2  0
 44 32  1  0
 27 30  1  0
 39 32  1  0
 29 33  1  0
 41 35  1  0
 40 37  1  0
 37 45  1  0
 45 46  1  0
 25 24  1  0
 26 24  1  0
 26 27  1  0
 28 24  1  0
 29 25  1  0
 30 28  1  0
 31 28  2  0
 29 32  1  0
 33 31  1  0
 24 34  1  6
 35 25  1  0
 36 26  1  0
 48 49  1  0
 49 56  2  0
 50 47  1  0
 51 48  2  0
 52 47  2  0
 53 50  1  0
 54 53  2  0
 55 50  2  0
 56 55  1  0
 57 47  1  0
 58 48  1  0
 49 54  1  0
  3 59  1  6
  6 60  1  1
 10 61  1  0
 10 62  1  0
 11 63  1  0
 11 64  1  0
 12 65  1  0
 12 66  1  0
 15 67  1  0
 16 68  1  0
 16 69  1  0
 17 70  1  0
 18 71  1  0
 18 72  1  0
 19 73  1  0
 21 74  1  0
 21 75  1  0
 21 76  1  0
 23 77  1  0
 23 78  1  0
 23 79  1  0
 26 80  1  6
 29 81  1  1
 33 82  1  0
 33 83  1  0
 34 84  1  0
 34 85  1  0
 35 86  1  0
 35 87  1  0
 38 88  1  0
 39 89  1  0
 39 90  1  0
 40 91  1  0
 41 92  1  0
 41 93  1  0
 42 94  1  0
 44 95  1  0
 44 96  1  0
 44 97  1  0
 46 98  1  0
 46 99  1  0
 46100  1  0
 53101  1  0
 54102  1  0
 55103  1  0
 56104  1  0
 57105  1  0
 58106  1  0
M  END
> <Uni-Dock RESULT> 
ENERGY=   -5.621  LOWER_BOUND=    9.199  UPPER_BOUND=   11.513
INTER + INTRA:          -5.621
INTER:                  -5.621
INTRA:                   0.000
UNBOUND:                 0.000

$$$$

     RDKit          3D

106114  0  0  0  0  0  0  0  0999 V2000
   48.0673   11.6341   20.9216 C   0  0  2  0  0  0  0  0  0  0  0  0
   49.1902   12.6309   20.6095 C   0  0  2  0  0  0  0  0  0  0  0  0
   47.9970   11.0515   22.3389 C   0  0  1  0  0  0  0  0  0  0  0  0
   47.4464    9.7020   22.2110 O   0  0  0  0  0  0  0  0  0  0  0  0
   48.3219   10.3527   20.2073 C   0  0  0  0  0  0  0  0  0  0  0  0
   49.2228   12.7843   19.0477 C   0  0  2  0  0  0  0  0  0  0  0  0
   47.8897    9.2870   20.9733 C   0  0  0  0  0  0  0  0  0  0  0  0
   48.9315   10.2121   18.9769 C   0  0  0  0  0  0  0  0  0  0  0  0
   47.9421   13.4698   18.6818 N   0  0  0  0  0  0  0  0  0  0  0  0
   49.5203   11.4296   18.3130 C   0  0  0  0  0  0  0  0  0  0  0  0
   46.7067   12.2040   20.4525 C   0  0  0  0  0  0  0  0  0  0  0  0
   50.5293   12.2245   21.2330 C   0  0  0  0  0  0  0  0  0  0  0  0
   49.3566   10.9781   23.0595 C   0  0  0  0  0  0  0  0  0  0  0  0
   47.9609    7.9935   20.4942 C   0  0  0  0  0  0  0  0  0  0  0  0
   49.0286    8.9152   18.4769 C   0  0  0  0  0  0  0  0  0  0  0  0
   46.7456   12.6669   18.9857 C   0  0  0  0  0  0  0  0  0  0  0  0
   48.5313    7.8186   19.2222 C   0  0  0  0  0  0  0  0  0  0  0  0
   50.3810   12.0426   22.7395 C   0  0  0  0  0  0  0  0  0  0  0  0
   48.8616   13.9127   21.1856 O   0  0  0  0  0  0  0  0  0  0  0  0
   49.5972   10.1419   23.9342 O   0  0  0  0  0  0  0  0  0  0  0  0
   47.9227   13.9259   17.2925 C   0  0  0  0  0  0  0  0  0  0  0  0
   47.4803    7.0092   21.3048 O   0  0  0  0  0  0  0  0  0  0  0  0
   47.6454    5.6696   20.8629 C   0  0  0  0  0  0  0  0  0  0  0  0
   47.5944   10.7794   19.4647 C   0  0  2  0  0  0  0  0  0  0  0  0
   48.1429    9.3601   19.2713 C   0  0  2  0  0  0  0  0  0  0  0  0
   47.4688   11.6767   18.2267 C   0  0  1  0  0  0  0  0  0  0  0  0
   47.6786   13.0515   18.6814 O   0  0  0  0  0  0  0  0  0  0  0  0
   48.5944   11.6083   20.1926 C   0  0  0  0  0  0  0  0  0  0  0  0
   48.4777    8.8170   20.7053 C   0  0  2  0  0  0  0  0  0  0  0  0
   48.5515   12.9130   19.7394 C   0  0  0  0  0  0  0  0  0  0  0  0
   49.4761   11.1631   21.1570 C   0  0  0  0  0  0  0  0  0  0  0  0
   47.1585    8.6637   21.3983 N   0  0  0  0  0  0  0  0  0  0  0  0
   49.5543    9.6865   21.4453 C   0  0  0  0  0  0  0  0  0  0  0  0
   46.2877   10.7340   20.2932 C   0  0  0  0  0  0  0  0  0  0  0  0
   49.3154    9.3097   18.2867 C   0  0  0  0  0  0  0  0  0  0  0  0
   48.4785   11.3530   17.1090 C   0  0  0  0  0  0  0  0  0  0  0  0
   49.3451   13.8891   20.3097 C   0  0  0  0  0  0  0  0  0  0  0  0
   50.2988   12.1257   21.7380 C   0  0  0  0  0  0  0  0  0  0  0  0
   46.4568    9.9424   21.6018 C   0  0  0  0  0  0  0  0  0  0  0  0
   50.2202   13.4794   21.3297 C   0  0  0  0  0  0  0  0  0  0  0  0
   48.9100    9.9134   16.9467 C   0  0  0  0  0  0  0  0  0  0  0  0
   47.1132    8.5268   18.6983 O   0  0  0  0  0  0  0  0  0  0  0  0
   48.8729   12.2032   16.3071 O   0  0  0  0  0  0  0  0  0  0  0  0
   47.2635    7.9232   22.6550 C   0  0  0  0  0  0  0  0  0  0  0  0
   49.2110   15.1544   19.8220 O   0  0  0  0  0  0  0  0  0  0  0  0
   50.0949   16.1415   20.3327 C   0  0  0  0  0  0  0  0  0  0  0  0
   49.6372   13.5193   19.2197 C   0  0  0  0  0  0  0  0  0  0  0  0
   48.0638    8.1688   20.7084 C   0  0  0  0  0  0  0  0  0  0  0  0
   48.4415    9.5612   20.3640 C   0  0  0  0  0  0  0  0  0  0  0  0
   49.2067   12.1633   19.6396 C   0  0  0  0  0  0  0  0  0  0  0  0
   48.4154    7.1675   20.1133 O   0  0  0  0  0  0  0  0  0  0  0  0
   50.3582   13.7768   18.2738 O   0  0  0  0  0  0  0  0  0  0  0  0
   49.6577   11.0640   18.8976 C   0  0  0  0  0  0  0  0  0  0  0  0
   49.2763    9.7681   19.2584 C   0  0  0  0  0  0  0  0  0  0  0  0
   48.3713   11.9571   20.7452 C   0  0  0  0  0  0  0  0  0  0  0  0
   47.9900   10.6600   21.1065 C   0  0  0  0  0  0  0  0  0  0  0  0
   49.1430   14.4904   20.0072 O   0  0  0  0  0  0  0  0  0  0  0  0
   47.2614    8.0970   21.7848 O   0  0  0  0  0  0  0  0  0  0  0  0
   47.3297   11.6380   22.9813 H   0  0  0  0  0  0  0  0  0  0  0  0
   50.0273   13.4896   18.7977 H   0  0  0  0  0  0  0  0  0  0  0  0
   50.6100   11.2952   18.2990 H   0  0  0  0  0  0  0  0  0  0  0  0
   49.1995   11.4688   17.2674 H   0  0  0  0  0  0  0  0  0  0  0  0
   45.9003   11.4674   20.5659 H   0  0  0  0  0  0  0  0  0  0  0  0
   46.4299   13.0553   21.0884 H   0  0  0  0  0  0  0  0  0  0  0  0
   51.2755   13.0081   21.0527 H   0  0  0  0  0  0  0  0  0  0  0  0
   50.9198   11.3012   20.7915 H   0  0  0  0  0  0  0  0  0  0  0  0
   49.4978    8.7307   17.5130 H   0  0  0  0  0  0  0  0  0  0  0  0
   45.8467   13.2690   18.8027 H   0  0  0  0  0  0  0  0  0  0  0  0
   46.6749   11.7998   18.3174 H   0  0  0  0  0  0  0  0  0  0  0  0
   48.6261    6.8306   18.7815 H   0  0  0  0  0  0  0  0  0  0  0  0
   50.0809   12.9705   23.2371 H   0  0  0  0  0  0  0  0  0  0  0  0
   51.3450   11.7371   23.1614 H   0  0  0  0  0  0  0  0  0  0  0  0
   48.3432   14.3762   20.4910 H   0  0  0  0  0  0  0  0  0  0  0  0
   47.8864   13.1013   16.5737 H   0  0  0  0  0  0  0  0  0  0  0  0
   48.8029   14.5400   17.0734 H   0  0  0  0  0  0  0  0  0  0  0  0
   47.0484   14.5627   17.1170 H   0  0  0  0  0  0  0  0  0  0  0  0
   47.2464    5.0091   21.6388 H   0  0  0  0  0  0  0  0  0  0  0  0
   47.0776    5.4853   19.9448 H   0  0  0  0  0  0  0  0  0  0  0  0
   48.7042    5.4240   20.7282 H   0  0  0  0  0  0  0  0  0  0  0  0
   46.4695   11.6083   17.7809 H   0  0  0  0  0  0  0  0  0  0  0  0
   48.8814    7.8015   20.5922 H   0  0  0  0  0  0  0  0  0  0  0  0
   50.5419    9.3437   21.1095 H   0  0  0  0  0  0  0  0  0  0  0  0
   49.5201    9.5210   22.5266 H   0  0  0  0  0  0  0  0  0  0  0  0
   45.4931   10.2690   19.6946 H   0  0  0  0  0  0  0  0  0  0  0  0
   45.9302   11.7429   20.5380 H   0  0  0  0  0  0  0  0  0  0  0  0
   50.1940    9.8376   18.6732 H   0  0  0  0  0  0  0  0  0  0  0  0
   49.6140    8.2677   18.1189 H   0  0  0  0  0  0  0  0  0  0  0  0
   51.0184   11.8447   22.5041 H   0  0  0  0  0  0  0  0  0  0  0  0
   46.9731   10.5589   22.3479 H   0  0  0  0  0  0  0  0  0  0  0  0
   45.4549    9.7476   22.0050 H   0  0  0  0  0  0  0  0  0  0  0  0
   50.8792   14.1889   21.8213 H   0  0  0  0  0  0  0  0  0  0  0  0
   48.0909    9.3587   16.4776 H   0  0  0  0  0  0  0  0  0  0  0  0
   49.7663    9.8805   16.2635 H   0  0  0  0  0  0  0  0  0  0  0  0
   46.6253    8.1623   19.4696 H   0  0  0  0  0  0  0  0  0  0  0  0
   47.7714    6.9652   22.5001 H   0  0  0  0  0  0  0  0  0  0  0  0
   46.2642    7.6871   23.0375 H   0  0  0  0  0  0  0  0  0  0  0  0
   47.7975    8.4780   23.4327 H   0  0  0  0  0  0  0  0  0  0  0  0
   49.8834   17.0815   19.8137 H   0  0  0  0  0  0  0  0  0  0  0  0
   51.1395   15.8793   20.1344 H   0  0  0  0  0  0  0  0  0  0  0  0
   49.9254   16.3063   21.4019 H   0  0  0  0  0  0  0  0  0  0  0  0
   50.3071   11.2116   18.0362 H   0  0  0  0  0  0  0  0  0  0  0  0
   49.6337    8.9216   18.6741 H   0  0  0  0  0  0  0  0  0  0  0  0
   48.0115   12.7984   21.3333 H   0  0  0  0  0  0  0  0  0  0  0  0
   47.3412   10.5193   21.9682 H   0  0  0  0  0  0  0  0  0  0  0  0
   49.5042   15.3148   19.6183 H   0  0  0  0  0  0  0  0  0  0  0  0
   47.0971    7.1364   21.8915 H   0  0  0  0  0  0  0  0  0  0  0  0
 14  7  2  0
 15  8  1  0
 16 11  1  0
 17 15  2  0
 18 13  1  0
  2 19  1  6
 20 13  2  0
 21  9  1  0
  4  7  1  0
 16  9  1  0
  6 10  1  0
 18 12  1  0
 17 14  1  0
 14 22  1  0
 22 23  1  0
  2  1  1  0
  3  1  1  0
  3  4  1  0
  5  1  1  0
  6  2  1  0
  7  5  1  0
  8  5  2  0
  6  9  1  0
 10  8  1  0
  1 11  1  6
 12  2  1  0
 13  3  1  0
 37 30  2  0
 38 31  1  0
 39 34  1  0
 40 38  2  0
 41 36  1  0
 25 42  1  6
 43 36  2  0
 44 32  1  0
 27 30  1  0
 39 32  1  0
 29 33  1  0
 41 35  1  0
 40 37  1  0
 37 45  1  0
 45 46  1  0
 25 24  1  0
 26 24  1  0
 26 27  1  0
 28 24  1  0
 29 25  1  0
 30 28  1  0
 31 28  2  0
 29 32  1  0
 33 31  1  0
 24 34  1  6
 35 25  1  0
 36 26  1  0
 48 49  1  0
 49 56  2  0
 50 47  1  0
 51 48  2  0
 52 47  2  0
 53 50  1  0
 54 53  2  0
 55 50  2  0
 56 55  1  0
 57 47  1  0
 58 48  1  0
 49 54  1  0
  3 59  1  6
  6 60  1  1
 10 61  1  0
 10 62  1  0
 11 63  1  0
 11 64  1  0
 12 65  1  0
 12 66  1  0
 15 67  1  0
 16 68  1  0
 16 69  1  0
 17 70  1  0
 18 71  1  0
 18 72  1  0
 19 73  1  0
 21 74  1  0
 21 75  1  0
 21 76  1  0
 23 77  1  0
 23 78  1  0
 23 79  1  0
 26 80  1  6
 29 81  1  1
 33 82  1  0
 33 83  1  0
 34 84  1  0
 34 85  1  0
 35 86  1  0
 35 87  1  0
 38 88  1  0
 39 89  1  0
 39 90  1  0
 40 91  1  0
 41 92  1  0
 41 93  1  0
 42 94  1  0
 44 95  1  0
 44 96  1  0
 44 97  1  0
 46 98  1  0
 46 99  1  0
 46100  1  0
 53101  1  0
 54102  1  0
 55103  1  0
 56104  1  0
 57105  1  0
 58106  1  0
M  END
> <Uni-Dock RESULT> 
ENERGY=   -5.485  LOWER_BOUND=    2.631  UPPER_BOUND=    5.724
INTER + INTRA:          -5.485
INTER:                  -5.485
INTRA:                   0.000
UNBOUND:                 0.000

$$$$

     RDKit          3D

106114  0  0  0  0  0  0  0  0999 V2000
   47.6905   10.3710   19.3477 C   0  0  2  0  0  0  0  0  0  0  0  0
   48.1770    8.9317   19.1389 C   0  0  2  0  0  0  0  0  0  0  0  0
   47.5194   11.2586   18.1084 C   0  0  1  0  0  0  0  0  0  0  0  0
   47.8042   12.6299   18.5318 O   0  0  0  0  0  0  0  0  0  0  0  0
   48.7614   11.1719   20.0025 C   0  0  0  0  0  0  0  0  0  0  0  0
   48.5799    8.3918   20.5566 C   0  0  2  0  0  0  0  0  0  0  0  0
   48.7357   12.4723   19.5359 C   0  0  0  0  0  0  0  0  0  0  0  0
   49.6844   10.7062   20.9171 C   0  0  0  0  0  0  0  0  0  0  0  0
   47.3007    8.2923   21.3300 N   0  0  0  0  0  0  0  0  0  0  0  0
   49.7289    9.2309   21.2193 C   0  0  0  0  0  0  0  0  0  0  0  0
   46.4363   10.3805   20.2548 C   0  0  0  0  0  0  0  0  0  0  0  0
   49.2851    8.8310   18.0857 C   0  0  0  0  0  0  0  0  0  0  0  0
   48.4450   10.8883   16.9339 C   0  0  0  0  0  0  0  0  0  0  0  0
   49.5962   13.4258   20.0440 C   0  0  0  0  0  0  0  0  0  0  0  0
   50.5735   11.6456   21.4349 C   0  0  0  0  0  0  0  0  0  0  0  0
   46.6578    9.5969   21.5604 C   0  0  0  0  0  0  0  0  0  0  0  0
   50.5172   12.9966   21.0143 C   0  0  0  0  0  0  0  0  0  0  0  0
   48.8195    9.4336   16.7648 C   0  0  0  0  0  0  0  0  0  0  0  0
   47.0865    8.1291   18.6396 O   0  0  0  0  0  0  0  0  0  0  0  0
   48.8131   11.7154   16.0957 O   0  0  0  0  0  0  0  0  0  0  0  0
   47.4561    7.5605   22.5866 C   0  0  0  0  0  0  0  0  0  0  0  0
   49.4766   14.6897   19.5487 O   0  0  0  0  0  0  0  0  0  0  0  0
   50.4257   15.6495   19.9902 C   0  0  0  0  0  0  0  0  0  0  0  0
   48.1715   10.9486   20.9326 C   0  0  2  0  0  0  0  0  0  0  0  0
   49.3987   11.8660   21.0053 C   0  0  2  0  0  0  0  0  0  0  0  0
   47.9708    9.9256   22.0580 C   0  0  1  0  0  0  0  0  0  0  0  0
   47.3026    8.7692   21.4602 O   0  0  0  0  0  0  0  0  0  0  0  0
   48.3418    9.9708   19.8226 C   0  0  0  0  0  0  0  0  0  0  0  0
   49.5297   12.5408   19.5943 C   0  0  2  0  0  0  0  0  0  0  0  0
   47.7702    8.7597   20.1634 C   0  0  0  0  0  0  0  0  0  0  0  0
   49.0010   10.1961   18.6309 C   0  0  0  0  0  0  0  0  0  0  0  0
   48.3410   13.4434   19.4654 N   0  0  0  0  0  0  0  0  0  0  0  0
   49.7374   11.4966   18.4413 C   0  0  0  0  0  0  0  0  0  0  0  0
   46.8982   11.7874   20.6661 C   0  0  0  0  0  0  0  0  0  0  0  0
   50.6583   11.1304   21.4735 C   0  0  0  0  0  0  0  0  0  0  0  0
   49.2778    9.4639   22.7303 C   0  0  0  0  0  0  0  0  0  0  0  0
   47.7443    7.7096   19.2665 C   0  0  0  0  0  0  0  0  0  0  0  0
   49.0024    9.1471   17.7141 C   0  0  0  0  0  0  0  0  0  0  0  0
   47.0593   12.7181   19.4514 C   0  0  0  0  0  0  0  0  0  0  0  0
   48.3637    7.9217   18.0234 C   0  0  0  0  0  0  0  0  0  0  0  0
   50.4119   10.4594   22.8201 C   0  0  0  0  0  0  0  0  0  0  0  0
   49.1615   12.9000   21.9838 O   0  0  0  0  0  0  0  0  0  0  0  0
   49.3941    8.3560   23.2598 O   0  0  0  0  0  0  0  0  0  0  0  0
   48.4393   14.3463   18.3193 C   0  0  0  0  0  0  0  0  0  0  0  0
   47.1292    6.5649   19.6764 O   0  0  0  0  0  0  0  0  0  0  0  0
   47.1879    5.4495   18.7995 C   0  0  0  0  0  0  0  0  0  0  0  0
   48.4875    7.6189   20.1883 C   0  0  0  0  0  0  0  0  0  0  0  0
   49.5269   13.2833   19.7948 C   0  0  0  0  0  0  0  0  0  0  0  0
   49.2182   11.8345   19.8695 C   0  0  0  0  0  0  0  0  0  0  0  0
   48.7128    9.0796   20.0613 C   0  0  0  0  0  0  0  0  0  0  0  0
   50.4978   13.8308   20.2827 O   0  0  0  0  0  0  0  0  0  0  0  0
   49.2133    6.8341   20.7696 O   0  0  0  0  0  0  0  0  0  0  0  0
   49.8569    9.6289   20.6541 C   0  0  0  0  0  0  0  0  0  0  0  0
   50.1084   11.0011   20.5587 C   0  0  0  0  0  0  0  0  0  0  0  0
   47.8218    9.9127   19.3722 C   0  0  0  0  0  0  0  0  0  0  0  0
   48.0738   11.2859   19.2764 C   0  0  0  0  0  0  0  0  0  0  0  0
   47.3609    7.2104   19.5789 O   0  0  0  0  0  0  0  0  0  0  0  0
   48.6021   13.9791   19.1105 O   0  0  0  0  0  0  0  0  0  0  0  0
   46.4926   11.2207   17.7262 H   0  0  0  0  0  0  0  0  0  0  0  0
   48.9407    7.3615   20.4320 H   0  0  0  0  0  0  0  0  0  0  0  0
   50.6819    8.8495   20.8293 H   0  0  0  0  0  0  0  0  0  0  0  0
   49.7545    9.0787   22.3028 H   0  0  0  0  0  0  0  0  0  0  0  0
   46.1298   11.4040   20.5084 H   0  0  0  0  0  0  0  0  0  0  0  0
   45.5909    9.9378   19.7117 H   0  0  0  0  0  0  0  0  0  0  0  0
   49.5383    7.7777   17.9132 H   0  0  0  0  0  0  0  0  0  0  0  0
   50.2026    9.3328   18.4115 H   0  0  0  0  0  0  0  0  0  0  0  0
   51.3280   11.3481   22.1599 H   0  0  0  0  0  0  0  0  0  0  0  0
   45.6764    9.4423   22.0263 H   0  0  0  0  0  0  0  0  0  0  0  0
   47.2401   10.2022   22.2660 H   0  0  0  0  0  0  0  0  0  0  0  0
   51.2289   13.6878   21.4561 H   0  0  0  0  0  0  0  0  0  0  0  0
   47.9563    8.9010   16.3526 H   0  0  0  0  0  0  0  0  0  0  0  0
   49.6317    9.3654   16.0324 H   0  0  0  0  0  0  0  0  0  0  0  0
   46.6326    7.7918   19.4436 H   0  0  0  0  0  0  0  0  0  0  0  0
   48.0592    8.1011   23.3228 H   0  0  0  0  0  0  0  0  0  0  0  0
   47.9158    6.5818   22.4113 H   0  0  0  0  0  0  0  0  0  0  0  0
   46.4746    7.3670   23.0338 H   0  0  0  0  0  0  0  0  0  0  0  0
   50.2161   16.5907   19.4728 H   0  0  0  0  0  0  0  0  0  0  0  0
   50.3292   15.8324   21.0656 H   0  0  0  0  0  0  0  0  0  0  0  0
   51.4459   15.3467   19.7312 H   0  0  0  0  0  0  0  0  0  0  0  0
   47.3288   10.3236   22.8527 H   0  0  0  0  0  0  0  0  0  0  0  0
   50.4094   13.1984   19.6188 H   0  0  0  0  0  0  0  0  0  0  0  0
   50.8086   11.2586   18.4018 H   0  0  0  0  0  0  0  0  0  0  0  0
   49.4795   11.9264   17.4684 H   0  0  0  0  0  0  0  0  0  0  0  0
   46.6695   12.3935   21.5527 H   0  0  0  0  0  0  0  0  0  0  0  0
   46.0208   11.1478   20.5031 H   0  0  0  0  0  0  0  0  0  0  0  0
   50.9844   10.3789   20.7462 H   0  0  0  0  0  0  0  0  0  0  0  0
   51.4827   11.8445   21.5901 H   0  0  0  0  0  0  0  0  0  0  0  0
   49.5043    9.2553   16.7549 H   0  0  0  0  0  0  0  0  0  0  0  0
   46.9427   12.1454   18.5232 H   0  0  0  0  0  0  0  0  0  0  0  0
   46.2327   13.4396   19.4728 H   0  0  0  0  0  0  0  0  0  0  0  0
   48.3888    7.1406   17.2692 H   0  0  0  0  0  0  0  0  0  0  0  0
   50.1716   11.1861   23.6029 H   0  0  0  0  0  0  0  0  0  0  0  0
   51.3193    9.9279   23.1286 H   0  0  0  0  0  0  0  0  0  0  0  0
   48.7297   13.6271   21.4830 H   0  0  0  0  0  0  0  0  0  0  0  0
   49.3859   14.8970   18.3386 H   0  0  0  0  0  0  0  0  0  0  0  0
   47.6420   15.0967   18.3616 H   0  0  0  0  0  0  0  0  0  0  0  0
   48.3593   13.8263   17.3595 H   0  0  0  0  0  0  0  0  0  0  0  0
   46.6864    4.6101   19.2909 H   0  0  0  0  0  0  0  0  0  0  0  0
   48.2237    5.1513   18.6058 H   0  0  0  0  0  0  0  0  0  0  0  0
   46.6549    5.6548   17.8653 H   0  0  0  0  0  0  0  0  0  0  0  0
   50.5568    8.9917   21.1924 H   0  0  0  0  0  0  0  0  0  0  0  0
   51.0015   11.4162   21.0234 H   0  0  0  0  0  0  0  0  0  0  0  0
   46.9284    9.5040   18.9053 H   0  0  0  0  0  0  0  0  0  0  0  0
   47.3708   11.9170   18.7370 H   0  0  0  0  0  0  0  0  0  0  0  0
   47.3431    6.2436   19.7418 H   0  0  0  0  0  0  0  0  0  0  0  0
   48.9310   14.9021   19.1433 H   0  0  0  0  0  0  0  0  0  0  0  0
 14  7  2  0
 15  8  1  0
 16 11  1  0
 17 15  2  0
 18 13  1  0
  2 19  1  6
 20 13  2  0
 21  9  1  0
  4  7  1  0
 16  9  1  0
  6 10  1  0
 18 12  1  0
 17 14  1  0
 14 22  1  0
 22 23  1  0
  2  1  1  0
  3  1  1  0
  3  4  1  0
  5  1  1  0
  6  2  1  0
  7  5  1  0
  8  5  2  0
  6  9  1  0
 10  8  1  0
  1 11  1  6
 12  2  1  0
 13  3  1  0
 37 30  2  0
 38 31  1  0
 39 34  1  0
 40 38  2  0
 41 36  1  0
 25 42  1  6
 43 36  2  0
 44 32  1  0
 27 30  1  0
 39 32  1  0
 29 33  1  0
 41 35  1  0
 40 37  1  0
 37 45  1  0
 45 46  1  0
 25 24  1  0
 26 24  1  0
 26 27  1  0
 28 24  1  0
 29 25  1  0
 30 28  1  0
 31 28  2  0
 29 32  1  0
 33 31  1  0
 24 34  1  6
 35 25  1  0
 36 26  1  0
 48 49  1  0
 49 56  2  0
 50 47  1  0
 51 48  2  0
 52 47  2  0
 53 50  1  0
 54 53  2  0
 55 50  2  0
 56 55  1  0
 57 47  1  0
 58 48  1  0
 49 54  1  0
  3 59  1  6
  6 60  1  1
 10 61  1  0
 10 62  1  0
 11 63  1  0
 11 64  1  0
 12 65  1  0
 12 66  1  0
 15 67  1  0
 16 68  1  0
 16 69  1  0
 17 70  1  0
 18 71  1  0
 18 72  1  0
 19 73  1  0
 21 74  1  0
 21 75  1  0
 21 76  1  0
 23 77  1  0
 23 78  1  0
 23 79  1  0
 26 80  1  6
 29 81  1  1
 33 82  1  0
 33 83  1  0
 34 84  1  0
 34 85  1  0
 35 86  1  0
 35 87  1  0
 38 88  1  0
 39 89  1  0
 39 90  1  0
 40 91  1  0
 41 92  1  0
 41 93  1  0
 42 94  1  0
 44 95  1  0
 44 96  1  0
 44 97  1  0
 46 98  1  0
 46 99  1  0
 46100  1  0
 53101  1  0
 54102  1  0
 55103  1  0
 56104  1  0
 57105  1  0
 58106  1  0
M  END
> <Uni-Dock RESULT> 
ENERGY=   -5.307  LOWER_BOUND=    2.454  UPPER_BOUND=    5.040
INTER + INTRA:          -5.307
INTER:                  -5.307
INTRA:                   0.000
UNBOUND:                 0.000

$$$$

     RDKit          3D

106114  0  0  0  0  0  0  0  0999 V2000
   49.5233   10.1704   20.7433 C   0  0  2  0  0  0  0  0  0  0  0  0
   48.3664    9.3455   20.1661 C   0  0  2  0  0  0  0  0  0  0  0  0
   49.7323   10.1500   22.2628 C   0  0  1  0  0  0  0  0  0  0  0  0
   50.2814   11.4560   22.6284 O   0  0  0  0  0  0  0  0  0  0  0  0
   49.2149   11.6217   20.6184 C   0  0  0  0  0  0  0  0  0  0  0  0
   48.1854    9.8181   18.6803 C   0  0  2  0  0  0  0  0  0  0  0  0
   49.7276   12.3118   21.7002 C   0  0  0  0  0  0  0  0  0  0  0  0
   48.4936   12.2179   19.6037 C   0  0  0  0  0  0  0  0  0  0  0  0
   49.4194    9.3685   17.9596 N   0  0  0  0  0  0  0  0  0  0  0  0
   47.8332   11.3437   18.5696 C   0  0  0  0  0  0  0  0  0  0  0  0
   50.8281    9.8698   19.9666 C   0  0  0  0  0  0  0  0  0  0  0  0
   47.0959    9.4357   21.0175 C   0  0  0  0  0  0  0  0  0  0  0  0
   48.4474    9.8954   23.0735 C   0  0  0  0  0  0  0  0  0  0  0  0
   49.6241   13.6869   21.7786 C   0  0  0  0  0  0  0  0  0  0  0  0
   48.3624   13.6035   19.6667 C   0  0  0  0  0  0  0  0  0  0  0  0
   50.6468   10.0206   18.4461 C   0  0  0  0  0  0  0  0  0  0  0  0
   48.9381   14.3320   20.7359 C   0  0  0  0  0  0  0  0  0  0  0  0
   47.3872    9.0142   22.4535 C   0  0  0  0  0  0  0  0  0  0  0  0
   48.7354    7.9503   20.1577 O   0  0  0  0  0  0  0  0  0  0  0  0
   48.2983   10.3127   24.2249 O   0  0  0  0  0  0  0  0  0  0  0  0
   49.3035    9.4967   16.5075 C   0  0  0  0  0  0  0  0  0  0  0  0
   50.1884   14.2860   22.8648 O   0  0  0  0  0  0  0  0  0  0  0  0
   49.9953   15.6862   23.0038 C   0  0  0  0  0  0  0  0  0  0  0  0
   49.8652   11.5425   19.7053 C   0  0  2  0  0  0  0  0  0  0  0  0
   49.3146   12.9072   20.1378 C   0  0  2  0  0  0  0  0  0  0  0  0
   49.8650   11.2087   18.2079 C   0  0  1  0  0  0  0  0  0  0  0  0
   49.6857    9.7605   18.1005 O   0  0  0  0  0  0  0  0  0  0  0  0
   48.9302   10.4660   20.1344 C   0  0  0  0  0  0  0  0  0  0  0  0
   49.1215   12.8325   21.6936 C   0  0  2  0  0  0  0  0  0  0  0  0
   48.9176    9.4467   19.2014 C   0  0  0  0  0  0  0  0  0  0  0  0
   48.1475   10.4707   21.2715 C   0  0  0  0  0  0  0  0  0  0  0  0
   50.5015   12.7380   22.2687 N   0  0  0  0  0  0  0  0  0  0  0  0
   48.1110   11.7118   22.1246 C   0  0  0  0  0  0  0  0  0  0  0  0
   51.2444   11.2951   20.3629 C   0  0  0  0  0  0  0  0  0  0  0  0
   48.0551   13.3078   19.3631 C   0  0  0  0  0  0  0  0  0  0  0  0
   48.7577   11.9173   17.4046 C   0  0  0  0  0  0  0  0  0  0  0  0
   48.1718    8.3029   19.4097 C   0  0  0  0  0  0  0  0  0  0  0  0
   47.3739    9.3342   21.4974 C   0  0  0  0  0  0  0  0  0  0  0  0
   51.2069   11.5028   21.8870 C   0  0  0  0  0  0  0  0  0  0  0  0
   47.4007    8.2533   20.5831 C   0  0  0  0  0  0  0  0  0  0  0  0
   48.3267   13.2918   17.8629 C   0  0  0  0  0  0  0  0  0  0  0  0
   50.2937   13.9276   19.8494 O   0  0  0  0  0  0  0  0  0  0  0  0
   48.2813   11.4405   16.3716 O   0  0  0  0  0  0  0  0  0  0  0  0
   50.5225   12.9210   23.7194 C   0  0  0  0  0  0  0  0  0  0  0  0
   48.2473    7.3359   18.4525 O   0  0  0  0  0  0  0  0  0  0  0  0
   47.4059    6.2029   18.6101 C   0  0  0  0  0  0  0  0  0  0  0  0
   47.7820    9.0634   18.5851 C   0  0  0  0  0  0  0  0  0  0  0  0
   49.5402   13.4386   21.9147 C   0  0  0  0  0  0  0  0  0  0  0  0
   49.1183   12.2840   21.0847 C   0  0  0  0  0  0  0  0  0  0  0  0
   48.2632   10.1564   19.4650 C   0  0  0  0  0  0  0  0  0  0  0  0
   49.1437   14.5830   21.7971 O   0  0  0  0  0  0  0  0  0  0  0  0
   46.9727    9.1786   17.6836 O   0  0  0  0  0  0  0  0  0  0  0  0
   47.7550   11.4456   19.2608 C   0  0  0  0  0  0  0  0  0  0  0  0
   48.1811   12.5053   20.0674 C   0  0  0  0  0  0  0  0  0  0  0  0
   49.2009    9.9344   20.4819 C   0  0  0  0  0  0  0  0  0  0  0  0
   49.6270   10.9949   21.2895 C   0  0  0  0  0  0  0  0  0  0  0  0
   48.3387    7.8752   18.8777 O   0  0  0  0  0  0  0  0  0  0  0  0
   50.4409   13.1038   22.8549 O   0  0  0  0  0  0  0  0  0  0  0  0
   50.4515    9.3772   22.5586 H   0  0  0  0  0  0  0  0  0  0  0  0
   47.3542    9.2457   18.2461 H   0  0  0  0  0  0  0  0  0  0  0  0
   46.7483   11.4419   18.7082 H   0  0  0  0  0  0  0  0  0  0  0  0
   48.0537   11.7281   17.5689 H   0  0  0  0  0  0  0  0  0  0  0  0
   51.6487   10.5249   20.2880 H   0  0  0  0  0  0  0  0  0  0  0  0
   51.1553    8.8452   20.1874 H   0  0  0  0  0  0  0  0  0  0  0  0
   46.3286    8.7655   20.6109 H   0  0  0  0  0  0  0  0  0  0  0  0
   46.6745   10.4467   21.0132 H   0  0  0  0  0  0  0  0  0  0  0  0
   47.8062   14.1391   18.9004 H   0  0  0  0  0  0  0  0  0  0  0  0
   51.5187    9.5648   17.9601 H   0  0  0  0  0  0  0  0  0  0  0  0
   50.6626   11.0823   18.1707 H   0  0  0  0  0  0  0  0  0  0  0  0
   48.8118   15.4106   20.7311 H   0  0  0  0  0  0  0  0  0  0  0  0
   47.7239    7.9742   22.5155 H   0  0  0  0  0  0  0  0  0  0  0  0
   46.4701    9.1016   23.0469 H   0  0  0  0  0  0  0  0  0  0  0  0
   49.1817    7.8124   19.2929 H   0  0  0  0  0  0  0  0  0  0  0  0
   49.2799   10.5383   16.1721 H   0  0  0  0  0  0  0  0  0  0  0  0
   48.4007    8.9937   16.1444 H   0  0  0  0  0  0  0  0  0  0  0  0
   50.1512    9.0053   16.0169 H   0  0  0  0  0  0  0  0  0  0  0  0
   50.4719   15.9991   23.9379 H   0  0  0  0  0  0  0  0  0  0  0  0
   50.4759   16.2328   22.1857 H   0  0  0  0  0  0  0  0  0  0  0  0
   48.9309   15.9348   23.0731 H   0  0  0  0  0  0  0  0  0  0  0  0
   50.8184   11.4753   17.7369 H   0  0  0  0  0  0  0  0  0  0  0  0
   48.7188   13.7987   22.0271 H   0  0  0  0  0  0  0  0  0  0  0  0
   47.0996   12.1310   22.0419 H   0  0  0  0  0  0  0  0  0  0  0  0
   48.2485   11.4394   23.1756 H   0  0  0  0  0  0  0  0  0  0  0  0
   51.9835   11.9804   19.9271 H   0  0  0  0  0  0  0  0  0  0  0  0
   51.6137   10.2819   20.1565 H   0  0  0  0  0  0  0  0  0  0  0  0
   47.2117   12.6457   19.5877 H   0  0  0  0  0  0  0  0  0  0  0  0
   47.7521   14.3229   19.6476 H   0  0  0  0  0  0  0  0  0  0  0  0
   46.7324    9.2706   22.3738 H   0  0  0  0  0  0  0  0  0  0  0  0
   50.7572   10.6281   22.3728 H   0  0  0  0  0  0  0  0  0  0  0  0
   52.2441   11.5515   22.2421 H   0  0  0  0  0  0  0  0  0  0  0  0
   46.7840    7.3892   20.8124 H   0  0  0  0  0  0  0  0  0  0  0  0
   49.1033   14.0093   17.5788 H   0  0  0  0  0  0  0  0  0  0  0  0
   47.4103   13.5666   17.3285 H   0  0  0  0  0  0  0  0  0  0  0  0
   50.8556   13.9728   20.6545 H   0  0  0  0  0  0  0  0  0  0  0  0
   50.0115   13.8478   24.0015 H   0  0  0  0  0  0  0  0  0  0  0  0
   51.5556   13.0157   24.0721 H   0  0  0  0  0  0  0  0  0  0  0  0
   50.0587   12.0900   24.2600 H   0  0  0  0  0  0  0  0  0  0  0  0
   47.5584    5.5494   17.7456 H   0  0  0  0  0  0  0  0  0  0  0  0
   46.3498    6.4923   18.6264 H   0  0  0  0  0  0  0  0  0  0  0  0
   47.6737    5.6356   19.5075 H   0  0  0  0  0  0  0  0  0  0  0  0
   47.0259   11.6306   18.4735 H   0  0  0  0  0  0  0  0  0  0  0  0
   47.7785   13.5029   19.8992 H   0  0  0  0  0  0  0  0  0  0  0  0
   49.6063    8.9401   20.6555 H   0  0  0  0  0  0  0  0  0  0  0  0
   50.3554   10.8035   22.0744 H   0  0  0  0  0  0  0  0  0  0  0  0
   47.9346    7.2604   18.2294 H   0  0  0  0  0  0  0  0  0  0  0  0
   50.6238   13.9491   23.3165 H   0  0  0  0  0  0  0  0  0  0  0  0
 14  7  2  0
 15  8  1  0
 16 11  1  0
 17 15  2  0
 18 13  1  0
  2 19  1  6
 20 13  2  0
 21  9  1  0
  4  7  1  0
 16  9  1  0
  6 10  1  0
 18 12  1  0
 17 14  1  0
 14 22  1  0
 22 23  1  0
  2  1  1  0
  3  1  1  0
  3  4  1  0
  5  1  1  0
  6  2  1  0
  7  5  1  0
  8  5  2  0
  6  9  1  0
 10  8  1  0
  1 11  1  6
 12  2  1  0
 13  3  1  0
 37 30  2  0
 38 31  1  0
 39 34  1  0
 40 38  2  0
 41 36  1  0
 25 42  1  6
 43 36  2  0
 44 32  1  0
 27 30  1  0
 39 32  1  0
 29 33  1  0
 41 35  1  0
 40 37  1  0
 37 45  1  0
 45 46  1  0
 25 24  1  0
 26 24  1  0
 26 27  1  0
 28 24  1  0
 29 25  1  0
 30 28  1  0
 31 28  2  0
 29 32  1  0
 33 31  1  0
 24 34  1  6
 35 25  1  0
 36 26  1  0
 48 49  1  0
 49 56  2  0
 50 47  1  0
 51 48  2  0
 52 47  2  0
 53 50  1  0
 54 53  2  0
 55 50  2  0
 56 55  1  0
 57 47  1  0
 58 48  1  0
 49 54  1  0
  3 59  1  6
  6 60  1  1
 10 61  1  0
 10 62  1  0
 11 63  1  0
 11 64  1  0
 12 65  1  0
 12 66  1  0
 15 67  1  0
 16 68  1  0
 16 69  1  0
 17 70  1  0
 18 71  1  0
 18 72  1  0
 19 73  1  0
 21 74  1  0
 21 75  1  0
 21 76  1  0
 23 77  1  0
 23 78  1  0
 23 79  1  0
 26 80  1  6
 29 81  1  1
 33 82  1  0
 33 83  1  0
 34 84  1  0
 34 85  1  0
 35 86  1  0
 35 87  1  0
 38 88  1  0
 39 89  1  0
 39 90  1  0
 40 91  1  0
 41 92  1  0
 41 93  1  0
 42 94  1  0
 44 95  1  0
 44 96  1  0
 44 97  1  0
 46 98  1  0
 46 99  1  0
 46100  1  0
 53101  1  0
 54102  1  0
 55103  1  0
 56104  1  0
 57105  1  0
 58106  1  0
M  END
> <Uni-Dock RESULT> 
ENERGY=   -5.235  LOWER_BOUND=    2.889  UPPER_BOUND=    5.994
INTER + INTRA:          -5.235
INTER:                  -5.235
INTRA:                   0.000
UNBOUND:                 0.000

$$$$
