
     RDKit          3D

106114  0  0  0  0  0  0  0  0999 V2000
   49.8303    5.2752   20.1507 C   0  0  2  0  0  0  0  0  0  0  0  0
   49.1976    6.4483   19.3918 C   0  0  2  0  0  0  0  0  0  0  0  0
   50.4141    5.5514   21.5419 C   0  0  1  0  0  0  0  0  0  0  0  0
   51.5382    4.6307   21.7160 O   0  0  0  0  0  0  0  0  0  0  0  0
   51.1050    4.8805   19.4901 C   0  0  0  0  0  0  0  0  0  0  0  0
   49.0072    5.9653   17.9108 C   0  0  2  0  0  0  0  0  0  0  0  0
   52.0230    4.4653   20.4360 C   0  0  0  0  0  0  0  0  0  0  0  0
   51.3762    4.9450   18.1382 C   0  0  0  0  0  0  0  0  0  0  0  0
   47.9626    4.8931   17.9671 N   0  0  0  0  0  0  0  0  0  0  0  0
   50.3630    5.5792   17.2213 C   0  0  0  0  0  0  0  0  0  0  0  0
   48.8705    4.0609   20.1462 C   0  0  0  0  0  0  0  0  0  0  0  0
   50.0005    7.7451   19.5346 C   0  0  0  0  0  0  0  0  0  0  0  0
   50.9086    6.9962   21.7431 C   0  0  0  0  0  0  0  0  0  0  0  0
   53.2659    3.9943   20.0602 C   0  0  0  0  0  0  0  0  0  0  0  0
   52.6275    4.4848   17.7341 C   0  0  0  0  0  0  0  0  0  0  0  0
   48.3889    3.7068   18.7285 C   0  0  0  0  0  0  0  0  0  0  0  0
   53.5564    3.9979   18.6856 C   0  0  0  0  0  0  0  0  0  0  0  0
   50.1817    8.0977   21.0066 C   0  0  0  0  0  0  0  0  0  0  0  0
   47.8964    6.7290   19.9499 O   0  0  0  0  0  0  0  0  0  0  0  0
   51.8111    7.2825   22.5339 O   0  0  0  0  0  0  0  0  0  0  0  0
   47.4737    4.5110   16.6430 C   0  0  0  0  0  0  0  0  0  0  0  0
   54.0956    3.5781   21.0578 O   0  0  0  0  0  0  0  0  0  0  0  0
   55.4332    3.2644   20.6967 C   0  0  0  0  0  0  0  0  0  0  0  0
   50.7678    5.3042   18.3500 C   0  0  2  0  0  0  0  0  0  0  0  0
   49.3586    4.7514   18.1277 C   0  0  2  0  0  0  0  0  0  0  0  0
   51.9599    4.5046   17.8032 C   0  0  1  0  0  0  0  0  0  0  0  0
   53.0852    4.7536   18.7001 O   0  0  0  0  0  0  0  0  0  0  0  0
   51.1267    5.1721   19.7960 C   0  0  0  0  0  0  0  0  0  0  0  0
   48.4277    5.5637   19.1101 C   0  0  2  0  0  0  0  0  0  0  0  0
   52.4809    4.9234   19.9279 C   0  0  0  0  0  0  0  0  0  0  0  0
   50.2601    5.2229   20.8717 C   0  0  0  0  0  0  0  0  0  0  0  0
   48.5295    7.0379   18.9357 N   0  0  0  0  0  0  0  0  0  0  0  0
   48.7766    5.2820   20.6100 C   0  0  0  0  0  0  0  0  0  0  0  0
   50.8352    6.8026   17.9484 C   0  0  0  0  0  0  0  0  0  0  0  0
   49.2885    3.2271   18.3122 C   0  0  0  0  0  0  0  0  0  0  0  0
   51.7059    2.9876   17.7019 C   0  0  0  0  0  0  0  0  0  0  0  0
   53.0723    4.8255   21.1733 C   0  0  0  0  0  0  0  0  0  0  0  0
   50.8283    5.1080   22.1394 C   0  0  0  0  0  0  0  0  0  0  0  0
   49.4605    7.4928   17.9037 C   0  0  0  0  0  0  0  0  0  0  0  0
   52.2248    4.9327   22.2880 C   0  0  0  0  0  0  0  0  0  0  0  0
   50.2959    2.5310   17.4021 C   0  0  0  0  0  0  0  0  0  0  0  0
   48.9766    4.9732   16.7562 O   0  0  0  0  0  0  0  0  0  0  0  0
   52.6148    2.1563   17.7679 O   0  0  0  0  0  0  0  0  0  0  0  0
   47.2262    7.6807   18.8051 C   0  0  0  0  0  0  0  0  0  0  0  0
   54.4189    4.6154   21.2003 O   0  0  0  0  0  0  0  0  0  0  0  0
   55.0296    4.5021   22.4769 C   0  0  0  0  0  0  0  0  0  0  0  0
   47.9799    6.2027   18.5172 C   0  0  0  0  0  0  0  0  0  0  0  0
   53.0062    4.0008   20.3111 C   0  0  0  0  0  0  0  0  0  0  0  0
   51.7180    4.5849   19.8652 C   0  0  0  0  0  0  0  0  0  0  0  0
   49.2663    5.6157   18.9656 C   0  0  0  0  0  0  0  0  0  0  0  0
   53.4726    2.9394   19.9415 O   0  0  0  0  0  0  0  0  0  0  0  0
   47.5150    7.2651   18.8856 O   0  0  0  0  0  0  0  0  0  0  0  0
   49.7295    4.3840   18.4856 C   0  0  0  0  0  0  0  0  0  0  0  0
   50.9514    3.8714   18.9345 C   0  0  0  0  0  0  0  0  0  0  0  0
   50.0335    6.3298   19.8956 C   0  0  0  0  0  0  0  0  0  0  0  0
   51.2554    5.8171   20.3436 C   0  0  0  0  0  0  0  0  0  0  0  0
   47.3361    5.4272   17.6275 O   0  0  0  0  0  0  0  0  0  0  0  0
   53.6475    4.7753   21.2033 O   0  0  0  0  0  0  0  0  0  0  0  0
   49.6794    5.3548   22.3315 H   0  0  0  0  0  0  0  0  0  0  0  0
   48.5624    6.7940   17.3432 H   0  0  0  0  0  0  0  0  0  0  0  0
   50.8114    6.5039   16.8346 H   0  0  0  0  0  0  0  0  0  0  0  0
   50.1948    4.9307   16.3560 H   0  0  0  0  0  0  0  0  0  0  0  0
   49.3412    3.1728   20.5881 H   0  0  0  0  0  0  0  0  0  0  0  0
   47.9975    4.2840   20.7737 H   0  0  0  0  0  0  0  0  0  0  0  0
   50.9824    7.6700   19.0548 H   0  0  0  0  0  0  0  0  0  0  0  0
   49.4651    8.5686   19.0460 H   0  0  0  0  0  0  0  0  0  0  0  0
   52.9086    4.5066   16.6834 H   0  0  0  0  0  0  0  0  0  0  0  0
   49.1730    3.1575   18.1931 H   0  0  0  0  0  0  0  0  0  0  0  0
   47.5430    3.0151   18.8282 H   0  0  0  0  0  0  0  0  0  0  0  0
   54.5132    3.6422   18.3149 H   0  0  0  0  0  0  0  0  0  0  0  0
   50.7712    9.0181   21.0853 H   0  0  0  0  0  0  0  0  0  0  0  0
   49.2244    8.2731   21.5074 H   0  0  0  0  0  0  0  0  0  0  0  0
   47.2768    6.1544   19.4480 H   0  0  0  0  0  0  0  0  0  0  0  0
   48.2259    3.9841   16.0475 H   0  0  0  0  0  0  0  0  0  0  0  0
   46.6010    3.8550   16.7386 H   0  0  0  0  0  0  0  0  0  0  0  0
   47.1402    5.3912   16.0831 H   0  0  0  0  0  0  0  0  0  0  0  0
   55.9809    3.0249   21.6134 H   0  0  0  0  0  0  0  0  0  0  0  0
   55.4686    2.3832   20.0480 H   0  0  0  0  0  0  0  0  0  0  0  0
   55.9296    4.1203   20.2271 H   0  0  0  0  0  0  0  0  0  0  0  0
   52.2420    4.8364   16.7969 H   0  0  0  0  0  0  0  0  0  0  0  0
   47.3911    5.2486   18.9303 H   0  0  0  0  0  0  0  0  0  0  0  0
   48.3455    4.3129   20.8911 H   0  0  0  0  0  0  0  0  0  0  0  0
   48.3138    6.0337   21.2621 H   0  0  0  0  0  0  0  0  0  0  0  0
   51.2743    6.9010   16.9472 H   0  0  0  0  0  0  0  0  0  0  0  0
   51.4925    7.3655   18.6247 H   0  0  0  0  0  0  0  0  0  0  0  0
   48.2842    2.8685   18.0540 H   0  0  0  0  0  0  0  0  0  0  0  0
   49.4791    2.9272   19.3476 H   0  0  0  0  0  0  0  0  0  0  0  0
   50.2008    5.1417   23.0274 H   0  0  0  0  0  0  0  0  0  0  0  0
   49.0225    7.3685   16.9056 H   0  0  0  0  0  0  0  0  0  0  0  0
   49.6266    8.5720   18.0150 H   0  0  0  0  0  0  0  0  0  0  0  0
   52.6150    4.8558   23.2983 H   0  0  0  0  0  0  0  0  0  0  0  0
   50.2389    1.4486   17.5641 H   0  0  0  0  0  0  0  0  0  0  0  0
   50.0905    2.7177   16.3428 H   0  0  0  0  0  0  0  0  0  0  0  0
   48.0068    5.0660   16.7283 H   0  0  0  0  0  0  0  0  0  0  0  0
   46.7149    7.3806   17.8841 H   0  0  0  0  0  0  0  0  0  0  0  0
   46.5838    7.4291   19.6559 H   0  0  0  0  0  0  0  0  0  0  0  0
   47.3295    8.7712   18.8031 H   0  0  0  0  0  0  0  0  0  0  0  0
   54.9116    5.4248   23.0545 H   0  0  0  0  0  0  0  0  0  0  0  0
   54.6396    3.6394   23.0263 H   0  0  0  0  0  0  0  0  0  0  0  0
   56.1009    4.3415   22.3234 H   0  0  0  0  0  0  0  0  0  0  0  0
   49.1482    3.8147   17.7635 H   0  0  0  0  0  0  0  0  0  0  0  0
   51.3017    2.9130   18.5549 H   0  0  0  0  0  0  0  0  0  0  0  0
   49.6834    7.2881   20.2764 H   0  0  0  0  0  0  0  0  0  0  0  0
   51.8369    6.3868   21.0649 H   0  0  0  0  0  0  0  0  0  0  0  0
   46.5186    5.9283   17.4238 H   0  0  0  0  0  0  0  0  0  0  0  0
   54.4653    4.2742   21.4054 H   0  0  0  0  0  0  0  0  0  0  0  0
 14  7  2  0
 15  8  1  0
 16 11  1  0
 17 15  2  0
 18 13  1  0
  2 19  1  1
 20 13  2  0
 21  9  1  0
  4  7  1  0
 16  9  1  0
  6 10  1  0
 18 12  1  0
 17 14  1  0
 14 22  1  0
 22 23  1  0
  2  1  1  0
  3  1  1  0
  3  4  1  0
  5  1  1  0
  6  2  1  0
  7  5  1  0
  8  5  2  0
  6  9  1  0
 10  8  1  0
  1 11  1  1
 12  2  1  0
 13  3  1  0
 37 30  2  0
 38 31  1  0
 39 34  1  0
 40 38  2  0
 41 36  1  0
 25 42  1  6
 43 36  2  0
 44 32  1  0
 27 30  1  0
 39 32  1  0
 29 33  1  0
 41 35  1  0
 40 37  1  0
 37 45  1  0
 45 46  1  0
 25 24  1  0
 26 24  1  0
 26 27  1  0
 28 24  1  0
 29 25  1  0
 30 28  1  0
 31 28  2  0
 29 32  1  0
 33 31  1  0
 24 34  1  6
 35 25  1  0
 36 26  1  0
 48 49  1  0
 49 56  2  0
 50 47  1  0
 51 48  2  0
 52 47  2  0
 53 50  1  0
 54 53  2  0
 55 50  2  0
 56 55  1  0
 57 47  1  0
 58 48  1  0
 49 54  1  0
  3 59  1  1
  6 60  1  6
 10 61  1  0
 10 62  1  0
 11 63  1  0
 11 64  1  0
 12 65  1  0
 12 66  1  0
 15 67  1  0
 16 68  1  0
 16 69  1  0
 17 70  1  0
 18 71  1  0
 18 72  1  0
 19 73  1  0
 21 74  1  0
 21 75  1  0
 21 76  1  0
 23 77  1  0
 23 78  1  0
 23 79  1  0
 26 80  1  6
 29 81  1  1
 33 82  1  0
 33 83  1  0
 34 84  1  0
 34 85  1  0
 35 86  1  0
 35 87  1  0
 38 88  1  0
 39 89  1  0
 39 90  1  0
 40 91  1  0
 41 92  1  0
 41 93  1  0
 42 94  1  0
 44 95  1  0
 44 96  1  0
 44 97  1  0
 46 98  1  0
 46 99  1  0
 46100  1  0
 53101  1  0
 54102  1  0
 55103  1  0
 56104  1  0
 57105  1  0
 58106  1  0
M  END
> <Uni-Dock RESULT> 
ENERGY=   -6.069  LOWER_BOUND=    0.000  UPPER_BOUND=    0.000
INTER + INTRA:          -6.069
INTER:                  -6.069
INTRA:                   0.000
UNBOUND:                 0.000

$$$$

     RDKit          3D

106114  0  0  0  0  0  0  0  0999 V2000
   48.0295   11.5363   19.6371 C   0  0  2  0  0  0  0  0  0  0  0  0
   48.5544   10.6855   18.4739 C   0  0  2  0  0  0  0  0  0  0  0  0
   48.0313   13.0609   19.4694 C   0  0  1  0  0  0  0  0  0  0  0  0
   48.2406   13.6297   20.8015 O   0  0  0  0  0  0  0  0  0  0  0  0
   48.9874   11.4742   20.7753 C   0  0  0  0  0  0  0  0  0  0  0  0
   48.7531    9.2359   19.0412 C   0  0  2  0  0  0  0  0  0  0  0  0
   49.0190   12.6864   21.4381 C   0  0  0  0  0  0  0  0  0  0  0  0
   49.7731   10.3932   21.1210 C   0  0  0  0  0  0  0  0  0  0  0  0
   47.3763    8.7277   19.3415 N   0  0  0  0  0  0  0  0  0  0  0  0
   49.7857    9.1845   20.2219 C   0  0  0  0  0  0  0  0  0  0  0  0
   46.6576   10.9985   20.1110 C   0  0  0  0  0  0  0  0  0  0  0  0
   49.8042   11.2849   17.8216 C   0  0  0  0  0  0  0  0  0  0  0  0
   49.1208   13.5896   18.5175 C   0  0  0  0  0  0  0  0  0  0  0  0
   49.7939   12.8574   22.5686 C   0  0  0  0  0  0  0  0  0  0  0  0
   50.5717   10.5436   22.2525 C   0  0  0  0  0  0  0  0  0  0  0  0
   46.6955    9.4884   20.4029 C   0  0  0  0  0  0  0  0  0  0  0  0
   50.5681   11.7592   22.9789 C   0  0  0  0  0  0  0  0  0  0  0  0
   49.5287   12.7107   17.3576 C   0  0  0  0  0  0  0  0  0  0  0  0
   47.5551   10.6342   17.4337 O   0  0  0  0  0  0  0  0  0  0  0  0
   49.6026   14.7200   18.6262 O   0  0  0  0  0  0  0  0  0  0  0  0
   47.3546    7.2953   19.6350 C   0  0  0  0  0  0  0  0  0  0  0  0
   49.7406   14.0768   23.1746 O   0  0  0  0  0  0  0  0  0  0  0  0
   50.6663   14.3170   24.2250 C   0  0  0  0  0  0  0  0  0  0  0  0
   49.4551   10.3459   20.4571 C   0  0  2  0  0  0  0  0  0  0  0  0
   48.2268    9.4749   20.1858 C   0  0  2  0  0  0  0  0  0  0  0  0
   50.0778   10.3122   21.8609 C   0  0  1  0  0  0  0  0  0  0  0  0
   50.6540   11.6323   22.1015 O   0  0  0  0  0  0  0  0  0  0  0  0
   49.0425   11.7831   20.4915 C   0  0  0  0  0  0  0  0  0  0  0  0
   47.6189   10.0140   18.8325 C   0  0  2  0  0  0  0  0  0  0  0  0
   49.8144   12.4766   21.4061 C   0  0  0  0  0  0  0  0  0  0  0  0
   48.0105   12.3651   19.7794 C   0  0  0  0  0  0  0  0  0  0  0  0
   48.5989   10.0366   17.7131 N   0  0  0  0  0  0  0  0  0  0  0  0
   47.0922   11.4814   18.9739 C   0  0  0  0  0  0  0  0  0  0  0  0
   50.5176   10.1526   19.3414 C   0  0  0  0  0  0  0  0  0  0  0  0
   47.2369    9.4709   21.3617 C   0  0  0  0  0  0  0  0  0  0  0  0
   49.0782    9.9724   22.9840 C   0  0  0  0  0  0  0  0  0  0  0  0
   49.6695   13.8406   21.5759 C   0  0  0  0  0  0  0  0  0  0  0  0
   47.8303   13.7372   19.9464 C   0  0  0  0  0  0  0  0  0  0  0  0
   49.9456    9.5679   18.0379 C   0  0  0  0  0  0  0  0  0  0  0  0
   48.6672   14.4708   20.8207 C   0  0  0  0  0  0  0  0  0  0  0  0
   47.9357    9.0406   22.6479 C   0  0  0  0  0  0  0  0  0  0  0  0
   48.6433    8.1021   20.0517 O   0  0  0  0  0  0  0  0  0  0  0  0
   49.2289   10.3577   24.1461 O   0  0  0  0  0  0  0  0  0  0  0  0
   48.0863    9.4024   16.5032 C   0  0  0  0  0  0  0  0  0  0  0  0
   50.5009   14.4406   22.4742 O   0  0  0  0  0  0  0  0  0  0  0  0
   50.3483   15.8395   22.6614 C   0  0  0  0  0  0  0  0  0  0  0  0
   47.9050    9.3447   18.1763 C   0  0  0  0  0  0  0  0  0  0  0  0
   49.5091   12.9673   22.3756 C   0  0  0  0  0  0  0  0  0  0  0  0
   49.1035   12.0530   21.2806 C   0  0  0  0  0  0  0  0  0  0  0  0
   48.3066   10.2602   19.2722 C   0  0  0  0  0  0  0  0  0  0  0  0
   49.3924   12.7474   23.5667 O   0  0  0  0  0  0  0  0  0  0  0  0
   48.0238    9.5642   16.9854 O   0  0  0  0  0  0  0  0  0  0  0  0
   48.1364    9.9250   20.6216 C   0  0  0  0  0  0  0  0  0  0  0  0
   48.5340   10.8192   21.6215 C   0  0  0  0  0  0  0  0  0  0  0  0
   48.8772   11.4938   18.9313 C   0  0  0  0  0  0  0  0  0  0  0  0
   49.2750   12.3870   19.9314 C   0  0  0  0  0  0  0  0  0  0  0  0
   47.3712    8.1961   18.6270 O   0  0  0  0  0  0  0  0  0  0  0  0
   50.0395   14.1170   21.9238 O   0  0  0  0  0  0  0  0  0  0  0  0
   47.0709   13.4234   19.0847 H   0  0  0  0  0  0  0  0  0  0  0  0
   49.1384    8.6076   18.2266 H   0  0  0  0  0  0  0  0  0  0  0  0
   50.7889    9.1210   19.7801 H   0  0  0  0  0  0  0  0  0  0  0  0
   49.6535    8.2792   20.8223 H   0  0  0  0  0  0  0  0  0  0  0  0
   46.3088   11.5207   21.0118 H   0  0  0  0  0  0  0  0  0  0  0  0
   45.9029   11.1932   19.3376 H   0  0  0  0  0  0  0  0  0  0  0  0
   50.6598   11.2836   18.5054 H   0  0  0  0  0  0  0  0  0  0  0  0
   50.0893   10.6867   16.9473 H   0  0  0  0  0  0  0  0  0  0  0  0
   51.2165    9.7319   22.5826 H   0  0  0  0  0  0  0  0  0  0  0  0
   47.1640    9.3073   21.3780 H   0  0  0  0  0  0  0  0  0  0  0  0
   45.6584    9.1412   20.4914 H   0  0  0  0  0  0  0  0  0  0  0  0
   51.2021   11.8188   23.8586 H   0  0  0  0  0  0  0  0  0  0  0  0
   50.4390   13.1246   16.9095 H   0  0  0  0  0  0  0  0  0  0  0  0
   48.7388   12.7507   16.6010 H   0  0  0  0  0  0  0  0  0  0  0  0
   46.9931    9.8606   17.6610 H   0  0  0  0  0  0  0  0  0  0  0  0
   47.8377    7.0485   20.5856 H   0  0  0  0  0  0  0  0  0  0  0  0
   46.3203    6.9358   19.6804 H   0  0  0  0  0  0  0  0  0  0  0  0
   47.8454    6.7278   18.8371 H   0  0  0  0  0  0  0  0  0  0  0  0
   50.5451   15.3555   24.5482 H   0  0  0  0  0  0  0  0  0  0  0  0
   50.4586   13.6740   25.0864 H   0  0  0  0  0  0  0  0  0  0  0  0
   51.6989   14.1945   23.8809 H   0  0  0  0  0  0  0  0  0  0  0  0
   50.8807    9.5686   21.9295 H   0  0  0  0  0  0  0  0  0  0  0  0
   46.7740    9.3671   18.5610 H   0  0  0  0  0  0  0  0  0  0  0  0
   46.1196   11.4542   19.4811 H   0  0  0  0  0  0  0  0  0  0  0  0
   46.9199   11.9270   17.9859 H   0  0  0  0  0  0  0  0  0  0  0  0
   51.2983    9.4618   19.6853 H   0  0  0  0  0  0  0  0  0  0  0  0
   51.0282   11.0975   19.1117 H   0  0  0  0  0  0  0  0  0  0  0  0
   46.4226    8.7643   21.1579 H   0  0  0  0  0  0  0  0  0  0  0  0
   46.7777   10.4521   21.5183 H   0  0  0  0  0  0  0  0  0  0  0  0
   47.0365   14.2556   19.4130 H   0  0  0  0  0  0  0  0  0  0  0  0
   49.9725    8.4723   18.0874 H   0  0  0  0  0  0  0  0  0  0  0  0
   50.6301    9.8382   17.2237 H   0  0  0  0  0  0  0  0  0  0  0  0
   48.4872   15.5381   20.9079 H   0  0  0  0  0  0  0  0  0  0  0  0
   47.2148    9.0622   23.4731 H   0  0  0  0  0  0  0  0  0  0  0  0
   48.3300    8.0213   22.5803 H   0  0  0  0  0  0  0  0  0  0  0  0
   48.0148    7.6572   19.4541 H   0  0  0  0  0  0  0  0  0  0  0  0
   47.9294    8.3273   16.6424 H   0  0  0  0  0  0  0  0  0  0  0  0
   47.1354    9.8552   16.2022 H   0  0  0  0  0  0  0  0  0  0  0  0
   48.7790    9.5448   15.6667 H   0  0  0  0  0  0  0  0  0  0  0  0
   50.5498   16.3864   21.7345 H   0  0  0  0  0  0  0  0  0  0  0  0
   49.3551   16.0796   23.0540 H   0  0  0  0  0  0  0  0  0  0  0  0
   51.0854   16.1613   23.4033 H   0  0  0  0  0  0  0  0  0  0  0  0
   47.6953    8.9722   20.9062 H   0  0  0  0  0  0  0  0  0  0  0  0
   48.3968   10.5484   22.6671 H   0  0  0  0  0  0  0  0  0  0  0  0
   49.0139   11.7656   17.8857 H   0  0  0  0  0  0  0  0  0  0  0  0
   49.7168   13.3392   19.6467 H   0  0  0  0  0  0  0  0  0  0  0  0
   47.1551    7.6985   17.8106 H   0  0  0  0  0  0  0  0  0  0  0  0
   50.2564   14.6134   22.7408 H   0  0  0  0  0  0  0  0  0  0  0  0
 14  7  2  0
 15  8  1  0
 16 11  1  0
 17 15  2  0
 18 13  1  0
  2 19  1  1
 20 13  2  0
 21  9  1  0
  4  7  1  0
 16  9  1  0
  6 10  1  0
 18 12  1  0
 17 14  1  0
 14 22  1  0
 22 23  1  0
  2  1  1  0
  3  1  1  0
  3  4  1  0
  5  1  1  0
  6  2  1  0
  7  5  1  0
  8  5  2  0
  6  9  1  0
 10  8  1  0
  1 11  1  1
 12  2  1  0
 13  3  1  0
 37 30  2  0
 38 31  1  0
 39 34  1  0
 40 38  2  0
 41 36  1  0
 25 42  1  6
 43 36  2  0
 44 32  1  0
 27 30  1  0
 39 32  1  0
 29 33  1  0
 41 35  1  0
 40 37  1  0
 37 45  1  0
 45 46  1  0
 25 24  1  0
 26 24  1  0
 26 27  1  0
 28 24  1  0
 29 25  1  0
 30 28  1  0
 31 28  2  0
 29 32  1  0
 33 31  1  0
 24 34  1  6
 35 25  1  0
 36 26  1  0
 48 49  1  0
 49 56  2  0
 50 47  1  0
 51 48  2  0
 52 47  2  0
 53 50  1  0
 54 53  2  0
 55 50  2  0
 56 55  1  0
 57 47  1  0
 58 48  1  0
 49 54  1  0
  3 59  1  1
  6 60  1  6
 10 61  1  0
 10 62  1  0
 11 63  1  0
 11 64  1  0
 12 65  1  0
 12 66  1  0
 15 67  1  0
 16 68  1  0
 16 69  1  0
 17 70  1  0
 18 71  1  0
 18 72  1  0
 19 73  1  0
 21 74  1  0
 21 75  1  0
 21 76  1  0
 23 77  1  0
 23 78  1  0
 23 79  1  0
 26 80  1  6
 29 81  1  1
 33 82  1  0
 33 83  1  0
 34 84  1  0
 34 85  1  0
 35 86  1  0
 35 87  1  0
 38 88  1  0
 39 89  1  0
 39 90  1  0
 40 91  1  0
 41 92  1  0
 41 93  1  0
 42 94  1  0
 44 95  1  0
 44 96  1  0
 44 97  1  0
 46 98  1  0
 46 99  1  0
 46100  1  0
 53101  1  0
 54102  1  0
 55103  1  0
 56104  1  0
 57105  1  0
 58106  1  0
M  END
> <Uni-Dock RESULT> 
ENERGY=   -5.824  LOWER_BOUND=    4.626  UPPER_BOUND=    7.497
INTER + INTRA:          -5.824
INTER:                  -5.824
INTRA:                   0.000
UNBOUND:                 0.000

$$$$

     RDKit          3D

106114  0  0  0  0  0  0  0  0999 V2000
   49.1490    8.1415   12.7432 C   0  0  2  0  0  0  0  0  0  0  0  0
   48.7435    9.5817   12.4054 C   0  0  2  0  0  0  0  0  0  0  0  0
   48.0620    7.0603   12.6980 C   0  0  1  0  0  0  0  0  0  0  0  0
   48.4204    6.0620   13.7063 O   0  0  0  0  0  0  0  0  0  0  0  0
   49.4555    8.0352   14.1963 C   0  0  0  0  0  0  0  0  0  0  0  0
   49.9372   10.4944   12.8578 C   0  0  2  0  0  0  0  0  0  0  0  0
   49.0676    6.7984   14.6758 C   0  0  0  0  0  0  0  0  0  0  0  0
   50.0091    9.0222   14.9867 C   0  0  0  0  0  0  0  0  0  0  0  0
   51.0738   10.1556   11.9427 N   0  0  0  0  0  0  0  0  0  0  0  0
   50.2291   10.3906   14.3963 C   0  0  0  0  0  0  0  0  0  0  0  0
   50.4092    7.7424   11.9380 C   0  0  0  0  0  0  0  0  0  0  0  0
   47.3890    9.9697   13.0068 C   0  0  0  0  0  0  0  0  0  0  0  0
   46.6414    7.5815   12.9857 C   0  0  0  0  0  0  0  0  0  0  0  0
   49.3020    6.4407   15.9891 C   0  0  0  0  0  0  0  0  0  0  0  0
   50.2466    8.6897   16.3186 C   0  0  0  0  0  0  0  0  0  0  0  0
   51.5453    8.7685   12.0917 C   0  0  0  0  0  0  0  0  0  0  0  0
   49.9117    7.4045   16.8097 C   0  0  0  0  0  0  0  0  0  0  0  0
   46.3092    8.9921   12.5570 C   0  0  0  0  0  0  0  0  0  0  0  0
   48.5893    9.7092   10.9760 O   0  0  0  0  0  0  0  0  0  0  0  0
   45.7612    6.8680   13.4735 O   0  0  0  0  0  0  0  0  0  0  0  0
   52.1876   11.0965   12.0534 C   0  0  0  0  0  0  0  0  0  0  0  0
   48.9131    5.1906   16.3671 O   0  0  0  0  0  0  0  0  0  0  0  0
   48.9852    4.8828   17.7519 C   0  0  0  0  0  0  0  0  0  0  0  0
   49.7750    9.2494   14.3252 C   0  0  2  0  0  0  0  0  0  0  0  0
   50.7262    9.5300   13.1602 C   0  0  2  0  0  0  0  0  0  0  0  0
   50.3786    8.8501   15.6801 C   0  0  1  0  0  0  0  0  0  0  0  0
   49.4144    7.9670   16.3306 O   0  0  0  0  0  0  0  0  0  0  0  0
   49.0566    7.9614   14.0759 C   0  0  0  0  0  0  0  0  0  0  0  0
   49.8212    9.5248   11.8669 C   0  0  2  0  0  0  0  0  0  0  0  0
   48.8227    7.3092   15.2730 C   0  0  0  0  0  0  0  0  0  0  0  0
   48.7109    7.4311   12.8471 C   0  0  0  0  0  0  0  0  0  0  0  0
   48.6734   10.4683   11.9463 N   0  0  0  0  0  0  0  0  0  0  0  0
   49.2010    8.1134   11.5952 C   0  0  0  0  0  0  0  0  0  0  0  0
   48.7311   10.3906   14.4636 C   0  0  0  0  0  0  0  0  0  0  0  0
   51.9013    8.5405   13.1085 C   0  0  0  0  0  0  0  0  0  0  0  0
   51.7421    8.1387   15.5757 C   0  0  0  0  0  0  0  0  0  0  0  0
   48.1135    6.1236   15.3151 C   0  0  0  0  0  0  0  0  0  0  0  0
   48.0108    6.2258   12.8599 C   0  0  0  0  0  0  0  0  0  0  0  0
   48.5651   11.2343   13.1874 C   0  0  0  0  0  0  0  0  0  0  0  0
   47.6967    5.5900   14.0847 C   0  0  0  0  0  0  0  0  0  0  0  0
   52.6538    8.5336   14.4358 C   0  0  0  0  0  0  0  0  0  0  0  0
   51.3399   10.8192   13.3533 O   0  0  0  0  0  0  0  0  0  0  0  0
   52.1407    7.3392   16.4262 O   0  0  0  0  0  0  0  0  0  0  0  0
   48.5698   11.3290   10.7727 C   0  0  0  0  0  0  0  0  0  0  0  0
   47.9028    5.5758   16.5454 O   0  0  0  0  0  0  0  0  0  0  0  0
   47.1853    4.3518   16.5933 C   0  0  0  0  0  0  0  0  0  0  0  0
   49.7191   10.4776   11.6614 C   0  0  0  0  0  0  0  0  0  0  0  0
   49.2415    6.3314   15.6503 C   0  0  0  0  0  0  0  0  0  0  0  0
   49.3407    7.3947   14.6212 C   0  0  0  0  0  0  0  0  0  0  0  0
   49.6215    9.4112   12.6879 C   0  0  0  0  0  0  0  0  0  0  0  0
   50.1693    5.8670   16.2860 O   0  0  0  0  0  0  0  0  0  0  0  0
   48.7906   10.9431   11.0274 O   0  0  0  0  0  0  0  0  0  0  0  0
   50.7453    8.9348   13.3750 C   0  0  0  0  0  0  0  0  0  0  0  0
   50.6041    7.9301   14.3383 C   0  0  0  0  0  0  0  0  0  0  0  0
   48.3577    8.8765   12.9717 C   0  0  0  0  0  0  0  0  0  0  0  0
   48.2172    7.8724   13.9352 C   0  0  0  0  0  0  0  0  0  0  0  0
   50.9789   10.9091   11.4775 O   0  0  0  0  0  0  0  0  0  0  0  0
   47.9818    5.8981   15.8308 O   0  0  0  0  0  0  0  0  0  0  0  0
   48.0268    6.5674   11.7194 H   0  0  0  0  0  0  0  0  0  0  0  0
   49.6661   11.5352   12.6339 H   0  0  0  0  0  0  0  0  0  0  0  0
   49.5433   11.0778   14.9092 H   0  0  0  0  0  0  0  0  0  0  0  0
   51.2422   10.7321   14.6295 H   0  0  0  0  0  0  0  0  0  0  0  0
   50.7852    6.7559   12.2398 H   0  0  0  0  0  0  0  0  0  0  0  0
   50.1497    7.6546   10.8748 H   0  0  0  0  0  0  0  0  0  0  0  0
   47.4230    9.9962   14.1013 H   0  0  0  0  0  0  0  0  0  0  0  0
   47.1072   10.9745   12.6685 H   0  0  0  0  0  0  0  0  0  0  0  0
   50.6807    9.4194   16.9987 H   0  0  0  0  0  0  0  0  0  0  0  0
   52.0500    8.6267   13.0552 H   0  0  0  0  0  0  0  0  0  0  0  0
   52.2938    8.5535   11.3187 H   0  0  0  0  0  0  0  0  0  0  0  0
   50.1274    7.1952   17.8533 H   0  0  0  0  0  0  0  0  0  0  0  0
   45.3538    9.2788   13.0108 H   0  0  0  0  0  0  0  0  0  0  0  0
   46.1757    8.9993   11.4707 H   0  0  0  0  0  0  0  0  0  0  0  0
   49.4826    9.9520   10.6461 H   0  0  0  0  0  0  0  0  0  0  0  0
   52.7130   11.0230   13.0107 H   0  0  0  0  0  0  0  0  0  0  0  0
   52.9163   10.9132   11.2554 H   0  0  0  0  0  0  0  0  0  0  0  0
   51.8399   12.1271   11.9250 H   0  0  0  0  0  0  0  0  0  0  0  0
   48.5696    3.8806   17.8951 H   0  0  0  0  0  0  0  0  0  0  0  0
   50.0241    4.8646   18.0968 H   0  0  0  0  0  0  0  0  0  0  0  0
   48.3843    5.5796   18.3461 H   0  0  0  0  0  0  0  0  0  0  0  0
   50.5362    9.7225   16.3255 H   0  0  0  0  0  0  0  0  0  0  0  0
   50.4541    9.7959   11.0113 H   0  0  0  0  0  0  0  0  0  0  0  0
   49.9716    7.4762   11.1433 H   0  0  0  0  0  0  0  0  0  0  0  0
   48.3837    8.1843   10.8663 H   0  0  0  0  0  0  0  0  0  0  0  0
   49.0344   11.0784   15.2635 H   0  0  0  0  0  0  0  0  0  0  0  0
   47.7492    9.9966   14.7582 H   0  0  0  0  0  0  0  0  0  0  0  0
   52.6006    8.8369   12.3166 H   0  0  0  0  0  0  0  0  0  0  0  0
   51.5733    7.5212   12.8811 H   0  0  0  0  0  0  0  0  0  0  0  0
   47.7080    5.7568   11.9262 H   0  0  0  0  0  0  0  0  0  0  0  0
   49.2896   12.0579   13.1981 H   0  0  0  0  0  0  0  0  0  0  0  0
   47.5793   11.7148   13.2324 H   0  0  0  0  0  0  0  0  0  0  0  0
   47.1439    4.6567   14.0369 H   0  0  0  0  0  0  0  0  0  0  0  0
   53.4746    7.8096   14.3800 H   0  0  0  0  0  0  0  0  0  0  0  0
   53.0905    9.5111   14.6658 H   0  0  0  0  0  0  0  0  0  0  0  0
   51.5438   11.1868   12.4739 H   0  0  0  0  0  0  0  0  0  0  0  0
   49.4197   12.0156   10.6953 H   0  0  0  0  0  0  0  0  0  0  0  0
   48.5236   10.7301    9.8567 H   0  0  0  0  0  0  0  0  0  0  0  0
   47.6491   11.9214   10.8056 H   0  0  0  0  0  0  0  0  0  0  0  0
   46.1709    4.4728   16.1995 H   0  0  0  0  0  0  0  0  0  0  0  0
   47.7224    3.5580   16.0644 H   0  0  0  0  0  0  0  0  0  0  0  0
   47.1005    4.0534   17.6425 H   0  0  0  0  0  0  0  0  0  0  0  0
   51.7347    9.3373   13.1687 H   0  0  0  0  0  0  0  0  0  0  0  0
   51.4845    7.5672   14.8662 H   0  0  0  0  0  0  0  0  0  0  0  0
   47.4769    9.2384   12.4434 H   0  0  0  0  0  0  0  0  0  0  0  0
   47.2277    7.4708   14.1420 H   0  0  0  0  0  0  0  0  0  0  0  0
   50.8951   11.5978   10.7850 H   0  0  0  0  0  0  0  0  0  0  0  0
   48.0664    5.2105   16.5243 H   0  0  0  0  0  0  0  0  0  0  0  0
 14  7  2  0
 15  8  1  0
 16 11  1  0
 17 15  2  0
 18 13  1  0
  2 19  1  1
 20 13  2  0
 21  9  1  0
  4  7  1  0
 16  9  1  0
  6 10  1  0
 18 12  1  0
 17 14  1  0
 14 22  1  0
 22 23  1  0
  2  1  1  0
  3  1  1  0
  3  4  1  0
  5  1  1  0
  6  2  1  0
  7  5  1  0
  8  5  2  0
  6  9  1  0
 10  8  1  0
  1 11  1  1
 12  2  1  0
 13  3  1  0
 37 30  2  0
 38 31  1  0
 39 34  1  0
 40 38  2  0
 41 36  1  0
 25 42  1  6
 43 36  2  0
 44 32  1  0
 27 30  1  0
 39 32  1  0
 29 33  1  0
 41 35  1  0
 40 37  1  0
 37 45  1  0
 45 46  1  0
 25 24  1  0
 26 24  1  0
 26 27  1  0
 28 24  1  0
 29 25  1  0
 30 28  1  0
 31 28  2  0
 29 32  1  0
 33 31  1  0
 24 34  1  6
 35 25  1  0
 36 26  1  0
 48 49  1  0
 49 56  2  0
 50 47  1  0
 51 48  2  0
 52 47  2  0
 53 50  1  0
 54 53  2  0
 55 50  2  0
 56 55  1  0
 57 47  1  0
 58 48  1  0
 49 54  1  0
  3 59  1  1
  6 60  1  6
 10 61  1  0
 10 62  1  0
 11 63  1  0
 11 64  1  0
 12 65  1  0
 12 66  1  0
 15 67  1  0
 16 68  1  0
 16 69  1  0
 17 70  1  0
 18 71  1  0
 18 72  1  0
 19 73  1  0
 21 74  1  0
 21 75  1  0
 21 76  1  0
 23 77  1  0
 23 78  1  0
 23 79  1  0
 26 80  1  6
 29 81  1  1
 33 82  1  0
 33 83  1  0
 34 84  1  0
 34 85  1  0
 35 86  1  0
 35 87  1  0
 38 88  1  0
 39 89  1  0
 39 90  1  0
 40 91  1  0
 41 92  1  0
 41 93  1  0
 42 94  1  0
 44 95  1  0
 44 96  1  0
 44 97  1  0
 46 98  1  0
 46 99  1  0
 46100  1  0
 53101  1  0
 54102  1  0
 55103  1  0
 56104  1  0
 57105  1  0
 58106  1  0
M  END
> <Uni-Dock RESULT> 
ENERGY=   -5.746  LOWER_BOUND=    4.915  UPPER_BOUND=    7.644
INTER + INTRA:          -5.746
INTER:                  -5.746
INTRA:                   0.000
UNBOUND:                 0.000

$$$$

     RDKit          3D

106114  0  0  0  0  0  0  0  0999 V2000
   48.7623    5.2637   18.0868 C   0  0  2  0  0  0  0  0  0  0  0  0
   50.1703    5.0898   18.6697 C   0  0  2  0  0  0  0  0  0  0  0  0
   48.0285    4.0095   17.5958 C   0  0  1  0  0  0  0  0  0  0  0  0
   47.1744    4.4306   16.4845 O   0  0  0  0  0  0  0  0  0  0  0  0
   48.8467    5.9557   16.7712 C   0  0  0  0  0  0  0  0  0  0  0  0
   50.7911    6.5281   18.7620 C   0  0  2  0  0  0  0  0  0  0  0  0
   47.8727    5.4750   15.9167 C   0  0  0  0  0  0  0  0  0  0  0  0
   49.7742    6.9128   16.4119 C   0  0  0  0  0  0  0  0  0  0  0  0
   49.9930    7.2459   19.8069 N   0  0  0  0  0  0  0  0  0  0  0  0
   50.8976    7.2321   17.3635 C   0  0  0  0  0  0  0  0  0  0  0  0
   47.8938    6.1165   19.0430 C   0  0  0  0  0  0  0  0  0  0  0  0
   51.0162    4.0866   17.8791 C   0  0  0  0  0  0  0  0  0  0  0  0
   48.9603    2.8803   17.1171 C   0  0  0  0  0  0  0  0  0  0  0  0
   47.7137    6.0055   14.6513 C   0  0  0  0  0  0  0  0  0  0  0  0
   49.6415    7.4570   15.1363 C   0  0  0  0  0  0  0  0  0  0  0  0
   48.5821    7.4369   19.4302 C   0  0  0  0  0  0  0  0  0  0  0  0
   48.6095    7.0189   14.2714 C   0  0  0  0  0  0  0  0  0  0  0  0
   50.3037    2.7415   17.7952 C   0  0  0  0  0  0  0  0  0  0  0  0
   50.0688    4.5512   20.0049 O   0  0  0  0  0  0  0  0  0  0  0  0
   48.6160    2.0535   16.2687 O   0  0  0  0  0  0  0  0  0  0  0  0
   50.5990    8.5149   20.2075 C   0  0  0  0  0  0  0  0  0  0  0  0
   46.7086    5.4910   13.8884 O   0  0  0  0  0  0  0  0  0  0  0  0
   46.6539    5.9020   12.5297 C   0  0  0  0  0  0  0  0  0  0  0  0
   49.9303    6.5474   17.0333 C   0  0  2  0  0  0  0  0  0  0  0  0
   49.7214    7.1493   18.4243 C   0  0  2  0  0  0  0  0  0  0  0  0
   49.6392    7.4255   15.8071 C   0  0  1  0  0  0  0  0  0  0  0  0
   49.1876    6.5327   14.7433 O   0  0  0  0  0  0  0  0  0  0  0  0
   48.8633    5.5328   16.7698 C   0  0  0  0  0  0  0  0  0  0  0  0
   49.7240    5.9232   19.4185 C   0  0  2  0  0  0  0  0  0  0  0  0
   48.5321    5.5306   15.4269 C   0  0  0  0  0  0  0  0  0  0  0  0
   48.2297    4.7363   17.7052 C   0  0  0  0  0  0  0  0  0  0  0  0
   50.9420    5.0758   19.3070 N   0  0  0  0  0  0  0  0  0  0  0  0
   48.5096    4.9676   19.1684 C   0  0  0  0  0  0  0  0  0  0  0  0
   51.3176    5.8559   16.9413 C   0  0  0  0  0  0  0  0  0  0  0  0
   48.4578    8.0207   18.5048 C   0  0  0  0  0  0  0  0  0  0  0  0
   48.5771    8.5155   16.0523 C   0  0  0  0  0  0  0  0  0  0  0  0
   47.6130    4.6322   14.9184 C   0  0  0  0  0  0  0  0  0  0  0  0
   47.2842    3.8336   17.2212 C   0  0  0  0  0  0  0  0  0  0  0  0
   51.9239    5.5025   18.3108 C   0  0  0  0  0  0  0  0  0  0  0  0
   46.9953    3.7682   15.8373 C   0  0  0  0  0  0  0  0  0  0  0  0
   48.4916    9.1120   17.4391 C   0  0  0  0  0  0  0  0  0  0  0  0
   50.8077    8.0500   18.7157 O   0  0  0  0  0  0  0  0  0  0  0  0
   47.8706    8.9693   15.1488 O   0  0  0  0  0  0  0  0  0  0  0  0
   51.5662    4.8145   20.5996 C   0  0  0  0  0  0  0  0  0  0  0  0
   47.3802    4.6833   13.5763 O   0  0  0  0  0  0  0  0  0  0  0  0
   46.4283    3.7708   13.0504 C   0  0  0  0  0  0  0  0  0  0  0  0
   50.6136    5.9683   19.8271 C   0  0  0  0  0  0  0  0  0  0  0  0
   47.5643    5.8261   14.9269 C   0  0  0  0  0  0  0  0  0  0  0  0
   48.3515    5.8391   16.1837 C   0  0  0  0  0  0  0  0  0  0  0  0
   49.8226    5.9554   18.5722 C   0  0  0  0  0  0  0  0  0  0  0  0
   46.9907    6.7804   14.4362 O   0  0  0  0  0  0  0  0  0  0  0  0
   51.1888    5.0141   20.3163 O   0  0  0  0  0  0  0  0  0  0  0  0
   49.1938    7.1050   18.0773 C   0  0  0  0  0  0  0  0  0  0  0  0
   48.4612    7.0459   16.8869 C   0  0  0  0  0  0  0  0  0  0  0  0
   49.7138    4.7486   17.8684 C   0  0  0  0  0  0  0  0  0  0  0  0
   48.9817    4.6903   16.6780 C   0  0  0  0  0  0  0  0  0  0  0  0
   50.6445    7.1791   20.4104 O   0  0  0  0  0  0  0  0  0  0  0  0
   47.5311    4.6141   14.3463 O   0  0  0  0  0  0  0  0  0  0  0  0
   47.3919    3.5841   18.3804 H   0  0  0  0  0  0  0  0  0  0  0  0
   51.8064    6.4287   19.1695 H   0  0  0  0  0  0  0  0  0  0  0  0
   51.8279    6.8891   16.8917 H   0  0  0  0  0  0  0  0  0  0  0  0
   50.9876    8.3171   17.4739 H   0  0  0  0  0  0  0  0  0  0  0  0
   46.9155    6.3481   18.6013 H   0  0  0  0  0  0  0  0  0  0  0  0
   47.6851    5.5425   19.9554 H   0  0  0  0  0  0  0  0  0  0  0  0
   51.2341    4.4468   16.8679 H   0  0  0  0  0  0  0  0  0  0  0  0
   51.9794    3.9360   18.3822 H   0  0  0  0  0  0  0  0  0  0  0  0
   50.3380    8.2161   14.7870 H   0  0  0  0  0  0  0  0  0  0  0  0
   48.4889    8.1616   18.6121 H   0  0  0  0  0  0  0  0  0  0  0  0
   48.0328    7.8611   20.2801 H   0  0  0  0  0  0  0  0  0  0  0  0
   48.5458    7.4837   13.2919 H   0  0  0  0  0  0  0  0  0  0  0  0
   50.9182    2.0455   17.2131 H   0  0  0  0  0  0  0  0  0  0  0  0
   50.1463    2.2982   18.7835 H   0  0  0  0  0  0  0  0  0  0  0  0
   49.9941    5.3376   20.5896 H   0  0  0  0  0  0  0  0  0  0  0  0
   50.5634    9.2715   19.4174 H   0  0  0  0  0  0  0  0  0  0  0  0
   50.0803    8.9199   21.0840 H   0  0  0  0  0  0  0  0  0  0  0  0
   51.6431    8.3702   20.5046 H   0  0  0  0  0  0  0  0  0  0  0  0
   45.8469    5.3456   12.0430 H   0  0  0  0  0  0  0  0  0  0  0  0
   46.4178    6.9680   12.4509 H   0  0  0  0  0  0  0  0  0  0  0  0
   47.5852    5.6641   12.0045 H   0  0  0  0  0  0  0  0  0  0  0  0
   50.5393    7.9467   15.4600 H   0  0  0  0  0  0  0  0  0  0  0  0
   49.6498    6.3178   20.4407 H   0  0  0  0  0  0  0  0  0  0  0  0
   47.6148    5.4181   19.6160 H   0  0  0  0  0  0  0  0  0  0  0  0
   48.6643    4.0058   19.6737 H   0  0  0  0  0  0  0  0  0  0  0  0
   52.0324    6.5195   16.4376 H   0  0  0  0  0  0  0  0  0  0  0  0
   51.2670    4.9447   16.3304 H   0  0  0  0  0  0  0  0  0  0  0  0
   48.4012    8.5011   19.4896 H   0  0  0  0  0  0  0  0  0  0  0  0
   47.5424    7.4330   18.3822 H   0  0  0  0  0  0  0  0  0  0  0  0
   46.7512    3.1771   17.9056 H   0  0  0  0  0  0  0  0  0  0  0  0
   52.5067    6.3545   18.6822 H   0  0  0  0  0  0  0  0  0  0  0  0
   52.6542    4.6984   18.1535 H   0  0  0  0  0  0  0  0  0  0  0  0
   46.2554    3.0422   15.5140 H   0  0  0  0  0  0  0  0  0  0  0  0
   47.5742    9.7079   17.5055 H   0  0  0  0  0  0  0  0  0  0  0  0
   49.3384    9.7930   17.5748 H   0  0  0  0  0  0  0  0  0  0  0  0
   50.9370    8.0580   19.6818 H   0  0  0  0  0  0  0  0  0  0  0  0
   51.9692    5.7284   21.0491 H   0  0  0  0  0  0  0  0  0  0  0  0
   50.8441    4.3749   21.2961 H   0  0  0  0  0  0  0  0  0  0  0  0
   52.3823    4.0910   20.4975 H   0  0  0  0  0  0  0  0  0  0  0  0
   46.7458    2.7347   13.2070 H   0  0  0  0  0  0  0  0  0  0  0  0
   45.4348    3.9480   13.4747 H   0  0  0  0  0  0  0  0  0  0  0  0
   46.3632    3.9384   11.9712 H   0  0  0  0  0  0  0  0  0  0  0  0
   49.2667    8.0511   18.6094 H   0  0  0  0  0  0  0  0  0  0  0  0
   47.9764    7.9456   16.5115 H   0  0  0  0  0  0  0  0  0  0  0  0
   50.1977    3.8482   18.2438 H   0  0  0  0  0  0  0  0  0  0  0  0
   48.9097    3.7446   16.1457 H   0  0  0  0  0  0  0  0  0  0  0  0
   51.1898    7.0418   21.2133 H   0  0  0  0  0  0  0  0  0  0  0  0
   46.9868    4.7525   13.5430 H   0  0  0  0  0  0  0  0  0  0  0  0
 14  7  2  0
 15  8  1  0
 16 11  1  0
 17 15  2  0
 18 13  1  0
  2 19  1  1
 20 13  2  0
 21  9  1  0
  4  7  1  0
 16  9  1  0
  6 10  1  0
 18 12  1  0
 17 14  1  0
 14 22  1  0
 22 23  1  0
  2  1  1  0
  3  1  1  0
  3  4  1  0
  5  1  1  0
  6  2  1  0
  7  5  1  0
  8  5  2  0
  6  9  1  0
 10  8  1  0
  1 11  1  1
 12  2  1  0
 13  3  1  0
 37 30  2  0
 38 31  1  0
 39 34  1  0
 40 38  2  0
 41 36  1  0
 25 42  1  6
 43 36  2  0
 44 32  1  0
 27 30  1  0
 39 32  1  0
 29 33  1  0
 41 35  1  0
 40 37  1  0
 37 45  1  0
 45 46  1  0
 25 24  1  0
 26 24  1  0
 26 27  1  0
 28 24  1  0
 29 25  1  0
 30 28  1  0
 31 28  2  0
 29 32  1  0
 33 31  1  0
 24 34  1  6
 35 25  1  0
 36 26  1  0
 48 49  1  0
 49 56  2  0
 50 47  1  0
 51 48  2  0
 52 47  2  0
 53 50  1  0
 54 53  2  0
 55 50  2  0
 56 55  1  0
 57 47  1  0
 58 48  1  0
 49 54  1  0
  3 59  1  1
  6 60  1  6
 10 61  1  0
 10 62  1  0
 11 63  1  0
 11 64  1  0
 12 65  1  0
 12 66  1  0
 15 67  1  0
 16 68  1  0
 16 69  1  0
 17 70  1  0
 18 71  1  0
 18 72  1  0
 19 73  1  0
 21 74  1  0
 21 75  1  0
 21 76  1  0
 23 77  1  0
 23 78  1  0
 23 79  1  0
 26 80  1  6
 29 81  1  1
 33 82  1  0
 33 83  1  0
 34 84  1  0
 34 85  1  0
 35 86  1  0
 35 87  1  0
 38 88  1  0
 39 89  1  0
 39 90  1  0
 40 91  1  0
 41 92  1  0
 41 93  1  0
 42 94  1  0
 44 95  1  0
 44 96  1  0
 44 97  1  0
 46 98  1  0
 46 99  1  0
 46100  1  0
 53101  1  0
 54102  1  0
 55103  1  0
 56104  1  0
 57105  1  0
 58106  1  0
M  END
> <Uni-Dock RESULT> 
ENERGY=   -5.716  LOWER_BOUND=    2.033  UPPER_BOUND=    5.889
INTER + INTRA:          -5.716
INTER:                  -5.716
INTRA:                   0.000
UNBOUND:                 0.000

$$$$

     RDKit          3D

106114  0  0  0  0  0  0  0  0999 V2000
   47.7449    9.7350   20.2315 C   0  0  2  0  0  0  0  0  0  0  0  0
   48.5912   10.3366   21.3604 C   0  0  2  0  0  0  0  0  0  0  0  0
   47.4510    8.2304   20.2781 C   0  0  1  0  0  0  0  0  0  0  0  0
   47.3512    7.7787   18.8896 O   0  0  0  0  0  0  0  0  0  0  0  0
   48.5285    9.7314   18.9654 C   0  0  0  0  0  0  0  0  0  0  0  0
   49.0085   11.7721   20.8830 C   0  0  2  0  0  0  0  0  0  0  0  0
   48.2143    8.6149   18.2139 C   0  0  0  0  0  0  0  0  0  0  0  0
   49.4675   10.6691   18.5856 C   0  0  0  0  0  0  0  0  0  0  0  0
   47.7404   12.5686   20.8426 N   0  0  0  0  0  0  0  0  0  0  0  0
   49.8563   11.7480   19.5626 C   0  0  0  0  0  0  0  0  0  0  0  0
   46.4639   10.5782   20.0217 C   0  0  0  0  0  0  0  0  0  0  0  0
   49.7656    9.4380   21.7602 C   0  0  0  0  0  0  0  0  0  0  0  0
   48.5263    7.3998   21.0036 C   0  0  0  0  0  0  0  0  0  0  0  0
   48.7731    8.4189   16.9661 C   0  0  0  0  0  0  0  0  0  0  0  0
   50.0535   10.4885   17.3346 C   0  0  0  0  0  0  0  0  0  0  0  0
   46.7760   12.0744   19.8453 C   0  0  0  0  0  0  0  0  0  0  0  0
   49.6958    9.3826   16.5259 C   0  0  0  0  0  0  0  0  0  0  0  0
   49.2647    8.0519   22.1497 C   0  0  0  0  0  0  0  0  0  0  0  0
   47.7776   10.4695   22.5452 O   0  0  0  0  0  0  0  0  0  0  0  0
   48.7414    6.2155   20.7333 O   0  0  0  0  0  0  0  0  0  0  0  0
   47.9785   14.0007   20.6681 C   0  0  0  0  0  0  0  0  0  0  0  0
   48.3831    7.3060   16.2833 O   0  0  0  0  0  0  0  0  0  0  0  0
   49.0844    7.0044   15.0853 C   0  0  0  0  0  0  0  0  0  0  0  0
   49.2611   10.7057   19.2928 C   0  0  2  0  0  0  0  0  0  0  0  0
   48.2914   11.7652   19.8200 C   0  0  2  0  0  0  0  0  0  0  0  0
   49.6776   10.7683   17.8156 C   0  0  1  0  0  0  0  0  0  0  0  0
   49.9263    9.3949   17.3861 O   0  0  0  0  0  0  0  0  0  0  0  0
   48.5563    9.3888   19.2123 C   0  0  0  0  0  0  0  0  0  0  0  0
   47.7765   11.2124   21.2060 C   0  0  2  0  0  0  0  0  0  0  0  0
   49.0326    8.6608   18.1370 C   0  0  0  0  0  0  0  0  0  0  0  0
   47.5336    8.9462   20.0301 C   0  0  0  0  0  0  0  0  0  0  0  0
   48.8747   10.8784   22.1528 N   0  0  0  0  0  0  0  0  0  0  0  0
   46.9402    9.9001   21.0356 C   0  0  0  0  0  0  0  0  0  0  0  0
   50.4838   10.5663   20.2397 C   0  0  0  0  0  0  0  0  0  0  0  0
   47.1719   12.0891   18.8178 C   0  0  0  0  0  0  0  0  0  0  0  0
   48.6262   11.4157   16.8929 C   0  0  0  0  0  0  0  0  0  0  0  0
   48.5838    7.3777   17.8867 C   0  0  0  0  0  0  0  0  0  0  0  0
   47.0493    7.6618   19.7876 C   0  0  0  0  0  0  0  0  0  0  0  0
   50.2318   11.1075   21.6581 C   0  0  0  0  0  0  0  0  0  0  0  0
   47.5856    6.8776   18.7387 C   0  0  0  0  0  0  0  0  0  0  0  0
   47.7612   12.5109   17.4752 C   0  0  0  0  0  0  0  0  0  0  0  0
   49.0001   13.0077   19.9932 O   0  0  0  0  0  0  0  0  0  0  0  0
   48.5315   11.1361   15.6953 O   0  0  0  0  0  0  0  0  0  0  0  0
   48.6776   11.4662   23.4735 C   0  0  0  0  0  0  0  0  0  0  0  0
   49.1395    6.7274   16.8254 O   0  0  0  0  0  0  0  0  0  0  0  0
   48.6736    5.4137   16.5566 C   0  0  0  0  0  0  0  0  0  0  0  0
   48.2837   11.7382   21.8591 C   0  0  0  0  0  0  0  0  0  0  0  0
   48.5010    8.3466   17.1923 C   0  0  0  0  0  0  0  0  0  0  0  0
   48.4502    9.1989   18.4048 C   0  0  0  0  0  0  0  0  0  0  0  0
   48.3303   10.8856   20.6461 C   0  0  0  0  0  0  0  0  0  0  0  0
   48.2699    8.7121   16.0549 O   0  0  0  0  0  0  0  0  0  0  0  0
   48.5169   11.3727   22.9960 O   0  0  0  0  0  0  0  0  0  0  0  0
   48.0496   11.3910   19.3703 C   0  0  0  0  0  0  0  0  0  0  0  0
   48.1100   10.5496   18.2542 C   0  0  0  0  0  0  0  0  0  0  0  0
   48.6716    9.5350   20.7968 C   0  0  0  0  0  0  0  0  0  0  0  0
   48.7323    8.6944   19.6804 C   0  0  0  0  0  0  0  0  0  0  0  0
   47.9450   13.0107   21.5881 O   0  0  0  0  0  0  0  0  0  0  0  0
   48.8363    7.0736   17.4648 O   0  0  0  0  0  0  0  0  0  0  0  0
   46.4983    8.0230   20.7794 H   0  0  0  0  0  0  0  0  0  0  0  0
   49.6251   12.2214   21.6733 H   0  0  0  0  0  0  0  0  0  0  0  0
   50.9017   11.5663   19.8452 H   0  0  0  0  0  0  0  0  0  0  0  0
   49.8350   12.7209   19.0623 H   0  0  0  0  0  0  0  0  0  0  0  0
   45.8929   10.2344   19.1490 H   0  0  0  0  0  0  0  0  0  0  0  0
   45.7990   10.4523   20.8864 H   0  0  0  0  0  0  0  0  0  0  0  0
   50.5001    9.3460   20.9528 H   0  0  0  0  0  0  0  0  0  0  0  0
   50.2872    9.8712   22.6227 H   0  0  0  0  0  0  0  0  0  0  0  0
   50.8019   11.1895   16.9715 H   0  0  0  0  0  0  0  0  0  0  0  0
   47.1332   12.2646   18.8258 H   0  0  0  0  0  0  0  0  0  0  0  0
   45.8324   12.6248   19.9477 H   0  0  0  0  0  0  0  0  0  0  0  0
   50.1759    9.2956   15.5557 H   0  0  0  0  0  0  0  0  0  0  0  0
   50.1212    7.4223   22.4161 H   0  0  0  0  0  0  0  0  0  0  0  0
   48.5958    8.0855   23.0154 H   0  0  0  0  0  0  0  0  0  0  0  0
   47.3640   11.3578   22.4694 H   0  0  0  0  0  0  0  0  0  0  0  0
   48.3669   14.2496   19.6755 H   0  0  0  0  0  0  0  0  0  0  0  0
   47.0460   14.5580   20.8134 H   0  0  0  0  0  0  0  0  0  0  0  0
   48.6822   14.3721   21.4207 H   0  0  0  0  0  0  0  0  0  0  0  0
   48.7054    6.0505   14.7056 H   0  0  0  0  0  0  0  0  0  0  0  0
   48.8991    7.7646   14.3196 H   0  0  0  0  0  0  0  0  0  0  0  0
   50.1571    6.8851   15.2716 H   0  0  0  0  0  0  0  0  0  0  0  0
   50.6010   11.3439   17.6799 H   0  0  0  0  0  0  0  0  0  0  0  0
   47.1311   11.9787   21.6559 H   0  0  0  0  0  0  0  0  0  0  0  0
   45.9344   10.1710   20.6909 H   0  0  0  0  0  0  0  0  0  0  0  0
   46.8163    9.3928   22.0009 H   0  0  0  0  0  0  0  0  0  0  0  0
   51.3366   11.1244   19.8322 H   0  0  0  0  0  0  0  0  0  0  0  0
   50.8121    9.5208   20.3125 H   0  0  0  0  0  0  0  0  0  0  0  0
   46.5593   12.9149   19.2009 H   0  0  0  0  0  0  0  0  0  0  0  0
   46.5005   11.2391   18.6596 H   0  0  0  0  0  0  0  0  0  0  0  0
   46.2458    7.2539   20.3970 H   0  0  0  0  0  0  0  0  0  0  0  0
   50.4800   12.1756   21.6901 H   0  0  0  0  0  0  0  0  0  0  0  0
   50.9501   10.6226   22.3315 H   0  0  0  0  0  0  0  0  0  0  0  0
   47.1762    5.8817   18.5984 H   0  0  0  0  0  0  0  0  0  0  0  0
   46.9451   12.7195   16.7740 H   0  0  0  0  0  0  0  0  0  0  0  0
   48.3654   13.4203   17.5589 H   0  0  0  0  0  0  0  0  0  0  0  0
   48.5669   13.4996   20.7146 H   0  0  0  0  0  0  0  0  0  0  0  0
   48.7314   12.5599   23.4444 H   0  0  0  0  0  0  0  0  0  0  0  0
   47.7038   11.1780   23.8839 H   0  0  0  0  0  0  0  0  0  0  0  0
   49.4337   11.1020   24.1774 H   0  0  0  0  0  0  0  0  0  0  0  0
   48.8819    4.7413   17.3953 H   0  0  0  0  0  0  0  0  0  0  0  0
   47.6077    5.4158   16.3072 H   0  0  0  0  0  0  0  0  0  0  0  0
   49.2177    5.0362   15.6857 H   0  0  0  0  0  0  0  0  0  0  0  0
   47.7826   12.4367   19.2330 H   0  0  0  0  0  0  0  0  0  0  0  0
   47.8897   10.9531   17.2671 H   0  0  0  0  0  0  0  0  0  0  0  0
   48.8912    9.1306   21.7837 H   0  0  0  0  0  0  0  0  0  0  0  0
   49.0001    7.6492   19.8177 H   0  0  0  0  0  0  0  0  0  0  0  0
   47.9523   13.4500   22.4644 H   0  0  0  0  0  0  0  0  0  0  0  0
   48.8300    6.6355   16.5879 H   0  0  0  0  0  0  0  0  0  0  0  0
 14  7  2  0
 15  8  1  0
 16 11  1  0
 17 15  2  0
 18 13  1  0
  2 19  1  1
 20 13  2  0
 21  9  1  0
  4  7  1  0
 16  9  1  0
  6 10  1  0
 18 12  1  0
 17 14  1  0
 14 22  1  0
 22 23  1  0
  2  1  1  0
  3  1  1  0
  3  4  1  0
  5  1  1  0
  6  2  1  0
  7  5  1  0
  8  5  2  0
  6  9  1  0
 10  8  1  0
  1 11  1  1
 12  2  1  0
 13  3  1  0
 37 30  2  0
 38 31  1  0
 39 34  1  0
 40 38  2  0
 41 36  1  0
 25 42  1  6
 43 36  2  0
 44 32  1  0
 27 30  1  0
 39 32  1  0
 29 33  1  0
 41 35  1  0
 40 37  1  0
 37 45  1  0
 45 46  1  0
 25 24  1  0
 26 24  1  0
 26 27  1  0
 28 24  1  0
 29 25  1  0
 30 28  1  0
 31 28  2  0
 29 32  1  0
 33 31  1  0
 24 34  1  6
 35 25  1  0
 36 26  1  0
 48 49  1  0
 49 56  2  0
 50 47  1  0
 51 48  2  0
 52 47  2  0
 53 50  1  0
 54 53  2  0
 55 50  2  0
 56 55  1  0
 57 47  1  0
 58 48  1  0
 49 54  1  0
  3 59  1  1
  6 60  1  6
 10 61  1  0
 10 62  1  0
 11 63  1  0
 11 64  1  0
 12 65  1  0
 12 66  1  0
 15 67  1  0
 16 68  1  0
 16 69  1  0
 17 70  1  0
 18 71  1  0
 18 72  1  0
 19 73  1  0
 21 74  1  0
 21 75  1  0
 21 76  1  0
 23 77  1  0
 23 78  1  0
 23 79  1  0
 26 80  1  6
 29 81  1  1
 33 82  1  0
 33 83  1  0
 34 84  1  0
 34 85  1  0
 35 86  1  0
 35 87  1  0
 38 88  1  0
 39 89  1  0
 39 90  1  0
 40 91  1  0
 41 92  1  0
 41 93  1  0
 42 94  1  0
 44 95  1  0
 44 96  1  0
 44 97  1  0
 46 98  1  0
 46 99  1  0
 46100  1  0
 53101  1  0
 54102  1  0
 55103  1  0
 56104  1  0
 57105  1  0
 58106  1  0
M  END
> <Uni-Dock RESULT> 
ENERGY=   -5.713  LOWER_BOUND=    3.847  UPPER_BOUND=    6.609
INTER + INTRA:          -5.713
INTER:                  -5.713
INTRA:                   0.000
UNBOUND:                 0.000

$$$$

     RDKit          3D

106114  0  0  0  0  0  0  0  0999 V2000
   47.9019   11.9718   19.5917 C   0  0  2  0  0  0  0  0  0  0  0  0
   48.9032   12.9038   20.2855 C   0  0  2  0  0  0  0  0  0  0  0  0
   47.1104   10.9904   20.4652 C   0  0  1  0  0  0  0  0  0  0  0  0
   46.8618    9.8043   19.6447 O   0  0  0  0  0  0  0  0  0  0  0  0
   48.6366   10.9550   18.7899 C   0  0  0  0  0  0  0  0  0  0  0  0
   49.7868   13.5279   19.1487 C   0  0  2  0  0  0  0  0  0  0  0  0
   47.9590    9.7507   18.8115 C   0  0  0  0  0  0  0  0  0  0  0  0
   49.8400   11.1434   18.1405 C   0  0  0  0  0  0  0  0  0  0  0  0
   48.8682   14.4131   18.3634 N   0  0  0  0  0  0  0  0  0  0  0  0
   50.5749   12.4446   18.3313 C   0  0  0  0  0  0  0  0  0  0  0  0
   46.9870   12.7861   18.6452 C   0  0  0  0  0  0  0  0  0  0  0  0
   49.6989   12.1987   21.3884 C   0  0  0  0  0  0  0  0  0  0  0  0
   47.8363   10.5683   21.7565 C   0  0  0  0  0  0  0  0  0  0  0  0
   48.4167    8.6655   18.0900 C   0  0  0  0  0  0  0  0  0  0  0  0
   50.3285   10.0603   17.4131 C   0  0  0  0  0  0  0  0  0  0  0  0
   47.7927   13.6739   17.6810 C   0  0  0  0  0  0  0  0  0  0  0  0
   49.6135    8.8386   17.3748 C   0  0  0  0  0  0  0  0  0  0  0  0
   48.7536   11.5763   22.4096 C   0  0  0  0  0  0  0  0  0  0  0  0
   48.1845   13.9703   20.9408 O   0  0  0  0  0  0  0  0  0  0  0  0
   47.6328    9.4822   22.3050 O   0  0  0  0  0  0  0  0  0  0  0  0
   49.5824   15.2753   17.4227 C   0  0  0  0  0  0  0  0  0  0  0  0
   47.6690    7.5276   18.1458 O   0  0  0  0  0  0  0  0  0  0  0  0
   48.2244    6.3603   17.5570 C   0  0  0  0  0  0  0  0  0  0  0  0
   49.6586   11.6754   18.6181 C   0  0  2  0  0  0  0  0  0  0  0  0
   49.1105   13.0342   18.1776 C   0  0  2  0  0  0  0  0  0  0  0  0
   50.0712   10.6687   17.5338 C   0  0  1  0  0  0  0  0  0  0  0  0
   49.8344    9.3353   18.0803 O   0  0  0  0  0  0  0  0  0  0  0  0
   48.5455   10.8572   19.1914 C   0  0  0  0  0  0  0  0  0  0  0  0
   48.4377   13.6540   19.4639 C   0  0  2  0  0  0  0  0  0  0  0  0
   48.7435    9.5189   18.9035 C   0  0  0  0  0  0  0  0  0  0  0  0
   47.4332   11.3284   19.8633 C   0  0  0  0  0  0  0  0  0  0  0  0
   49.3552   13.7265   20.6330 N   0  0  0  0  0  0  0  0  0  0  0  0
   47.2025   12.8165   19.9366 C   0  0  0  0  0  0  0  0  0  0  0  0
   50.7598   11.8559   19.6979 C   0  0  0  0  0  0  0  0  0  0  0  0
   48.1695   12.9248   16.9671 C   0  0  0  0  0  0  0  0  0  0  0  0
   49.3050   10.8261   16.2056 C   0  0  0  0  0  0  0  0  0  0  0  0
   47.8824    8.5493   19.3817 C   0  0  0  0  0  0  0  0  0  0  0  0
   46.5382   10.3721   20.3404 C   0  0  0  0  0  0  0  0  0  0  0  0
   50.7086   13.2186   20.4110 C   0  0  0  0  0  0  0  0  0  0  0  0
   46.7734    8.9941   20.1196 C   0  0  0  0  0  0  0  0  0  0  0  0
   48.8674   12.2182   15.8090 C   0  0  0  0  0  0  0  0  0  0  0  0
   50.2019   13.8567   17.7211 O   0  0  0  0  0  0  0  0  0  0  0  0
   49.1201    9.8849   15.4301 O   0  0  0  0  0  0  0  0  0  0  0  0
   49.3716   15.0462   21.2550 C   0  0  0  0  0  0  0  0  0  0  0  0
   48.1816    7.2552   19.0753 O   0  0  0  0  0  0  0  0  0  0  0  0
   47.2939    6.2561   19.5538 C   0  0  0  0  0  0  0  0  0  0  0  0
   49.0944   14.3173   19.7625 C   0  0  0  0  0  0  0  0  0  0  0  0
   48.1363    8.8293   18.2481 C   0  0  0  0  0  0  0  0  0  0  0  0
   48.3807   10.2327   18.6601 C   0  0  0  0  0  0  0  0  0  0  0  0
   48.8460   12.9144   19.3494 C   0  0  0  0  0  0  0  0  0  0  0  0
   48.0442    8.4293   17.1026 O   0  0  0  0  0  0  0  0  0  0  0  0
   49.1885   14.7164   20.9082 O   0  0  0  0  0  0  0  0  0  0  0  0
   48.7552   12.5404   18.0026 C   0  0  0  0  0  0  0  0  0  0  0  0
   48.5235   11.2038   17.6604 C   0  0  0  0  0  0  0  0  0  0  0  0
   48.7042   11.9431   20.3494 C   0  0  0  0  0  0  0  0  0  0  0  0
   48.4731   10.6068   20.0065 C   0  0  0  0  0  0  0  0  0  0  0  0
   49.2120   15.1545   18.7173 O   0  0  0  0  0  0  0  0  0  0  0  0
   48.0154    7.9935   19.2940 O   0  0  0  0  0  0  0  0  0  0  0  0
   46.1445   11.4114   20.7676 H   0  0  0  0  0  0  0  0  0  0  0  0
   50.5201   14.1945   19.6228 H   0  0  0  0  0  0  0  0  0  0  0  0
   51.4949   12.2176   18.8860 H   0  0  0  0  0  0  0  0  0  0  0  0
   50.8880   12.8352   17.3582 H   0  0  0  0  0  0  0  0  0  0  0  0
   46.3328   12.1314   18.0544 H   0  0  0  0  0  0  0  0  0  0  0  0
   46.3194   13.4220   19.2415 H   0  0  0  0  0  0  0  0  0  0  0  0
   50.3574   11.4234   20.9820 H   0  0  0  0  0  0  0  0  0  0  0  0
   50.3374   12.9246   21.9069 H   0  0  0  0  0  0  0  0  0  0  0  0
   51.2717   10.1384   16.8767 H   0  0  0  0  0  0  0  0  0  0  0  0
   48.1933   13.0671   16.8597 H   0  0  0  0  0  0  0  0  0  0  0  0
   47.0947   14.3865   17.2239 H   0  0  0  0  0  0  0  0  0  0  0  0
   50.0346    8.0301   16.7845 H   0  0  0  0  0  0  0  0  0  0  0  0
   49.3427   11.0647   23.1791 H   0  0  0  0  0  0  0  0  0  0  0  0
   48.1368   12.3293   22.9102 H   0  0  0  0  0  0  0  0  0  0  0  0
   48.1002   14.6739   20.2598 H   0  0  0  0  0  0  0  0  0  0  0  0
   50.0323   14.7198   16.5939 H   0  0  0  0  0  0  0  0  0  0  0  0
   48.8971   16.0173   16.9971 H   0  0  0  0  0  0  0  0  0  0  0  0
   50.3708   15.8383   17.9335 H   0  0  0  0  0  0  0  0  0  0  0  0
   47.5416    5.5279   17.7535 H   0  0  0  0  0  0  0  0  0  0  0  0
   48.3106    6.4709   16.4713 H   0  0  0  0  0  0  0  0  0  0  0  0
   49.1914    6.1098   18.0062 H   0  0  0  0  0  0  0  0  0  0  0  0
   51.1359   10.7549   17.2859 H   0  0  0  0  0  0  0  0  0  0  0  0
   48.0939   14.6658   19.2103 H   0  0  0  0  0  0  0  0  0  0  0  0
   46.3503   13.0581   19.2890 H   0  0  0  0  0  0  0  0  0  0  0  0
   46.9125   13.0978   20.9570 H   0  0  0  0  0  0  0  0  0  0  0  0
   51.7522   11.7748   19.2358 H   0  0  0  0  0  0  0  0  0  0  0  0
   50.7103   11.0592   20.4522 H   0  0  0  0  0  0  0  0  0  0  0  0
   47.8769   13.9283   16.6336 H   0  0  0  0  0  0  0  0  0  0  0  0
   47.2477   12.3860   17.2081 H   0  0  0  0  0  0  0  0  0  0  0  0
   45.6437   10.6776   20.8788 H   0  0  0  0  0  0  0  0  0  0  0  0
   51.3077   13.9464   19.8498 H   0  0  0  0  0  0  0  0  0  0  0  0
   51.2176   13.1077   21.3771 H   0  0  0  0  0  0  0  0  0  0  0  0
   46.0477    8.2921   20.5189 H   0  0  0  0  0  0  0  0  0  0  0  0
   48.1721   12.1372   14.9657 H   0  0  0  0  0  0  0  0  0  0  0  0
   49.7466   12.7701   15.4604 H   0  0  0  0  0  0  0  0  0  0  0  0
   49.9636   14.7871   17.8873 H   0  0  0  0  0  0  0  0  0  0  0  0
   49.7967   15.8048   20.5889 H   0  0  0  0  0  0  0  0  0  0  0  0
   48.3580   15.3563   21.5312 H   0  0  0  0  0  0  0  0  0  0  0  0
   49.9573   15.0321   22.1805 H   0  0  0  0  0  0  0  0  0  0  0  0
   47.2594    6.2495   20.6481 H   0  0  0  0  0  0  0  0  0  0  0  0
   46.2931    6.3798   19.1277 H   0  0  0  0  0  0  0  0  0  0  0  0
   47.6757    5.2839   19.2280 H   0  0  0  0  0  0  0  0  0  0  0  0
   48.8624   13.2800   17.2120 H   0  0  0  0  0  0  0  0  0  0  0  0
   48.4547   10.9243   16.6103 H   0  0  0  0  0  0  0  0  0  0  0  0
   48.7720   12.2220   21.3998 H   0  0  0  0  0  0  0  0  0  0  0  0
   48.3668    9.8674   20.7971 H   0  0  0  0  0  0  0  0  0  0  0  0
   49.3694   16.0293   19.1306 H   0  0  0  0  0  0  0  0  0  0  0  0
   47.8593    7.1188   18.8799 H   0  0  0  0  0  0  0  0  0  0  0  0
 14  7  2  0
 15  8  1  0
 16 11  1  0
 17 15  2  0
 18 13  1  0
  2 19  1  1
 20 13  2  0
 21  9  1  0
  4  7  1  0
 16  9  1  0
  6 10  1  0
 18 12  1  0
 17 14  1  0
 14 22  1  0
 22 23  1  0
  2  1  1  0
  3  1  1  0
  3  4  1  0
  5  1  1  0
  6  2  1  0
  7  5  1  0
  8  5  2  0
  6  9  1  0
 10  8  1  0
  1 11  1  1
 12  2  1  0
 13  3  1  0
 37 30  2  0
 38 31  1  0
 39 34  1  0
 40 38  2  0
 41 36  1  0
 25 42  1  6
 43 36  2  0
 44 32  1  0
 27 30  1  0
 39 32  1  0
 29 33  1  0
 41 35  1  0
 40 37  1  0
 37 45  1  0
 45 46  1  0
 25 24  1  0
 26 24  1  0
 26 27  1  0
 28 24  1  0
 29 25  1  0
 30 28  1  0
 31 28  2  0
 29 32  1  0
 33 31  1  0
 24 34  1  6
 35 25  1  0
 36 26  1  0
 48 49  1  0
 49 56  2  0
 50 47  1  0
 51 48  2  0
 52 47  2  0
 53 50  1  0
 54 53  2  0
 55 50  2  0
 56 55  1  0
 57 47  1  0
 58 48  1  0
 49 54  1  0
  3 59  1  1
  6 60  1  6
 10 61  1  0
 10 62  1  0
 11 63  1  0
 11 64  1  0
 12 65  1  0
 12 66  1  0
 15 67  1  0
 16 68  1  0
 16 69  1  0
 17 70  1  0
 18 71  1  0
 18 72  1  0
 19 73  1  0
 21 74  1  0
 21 75  1  0
 21 76  1  0
 23 77  1  0
 23 78  1  0
 23 79  1  0
 26 80  1  6
 29 81  1  1
 33 82  1  0
 33 83  1  0
 34 84  1  0
 34 85  1  0
 35 86  1  0
 35 87  1  0
 38 88  1  0
 39 89  1  0
 39 90  1  0
 40 91  1  0
 41 92  1  0
 41 93  1  0
 42 94  1  0
 44 95  1  0
 44 96  1  0
 44 97  1  0
 46 98  1  0
 46 99  1  0
 46100  1  0
 53101  1  0
 54102  1  0
 55103  1  0
 56104  1  0
 57105  1  0
 58106  1  0
M  END
> <Uni-Dock RESULT> 
ENERGY=   -5.536  LOWER_BOUND=    4.555  UPPER_BOUND=    7.440
INTER + INTRA:          -5.536
INTER:                  -5.536
INTRA:                   0.000
UNBOUND:                 0.000

$$$$

     RDKit          3D

106114  0  0  0  0  0  0  0  0999 V2000
   48.5220    9.6347   13.4292 C   0  0  2  0  0  0  0  0  0  0  0  0
   49.9302    9.2641   12.9473 C   0  0  2  0  0  0  0  0  0  0  0  0
   47.4282    8.5631   13.3419 C   0  0  1  0  0  0  0  0  0  0  0  0
   46.1673    9.2680   13.1072 O   0  0  0  0  0  0  0  0  0  0  0  0
   47.9072   10.6044   12.4813 C   0  0  0  0  0  0  0  0  0  0  0  0
   50.7266   10.6114   12.8320 C   0  0  2  0  0  0  0  0  0  0  0  0
   46.5470   10.3796   12.3853 C   0  0  0  0  0  0  0  0  0  0  0  0
   48.5750   11.5723   11.7584 C   0  0  0  0  0  0  0  0  0  0  0  0
   50.8838   11.1088   14.2362 N   0  0  0  0  0  0  0  0  0  0  0  0
   50.0802   11.6107   11.8090 C   0  0  0  0  0  0  0  0  0  0  0  0
   48.5955   10.2871   14.8309 C   0  0  0  0  0  0  0  0  0  0  0  0
   49.9135    8.4288   11.6633 C   0  0  0  0  0  0  0  0  0  0  0  0
   47.6455    7.5296   12.2206 C   0  0  0  0  0  0  0  0  0  0  0  0
   45.7463   11.1926   11.6070 C   0  0  0  0  0  0  0  0  0  0  0  0
   47.7908   12.3997   10.9576 C   0  0  0  0  0  0  0  0  0  0  0  0
   49.6029   11.4490   14.8784 C   0  0  0  0  0  0  0  0  0  0  0  0
   46.3873   12.2215   10.8968 C   0  0  0  0  0  0  0  0  0  0  0  0
   49.0688    7.1746   11.8571 C   0  0  0  0  0  0  0  0  0  0  0  0
   50.5719    8.4398   13.9434 O   0  0  0  0  0  0  0  0  0  0  0  0
   46.7102    6.9365   11.6772 O   0  0  0  0  0  0  0  0  0  0  0  0
   51.8268   12.2217   14.3387 C   0  0  0  0  0  0  0  0  0  0  0  0
   44.4121   10.9156   11.5951 O   0  0  0  0  0  0  0  0  0  0  0  0
   43.6127   11.6286   10.6621 C   0  0  0  0  0  0  0  0  0  0  0  0
   49.0091   11.0673   12.0756 C   0  0  2  0  0  0  0  0  0  0  0  0
   49.8104   11.3444   13.3492 C   0  0  2  0  0  0  0  0  0  0  0  0
   48.1942   12.2157   11.4619 C   0  0  1  0  0  0  0  0  0  0  0  0
   47.0323   11.6129   10.8143 O   0  0  0  0  0  0  0  0  0  0  0  0
   47.8421   10.1927   12.4078 C   0  0  0  0  0  0  0  0  0  0  0  0
   50.1977    9.9247   13.9202 C   0  0  2  0  0  0  0  0  0  0  0  0
   46.7642   10.5138   11.6026 C   0  0  0  0  0  0  0  0  0  0  0  0
   47.7825    9.2350   13.4027 C   0  0  0  0  0  0  0  0  0  0  0  0
   50.9116    9.0674   12.9356 N   0  0  0  0  0  0  0  0  0  0  0  0
   48.9363    9.1115   14.3652 C   0  0  0  0  0  0  0  0  0  0  0  0
   49.8935   10.3490   11.0205 C   0  0  0  0  0  0  0  0  0  0  0  0
   49.0468   12.2343   14.3429 C   0  0  0  0  0  0  0  0  0  0  0  0
   47.7264   13.2707   12.4838 C   0  0  0  0  0  0  0  0  0  0  0  0
   45.5820    9.8011   11.6722 C   0  0  0  0  0  0  0  0  0  0  0  0
   46.5942    8.5137   13.5071 C   0  0  0  0  0  0  0  0  0  0  0  0
   51.1343    9.6627   11.6185 C   0  0  0  0  0  0  0  0  0  0  0  0
   45.5123    8.7808   12.6346 C   0  0  0  0  0  0  0  0  0  0  0  0
   48.6191   13.5376   13.6748 C   0  0  0  0  0  0  0  0  0  0  0  0
   50.9886   12.1009   13.0091 O   0  0  0  0  0  0  0  0  0  0  0  0
   46.7124   13.9528   12.3170 O   0  0  0  0  0  0  0  0  0  0  0  0
   52.1358    8.4874   13.4773 C   0  0  0  0  0  0  0  0  0  0  0  0
   44.5901   10.1692   10.8127 O   0  0  0  0  0  0  0  0  0  0  0  0
   43.3694    9.4483   10.8881 C   0  0  0  0  0  0  0  0  0  0  0  0
   51.1404    9.8320   13.6689 C   0  0  0  0  0  0  0  0  0  0  0  0
   45.7676   10.9623   11.8844 C   0  0  0  0  0  0  0  0  0  0  0  0
   47.1452   10.6494   12.3354 C   0  0  0  0  0  0  0  0  0  0  0  0
   49.7611   10.1448   13.2218 C   0  0  0  0  0  0  0  0  0  0  0  0
   45.1999   12.0302   12.0184 O   0  0  0  0  0  0  0  0  0  0  0  0
   51.7084    8.7645   13.5328 O   0  0  0  0  0  0  0  0  0  0  0  0
   49.1840   11.4062   13.4164 C   0  0  0  0  0  0  0  0  0  0  0  0
   47.8805   11.6565   12.9740 C   0  0  0  0  0  0  0  0  0  0  0  0
   49.0261    9.1378   12.5821 C   0  0  0  0  0  0  0  0  0  0  0  0
   47.7232    9.3888   12.1396 C   0  0  0  0  0  0  0  0  0  0  0  0
   51.7424   10.8743   14.2677 O   0  0  0  0  0  0  0  0  0  0  0  0
   45.1653    9.9183   11.2890 O   0  0  0  0  0  0  0  0  0  0  0  0
   47.3417    8.0007   14.2790 H   0  0  0  0  0  0  0  0  0  0  0  0
   51.7389   10.3725   12.4786 H   0  0  0  0  0  0  0  0  0  0  0  0
   50.4440   11.3402   10.8090 H   0  0  0  0  0  0  0  0  0  0  0  0
   50.4150   12.6360   11.9939 H   0  0  0  0  0  0  0  0  0  0  0  0
   47.6148   10.6605   15.1541 H   0  0  0  0  0  0  0  0  0  0  0  0
   48.8893    9.5303   15.5702 H   0  0  0  0  0  0  0  0  0  0  0  0
   49.5273    8.9998   10.8120 H   0  0  0  0  0  0  0  0  0  0  0  0
   50.9350    8.1206   11.4080 H   0  0  0  0  0  0  0  0  0  0  0  0
   48.2509   13.1840   10.3604 H   0  0  0  0  0  0  0  0  0  0  0  0
   49.1622   12.3453   14.4249 H   0  0  0  0  0  0  0  0  0  0  0  0
   49.7785   11.6935   15.9335 H   0  0  0  0  0  0  0  0  0  0  0  0
   45.8232   12.9006   10.2644 H   0  0  0  0  0  0  0  0  0  0  0  0
   49.0578    6.6013   10.9232 H   0  0  0  0  0  0  0  0  0  0  0  0
   49.4723    6.5250   12.6402 H   0  0  0  0  0  0  0  0  0  0  0  0
   51.0161    9.0743   14.5484 H   0  0  0  0  0  0  0  0  0  0  0  0
   51.4534   13.1398   13.8743 H   0  0  0  0  0  0  0  0  0  0  0  0
   52.0387   12.4400   15.3917 H   0  0  0  0  0  0  0  0  0  0  0  0
   52.7854   11.9626   13.8768 H   0  0  0  0  0  0  0  0  0  0  0  0
   42.5925   11.2380   10.7269 H   0  0  0  0  0  0  0  0  0  0  0  0
   43.5773   12.6946   10.9090 H   0  0  0  0  0  0  0  0  0  0  0  0
   43.9637   11.4725    9.6365 H   0  0  0  0  0  0  0  0  0  0  0  0
   48.7688   12.7583   10.7018 H   0  0  0  0  0  0  0  0  0  0  0  0
   50.8389   10.0781   14.7986 H   0  0  0  0  0  0  0  0  0  0  0  0
   48.6045    9.4904   15.3400 H   0  0  0  0  0  0  0  0  0  0  0  0
   49.1894    8.0532   14.5081 H   0  0  0  0  0  0  0  0  0  0  0  0
   50.2557   11.0748   10.2810 H   0  0  0  0  0  0  0  0  0  0  0  0
   49.3141    9.6052   10.4573 H   0  0  0  0  0  0  0  0  0  0  0  0
   49.6943   12.4788   15.1943 H   0  0  0  0  0  0  0  0  0  0  0  0
   48.1605   11.7352   14.7476 H   0  0  0  0  0  0  0  0  0  0  0  0
   46.4838    7.7447   14.2685 H   0  0  0  0  0  0  0  0  0  0  0  0
   51.9654   10.3779   11.6528 H   0  0  0  0  0  0  0  0  0  0  0  0
   51.4529    8.8815   10.9164 H   0  0  0  0  0  0  0  0  0  0  0  0
   44.6128    8.1846   12.7554 H   0  0  0  0  0  0  0  0  0  0  0  0
   48.0629   14.1461   14.3970 H   0  0  0  0  0  0  0  0  0  0  0  0
   49.4776   14.1276   13.3374 H   0  0  0  0  0  0  0  0  0  0  0  0
   51.6813   11.8814   13.6587 H   0  0  0  0  0  0  0  0  0  0  0  0
   52.8879    9.2537   13.6943 H   0  0  0  0  0  0  0  0  0  0  0  0
   51.9271    7.9356   14.4003 H   0  0  0  0  0  0  0  0  0  0  0  0
   52.5690    7.7679   12.7741 H   0  0  0  0  0  0  0  0  0  0  0  0
   43.5206    8.3898   10.6525 H   0  0  0  0  0  0  0  0  0  0  0  0
   42.8977    9.5716   11.8682 H   0  0  0  0  0  0  0  0  0  0  0  0
   42.6888    9.8613   10.1376 H   0  0  0  0  0  0  0  0  0  0  0  0
   49.7386   12.2008   13.9110 H   0  0  0  0  0  0  0  0  0  0  0  0
   47.4418   12.6406   13.1307 H   0  0  0  0  0  0  0  0  0  0  0  0
   49.4639    8.1530   12.4259 H   0  0  0  0  0  0  0  0  0  0  0  0
   47.1692    8.5946   11.6444 H   0  0  0  0  0  0  0  0  0  0  0  0
   52.6286   10.5308   14.5075 H   0  0  0  0  0  0  0  0  0  0  0  0
   44.2798   10.2631   11.0484 H   0  0  0  0  0  0  0  0  0  0  0  0
 14  7  2  0
 15  8  1  0
 16 11  1  0
 17 15  2  0
 18 13  1  0
  2 19  1  1
 20 13  2  0
 21  9  1  0
  4  7  1  0
 16  9  1  0
  6 10  1  0
 18 12  1  0
 17 14  1  0
 14 22  1  0
 22 23  1  0
  2  1  1  0
  3  1  1  0
  3  4  1  0
  5  1  1  0
  6  2  1  0
  7  5  1  0
  8  5  2  0
  6  9  1  0
 10  8  1  0
  1 11  1  1
 12  2  1  0
 13  3  1  0
 37 30  2  0
 38 31  1  0
 39 34  1  0
 40 38  2  0
 41 36  1  0
 25 42  1  6
 43 36  2  0
 44 32  1  0
 27 30  1  0
 39 32  1  0
 29 33  1  0
 41 35  1  0
 40 37  1  0
 37 45  1  0
 45 46  1  0
 25 24  1  0
 26 24  1  0
 26 27  1  0
 28 24  1  0
 29 25  1  0
 30 28  1  0
 31 28  2  0
 29 32  1  0
 33 31  1  0
 24 34  1  6
 35 25  1  0
 36 26  1  0
 48 49  1  0
 49 56  2  0
 50 47  1  0
 51 48  2  0
 52 47  2  0
 53 50  1  0
 54 53  2  0
 55 50  2  0
 56 55  1  0
 57 47  1  0
 58 48  1  0
 49 54  1  0
  3 59  1  1
  6 60  1  6
 10 61  1  0
 10 62  1  0
 11 63  1  0
 11 64  1  0
 12 65  1  0
 12 66  1  0
 15 67  1  0
 16 68  1  0
 16 69  1  0
 17 70  1  0
 18 71  1  0
 18 72  1  0
 19 73  1  0
 21 74  1  0
 21 75  1  0
 21 76  1  0
 23 77  1  0
 23 78  1  0
 23 79  1  0
 26 80  1  6
 29 81  1  1
 33 82  1  0
 33 83  1  0
 34 84  1  0
 34 85  1  0
 35 86  1  0
 35 87  1  0
 38 88  1  0
 39 89  1  0
 39 90  1  0
 40 91  1  0
 41 92  1  0
 41 93  1  0
 42 94  1  0
 44 95  1  0
 44 96  1  0
 44 97  1  0
 46 98  1  0
 46 99  1  0
 46100  1  0
 53101  1  0
 54102  1  0
 55103  1  0
 56104  1  0
 57105  1  0
 58106  1  0
M  END
> <Uni-Dock RESULT> 
ENERGY=   -5.476  LOWER_BOUND=    7.122  UPPER_BOUND=   10.499
INTER + INTRA:          -5.476
INTER:                  -5.476
INTRA:                   0.000
UNBOUND:                 0.000

$$$$

     RDKit          3D

106114  0  0  0  0  0  0  0  0999 V2000
   47.8656    9.5170   21.1294 C   0  0  2  0  0  0  0  0  0  0  0  0
   48.7677   10.4083   21.9921 C   0  0  2  0  0  0  0  0  0  0  0  0
   47.6225    8.0762   21.5957 C   0  0  1  0  0  0  0  0  0  0  0  0
   47.4425    7.2687   20.3885 O   0  0  0  0  0  0  0  0  0  0  0  0
   48.5609    9.1844   19.8555 C   0  0  0  0  0  0  0  0  0  0  0  0
   49.1067   11.6689   21.1210 C   0  0  2  0  0  0  0  0  0  0  0  0
   48.2312    7.9041   19.4530 C   0  0  0  0  0  0  0  0  0  0  0  0
   49.4423    9.9975   19.1718 C   0  0  0  0  0  0  0  0  0  0  0  0
   47.8147   12.4105   20.9643 N   0  0  0  0  0  0  0  0  0  0  0  0
   49.8629   11.3027   19.7955 C   0  0  0  0  0  0  0  0  0  0  0  0
   46.5477   10.2582   20.7985 C   0  0  0  0  0  0  0  0  0  0  0  0
   49.9941    9.6632   22.5284 C   0  0  0  0  0  0  0  0  0  0  0  0
   48.7701    7.4824   22.4343 C   0  0  0  0  0  0  0  0  0  0  0  0
   48.7095    7.3883   18.2644 C   0  0  0  0  0  0  0  0  0  0  0  0
   49.9470    9.4961   17.9740 C   0  0  0  0  0  0  0  0  0  0  0  0
   46.8004   11.6564   20.2084 C   0  0  0  0  0  0  0  0  0  0  0  0
   49.5696    8.2102   17.5169 C   0  0  0  0  0  0  0  0  0  0  0  0
   49.5642    8.4258   23.3081 C   0  0  0  0  0  0  0  0  0  0  0  0
   48.0330   10.8434   23.1559 O   0  0  0  0  0  0  0  0  0  0  0  0
   49.0030    6.2716   22.4732 O   0  0  0  0  0  0  0  0  0  0  0  0
   47.9956   13.7467   20.3984 C   0  0  0  0  0  0  0  0  0  0  0  0
   48.3087    6.1288   17.9325 O   0  0  0  0  0  0  0  0  0  0  0  0
   48.9358    5.5264   16.8093 C   0  0  0  0  0  0  0  0  0  0  0  0
   49.2834   10.2193   19.8571 C   0  0  2  0  0  0  0  0  0  0  0  0
   48.3194   11.3697   20.1541 C   0  0  2  0  0  0  0  0  0  0  0  0
   49.5962    9.8898   18.3898 C   0  0  1  0  0  0  0  0  0  0  0  0
   49.8577    8.4546   18.3234 O   0  0  0  0  0  0  0  0  0  0  0  0
   48.6162    8.9206   20.1817 C   0  0  0  0  0  0  0  0  0  0  0  0
   47.9175   11.2013   21.6713 C   0  0  2  0  0  0  0  0  0  0  0  0
   49.0405    7.9374   19.3063 C   0  0  0  0  0  0  0  0  0  0  0  0
   47.6658    8.7006   21.1611 C   0  0  0  0  0  0  0  0  0  0  0  0
   49.0876   11.1456   22.5889 N   0  0  0  0  0  0  0  0  0  0  0  0
   47.1129    9.8814   21.9181 C   0  0  0  0  0  0  0  0  0  0  0  0
   50.5715   10.3526   20.7139 C   0  0  0  0  0  0  0  0  0  0  0  0
   47.1247   11.4007   19.1875 C   0  0  0  0  0  0  0  0  0  0  0  0
   48.4647   10.2546   17.4086 C   0  0  0  0  0  0  0  0  0  0  0  0
   48.6159    6.6289   19.4399 C   0  0  0  0  0  0  0  0  0  0  0  0
   47.2062    7.3925   21.3050 C   0  0  0  0  0  0  0  0  0  0  0  0
   50.4000   11.2501   21.9521 C   0  0  0  0  0  0  0  0  0  0  0  0
   47.6941    6.3629   20.4655 C   0  0  0  0  0  0  0  0  0  0  0  0
   47.6077   11.4553   17.7413 C   0  0  0  0  0  0  0  0  0  0  0  0
   48.9992   12.6215   19.9380 O   0  0  0  0  0  0  0  0  0  0  0  0
   48.2975    9.6640   16.3387 O   0  0  0  0  0  0  0  0  0  0  0  0
   48.9627   12.0626   23.7168 C   0  0  0  0  0  0  0  0  0  0  0  0
   49.1180    5.7252   18.5514 O   0  0  0  0  0  0  0  0  0  0  0  0
   48.6759    4.3820   18.6766 C   0  0  0  0  0  0  0  0  0  0  0  0
   48.4515   11.8886   22.1218 C   0  0  0  0  0  0  0  0  0  0  0  0
   48.4558    7.3759   18.5211 C   0  0  0  0  0  0  0  0  0  0  0  0
   48.4613    8.5206   19.4639 C   0  0  0  0  0  0  0  0  0  0  0  0
   48.4418   10.7434   21.1790 C   0  0  0  0  0  0  0  0  0  0  0  0
   48.1365    7.4214   17.3478 O   0  0  0  0  0  0  0  0  0  0  0  0
   48.7729   11.8429   23.2946 O   0  0  0  0  0  0  0  0  0  0  0  0
   48.0593   10.8861   19.8391 C   0  0  0  0  0  0  0  0  0  0  0  0
   48.0696    9.7778   18.9854 C   0  0  0  0  0  0  0  0  0  0  0  0
   48.8345    9.4862   21.6574 C   0  0  0  0  0  0  0  0  0  0  0  0
   48.8451    8.3787   20.8032 C   0  0  0  0  0  0  0  0  0  0  0  0
   48.0557   13.0382   21.5483 O   0  0  0  0  0  0  0  0  0  0  0  0
   48.8483    6.2261   19.0965 O   0  0  0  0  0  0  0  0  0  0  0  0
   46.7132    7.9991   22.2032 H   0  0  0  0  0  0  0  0  0  0  0  0
   49.7614   12.3203   21.7157 H   0  0  0  0  0  0  0  0  0  0  0  0
   50.9303   11.2156   20.0381 H   0  0  0  0  0  0  0  0  0  0  0  0
   49.7773   12.1063   19.0577 H   0  0  0  0  0  0  0  0  0  0  0  0
   45.9296    9.6870   20.0932 H   0  0  0  0  0  0  0  0  0  0  0  0
   45.9475   10.3602   21.7122 H   0  0  0  0  0  0  0  0  0  0  0  0
   50.6744    9.3675   21.7224 H   0  0  0  0  0  0  0  0  0  0  0  0
   50.5595   10.3173   23.2037 H   0  0  0  0  0  0  0  0  0  0  0  0
   50.6468   10.0834   17.3834 H   0  0  0  0  0  0  0  0  0  0  0  0
   47.0812   11.5715   19.1514 H   0  0  0  0  0  0  0  0  0  0  0  0
   45.8493   12.2031   20.2303 H   0  0  0  0  0  0  0  0  0  0  0  0
   49.9850    7.8727   16.5719 H   0  0  0  0  0  0  0  0  0  0  0  0
   50.4560    7.9005   23.6681 H   0  0  0  0  0  0  0  0  0  0  0  0
   48.9551    8.6816   24.1807 H   0  0  0  0  0  0  0  0  0  0  0  0
   47.5878   11.6742   22.8776 H   0  0  0  0  0  0  0  0  0  0  0  0
   48.3075   13.7258   19.3496 H   0  0  0  0  0  0  0  0  0  0  0  0
   47.0583   14.3115   20.4590 H   0  0  0  0  0  0  0  0  0  0  0  0
   48.7370   14.3140   20.9712 H   0  0  0  0  0  0  0  0  0  0  0  0
   48.5617    4.5013   16.7258 H   0  0  0  0  0  0  0  0  0  0  0  0
   48.6753    6.0521   15.8850 H   0  0  0  0  0  0  0  0  0  0  0  0
   50.0219    5.4739   16.9408 H   0  0  0  0  0  0  0  0  0  0  0  0
   50.4899   10.4191   18.0381 H   0  0  0  0  0  0  0  0  0  0  0  0
   47.2808   12.0523   21.9479 H   0  0  0  0  0  0  0  0  0  0  0  0
   46.0780   10.0385   21.5891 H   0  0  0  0  0  0  0  0  0  0  0  0
   47.0709    9.6492   22.9899 H   0  0  0  0  0  0  0  0  0  0  0  0
   51.3769   10.7915   20.1109 H   0  0  0  0  0  0  0  0  0  0  0  0
   50.9365    9.3685   21.0374 H   0  0  0  0  0  0  0  0  0  0  0  0
   46.5143   12.2916   19.3816 H   0  0  0  0  0  0  0  0  0  0  0  0
   46.4709   10.5315   19.3109 H   0  0  0  0  0  0  0  0  0  0  0  0
   46.4592    7.1528   22.0586 H   0  0  0  0  0  0  0  0  0  0  0  0
   50.6165   12.2908   21.6808 H   0  0  0  0  0  0  0  0  0  0  0  0
   51.1773   10.9713   22.6751 H   0  0  0  0  0  0  0  0  0  0  0  0
   47.3072    5.3610   20.6255 H   0  0  0  0  0  0  0  0  0  0  0  0
   46.7397   11.4592   17.0723 H   0  0  0  0  0  0  0  0  0  0  0  0
   48.1877   12.3610   17.5355 H   0  0  0  0  0  0  0  0  0  0  0  0
   48.6011   13.2832   20.5328 H   0  0  0  0  0  0  0  0  0  0  0  0
   48.9803   13.1092   23.3942 H   0  0  0  0  0  0  0  0  0  0  0  0
   48.0286   11.8830   24.2598 H   0  0  0  0  0  0  0  0  0  0  0  0
   49.7760   11.9087   24.4343 H   0  0  0  0  0  0  0  0  0  0  0  0
   48.9616    3.9607   19.6459 H   0  0  0  0  0  0  0  0  0  0  0  0
   47.5959    4.3048   18.5151 H   0  0  0  0  0  0  0  0  0  0  0  0
   49.1709    3.7919   17.8995 H   0  0  0  0  0  0  0  0  0  0  0  0
   47.7512   11.8538   19.4491 H   0  0  0  0  0  0  0  0  0  0  0  0
   47.7703    9.9001   17.9457 H   0  0  0  0  0  0  0  0  0  0  0  0
   49.1332    9.3630   22.6973 H   0  0  0  0  0  0  0  0  0  0  0  0
   49.1541    7.4115   21.1930 H   0  0  0  0  0  0  0  0  0  0  0  0
   48.1090   13.6957   22.2734 H   0  0  0  0  0  0  0  0  0  0  0  0
   48.7960    5.5695   18.3705 H   0  0  0  0  0  0  0  0  0  0  0  0
 14  7  2  0
 15  8  1  0
 16 11  1  0
 17 15  2  0
 18 13  1  0
  2 19  1  1
 20 13  2  0
 21  9  1  0
  4  7  1  0
 16  9  1  0
  6 10  1  0
 18 12  1  0
 17 14  1  0
 14 22  1  0
 22 23  1  0
  2  1  1  0
  3  1  1  0
  3  4  1  0
  5  1  1  0
  6  2  1  0
  7  5  1  0
  8  5  2  0
  6  9  1  0
 10  8  1  0
  1 11  1  1
 12  2  1  0
 13  3  1  0
 37 30  2  0
 38 31  1  0
 39 34  1  0
 40 38  2  0
 41 36  1  0
 25 42  1  6
 43 36  2  0
 44 32  1  0
 27 30  1  0
 39 32  1  0
 29 33  1  0
 41 35  1  0
 40 37  1  0
 37 45  1  0
 45 46  1  0
 25 24  1  0
 26 24  1  0
 26 27  1  0
 28 24  1  0
 29 25  1  0
 30 28  1  0
 31 28  2  0
 29 32  1  0
 33 31  1  0
 24 34  1  6
 35 25  1  0
 36 26  1  0
 48 49  1  0
 49 56  2  0
 50 47  1  0
 51 48  2  0
 52 47  2  0
 53 50  1  0
 54 53  2  0
 55 50  2  0
 56 55  1  0
 57 47  1  0
 58 48  1  0
 49 54  1  0
  3 59  1  1
  6 60  1  6
 10 61  1  0
 10 62  1  0
 11 63  1  0
 11 64  1  0
 12 65  1  0
 12 66  1  0
 15 67  1  0
 16 68  1  0
 16 69  1  0
 17 70  1  0
 18 71  1  0
 18 72  1  0
 19 73  1  0
 21 74  1  0
 21 75  1  0
 21 76  1  0
 23 77  1  0
 23 78  1  0
 23 79  1  0
 26 80  1  6
 29 81  1  1
 33 82  1  0
 33 83  1  0
 34 84  1  0
 34 85  1  0
 35 86  1  0
 35 87  1  0
 38 88  1  0
 39 89  1  0
 39 90  1  0
 40 91  1  0
 41 92  1  0
 41 93  1  0
 42 94  1  0
 44 95  1  0
 44 96  1  0
 44 97  1  0
 46 98  1  0
 46 99  1  0
 46100  1  0
 53101  1  0
 54102  1  0
 55103  1  0
 56104  1  0
 57105  1  0
 58106  1  0
M  END
> <Uni-Dock RESULT> 
ENERGY=   -5.340  LOWER_BOUND=    3.445  UPPER_BOUND=    6.131
INTER + INTRA:          -5.340
INTER:                  -5.340
INTRA:                   0.000
UNBOUND:                 0.000

$$$$

     RDKit          3D

106114  0  0  0  0  0  0  0  0999 V2000
   44.6912   13.3384    9.0466 C   0  0  2  0  0  0  0  0  0  0  0  0
   44.0250   12.5495   10.1808 C   0  0  2  0  0  0  0  0  0  0  0  0
   44.3541   12.9439    7.6033 C   0  0  1  0  0  0  0  0  0  0  0  0
   45.5464   13.2235    6.8020 O   0  0  0  0  0  0  0  0  0  0  0  0
   46.1427   13.0107    8.9938 C   0  0  0  0  0  0  0  0  0  0  0  0
   44.7962   12.9274   11.4942 C   0  0  2  0  0  0  0  0  0  0  0  0
   46.5855   13.0185    7.6847 C   0  0  0  0  0  0  0  0  0  0  0  0
   46.9479   12.7011   10.0714 C   0  0  0  0  0  0  0  0  0  0  0  0
   44.4796   14.3695   11.7474 N   0  0  0  0  0  0  0  0  0  0  0  0
   46.3184   12.5507   11.4318 C   0  0  0  0  0  0  0  0  0  0  0  0
   44.5326   14.8582    9.2931 C   0  0  0  0  0  0  0  0  0  0  0  0
   43.9628   11.0456    9.8958 C   0  0  0  0  0  0  0  0  0  0  0  0
   43.9635   11.4642    7.4285 C   0  0  0  0  0  0  0  0  0  0  0  0
   47.9155   12.7986    7.3839 C   0  0  0  0  0  0  0  0  0  0  0  0
   48.2924   12.4652    9.7933 C   0  0  0  0  0  0  0  0  0  0  0  0
   44.9951   15.2693   10.7017 C   0  0  0  0  0  0  0  0  0  0  0  0
   48.7740   12.5309    8.4633 C   0  0  0  0  0  0  0  0  0  0  0  0
   43.2492   10.7850    8.5741 C   0  0  0  0  0  0  0  0  0  0  0  0
   42.6542   12.9800   10.3179 O   0  0  0  0  0  0  0  0  0  0  0  0
   44.1420   10.8533    6.3718 O   0  0  0  0  0  0  0  0  0  0  0  0
   44.9060   14.8169   13.0727 C   0  0  0  0  0  0  0  0  0  0  0  0
   48.2681   12.8543    6.0688 O   0  0  0  0  0  0  0  0  0  0  0  0
   49.5897   12.4531    5.7368 C   0  0  0  0  0  0  0  0  0  0  0  0
   46.2242   12.6991   10.2142 C   0  0  2  0  0  0  0  0  0  0  0  0
   45.5222   13.8377   10.9570 C   0  0  2  0  0  0  0  0  0  0  0  0
   47.7479   12.7747   10.0355 C   0  0  1  0  0  0  0  0  0  0  0  0
   48.0621   12.0990    8.7795 O   0  0  0  0  0  0  0  0  0  0  0  0
   45.8812   12.7737    8.7602 C   0  0  0  0  0  0  0  0  0  0  0  0
   43.9862   13.6652   10.6370 C   0  0  2  0  0  0  0  0  0  0  0  0
   46.9554   12.3527    7.9972 C   0  0  0  0  0  0  0  0  0  0  0  0
   44.7029   13.2434    8.2110 C   0  0  0  0  0  0  0  0  0  0  0  0
   43.4613   12.3142   10.9737 N   0  0  0  0  0  0  0  0  0  0  0  0
   43.6798   13.8801    9.1169 C   0  0  0  0  0  0  0  0  0  0  0  0
   45.7683   11.3228   10.7700 C   0  0  0  0  0  0  0  0  0  0  0  0
   46.0894   15.2181   10.5893 C   0  0  0  0  0  0  0  0  0  0  0  0
   48.3066   14.2110   10.0031 C   0  0  0  0  0  0  0  0  0  0  0  0
   46.8653   12.2676    6.6206 C   0  0  0  0  0  0  0  0  0  0  0  0
   44.5928   13.1863    6.8225 C   0  0  0  0  0  0  0  0  0  0  0  0
   44.4335   11.3764   11.5341 C   0  0  0  0  0  0  0  0  0  0  0  0
   45.6570   12.6824    6.0373 C   0  0  0  0  0  0  0  0  0  0  0  0
   47.5955   15.2590   10.8294 C   0  0  0  0  0  0  0  0  0  0  0  0
   45.7715   13.7026   12.3697 O   0  0  0  0  0  0  0  0  0  0  0  0
   49.3457   14.5060    9.4076 O   0  0  0  0  0  0  0  0  0  0  0  0
   42.2425   12.3671   11.7739 C   0  0  0  0  0  0  0  0  0  0  0  0
   47.9646   11.8071    5.9593 O   0  0  0  0  0  0  0  0  0  0  0  0
   47.8817   11.7290    4.5442 C   0  0  0  0  0  0  0  0  0  0  0  0
   43.6294   13.2687   11.4591 C   0  0  0  0  0  0  0  0  0  0  0  0
   47.5997   12.9404    7.2808 C   0  0  0  0  0  0  0  0  0  0  0  0
   46.5666   13.0086    8.3425 C   0  0  0  0  0  0  0  0  0  0  0  0
   44.6614   13.2041   10.3955 C   0  0  0  0  0  0  0  0  0  0  0  0
   48.6153   13.6090    7.2316 O   0  0  0  0  0  0  0  0  0  0  0  0
   42.6150   12.5984   11.5089 O   0  0  0  0  0  0  0  0  0  0  0  0
   45.8049   14.0128   10.4184 C   0  0  0  0  0  0  0  0  0  0  0  0
   46.7536   13.9143    9.3949 C   0  0  0  0  0  0  0  0  0  0  0  0
   44.4748   12.2975    9.3435 C   0  0  0  0  0  0  0  0  0  0  0  0
   45.4240   12.1991    8.3209 C   0  0  0  0  0  0  0  0  0  0  0  0
   43.9185   14.1733   12.4106 O   0  0  0  0  0  0  0  0  0  0  0  0
   47.3079   12.0381    6.3280 O   0  0  0  0  0  0  0  0  0  0  0  0
   43.5232   13.5399    7.2080 H   0  0  0  0  0  0  0  0  0  0  0  0
   44.3420   12.3662   12.3221 H   0  0  0  0  0  0  0  0  0  0  0  0
   46.4083   11.4934   11.7142 H   0  0  0  0  0  0  0  0  0  0  0  0
   46.8958   13.1184   12.1679 H   0  0  0  0  0  0  0  0  0  0  0  0
   45.0925   15.4474    8.5548 H   0  0  0  0  0  0  0  0  0  0  0  0
   43.4787   15.1397    9.1678 H   0  0  0  0  0  0  0  0  0  0  0  0
   44.9612   10.5961    9.8652 H   0  0  0  0  0  0  0  0  0  0  0  0
   43.4058   10.5396   10.6941 H   0  0  0  0  0  0  0  0  0  0  0  0
   48.9843   12.2156   10.5948 H   0  0  0  0  0  0  0  0  0  0  0  0
   46.0902   15.3234   10.7352 H   0  0  0  0  0  0  0  0  0  0  0  0
   44.6317   16.2879   10.8866 H   0  0  0  0  0  0  0  0  0  0  0  0
   49.8326   12.3481    8.3043 H   0  0  0  0  0  0  0  0  0  0  0  0
   43.2302    9.7061    8.3829 H   0  0  0  0  0  0  0  0  0  0  0  0
   42.2129   11.1371    8.5908 H   0  0  0  0  0  0  0  0  0  0  0  0
   42.6877   13.7330   10.9485 H   0  0  0  0  0  0  0  0  0  0  0  0
   45.9946   14.8614   13.1768 H   0  0  0  0  0  0  0  0  0  0  0  0
   44.5076   15.8170   13.2787 H   0  0  0  0  0  0  0  0  0  0  0  0
   44.5081   14.1581   13.8518 H   0  0  0  0  0  0  0  0  0  0  0  0
   49.6857   12.4826    4.6471 H   0  0  0  0  0  0  0  0  0  0  0  0
   50.3272   13.1458    6.1547 H   0  0  0  0  0  0  0  0  0  0  0  0
   49.7863   11.4252    6.0599 H   0  0  0  0  0  0  0  0  0  0  0  0
   48.2763   12.2582   10.8457 H   0  0  0  0  0  0  0  0  0  0  0  0
   43.4350   14.4214   11.2119 H   0  0  0  0  0  0  0  0  0  0  0  0
   43.6727   14.9582    8.9127 H   0  0  0  0  0  0  0  0  0  0  0  0
   42.6786   13.5058    8.8679 H   0  0  0  0  0  0  0  0  0  0  0  0
   46.5206   10.9350   11.4689 H   0  0  0  0  0  0  0  0  0  0  0  0
   45.6873   10.5778    9.9671 H   0  0  0  0  0  0  0  0  0  0  0  0
   45.6193   15.9896   11.2120 H   0  0  0  0  0  0  0  0  0  0  0  0
   45.8889   15.4825    9.5462 H   0  0  0  0  0  0  0  0  0  0  0  0
   43.6901   13.5390    6.3284 H   0  0  0  0  0  0  0  0  0  0  0  0
   44.6268   11.6042   12.5897 H   0  0  0  0  0  0  0  0  0  0  0  0
   44.0068   10.3652   11.5291 H   0  0  0  0  0  0  0  0  0  0  0  0
   45.5153   12.6542    4.9611 H   0  0  0  0  0  0  0  0  0  0  0  0
   47.9784   16.2455   10.5443 H   0  0  0  0  0  0  0  0  0  0  0  0
   47.8485   15.0982   11.8826 H   0  0  0  0  0  0  0  0  0  0  0  0
   45.0107   14.0846   12.8443 H   0  0  0  0  0  0  0  0  0  0  0  0
   42.4259   12.7905   12.7674 H   0  0  0  0  0  0  0  0  0  0  0  0
   41.4780   12.9724   11.2749 H   0  0  0  0  0  0  0  0  0  0  0  0
   41.8161   11.3659   11.8987 H   0  0  0  0  0  0  0  0  0  0  0  0
   47.0960   11.0332    4.2323 H   0  0  0  0  0  0  0  0  0  0  0  0
   47.7312   12.7190    4.1020 H   0  0  0  0  0  0  0  0  0  0  0  0
   48.8350   11.3409    4.1730 H   0  0  0  0  0  0  0  0  0  0  0  0
   45.9674   14.7227   11.2264 H   0  0  0  0  0  0  0  0  0  0  0  0
   47.6387   14.5479    9.4226 H   0  0  0  0  0  0  0  0  0  0  0  0
   43.5894   11.6641    9.3147 H   0  0  0  0  0  0  0  0  0  0  0  0
   45.2617   11.4886    7.5135 H   0  0  0  0  0  0  0  0  0  0  0  0
   43.1654   14.1100   13.0349 H   0  0  0  0  0  0  0  0  0  0  0  0
   48.0620   12.1011    5.7049 H   0  0  0  0  0  0  0  0  0  0  0  0
 14  7  2  0
 15  8  1  0
 16 11  1  0
 17 15  2  0
 18 13  1  0
  2 19  1  1
 20 13  2  0
 21  9  1  0
  4  7  1  0
 16  9  1  0
  6 10  1  0
 18 12  1  0
 17 14  1  0
 14 22  1  0
 22 23  1  0
  2  1  1  0
  3  1  1  0
  3  4  1  0
  5  1  1  0
  6  2  1  0
  7  5  1  0
  8  5  2  0
  6  9  1  0
 10  8  1  0
  1 11  1  1
 12  2  1  0
 13  3  1  0
 37 30  2  0
 38 31  1  0
 39 34  1  0
 40 38  2  0
 41 36  1  0
 25 42  1  6
 43 36  2  0
 44 32  1  0
 27 30  1  0
 39 32  1  0
 29 33  1  0
 41 35  1  0
 40 37  1  0
 37 45  1  0
 45 46  1  0
 25 24  1  0
 26 24  1  0
 26 27  1  0
 28 24  1  0
 29 25  1  0
 30 28  1  0
 31 28  2  0
 29 32  1  0
 33 31  1  0
 24 34  1  6
 35 25  1  0
 36 26  1  0
 48 49  1  0
 49 56  2  0
 50 47  1  0
 51 48  2  0
 52 47  2  0
 53 50  1  0
 54 53  2  0
 55 50  2  0
 56 55  1  0
 57 47  1  0
 58 48  1  0
 49 54  1  0
  3 59  1  1
  6 60  1  6
 10 61  1  0
 10 62  1  0
 11 63  1  0
 11 64  1  0
 12 65  1  0
 12 66  1  0
 15 67  1  0
 16 68  1  0
 16 69  1  0
 17 70  1  0
 18 71  1  0
 18 72  1  0
 19 73  1  0
 21 74  1  0
 21 75  1  0
 21 76  1  0
 23 77  1  0
 23 78  1  0
 23 79  1  0
 26 80  1  6
 29 81  1  1
 33 82  1  0
 33 83  1  0
 34 84  1  0
 34 85  1  0
 35 86  1  0
 35 87  1  0
 38 88  1  0
 39 89  1  0
 39 90  1  0
 40 91  1  0
 41 92  1  0
 41 93  1  0
 42 94  1  0
 44 95  1  0
 44 96  1  0
 44 97  1  0
 46 98  1  0
 46 99  1  0
 46100  1  0
 53101  1  0
 54102  1  0
 55103  1  0
 56104  1  0
 57105  1  0
 58106  1  0
M  END
> <Uni-Dock RESULT> 
ENERGY=   -5.225  LOWER_BOUND=   12.200  UPPER_BOUND=   14.472
INTER + INTRA:          -5.225
INTER:                  -5.225
INTRA:                   0.000
UNBOUND:                 0.000

$$$$
