
     RDKit          3D

106114  0  0  0  0  0  0  0  0999 V2000
   49.5764    6.5610   20.5723 C   0  0  2  0  0  0  0  0  0  0  0  0
   48.3799    5.6157   20.4070 C   0  0  2  0  0  0  0  0  0  0  0  0
   50.1778    6.7206   21.9743 C   0  0  1  0  0  0  0  0  0  0  0  0
   50.6961    8.0866   22.0555 O   0  0  0  0  0  0  0  0  0  0  0  0
   49.1289    7.9709   20.4015 C   0  0  0  0  0  0  0  0  0  0  0  0
   47.7770    5.9107   18.9882 C   0  0  2  0  0  0  0  0  0  0  0  0
   49.8501    8.8033   21.2359 C   0  0  0  0  0  0  0  0  0  0  0  0
   48.1199    8.4110   19.5687 C   0  0  0  0  0  0  0  0  0  0  0  0
   48.8107    5.4516   18.0061 N   0  0  0  0  0  0  0  0  0  0  0  0
   47.2846    7.3933   18.8363 C   0  0  0  0  0  0  0  0  0  0  0  0
   50.6514    6.2467   19.5037 C   0  0  0  0  0  0  0  0  0  0  0  0
   47.3740    5.7302   21.5570 C   0  0  0  0  0  0  0  0  0  0  0  0
   49.1746    6.4895   23.1206 C   0  0  0  0  0  0  0  0  0  0  0  0
   49.6591   10.1712   21.2116 C   0  0  0  0  0  0  0  0  0  0  0  0
   47.8973    9.7859   19.5362 C   0  0  0  0  0  0  0  0  0  0  0  0
   50.0653    6.2189   18.0812 C   0  0  0  0  0  0  0  0  0  0  0  0
   48.6729   10.6587   20.3375 C   0  0  0  0  0  0  0  0  0  0  0  0
   48.0658    5.4872   22.8938 C   0  0  0  0  0  0  0  0  0  0  0  0
   48.8468    4.2502   20.4282 O   0  0  0  0  0  0  0  0  0  0  0  0
   49.2965    7.0263   24.2246 O   0  0  0  0  0  0  0  0  0  0  0  0
   48.3071    5.4119   16.6337 C   0  0  0  0  0  0  0  0  0  0  0  0
   50.4384   10.9167   22.0444 O   0  0  0  0  0  0  0  0  0  0  0  0
   50.1717   12.3102   22.1052 C   0  0  0  0  0  0  0  0  0  0  0  0
   48.2024    7.5879   21.0784 C   0  0  2  0  0  0  0  0  0  0  0  0
   49.4852    7.9229   21.8483 C   0  0  2  0  0  0  0  0  0  0  0  0
   47.3749    6.4052   21.5929 C   0  0  1  0  0  0  0  0  0  0  0  0
   46.9943    5.5739   20.4603 O   0  0  0  0  0  0  0  0  0  0  0  0
   48.6047    7.0353   19.7595 C   0  0  0  0  0  0  0  0  0  0  0  0
   50.2296    9.0203   20.9998 C   0  0  2  0  0  0  0  0  0  0  0  0
   47.8461    5.9292   19.4423 C   0  0  0  0  0  0  0  0  0  0  0  0
   49.6684    7.4714   18.9908 C   0  0  0  0  0  0  0  0  0  0  0  0
   49.3660   10.2395   21.0516 N   0  0  0  0  0  0  0  0  0  0  0  0
   50.6011    8.5160   19.5555 C   0  0  0  0  0  0  0  0  0  0  0  0
   47.3162    8.8428   20.8972 C   0  0  0  0  0  0  0  0  0  0  0  0
   50.3692    6.6986   22.1519 C   0  0  0  0  0  0  0  0  0  0  0  0
   48.1139    5.5953   22.6545 C   0  0  0  0  0  0  0  0  0  0  0  0
   48.0279    5.2634   18.2435 C   0  0  0  0  0  0  0  0  0  0  0  0
   49.8721    6.8190   17.7766 C   0  0  0  0  0  0  0  0  0  0  0  0
   48.0868   10.0520   20.3522 C   0  0  0  0  0  0  0  0  0  0  0  0
   49.0444    5.7365   17.3979 C   0  0  0  0  0  0  0  0  0  0  0  0
   49.6059    5.4184   22.4944 C   0  0  0  0  0  0  0  0  0  0  0  0
   49.1267    8.4792   23.1262 O   0  0  0  0  0  0  0  0  0  0  0  0
   47.5079    5.0165   23.5604 O   0  0  0  0  0  0  0  0  0  0  0  0
   50.0528   11.4384   20.5722 C   0  0  0  0  0  0  0  0  0  0  0  0
   47.2162    4.1938   18.0070 O   0  0  0  0  0  0  0  0  0  0  0  0
   47.3829    3.5156   16.7701 C   0  0  0  0  0  0  0  0  0  0  0  0
   47.5328    5.1970   18.9407 C   0  0  0  0  0  0  0  0  0  0  0  0
   50.0663    9.7690   21.3895 C   0  0  0  0  0  0  0  0  0  0  0  0
   49.4532    8.5662   20.7751 C   0  0  0  0  0  0  0  0  0  0  0  0
   48.2214    6.3425   19.5842 C   0  0  0  0  0  0  0  0  0  0  0  0
   49.5958   10.8912   21.3819 O   0  0  0  0  0  0  0  0  0  0  0  0
   46.4670    5.2438   18.3557 O   0  0  0  0  0  0  0  0  0  0  0  0
   49.4520    6.1991   20.2380 C   0  0  0  0  0  0  0  0  0  0  0  0
   50.0660    7.3077   20.8316 C   0  0  0  0  0  0  0  0  0  0  0  0
   47.6094    7.6013   19.5278 C   0  0  0  0  0  0  0  0  0  0  0  0
   48.2228    8.7089   20.1210 C   0  0  0  0  0  0  0  0  0  0  0  0
   48.2146    4.0445   19.0606 O   0  0  0  0  0  0  0  0  0  0  0  0
   51.2429    9.5083   21.9853 O   0  0  0  0  0  0  0  0  0  0  0  0
   51.0094    6.0247   22.1359 H   0  0  0  0  0  0  0  0  0  0  0  0
   46.9106    5.2497   18.8489 H   0  0  0  0  0  0  0  0  0  0  0  0
   46.2699    7.4476   19.2527 H   0  0  0  0  0  0  0  0  0  0  0  0
   47.2025    7.6761   17.7823 H   0  0  0  0  0  0  0  0  0  0  0  0
   51.4717    6.9763   19.5303 H   0  0  0  0  0  0  0  0  0  0  0  0
   51.1070    5.2717   19.7215 H   0  0  0  0  0  0  0  0  0  0  0  0
   46.5850    4.9778   21.4354 H   0  0  0  0  0  0  0  0  0  0  0  0
   46.8844    6.7100   21.5732 H   0  0  0  0  0  0  0  0  0  0  0  0
   47.1172   10.2023   18.9023 H   0  0  0  0  0  0  0  0  0  0  0  0
   50.8130    5.7599   17.4223 H   0  0  0  0  0  0  0  0  0  0  0  0
   49.9213    7.2430   17.7156 H   0  0  0  0  0  0  0  0  0  0  0  0
   48.4624   11.7219   20.2675 H   0  0  0  0  0  0  0  0  0  0  0  0
   47.3325    5.5893   23.7015 H   0  0  0  0  0  0  0  0  0  0  0  0
   48.4917    4.4806   22.9586 H   0  0  0  0  0  0  0  0  0  0  0  0
   49.0587    4.0414   19.4912 H   0  0  0  0  0  0  0  0  0  0  0  0
   48.1108    6.4073   16.2231 H   0  0  0  0  0  0  0  0  0  0  0  0
   47.3847    4.8237   16.5758 H   0  0  0  0  0  0  0  0  0  0  0  0
   49.0332    4.9163   15.9795 H   0  0  0  0  0  0  0  0  0  0  0  0
   49.1453   12.5038   22.4342 H   0  0  0  0  0  0  0  0  0  0  0  0
   50.8473   12.7486   22.8461 H   0  0  0  0  0  0  0  0  0  0  0  0
   50.3750   12.7919   21.1432 H   0  0  0  0  0  0  0  0  0  0  0  0
   46.4478    6.7546   22.0655 H   0  0  0  0  0  0  0  0  0  0  0  0
   51.1593    9.2768   21.5260 H   0  0  0  0  0  0  0  0  0  0  0  0
   50.6858    9.3482   18.8497 H   0  0  0  0  0  0  0  0  0  0  0  0
   51.5990    8.0617   19.6161 H   0  0  0  0  0  0  0  0  0  0  0  0
   46.8805    9.1177   21.8674 H   0  0  0  0  0  0  0  0  0  0  0  0
   46.4699    8.6347   20.2292 H   0  0  0  0  0  0  0  0  0  0  0  0
   51.0335    6.9371   22.9936 H   0  0  0  0  0  0  0  0  0  0  0  0
   51.0406    6.4681   21.3172 H   0  0  0  0  0  0  0  0  0  0  0  0
   50.6879    7.1170   17.1213 H   0  0  0  0  0  0  0  0  0  0  0  0
   48.2352    9.9481   19.2704 H   0  0  0  0  0  0  0  0  0  0  0  0
   47.4577   10.9402   20.4917 H   0  0  0  0  0  0  0  0  0  0  0  0
   49.2489    5.2600   16.4437 H   0  0  0  0  0  0  0  0  0  0  0  0
   49.7619    4.6685   21.7100 H   0  0  0  0  0  0  0  0  0  0  0  0
   50.0074    4.9944   23.4222 H   0  0  0  0  0  0  0  0  0  0  0  0
   49.0295    9.4432   22.9671 H   0  0  0  0  0  0  0  0  0  0  0  0
   50.9977   11.5836   21.1071 H   0  0  0  0  0  0  0  0  0  0  0  0
   49.4434   12.3271   20.7721 H   0  0  0  0  0  0  0  0  0  0  0  0
   50.2631   11.4105   19.4984 H   0  0  0  0  0  0  0  0  0  0  0  0
   48.3796    3.0685   16.6966 H   0  0  0  0  0  0  0  0  0  0  0  0
   47.1852    4.1814   15.9236 H   0  0  0  0  0  0  0  0  0  0  0  0
   46.6506    2.7034   16.7321 H   0  0  0  0  0  0  0  0  0  0  0  0
   49.9425    5.2297   20.2918 H   0  0  0  0  0  0  0  0  0  0  0  0
   51.0215    7.1779   21.3347 H   0  0  0  0  0  0  0  0  0  0  0  0
   46.6529    7.7248   19.0222 H   0  0  0  0  0  0  0  0  0  0  0  0
   47.7372    9.6821   20.0701 H   0  0  0  0  0  0  0  0  0  0  0  0
   47.6510    3.3890   18.5979 H   0  0  0  0  0  0  0  0  0  0  0  0
   51.5252   10.3781   22.3390 H   0  0  0  0  0  0  0  0  0  0  0  0
 14  7  2  0
 15  8  1  0
 16 11  1  0
 17 15  2  0
 18 13  1  0
  2 19  1  1
 20 13  2  0
 21  9  1  0
  4  7  1  0
 16  9  1  0
  6 10  1  0
 18 12  1  0
 17 14  1  0
 14 22  1  0
 22 23  1  0
  2  1  1  0
  3  1  1  0
  3  4  1  0
  5  1  1  0
  6  2  1  0
  7  5  1  0
  8  5  2  0
  6  9  1  0
 10  8  1  0
  1 11  1  1
 12  2  1  0
 13  3  1  0
 37 30  2  0
 38 31  1  0
 39 34  1  0
 40 38  2  0
 41 36  1  0
 25 42  1  6
 43 36  2  0
 44 32  1  0
 27 30  1  0
 39 32  1  0
 29 33  1  0
 41 35  1  0
 40 37  1  0
 37 45  1  0
 45 46  1  0
 25 24  1  0
 26 24  1  0
 26 27  1  0
 28 24  1  0
 29 25  1  0
 30 28  1  0
 31 28  2  0
 29 32  1  0
 33 31  1  0
 24 34  1  6
 35 25  1  0
 36 26  1  0
 48 49  1  0
 49 56  2  0
 50 47  1  0
 51 48  2  0
 52 47  2  0
 53 50  1  0
 54 53  2  0
 55 50  2  0
 56 55  1  0
 57 47  1  0
 58 48  1  0
 49 54  1  0
  3 59  1  1
  6 60  1  6
 10 61  1  0
 10 62  1  0
 11 63  1  0
 11 64  1  0
 12 65  1  0
 12 66  1  0
 15 67  1  0
 16 68  1  0
 16 69  1  0
 17 70  1  0
 18 71  1  0
 18 72  1  0
 19 73  1  0
 21 74  1  0
 21 75  1  0
 21 76  1  0
 23 77  1  0
 23 78  1  0
 23 79  1  0
 26 80  1  6
 29 81  1  1
 33 82  1  0
 33 83  1  0
 34 84  1  0
 34 85  1  0
 35 86  1  0
 35 87  1  0
 38 88  1  0
 39 89  1  0
 39 90  1  0
 40 91  1  0
 41 92  1  0
 41 93  1  0
 42 94  1  0
 44 95  1  0
 44 96  1  0
 44 97  1  0
 46 98  1  0
 46 99  1  0
 46100  1  0
 53101  1  0
 54102  1  0
 55103  1  0
 56104  1  0
 57105  1  0
 58106  1  0
M  END
> <Uni-Dock RESULT> 
ENERGY=   -6.187  LOWER_BOUND=    0.000  UPPER_BOUND=    0.000
INTER + INTRA:          -6.187
INTER:                  -6.187
INTRA:                   0.000
UNBOUND:                 0.000

$$$$

     RDKit          3D

106114  0  0  0  0  0  0  0  0999 V2000
   55.0445    7.4067    8.4628 C   0  0  2  0  0  0  0  0  0  0  0  0
   54.1159    7.1745    7.2645 C   0  0  2  0  0  0  0  0  0  0  0  0
   55.7049    6.1819    9.1082 C   0  0  1  0  0  0  0  0  0  0  0  0
   55.8664    6.4922   10.5290 O   0  0  0  0  0  0  0  0  0  0  0  0
   54.2424    7.8284    9.6444 C   0  0  0  0  0  0  0  0  0  0  0  0
   53.3378    8.5193    7.0418 C   0  0  2  0  0  0  0  0  0  0  0  0
   54.7993    7.3213   10.8029 C   0  0  0  0  0  0  0  0  0  0  0  0
   53.0869    8.5830    9.6184 C   0  0  0  0  0  0  0  0  0  0  0  0
   54.3651    9.5105    6.5881 N   0  0  0  0  0  0  0  0  0  0  0  0
   52.4757    8.9327    8.2866 C   0  0  0  0  0  0  0  0  0  0  0  0
   56.0676    8.5204    8.1323 C   0  0  0  0  0  0  0  0  0  0  0  0
   53.2169    5.9468    7.4436 C   0  0  0  0  0  0  0  0  0  0  0  0
   54.8955    4.8791    8.9622 C   0  0  0  0  0  0  0  0  0  0  0  0
   54.2677    7.6299   12.0400 C   0  0  0  0  0  0  0  0  0  0  0  0
   52.5224    8.8964   10.8530 C   0  0  0  0  0  0  0  0  0  0  0  0
   55.3868    9.7973    7.6089 C   0  0  0  0  0  0  0  0  0  0  0  0
   53.1186    8.4384   12.0530 C   0  0  0  0  0  0  0  0  0  0  0  0
   54.0604    4.7058    7.7139 C   0  0  0  0  0  0  0  0  0  0  0  0
   54.9125    6.9098    6.0904 O   0  0  0  0  0  0  0  0  0  0  0  0
   54.9727    3.9573    9.7783 O   0  0  0  0  0  0  0  0  0  0  0  0
   53.7712   10.7486    6.0849 C   0  0  0  0  0  0  0  0  0  0  0  0
   54.9023    7.1130   13.1293 O   0  0  0  0  0  0  0  0  0  0  0  0
   54.2987    7.3344   14.3955 C   0  0  0  0  0  0  0  0  0  0  0  0
   53.5047    6.9537    9.2518 C   0  0  2  0  0  0  0  0  0  0  0  0
   54.7229    6.4770   10.0514 C   0  0  2  0  0  0  0  0  0  0  0  0
   53.0503    6.0669    8.0877 C   0  0  1  0  0  0  0  0  0  0  0  0
   52.7957    6.9110    6.9295 O   0  0  0  0  0  0  0  0  0  0  0  0
   53.9181    8.1554    8.4824 C   0  0  0  0  0  0  0  0  0  0  0  0
   55.0899    7.6537   11.0309 C   0  0  2  0  0  0  0  0  0  0  0  0
   53.4389    8.0965    7.1915 C   0  0  0  0  0  0  0  0  0  0  0  0
   54.7666    9.1506    8.9320 C   0  0  0  0  0  0  0  0  0  0  0  0
   53.9541    7.7566   11.9976 N   0  0  0  0  0  0  0  0  0  0  0  0
   55.4505    8.9827   10.2677 C   0  0  0  0  0  0  0  0  0  0  0  0
   52.3181    7.2858   10.1870 C   0  0  0  0  0  0  0  0  0  0  0  0
   55.9103    6.0339    9.1760 C   0  0  0  0  0  0  0  0  0  0  0  0
   54.0588    4.9679    7.7646 C   0  0  0  0  0  0  0  0  0  0  0  0
   53.6787    9.1245    6.2975 C   0  0  0  0  0  0  0  0  0  0  0  0
   55.0228   10.1996    8.0514 C   0  0  0  0  0  0  0  0  0  0  0  0
   52.7083    8.1998   11.3556 C   0  0  0  0  0  0  0  0  0  0  0  0
   54.4658   10.1952    6.7514 C   0  0  0  0  0  0  0  0  0  0  0  0
   55.5275    5.2997    7.8902 C   0  0  0  0  0  0  0  0  0  0  0  0
   54.3473    5.3221   10.8234 O   0  0  0  0  0  0  0  0  0  0  0  0
   53.6992    3.8749    7.3185 O   0  0  0  0  0  0  0  0  0  0  0  0
   54.2718    8.5928   13.1545 C   0  0  0  0  0  0  0  0  0  0  0  0
   53.1461    8.9886    5.0498 O   0  0  0  0  0  0  0  0  0  0  0  0
   53.3712   10.0481    4.1309 C   0  0  0  0  0  0  0  0  0  0  0  0
   53.2785    8.3659    6.3041 C   0  0  0  0  0  0  0  0  0  0  0  0
   54.7770    7.4261   11.7986 C   0  0  0  0  0  0  0  0  0  0  0  0
   54.4369    7.6524   10.3727 C   0  0  0  0  0  0  0  0  0  0  0  0
   53.7084    8.1095    7.7005 C   0  0  0  0  0  0  0  0  0  0  0  0
   54.0395    7.6215   12.7466 O   0  0  0  0  0  0  0  0  0  0  0  0
   52.1890    8.7837    5.9594 O   0  0  0  0  0  0  0  0  0  0  0  0
   54.9871    7.6274    8.0087 C   0  0  0  0  0  0  0  0  0  0  0  0
   55.3501    7.3996    9.3409 C   0  0  0  0  0  0  0  0  0  0  0  0
   52.7959    8.3624    8.7327 C   0  0  0  0  0  0  0  0  0  0  0  0
   53.1586    8.1347   10.0637 C   0  0  0  0  0  0  0  0  0  0  0  0
   54.2370    8.0864    5.4037 O   0  0  0  0  0  0  0  0  0  0  0  0
   56.0282    6.9651   11.9696 O   0  0  0  0  0  0  0  0  0  0  0  0
   56.6960    5.9887    8.6813 H   0  0  0  0  0  0  0  0  0  0  0  0
   52.6577    8.3753    6.1910 H   0  0  0  0  0  0  0  0  0  0  0  0
   51.5200    8.3961    8.2183 H   0  0  0  0  0  0  0  0  0  0  0  0
   52.2341    9.9999    8.2626 H   0  0  0  0  0  0  0  0  0  0  0  0
   56.6761    8.7818    9.0081 H   0  0  0  0  0  0  0  0  0  0  0  0
   56.7716    8.1542    7.3734 H   0  0  0  0  0  0  0  0  0  0  0  0
   52.6360    5.7762    6.5288 H   0  0  0  0  0  0  0  0  0  0  0  0
   52.4990    6.0839    8.2596 H   0  0  0  0  0  0  0  0  0  0  0  0
   51.6107    9.4877   10.9070 H   0  0  0  0  0  0  0  0  0  0  0  0
   56.1664   10.4358    7.1747 H   0  0  0  0  0  0  0  0  0  0  0  0
   54.9578   10.3625    8.4454 H   0  0  0  0  0  0  0  0  0  0  0  0
   52.6412    8.7184   12.9875 H   0  0  0  0  0  0  0  0  0  0  0  0
   53.3977    3.8446    7.8541 H   0  0  0  0  0  0  0  0  0  0  0  0
   54.7307    4.4753    6.8793 H   0  0  0  0  0  0  0  0  0  0  0  0
   55.0885    7.7947    5.7002 H   0  0  0  0  0  0  0  0  0  0  0  0
   53.2951   11.3428    6.8711 H   0  0  0  0  0  0  0  0  0  0  0  0
   53.0258   10.5348    5.3111 H   0  0  0  0  0  0  0  0  0  0  0  0
   54.5396   11.3710    5.6126 H   0  0  0  0  0  0  0  0  0  0  0  0
   53.2890    6.9119   14.4330 H   0  0  0  0  0  0  0  0  0  0  0  0
   54.9031    6.8205   15.1492 H   0  0  0  0  0  0  0  0  0  0  0  0
   54.2898    8.4003   14.6459 H   0  0  0  0  0  0  0  0  0  0  0  0
   52.1095    5.5564    8.3309 H   0  0  0  0  0  0  0  0  0  0  0  0
   55.9664    7.3420   11.6150 H   0  0  0  0  0  0  0  0  0  0  0  0
   55.2609    9.8647   10.8872 H   0  0  0  0  0  0  0  0  0  0  0  0
   56.5322    8.9662   10.0791 H   0  0  0  0  0  0  0  0  0  0  0  0
   51.9125    6.3512   10.5981 H   0  0  0  0  0  0  0  0  0  0  0  0
   51.4974    7.7572    9.6304 H   0  0  0  0  0  0  0  0  0  0  0  0
   56.5629    5.3756    9.7653 H   0  0  0  0  0  0  0  0  0  0  0  0
   56.5434    6.8827    8.8943 H   0  0  0  0  0  0  0  0  0  0  0  0
   55.6771   11.0178    8.3451 H   0  0  0  0  0  0  0  0  0  0  0  0
   52.7841    9.2387   11.0124 H   0  0  0  0  0  0  0  0  0  0  0  0
   51.8898    8.1768   12.0860 H   0  0  0  0  0  0  0  0  0  0  0  0
   54.7007   11.0344    6.1035 H   0  0  0  0  0  0  0  0  0  0  0  0
   55.7995    5.9058    7.0181 H   0  0  0  0  0  0  0  0  0  0  0  0
   56.1017    4.3684    7.8202 H   0  0  0  0  0  0  0  0  0  0  0  0
   53.9964    5.6817   11.6671 H   0  0  0  0  0  0  0  0  0  0  0  0
   55.1920    8.2494   13.6398 H   0  0  0  0  0  0  0  0  0  0  0  0
   53.4773    8.5148   13.9055 H   0  0  0  0  0  0  0  0  0  0  0  0
   54.3887    9.6506   12.8987 H   0  0  0  0  0  0  0  0  0  0  0  0
   54.4383   10.1623    3.9141 H   0  0  0  0  0  0  0  0  0  0  0  0
   52.9394   10.9863    4.4948 H   0  0  0  0  0  0  0  0  0  0  0  0
   52.8674    9.7916    3.1941 H   0  0  0  0  0  0  0  0  0  0  0  0
   55.7093    7.4255    7.2208 H   0  0  0  0  0  0  0  0  0  0  0  0
   56.3473    7.0255    9.5618 H   0  0  0  0  0  0  0  0  0  0  0  0
   51.7992    8.7374    8.5051 H   0  0  0  0  0  0  0  0  0  0  0  0
   52.4404    8.3354   10.8571 H   0  0  0  0  0  0  0  0  0  0  0  0
   53.8195    8.2992    4.5424 H   0  0  0  0  0  0  0  0  0  0  0  0
   56.1112    6.8652   12.9414 H   0  0  0  0  0  0  0  0  0  0  0  0
 14  7  2  0
 15  8  1  0
 16 11  1  0
 17 15  2  0
 18 13  1  0
  2 19  1  1
 20 13  2  0
 21  9  1  0
  4  7  1  0
 16  9  1  0
  6 10  1  0
 18 12  1  0
 17 14  1  0
 14 22  1  0
 22 23  1  0
  2  1  1  0
  3  1  1  0
  3  4  1  0
  5  1  1  0
  6  2  1  0
  7  5  1  0
  8  5  2  0
  6  9  1  0
 10  8  1  0
  1 11  1  1
 12  2  1  0
 13  3  1  0
 37 30  2  0
 38 31  1  0
 39 34  1  0
 40 38  2  0
 41 36  1  0
 25 42  1  6
 43 36  2  0
 44 32  1  0
 27 30  1  0
 39 32  1  0
 29 33  1  0
 41 35  1  0
 40 37  1  0
 37 45  1  0
 45 46  1  0
 25 24  1  0
 26 24  1  0
 26 27  1  0
 28 24  1  0
 29 25  1  0
 30 28  1  0
 31 28  2  0
 29 32  1  0
 33 31  1  0
 24 34  1  6
 35 25  1  0
 36 26  1  0
 48 49  1  0
 49 56  2  0
 50 47  1  0
 51 48  2  0
 52 47  2  0
 53 50  1  0
 54 53  2  0
 55 50  2  0
 56 55  1  0
 57 47  1  0
 58 48  1  0
 49 54  1  0
  3 59  1  1
  6 60  1  6
 10 61  1  0
 10 62  1  0
 11 63  1  0
 11 64  1  0
 12 65  1  0
 12 66  1  0
 15 67  1  0
 16 68  1  0
 16 69  1  0
 17 70  1  0
 18 71  1  0
 18 72  1  0
 19 73  1  0
 21 74  1  0
 21 75  1  0
 21 76  1  0
 23 77  1  0
 23 78  1  0
 23 79  1  0
 26 80  1  6
 29 81  1  1
 33 82  1  0
 33 83  1  0
 34 84  1  0
 34 85  1  0
 35 86  1  0
 35 87  1  0
 38 88  1  0
 39 89  1  0
 39 90  1  0
 40 91  1  0
 41 92  1  0
 41 93  1  0
 42 94  1  0
 44 95  1  0
 44 96  1  0
 44 97  1  0
 46 98  1  0
 46 99  1  0
 46100  1  0
 53101  1  0
 54102  1  0
 55103  1  0
 56104  1  0
 57105  1  0
 58106  1  0
M  END
> <Uni-Dock RESULT> 
ENERGY=   -6.153  LOWER_BOUND=   10.617  UPPER_BOUND=   13.038
INTER + INTRA:          -6.153
INTER:                  -6.153
INTRA:                   0.000
UNBOUND:                 0.000

$$$$

     RDKit          3D

106114  0  0  0  0  0  0  0  0999 V2000
   49.5485    7.6001   22.3182 C   0  0  2  0  0  0  0  0  0  0  0  0
   49.6718    6.0754   22.2066 C   0  0  2  0  0  0  0  0  0  0  0  0
   48.6055    8.1685   23.3862 C   0  0  1  0  0  0  0  0  0  0  0  0
   48.0810    9.4274   22.8557 O   0  0  0  0  0  0  0  0  0  0  0  0
   48.8253    8.1330   21.1306 C   0  0  0  0  0  0  0  0  0  0  0  0
   50.4070    5.7902   20.8496 C   0  0  2  0  0  0  0  0  0  0  0  0
   48.0477    9.2160   21.4936 C   0  0  0  0  0  0  0  0  0  0  0  0
   48.8732    7.6214   19.8494 C   0  0  0  0  0  0  0  0  0  0  0  0
   51.8005    6.3099   21.0275 N   0  0  0  0  0  0  0  0  0  0  0  0
   49.6163    6.3334   19.6072 C   0  0  0  0  0  0  0  0  0  0  0  0
   50.9556    8.2428   22.3742 C   0  0  0  0  0  0  0  0  0  0  0  0
   48.3245    5.3617   22.3573 C   0  0  0  0  0  0  0  0  0  0  0  0
   47.4296    7.2408   23.7471 C   0  0  0  0  0  0  0  0  0  0  0  0
   47.3297    9.9227   20.5484 C   0  0  0  0  0  0  0  0  0  0  0  0
   48.1459    8.3077   18.8795 C   0  0  0  0  0  0  0  0  0  0  0  0
   51.8567    7.7686   21.2204 C   0  0  0  0  0  0  0  0  0  0  0  0
   47.3958    9.4584   19.2238 C   0  0  0  0  0  0  0  0  0  0  0  0
   47.6628    5.7489   23.6752 C   0  0  0  0  0  0  0  0  0  0  0  0
   50.4982    5.5855   23.2837 O   0  0  0  0  0  0  0  0  0  0  0  0
   46.3514    7.6712   24.1642 O   0  0  0  0  0  0  0  0  0  0  0  0
   52.7001    5.8927   19.9526 C   0  0  0  0  0  0  0  0  0  0  0  0
   46.6181   10.9966   20.9919 O   0  0  0  0  0  0  0  0  0  0  0  0
   45.7915   11.6602   20.0469 C   0  0  0  0  0  0  0  0  0  0  0  0
   48.1207    7.1702   21.3306 C   0  0  2  0  0  0  0  0  0  0  0  0
   47.8528    8.3803   22.2331 C   0  0  2  0  0  0  0  0  0  0  0  0
   47.9695    5.7846   21.9672 C   0  0  1  0  0  0  0  0  0  0  0  0
   49.1125    4.9682   21.5856 O   0  0  0  0  0  0  0  0  0  0  0  0
   49.5786    7.1390   21.0469 C   0  0  0  0  0  0  0  0  0  0  0  0
   48.2750    9.6480   21.4004 C   0  0  2  0  0  0  0  0  0  0  0  0
   50.0688    5.8554   21.1541 C   0  0  0  0  0  0  0  0  0  0  0  0
   50.3826    8.2420   20.8247 C   0  0  0  0  0  0  0  0  0  0  0  0
   47.3082    9.7367   20.2635 N   0  0  0  0  0  0  0  0  0  0  0  0
   49.7958    9.6229   20.9942 C   0  0  0  0  0  0  0  0  0  0  0  0
   47.3107    7.2638   20.0161 C   0  0  0  0  0  0  0  0  0  0  0  0
   48.5513    8.3041   23.6038 C   0  0  0  0  0  0  0  0  0  0  0  0
   47.8167    5.8541   23.4841 C   0  0  0  0  0  0  0  0  0  0  0  0
   51.4018    5.5813   20.9060 C   0  0  0  0  0  0  0  0  0  0  0  0
   51.7297    7.9934   20.5696 C   0  0  0  0  0  0  0  0  0  0  0  0
   47.4509    8.6217   19.3164 C   0  0  0  0  0  0  0  0  0  0  0  0
   52.2299    6.6707   20.5903 C   0  0  0  0  0  0  0  0  0  0  0  0
   48.6070    6.9076   24.2248 C   0  0  0  0  0  0  0  0  0  0  0  0
   46.4424    8.4481   22.5106 O   0  0  0  0  0  0  0  0  0  0  0  0
   47.1519    5.0189   24.1033 O   0  0  0  0  0  0  0  0  0  0  0  0
   47.3696   11.0227   19.5697 C   0  0  0  0  0  0  0  0  0  0  0  0
   51.7905    4.2790   21.0149 O   0  0  0  0  0  0  0  0  0  0  0  0
   53.1535    3.9854   20.7434 C   0  0  0  0  0  0  0  0  0  0  0  0
   50.6953    5.1532   21.1366 C   0  0  0  0  0  0  0  0  0  0  0  0
   47.5432    9.9886   21.1045 C   0  0  0  0  0  0  0  0  0  0  0  0
   48.3698    8.7582   21.1577 C   0  0  0  0  0  0  0  0  0  0  0  0
   49.9030    6.4067   21.1735 C   0  0  0  0  0  0  0  0  0  0  0  0
   46.8227   10.3235   20.1828 O   0  0  0  0  0  0  0  0  0  0  0  0
   50.7175    4.3511   20.2220 O   0  0  0  0  0  0  0  0  0  0  0  0
   49.9377    7.2768   22.2709 C   0  0  0  0  0  0  0  0  0  0  0  0
   49.1733    8.4490   22.2629 C   0  0  0  0  0  0  0  0  0  0  0  0
   49.0996    6.7166   20.0687 C   0  0  0  0  0  0  0  0  0  0  0  0
   48.3358    7.8878   20.0608 C   0  0  0  0  0  0  0  0  0  0  0  0
   51.4246    4.9642   22.2502 O   0  0  0  0  0  0  0  0  0  0  0  0
   47.6592   10.7433   22.2110 O   0  0  0  0  0  0  0  0  0  0  0  0
   49.1389    8.3821   24.3199 H   0  0  0  0  0  0  0  0  0  0  0  0
   50.5002    4.7007   20.7422 H   0  0  0  0  0  0  0  0  0  0  0  0
   48.8698    5.5755   19.3348 H   0  0  0  0  0  0  0  0  0  0  0  0
   50.2737    6.4467   18.7396 H   0  0  0  0  0  0  0  0  0  0  0  0
   50.8996    9.3390   22.3470 H   0  0  0  0  0  0  0  0  0  0  0  0
   51.4343    7.9881   23.3291 H   0  0  0  0  0  0  0  0  0  0  0  0
   48.4781    4.2755   22.3548 H   0  0  0  0  0  0  0  0  0  0  0  0
   47.6469    5.5926   21.5281 H   0  0  0  0  0  0  0  0  0  0  0  0
   48.1382    7.9599   17.8486 H   0  0  0  0  0  0  0  0  0  0  0  0
   52.8859    8.0652   21.4587 H   0  0  0  0  0  0  0  0  0  0  0  0
   51.5910    8.2970   20.2966 H   0  0  0  0  0  0  0  0  0  0  0  0
   46.8537    9.9593   18.4270 H   0  0  0  0  0  0  0  0  0  0  0  0
   46.6956    5.2402   23.7546 H   0  0  0  0  0  0  0  0  0  0  0  0
   48.2652    5.4515   24.5399 H   0  0  0  0  0  0  0  0  0  0  0  0
   51.4161    5.6207   22.9336 H   0  0  0  0  0  0  0  0  0  0  0  0
   52.4633    6.3623   18.9927 H   0  0  0  0  0  0  0  0  0  0  0  0
   52.6725    4.8052   19.8238 H   0  0  0  0  0  0  0  0  0  0  0  0
   53.7349    6.1495   20.2056 H   0  0  0  0  0  0  0  0  0  0  0  0
   45.0414   10.9803   19.6293 H   0  0  0  0  0  0  0  0  0  0  0  0
   45.2605   12.4611   20.5703 H   0  0  0  0  0  0  0  0  0  0  0  0
   46.3911   12.1204   19.2547 H   0  0  0  0  0  0  0  0  0  0  0  0
   47.0698    5.2796   21.5923 H   0  0  0  0  0  0  0  0  0  0  0  0
   48.0991   10.5334   22.0263 H   0  0  0  0  0  0  0  0  0  0  0  0
   49.9785   10.2098   20.0887 H   0  0  0  0  0  0  0  0  0  0  0  0
   50.3557   10.1173   21.7991 H   0  0  0  0  0  0  0  0  0  0  0  0
   46.2477    7.0954   20.2367 H   0  0  0  0  0  0  0  0  0  0  0  0
   47.6067    6.4737   19.3135 H   0  0  0  0  0  0  0  0  0  0  0  0
   48.0337    8.9712   24.3064 H   0  0  0  0  0  0  0  0  0  0  0  0
   49.5779    8.6841   23.5558 H   0  0  0  0  0  0  0  0  0  0  0  0
   52.4156    8.8166   20.3806 H   0  0  0  0  0  0  0  0  0  0  0  0
   48.4068    8.6729   18.7811 H   0  0  0  0  0  0  0  0  0  0  0  0
   46.6669    8.6864   18.5514 H   0  0  0  0  0  0  0  0  0  0  0  0
   53.2882    6.5326   20.3894 H   0  0  0  0  0  0  0  0  0  0  0  0
   49.6459    6.5606   24.2728 H   0  0  0  0  0  0  0  0  0  0  0  0
   48.2410    6.9553   25.2571 H   0  0  0  0  0  0  0  0  0  0  0  0
   46.0621    8.9753   21.7747 H   0  0  0  0  0  0  0  0  0  0  0  0
   47.2466   11.8505   20.2766 H   0  0  0  0  0  0  0  0  0  0  0  0
   46.5456   11.1031   18.8515 H   0  0  0  0  0  0  0  0  0  0  0  0
   48.3064   11.1697   19.0232 H   0  0  0  0  0  0  0  0  0  0  0  0
   53.8147    4.4834   21.4600 H   0  0  0  0  0  0  0  0  0  0  0  0
   53.4176    4.2480   19.7137 H   0  0  0  0  0  0  0  0  0  0  0  0
   53.2927    2.9061   20.8572 H   0  0  0  0  0  0  0  0  0  0  0  0
   50.5557    7.0531   23.1376 H   0  0  0  0  0  0  0  0  0  0  0  0
   49.2128    9.1132   23.1233 H   0  0  0  0  0  0  0  0  0  0  0  0
   49.0648    6.0479   19.2101 H   0  0  0  0  0  0  0  0  0  0  0  0
   47.7155    8.1177   19.1959 H   0  0  0  0  0  0  0  0  0  0  0  0
   51.8862    4.1146   22.0873 H   0  0  0  0  0  0  0  0  0  0  0  0
   47.0700   11.5074   22.0373 H   0  0  0  0  0  0  0  0  0  0  0  0
 14  7  2  0
 15  8  1  0
 16 11  1  0
 17 15  2  0
 18 13  1  0
  2 19  1  1
 20 13  2  0
 21  9  1  0
  4  7  1  0
 16  9  1  0
  6 10  1  0
 18 12  1  0
 17 14  1  0
 14 22  1  0
 22 23  1  0
  2  1  1  0
  3  1  1  0
  3  4  1  0
  5  1  1  0
  6  2  1  0
  7  5  1  0
  8  5  2  0
  6  9  1  0
 10  8  1  0
  1 11  1  1
 12  2  1  0
 13  3  1  0
 37 30  2  0
 38 31  1  0
 39 34  1  0
 40 38  2  0
 41 36  1  0
 25 42  1  6
 43 36  2  0
 44 32  1  0
 27 30  1  0
 39 32  1  0
 29 33  1  0
 41 35  1  0
 40 37  1  0
 37 45  1  0
 45 46  1  0
 25 24  1  0
 26 24  1  0
 26 27  1  0
 28 24  1  0
 29 25  1  0
 30 28  1  0
 31 28  2  0
 29 32  1  0
 33 31  1  0
 24 34  1  6
 35 25  1  0
 36 26  1  0
 48 49  1  0
 49 56  2  0
 50 47  1  0
 51 48  2  0
 52 47  2  0
 53 50  1  0
 54 53  2  0
 55 50  2  0
 56 55  1  0
 57 47  1  0
 58 48  1  0
 49 54  1  0
  3 59  1  1
  6 60  1  6
 10 61  1  0
 10 62  1  0
 11 63  1  0
 11 64  1  0
 12 65  1  0
 12 66  1  0
 15 67  1  0
 16 68  1  0
 16 69  1  0
 17 70  1  0
 18 71  1  0
 18 72  1  0
 19 73  1  0
 21 74  1  0
 21 75  1  0
 21 76  1  0
 23 77  1  0
 23 78  1  0
 23 79  1  0
 26 80  1  6
 29 81  1  1
 33 82  1  0
 33 83  1  0
 34 84  1  0
 34 85  1  0
 35 86  1  0
 35 87  1  0
 38 88  1  0
 39 89  1  0
 39 90  1  0
 40 91  1  0
 41 92  1  0
 41 93  1  0
 42 94  1  0
 44 95  1  0
 44 96  1  0
 44 97  1  0
 46 98  1  0
 46 99  1  0
 46100  1  0
 53101  1  0
 54102  1  0
 55103  1  0
 56104  1  0
 57105  1  0
 58106  1  0
M  END
> <Uni-Dock RESULT> 
ENERGY=   -6.018  LOWER_BOUND=    1.900  UPPER_BOUND=    3.005
INTER + INTRA:          -6.018
INTER:                  -6.018
INTRA:                   0.000
UNBOUND:                 0.000

$$$$

     RDKit          3D

106114  0  0  0  0  0  0  0  0999 V2000
   47.8824   11.6507   19.3532 C   0  0  2  0  0  0  0  0  0  0  0  0
   48.3909   10.5647   18.3969 C   0  0  2  0  0  0  0  0  0  0  0  0
   47.6996   13.0689   18.7981 C   0  0  1  0  0  0  0  0  0  0  0  0
   47.9619   13.9897   19.9046 O   0  0  0  0  0  0  0  0  0  0  0  0
   48.9401   11.9770   20.3492 C   0  0  0  0  0  0  0  0  0  0  0  0
   48.8006    9.3435   19.2936 C   0  0  2  0  0  0  0  0  0  0  0  0
   48.8946   13.3206   20.6686 C   0  0  0  0  0  0  0  0  0  0  0  0
   49.8694   11.0987   20.8693 C   0  0  0  0  0  0  0  0  0  0  0  0
   47.5226    8.8223   19.8757 N   0  0  0  0  0  0  0  0  0  0  0  0
   49.9362    9.6985   20.3173 C   0  0  0  0  0  0  0  0  0  0  0  0
   46.6270   11.1479   20.1065 C   0  0  0  0  0  0  0  0  0  0  0  0
   49.5015   11.0680   17.4693 C   0  0  0  0  0  0  0  0  0  0  0  0
   48.6336   13.4105   17.6214 C   0  0  0  0  0  0  0  0  0  0  0  0
   49.7397   13.8522   21.6233 C   0  0  0  0  0  0  0  0  0  0  0  0
   50.7434   11.6135   21.8243 C   0  0  0  0  0  0  0  0  0  0  0  0
   46.8596    9.7815   20.7750 C   0  0  0  0  0  0  0  0  0  0  0  0
   50.6663   12.9739   22.2101 C   0  0  0  0  0  0  0  0  0  0  0  0
   49.0283   12.2888   16.6879 C   0  0  0  0  0  0  0  0  0  0  0  0
   47.3128   10.1519   17.5306 O   0  0  0  0  0  0  0  0  0  0  0  0
   48.9939   14.5645   17.3763 O   0  0  0  0  0  0  0  0  0  0  0  0
   47.6881    7.5250   20.5302 C   0  0  0  0  0  0  0  0  0  0  0  0
   49.6011   15.1795   21.8980 O   0  0  0  0  0  0  0  0  0  0  0  0
   50.5381   15.7557   22.7961 C   0  0  0  0  0  0  0  0  0  0  0  0
   49.6505   11.9192   19.3718 C   0  0  2  0  0  0  0  0  0  0  0  0
   48.8681   13.2270   19.5400 C   0  0  2  0  0  0  0  0  0  0  0  0
   49.8465   11.4087   17.9403 C   0  0  1  0  0  0  0  0  0  0  0  0
   49.5520    9.9837   17.9084 O   0  0  0  0  0  0  0  0  0  0  0  0
   48.8007   10.8199   19.8975 C   0  0  0  0  0  0  0  0  0  0  0  0
   48.6410   13.4039   21.0878 C   0  0  2  0  0  0  0  0  0  0  0  0
   48.8311    9.7327   19.0509 C   0  0  0  0  0  0  0  0  0  0  0  0
   47.9849   10.8911   21.0118 C   0  0  0  0  0  0  0  0  0  0  0  0
   49.9941   13.6327   21.6808 N   0  0  0  0  0  0  0  0  0  0  0  0
   47.8196   12.2167   21.7158 C   0  0  0  0  0  0  0  0  0  0  0  0
   50.9997   11.9748   20.1264 C   0  0  0  0  0  0  0  0  0  0  0  0
   47.5576   13.2791   18.7323 C   0  0  0  0  0  0  0  0  0  0  0  0
   49.0000   12.1750   16.9277 C   0  0  0  0  0  0  0  0  0  0  0  0
   48.1321    8.5779   19.3529 C   0  0  0  0  0  0  0  0  0  0  0  0
   47.2714    9.7401   21.3397 C   0  0  0  0  0  0  0  0  0  0  0  0
   50.8599   12.4493   21.5784 C   0  0  0  0  0  0  0  0  0  0  0  0
   47.3613    8.5863   20.5268 C   0  0  0  0  0  0  0  0  0  0  0  0
   47.6201   12.6186   17.3544 C   0  0  0  0  0  0  0  0  0  0  0  0
   49.6754   14.3154   19.0555 O   0  0  0  0  0  0  0  0  0  0  0  0
   49.3808   12.3428   15.7659 O   0  0  0  0  0  0  0  0  0  0  0  0
   49.9315   14.1165   23.0595 C   0  0  0  0  0  0  0  0  0  0  0  0
   48.2399    7.5467   18.4675 O   0  0  0  0  0  0  0  0  0  0  0  0
   47.5409    6.3501   18.7790 C   0  0  0  0  0  0  0  0  0  0  0  0
   48.6401    8.8700   18.7267 C   0  0  0  0  0  0  0  0  0  0  0  0
   49.2241   13.9804   21.3460 C   0  0  0  0  0  0  0  0  0  0  0  0
   49.0305   12.6823   20.6551 C   0  0  0  0  0  0  0  0  0  0  0  0
   48.7462   10.1970   19.3812 C   0  0  0  0  0  0  0  0  0  0  0  0
   50.1852   14.2895   22.0253 O   0  0  0  0  0  0  0  0  0  0  0  0
   49.4632    7.9762   18.7909 O   0  0  0  0  0  0  0  0  0  0  0  0
   47.7471   11.1709   19.2550 C   0  0  0  0  0  0  0  0  0  0  0  0
   47.8889   12.4098   19.8901 C   0  0  0  0  0  0  0  0  0  0  0  0
   49.8871   10.4701   20.1466 C   0  0  0  0  0  0  0  0  0  0  0  0
   50.0289   11.7080   20.7810 C   0  0  0  0  0  0  0  0  0  0  0  0
   47.5046    8.7255   18.0216 O   0  0  0  0  0  0  0  0  0  0  0  0
   48.2016   14.8317   21.1531 O   0  0  0  0  0  0  0  0  0  0  0  0
   46.6741   13.2333   18.4468 H   0  0  0  0  0  0  0  0  0  0  0  0
   49.1772    8.5528   18.6302 H   0  0  0  0  0  0  0  0  0  0  0  0
   50.8954    9.6036   19.7912 H   0  0  0  0  0  0  0  0  0  0  0  0
   49.9629    8.9798   21.1423 H   0  0  0  0  0  0  0  0  0  0  0  0
   46.3042   11.8631   20.8746 H   0  0  0  0  0  0  0  0  0  0  0  0
   45.7894   11.0627   19.4016 H   0  0  0  0  0  0  0  0  0  0  0  0
   49.7697   10.2825   16.7521 H   0  0  0  0  0  0  0  0  0  0  0  0
   50.4114   11.3213   18.0243 H   0  0  0  0  0  0  0  0  0  0  0  0
   51.5018   10.9775   22.2759 H   0  0  0  0  0  0  0  0  0  0  0  0
   45.8804    9.3855   21.0720 H   0  0  0  0  0  0  0  0  0  0  0  0
   47.4323    9.9108   21.7015 H   0  0  0  0  0  0  0  0  0  0  0  0
   51.3668   13.3206   22.9643 H   0  0  0  0  0  0  0  0  0  0  0  0
   49.8421   12.6406   16.0440 H   0  0  0  0  0  0  0  0  0  0  0  0
   48.1731   12.0580   16.0443 H   0  0  0  0  0  0  0  0  0  0  0  0
   46.8641    9.4240   18.0155 H   0  0  0  0  0  0  0  0  0  0  0  0
   48.2828    7.5836   21.4473 H   0  0  0  0  0  0  0  0  0  0  0  0
   48.1629    6.8066   19.8531 H   0  0  0  0  0  0  0  0  0  0  0  0
   46.7096    7.1063   20.7910 H   0  0  0  0  0  0  0  0  0  0  0  0
   51.5619   15.6529   22.4214 H   0  0  0  0  0  0  0  0  0  0  0  0
   50.3166   16.8248   22.8710 H   0  0  0  0  0  0  0  0  0  0  0  0
   50.4395   15.3244   23.7976 H   0  0  0  0  0  0  0  0  0  0  0  0
   50.8898   11.5321   17.6221 H   0  0  0  0  0  0  0  0  0  0  0  0
   48.0754   14.3334   21.2390 H   0  0  0  0  0  0  0  0  0  0  0  0
   48.0426   12.0940   22.7802 H   0  0  0  0  0  0  0  0  0  0  0  0
   46.7572   12.4874   21.6535 H   0  0  0  0  0  0  0  0  0  0  0  0
   51.6770   12.6617   19.6007 H   0  0  0  0  0  0  0  0  0  0  0  0
   51.4942   10.9944   20.1226 H   0  0  0  0  0  0  0  0  0  0  0  0
   47.2629   14.3286   18.5964 H   0  0  0  0  0  0  0  0  0  0  0  0
   46.7270   12.8200   19.2801 H   0  0  0  0  0  0  0  0  0  0  0  0
   46.6158    9.7271   22.2080 H   0  0  0  0  0  0  0  0  0  0  0  0
   50.4922   11.6304   22.2088 H   0  0  0  0  0  0  0  0  0  0  0  0
   51.8634   12.6945   21.9484 H   0  0  0  0  0  0  0  0  0  0  0  0
   46.7813    7.7178   20.8246 H   0  0  0  0  0  0  0  0  0  0  0  0
   46.9734   11.7335   17.3340 H   0  0  0  0  0  0  0  0  0  0  0  0
   47.2299   13.3134   16.6015 H   0  0  0  0  0  0  0  0  0  0  0  0
   50.2146   14.5967   19.8265 H   0  0  0  0  0  0  0  0  0  0  0  0
   49.2985   15.0080   23.1289 H   0  0  0  0  0  0  0  0  0  0  0  0
   50.9292   14.4173   23.3991 H   0  0  0  0  0  0  0  0  0  0  0  0
   49.5511   13.3659   23.7595 H   0  0  0  0  0  0  0  0  0  0  0  0
   46.4595    6.5199   18.8036 H   0  0  0  0  0  0  0  0  0  0  0  0
   47.8945    5.9188   19.7214 H   0  0  0  0  0  0  0  0  0  0  0  0
   47.7456    5.6261   17.9846 H   0  0  0  0  0  0  0  0  0  0  0  0
   46.8539   10.9769   18.6652 H   0  0  0  0  0  0  0  0  0  0  0  0
   47.1031   13.1539   19.7816 H   0  0  0  0  0  0  0  0  0  0  0  0
   50.6701    9.7207   20.2519 H   0  0  0  0  0  0  0  0  0  0  0  0
   50.9204   11.9080   21.3734 H   0  0  0  0  0  0  0  0  0  0  0  0
   47.5709    7.8195   17.6527 H   0  0  0  0  0  0  0  0  0  0  0  0
   48.4620   15.6304   21.6586 H   0  0  0  0  0  0  0  0  0  0  0  0
 14  7  2  0
 15  8  1  0
 16 11  1  0
 17 15  2  0
 18 13  1  0
  2 19  1  1
 20 13  2  0
 21  9  1  0
  4  7  1  0
 16  9  1  0
  6 10  1  0
 18 12  1  0
 17 14  1  0
 14 22  1  0
 22 23  1  0
  2  1  1  0
  3  1  1  0
  3  4  1  0
  5  1  1  0
  6  2  1  0
  7  5  1  0
  8  5  2  0
  6  9  1  0
 10  8  1  0
  1 11  1  1
 12  2  1  0
 13  3  1  0
 37 30  2  0
 38 31  1  0
 39 34  1  0
 40 38  2  0
 41 36  1  0
 25 42  1  6
 43 36  2  0
 44 32  1  0
 27 30  1  0
 39 32  1  0
 29 33  1  0
 41 35  1  0
 40 37  1  0
 37 45  1  0
 45 46  1  0
 25 24  1  0
 26 24  1  0
 26 27  1  0
 28 24  1  0
 29 25  1  0
 30 28  1  0
 31 28  2  0
 29 32  1  0
 33 31  1  0
 24 34  1  6
 35 25  1  0
 36 26  1  0
 48 49  1  0
 49 56  2  0
 50 47  1  0
 51 48  2  0
 52 47  2  0
 53 50  1  0
 54 53  2  0
 55 50  2  0
 56 55  1  0
 57 47  1  0
 58 48  1  0
 49 54  1  0
  3 59  1  1
  6 60  1  6
 10 61  1  0
 10 62  1  0
 11 63  1  0
 11 64  1  0
 12 65  1  0
 12 66  1  0
 15 67  1  0
 16 68  1  0
 16 69  1  0
 17 70  1  0
 18 71  1  0
 18 72  1  0
 19 73  1  0
 21 74  1  0
 21 75  1  0
 21 76  1  0
 23 77  1  0
 23 78  1  0
 23 79  1  0
 26 80  1  6
 29 81  1  1
 33 82  1  0
 33 83  1  0
 34 84  1  0
 34 85  1  0
 35 86  1  0
 35 87  1  0
 38 88  1  0
 39 89  1  0
 39 90  1  0
 40 91  1  0
 41 92  1  0
 41 93  1  0
 42 94  1  0
 44 95  1  0
 44 96  1  0
 44 97  1  0
 46 98  1  0
 46 99  1  0
 46100  1  0
 53101  1  0
 54102  1  0
 55103  1  0
 56104  1  0
 57105  1  0
 58106  1  0
M  END
> <Uni-Dock RESULT> 
ENERGY=   -5.775  LOWER_BOUND=    2.627  UPPER_BOUND=    5.570
INTER + INTRA:          -5.775
INTER:                  -5.775
INTRA:                   0.000
UNBOUND:                 0.000

$$$$

     RDKit          3D

106114  0  0  0  0  0  0  0  0999 V2000
   43.4024   12.9940    9.4605 C   0  0  2  0  0  0  0  0  0  0  0  0
   42.6687   11.6643    9.2464 C   0  0  2  0  0  0  0  0  0  0  0  0
   44.1482   13.6036    8.2668 C   0  0  1  0  0  0  0  0  0  0  0  0
   45.2936   14.3309    8.8147 O   0  0  0  0  0  0  0  0  0  0  0  0
   44.5915   12.7763   10.3298 C   0  0  0  0  0  0  0  0  0  0  0  0
   42.3060   11.1252   10.6751 C   0  0  2  0  0  0  0  0  0  0  0  0
   45.6210   13.6144    9.9463 C   0  0  0  0  0  0  0  0  0  0  0  0
   44.6964   11.8551   11.3526 C   0  0  0  0  0  0  0  0  0  0  0  0
   41.2891   12.0798   11.2214 N   0  0  0  0  0  0  0  0  0  0  0  0
   43.5731   10.8744   11.5669 C   0  0  0  0  0  0  0  0  0  0  0  0
   42.4621   14.0130   10.1489 C   0  0  0  0  0  0  0  0  0  0  0  0
   43.4678   10.6814    8.3845 C   0  0  0  0  0  0  0  0  0  0  0  0
   44.6478   12.5688    7.2405 C   0  0  0  0  0  0  0  0  0  0  0  0
   46.8116   13.6423   10.6464 C   0  0  0  0  0  0  0  0  0  0  0  0
   45.8932   11.8530   12.0656 C   0  0  0  0  0  0  0  0  0  0  0  0
   41.8175   13.4394   11.4230 C   0  0  0  0  0  0  0  0  0  0  0  0
   46.9338   12.7515   11.7260 C   0  0  0  0  0  0  0  0  0  0  0  0
   43.8231   11.3171    7.0449 C   0  0  0  0  0  0  0  0  0  0  0  0
   41.4416   11.9092    8.5272 O   0  0  0  0  0  0  0  0  0  0  0  0
   45.6360   12.7666    6.5291 O   0  0  0  0  0  0  0  0  0  0  0  0
   40.6479   11.5855   12.4393 C   0  0  0  0  0  0  0  0  0  0  0  0
   47.7576   14.5240   10.2173 O   0  0  0  0  0  0  0  0  0  0  0  0
   49.0223   14.4807   10.8619 C   0  0  0  0  0  0  0  0  0  0  0  0
   44.7194   11.7963    9.6322 C   0  0  2  0  0  0  0  0  0  0  0  0
   45.2137   13.1108    9.0169 C   0  0  2  0  0  0  0  0  0  0  0  0
   44.0661   10.7887    8.6803 C   0  0  1  0  0  0  0  0  0  0  0  0
   42.8452   10.2892    9.2954 O   0  0  0  0  0  0  0  0  0  0  0  0
   43.5414   12.1151   10.4793 C   0  0  0  0  0  0  0  0  0  0  0  0
   45.6406   14.0251   10.2254 C   0  0  2  0  0  0  0  0  0  0  0  0
   42.5358   11.1932   10.2828 C   0  0  0  0  0  0  0  0  0  0  0  0
   43.3957   13.2394   11.2711 C   0  0  0  0  0  0  0  0  0  0  0  0
   46.8311   13.3647   10.8432 N   0  0  0  0  0  0  0  0  0  0  0  0
   44.4466   14.3218   11.2076 C   0  0  0  0  0  0  0  0  0  0  0  0
   45.8291   11.1210   10.4721 C   0  0  0  0  0  0  0  0  0  0  0  0
   44.1909   13.7880    8.0855 C   0  0  0  0  0  0  0  0  0  0  0  0
   43.7919   11.3832    7.3017 C   0  0  0  0  0  0  0  0  0  0  0  0
   41.3492   11.2755   10.9889 C   0  0  0  0  0  0  0  0  0  0  0  0
   42.2100   13.3456   11.9952 C   0  0  0  0  0  0  0  0  0  0  0  0
   46.4979   12.0768   11.4683 C   0  0  0  0  0  0  0  0  0  0  0  0
   41.2038   12.3597   11.8695 C   0  0  0  0  0  0  0  0  0  0  0  0
   43.3604   12.8295    7.2307 C   0  0  0  0  0  0  0  0  0  0  0  0
   46.3688   12.8362    8.2038 O   0  0  0  0  0  0  0  0  0  0  0  0
   43.8209   10.6873    6.2830 O   0  0  0  0  0  0  0  0  0  0  0  0
   47.5345   14.2357   11.7842 C   0  0  0  0  0  0  0  0  0  0  0  0
   40.4218   10.3064   10.7444 O   0  0  0  0  0  0  0  0  0  0  0  0
   39.2078   10.3721   11.4788 C   0  0  0  0  0  0  0  0  0  0  0  0
   41.7014   10.7714   10.3910 C   0  0  0  0  0  0  0  0  0  0  0  0
   46.4983   13.9795   10.2625 C   0  0  0  0  0  0  0  0  0  0  0  0
   45.2438   13.1881   10.2658 C   0  0  0  0  0  0  0  0  0  0  0  0
   42.9108   11.6282   10.3283 C   0  0  0  0  0  0  0  0  0  0  0  0
   47.5233   13.6925   10.8523 O   0  0  0  0  0  0  0  0  0  0  0  0
   41.5973    9.7304   11.0121 O   0  0  0  0  0  0  0  0  0  0  0  0
   42.9433   12.8162    9.5866 C   0  0  0  0  0  0  0  0  0  0  0  0
   44.1065   13.5938    9.5556 C   0  0  0  0  0  0  0  0  0  0  0  0
   44.0483   11.2233   11.0384 C   0  0  0  0  0  0  0  0  0  0  0  0
   45.2104   12.0002   11.0073 C   0  0  0  0  0  0  0  0  0  0  0  0
   40.6771   11.2616    9.6712 O   0  0  0  0  0  0  0  0  0  0  0  0
   46.4088   15.0961    9.5191 O   0  0  0  0  0  0  0  0  0  0  0  0
   43.5172   14.3137    7.7194 H   0  0  0  0  0  0  0  0  0  0  0  0
   41.7853   10.1660   10.5484 H   0  0  0  0  0  0  0  0  0  0  0  0
   43.9609    9.8782   11.3154 H   0  0  0  0  0  0  0  0  0  0  0  0
   43.3091   10.8452   12.6286 H   0  0  0  0  0  0  0  0  0  0  0  0
   42.9925   14.9381   10.4107 H   0  0  0  0  0  0  0  0  0  0  0  0
   41.6690   14.3071    9.4487 H   0  0  0  0  0  0  0  0  0  0  0  0
   42.8668    9.7842    8.1916 H   0  0  0  0  0  0  0  0  0  0  0  0
   44.3846   10.3528    8.8861 H   0  0  0  0  0  0  0  0  0  0  0  0
   46.0447   11.1529   12.8845 H   0  0  0  0  0  0  0  0  0  0  0  0
   40.9981   14.1095   11.7119 H   0  0  0  0  0  0  0  0  0  0  0  0
   42.5382   13.4616   12.2496 H   0  0  0  0  0  0  0  0  0  0  0  0
   47.8424   12.7122   12.3198 H   0  0  0  0  0  0  0  0  0  0  0  0
   44.4066   10.6037    6.4523 H   0  0  0  0  0  0  0  0  0  0  0  0
   42.9316   11.5780    6.4651 H   0  0  0  0  0  0  0  0  0  0  0  0
   40.7728   12.0917    9.2242 H   0  0  0  0  0  0  0  0  0  0  0  0
   41.3288   11.5518   13.2955 H   0  0  0  0  0  0  0  0  0  0  0  0
   40.2374   10.5821   12.2818 H   0  0  0  0  0  0  0  0  0  0  0  0
   39.8022   12.2285   12.7081 H   0  0  0  0  0  0  0  0  0  0  0  0
   49.4886   13.4956   10.7549 H   0  0  0  0  0  0  0  0  0  0  0  0
   49.6729   15.2121   10.3728 H   0  0  0  0  0  0  0  0  0  0  0  0
   48.9364   14.7640   11.9160 H   0  0  0  0  0  0  0  0  0  0  0  0
   44.7237    9.9254    8.5155 H   0  0  0  0  0  0  0  0  0  0  0  0
   45.9949   14.9800    9.8139 H   0  0  0  0  0  0  0  0  0  0  0  0
   44.8042   14.5418   12.2184 H   0  0  0  0  0  0  0  0  0  0  0  0
   43.9514   15.2349   10.8513 H   0  0  0  0  0  0  0  0  0  0  0  0
   46.6012   10.7277    9.7969 H   0  0  0  0  0  0  0  0  0  0  0  0
   45.4354   10.2569   11.0236 H   0  0  0  0  0  0  0  0  0  0  0  0
   44.7206   14.4760    7.4127 H   0  0  0  0  0  0  0  0  0  0  0  0
   43.4919   14.4201    8.6446 H   0  0  0  0  0  0  0  0  0  0  0  0
   42.0345   14.2026   12.6421 H   0  0  0  0  0  0  0  0  0  0  0  0
   45.8566   12.2141   12.3474 H   0  0  0  0  0  0  0  0  0  0  0  0
   47.4151   11.5951   11.8297 H   0  0  0  0  0  0  0  0  0  0  0  0
   40.2972   12.4927   12.4525 H   0  0  0  0  0  0  0  0  0  0  0  0
   42.3086   12.8703    7.5373 H   0  0  0  0  0  0  0  0  0  0  0  0
   43.3979   13.1527    6.1838 H   0  0  0  0  0  0  0  0  0  0  0  0
   47.1331   12.8937    8.8175 H   0  0  0  0  0  0  0  0  0  0  0  0
   47.7954   15.1881   11.3099 H   0  0  0  0  0  0  0  0  0  0  0  0
   48.4793   13.7732   12.0918 H   0  0  0  0  0  0  0  0  0  0  0  0
   46.9542   14.4461   12.6882 H   0  0  0  0  0  0  0  0  0  0  0  0
   38.6529   11.2860   11.2429 H   0  0  0  0  0  0  0  0  0  0  0  0
   39.3910   10.2879   12.5551 H   0  0  0  0  0  0  0  0  0  0  0  0
   38.5888    9.5209   11.1795 H   0  0  0  0  0  0  0  0  0  0  0  0
   42.0698   13.1469    9.0291 H   0  0  0  0  0  0  0  0  0  0  0  0
   44.1137   14.5134    8.9749 H   0  0  0  0  0  0  0  0  0  0  0  0
   44.0345   10.3019   11.6185 H   0  0  0  0  0  0  0  0  0  0  0  0
   46.0880   11.6749   11.5638 H   0  0  0  0  0  0  0  0  0  0  0  0
   39.9615   10.6046    9.8035 H   0  0  0  0  0  0  0  0  0  0  0  0
   47.2930   15.5100    9.6090 H   0  0  0  0  0  0  0  0  0  0  0  0
 14  7  2  0
 15  8  1  0
 16 11  1  0
 17 15  2  0
 18 13  1  0
  2 19  1  1
 20 13  2  0
 21  9  1  0
  4  7  1  0
 16  9  1  0
  6 10  1  0
 18 12  1  0
 17 14  1  0
 14 22  1  0
 22 23  1  0
  2  1  1  0
  3  1  1  0
  3  4  1  0
  5  1  1  0
  6  2  1  0
  7  5  1  0
  8  5  2  0
  6  9  1  0
 10  8  1  0
  1 11  1  1
 12  2  1  0
 13  3  1  0
 37 30  2  0
 38 31  1  0
 39 34  1  0
 40 38  2  0
 41 36  1  0
 25 42  1  6
 43 36  2  0
 44 32  1  0
 27 30  1  0
 39 32  1  0
 29 33  1  0
 41 35  1  0
 40 37  1  0
 37 45  1  0
 45 46  1  0
 25 24  1  0
 26 24  1  0
 26 27  1  0
 28 24  1  0
 29 25  1  0
 30 28  1  0
 31 28  2  0
 29 32  1  0
 33 31  1  0
 24 34  1  6
 35 25  1  0
 36 26  1  0
 48 49  1  0
 49 56  2  0
 50 47  1  0
 51 48  2  0
 52 47  2  0
 53 50  1  0
 54 53  2  0
 55 50  2  0
 56 55  1  0
 57 47  1  0
 58 48  1  0
 49 54  1  0
  3 59  1  1
  6 60  1  6
 10 61  1  0
 10 62  1  0
 11 63  1  0
 11 64  1  0
 12 65  1  0
 12 66  1  0
 15 67  1  0
 16 68  1  0
 16 69  1  0
 17 70  1  0
 18 71  1  0
 18 72  1  0
 19 73  1  0
 21 74  1  0
 21 75  1  0
 21 76  1  0
 23 77  1  0
 23 78  1  0
 23 79  1  0
 26 80  1  6
 29 81  1  1
 33 82  1  0
 33 83  1  0
 34 84  1  0
 34 85  1  0
 35 86  1  0
 35 87  1  0
 38 88  1  0
 39 89  1  0
 39 90  1  0
 40 91  1  0
 41 92  1  0
 41 93  1  0
 42 94  1  0
 44 95  1  0
 44 96  1  0
 44 97  1  0
 46 98  1  0
 46 99  1  0
 46100  1  0
 53101  1  0
 54102  1  0
 55103  1  0
 56104  1  0
 57105  1  0
 58106  1  0
M  END
> <Uni-Dock RESULT> 
ENERGY=   -5.708  LOWER_BOUND=   10.931  UPPER_BOUND=   13.145
INTER + INTRA:          -5.708
INTER:                  -5.708
INTRA:                   0.000
UNBOUND:                 0.000

$$$$

     RDKit          3D

106114  0  0  0  0  0  0  0  0999 V2000
   47.9681   10.6876   18.8119 C   0  0  2  0  0  0  0  0  0  0  0  0
   49.0727   11.5478   18.1854 C   0  0  2  0  0  0  0  0  0  0  0  0
   46.8505   11.4023   19.5819 C   0  0  1  0  0  0  0  0  0  0  0  0
   46.4199   10.4886   20.6407 O   0  0  0  0  0  0  0  0  0  0  0  0
   48.5220    9.9191   19.9608 C   0  0  0  0  0  0  0  0  0  0  0  0
   50.2233   10.5610   17.7784 C   0  0  2  0  0  0  0  0  0  0  0  0
   47.5666    9.7884   20.9505 C   0  0  0  0  0  0  0  0  0  0  0  0
   49.8073    9.4277   20.0694 C   0  0  0  0  0  0  0  0  0  0  0  0
   49.6650    9.7247   16.6681 N   0  0  0  0  0  0  0  0  0  0  0  0
   50.8141    9.7812   19.0059 C   0  0  0  0  0  0  0  0  0  0  0  0
   47.4158    9.6898   17.7652 C   0  0  0  0  0  0  0  0  0  0  0  0
   49.5176   12.6943   19.0991 C   0  0  0  0  0  0  0  0  0  0  0  0
   47.2757   12.7431   20.2105 C   0  0  0  0  0  0  0  0  0  0  0  0
   47.8245    9.0570   22.0937 C   0  0  0  0  0  0  0  0  0  0  0  0
   50.0976    8.6979   21.2201 C   0  0  0  0  0  0  0  0  0  0  0  0
   48.5353    8.8791   17.0888 C   0  0  0  0  0  0  0  0  0  0  0  0
   49.1087    8.4999   22.2142 C   0  0  0  0  0  0  0  0  0  0  0  0
   48.3229   13.5586   19.4869 C   0  0  0  0  0  0  0  0  0  0  0  0
   48.5655   12.1741   16.9881 O   0  0  0  0  0  0  0  0  0  0  0  0
   46.7376   13.1995   21.2224 O   0  0  0  0  0  0  0  0  0  0  0  0
   50.6880    8.9271   15.9929 C   0  0  0  0  0  0  0  0  0  0  0  0
   46.8123    8.9536   22.9999 O   0  0  0  0  0  0  0  0  0  0  0  0
   47.1051    8.2977   24.2250 C   0  0  0  0  0  0  0  0  0  0  0  0
   49.0634   10.9750   20.1963 C   0  0  2  0  0  0  0  0  0  0  0  0
   47.5972   10.8756   20.6336 C   0  0  2  0  0  0  0  0  0  0  0  0
   49.5386   12.3336   19.6705 C   0  0  1  0  0  0  0  0  0  0  0  0
   50.3077   12.1200   18.4533 O   0  0  0  0  0  0  0  0  0  0  0  0
   49.2131   10.1775   18.9519 C   0  0  0  0  0  0  0  0  0  0  0  0
   47.3311    9.3516   20.9255 C   0  0  2  0  0  0  0  0  0  0  0  0
   49.9738   10.8577   18.0254 C   0  0  0  0  0  0  0  0  0  0  0  0
   48.5879    8.9736   18.6832 C   0  0  0  0  0  0  0  0  0  0  0  0
   48.1608    9.0084   22.1208 N   0  0  0  0  0  0  0  0  0  0  0  0
   47.5633    8.4460   19.6588 C   0  0  0  0  0  0  0  0  0  0  0  0
   50.0118   10.4488   21.2992 C   0  0  0  0  0  0  0  0  0  0  0  0
   46.6018   11.4746   19.6222 C   0  0  0  0  0  0  0  0  0  0  0  0
   48.3840   13.3037   19.4364 C   0  0  0  0  0  0  0  0  0  0  0  0
   50.2680   10.2941   16.7969 C   0  0  0  0  0  0  0  0  0  0  0  0
   48.8694    8.3831   17.4529 C   0  0  0  0  0  0  0  0  0  0  0  0
   49.6024    9.0735   21.8415 C   0  0  0  0  0  0  0  0  0  0  0  0
   49.7195    9.0300   16.5261 C   0  0  0  0  0  0  0  0  0  0  0  0
   47.0845   12.7395   18.9110 C   0  0  0  0  0  0  0  0  0  0  0  0
   47.4249   11.6247   21.8501 O   0  0  0  0  0  0  0  0  0  0  0  0
   48.5288   14.5217   19.5724 O   0  0  0  0  0  0  0  0  0  0  0  0
   47.7998    7.7179   22.7066 C   0  0  0  0  0  0  0  0  0  0  0  0
   51.0456   11.0320   15.9544 O   0  0  0  0  0  0  0  0  0  0  0  0
   51.3687   10.4532   14.6981 C   0  0  0  0  0  0  0  0  0  0  0  0
   50.4262   11.0249   17.2172 C   0  0  0  0  0  0  0  0  0  0  0  0
   47.3590    9.2682   21.7807 C   0  0  0  0  0  0  0  0  0  0  0  0
   48.1050    9.7326   20.5857 C   0  0  0  0  0  0  0  0  0  0  0  0
   49.5964   10.5869   18.3662 C   0  0  0  0  0  0  0  0  0  0  0  0
   47.8507    8.7925   22.7870 O   0  0  0  0  0  0  0  0  0  0  0  0
   51.6393   10.9612   17.1493 O   0  0  0  0  0  0  0  0  0  0  0  0
   48.1998   10.6958   18.3597 C   0  0  0  0  0  0  0  0  0  0  0  0
   47.4564   10.2699   19.4662 C   0  0  0  0  0  0  0  0  0  0  0  0
   50.2442   10.0492   19.4857 C   0  0  0  0  0  0  0  0  0  0  0  0
   49.5015    9.6238   20.5913 C   0  0  0  0  0  0  0  0  0  0  0  0
   49.6944   11.5225   16.2051 O   0  0  0  0  0  0  0  0  0  0  0  0
   46.0291    9.4217   21.6576 O   0  0  0  0  0  0  0  0  0  0  0  0
   45.9900   11.6137   18.9363 H   0  0  0  0  0  0  0  0  0  0  0  0
   51.0325   11.1561   17.3334 H   0  0  0  0  0  0  0  0  0  0  0  0
   51.5672   10.4280   19.4754 H   0  0  0  0  0  0  0  0  0  0  0  0
   51.3399    8.8772   18.6833 H   0  0  0  0  0  0  0  0  0  0  0  0
   46.6989    8.9898   18.2144 H   0  0  0  0  0  0  0  0  0  0  0  0
   46.8589   10.2406   16.9957 H   0  0  0  0  0  0  0  0  0  0  0  0
   50.2441   13.3263   18.5737 H   0  0  0  0  0  0  0  0  0  0  0  0
   50.0090   12.3247   20.0057 H   0  0  0  0  0  0  0  0  0  0  0  0
   51.0913    8.2816   21.3717 H   0  0  0  0  0  0  0  0  0  0  0  0
   48.1032    8.3845   16.2098 H   0  0  0  0  0  0  0  0  0  0  0  0
   48.8729    8.0774   17.7571 H   0  0  0  0  0  0  0  0  0  0  0  0
   49.3867    7.9167   23.0873 H   0  0  0  0  0  0  0  0  0  0  0  0
   48.6610   14.3614   20.1517 H   0  0  0  0  0  0  0  0  0  0  0  0
   47.8544   14.0264   18.6147 H   0  0  0  0  0  0  0  0  0  0  0  0
   48.7489   11.5295   16.2690 H   0  0  0  0  0  0  0  0  0  0  0  0
   51.0902    8.1282   16.6236 H   0  0  0  0  0  0  0  0  0  0  0  0
   51.5184    9.5606   15.6624 H   0  0  0  0  0  0  0  0  0  0  0  0
   50.2717    8.4650   15.0907 H   0  0  0  0  0  0  0  0  0  0  0  0
   47.9125    8.8051   24.7636 H   0  0  0  0  0  0  0  0  0  0  0  0
   46.2085    8.3411   24.8509 H   0  0  0  0  0  0  0  0  0  0  0  0
   47.3443    7.2423   24.0587 H   0  0  0  0  0  0  0  0  0  0  0  0
   50.2048   12.8202   20.3945 H   0  0  0  0  0  0  0  0  0  0  0  0
   46.2825    9.2485   21.2364 H   0  0  0  0  0  0  0  0  0  0  0  0
   47.8233    7.4211   19.9411 H   0  0  0  0  0  0  0  0  0  0  0  0
   46.6066    8.3840   19.1234 H   0  0  0  0  0  0  0  0  0  0  0  0
   50.0216   11.1622   22.1346 H   0  0  0  0  0  0  0  0  0  0  0  0
   51.0460   10.3897   20.9347 H   0  0  0  0  0  0  0  0  0  0  0  0
   45.6629   11.7104   20.1414 H   0  0  0  0  0  0  0  0  0  0  0  0
   46.3242   10.7484   18.8500 H   0  0  0  0  0  0  0  0  0  0  0  0
   48.4151    7.4324   17.1815 H   0  0  0  0  0  0  0  0  0  0  0  0
   49.9092    8.2861   21.1423 H   0  0  0  0  0  0  0  0  0  0  0  0
   50.1647    8.8980   22.7673 H   0  0  0  0  0  0  0  0  0  0  0  0
   49.9024    8.5288   15.5803 H   0  0  0  0  0  0  0  0  0  0  0  0
   47.2264   12.5372   17.8428 H   0  0  0  0  0  0  0  0  0  0  0  0
   46.3130   13.5146   18.9868 H   0  0  0  0  0  0  0  0  0  0  0  0
   47.6313   10.9916   22.5717 H   0  0  0  0  0  0  0  0  0  0  0  0
   46.7277    7.6794   22.9283 H   0  0  0  0  0  0  0  0  0  0  0  0
   48.3192    7.5791   23.6616 H   0  0  0  0  0  0  0  0  0  0  0  0
   48.0512    6.8700   22.0617 H   0  0  0  0  0  0  0  0  0  0  0  0
   50.4690   10.2893   14.0962 H   0  0  0  0  0  0  0  0  0  0  0  0
   51.9345    9.5242   14.8239 H   0  0  0  0  0  0  0  0  0  0  0  0
   52.0059   11.1598   14.1577 H   0  0  0  0  0  0  0  0  0  0  0  0
   47.6791   11.1104   17.4993 H   0  0  0  0  0  0  0  0  0  0  0  0
   46.3729   10.3616   19.4437 H   0  0  0  0  0  0  0  0  0  0  0  0
   51.3293    9.9595   19.5020 H   0  0  0  0  0  0  0  0  0  0  0  0
   50.0167    9.2073   21.4555 H   0  0  0  0  0  0  0  0  0  0  0  0
   50.3623   11.7662   15.5300 H   0  0  0  0  0  0  0  0  0  0  0  0
   45.6735    9.0787   22.5044 H   0  0  0  0  0  0  0  0  0  0  0  0
 14  7  2  0
 15  8  1  0
 16 11  1  0
 17 15  2  0
 18 13  1  0
  2 19  1  1
 20 13  2  0
 21  9  1  0
  4  7  1  0
 16  9  1  0
  6 10  1  0
 18 12  1  0
 17 14  1  0
 14 22  1  0
 22 23  1  0
  2  1  1  0
  3  1  1  0
  3  4  1  0
  5  1  1  0
  6  2  1  0
  7  5  1  0
  8  5  2  0
  6  9  1  0
 10  8  1  0
  1 11  1  1
 12  2  1  0
 13  3  1  0
 37 30  2  0
 38 31  1  0
 39 34  1  0
 40 38  2  0
 41 36  1  0
 25 42  1  6
 43 36  2  0
 44 32  1  0
 27 30  1  0
 39 32  1  0
 29 33  1  0
 41 35  1  0
 40 37  1  0
 37 45  1  0
 45 46  1  0
 25 24  1  0
 26 24  1  0
 26 27  1  0
 28 24  1  0
 29 25  1  0
 30 28  1  0
 31 28  2  0
 29 32  1  0
 33 31  1  0
 24 34  1  6
 35 25  1  0
 36 26  1  0
 48 49  1  0
 49 56  2  0
 50 47  1  0
 51 48  2  0
 52 47  2  0
 53 50  1  0
 54 53  2  0
 55 50  2  0
 56 55  1  0
 57 47  1  0
 58 48  1  0
 49 54  1  0
  3 59  1  1
  6 60  1  6
 10 61  1  0
 10 62  1  0
 11 63  1  0
 11 64  1  0
 12 65  1  0
 12 66  1  0
 15 67  1  0
 16 68  1  0
 16 69  1  0
 17 70  1  0
 18 71  1  0
 18 72  1  0
 19 73  1  0
 21 74  1  0
 21 75  1  0
 21 76  1  0
 23 77  1  0
 23 78  1  0
 23 79  1  0
 26 80  1  6
 29 81  1  1
 33 82  1  0
 33 83  1  0
 34 84  1  0
 34 85  1  0
 35 86  1  0
 35 87  1  0
 38 88  1  0
 39 89  1  0
 39 90  1  0
 40 91  1  0
 41 92  1  0
 41 93  1  0
 42 94  1  0
 44 95  1  0
 44 96  1  0
 44 97  1  0
 46 98  1  0
 46 99  1  0
 46100  1  0
 53101  1  0
 54102  1  0
 55103  1  0
 56104  1  0
 57105  1  0
 58106  1  0
M  END
> <Uni-Dock RESULT> 
ENERGY=   -5.654  LOWER_BOUND=    2.720  UPPER_BOUND=    5.374
INTER + INTRA:          -5.654
INTER:                  -5.654
INTRA:                   0.000
UNBOUND:                 0.000

$$$$

     RDKit          3D

106114  0  0  0  0  0  0  0  0999 V2000
   49.7023    6.6178   18.3256 C   0  0  2  0  0  0  0  0  0  0  0  0
   48.2557    6.8621   18.7731 C   0  0  2  0  0  0  0  0  0  0  0  0
   49.9592    5.5070   17.2995 C   0  0  1  0  0  0  0  0  0  0  0  0
   51.2882    4.9676   17.5891 O   0  0  0  0  0  0  0  0  0  0  0  0
   50.4790    6.0182   19.4456 C   0  0  0  0  0  0  0  0  0  0  0  0
   48.3354    7.7847   20.0403 C   0  0  2  0  0  0  0  0  0  0  0  0
   51.4118    5.1255   18.9532 C   0  0  0  0  0  0  0  0  0  0  0  0
   50.2950    6.2671   20.7908 C   0  0  0  0  0  0  0  0  0  0  0  0
   48.8489    9.1033   19.5490 N   0  0  0  0  0  0  0  0  0  0  0  0
   49.1330    7.1246   21.2201 C   0  0  0  0  0  0  0  0  0  0  0  0
   50.3649    7.9569   17.9208 C   0  0  0  0  0  0  0  0  0  0  0  0
   47.4764    5.5605   18.9874 C   0  0  0  0  0  0  0  0  0  0  0  0
   48.9279    4.3630   17.3374 C   0  0  0  0  0  0  0  0  0  0  0  0
   52.2986    4.4873   19.7986 C   0  0  0  0  0  0  0  0  0  0  0  0
   51.1678    5.6244   21.6661 C   0  0  0  0  0  0  0  0  0  0  0  0
   50.2186    9.0307   19.0133 C   0  0  0  0  0  0  0  0  0  0  0  0
   52.1717    4.7566   21.1717 C   0  0  0  0  0  0  0  0  0  0  0  0
   47.5077    4.7085   17.7233 C   0  0  0  0  0  0  0  0  0  0  0  0
   47.5512    7.5751   17.7346 O   0  0  0  0  0  0  0  0  0  0  0  0
   49.2035    3.2122   16.9888 O   0  0  0  0  0  0  0  0  0  0  0  0
   48.7386   10.1614   20.5525 C   0  0  0  0  0  0  0  0  0  0  0  0
   53.2055    3.6502   19.2214 O   0  0  0  0  0  0  0  0  0  0  0  0
   54.0464    2.9077   20.0922 C   0  0  0  0  0  0  0  0  0  0  0  0
   49.4706    5.3636   19.5794 C   0  0  2  0  0  0  0  0  0  0  0  0
   50.4152    4.8963   18.4658 C   0  0  2  0  0  0  0  0  0  0  0  0
   47.9674    5.2298   19.3138 C   0  0  1  0  0  0  0  0  0  0  0  0
   47.3114    6.4674   19.7096 O   0  0  0  0  0  0  0  0  0  0  0  0
   49.5641    6.8444   19.6520 C   0  0  0  0  0  0  0  0  0  0  0  0
   51.8617    5.3317   18.9091 C   0  0  2  0  0  0  0  0  0  0  0  0
   48.3122    7.4063   19.7803 C   0  0  0  0  0  0  0  0  0  0  0  0
   50.7177    7.5902   19.4926 C   0  0  0  0  0  0  0  0  0  0  0  0
   52.1865    4.5160   20.1192 N   0  0  0  0  0  0  0  0  0  0  0  0
   51.9933    6.8902   19.0892 C   0  0  0  0  0  0  0  0  0  0  0  0
   49.8490    4.7254   20.9368 C   0  0  0  0  0  0  0  0  0  0  0  0
   50.0359    5.4156   17.0662 C   0  0  0  0  0  0  0  0  0  0  0  0
   47.6618    4.8779   17.8605 C   0  0  0  0  0  0  0  0  0  0  0  0
   48.1569    8.7761   19.8934 C   0  0  0  0  0  0  0  0  0  0  0  0
   50.5892    8.9732   19.6045 C   0  0  0  0  0  0  0  0  0  0  0  0
   51.3402    4.8583   21.2712 C   0  0  0  0  0  0  0  0  0  0  0  0
   49.3207    9.5589   19.8236 C   0  0  0  0  0  0  0  0  0  0  0  0
   48.5337    5.4894   16.7887 C   0  0  0  0  0  0  0  0  0  0  0  0
   50.3604    3.4607   18.3838 O   0  0  0  0  0  0  0  0  0  0  0  0
   46.6770    4.1995   17.5557 O   0  0  0  0  0  0  0  0  0  0  0  0
   53.6035    4.5753   20.4759 C   0  0  0  0  0  0  0  0  0  0  0  0
   46.8826    9.2388   20.0388 O   0  0  0  0  0  0  0  0  0  0  0  0
   46.7151   10.6427   20.1749 C   0  0  0  0  0  0  0  0  0  0  0  0
   47.6593    8.0779   19.8726 C   0  0  0  0  0  0  0  0  0  0  0  0
   52.2360    4.6220   19.2179 C   0  0  0  0  0  0  0  0  0  0  0  0
   51.0614    5.5198   19.3377 C   0  0  0  0  0  0  0  0  0  0  0  0
   48.8357    7.2007   19.6559 C   0  0  0  0  0  0  0  0  0  0  0  0
   52.7566    4.0047   20.1282 O   0  0  0  0  0  0  0  0  0  0  0  0
   47.1039    8.2748   20.9372 O   0  0  0  0  0  0  0  0  0  0  0  0
   49.4150    7.0317   18.3916 C   0  0  0  0  0  0  0  0  0  0  0  0
   50.5245    6.1938   18.2331 C   0  0  0  0  0  0  0  0  0  0  0  0
   49.3733    6.5268   20.7599 C   0  0  0  0  0  0  0  0  0  0  0  0
   50.4818    5.6895   20.6016 C   0  0  0  0  0  0  0  0  0  0  0  0
   47.2340    8.6688   18.7424 O   0  0  0  0  0  0  0  0  0  0  0  0
   52.7042    4.5405   17.9603 O   0  0  0  0  0  0  0  0  0  0  0  0
   49.9603    5.8988   16.2756 H   0  0  0  0  0  0  0  0  0  0  0  0
   47.3087    7.9679   20.3858 H   0  0  0  0  0  0  0  0  0  0  0  0
   48.4359    6.4750   21.7661 H   0  0  0  0  0  0  0  0  0  0  0  0
   49.4777    7.8788   21.9343 H   0  0  0  0  0  0  0  0  0  0  0  0
   51.4323    7.8274   17.6978 H   0  0  0  0  0  0  0  0  0  0  0  0
   49.9050    8.3251   16.9942 H   0  0  0  0  0  0  0  0  0  0  0  0
   46.4297    5.7897   19.2226 H   0  0  0  0  0  0  0  0  0  0  0  0
   47.8754    4.9810   19.8270 H   0  0  0  0  0  0  0  0  0  0  0  0
   51.0798    5.7745   22.7400 H   0  0  0  0  0  0  0  0  0  0  0  0
   50.4873    9.9969   18.5681 H   0  0  0  0  0  0  0  0  0  0  0  0
   50.9445    8.8498   19.8155 H   0  0  0  0  0  0  0  0  0  0  0  0
   52.8297    4.2878   21.8977 H   0  0  0  0  0  0  0  0  0  0  0  0
   46.9588    3.7776   17.9040 H   0  0  0  0  0  0  0  0  0  0  0  0
   47.0328    5.2137   16.8759 H   0  0  0  0  0  0  0  0  0  0  0  0
   47.7047    8.5257   17.9324 H   0  0  0  0  0  0  0  0  0  0  0  0
   49.4174   10.0178   21.3990 H   0  0  0  0  0  0  0  0  0  0  0  0
   47.7144   10.2277   20.9353 H   0  0  0  0  0  0  0  0  0  0  0  0
   48.9655   11.1341   20.1017 H   0  0  0  0  0  0  0  0  0  0  0  0
   53.4600    2.2677   20.7599 H   0  0  0  0  0  0  0  0  0  0  0  0
   54.6763    2.2582   19.4765 H   0  0  0  0  0  0  0  0  0  0  0  0
   54.7071    3.5704   20.6606 H   0  0  0  0  0  0  0  0  0  0  0  0
   47.5346    4.4242   19.9208 H   0  0  0  0  0  0  0  0  0  0  0  0
   52.5620    5.0142   18.1245 H   0  0  0  0  0  0  0  0  0  0  0  0
   52.7884    7.1463   19.7962 H   0  0  0  0  0  0  0  0  0  0  0  0
   52.2989    7.3051   18.1195 H   0  0  0  0  0  0  0  0  0  0  0  0
   49.5921    3.6575   20.9154 H   0  0  0  0  0  0  0  0  0  0  0  0
   49.2642    5.1649   21.7557 H   0  0  0  0  0  0  0  0  0  0  0  0
   50.4930    4.7658   16.3077 H   0  0  0  0  0  0  0  0  0  0  0  0
   50.4547    6.4104   16.8771 H   0  0  0  0  0  0  0  0  0  0  0  0
   51.4590    9.6177   19.4955 H   0  0  0  0  0  0  0  0  0  0  0  0
   51.5555    5.8694   21.6379 H   0  0  0  0  0  0  0  0  0  0  0  0
   51.5584    4.1771   22.1032 H   0  0  0  0  0  0  0  0  0  0  0  0
   49.2755   10.6413   19.8986 H   0  0  0  0  0  0  0  0  0  0  0  0
   48.2249    6.5354   16.6761 H   0  0  0  0  0  0  0  0  0  0  0  0
   48.3162    4.9907   15.8369 H   0  0  0  0  0  0  0  0  0  0  0  0
   51.0354    3.1422   19.0219 H   0  0  0  0  0  0  0  0  0  0  0  0
   54.2304    4.3038   19.6195 H   0  0  0  0  0  0  0  0  0  0  0  0
   53.8242    3.8473   21.2650 H   0  0  0  0  0  0  0  0  0  0  0  0
   53.9138    5.5621   20.8337 H   0  0  0  0  0  0  0  0  0  0  0  0
   47.0494   11.1689   19.2748 H   0  0  0  0  0  0  0  0  0  0  0  0
   47.2290   11.0183   21.0659 H   0  0  0  0  0  0  0  0  0  0  0  0
   45.6464   10.8421   20.2988 H   0  0  0  0  0  0  0  0  0  0  0  0
   49.0116    7.5469   17.5226 H   0  0  0  0  0  0  0  0  0  0  0  0
   50.9616    6.0747   17.2443 H   0  0  0  0  0  0  0  0  0  0  0  0
   48.9315    6.6506   21.7475 H   0  0  0  0  0  0  0  0  0  0  0  0
   50.8907    5.1714   21.4676 H   0  0  0  0  0  0  0  0  0  0  0  0
   46.4672    9.2065   19.0326 H   0  0  0  0  0  0  0  0  0  0  0  0
   53.4648    3.9260   18.0320 H   0  0  0  0  0  0  0  0  0  0  0  0
 14  7  2  0
 15  8  1  0
 16 11  1  0
 17 15  2  0
 18 13  1  0
  2 19  1  1
 20 13  2  0
 21  9  1  0
  4  7  1  0
 16  9  1  0
  6 10  1  0
 18 12  1  0
 17 14  1  0
 14 22  1  0
 22 23  1  0
  2  1  1  0
  3  1  1  0
  3  4  1  0
  5  1  1  0
  6  2  1  0
  7  5  1  0
  8  5  2  0
  6  9  1  0
 10  8  1  0
  1 11  1  1
 12  2  1  0
 13  3  1  0
 37 30  2  0
 38 31  1  0
 39 34  1  0
 40 38  2  0
 41 36  1  0
 25 42  1  6
 43 36  2  0
 44 32  1  0
 27 30  1  0
 39 32  1  0
 29 33  1  0
 41 35  1  0
 40 37  1  0
 37 45  1  0
 45 46  1  0
 25 24  1  0
 26 24  1  0
 26 27  1  0
 28 24  1  0
 29 25  1  0
 30 28  1  0
 31 28  2  0
 29 32  1  0
 33 31  1  0
 24 34  1  6
 35 25  1  0
 36 26  1  0
 48 49  1  0
 49 56  2  0
 50 47  1  0
 51 48  2  0
 52 47  2  0
 53 50  1  0
 54 53  2  0
 55 50  2  0
 56 55  1  0
 57 47  1  0
 58 48  1  0
 49 54  1  0
  3 59  1  1
  6 60  1  6
 10 61  1  0
 10 62  1  0
 11 63  1  0
 11 64  1  0
 12 65  1  0
 12 66  1  0
 15 67  1  0
 16 68  1  0
 16 69  1  0
 17 70  1  0
 18 71  1  0
 18 72  1  0
 19 73  1  0
 21 74  1  0
 21 75  1  0
 21 76  1  0
 23 77  1  0
 23 78  1  0
 23 79  1  0
 26 80  1  6
 29 81  1  1
 33 82  1  0
 33 83  1  0
 34 84  1  0
 34 85  1  0
 35 86  1  0
 35 87  1  0
 38 88  1  0
 39 89  1  0
 39 90  1  0
 40 91  1  0
 41 92  1  0
 41 93  1  0
 42 94  1  0
 44 95  1  0
 44 96  1  0
 44 97  1  0
 46 98  1  0
 46 99  1  0
 46100  1  0
 53101  1  0
 54102  1  0
 55103  1  0
 56104  1  0
 57105  1  0
 58106  1  0
M  END
> <Uni-Dock RESULT> 
ENERGY=   -5.649  LOWER_BOUND=    2.027  UPPER_BOUND=    4.937
INTER + INTRA:          -5.649
INTER:                  -5.649
INTRA:                   0.000
UNBOUND:                 0.000

$$$$

     RDKit          3D

106114  0  0  0  0  0  0  0  0999 V2000
   47.9511   11.1296   20.8404 C   0  0  2  0  0  0  0  0  0  0  0  0
   48.8761   11.3353   22.0464 C   0  0  2  0  0  0  0  0  0  0  0  0
   47.0935    9.8585   20.8011 C   0  0  1  0  0  0  0  0  0  0  0  0
   46.9304    9.5059   19.3903 O   0  0  0  0  0  0  0  0  0  0  0  0
   48.7653   10.8409   19.6275 C   0  0  0  0  0  0  0  0  0  0  0  0
   49.8532   12.5011   21.6597 C   0  0  2  0  0  0  0  0  0  0  0  0
   48.0989    9.9497   18.8083 C   0  0  0  0  0  0  0  0  0  0  0  0
   50.0206   11.3432   19.3494 C   0  0  0  0  0  0  0  0  0  0  0  0
   49.0017   13.7303   21.5721 N   0  0  0  0  0  0  0  0  0  0  0  0
   50.7233   12.1674   20.3966 C   0  0  0  0  0  0  0  0  0  0  0  0
   47.1177   12.4093   20.5877 C   0  0  0  0  0  0  0  0  0  0  0  0
   49.5753   10.0431   22.4812 C   0  0  0  0  0  0  0  0  0  0  0  0
   47.7043    8.6623   21.5558 C   0  0  0  0  0  0  0  0  0  0  0  0
   48.6270    9.5766   17.5876 C   0  0  0  0  0  0  0  0  0  0  0  0
   50.5820   10.9705   18.1300 C   0  0  0  0  0  0  0  0  0  0  0  0
   47.9990   13.6674   20.4956 C   0  0  0  0  0  0  0  0  0  0  0  0
   49.8826   10.1093   17.2500 C   0  0  0  0  0  0  0  0  0  0  0  0
   48.5473    8.9564   22.7758 C   0  0  0  0  0  0  0  0  0  0  0  0
   48.0905   11.7575   23.1812 O   0  0  0  0  0  0  0  0  0  0  0  0
   47.4620    7.4925   21.2482 O   0  0  0  0  0  0  0  0  0  0  0  0
   49.7907   14.9579   21.4766 C   0  0  0  0  0  0  0  0  0  0  0  0
   47.8848    8.7200   16.8315 O   0  0  0  0  0  0  0  0  0  0  0  0
   48.4700    8.2465   15.6274 C   0  0  0  0  0  0  0  0  0  0  0  0
   49.3777   10.1434   20.4034 C   0  0  2  0  0  0  0  0  0  0  0  0
   48.0749    9.5410   19.8646 C   0  0  2  0  0  0  0  0  0  0  0  0
   49.7353    9.8296   21.8601 C   0  0  1  0  0  0  0  0  0  0  0  0
   50.1532   11.0611   22.5139 O   0  0  0  0  0  0  0  0  0  0  0  0
   49.1752   11.6102   20.5234 C   0  0  0  0  0  0  0  0  0  0  0  0
   47.8534   10.1804   18.4431 C   0  0  2  0  0  0  0  0  0  0  0  0
   49.6851   12.0769   21.7157 C   0  0  0  0  0  0  0  0  0  0  0  0
   48.4693   12.4038   19.6377 C   0  0  0  0  0  0  0  0  0  0  0  0
   48.9573    9.6606   17.5792 N   0  0  0  0  0  0  0  0  0  0  0  0
   47.7218   11.7481   18.5014 C   0  0  0  0  0  0  0  0  0  0  0  0
   50.5671    9.8315   19.4648 C   0  0  0  0  0  0  0  0  0  0  0  0
   46.8661    9.7283   20.8006 C   0  0  0  0  0  0  0  0  0  0  0  0
   48.5862    9.1628   22.6111 C   0  0  0  0  0  0  0  0  0  0  0  0
   49.6325   13.4224   22.0323 C   0  0  0  0  0  0  0  0  0  0  0  0
   48.4033   13.7642   19.9322 C   0  0  0  0  0  0  0  0  0  0  0  0
   50.2769   10.1575   17.9942 C   0  0  0  0  0  0  0  0  0  0  0  0
   48.9984   14.2712   21.1106 C   0  0  0  0  0  0  0  0  0  0  0  0
   47.1798    9.6145   22.2931 C   0  0  0  0  0  0  0  0  0  0  0  0
   48.2469    8.1196   19.7195 O   0  0  0  0  0  0  0  0  0  0  0  0
   48.7942    8.3545   23.5201 O   0  0  0  0  0  0  0  0  0  0  0  0
   48.7275    9.9130   16.1572 C   0  0  0  0  0  0  0  0  0  0  0  0
   50.1822   13.7939   23.2235 O   0  0  0  0  0  0  0  0  0  0  0  0
   50.1498   15.1763   23.5483 C   0  0  0  0  0  0  0  0  0  0  0  0
   49.9147   12.6946   22.3877 C   0  0  0  0  0  0  0  0  0  0  0  0
   48.1018    9.5837   17.8762 C   0  0  0  0  0  0  0  0  0  0  0  0
   48.5215   10.3828   19.0532 C   0  0  0  0  0  0  0  0  0  0  0  0
   49.4029   11.8959   21.2473 C   0  0  0  0  0  0  0  0  0  0  0  0
   48.8266    9.2128   16.9718 O   0  0  0  0  0  0  0  0  0  0  0  0
   51.0657   13.0568   22.5441 O   0  0  0  0  0  0  0  0  0  0  0  0
   48.0566   11.5221   21.1455 C   0  0  0  0  0  0  0  0  0  0  0  0
   47.6174   10.7678   20.0516 C   0  0  0  0  0  0  0  0  0  0  0  0
   50.3063   11.5109   20.2484 C   0  0  0  0  0  0  0  0  0  0  0  0
   49.8674   10.7572   19.1556 C   0  0  0  0  0  0  0  0  0  0  0  0
   48.9574   13.0029   23.2799 O   0  0  0  0  0  0  0  0  0  0  0  0
   46.7906    9.2870   17.8877 O   0  0  0  0  0  0  0  0  0  0  0  0
   46.1001   10.0311   21.2317 H   0  0  0  0  0  0  0  0  0  0  0  0
   50.5336   12.6623   22.5071 H   0  0  0  0  0  0  0  0  0  0  0  0
   51.5901   11.5860   20.7380 H   0  0  0  0  0  0  0  0  0  0  0  0
   51.1219   13.0786   19.9398 H   0  0  0  0  0  0  0  0  0  0  0  0
   46.5247   12.3290   19.6670 H   0  0  0  0  0  0  0  0  0  0  0  0
   46.3939   12.5392   21.4031 H   0  0  0  0  0  0  0  0  0  0  0  0
   50.1558   10.2250   23.3940 H   0  0  0  0  0  0  0  0  0  0  0  0
   50.2766    9.6842   21.7201 H   0  0  0  0  0  0  0  0  0  0  0  0
   51.5692   11.3292   17.8462 H   0  0  0  0  0  0  0  0  0  0  0  0
   47.3389   14.5415   20.5610 H   0  0  0  0  0  0  0  0  0  0  0  0
   48.4780   13.7175   19.5100 H   0  0  0  0  0  0  0  0  0  0  0  0
   50.3635    9.8573   16.3093 H   0  0  0  0  0  0  0  0  0  0  0  0
   49.0689    8.0385   23.0690 H   0  0  0  0  0  0  0  0  0  0  0  0
   47.8797    9.2347   23.5979 H   0  0  0  0  0  0  0  0  0  0  0  0
   48.0621   12.7380   23.1176 H   0  0  0  0  0  0  0  0  0  0  0  0
   50.3222   15.0495   20.5242 H   0  0  0  0  0  0  0  0  0  0  0  0
   50.5224   15.0131   22.2899 H   0  0  0  0  0  0  0  0  0  0  0  0
   49.1406   15.8336   21.5836 H   0  0  0  0  0  0  0  0  0  0  0  0
   49.4035    7.7088   15.8246 H   0  0  0  0  0  0  0  0  0  0  0  0
   47.7698    7.5412   15.1693 H   0  0  0  0  0  0  0  0  0  0  0  0
   48.6289    9.0657   14.9186 H   0  0  0  0  0  0  0  0  0  0  0  0
   50.5805    9.1312   21.9120 H   0  0  0  0  0  0  0  0  0  0  0  0
   46.9202    9.7703   18.0333 H   0  0  0  0  0  0  0  0  0  0  0  0
   48.0189   12.2108   17.5552 H   0  0  0  0  0  0  0  0  0  0  0  0
   46.6570   11.9804   18.6362 H   0  0  0  0  0  0  0  0  0  0  0  0
   50.8143    8.7638   19.5412 H   0  0  0  0  0  0  0  0  0  0  0  0
   51.4679   10.3774   19.7752 H   0  0  0  0  0  0  0  0  0  0  0  0
   46.1024    8.9786   20.5528 H   0  0  0  0  0  0  0  0  0  0  0  0
   46.3767   10.6955   20.6400 H   0  0  0  0  0  0  0  0  0  0  0  0
   47.8683   14.4449   19.2732 H   0  0  0  0  0  0  0  0  0  0  0  0
   50.3688   11.2369   17.8223 H   0  0  0  0  0  0  0  0  0  0  0  0
   51.0568    9.6824   17.3860 H   0  0  0  0  0  0  0  0  0  0  0  0
   48.9140   15.3382   21.2948 H   0  0  0  0  0  0  0  0  0  0  0  0
   47.0318   10.5848   22.7816 H   0  0  0  0  0  0  0  0  0  0  0  0
   46.4761    8.9148   22.7590 H   0  0  0  0  0  0  0  0  0  0  0  0
   48.6178    7.9977   18.8185 H   0  0  0  0  0  0  0  0  0  0  0  0
   47.7500    9.5268   15.8481 H   0  0  0  0  0  0  0  0  0  0  0  0
   49.4747    9.3837   15.5549 H   0  0  0  0  0  0  0  0  0  0  0  0
   48.7786   10.9751   15.8974 H   0  0  0  0  0  0  0  0  0  0  0  0
   49.1199   15.5339   23.6490 H   0  0  0  0  0  0  0  0  0  0  0  0
   50.7036   15.7690   22.8128 H   0  0  0  0  0  0  0  0  0  0  0  0
   50.6423   15.3044   24.5170 H   0  0  0  0  0  0  0  0  0  0  0  0
   47.3404   11.8120   21.9111 H   0  0  0  0  0  0  0  0  0  0  0  0
   46.5685   10.4868   19.9887 H   0  0  0  0  0  0  0  0  0  0  0  0
   51.3550   11.7959   20.3168 H   0  0  0  0  0  0  0  0  0  0  0  0
   50.5793   10.4644   18.3854 H   0  0  0  0  0  0  0  0  0  0  0  0
   49.4318   13.5209   23.9640 H   0  0  0  0  0  0  0  0  0  0  0  0
   46.6598    8.7678   17.0664 H   0  0  0  0  0  0  0  0  0  0  0  0
 14  7  2  0
 15  8  1  0
 16 11  1  0
 17 15  2  0
 18 13  1  0
  2 19  1  1
 20 13  2  0
 21  9  1  0
  4  7  1  0
 16  9  1  0
  6 10  1  0
 18 12  1  0
 17 14  1  0
 14 22  1  0
 22 23  1  0
  2  1  1  0
  3  1  1  0
  3  4  1  0
  5  1  1  0
  6  2  1  0
  7  5  1  0
  8  5  2  0
  6  9  1  0
 10  8  1  0
  1 11  1  1
 12  2  1  0
 13  3  1  0
 37 30  2  0
 38 31  1  0
 39 34  1  0
 40 38  2  0
 41 36  1  0
 25 42  1  6
 43 36  2  0
 44 32  1  0
 27 30  1  0
 39 32  1  0
 29 33  1  0
 41 35  1  0
 40 37  1  0
 37 45  1  0
 45 46  1  0
 25 24  1  0
 26 24  1  0
 26 27  1  0
 28 24  1  0
 29 25  1  0
 30 28  1  0
 31 28  2  0
 29 32  1  0
 33 31  1  0
 24 34  1  6
 35 25  1  0
 36 26  1  0
 48 49  1  0
 49 56  2  0
 50 47  1  0
 51 48  2  0
 52 47  2  0
 53 50  1  0
 54 53  2  0
 55 50  2  0
 56 55  1  0
 57 47  1  0
 58 48  1  0
 49 54  1  0
  3 59  1  1
  6 60  1  6
 10 61  1  0
 10 62  1  0
 11 63  1  0
 11 64  1  0
 12 65  1  0
 12 66  1  0
 15 67  1  0
 16 68  1  0
 16 69  1  0
 17 70  1  0
 18 71  1  0
 18 72  1  0
 19 73  1  0
 21 74  1  0
 21 75  1  0
 21 76  1  0
 23 77  1  0
 23 78  1  0
 23 79  1  0
 26 80  1  6
 29 81  1  1
 33 82  1  0
 33 83  1  0
 34 84  1  0
 34 85  1  0
 35 86  1  0
 35 87  1  0
 38 88  1  0
 39 89  1  0
 39 90  1  0
 40 91  1  0
 41 92  1  0
 41 93  1  0
 42 94  1  0
 44 95  1  0
 44 96  1  0
 44 97  1  0
 46 98  1  0
 46 99  1  0
 46100  1  0
 53101  1  0
 54102  1  0
 55103  1  0
 56104  1  0
 57105  1  0
 58106  1  0
M  END
> <Uni-Dock RESULT> 
ENERGY=   -5.642  LOWER_BOUND=    2.720  UPPER_BOUND=    6.111
INTER + INTRA:          -5.642
INTER:                  -5.642
INTRA:                   0.000
UNBOUND:                 0.000

$$$$

     RDKit          3D

106114  0  0  0  0  0  0  0  0999 V2000
   49.7774    6.9393   18.7289 C   0  0  2  0  0  0  0  0  0  0  0  0
   50.2320    6.3112   17.4055 C   0  0  2  0  0  0  0  0  0  0  0  0
   48.5654    6.3223   19.4382 C   0  0  1  0  0  0  0  0  0  0  0  0
   47.8919    7.4133   20.1436 O   0  0  0  0  0  0  0  0  0  0  0  0
   49.1782    8.2775   18.4691 C   0  0  0  0  0  0  0  0  0  0  0  0
   51.2358    7.3281   16.7561 C   0  0  2  0  0  0  0  0  0  0  0  0
   48.1416    8.5140   19.3516 C   0  0  0  0  0  0  0  0  0  0  0  0
   49.5542    9.1607   17.4771 C   0  0  0  0  0  0  0  0  0  0  0  0
   52.4382    7.3359   17.6494 N   0  0  0  0  0  0  0  0  0  0  0  0
   50.5790    8.7233   16.4631 C   0  0  0  0  0  0  0  0  0  0  0  0
   50.9887    7.1116   19.6772 C   0  0  0  0  0  0  0  0  0  0  0  0
   49.0570    5.9201   16.5035 C   0  0  0  0  0  0  0  0  0  0  0  0
   47.5630    5.6353   18.4911 C   0  0  0  0  0  0  0  0  0  0  0  0
   47.4690    9.7205   19.3493 C   0  0  0  0  0  0  0  0  0  0  0  0
   48.8811   10.3800   17.4440 C   0  0  0  0  0  0  0  0  0  0  0  0
   52.1559    7.8509   18.9997 C   0  0  0  0  0  0  0  0  0  0  0  0
   47.8602   10.6632   18.3836 C   0  0  0  0  0  0  0  0  0  0  0  0
   48.1096    4.9814   17.2425 C   0  0  0  0  0  0  0  0  0  0  0  0
   50.9410    5.0845   17.6806 O   0  0  0  0  0  0  0  0  0  0  0  0
   46.3631    5.5338   18.7586 O   0  0  0  0  0  0  0  0  0  0  0  0
   53.5783    8.0328   17.0551 C   0  0  0  0  0  0  0  0  0  0  0  0
   46.4837    9.8780   20.2772 O   0  0  0  0  0  0  0  0  0  0  0  0
   45.7154   11.0704   20.2092 C   0  0  0  0  0  0  0  0  0  0  0  0
   48.6649    7.6882   17.5457 C   0  0  2  0  0  0  0  0  0  0  0  0
   47.9983    7.4804   18.9107 C   0  0  2  0  0  0  0  0  0  0  0  0
   48.6956    6.4833   16.5995 C   0  0  1  0  0  0  0  0  0  0  0  0
   50.0318    6.3678   16.0340 O   0  0  0  0  0  0  0  0  0  0  0  0
   50.1241    7.8386   17.7799 C   0  0  0  0  0  0  0  0  0  0  0  0
   48.2870    8.7865   19.7409 C   0  0  2  0  0  0  0  0  0  0  0  0
   50.8436    7.1105   16.8570 C   0  0  0  0  0  0  0  0  0  0  0  0
   50.7079    8.5078   18.8399 C   0  0  0  0  0  0  0  0  0  0  0  0
   47.5366    9.8847   19.0584 N   0  0  0  0  0  0  0  0  0  0  0  0
   49.8269    9.0440   19.9428 C   0  0  0  0  0  0  0  0  0  0  0  0
   48.0953    8.9359   16.8304 C   0  0  0  0  0  0  0  0  0  0  0  0
   48.4470    6.1979   19.6362 C   0  0  0  0  0  0  0  0  0  0  0  0
   48.2692    5.1903   17.2890 C   0  0  0  0  0  0  0  0  0  0  0  0
   52.2268    7.1222   16.8656 C   0  0  0  0  0  0  0  0  0  0  0  0
   52.1007    8.5369   18.8710 C   0  0  0  0  0  0  0  0  0  0  0  0
   48.0707   10.1839   17.7220 C   0  0  0  0  0  0  0  0  0  0  0  0
   52.8530    7.8658   17.8791 C   0  0  0  0  0  0  0  0  0  0  0  0
   48.6820    4.9897   18.7286 C   0  0  0  0  0  0  0  0  0  0  0  0
   46.5782    7.3499   18.7177 O   0  0  0  0  0  0  0  0  0  0  0  0
   47.6946    4.2901   16.6707 O   0  0  0  0  0  0  0  0  0  0  0  0
   47.4500   11.0981   19.8701 C   0  0  0  0  0  0  0  0  0  0  0  0
   52.8522    6.3897   15.9007 O   0  0  0  0  0  0  0  0  0  0  0  0
   54.2724    6.4111   15.8901 C   0  0  0  0  0  0  0  0  0  0  0  0
   51.5954    6.7583   16.4135 C   0  0  0  0  0  0  0  0  0  0  0  0
   47.5636    9.2499   19.7082 C   0  0  0  0  0  0  0  0  0  0  0  0
   48.6053    8.5749   18.8962 C   0  0  0  0  0  0  0  0  0  0  0  0
   50.5662    7.3630   17.2941 C   0  0  0  0  0  0  0  0  0  0  0  0
   46.9616   10.2606   19.3970 O   0  0  0  0  0  0  0  0  0  0  0  0
   51.9429    7.1835   15.3277 O   0  0  0  0  0  0  0  0  0  0  0  0
   50.2274    6.8058   18.5340 C   0  0  0  0  0  0  0  0  0  0  0  0
   49.2498    7.4101   19.3326 C   0  0  0  0  0  0  0  0  0  0  0  0
   49.9215    8.5279   16.8586 C   0  0  0  0  0  0  0  0  0  0  0  0
   48.9447    9.1315   17.6564 C   0  0  0  0  0  0  0  0  0  0  0  0
   52.1421    5.6471   16.9368 O   0  0  0  0  0  0  0  0  0  0  0  0
   47.3255    8.6256   20.8747 O   0  0  0  0  0  0  0  0  0  0  0  0
   48.8714    5.5705   20.1752 H   0  0  0  0  0  0  0  0  0  0  0  0
   51.5704    6.9033   15.7997 H   0  0  0  0  0  0  0  0  0  0  0  0
   50.0653    8.6488   15.4954 H   0  0  0  0  0  0  0  0  0  0  0  0
   51.3397    9.5020   16.3509 H   0  0  0  0  0  0  0  0  0  0  0  0
   50.7121    7.6558   20.5899 H   0  0  0  0  0  0  0  0  0  0  0  0
   51.3356    6.1236   20.0078 H   0  0  0  0  0  0  0  0  0  0  0  0
   49.4307    5.4010   15.6122 H   0  0  0  0  0  0  0  0  0  0  0  0
   48.5016    6.7978   16.1554 H   0  0  0  0  0  0  0  0  0  0  0  0
   49.1259   11.1234   16.6882 H   0  0  0  0  0  0  0  0  0  0  0  0
   53.0434    7.7215   19.6318 H   0  0  0  0  0  0  0  0  0  0  0  0
   51.9518    8.9283   18.9739 H   0  0  0  0  0  0  0  0  0  0  0  0
   47.3736   11.6319   18.3171 H   0  0  0  0  0  0  0  0  0  0  0  0
   47.2703    4.7277   16.5854 H   0  0  0  0  0  0  0  0  0  0  0  0
   48.6001    4.0454   17.5293 H   0  0  0  0  0  0  0  0  0  0  0  0
   51.8783    5.3560   17.7992 H   0  0  0  0  0  0  0  0  0  0  0  0
   53.4206    9.1126   16.9707 H   0  0  0  0  0  0  0  0  0  0  0  0
   53.8000    7.6348   16.0589 H   0  0  0  0  0  0  0  0  0  0  0  0
   54.4769    7.8713   17.6612 H   0  0  0  0  0  0  0  0  0  0  0  0
   45.2074   11.1606   19.2433 H   0  0  0  0  0  0  0  0  0  0  0  0
   44.9467   11.0185   20.9863 H   0  0  0  0  0  0  0  0  0  0  0  0
   46.3353   11.9498   20.4125 H   0  0  0  0  0  0  0  0  0  0  0  0
   48.0000    6.6272   15.7626 H   0  0  0  0  0  0  0  0  0  0  0  0
   47.8246    8.6636   20.7298 H   0  0  0  0  0  0  0  0  0  0  0  0
   50.0392   10.1069   20.0941 H   0  0  0  0  0  0  0  0  0  0  0  0
   50.1227    8.5365   20.8706 H   0  0  0  0  0  0  0  0  0  0  0  0
   47.0686    8.7240   16.5019 H   0  0  0  0  0  0  0  0  0  0  0  0
   48.6669    9.1643   15.9211 H   0  0  0  0  0  0  0  0  0  0  0  0
   47.6877    5.9243   20.3814 H   0  0  0  0  0  0  0  0  0  0  0  0
   49.3647    6.3599   20.2126 H   0  0  0  0  0  0  0  0  0  0  0  0
   52.6230    9.0517   19.6747 H   0  0  0  0  0  0  0  0  0  0  0  0
   49.0736   10.6237   17.7826 H   0  0  0  0  0  0  0  0  0  0  0  0
   47.4363   10.9330   17.2316 H   0  0  0  0  0  0  0  0  0  0  0  0
   53.9353    7.9161   17.9524 H   0  0  0  0  0  0  0  0  0  0  0  0
   49.7456    4.7236   18.7276 H   0  0  0  0  0  0  0  0  0  0  0  0
   48.1396    4.1251   19.1286 H   0  0  0  0  0  0  0  0  0  0  0  0
   46.2312    8.2682   18.7435 H   0  0  0  0  0  0  0  0  0  0  0  0
   47.0364   10.8737   20.8594 H   0  0  0  0  0  0  0  0  0  0  0  0
   46.7656   11.8158   19.4033 H   0  0  0  0  0  0  0  0  0  0  0  0
   48.4166   11.5941   20.0028 H   0  0  0  0  0  0  0  0  0  0  0  0
   54.6804    5.9771   16.8088 H   0  0  0  0  0  0  0  0  0  0  0  0
   54.6520    7.4257   15.7301 H   0  0  0  0  0  0  0  0  0  0  0  0
   54.6105    5.7938   15.0523 H   0  0  0  0  0  0  0  0  0  0  0  0
   50.7173    5.9019   18.8891 H   0  0  0  0  0  0  0  0  0  0  0  0
   48.9997    6.9640   20.2925 H   0  0  0  0  0  0  0  0  0  0  0  0
   50.1768    8.9700   15.8968 H   0  0  0  0  0  0  0  0  0  0  0  0
   48.4510   10.0369   17.3069 H   0  0  0  0  0  0  0  0  0  0  0  0
   52.7911    5.3630   16.2590 H   0  0  0  0  0  0  0  0  0  0  0  0
   46.6301    9.1730   21.2967 H   0  0  0  0  0  0  0  0  0  0  0  0
 14  7  2  0
 15  8  1  0
 16 11  1  0
 17 15  2  0
 18 13  1  0
  2 19  1  1
 20 13  2  0
 21  9  1  0
  4  7  1  0
 16  9  1  0
  6 10  1  0
 18 12  1  0
 17 14  1  0
 14 22  1  0
 22 23  1  0
  2  1  1  0
  3  1  1  0
  3  4  1  0
  5  1  1  0
  6  2  1  0
  7  5  1  0
  8  5  2  0
  6  9  1  0
 10  8  1  0
  1 11  1  1
 12  2  1  0
 13  3  1  0
 37 30  2  0
 38 31  1  0
 39 34  1  0
 40 38  2  0
 41 36  1  0
 25 42  1  6
 43 36  2  0
 44 32  1  0
 27 30  1  0
 39 32  1  0
 29 33  1  0
 41 35  1  0
 40 37  1  0
 37 45  1  0
 45 46  1  0
 25 24  1  0
 26 24  1  0
 26 27  1  0
 28 24  1  0
 29 25  1  0
 30 28  1  0
 31 28  2  0
 29 32  1  0
 33 31  1  0
 24 34  1  6
 35 25  1  0
 36 26  1  0
 48 49  1  0
 49 56  2  0
 50 47  1  0
 51 48  2  0
 52 47  2  0
 53 50  1  0
 54 53  2  0
 55 50  2  0
 56 55  1  0
 57 47  1  0
 58 48  1  0
 49 54  1  0
  3 59  1  1
  6 60  1  6
 10 61  1  0
 10 62  1  0
 11 63  1  0
 11 64  1  0
 12 65  1  0
 12 66  1  0
 15 67  1  0
 16 68  1  0
 16 69  1  0
 17 70  1  0
 18 71  1  0
 18 72  1  0
 19 73  1  0
 21 74  1  0
 21 75  1  0
 21 76  1  0
 23 77  1  0
 23 78  1  0
 23 79  1  0
 26 80  1  6
 29 81  1  1
 33 82  1  0
 33 83  1  0
 34 84  1  0
 34 85  1  0
 35 86  1  0
 35 87  1  0
 38 88  1  0
 39 89  1  0
 39 90  1  0
 40 91  1  0
 41 92  1  0
 41 93  1  0
 42 94  1  0
 44 95  1  0
 44 96  1  0
 44 97  1  0
 46 98  1  0
 46 99  1  0
 46100  1  0
 53101  1  0
 54102  1  0
 55103  1  0
 56104  1  0
 57105  1  0
 58106  1  0
M  END
> <Uni-Dock RESULT> 
ENERGY=   -5.534  LOWER_BOUND=    2.357  UPPER_BOUND=    4.061
INTER + INTRA:          -5.534
INTER:                  -5.534
INTRA:                   0.000
UNBOUND:                 0.000

$$$$
