
     RDKit          3D

106114  0  0  0  0  0  0  0  0999 V2000
   49.5539   11.7711   18.9116 C   0  0  2  0  0  0  0  0  0  0  0  0
   48.4491   12.7567   19.3125 C   0  0  2  0  0  0  0  0  0  0  0  0
   50.1720   11.9128   17.5149 C   0  0  1  0  0  0  0  0  0  0  0  0
   50.5596   10.5676   17.0891 O   0  0  0  0  0  0  0  0  0  0  0  0
   48.9701   10.4150   18.7184 C   0  0  0  0  0  0  0  0  0  0  0  0
   47.7854   12.1725   20.6093 C   0  0  2  0  0  0  0  0  0  0  0  0
   49.6295    9.7537   17.7000 C   0  0  0  0  0  0  0  0  0  0  0  0
   47.9032    9.8798   19.4116 C   0  0  0  0  0  0  0  0  0  0  0  0
   48.8330   12.2628   21.6762 N   0  0  0  0  0  0  0  0  0  0  0  0
   47.1498   10.7561   20.3780 C   0  0  0  0  0  0  0  0  0  0  0  0
   50.6270   11.6966   20.0247 C   0  0  0  0  0  0  0  0  0  0  0  0
   47.4665   13.0373   18.1708 C   0  0  0  0  0  0  0  0  0  0  0  0
   49.2243   12.5242   16.4654 C   0  0  0  0  0  0  0  0  0  0  0  0
   49.3096    8.4497   17.3761 C   0  0  0  0  0  0  0  0  0  0  0  0
   47.5503    8.5702   19.0930 C   0  0  0  0  0  0  0  0  0  0  0  0
   50.0108   11.4206   21.4075 C   0  0  0  0  0  0  0  0  0  0  0  0
   48.2597    7.8566   18.0966 C   0  0  0  0  0  0  0  0  0  0  0  0
   48.2120   13.5415   16.9401 C   0  0  0  0  0  0  0  0  0  0  0  0
   49.0440   14.0301   19.6401 O   0  0  0  0  0  0  0  0  0  0  0  0
   49.3207   12.2740   15.2612 O   0  0  0  0  0  0  0  0  0  0  0  0
   48.3011   12.0007   23.0130 C   0  0  0  0  0  0  0  0  0  0  0  0
   50.0365    7.8660   16.3822 O   0  0  0  0  0  0  0  0  0  0  0  0
   49.6425    6.5650   15.9713 C   0  0  0  0  0  0  0  0  0  0  0  0
   47.8720   10.8805   19.4846 C   0  0  2  0  0  0  0  0  0  0  0  0
   48.4449   11.1874   20.8738 C   0  0  2  0  0  0  0  0  0  0  0  0
   47.1514    9.5412   19.2845 C   0  0  1  0  0  0  0  0  0  0  0  0
   47.3769    9.1468   17.8934 O   0  0  0  0  0  0  0  0  0  0  0  0
   48.9850   10.6364   18.5260 C   0  0  0  0  0  0  0  0  0  0  0  0
   49.3963   12.4231   20.6958 C   0  0  2  0  0  0  0  0  0  0  0  0
   48.6167    9.6758   17.6037 C   0  0  0  0  0  0  0  0  0  0  0  0
   50.2277   11.2372   18.5491 C   0  0  0  0  0  0  0  0  0  0  0  0
   48.5033   13.5746   20.3487 N   0  0  0  0  0  0  0  0  0  0  0  0
   50.5791   12.1385   19.7041 C   0  0  0  0  0  0  0  0  0  0  0  0
   47.0340   12.0803   18.9805 C   0  0  0  0  0  0  0  0  0  0  0  0
   49.1082    9.9675   21.5214 C   0  0  0  0  0  0  0  0  0  0  0  0
   47.6411    8.4161   20.2163 C   0  0  0  0  0  0  0  0  0  0  0  0
   49.4620    9.3240   16.5695 C   0  0  0  0  0  0  0  0  0  0  0  0
   51.1051   10.8886   17.5245 C   0  0  0  0  0  0  0  0  0  0  0  0
   47.8112   13.4059   19.0600 C   0  0  0  0  0  0  0  0  0  0  0  0
   50.7179    9.9533   16.5343 C   0  0  0  0  0  0  0  0  0  0  0  0
   48.1247    8.8049   21.5948 C   0  0  0  0  0  0  0  0  0  0  0  0
   47.3688   11.5648   21.7584 O   0  0  0  0  0  0  0  0  0  0  0  0
   47.5738    7.2240   19.9065 O   0  0  0  0  0  0  0  0  0  0  0  0
   49.1953   14.8618   20.4017 C   0  0  0  0  0  0  0  0  0  0  0  0
   49.0013    8.3927   15.6877 O   0  0  0  0  0  0  0  0  0  0  0  0
   49.9070    7.9432   14.6905 C   0  0  0  0  0  0  0  0  0  0  0  0
   49.1875   12.7544   21.3298 C   0  0  0  0  0  0  0  0  0  0  0  0
   48.3529    9.2685   16.8052 C   0  0  0  0  0  0  0  0  0  0  0  0
   48.6117   10.1440   17.9742 C   0  0  0  0  0  0  0  0  0  0  0  0
   49.0182   11.8394   20.1749 C   0  0  0  0  0  0  0  0  0  0  0  0
   47.3393    9.2604   16.1320 O   0  0  0  0  0  0  0  0  0  0  0  0
   48.3704   13.5673   21.7200 O   0  0  0  0  0  0  0  0  0  0  0  0
   47.8194   11.8973   19.4525 C   0  0  0  0  0  0  0  0  0  0  0  0
   47.6168   11.0527   18.3567 C   0  0  0  0  0  0  0  0  0  0  0  0
   50.0133   10.9301   19.7934 C   0  0  0  0  0  0  0  0  0  0  0  0
   49.8107   10.0851   18.6966 C   0  0  0  0  0  0  0  0  0  0  0  0
   50.3751   12.6073   21.9426 O   0  0  0  0  0  0  0  0  0  0  0  0
   49.3794    8.4436   16.5345 O   0  0  0  0  0  0  0  0  0  0  0  0
   51.0701   12.5412   17.5353 H   0  0  0  0  0  0  0  0  0  0  0  0
   46.9828   12.8589   20.9123 H   0  0  0  0  0  0  0  0  0  0  0  0
   47.0133   10.2254   21.3254 H   0  0  0  0  0  0  0  0  0  0  0  0
   46.1462   10.9100   19.9602 H   0  0  0  0  0  0  0  0  0  0  0  0
   51.3740   10.9202   19.8132 H   0  0  0  0  0  0  0  0  0  0  0  0
   51.1790   12.6449   20.0627 H   0  0  0  0  0  0  0  0  0  0  0  0
   46.7498   13.8082   18.4796 H   0  0  0  0  0  0  0  0  0  0  0  0
   46.8862   12.1469   17.9054 H   0  0  0  0  0  0  0  0  0  0  0  0
   46.7181    8.0859   19.5995 H   0  0  0  0  0  0  0  0  0  0  0  0
   50.7819   11.6222   22.1614 H   0  0  0  0  0  0  0  0  0  0  0  0
   49.7617   10.3564   21.5004 H   0  0  0  0  0  0  0  0  0  0  0  0
   47.9480    6.8362   17.8943 H   0  0  0  0  0  0  0  0  0  0  0  0
   48.7347   14.4837   17.1343 H   0  0  0  0  0  0  0  0  0  0  0  0
   47.4931   13.7212   16.1329 H   0  0  0  0  0  0  0  0  0  0  0  0
   49.2519   13.9721   20.5988 H   0  0  0  0  0  0  0  0  0  0  0  0
   49.0539   12.2421   23.7720 H   0  0  0  0  0  0  0  0  0  0  0  0
   47.4360   12.6404   23.2188 H   0  0  0  0  0  0  0  0  0  0  0  0
   48.0038   10.9571   23.1561 H   0  0  0  0  0  0  0  0  0  0  0  0
   50.2958    6.2613   15.1475 H   0  0  0  0  0  0  0  0  0  0  0  0
   48.6126    6.5616   15.5987 H   0  0  0  0  0  0  0  0  0  0  0  0
   49.7713    5.8406   16.7822 H   0  0  0  0  0  0  0  0  0  0  0  0
   46.0712    9.6388   19.4453 H   0  0  0  0  0  0  0  0  0  0  0  0
   49.8269   12.6577   21.6789 H   0  0  0  0  0  0  0  0  0  0  0  0
   51.0091   13.0705   19.3250 H   0  0  0  0  0  0  0  0  0  0  0  0
   51.3733   11.6384   20.2741 H   0  0  0  0  0  0  0  0  0  0  0  0
   46.6994   11.9319   17.9455 H   0  0  0  0  0  0  0  0  0  0  0  0
   46.1207   12.1656   19.5840 H   0  0  0  0  0  0  0  0  0  0  0  0
   49.4250   10.2160   22.5418 H   0  0  0  0  0  0  0  0  0  0  0  0
   50.0037    9.6526   20.9747 H   0  0  0  0  0  0  0  0  0  0  0  0
   52.1015   11.3234   17.4816 H   0  0  0  0  0  0  0  0  0  0  0  0
   47.0910   14.2223   18.9238 H   0  0  0  0  0  0  0  0  0  0  0  0
   48.5169   13.4768   18.2233 H   0  0  0  0  0  0  0  0  0  0  0  0
   51.4382    9.7232   15.7546 H   0  0  0  0  0  0  0  0  0  0  0  0
   47.2523    9.0436   22.2118 H   0  0  0  0  0  0  0  0  0  0  0  0
   48.6237    7.9400   22.0464 H   0  0  0  0  0  0  0  0  0  0  0  0
   47.2818   12.5376   21.6495 H   0  0  0  0  0  0  0  0  0  0  0  0
   48.4734   15.6813   20.3111 H   0  0  0  0  0  0  0  0  0  0  0  0
   49.6956   14.9945   21.3670 H   0  0  0  0  0  0  0  0  0  0  0  0
   49.9377   14.9795   19.6060 H   0  0  0  0  0  0  0  0  0  0  0  0
   50.7969    7.4888   15.1390 H   0  0  0  0  0  0  0  0  0  0  0  0
   50.1792    8.7574   14.0104 H   0  0  0  0  0  0  0  0  0  0  0  0
   49.4007    7.1725   14.1011 H   0  0  0  0  0  0  0  0  0  0  0  0
   47.0386   12.5998   19.7397 H   0  0  0  0  0  0  0  0  0  0  0  0
   46.6808   11.1071   17.8032 H   0  0  0  0  0  0  0  0  0  0  0  0
   50.9506   10.8708   20.3423 H   0  0  0  0  0  0  0  0  0  0  0  0
   50.5943    9.3852   18.4148 H   0  0  0  0  0  0  0  0  0  0  0  0
   50.3452   13.2624   22.6714 H   0  0  0  0  0  0  0  0  0  0  0  0
   49.0729    7.9352   15.7542 H   0  0  0  0  0  0  0  0  0  0  0  0
 14  7  2  0
 15  8  1  0
 16 11  1  0
 17 15  2  0
 18 13  1  0
  2 19  1  6
 20 13  2  0
 21  9  1  0
  4  7  1  0
 16  9  1  0
  6 10  1  0
 18 12  1  0
 17 14  1  0
 14 22  1  0
 22 23  1  0
  2  1  1  0
  3  1  1  0
  3  4  1  0
  5  1  1  0
  6  2  1  0
  7  5  1  0
  8  5  2  0
  6  9  1  0
 10  8  1  0
  1 11  1  6
 12  2  1  0
 13  3  1  0
 37 30  2  0
 38 31  1  0
 39 34  1  0
 40 38  2  0
 41 36  1  0
 25 42  1  1
 43 36  2  0
 44 32  1  0
 27 30  1  0
 39 32  1  0
 29 33  1  0
 41 35  1  0
 40 37  1  0
 37 45  1  0
 45 46  1  0
 25 24  1  0
 26 24  1  0
 26 27  1  0
 28 24  1  0
 29 25  1  0
 30 28  1  0
 31 28  2  0
 29 32  1  0
 33 31  1  0
 24 34  1  1
 35 25  1  0
 36 26  1  0
 48 49  1  0
 49 56  2  0
 50 47  1  0
 51 48  2  0
 52 47  2  0
 53 50  1  0
 54 53  2  0
 55 50  2  0
 56 55  1  0
 57 47  1  0
 58 48  1  0
 49 54  1  0
  3 59  1  6
  6 60  1  1
 10 61  1  0
 10 62  1  0
 11 63  1  0
 11 64  1  0
 12 65  1  0
 12 66  1  0
 15 67  1  0
 16 68  1  0
 16 69  1  0
 17 70  1  0
 18 71  1  0
 18 72  1  0
 19 73  1  0
 21 74  1  0
 21 75  1  0
 21 76  1  0
 23 77  1  0
 23 78  1  0
 23 79  1  0
 26 80  1  1
 29 81  1  6
 33 82  1  0
 33 83  1  0
 34 84  1  0
 34 85  1  0
 35 86  1  0
 35 87  1  0
 38 88  1  0
 39 89  1  0
 39 90  1  0
 40 91  1  0
 41 92  1  0
 41 93  1  0
 42 94  1  0
 44 95  1  0
 44 96  1  0
 44 97  1  0
 46 98  1  0
 46 99  1  0
 46100  1  0
 53101  1  0
 54102  1  0
 55103  1  0
 56104  1  0
 57105  1  0
 58106  1  0
M  END
> <Uni-Dock RESULT> 
ENERGY=   -5.680  LOWER_BOUND=    0.000  UPPER_BOUND=    0.000
INTER + INTRA:          -5.680
INTER:                  -5.680
INTRA:                   0.000
UNBOUND:                 0.000

$$$$

     RDKit          3D

106114  0  0  0  0  0  0  0  0999 V2000
   50.0121    5.9590   20.0845 C   0  0  2  0  0  0  0  0  0  0  0  0
   49.7636    6.9317   18.9248 C   0  0  2  0  0  0  0  0  0  0  0  0
   50.5817    6.5274   21.3904 C   0  0  1  0  0  0  0  0  0  0  0  0
   51.3970    5.4695   21.9881 O   0  0  0  0  0  0  0  0  0  0  0  0
   51.1591    5.0686   19.7549 C   0  0  0  0  0  0  0  0  0  0  0  0
   49.5210    6.0473   17.6510 C   0  0  2  0  0  0  0  0  0  0  0  0
   51.8784    4.7763   20.8980 C   0  0  0  0  0  0  0  0  0  0  0  0
   51.5037    4.6134   18.4982 C   0  0  0  0  0  0  0  0  0  0  0  0
   48.2217    5.3412   17.8896 N   0  0  0  0  0  0  0  0  0  0  0  0
   50.7521    5.1379   17.3027 C   0  0  0  0  0  0  0  0  0  0  0  0
   48.7564    5.0854   20.3218 C   0  0  0  0  0  0  0  0  0  0  0  0
   50.8836    7.9661   18.7724 C   0  0  0  0  0  0  0  0  0  0  0  0
   51.4448    7.7900   21.2047 C   0  0  0  0  0  0  0  0  0  0  0  0
   52.9551    3.9122   20.8580 C   0  0  0  0  0  0  0  0  0  0  0  0
   52.5963    3.7518   18.4283 C   0  0  0  0  0  0  0  0  0  0  0  0
   48.2671    4.4092   19.0290 C   0  0  0  0  0  0  0  0  0  0  0  0
   53.3036    3.3910   19.6009 C   0  0  0  0  0  0  0  0  0  0  0  0
   51.0828    8.7295   20.0771 C   0  0  0  0  0  0  0  0  0  0  0  0
   48.5634    7.6887   19.1882 O   0  0  0  0  0  0  0  0  0  0  0  0
   52.3524    8.0916   21.9838 O   0  0  0  0  0  0  0  0  0  0  0  0
   47.7143    4.6730   16.6919 C   0  0  0  0  0  0  0  0  0  0  0  0
   53.5827    3.6551   22.0399 O   0  0  0  0  0  0  0  0  0  0  0  0
   54.7542    2.8540   21.9894 C   0  0  0  0  0  0  0  0  0  0  0  0
   50.9354    5.4355   18.4041 C   0  0  2  0  0  0  0  0  0  0  0  0
   49.5372    4.9050   18.0635 C   0  0  2  0  0  0  0  0  0  0  0  0
   52.1463    4.6020   17.9663 C   0  0  1  0  0  0  0  0  0  0  0  0
   53.1941    4.8283   18.9625 O   0  0  0  0  0  0  0  0  0  0  0  0
   51.1648    5.3378   19.8721 C   0  0  0  0  0  0  0  0  0  0  0  0
   48.5246    5.7542   18.9104 C   0  0  2  0  0  0  0  0  0  0  0  0
   52.4911    5.0469   20.1282 C   0  0  0  0  0  0  0  0  0  0  0  0
   50.2084    5.4756   20.8580 C   0  0  0  0  0  0  0  0  0  0  0  0
   48.5924    7.1418   18.3503 N   0  0  0  0  0  0  0  0  0  0  0  0
   48.7634    5.6168   20.4556 C   0  0  0  0  0  0  0  0  0  0  0  0
   51.0573    6.9186   17.9781 C   0  0  0  0  0  0  0  0  0  0  0  0
   49.4152    3.3910   18.2647 C   0  0  0  0  0  0  0  0  0  0  0  0
   51.8663    3.0906   17.8594 C   0  0  0  0  0  0  0  0  0  0  0  0
   52.9632    4.9695   21.4239 C   0  0  0  0  0  0  0  0  0  0  0  0
   50.6562    5.3874   22.1744 C   0  0  0  0  0  0  0  0  0  0  0  0
   49.9077    7.7785   18.5319 C   0  0  0  0  0  0  0  0  0  0  0  0
   52.0247    5.1538   22.4534 C   0  0  0  0  0  0  0  0  0  0  0  0
   50.4763    2.6599   17.4499 C   0  0  0  0  0  0  0  0  0  0  0  0
   49.2687    5.1380   16.6647 O   0  0  0  0  0  0  0  0  0  0  0  0
   52.7477    2.2417   18.0146 O   0  0  0  0  0  0  0  0  0  0  0  0
   47.5240    8.0057   18.8508 C   0  0  0  0  0  0  0  0  0  0  0  0
   54.2921    4.7118   21.5804 O   0  0  0  0  0  0  0  0  0  0  0  0
   54.7611    4.5178   22.9068 C   0  0  0  0  0  0  0  0  0  0  0  0
   48.0190    5.8097   18.3657 C   0  0  0  0  0  0  0  0  0  0  0  0
   53.3852    5.1377   20.3836 C   0  0  0  0  0  0  0  0  0  0  0  0
   51.9906    5.2775   19.8982 C   0  0  0  0  0  0  0  0  0  0  0  0
   49.3804    5.6042   18.9172 C   0  0  0  0  0  0  0  0  0  0  0  0
   54.3549    5.7265   19.9436 O   0  0  0  0  0  0  0  0  0  0  0  0
   47.7264    6.5580   17.4519 O   0  0  0  0  0  0  0  0  0  0  0  0
   50.4408    6.3246   18.3525 C   0  0  0  0  0  0  0  0  0  0  0  0
   51.7409    6.1616   18.8409 C   0  0  0  0  0  0  0  0  0  0  0  0
   49.6296    4.7191   19.9740 C   0  0  0  0  0  0  0  0  0  0  0  0
   50.9307    4.5563   20.4630 C   0  0  0  0  0  0  0  0  0  0  0  0
   47.0865    5.0664   18.9867 O   0  0  0  0  0  0  0  0  0  0  0  0
   53.4982    4.2649   21.4000 O   0  0  0  0  0  0  0  0  0  0  0  0
   49.7843    6.7896   22.0956 H   0  0  0  0  0  0  0  0  0  0  0  0
   49.3483    6.7236   16.8025 H   0  0  0  0  0  0  0  0  0  0  0  0
   50.4566    4.3032   16.6595 H   0  0  0  0  0  0  0  0  0  0  0  0
   51.4560    5.7462   16.7194 H   0  0  0  0  0  0  0  0  0  0  0  0
   48.9425    4.3080   21.0745 H   0  0  0  0  0  0  0  0  0  0  0  0
   47.9490    5.7102   20.7256 H   0  0  0  0  0  0  0  0  0  0  0  0
   50.6188    8.6864   17.9885 H   0  0  0  0  0  0  0  0  0  0  0  0
   51.8295    7.5007   18.4750 H   0  0  0  0  0  0  0  0  0  0  0  0
   52.9242    3.3557   17.4696 H   0  0  0  0  0  0  0  0  0  0  0  0
   47.2600    4.0178   19.2192 H   0  0  0  0  0  0  0  0  0  0  0  0
   48.8959    3.5401   18.8003 H   0  0  0  0  0  0  0  0  0  0  0  0
   54.1419    2.7096   19.4900 H   0  0  0  0  0  0  0  0  0  0  0  0
   50.1866    9.2874   20.3672 H   0  0  0  0  0  0  0  0  0  0  0  0
   51.8967    9.4521   19.9502 H   0  0  0  0  0  0  0  0  0  0  0  0
   47.8360    7.1488   18.8072 H   0  0  0  0  0  0  0  0  0  0  0  0
   46.6916    4.3182   16.8631 H   0  0  0  0  0  0  0  0  0  0  0  0
   47.6639    5.3716   15.8495 H   0  0  0  0  0  0  0  0  0  0  0  0
   48.3219    3.8126   16.3943 H   0  0  0  0  0  0  0  0  0  0  0  0
   55.1527    2.7784   23.0058 H   0  0  0  0  0  0  0  0  0  0  0  0
   55.5242    3.3165   21.3628 H   0  0  0  0  0  0  0  0  0  0  0  0
   54.5229    1.8402   21.6466 H   0  0  0  0  0  0  0  0  0  0  0  0
   52.5234    4.9247   16.9887 H   0  0  0  0  0  0  0  0  0  0  0  0
   47.5133    5.3861   18.6895 H   0  0  0  0  0  0  0  0  0  0  0  0
   48.3102    6.4505   21.0005 H   0  0  0  0  0  0  0  0  0  0  0  0
   48.2449    4.7083   20.7892 H   0  0  0  0  0  0  0  0  0  0  0  0
   52.0101    7.3550   18.3050 H   0  0  0  0  0  0  0  0  0  0  0  0
   51.0554    6.9838   16.8820 H   0  0  0  0  0  0  0  0  0  0  0  0
   48.4278    3.0509   17.9289 H   0  0  0  0  0  0  0  0  0  0  0  0
   49.5097    3.1114   19.3196 H   0  0  0  0  0  0  0  0  0  0  0  0
   49.9563    5.4859   23.0014 H   0  0  0  0  0  0  0  0  0  0  0  0
   49.9243    8.7381   18.0003 H   0  0  0  0  0  0  0  0  0  0  0  0
   50.0891    8.0100   19.5886 H   0  0  0  0  0  0  0  0  0  0  0  0
   52.3206    5.1012   23.4972 H   0  0  0  0  0  0  0  0  0  0  0  0
   50.3629    2.8370   16.3754 H   0  0  0  0  0  0  0  0  0  0  0  0
   50.3807    1.5816   17.6203 H   0  0  0  0  0  0  0  0  0  0  0  0
   48.8673    6.0343   16.6306 H   0  0  0  0  0  0  0  0  0  0  0  0
   47.5086    8.9480   18.2916 H   0  0  0  0  0  0  0  0  0  0  0  0
   46.5444    7.5394   18.6999 H   0  0  0  0  0  0  0  0  0  0  0  0
   47.6340    8.2478   19.9126 H   0  0  0  0  0  0  0  0  0  0  0  0
   54.2533    3.6748   23.3874 H   0  0  0  0  0  0  0  0  0  0  0  0
   54.6550    5.4328   23.4993 H   0  0  0  0  0  0  0  0  0  0  0  0
   55.8274    4.2777   22.8533 H   0  0  0  0  0  0  0  0  0  0  0  0
   50.2593    7.0153   17.5306 H   0  0  0  0  0  0  0  0  0  0  0  0
   52.5568    6.7272   18.3938 H   0  0  0  0  0  0  0  0  0  0  0  0
   48.8189    4.1511   20.4251 H   0  0  0  0  0  0  0  0  0  0  0  0
   51.1056    3.8645   21.2841 H   0  0  0  0  0  0  0  0  0  0  0  0
   46.2542    5.3014   18.5249 H   0  0  0  0  0  0  0  0  0  0  0  0
   54.4552    4.2745   21.6127 H   0  0  0  0  0  0  0  0  0  0  0  0
 14  7  2  0
 15  8  1  0
 16 11  1  0
 17 15  2  0
 18 13  1  0
  2 19  1  6
 20 13  2  0
 21  9  1  0
  4  7  1  0
 16  9  1  0
  6 10  1  0
 18 12  1  0
 17 14  1  0
 14 22  1  0
 22 23  1  0
  2  1  1  0
  3  1  1  0
  3  4  1  0
  5  1  1  0
  6  2  1  0
  7  5  1  0
  8  5  2  0
  6  9  1  0
 10  8  1  0
  1 11  1  6
 12  2  1  0
 13  3  1  0
 37 30  2  0
 38 31  1  0
 39 34  1  0
 40 38  2  0
 41 36  1  0
 25 42  1  1
 43 36  2  0
 44 32  1  0
 27 30  1  0
 39 32  1  0
 29 33  1  0
 41 35  1  0
 40 37  1  0
 37 45  1  0
 45 46  1  0
 25 24  1  0
 26 24  1  0
 26 27  1  0
 28 24  1  0
 29 25  1  0
 30 28  1  0
 31 28  2  0
 29 32  1  0
 33 31  1  0
 24 34  1  1
 35 25  1  0
 36 26  1  0
 48 49  1  0
 49 56  2  0
 50 47  1  0
 51 48  2  0
 52 47  2  0
 53 50  1  0
 54 53  2  0
 55 50  2  0
 56 55  1  0
 57 47  1  0
 58 48  1  0
 49 54  1  0
  3 59  1  6
  6 60  1  1
 10 61  1  0
 10 62  1  0
 11 63  1  0
 11 64  1  0
 12 65  1  0
 12 66  1  0
 15 67  1  0
 16 68  1  0
 16 69  1  0
 17 70  1  0
 18 71  1  0
 18 72  1  0
 19 73  1  0
 21 74  1  0
 21 75  1  0
 21 76  1  0
 23 77  1  0
 23 78  1  0
 23 79  1  0
 26 80  1  1
 29 81  1  6
 33 82  1  0
 33 83  1  0
 34 84  1  0
 34 85  1  0
 35 86  1  0
 35 87  1  0
 38 88  1  0
 39 89  1  0
 39 90  1  0
 40 91  1  0
 41 92  1  0
 41 93  1  0
 42 94  1  0
 44 95  1  0
 44 96  1  0
 44 97  1  0
 46 98  1  0
 46 99  1  0
 46100  1  0
 53101  1  0
 54102  1  0
 55103  1  0
 56104  1  0
 57105  1  0
 58106  1  0
M  END
> <Uni-Dock RESULT> 
ENERGY=   -5.661  LOWER_BOUND=    4.544  UPPER_BOUND=    7.210
INTER + INTRA:          -5.661
INTER:                  -5.661
INTRA:                   0.000
UNBOUND:                 0.000

$$$$

     RDKit          3D

106114  0  0  0  0  0  0  0  0999 V2000
   50.4326    6.0312   20.9282 C   0  0  2  0  0  0  0  0  0  0  0  0
   49.8671    7.2096   20.1255 C   0  0  2  0  0  0  0  0  0  0  0  0
   51.5651    6.3160   21.9227 C   0  0  1  0  0  0  0  0  0  0  0  0
   52.3961    5.1125   21.9683 O   0  0  0  0  0  0  0  0  0  0  0  0
   51.2023    5.1324   20.0244 C   0  0  0  0  0  0  0  0  0  0  0  0
   48.9974    6.5853   18.9778 C   0  0  2  0  0  0  0  0  0  0  0  0
   52.2806    4.5906   20.6976 C   0  0  0  0  0  0  0  0  0  0  0  0
   50.9286    4.8837   18.6946 C   0  0  0  0  0  0  0  0  0  0  0  0
   47.8275    5.9443   19.6592 N   0  0  0  0  0  0  0  0  0  0  0  0
   49.8323    5.6651   18.0186 C   0  0  0  0  0  0  0  0  0  0  0  0
   49.2777    5.2230   21.5679 C   0  0  0  0  0  0  0  0  0  0  0  0
   50.9577    8.1705   19.6410 C   0  0  0  0  0  0  0  0  0  0  0  0
   52.4432    7.5255   21.5487 C   0  0  0  0  0  0  0  0  0  0  0  0
   53.1105    3.6714   20.0860 C   0  0  0  0  0  0  0  0  0  0  0  0
   51.7607    3.9711   18.0499 C   0  0  0  0  0  0  0  0  0  0  0  0
   48.2077    4.8242   20.5365 C   0  0  0  0  0  0  0  0  0  0  0  0
   52.8306    3.3576   18.7457 C   0  0  0  0  0  0  0  0  0  0  0  0
   51.7842    8.6739   20.8193 C   0  0  0  0  0  0  0  0  0  0  0  0
   49.0033    7.9931   20.9759 O   0  0  0  0  0  0  0  0  0  0  0  0
   53.6243    7.6174   21.8926 O   0  0  0  0  0  0  0  0  0  0  0  0
   46.7815    5.5378   18.7215 C   0  0  0  0  0  0  0  0  0  0  0  0
   54.1272    3.1638   20.8380 O   0  0  0  0  0  0  0  0  0  0  0  0
   55.0469    2.3014   20.1844 C   0  0  0  0  0  0  0  0  0  0  0  0
   50.4945    5.7485   18.9619 C   0  0  2  0  0  0  0  0  0  0  0  0
   49.0210    5.3898   19.1913 C   0  0  2  0  0  0  0  0  0  0  0  0
   51.2850    4.9201   17.9412 C   0  0  1  0  0  0  0  0  0  0  0  0
   52.6714    4.8894   18.4089 O   0  0  0  0  0  0  0  0  0  0  0  0
   51.2939    5.3755   20.1615 C   0  0  0  0  0  0  0  0  0  0  0  0
   48.5802    6.1465   20.4939 C   0  0  2  0  0  0  0  0  0  0  0  0
   52.5517    4.9482   19.7811 C   0  0  0  0  0  0  0  0  0  0  0  0
   50.8607    5.4054   21.4718 C   0  0  0  0  0  0  0  0  0  0  0  0
   48.6058    7.6028   20.1442 N   0  0  0  0  0  0  0  0  0  0  0  0
   49.4144    5.7202   21.7532 C   0  0  0  0  0  0  0  0  0  0  0  0
   50.6376    7.2708   18.7210 C   0  0  0  0  0  0  0  0  0  0  0  0
   48.7806    3.8771   19.2274 C   0  0  0  0  0  0  0  0  0  0  0  0
   50.7754    3.4761   17.7705 C   0  0  0  0  0  0  0  0  0  0  0  0
   53.5011    4.6081   20.7250 C   0  0  0  0  0  0  0  0  0  0  0  0
   51.7952    5.0527   22.4431 C   0  0  0  0  0  0  0  0  0  0  0  0
   49.9540    8.0999   19.8223 C   0  0  0  0  0  0  0  0  0  0  0  0
   53.1085    4.6745   22.0726 C   0  0  0  0  0  0  0  0  0  0  0  0
   49.2949    3.2270   17.9478 C   0  0  0  0  0  0  0  0  0  0  0  0
   48.2343    5.8861   18.0879 O   0  0  0  0  0  0  0  0  0  0  0  0
   51.5125    2.5514   17.4195 O   0  0  0  0  0  0  0  0  0  0  0  0
   47.9738    8.4395   21.1634 C   0  0  0  0  0  0  0  0  0  0  0  0
   54.7248    4.2309   20.2588 O   0  0  0  0  0  0  0  0  0  0  0  0
   55.6675    3.7711   21.2163 C   0  0  0  0  0  0  0  0  0  0  0  0
   47.9081    6.3344   20.2324 C   0  0  0  0  0  0  0  0  0  0  0  0
   53.4744    4.9270   19.6358 C   0  0  0  0  0  0  0  0  0  0  0  0
   52.0391    5.2517   19.8212 C   0  0  0  0  0  0  0  0  0  0  0  0
   49.3317    5.9360   20.1119 C   0  0  0  0  0  0  0  0  0  0  0  0
   54.2480    5.5125   18.9015 O   0  0  0  0  0  0  0  0  0  0  0  0
   47.3729    7.2521   19.6392 O   0  0  0  0  0  0  0  0  0  0  0  0
   50.1540    6.6662   19.2440 C   0  0  0  0  0  0  0  0  0  0  0  0
   51.5023    6.3251   19.0991 C   0  0  0  0  0  0  0  0  0  0  0  0
   49.8677    4.8617   20.8337 C   0  0  0  0  0  0  0  0  0  0  0  0
   51.2172    4.5206   20.6888 C   0  0  0  0  0  0  0  0  0  0  0  0
   47.2211    5.5625   21.0924 O   0  0  0  0  0  0  0  0  0  0  0  0
   53.8729    3.8820   20.3818 O   0  0  0  0  0  0  0  0  0  0  0  0
   51.1764    6.5062   22.9301 H   0  0  0  0  0  0  0  0  0  0  0  0
   48.5869    7.4121   18.3820 H   0  0  0  0  0  0  0  0  0  0  0  0
   49.1827    4.9815   17.4633 H   0  0  0  0  0  0  0  0  0  0  0  0
   50.3103    6.3144   17.2733 H   0  0  0  0  0  0  0  0  0  0  0  0
   49.6465    4.3129   22.0592 H   0  0  0  0  0  0  0  0  0  0  0  0
   48.8066    5.8232   22.3573 H   0  0  0  0  0  0  0  0  0  0  0  0
   50.4973    9.0358   19.1482 H   0  0  0  0  0  0  0  0  0  0  0  0
   51.6199    7.6978   18.9076 H   0  0  0  0  0  0  0  0  0  0  0  0
   51.6033    3.7286   17.0011 H   0  0  0  0  0  0  0  0  0  0  0  0
   47.3251    4.4794   21.0895 H   0  0  0  0  0  0  0  0  0  0  0  0
   48.5559    3.9660   19.9487 H   0  0  0  0  0  0  0  0  0  0  0  0
   53.4426    2.6476   18.1973 H   0  0  0  0  0  0  0  0  0  0  0  0
   51.1767    9.2350   21.5367 H   0  0  0  0  0  0  0  0  0  0  0  0
   52.5659    9.3465   20.4489 H   0  0  0  0  0  0  0  0  0  0  0  0
   48.1152    7.5836   20.8790 H   0  0  0  0  0  0  0  0  0  0  0  0
   45.8822    5.2336   19.2690 H   0  0  0  0  0  0  0  0  0  0  0  0
   46.4867    6.3766   18.0814 H   0  0  0  0  0  0  0  0  0  0  0  0
   47.0835    4.7021   18.0825 H   0  0  0  0  0  0  0  0  0  0  0  0
   55.8149    2.0179   20.9106 H   0  0  0  0  0  0  0  0  0  0  0  0
   55.5459    2.8106   19.3530 H   0  0  0  0  0  0  0  0  0  0  0  0
   54.5540    1.3840   19.8466 H   0  0  0  0  0  0  0  0  0  0  0  0
   51.2657    5.3829   16.9475 H   0  0  0  0  0  0  0  0  0  0  0  0
   47.5272    5.8980   20.6846 H   0  0  0  0  0  0  0  0  0  0  0  0
   49.3499    6.4748   22.5432 H   0  0  0  0  0  0  0  0  0  0  0  0
   48.9576    4.8071   22.1569 H   0  0  0  0  0  0  0  0  0  0  0  0
   51.6915    7.5719   18.6591 H   0  0  0  0  0  0  0  0  0  0  0  0
   50.1921    7.5294   17.7513 H   0  0  0  0  0  0  0  0  0  0  0  0
   47.7055    3.6746   19.3088 H   0  0  0  0  0  0  0  0  0  0  0  0
   49.2622    3.4086   20.0926 H   0  0  0  0  0  0  0  0  0  0  0  0
   51.5214    5.0535   23.4961 H   0  0  0  0  0  0  0  0  0  0  0  0
   49.8848    9.1349   19.4647 H   0  0  0  0  0  0  0  0  0  0  0  0
   50.5867    8.1266   20.7179 H   0  0  0  0  0  0  0  0  0  0  0  0
   53.7987    4.4162   22.8705 H   0  0  0  0  0  0  0  0  0  0  0  0
   48.7738    3.5996   17.0599 H   0  0  0  0  0  0  0  0  0  0  0  0
   49.1270    2.1454   18.0015 H   0  0  0  0  0  0  0  0  0  0  0  0
   47.9857    6.8011   18.3464 H   0  0  0  0  0  0  0  0  0  0  0  0
   47.8619    9.4647   20.7926 H   0  0  0  0  0  0  0  0  0  0  0  0
   46.9643    8.0799   21.3902 H   0  0  0  0  0  0  0  0  0  0  0  0
   48.5458    8.4809   22.0956 H   0  0  0  0  0  0  0  0  0  0  0  0
   55.2904    2.8953   21.7551 H   0  0  0  0  0  0  0  0  0  0  0  0
   55.9463    4.5717   21.9098 H   0  0  0  0  0  0  0  0  0  0  0  0
   56.5707    3.4675   20.6780 H   0  0  0  0  0  0  0  0  0  0  0  0
   49.7485    7.5030   18.6776 H   0  0  0  0  0  0  0  0  0  0  0  0
   52.1313    6.9002   18.4215 H   0  0  0  0  0  0  0  0  0  0  0  0
   49.2447    4.2831   21.5122 H   0  0  0  0  0  0  0  0  0  0  0  0
   51.6162    3.6834   21.2572 H   0  0  0  0  0  0  0  0  0  0  0  0
   46.3147    5.9354   21.0690 H   0  0  0  0  0  0  0  0  0  0  0  0
   54.8231    3.7841   20.1608 H   0  0  0  0  0  0  0  0  0  0  0  0
 14  7  2  0
 15  8  1  0
 16 11  1  0
 17 15  2  0
 18 13  1  0
  2 19  1  6
 20 13  2  0
 21  9  1  0
  4  7  1  0
 16  9  1  0
  6 10  1  0
 18 12  1  0
 17 14  1  0
 14 22  1  0
 22 23  1  0
  2  1  1  0
  3  1  1  0
  3  4  1  0
  5  1  1  0
  6  2  1  0
  7  5  1  0
  8  5  2  0
  6  9  1  0
 10  8  1  0
  1 11  1  6
 12  2  1  0
 13  3  1  0
 37 30  2  0
 38 31  1  0
 39 34  1  0
 40 38  2  0
 41 36  1  0
 25 42  1  1
 43 36  2  0
 44 32  1  0
 27 30  1  0
 39 32  1  0
 29 33  1  0
 41 35  1  0
 40 37  1  0
 37 45  1  0
 45 46  1  0
 25 24  1  0
 26 24  1  0
 26 27  1  0
 28 24  1  0
 29 25  1  0
 30 28  1  0
 31 28  2  0
 29 32  1  0
 33 31  1  0
 24 34  1  1
 35 25  1  0
 36 26  1  0
 48 49  1  0
 49 56  2  0
 50 47  1  0
 51 48  2  0
 52 47  2  0
 53 50  1  0
 54 53  2  0
 55 50  2  0
 56 55  1  0
 57 47  1  0
 58 48  1  0
 49 54  1  0
  3 59  1  6
  6 60  1  1
 10 61  1  0
 10 62  1  0
 11 63  1  0
 11 64  1  0
 12 65  1  0
 12 66  1  0
 15 67  1  0
 16 68  1  0
 16 69  1  0
 17 70  1  0
 18 71  1  0
 18 72  1  0
 19 73  1  0
 21 74  1  0
 21 75  1  0
 21 76  1  0
 23 77  1  0
 23 78  1  0
 23 79  1  0
 26 80  1  1
 29 81  1  6
 33 82  1  0
 33 83  1  0
 34 84  1  0
 34 85  1  0
 35 86  1  0
 35 87  1  0
 38 88  1  0
 39 89  1  0
 39 90  1  0
 40 91  1  0
 41 92  1  0
 41 93  1  0
 42 94  1  0
 44 95  1  0
 44 96  1  0
 44 97  1  0
 46 98  1  0
 46 99  1  0
 46100  1  0
 53101  1  0
 54102  1  0
 55103  1  0
 56104  1  0
 57105  1  0
 58106  1  0
M  END
> <Uni-Dock RESULT> 
ENERGY=   -5.596  LOWER_BOUND=    4.531  UPPER_BOUND=    6.840
INTER + INTRA:          -5.596
INTER:                  -5.596
INTRA:                   0.000
UNBOUND:                 0.000

$$$$

     RDKit          3D

106114  0  0  0  0  0  0  0  0999 V2000
   49.2533   10.4255   20.3478 C   0  0  2  0  0  0  0  0  0  0  0  0
   48.0006   10.9614   21.0522 C   0  0  2  0  0  0  0  0  0  0  0  0
   49.9093   11.3071   19.2777 C   0  0  1  0  0  0  0  0  0  0  0  0
   50.5060   10.4013   18.2956 O   0  0  0  0  0  0  0  0  0  0  0  0
   48.8805    9.2954   19.4528 C   0  0  0  0  0  0  0  0  0  0  0  0
   47.3679    9.7440   21.8147 C   0  0  2  0  0  0  0  0  0  0  0  0
   49.6752    9.3015   18.3224 C   0  0  0  0  0  0  0  0  0  0  0  0
   47.8705    8.3804   19.6716 C   0  0  0  0  0  0  0  0  0  0  0  0
   48.3405    9.3960   22.8995 N   0  0  0  0  0  0  0  0  0  0  0  0
   46.9544    8.5757   20.8514 C   0  0  0  0  0  0  0  0  0  0  0  0
   50.2727    9.9151   21.3950 C   0  0  0  0  0  0  0  0  0  0  0  0
   47.0424   11.6725   20.0911 C   0  0  0  0  0  0  0  0  0  0  0  0
   48.9337   12.2607   18.5618 C   0  0  0  0  0  0  0  0  0  0  0  0
   49.5620    8.3082   17.3693 C   0  0  0  0  0  0  0  0  0  0  0  0
   47.7252    7.3764   18.7167 C   0  0  0  0  0  0  0  0  0  0  0  0
   49.6385    8.9250   22.3877 C   0  0  0  0  0  0  0  0  0  0  0  0
   48.5757    7.3315   17.5854 C   0  0  0  0  0  0  0  0  0  0  0  0
   47.7643   12.7964   19.3559 C   0  0  0  0  0  0  0  0  0  0  0  0
   48.3900   11.9544   22.0244 O   0  0  0  0  0  0  0  0  0  0  0  0
   49.1213   12.6560   17.4084 O   0  0  0  0  0  0  0  0  0  0  0  0
   47.7898    8.4493   23.8687 C   0  0  0  0  0  0  0  0  0  0  0  0
   50.4110    8.3757   16.3056 O   0  0  0  0  0  0  0  0  0  0  0  0
   50.2281    7.4209   15.2705 C   0  0  0  0  0  0  0  0  0  0  0  0
   47.6922    9.2021   20.2200 C   0  0  2  0  0  0  0  0  0  0  0  0
   48.1493    8.8313   21.6364 C   0  0  2  0  0  0  0  0  0  0  0  0
   47.1820    8.0760   19.3120 C   0  0  1  0  0  0  0  0  0  0  0  0
   47.5269    8.4535   17.9408 O   0  0  0  0  0  0  0  0  0  0  0  0
   48.8724    9.5834   19.3961 C   0  0  0  0  0  0  0  0  0  0  0  0
   48.9201   10.0804   22.1925 C   0  0  2  0  0  0  0  0  0  0  0  0
   48.6898    9.1795   18.0874 C   0  0  0  0  0  0  0  0  0  0  0  0
   50.0132   10.2154   19.8488 C   0  0  0  0  0  0  0  0  0  0  0  0
   47.8879   11.1538   22.3545 N   0  0  0  0  0  0  0  0  0  0  0  0
   50.1767   10.4505   21.3280 C   0  0  0  0  0  0  0  0  0  0  0  0
   46.7147   10.4010   20.2759 C   0  0  0  0  0  0  0  0  0  0  0  0
   48.9502    7.5258   21.6753 C   0  0  0  0  0  0  0  0  0  0  0  0
   47.7844    6.6925   19.6237 C   0  0  0  0  0  0  0  0  0  0  0  0
   49.6244    9.4786   17.1154 C   0  0  0  0  0  0  0  0  0  0  0  0
   50.9787   10.5159   18.8903 C   0  0  0  0  0  0  0  0  0  0  0  0
   47.2884   11.5812   21.0793 C   0  0  0  0  0  0  0  0  0  0  0  0
   50.7770   10.1655   17.5332 C   0  0  0  0  0  0  0  0  0  0  0  0
   48.1420    6.3885   21.0607 C   0  0  0  0  0  0  0  0  0  0  0  0
   46.9897    8.6054   22.4655 O   0  0  0  0  0  0  0  0  0  0  0  0
   47.9040    5.8143   18.7658 O   0  0  0  0  0  0  0  0  0  0  0  0
   48.3841   12.3055   23.1066 C   0  0  0  0  0  0  0  0  0  0  0  0
   49.3444    9.0702   15.8459 O   0  0  0  0  0  0  0  0  0  0  0  0
   50.3511    9.2730   14.8649 C   0  0  0  0  0  0  0  0  0  0  0  0
   48.6363   10.0280   22.8796 C   0  0  0  0  0  0  0  0  0  0  0  0
   48.5251    9.2005   17.1680 C   0  0  0  0  0  0  0  0  0  0  0  0
   48.6002    9.3970   18.6362 C   0  0  0  0  0  0  0  0  0  0  0  0
   48.6548    9.7995   21.4143 C   0  0  0  0  0  0  0  0  0  0  0  0
   47.5559    9.4262   16.4678 O   0  0  0  0  0  0  0  0  0  0  0  0
   47.6934   10.4498   23.5227 O   0  0  0  0  0  0  0  0  0  0  0  0
   47.4953   10.0878   20.6830 C   0  0  0  0  0  0  0  0  0  0  0  0
   47.4680    9.8870   19.2995 C   0  0  0  0  0  0  0  0  0  0  0  0
   49.7872    9.3085   20.7517 C   0  0  0  0  0  0  0  0  0  0  0  0
   49.7599    9.1079   19.3670 C   0  0  0  0  0  0  0  0  0  0  0  0
   49.8027    9.7164   23.4712 O   0  0  0  0  0  0  0  0  0  0  0  0
   49.6712    8.7299   16.6459 O   0  0  0  0  0  0  0  0  0  0  0  0
   50.7056   11.9292   19.7029 H   0  0  0  0  0  0  0  0  0  0  0  0
   46.4615   10.1020   22.3221 H   0  0  0  0  0  0  0  0  0  0  0  0
   46.8515    7.6325   21.3967 H   0  0  0  0  0  0  0  0  0  0  0  0
   45.9597    8.8146   20.4525 H   0  0  0  0  0  0  0  0  0  0  0  0
   51.1327    9.4284   20.9165 H   0  0  0  0  0  0  0  0  0  0  0  0
   50.6800   10.7685   21.9529 H   0  0  0  0  0  0  0  0  0  0  0  0
   46.2085   12.1091   20.6545 H   0  0  0  0  0  0  0  0  0  0  0  0
   46.6094   10.9797   19.3615 H   0  0  0  0  0  0  0  0  0  0  0  0
   46.9486    6.6222   18.8251 H   0  0  0  0  0  0  0  0  0  0  0  0
   50.3364    8.8008   23.2250 H   0  0  0  0  0  0  0  0  0  0  0  0
   49.5412    7.9374   21.9204 H   0  0  0  0  0  0  0  0  0  0  0  0
   48.4241    6.5225   16.8770 H   0  0  0  0  0  0  0  0  0  0  0  0
   48.1363   13.5635   20.0427 H   0  0  0  0  0  0  0  0  0  0  0  0
   47.0656   13.2807   18.6646 H   0  0  0  0  0  0  0  0  0  0  0  0
   48.5589   11.4473   22.8490 H   0  0  0  0  0  0  0  0  0  0  0  0
   48.4636    8.3550   24.7278 H   0  0  0  0  0  0  0  0  0  0  0  0
   46.8329    8.8092   24.2622 H   0  0  0  0  0  0  0  0  0  0  0  0
   47.6395    7.4495   23.4495 H   0  0  0  0  0  0  0  0  0  0  0  0
   50.9562    7.6370   14.4825 H   0  0  0  0  0  0  0  0  0  0  0  0
   49.2280    7.4991   14.8309 H   0  0  0  0  0  0  0  0  0  0  0  0
   50.4217    6.4060   15.6328 H   0  0  0  0  0  0  0  0  0  0  0  0
   46.0928    7.9699   19.3776 H   0  0  0  0  0  0  0  0  0  0  0  0
   49.2659    9.8356   23.2061 H   0  0  0  0  0  0  0  0  0  0  0  0
   50.4854   11.4856   21.5034 H   0  0  0  0  0  0  0  0  0  0  0  0
   51.0070    9.8166   21.6660 H   0  0  0  0  0  0  0  0  0  0  0  0
   46.4538   10.7556   19.2702 H   0  0  0  0  0  0  0  0  0  0  0  0
   45.7714   10.0803   20.7373 H   0  0  0  0  0  0  0  0  0  0  0  0
   49.1798    7.2627   22.7153 H   0  0  0  0  0  0  0  0  0  0  0  0
   49.9063    7.6187   21.1488 H   0  0  0  0  0  0  0  0  0  0  0  0
   51.9030   11.0128   19.1774 H   0  0  0  0  0  0  0  0  0  0  0  0
   46.4653   12.2786   21.2794 H   0  0  0  0  0  0  0  0  0  0  0  0
   48.0149   12.1315   20.4690 H   0  0  0  0  0  0  0  0  0  0  0  0
   51.5585   10.4298   16.8268 H   0  0  0  0  0  0  0  0  0  0  0  0
   47.2163    6.1974   21.6134 H   0  0  0  0  0  0  0  0  0  0  0  0
   48.7385    5.4696   21.0850 H   0  0  0  0  0  0  0  0  0  0  0  0
   46.7688    9.4881   22.8366 H   0  0  0  0  0  0  0  0  0  0  0  0
   47.5568   12.9827   23.3475 H   0  0  0  0  0  0  0  0  0  0  0  0
   48.8144   11.9891   24.0629 H   0  0  0  0  0  0  0  0  0  0  0  0
   49.1383   12.8794   22.5588 H   0  0  0  0  0  0  0  0  0  0  0  0
   51.2752    8.7487   15.1309 H   0  0  0  0  0  0  0  0  0  0  0  0
   50.5348   10.3408   14.7046 H   0  0  0  0  0  0  0  0  0  0  0  0
   49.9893    8.8523   13.9217 H   0  0  0  0  0  0  0  0  0  0  0  0
   46.6089   10.4697   21.1871 H   0  0  0  0  0  0  0  0  0  0  0  0
   46.5609   10.1149   18.7421 H   0  0  0  0  0  0  0  0  0  0  0  0
   50.6965    9.0789   21.3027 H   0  0  0  0  0  0  0  0  0  0  0  0
   50.6485    8.7258   18.8692 H   0  0  0  0  0  0  0  0  0  0  0  0
   49.6447    9.9135   24.4186 H   0  0  0  0  0  0  0  0  0  0  0  0
   49.4780    8.6506   15.6880 H   0  0  0  0  0  0  0  0  0  0  0  0
 14  7  2  0
 15  8  1  0
 16 11  1  0
 17 15  2  0
 18 13  1  0
  2 19  1  6
 20 13  2  0
 21  9  1  0
  4  7  1  0
 16  9  1  0
  6 10  1  0
 18 12  1  0
 17 14  1  0
 14 22  1  0
 22 23  1  0
  2  1  1  0
  3  1  1  0
  3  4  1  0
  5  1  1  0
  6  2  1  0
  7  5  1  0
  8  5  2  0
  6  9  1  0
 10  8  1  0
  1 11  1  6
 12  2  1  0
 13  3  1  0
 37 30  2  0
 38 31  1  0
 39 34  1  0
 40 38  2  0
 41 36  1  0
 25 42  1  1
 43 36  2  0
 44 32  1  0
 27 30  1  0
 39 32  1  0
 29 33  1  0
 41 35  1  0
 40 37  1  0
 37 45  1  0
 45 46  1  0
 25 24  1  0
 26 24  1  0
 26 27  1  0
 28 24  1  0
 29 25  1  0
 30 28  1  0
 31 28  2  0
 29 32  1  0
 33 31  1  0
 24 34  1  1
 35 25  1  0
 36 26  1  0
 48 49  1  0
 49 56  2  0
 50 47  1  0
 51 48  2  0
 52 47  2  0
 53 50  1  0
 54 53  2  0
 55 50  2  0
 56 55  1  0
 57 47  1  0
 58 48  1  0
 49 54  1  0
  3 59  1  6
  6 60  1  1
 10 61  1  0
 10 62  1  0
 11 63  1  0
 11 64  1  0
 12 65  1  0
 12 66  1  0
 15 67  1  0
 16 68  1  0
 16 69  1  0
 17 70  1  0
 18 71  1  0
 18 72  1  0
 19 73  1  0
 21 74  1  0
 21 75  1  0
 21 76  1  0
 23 77  1  0
 23 78  1  0
 23 79  1  0
 26 80  1  1
 29 81  1  6
 33 82  1  0
 33 83  1  0
 34 84  1  0
 34 85  1  0
 35 86  1  0
 35 87  1  0
 38 88  1  0
 39 89  1  0
 39 90  1  0
 40 91  1  0
 41 92  1  0
 41 93  1  0
 42 94  1  0
 44 95  1  0
 44 96  1  0
 44 97  1  0
 46 98  1  0
 46 99  1  0
 46100  1  0
 53101  1  0
 54102  1  0
 55103  1  0
 56104  1  0
 57105  1  0
 58106  1  0
M  END
> <Uni-Dock RESULT> 
ENERGY=   -5.537  LOWER_BOUND=    1.296  UPPER_BOUND=    2.124
INTER + INTRA:          -5.537
INTER:                  -5.537
INTRA:                   0.000
UNBOUND:                 0.000

$$$$

     RDKit          3D

106114  0  0  0  0  0  0  0  0999 V2000
   49.3886    9.3761   21.1669 C   0  0  2  0  0  0  0  0  0  0  0  0
   48.2159    8.4306   21.4557 C   0  0  2  0  0  0  0  0  0  0  0  0
   49.9855   10.1613   22.3416 C   0  0  1  0  0  0  0  0  0  0  0  0
   50.4696   11.4297   21.7958 O   0  0  0  0  0  0  0  0  0  0  0  0
   48.9063   10.5492   20.3869 C   0  0  0  0  0  0  0  0  0  0  0  0
   47.6059    8.0450   20.0619 C   0  0  2  0  0  0  0  0  0  0  0  0
   49.6067   11.6834   20.7510 C   0  0  0  0  0  0  0  0  0  0  0  0
   47.8867   10.5469   19.4564 C   0  0  0  0  0  0  0  0  0  0  0  0
   48.6506    7.2180   19.3774 N   0  0  0  0  0  0  0  0  0  0  0  0
   47.0762    9.2911   19.2679 C   0  0  0  0  0  0  0  0  0  0  0  0
   50.4713    8.6406   20.3405 C   0  0  0  0  0  0  0  0  0  0  0  0
   47.2079    9.0260   22.4441 C   0  0  0  0  0  0  0  0  0  0  0  0
   48.9882   10.4464   23.4808 C   0  0  0  0  0  0  0  0  0  0  0  0
   49.3828   12.8902   20.1176 C   0  0  0  0  0  0  0  0  0  0  0  0
   47.6304   11.7561   18.8137 C   0  0  0  0  0  0  0  0  0  0  0  0
   49.8862    7.9651   19.0879 C   0  0  0  0  0  0  0  0  0  0  0  0
   48.3846   12.9122   19.1295 C   0  0  0  0  0  0  0  0  0  0  0  0
   47.9059    9.4235   23.7401 C   0  0  0  0  0  0  0  0  0  0  0  0
   48.7164    7.2299   22.0810 O   0  0  0  0  0  0  0  0  0  0  0  0
   49.0953   11.4247   24.2247 O   0  0  0  0  0  0  0  0  0  0  0  0
   48.1483    6.5581   18.1729 C   0  0  0  0  0  0  0  0  0  0  0  0
   50.1448   13.9465   20.5181 O   0  0  0  0  0  0  0  0  0  0  0  0
   49.8463   15.2124   19.9480 C   0  0  0  0  0  0  0  0  0  0  0  0
   47.7815    9.7512   20.0593 C   0  0  2  0  0  0  0  0  0  0  0  0
   48.3387    8.5735   19.2500 C   0  0  2  0  0  0  0  0  0  0  0  0
   47.1614   10.9232   19.2881 C   0  0  1  0  0  0  0  0  0  0  0  0
   47.4068   12.1263   20.0843 O   0  0  0  0  0  0  0  0  0  0  0  0
   48.9034   10.5099   20.6779 C   0  0  0  0  0  0  0  0  0  0  0  0
   49.1941    7.7169   20.2492 C   0  0  2  0  0  0  0  0  0  0  0  0
   48.6018   11.8577   20.7172 C   0  0  0  0  0  0  0  0  0  0  0  0
   50.0979    9.9806   21.1235 C   0  0  0  0  0  0  0  0  0  0  0  0
   48.2156    7.1305   21.2199 N   0  0  0  0  0  0  0  0  0  0  0  0
   50.3886    8.5242   20.8696 C   0  0  0  0  0  0  0  0  0  0  0  0
   46.8531    9.2295   21.1828 C   0  0  0  0  0  0  0  0  0  0  0  0
   49.0952    9.0243   17.9963 C   0  0  0  0  0  0  0  0  0  0  0  0
   47.7395   11.1242   17.8742 C   0  0  0  0  0  0  0  0  0  0  0  0
   49.4644   12.7610   21.3071 C   0  0  0  0  0  0  0  0  0  0  0  0
   50.9924   10.8734   21.7101 C   0  0  0  0  0  0  0  0  0  0  0  0
   47.5298    8.1444   22.0384 C   0  0  0  0  0  0  0  0  0  0  0  0
   50.6698   12.2481   21.8160 C   0  0  0  0  0  0  0  0  0  0  0  0
   48.2016    9.8970   17.1220 C   0  0  0  0  0  0  0  0  0  0  0  0
   47.2431    7.7619   18.7768 O   0  0  0  0  0  0  0  0  0  0  0  0
   47.7593   12.2249   17.3177 O   0  0  0  0  0  0  0  0  0  0  0  0
   48.8100    6.0961   22.0656 C   0  0  0  0  0  0  0  0  0  0  0  0
   49.0689   14.0648   21.3303 O   0  0  0  0  0  0  0  0  0  0  0  0
   49.9992   15.0136   21.8314 C   0  0  0  0  0  0  0  0  0  0  0  0
   48.9653    7.0606   19.9804 C   0  0  0  0  0  0  0  0  0  0  0  0
   48.3641   12.7041   21.0338 C   0  0  0  0  0  0  0  0  0  0  0  0
   48.5644   11.2626   20.7473 C   0  0  0  0  0  0  0  0  0  0  0  0
   48.8573    8.5177   20.2350 C   0  0  0  0  0  0  0  0  0  0  0  0
   47.3497   13.2076   21.4787 O   0  0  0  0  0  0  0  0  0  0  0  0
   48.0924    6.2364   20.1790 O   0  0  0  0  0  0  0  0  0  0  0  0
   47.6529    9.0139   20.7504 C   0  0  0  0  0  0  0  0  0  0  0  0
   47.5070   10.3810   21.0053 C   0  0  0  0  0  0  0  0  0  0  0  0
   49.9150    9.3990   19.9760 C   0  0  0  0  0  0  0  0  0  0  0  0
   49.7689   10.7672   20.2313 C   0  0  0  0  0  0  0  0  0  0  0  0
   50.1644    6.7042   19.4878 O   0  0  0  0  0  0  0  0  0  0  0  0
   49.4475   13.4474   20.7488 O   0  0  0  0  0  0  0  0  0  0  0  0
   50.8344    9.6309   22.7889 H   0  0  0  0  0  0  0  0  0  0  0  0
   46.7563    7.3725   20.2434 H   0  0  0  0  0  0  0  0  0  0  0  0
   46.9857    9.0693   18.2000 H   0  0  0  0  0  0  0  0  0  0  0  0
   46.0613    9.5040   19.6286 H   0  0  0  0  0  0  0  0  0  0  0  0
   51.2728    9.3230   20.0281 H   0  0  0  0  0  0  0  0  0  0  0  0
   50.9513    7.8771   20.9667 H   0  0  0  0  0  0  0  0  0  0  0  0
   46.4377    8.2818   22.6816 H   0  0  0  0  0  0  0  0  0  0  0  0
   46.6939    9.8980   22.0253 H   0  0  0  0  0  0  0  0  0  0  0  0
   46.8399   11.8269   18.0696 H   0  0  0  0  0  0  0  0  0  0  0  0
   50.6449    7.2760   18.6966 H   0  0  0  0  0  0  0  0  0  0  0  0
   49.7178    8.7132   18.3035 H   0  0  0  0  0  0  0  0  0  0  0  0
   48.1486   13.8260   18.5922 H   0  0  0  0  0  0  0  0  0  0  0  0
   48.3581    8.5628   24.2433 H   0  0  0  0  0  0  0  0  0  0  0  0
   47.1705    9.8597   24.4253 H   0  0  0  0  0  0  0  0  0  0  0  0
   48.9341    6.6289   21.3346 H   0  0  0  0  0  0  0  0  0  0  0  0
   48.8858    5.8367   17.8032 H   0  0  0  0  0  0  0  0  0  0  0  0
   47.2392    5.9879   18.3932 H   0  0  0  0  0  0  0  0  0  0  0  0
   47.9305    7.2601   17.3619 H   0  0  0  0  0  0  0  0  0  0  0  0
   50.5152   15.9505   20.4014 H   0  0  0  0  0  0  0  0  0  0  0  0
   48.8172   15.5145   20.1697 H   0  0  0  0  0  0  0  0  0  0  0  0
   50.0339   15.2120   18.8693 H   0  0  0  0  0  0  0  0  0  0  0  0
   46.0780   10.7998   19.1734 H   0  0  0  0  0  0  0  0  0  0  0  0
   49.6123    6.8692   19.6893 H   0  0  0  0  0  0  0  0  0  0  0  0
   50.7455    8.0549   21.7914 H   0  0  0  0  0  0  0  0  0  0  0  0
   51.2214    8.4808   20.1555 H   0  0  0  0  0  0  0  0  0  0  0  0
   46.5239   10.0421   21.8435 H   0  0  0  0  0  0  0  0  0  0  0  0
   45.9398    8.8141   20.7367 H   0  0  0  0  0  0  0  0  0  0  0  0
   49.3991    8.1474   17.4114 H   0  0  0  0  0  0  0  0  0  0  0  0
   50.0082    9.5751   18.2475 H   0  0  0  0  0  0  0  0  0  0  0  0
   51.9533   10.5247   22.0826 H   0  0  0  0  0  0  0  0  0  0  0  0
   46.7499    7.6606   22.6396 H   0  0  0  0  0  0  0  0  0  0  0  0
   48.2229    8.6079   22.7511 H   0  0  0  0  0  0  0  0  0  0  0  0
   51.4001   12.8986   22.2883 H   0  0  0  0  0  0  0  0  0  0  0  0
   47.3177    9.3556   16.7692 H   0  0  0  0  0  0  0  0  0  0  0  0
   48.7665   10.2202   16.2404 H   0  0  0  0  0  0  0  0  0  0  0  0
   47.0831    7.1102   19.4947 H   0  0  0  0  0  0  0  0  0  0  0  0
   48.0285    5.5799   22.6346 H   0  0  0  0  0  0  0  0  0  0  0  0
   49.3053    5.3328   21.4558 H   0  0  0  0  0  0  0  0  0  0  0  0
   49.5365    6.4955   22.7803 H   0  0  0  0  0  0  0  0  0  0  0  0
   50.9234   15.0113   21.2436 H   0  0  0  0  0  0  0  0  0  0  0  0
   50.2056   14.8395   22.8928 H   0  0  0  0  0  0  0  0  0  0  0  0
   49.5481   16.0064   21.7385 H   0  0  0  0  0  0  0  0  0  0  0  0
   46.8238    8.3386   20.9555 H   0  0  0  0  0  0  0  0  0  0  0  0
   46.5660   10.7546   21.4059 H   0  0  0  0  0  0  0  0  0  0  0  0
   50.8576    9.0322   19.5757 H   0  0  0  0  0  0  0  0  0  0  0  0
   50.6008   11.4367   20.0240 H   0  0  0  0  0  0  0  0  0  0  0  0
   50.0904    5.7336   19.3709 H   0  0  0  0  0  0  0  0  0  0  0  0
   49.1748   14.3596   20.9829 H   0  0  0  0  0  0  0  0  0  0  0  0
 14  7  2  0
 15  8  1  0
 16 11  1  0
 17 15  2  0
 18 13  1  0
  2 19  1  6
 20 13  2  0
 21  9  1  0
  4  7  1  0
 16  9  1  0
  6 10  1  0
 18 12  1  0
 17 14  1  0
 14 22  1  0
 22 23  1  0
  2  1  1  0
  3  1  1  0
  3  4  1  0
  5  1  1  0
  6  2  1  0
  7  5  1  0
  8  5  2  0
  6  9  1  0
 10  8  1  0
  1 11  1  6
 12  2  1  0
 13  3  1  0
 37 30  2  0
 38 31  1  0
 39 34  1  0
 40 38  2  0
 41 36  1  0
 25 42  1  1
 43 36  2  0
 44 32  1  0
 27 30  1  0
 39 32  1  0
 29 33  1  0
 41 35  1  0
 40 37  1  0
 37 45  1  0
 45 46  1  0
 25 24  1  0
 26 24  1  0
 26 27  1  0
 28 24  1  0
 29 25  1  0
 30 28  1  0
 31 28  2  0
 29 32  1  0
 33 31  1  0
 24 34  1  1
 35 25  1  0
 36 26  1  0
 48 49  1  0
 49 56  2  0
 50 47  1  0
 51 48  2  0
 52 47  2  0
 53 50  1  0
 54 53  2  0
 55 50  2  0
 56 55  1  0
 57 47  1  0
 58 48  1  0
 49 54  1  0
  3 59  1  6
  6 60  1  1
 10 61  1  0
 10 62  1  0
 11 63  1  0
 11 64  1  0
 12 65  1  0
 12 66  1  0
 15 67  1  0
 16 68  1  0
 16 69  1  0
 17 70  1  0
 18 71  1  0
 18 72  1  0
 19 73  1  0
 21 74  1  0
 21 75  1  0
 21 76  1  0
 23 77  1  0
 23 78  1  0
 23 79  1  0
 26 80  1  1
 29 81  1  6
 33 82  1  0
 33 83  1  0
 34 84  1  0
 34 85  1  0
 35 86  1  0
 35 87  1  0
 38 88  1  0
 39 89  1  0
 39 90  1  0
 40 91  1  0
 41 92  1  0
 41 93  1  0
 42 94  1  0
 44 95  1  0
 44 96  1  0
 44 97  1  0
 46 98  1  0
 46 99  1  0
 46100  1  0
 53101  1  0
 54102  1  0
 55103  1  0
 56104  1  0
 57105  1  0
 58106  1  0
M  END
> <Uni-Dock RESULT> 
ENERGY=   -5.481  LOWER_BOUND=    1.979  UPPER_BOUND=    5.302
INTER + INTRA:          -5.481
INTER:                  -5.481
INTRA:                   0.000
UNBOUND:                 0.000

$$$$

     RDKit          3D

106114  0  0  0  0  0  0  0  0999 V2000
   49.5791    9.6128   20.3828 C   0  0  2  0  0  0  0  0  0  0  0  0
   48.4113    8.6459   20.1507 C   0  0  2  0  0  0  0  0  0  0  0  0
   50.2985    9.5599   21.7364 C   0  0  1  0  0  0  0  0  0  0  0  0
   50.7668   10.9177   22.0162 O   0  0  0  0  0  0  0  0  0  0  0  0
   49.0618   11.0039   20.5029 C   0  0  0  0  0  0  0  0  0  0  0  0
   47.6703    9.1495   18.8620 C   0  0  2  0  0  0  0  0  0  0  0  0
   49.8222   11.7177   21.4094 C   0  0  0  0  0  0  0  0  0  0  0  0
   47.9643   11.5256   19.8483 C   0  0  0  0  0  0  0  0  0  0  0  0
   48.6276    8.9273   17.7315 N   0  0  0  0  0  0  0  0  0  0  0  0
   47.1065   10.6060   19.0188 C   0  0  0  0  0  0  0  0  0  0  0  0
   50.5642    9.5499   19.1904 C   0  0  0  0  0  0  0  0  0  0  0  0
   47.5110    8.5021   21.3822 C   0  0  0  0  0  0  0  0  0  0  0  0
   49.4139    9.0777   22.9020 C   0  0  0  0  0  0  0  0  0  0  0  0
   49.5761   13.0564   21.6442 C   0  0  0  0  0  0  0  0  0  0  0  0
   47.6852   12.8708   20.0798 C   0  0  0  0  0  0  0  0  0  0  0  0
   49.8525    9.7376   17.8391 C   0  0  0  0  0  0  0  0  0  0  0  0
   48.4955   13.6328   20.9562 C   0  0  0  0  0  0  0  0  0  0  0  0
   48.3313    8.0691   22.5923 C   0  0  0  0  0  0  0  0  0  0  0  0
   48.9322    7.3255   19.8892 O   0  0  0  0  0  0  0  0  0  0  0  0
   49.6128    9.4214   24.0699 O   0  0  0  0  0  0  0  0  0  0  0  0
   48.0030    9.1014   16.4207 C   0  0  0  0  0  0  0  0  0  0  0  0
   50.3989   13.6881   22.5279 O   0  0  0  0  0  0  0  0  0  0  0  0
   50.0857   15.0340   22.8548 C   0  0  0  0  0  0  0  0  0  0  0  0
   47.8912   10.5246   19.8632 C   0  0  2  0  0  0  0  0  0  0  0  0
   48.3426   10.0805   18.4662 C   0  0  2  0  0  0  0  0  0  0  0  0
   47.2374   11.9053   20.0018 C   0  0  1  0  0  0  0  0  0  0  0  0
   47.5849   12.4024   21.3336 O   0  0  0  0  0  0  0  0  0  0  0  0
   49.0836   10.7986   20.7118 C   0  0  0  0  0  0  0  0  0  0  0  0
   49.2593    8.8240   18.6773 C   0  0  2  0  0  0  0  0  0  0  0  0
   48.8234   11.8465   21.5740 C   0  0  0  0  0  0  0  0  0  0  0  0
   50.2980   10.1454   20.6473 C   0  0  0  0  0  0  0  0  0  0  0  0
   48.3548    7.7441   19.1866 N   0  0  0  0  0  0  0  0  0  0  0  0
   50.5254    9.1382   19.5501 C   0  0  0  0  0  0  0  0  0  0  0  0
   47.0519    9.4070   20.5286 C   0  0  0  0  0  0  0  0  0  0  0  0
   48.9973   11.2137   17.6696 C   0  0  0  0  0  0  0  0  0  0  0  0
   47.6937   12.9282   18.9438 C   0  0  0  0  0  0  0  0  0  0  0  0
   49.7589   12.2455   22.5086 C   0  0  0  0  0  0  0  0  0  0  0  0
   51.2647   10.5390   21.5702 C   0  0  0  0  0  0  0  0  0  0  0  0
   47.7718    8.0474   20.5044 C   0  0  0  0  0  0  0  0  0  0  0  0
   50.9901   11.5681   22.5034 C   0  0  0  0  0  0  0  0  0  0  0  0
   48.0540   12.4074   17.5711 C   0  0  0  0  0  0  0  0  0  0  0  0
   47.1877    9.6782   17.6997 O   0  0  0  0  0  0  0  0  0  0  0  0
   47.6941   14.1435   19.1553 O   0  0  0  0  0  0  0  0  0  0  0  0
   48.9933    6.4286   19.1919 C   0  0  0  0  0  0  0  0  0  0  0  0
   49.4025   13.2648   23.3398 O   0  0  0  0  0  0  0  0  0  0  0  0
   50.3989   13.7555   24.2249 C   0  0  0  0  0  0  0  0  0  0  0  0
   48.9899    8.4511   18.0910 C   0  0  0  0  0  0  0  0  0  0  0  0
   48.6376   12.3288   22.3524 C   0  0  0  0  0  0  0  0  0  0  0  0
   48.7726   11.3502   21.2460 C   0  0  0  0  0  0  0  0  0  0  0  0
   48.9445    9.4641   19.1734 C   0  0  0  0  0  0  0  0  0  0  0  0
   47.6805   12.4355   23.0962 O   0  0  0  0  0  0  0  0  0  0  0  0
   48.1159    7.6446   17.8335 O   0  0  0  0  0  0  0  0  0  0  0  0
   47.8042    9.5170   19.9854 C   0  0  0  0  0  0  0  0  0  0  0  0
   47.7185   10.4565   21.0175 C   0  0  0  0  0  0  0  0  0  0  0  0
   49.9986   10.3583   19.4008 C   0  0  0  0  0  0  0  0  0  0  0  0
   49.9129   11.2983   20.4339 C   0  0  0  0  0  0  0  0  0  0  0  0
   50.1307    8.4965   17.3811 O   0  0  0  0  0  0  0  0  0  0  0  0
   49.7114   13.1286   22.4746 O   0  0  0  0  0  0  0  0  0  0  0  0
   51.1689    8.8941   21.7026 H   0  0  0  0  0  0  0  0  0  0  0  0
   46.8220    8.4756   18.6793 H   0  0  0  0  0  0  0  0  0  0  0  0
   46.9161   11.0626   18.0426 H   0  0  0  0  0  0  0  0  0  0  0  0
   46.1336   10.5300   19.5219 H   0  0  0  0  0  0  0  0  0  0  0  0
   51.3531   10.3084   19.2788 H   0  0  0  0  0  0  0  0  0  0  0  0
   51.0767    8.5789   19.1922 H   0  0  0  0  0  0  0  0  0  0  0  0
   46.7449    7.7398   21.1944 H   0  0  0  0  0  0  0  0  0  0  0  0
   46.9860    9.4352   21.6134 H   0  0  0  0  0  0  0  0  0  0  0  0
   46.8342   13.3470   19.5974 H   0  0  0  0  0  0  0  0  0  0  0  0
   50.5548    9.4421   17.0496 H   0  0  0  0  0  0  0  0  0  0  0  0
   49.6359   10.8003   17.6748 H   0  0  0  0  0  0  0  0  0  0  0  0
   48.2379   14.6787   21.0937 H   0  0  0  0  0  0  0  0  0  0  0  0
   48.8027    7.0927   22.4405 H   0  0  0  0  0  0  0  0  0  0  0  0
   47.6714    7.9871   23.4632 H   0  0  0  0  0  0  0  0  0  0  0  0
   49.0667    7.2958   18.9161 H   0  0  0  0  0  0  0  0  0  0  0  0
   48.6851    8.7666   15.6309 H   0  0  0  0  0  0  0  0  0  0  0  0
   47.1018    8.4845   16.3351 H   0  0  0  0  0  0  0  0  0  0  0  0
   47.7336   10.1415   16.2119 H   0  0  0  0  0  0  0  0  0  0  0  0
   50.8118   15.3760   23.5988 H   0  0  0  0  0  0  0  0  0  0  0  0
   49.0888   15.1120   23.3015 H   0  0  0  0  0  0  0  0  0  0  0  0
   50.1772   15.6833   21.9780 H   0  0  0  0  0  0  0  0  0  0  0  0
   46.1452   11.8411   19.9310 H   0  0  0  0  0  0  0  0  0  0  0  0
   49.6032    8.4915   17.6883 H   0  0  0  0  0  0  0  0  0  0  0  0
   50.9495    8.2229   19.9740 H   0  0  0  0  0  0  0  0  0  0  0  0
   51.2904    9.5554   18.8821 H   0  0  0  0  0  0  0  0  0  0  0  0
   46.8045    9.6540   21.5693 H   0  0  0  0  0  0  0  0  0  0  0  0
   46.0918    9.3117   20.0043 H   0  0  0  0  0  0  0  0  0  0  0  0
   49.2244   10.8691   16.6532 H   0  0  0  0  0  0  0  0  0  0  0  0
   49.9435   11.5338   18.1192 H   0  0  0  0  0  0  0  0  0  0  0  0
   52.2449   10.0669   21.5755 H   0  0  0  0  0  0  0  0  0  0  0  0
   47.0352    7.2765   20.7628 H   0  0  0  0  0  0  0  0  0  0  0  0
   48.5375    8.0153   21.2891 H   0  0  0  0  0  0  0  0  0  0  0  0
   51.7768   11.8304   23.2048 H   0  0  0  0  0  0  0  0  0  0  0  0
   47.1280   12.1564   17.0435 H   0  0  0  0  0  0  0  0  0  0  0  0
   48.5474   13.2102   17.0117 H   0  0  0  0  0  0  0  0  0  0  0  0
   47.0742    8.7222   17.8972 H   0  0  0  0  0  0  0  0  0  0  0  0
   48.2514    5.6508   19.4055 H   0  0  0  0  0  0  0  0  0  0  0  0
   49.4118    6.1958   18.2067 H   0  0  0  0  0  0  0  0  0  0  0  0
   49.7906    6.3448   19.9371 H   0  0  0  0  0  0  0  0  0  0  0  0
   51.2671   14.1330   23.6743 H   0  0  0  0  0  0  0  0  0  0  0  0
   50.6935   12.9888   24.9495 H   0  0  0  0  0  0  0  0  0  0  0  0
   49.9685   14.5928   24.7827 H   0  0  0  0  0  0  0  0  0  0  0  0
   46.9784    8.8273   19.8181 H   0  0  0  0  0  0  0  0  0  0  0  0
   46.8271   10.4878   21.6419 H   0  0  0  0  0  0  0  0  0  0  0  0
   50.8918   10.3323   18.7806 H   0  0  0  0  0  0  0  0  0  0  0  0
   50.7411   11.9848   20.5958 H   0  0  0  0  0  0  0  0  0  0  0  0
   50.0202    7.7857   16.7149 H   0  0  0  0  0  0  0  0  0  0  0  0
   49.4853   13.7118   23.2295 H   0  0  0  0  0  0  0  0  0  0  0  0
 14  7  2  0
 15  8  1  0
 16 11  1  0
 17 15  2  0
 18 13  1  0
  2 19  1  6
 20 13  2  0
 21  9  1  0
  4  7  1  0
 16  9  1  0
  6 10  1  0
 18 12  1  0
 17 14  1  0
 14 22  1  0
 22 23  1  0
  2  1  1  0
  3  1  1  0
  3  4  1  0
  5  1  1  0
  6  2  1  0
  7  5  1  0
  8  5  2  0
  6  9  1  0
 10  8  1  0
  1 11  1  6
 12  2  1  0
 13  3  1  0
 37 30  2  0
 38 31  1  0
 39 34  1  0
 40 38  2  0
 41 36  1  0
 25 42  1  1
 43 36  2  0
 44 32  1  0
 27 30  1  0
 39 32  1  0
 29 33  1  0
 41 35  1  0
 40 37  1  0
 37 45  1  0
 45 46  1  0
 25 24  1  0
 26 24  1  0
 26 27  1  0
 28 24  1  0
 29 25  1  0
 30 28  1  0
 31 28  2  0
 29 32  1  0
 33 31  1  0
 24 34  1  1
 35 25  1  0
 36 26  1  0
 48 49  1  0
 49 56  2  0
 50 47  1  0
 51 48  2  0
 52 47  2  0
 53 50  1  0
 54 53  2  0
 55 50  2  0
 56 55  1  0
 57 47  1  0
 58 48  1  0
 49 54  1  0
  3 59  1  6
  6 60  1  1
 10 61  1  0
 10 62  1  0
 11 63  1  0
 11 64  1  0
 12 65  1  0
 12 66  1  0
 15 67  1  0
 16 68  1  0
 16 69  1  0
 17 70  1  0
 18 71  1  0
 18 72  1  0
 19 73  1  0
 21 74  1  0
 21 75  1  0
 21 76  1  0
 23 77  1  0
 23 78  1  0
 23 79  1  0
 26 80  1  1
 29 81  1  6
 33 82  1  0
 33 83  1  0
 34 84  1  0
 34 85  1  0
 35 86  1  0
 35 87  1  0
 38 88  1  0
 39 89  1  0
 39 90  1  0
 40 91  1  0
 41 92  1  0
 41 93  1  0
 42 94  1  0
 44 95  1  0
 44 96  1  0
 44 97  1  0
 46 98  1  0
 46 99  1  0
 46100  1  0
 53101  1  0
 54102  1  0
 55103  1  0
 56104  1  0
 57105  1  0
 58106  1  0
M  END
> <Uni-Dock RESULT> 
ENERGY=   -5.387  LOWER_BOUND=    1.618  UPPER_BOUND=    5.528
INTER + INTRA:          -5.387
INTER:                  -5.387
INTRA:                   0.000
UNBOUND:                 0.000

$$$$

     RDKit          3D

106114  0  0  0  0  0  0  0  0999 V2000
   49.3888    8.9996   20.0901 C   0  0  2  0  0  0  0  0  0  0  0  0
   48.4797   10.1038   20.6440 C   0  0  2  0  0  0  0  0  0  0  0  0
   49.4600    8.8225   18.5681 C   0  0  1  0  0  0  0  0  0  0  0  0
   49.6993    7.4002   18.3218 O   0  0  0  0  0  0  0  0  0  0  0  0
   48.8058    7.6659   20.4040 C   0  0  0  0  0  0  0  0  0  0  0  0
   48.3403    9.8304   22.1832 C   0  0  2  0  0  0  0  0  0  0  0  0
   49.0700    6.7778   19.3788 C   0  0  0  0  0  0  0  0  0  0  0  0
   48.0721    7.3400   21.5268 C   0  0  0  0  0  0  0  0  0  0  0  0
   49.6991   10.0779   22.7632 N   0  0  0  0  0  0  0  0  0  0  0  0
   47.6967    8.4328   22.4934 C   0  0  0  0  0  0  0  0  0  0  0  0
   50.7918    9.0938   20.7373 C   0  0  0  0  0  0  0  0  0  0  0  0
   47.1462   10.2004   19.8957 C   0  0  0  0  0  0  0  0  0  0  0  0
   48.1845    9.2594   17.8225 C   0  0  0  0  0  0  0  0  0  0  0  0
   48.6850    5.4544   19.4687 C   0  0  0  0  0  0  0  0  0  0  0  0
   47.6584    6.0140   21.6345 C   0  0  0  0  0  0  0  0  0  0  0  0
   50.7204    9.1366   22.2739 C   0  0  0  0  0  0  0  0  0  0  0  0
   47.9782    5.0766   20.6225 C   0  0  0  0  0  0  0  0  0  0  0  0
   47.3875   10.4046   18.4041 C   0  0  0  0  0  0  0  0  0  0  0  0
   49.1233   11.3833   20.4657 O   0  0  0  0  0  0  0  0  0  0  0  0
   47.8472    8.7662   16.7432 O   0  0  0  0  0  0  0  0  0  0  0  0
   49.6895   10.1204   24.2250 C   0  0  0  0  0  0  0  0  0  0  0  0
   49.0190    4.6436   18.4257 O   0  0  0  0  0  0  0  0  0  0  0  0
   48.5336    3.3096   18.4623 C   0  0  0  0  0  0  0  0  0  0  0  0
   48.0463    8.3350   21.3964 C   0  0  2  0  0  0  0  0  0  0  0  0
   49.0732    8.8850   22.3940 C   0  0  2  0  0  0  0  0  0  0  0  0
   47.3328    7.0237   21.7492 C   0  0  1  0  0  0  0  0  0  0  0  0
   47.0521    6.3448   20.4836 O   0  0  0  0  0  0  0  0  0  0  0  0
   48.7455    7.8427   20.1774 C   0  0  0  0  0  0  0  0  0  0  0  0
   49.8683   10.0062   21.6361 C   0  0  2  0  0  0  0  0  0  0  0  0
   48.0923    6.7368   19.6680 C   0  0  0  0  0  0  0  0  0  0  0  0
   49.8992    8.3679   19.6308 C   0  0  0  0  0  0  0  0  0  0  0  0
   48.8841   11.1102   21.3986 N   0  0  0  0  0  0  0  0  0  0  0  0
   50.6217    9.4637   20.3705 C   0  0  0  0  0  0  0  0  0  0  0  0
   47.0558    9.4516   20.9862 C   0  0  0  0  0  0  0  0  0  0  0  0
   49.9528    7.7872   23.0013 C   0  0  0  0  0  0  0  0  0  0  0  0
   48.1505    6.0855   22.6575 C   0  0  0  0  0  0  0  0  0  0  0  0
   48.5170    6.1382   18.4979 C   0  0  0  0  0  0  0  0  0  0  0  0
   50.3573    7.7727   18.4573 C   0  0  0  0  0  0  0  0  0  0  0  0
   47.7790   10.7221   20.5062 C   0  0  0  0  0  0  0  0  0  0  0  0
   49.6616    6.6788   17.8877 C   0  0  0  0  0  0  0  0  0  0  0  0
   49.0884    6.7181   23.6602 C   0  0  0  0  0  0  0  0  0  0  0  0
   48.3787    9.4908   23.5048 O   0  0  0  0  0  0  0  0  0  0  0  0
   48.0036    4.8607   22.6470 O   0  0  0  0  0  0  0  0  0  0  0  0
   49.5191   12.3423   20.9328 C   0  0  0  0  0  0  0  0  0  0  0  0
   47.7916    5.0741   18.0524 O   0  0  0  0  0  0  0  0  0  0  0  0
   48.2883    4.3842   16.9147 C   0  0  0  0  0  0  0  0  0  0  0  0
   49.8939   10.4695   22.2192 C   0  0  0  0  0  0  0  0  0  0  0  0
   47.5685    6.1913   19.1193 C   0  0  0  0  0  0  0  0  0  0  0  0
   48.2102    7.2697   19.9101 C   0  0  0  0  0  0  0  0  0  0  0  0
   49.3417    9.3505   21.4175 C   0  0  0  0  0  0  0  0  0  0  0  0
   46.3811    6.1019   18.8688 O   0  0  0  0  0  0  0  0  0  0  0  0
   49.2534   11.3873   22.6967 O   0  0  0  0  0  0  0  0  0  0  0  0
   47.9623    9.3257   21.1745 C   0  0  0  0  0  0  0  0  0  0  0  0
   47.3988    8.2892   20.4240 C   0  0  0  0  0  0  0  0  0  0  0  0
   50.1537    8.3306   20.9046 C   0  0  0  0  0  0  0  0  0  0  0  0
   49.5897    7.2935   20.1532 C   0  0  0  0  0  0  0  0  0  0  0  0
   51.2255   10.3856   22.3849 O   0  0  0  0  0  0  0  0  0  0  0  0
   48.4476    5.2746   18.6785 O   0  0  0  0  0  0  0  0  0  0  0  0
   50.2907    9.3928   18.1361 H   0  0  0  0  0  0  0  0  0  0  0  0
   47.6847   10.6060   22.6024 H   0  0  0  0  0  0  0  0  0  0  0  0
   47.9222    8.1126   23.5153 H   0  0  0  0  0  0  0  0  0  0  0  0
   46.6067    8.5529   22.4383 H   0  0  0  0  0  0  0  0  0  0  0  0
   51.4304    8.2516   20.4400 H   0  0  0  0  0  0  0  0  0  0  0  0
   51.2986    9.9991   20.3781 H   0  0  0  0  0  0  0  0  0  0  0  0
   46.5709   11.0553   20.2720 H   0  0  0  0  0  0  0  0  0  0  0  0
   46.5299    9.3074   20.0457 H   0  0  0  0  0  0  0  0  0  0  0  0
   47.0753    5.6876   22.4930 H   0  0  0  0  0  0  0  0  0  0  0  0
   51.7062    9.4445   22.6441 H   0  0  0  0  0  0  0  0  0  0  0  0
   50.5459    8.1281   22.6685 H   0  0  0  0  0  0  0  0  0  0  0  0
   47.6382    4.0546   20.7613 H   0  0  0  0  0  0  0  0  0  0  0  0
   47.9233   11.3371   18.1989 H   0  0  0  0  0  0  0  0  0  0  0  0
   46.4225   10.4560   17.8875 H   0  0  0  0  0  0  0  0  0  0  0  0
   49.6633   11.5091   21.2771 H   0  0  0  0  0  0  0  0  0  0  0  0
   50.6591   10.4693   24.5980 H   0  0  0  0  0  0  0  0  0  0  0  0
   48.9418   10.8342   24.5877 H   0  0  0  0  0  0  0  0  0  0  0  0
   49.4876    9.1448   24.6782 H   0  0  0  0  0  0  0  0  0  0  0  0
   48.8538    2.8110   17.5422 H   0  0  0  0  0  0  0  0  0  0  0  0
   47.4391    3.2864   18.4904 H   0  0  0  0  0  0  0  0  0  0  0  0
   48.9619    2.7582   19.3057 H   0  0  0  0  0  0  0  0  0  0  0  0
   46.3808    7.2098   22.2602 H   0  0  0  0  0  0  0  0  0  0  0  0
   50.6181   10.4110   22.3295 H   0  0  0  0  0  0  0  0  0  0  0  0
   50.8651   10.2754   19.6782 H   0  0  0  0  0  0  0  0  0  0  0  0
   51.5789    9.0472   20.7107 H   0  0  0  0  0  0  0  0  0  0  0  0
   46.3749    9.1153   20.1935 H   0  0  0  0  0  0  0  0  0  0  0  0
   46.4188    9.7061   21.8437 H   0  0  0  0  0  0  0  0  0  0  0  0
   50.6095    8.2194   23.7664 H   0  0  0  0  0  0  0  0  0  0  0  0
   50.5988    7.3206   22.2497 H   0  0  0  0  0  0  0  0  0  0  0  0
   51.2614    8.1356   17.9729 H   0  0  0  0  0  0  0  0  0  0  0  0
   47.0394   11.5317   20.4690 H   0  0  0  0  0  0  0  0  0  0  0  0
   48.1348   10.5843   19.4779 H   0  0  0  0  0  0  0  0  0  0  0  0
   50.0584    6.2574   16.9686 H   0  0  0  0  0  0  0  0  0  0  0  0
   48.4909    7.1232   24.4834 H   0  0  0  0  0  0  0  0  0  0  0  0
   49.7360    5.9367   24.0736 H   0  0  0  0  0  0  0  0  0  0  0  0
   48.2361   10.4248   23.2343 H   0  0  0  0  0  0  0  0  0  0  0  0
   48.7944   13.1643   20.9370 H   0  0  0  0  0  0  0  0  0  0  0  0
   50.3299   12.6402   21.6063 H   0  0  0  0  0  0  0  0  0  0  0  0
   49.9229   12.2567   19.9190 H   0  0  0  0  0  0  0  0  0  0  0  0
   49.2901    3.9826   17.1007 H   0  0  0  0  0  0  0  0  0  0  0  0
   48.2790    5.0284   16.0290 H   0  0  0  0  0  0  0  0  0  0  0  0
   47.6218    3.5387   16.7184 H   0  0  0  0  0  0  0  0  0  0  0  0
   47.3212   10.1127   21.5683 H   0  0  0  0  0  0  0  0  0  0  0  0
   46.3254    8.2809   20.2419 H   0  0  0  0  0  0  0  0  0  0  0  0
   51.2267    8.3330   21.0830 H   0  0  0  0  0  0  0  0  0  0  0  0
   50.2355    6.5100   19.7629 H   0  0  0  0  0  0  0  0  0  0  0  0
   51.4446   11.1751   22.9233 H   0  0  0  0  0  0  0  0  0  0  0  0
   47.8929    4.6363   18.1825 H   0  0  0  0  0  0  0  0  0  0  0  0
 14  7  2  0
 15  8  1  0
 16 11  1  0
 17 15  2  0
 18 13  1  0
  2 19  1  6
 20 13  2  0
 21  9  1  0
  4  7  1  0
 16  9  1  0
  6 10  1  0
 18 12  1  0
 17 14  1  0
 14 22  1  0
 22 23  1  0
  2  1  1  0
  3  1  1  0
  3  4  1  0
  5  1  1  0
  6  2  1  0
  7  5  1  0
  8  5  2  0
  6  9  1  0
 10  8  1  0
  1 11  1  6
 12  2  1  0
 13  3  1  0
 37 30  2  0
 38 31  1  0
 39 34  1  0
 40 38  2  0
 41 36  1  0
 25 42  1  1
 43 36  2  0
 44 32  1  0
 27 30  1  0
 39 32  1  0
 29 33  1  0
 41 35  1  0
 40 37  1  0
 37 45  1  0
 45 46  1  0
 25 24  1  0
 26 24  1  0
 26 27  1  0
 28 24  1  0
 29 25  1  0
 30 28  1  0
 31 28  2  0
 29 32  1  0
 33 31  1  0
 24 34  1  1
 35 25  1  0
 36 26  1  0
 48 49  1  0
 49 56  2  0
 50 47  1  0
 51 48  2  0
 52 47  2  0
 53 50  1  0
 54 53  2  0
 55 50  2  0
 56 55  1  0
 57 47  1  0
 58 48  1  0
 49 54  1  0
  3 59  1  6
  6 60  1  1
 10 61  1  0
 10 62  1  0
 11 63  1  0
 11 64  1  0
 12 65  1  0
 12 66  1  0
 15 67  1  0
 16 68  1  0
 16 69  1  0
 17 70  1  0
 18 71  1  0
 18 72  1  0
 19 73  1  0
 21 74  1  0
 21 75  1  0
 21 76  1  0
 23 77  1  0
 23 78  1  0
 23 79  1  0
 26 80  1  1
 29 81  1  6
 33 82  1  0
 33 83  1  0
 34 84  1  0
 34 85  1  0
 35 86  1  0
 35 87  1  0
 38 88  1  0
 39 89  1  0
 39 90  1  0
 40 91  1  0
 41 92  1  0
 41 93  1  0
 42 94  1  0
 44 95  1  0
 44 96  1  0
 44 97  1  0
 46 98  1  0
 46 99  1  0
 46100  1  0
 53101  1  0
 54102  1  0
 55103  1  0
 56104  1  0
 57105  1  0
 58106  1  0
M  END
> <Uni-Dock RESULT> 
ENERGY=   -5.372  LOWER_BOUND=    2.013  UPPER_BOUND=    3.323
INTER + INTRA:          -5.372
INTER:                  -5.372
INTRA:                   0.000
UNBOUND:                 0.000

$$$$

     RDKit          3D

106114  0  0  0  0  0  0  0  0999 V2000
   49.3911   10.0984   20.1755 C   0  0  2  0  0  0  0  0  0  0  0  0
   48.1662    9.1926   19.9973 C   0  0  2  0  0  0  0  0  0  0  0  0
   49.7947   10.4896   21.6027 C   0  0  1  0  0  0  0  0  0  0  0  0
   50.3924   11.8226   21.5194 O   0  0  0  0  0  0  0  0  0  0  0  0
   49.0751   11.4702   19.6905 C   0  0  0  0  0  0  0  0  0  0  0  0
   47.7959    9.2456   18.4729 C   0  0  2  0  0  0  0  0  0  0  0  0
   49.7270   12.4108   20.4650 C   0  0  0  0  0  0  0  0  0  0  0  0
   48.2302   11.7924   18.6476 C   0  0  0  0  0  0  0  0  0  0  0  0
   48.9243    8.5676   17.7583 N   0  0  0  0  0  0  0  0  0  0  0  0
   47.4371   10.6946   17.9877 C   0  0  0  0  0  0  0  0  0  0  0  0
   50.5833    9.5444   19.3583 C   0  0  0  0  0  0  0  0  0  0  0  0
   47.0168    9.5628   20.9404 C   0  0  0  0  0  0  0  0  0  0  0  0
   48.6234   10.5201   22.6031 C   0  0  0  0  0  0  0  0  0  0  0  0
   49.6411   13.7572   20.1692 C   0  0  0  0  0  0  0  0  0  0  0  0
   48.1140   13.1458   18.3384 C   0  0  0  0  0  0  0  0  0  0  0  0
   50.2071    9.2789   17.8900 C   0  0  0  0  0  0  0  0  0  0  0  0
   48.8277   14.1170   19.0818 C   0  0  0  0  0  0  0  0  0  0  0  0
   47.4908    9.5420   22.3894 C   0  0  0  0  0  0  0  0  0  0  0  0
   48.5260    7.8354   20.3310 O   0  0  0  0  0  0  0  0  0  0  0  0
   48.6225   11.2479   23.5991 O   0  0  0  0  0  0  0  0  0  0  0  0
   48.6217    8.2983   16.3531 C   0  0  0  0  0  0  0  0  0  0  0  0
   50.3458   14.6089   20.9659 O   0  0  0  0  0  0  0  0  0  0  0  0
   50.1769   15.9998   20.7348 C   0  0  0  0  0  0  0  0  0  0  0  0
   48.0061   10.8713   18.9779 C   0  0  2  0  0  0  0  0  0  0  0  0
   48.6682    9.9244   17.9692 C   0  0  2  0  0  0  0  0  0  0  0  0
   47.5528   12.2492   18.4791 C   0  0  1  0  0  0  0  0  0  0  0  0
   47.6841   13.1690   19.6097 O   0  0  0  0  0  0  0  0  0  0  0  0
   49.0215   11.3532   19.9545 C   0  0  0  0  0  0  0  0  0  0  0  0
   49.3210    8.7707   18.8098 C   0  0  2  0  0  0  0  0  0  0  0  0
   48.7468   12.6563   20.3227 C   0  0  0  0  0  0  0  0  0  0  0  0
   50.1103   10.6416   20.4169 C   0  0  0  0  0  0  0  0  0  0  0  0
   48.1782    8.0097   19.4087 N   0  0  0  0  0  0  0  0  0  0  0  0
   50.4086    9.2937   19.8133 C   0  0  0  0  0  0  0  0  0  0  0  0
   46.8879   10.1273   19.7475 C   0  0  0  0  0  0  0  0  0  0  0  0
   49.6379   10.6478   17.0292 C   0  0  0  0  0  0  0  0  0  0  0  0
   48.3689   12.7890   17.2889 C   0  0  0  0  0  0  0  0  0  0  0  0
   49.5149   13.3024   21.2717 C   0  0  0  0  0  0  0  0  0  0  0  0
   50.9101   11.2764   21.3648 C   0  0  0  0  0  0  0  0  0  0  0  0
   47.3844    8.8059   20.3596 C   0  0  0  0  0  0  0  0  0  0  0  0
   50.6038   12.5886   21.8002 C   0  0  0  0  0  0  0  0  0  0  0  0
   48.9264   11.7855   16.3053 C   0  0  0  0  0  0  0  0  0  0  0  0
   47.6526    9.3503   17.1195 O   0  0  0  0  0  0  0  0  0  0  0  0
   48.5075   13.9958   17.0746 O   0  0  0  0  0  0  0  0  0  0  0  0
   48.5964    6.7453   20.0126 C   0  0  0  0  0  0  0  0  0  0  0  0
   49.1494   14.5742   21.5973 O   0  0  0  0  0  0  0  0  0  0  0  0
   50.0004   15.2837   22.4858 C   0  0  0  0  0  0  0  0  0  0  0  0
   49.1275    8.2302   18.3346 C   0  0  0  0  0  0  0  0  0  0  0  0
   48.4767   13.3980   20.8225 C   0  0  0  0  0  0  0  0  0  0  0  0
   48.6919   12.0796   20.1780 C   0  0  0  0  0  0  0  0  0  0  0  0
   49.0090    9.5660   18.9681 C   0  0  0  0  0  0  0  0  0  0  0  0
   47.4122   13.8291   21.2244 O   0  0  0  0  0  0  0  0  0  0  0  0
   48.2159    7.4450   18.1526 O   0  0  0  0  0  0  0  0  0  0  0  0
   47.7451    9.9837   19.4044 C   0  0  0  0  0  0  0  0  0  0  0  0
   47.5872   11.2358   20.0067 C   0  0  0  0  0  0  0  0  0  0  0  0
   50.1142   10.4099   19.1382 C   0  0  0  0  0  0  0  0  0  0  0  0
   49.9561   11.6627   19.7413 C   0  0  0  0  0  0  0  0  0  0  0  0
   50.3854    7.9406   17.9583 O   0  0  0  0  0  0  0  0  0  0  0  0
   49.6087   14.1148   20.9335 O   0  0  0  0  0  0  0  0  0  0  0  0
   50.5427    9.8002   22.0116 H   0  0  0  0  0  0  0  0  0  0  0  0
   46.9134    8.6090   18.3211 H   0  0  0  0  0  0  0  0  0  0  0  0
   47.5262   10.7800   16.9003 H   0  0  0  0  0  0  0  0  0  0  0  0
   46.3802   10.8699   18.2280 H   0  0  0  0  0  0  0  0  0  0  0  0
   51.4410   10.2295   19.3814 H   0  0  0  0  0  0  0  0  0  0  0  0
   50.9323    8.6077   19.8125 H   0  0  0  0  0  0  0  0  0  0  0  0
   46.2014    8.8368   20.8339 H   0  0  0  0  0  0  0  0  0  0  0  0
   46.6011   10.5492   20.7076 H   0  0  0  0  0  0  0  0  0  0  0  0
   47.4644   13.4715   17.5288 H   0  0  0  0  0  0  0  0  0  0  0  0
   51.0066    8.6726   17.4464 H   0  0  0  0  0  0  0  0  0  0  0  0
   50.1917   10.2226   17.3312 H   0  0  0  0  0  0  0  0  0  0  0  0
   48.7071   15.1568   18.7927 H   0  0  0  0  0  0  0  0  0  0  0  0
   47.8314    8.5476   22.6955 H   0  0  0  0  0  0  0  0  0  0  0  0
   46.6584    9.8236   23.0440 H   0  0  0  0  0  0  0  0  0  0  0  0
   48.8554    7.4478   19.4901 H   0  0  0  0  0  0  0  0  0  0  0  0
   49.3959    7.6566   15.9173 H   0  0  0  0  0  0  0  0  0  0  0  0
   47.6762    7.7533   16.2573 H   0  0  0  0  0  0  0  0  0  0  0  0
   48.5614    9.2085   15.7483 H   0  0  0  0  0  0  0  0  0  0  0  0
   50.7739   16.5381   21.4773 H   0  0  0  0  0  0  0  0  0  0  0  0
   49.1318   16.2997   20.8664 H   0  0  0  0  0  0  0  0  0  0  0  0
   50.5465   16.2815   19.7434 H   0  0  0  0  0  0  0  0  0  0  0  0
   46.5027   12.2365   18.1641 H   0  0  0  0  0  0  0  0  0  0  0  0
   49.8106    8.0817   18.1079 H   0  0  0  0  0  0  0  0  0  0  0  0
   50.5921    8.5668   20.6104 H   0  0  0  0  0  0  0  0  0  0  0  0
   51.3504    9.3901   19.2571 H   0  0  0  0  0  0  0  0  0  0  0  0
   46.4680   10.7489   20.5490 H   0  0  0  0  0  0  0  0  0  0  0  0
   46.0558    9.9133   19.0637 H   0  0  0  0  0  0  0  0  0  0  0  0
   50.0185    9.9455   16.2773 H   0  0  0  0  0  0  0  0  0  0  0  0
   50.5060   11.0449   17.5664 H   0  0  0  0  0  0  0  0  0  0  0  0
   51.7852   10.7740   21.7717 H   0  0  0  0  0  0  0  0  0  0  0  0
   46.5027    8.2308   20.6690 H   0  0  0  0  0  0  0  0  0  0  0  0
   47.9549    9.0082   21.2743 H   0  0  0  0  0  0  0  0  0  0  0  0
   51.2563   13.0333   22.5459 H   0  0  0  0  0  0  0  0  0  0  0  0
   48.1046   11.4231   15.6791 H   0  0  0  0  0  0  0  0  0  0  0  0
   49.6409   12.2978   15.6512 H   0  0  0  0  0  0  0  0  0  0  0  0
   47.3579    8.5397   17.5905 H   0  0  0  0  0  0  0  0  0  0  0  0
   47.7180    6.1481   20.2822 H   0  0  0  0  0  0  0  0  0  0  0  0
   49.1722    6.1457   19.2994 H   0  0  0  0  0  0  0  0  0  0  0  0
   49.1981    6.8833   20.9165 H   0  0  0  0  0  0  0  0  0  0  0  0
   51.0114   15.3787   22.0753 H   0  0  0  0  0  0  0  0  0  0  0  0
   50.0181   14.8123   23.4742 H   0  0  0  0  0  0  0  0  0  0  0  0
   49.5934   16.2925   22.6054 H   0  0  0  0  0  0  0  0  0  0  0  0
   46.8787    9.3366   19.2773 H   0  0  0  0  0  0  0  0  0  0  0  0
   46.5998   11.5492   20.3418 H   0  0  0  0  0  0  0  0  0  0  0  0
   51.1033   10.1027   18.8057 H   0  0  0  0  0  0  0  0  0  0  0  0
   50.8255   12.3048   19.8651 H   0  0  0  0  0  0  0  0  0  0  0  0
   50.3115    7.0464   17.5632 H   0  0  0  0  0  0  0  0  0  0  0  0
   49.3197   14.9448   21.3681 H   0  0  0  0  0  0  0  0  0  0  0  0
 14  7  2  0
 15  8  1  0
 16 11  1  0
 17 15  2  0
 18 13  1  0
  2 19  1  6
 20 13  2  0
 21  9  1  0
  4  7  1  0
 16  9  1  0
  6 10  1  0
 18 12  1  0
 17 14  1  0
 14 22  1  0
 22 23  1  0
  2  1  1  0
  3  1  1  0
  3  4  1  0
  5  1  1  0
  6  2  1  0
  7  5  1  0
  8  5  2  0
  6  9  1  0
 10  8  1  0
  1 11  1  6
 12  2  1  0
 13  3  1  0
 37 30  2  0
 38 31  1  0
 39 34  1  0
 40 38  2  0
 41 36  1  0
 25 42  1  1
 43 36  2  0
 44 32  1  0
 27 30  1  0
 39 32  1  0
 29 33  1  0
 41 35  1  0
 40 37  1  0
 37 45  1  0
 45 46  1  0
 25 24  1  0
 26 24  1  0
 26 27  1  0
 28 24  1  0
 29 25  1  0
 30 28  1  0
 31 28  2  0
 29 32  1  0
 33 31  1  0
 24 34  1  1
 35 25  1  0
 36 26  1  0
 48 49  1  0
 49 56  2  0
 50 47  1  0
 51 48  2  0
 52 47  2  0
 53 50  1  0
 54 53  2  0
 55 50  2  0
 56 55  1  0
 57 47  1  0
 58 48  1  0
 49 54  1  0
  3 59  1  6
  6 60  1  1
 10 61  1  0
 10 62  1  0
 11 63  1  0
 11 64  1  0
 12 65  1  0
 12 66  1  0
 15 67  1  0
 16 68  1  0
 16 69  1  0
 17 70  1  0
 18 71  1  0
 18 72  1  0
 19 73  1  0
 21 74  1  0
 21 75  1  0
 21 76  1  0
 23 77  1  0
 23 78  1  0
 23 79  1  0
 26 80  1  1
 29 81  1  6
 33 82  1  0
 33 83  1  0
 34 84  1  0
 34 85  1  0
 35 86  1  0
 35 87  1  0
 38 88  1  0
 39 89  1  0
 39 90  1  0
 40 91  1  0
 41 92  1  0
 41 93  1  0
 42 94  1  0
 44 95  1  0
 44 96  1  0
 44 97  1  0
 46 98  1  0
 46 99  1  0
 46100  1  0
 53101  1  0
 54102  1  0
 55103  1  0
 56104  1  0
 57105  1  0
 58106  1  0
M  END
> <Uni-Dock RESULT> 
ENERGY=   -5.260  LOWER_BOUND=    1.541  UPPER_BOUND=    5.304
INTER + INTRA:          -5.260
INTER:                  -5.260
INTRA:                   0.000
UNBOUND:                 0.000

$$$$

     RDKit          3D

106114  0  0  0  0  0  0  0  0999 V2000
   48.1093    9.8513   20.1949 C   0  0  2  0  0  0  0  0  0  0  0  0
   49.0874   10.6840   21.0331 C   0  0  2  0  0  0  0  0  0  0  0  0
   48.0149    8.3476   20.4828 C   0  0  1  0  0  0  0  0  0  0  0  0
   47.6890    7.6969   19.2134 O   0  0  0  0  0  0  0  0  0  0  0  0
   48.6142    9.7404   18.7985 C   0  0  0  0  0  0  0  0  0  0  0  0
   49.2232   12.0688   20.3069 C   0  0  2  0  0  0  0  0  0  0  0  0
   48.2889    8.5051   18.2715 C   0  0  0  0  0  0  0  0  0  0  0  0
   49.3366   10.6968   18.1138 C   0  0  0  0  0  0  0  0  0  0  0  0
   47.8866   12.7309   20.4443 N   0  0  0  0  0  0  0  0  0  0  0  0
   49.7847   11.9339   18.8474 C   0  0  0  0  0  0  0  0  0  0  0  0
   46.7199   10.5333   20.1687 C   0  0  0  0  0  0  0  0  0  0  0  0
   50.4179    9.9638   21.2751 C   0  0  0  0  0  0  0  0  0  0  0  0
   49.3078    7.7323   21.0516 C   0  0  0  0  0  0  0  0  0  0  0  0
   48.5949    8.1887   16.9623 C   0  0  0  0  0  0  0  0  0  0  0  0
   49.6713   10.3957   16.7954 C   0  0  0  0  0  0  0  0  0  0  0  0
   46.8067   12.0110   19.7483 C   0  0  0  0  0  0  0  0  0  0  0  0
   49.2875    9.1599   16.2204 C   0  0  0  0  0  0  0  0  0  0  0  0
   50.1766    8.6066   21.9267 C   0  0  0  0  0  0  0  0  0  0  0  0
   48.5199   10.9098   22.3407 O   0  0  0  0  0  0  0  0  0  0  0  0
   49.6060    6.5471   20.8842 O   0  0  0  0  0  0  0  0  0  0  0  0
   47.9109   14.1388   20.0494 C   0  0  0  0  0  0  0  0  0  0  0  0
   48.2042    6.9611   16.5180 O   0  0  0  0  0  0  0  0  0  0  0  0
   48.6094    6.5879   15.2091 C   0  0  0  0  0  0  0  0  0  0  0  0
   49.4207   10.8666   19.0996 C   0  0  2  0  0  0  0  0  0  0  0  0
   48.4369   12.0086   19.3831 C   0  0  2  0  0  0  0  0  0  0  0  0
   50.0575   10.7963   17.7059 C   0  0  1  0  0  0  0  0  0  0  0  0
   50.2865    9.3795   17.4200 O   0  0  0  0  0  0  0  0  0  0  0  0
   48.6831    9.5749   19.0311 C   0  0  0  0  0  0  0  0  0  0  0  0
   47.7039   11.6380   20.7206 C   0  0  2  0  0  0  0  0  0  0  0  0
   49.2648    8.7439   18.0930 C   0  0  0  0  0  0  0  0  0  0  0  0
   47.5583    9.2386   19.7573 C   0  0  0  0  0  0  0  0  0  0  0  0
   48.7501   11.7133   21.7898 N   0  0  0  0  0  0  0  0  0  0  0  0
   46.9087   10.2884   20.6211 C   0  0  0  0  0  0  0  0  0  0  0  0
   50.4726   10.7806   20.2319 C   0  0  0  0  0  0  0  0  0  0  0  0
   47.4985   12.2855   18.2040 C   0  0  0  0  0  0  0  0  0  0  0  0
   49.1930   11.4063   16.5859 C   0  0  0  0  0  0  0  0  0  0  0  0
   48.7952    7.4603   17.8937 C   0  0  0  0  0  0  0  0  0  0  0  0
   47.0555    7.9537   19.5641 C   0  0  0  0  0  0  0  0  0  0  0  0
   49.8226   10.7177   21.6251 C   0  0  0  0  0  0  0  0  0  0  0  0
   47.6799    7.0675   18.6530 C   0  0  0  0  0  0  0  0  0  0  0  0
   48.3030   12.5753   16.9418 C   0  0  0  0  0  0  0  0  0  0  0  0
   49.1757   13.2307   19.5921 O   0  0  0  0  0  0  0  0  0  0  0  0
   49.2663   11.0293   15.4137 O   0  0  0  0  0  0  0  0  0  0  0  0
   48.1860   11.6503   23.1374 C   0  0  0  0  0  0  0  0  0  0  0  0
   49.4520    6.7007   16.9725 O   0  0  0  0  0  0  0  0  0  0  0  0
   48.9055    5.4228   16.6805 C   0  0  0  0  0  0  0  0  0  0  0  0
   47.7108   12.3327   20.9901 C   0  0  0  0  0  0  0  0  0  0  0  0
   49.7504    8.0448   17.7078 C   0  0  0  0  0  0  0  0  0  0  0  0
   49.1810    9.1360   18.5354 C   0  0  0  0  0  0  0  0  0  0  0  0
   48.1884   11.2213   20.1319 C   0  0  0  0  0  0  0  0  0  0  0  0
   50.9282    7.7485   17.6323 O   0  0  0  0  0  0  0  0  0  0  0  0
   48.4091   13.0442   21.6879 O   0  0  0  0  0  0  0  0  0  0  0  0
   49.5618   10.9464   20.1054 C   0  0  0  0  0  0  0  0  0  0  0  0
   50.0561    9.9080   19.3100 C   0  0  0  0  0  0  0  0  0  0  0  0
   47.3127   10.4502   19.3567 C   0  0  0  0  0  0  0  0  0  0  0  0
   47.8075    9.4108   18.5609 C   0  0  0  0  0  0  0  0  0  0  0  0
   46.3781   12.5004   20.9334 O   0  0  0  0  0  0  0  0  0  0  0  0
   48.8144    7.3749   17.0131 O   0  0  0  0  0  0  0  0  0  0  0  0
   47.2161    8.1257   21.2003 H   0  0  0  0  0  0  0  0  0  0  0  0
   49.9274   12.6821   20.8858 H   0  0  0  0  0  0  0  0  0  0  0  0
   49.5492   12.8204   18.2505 H   0  0  0  0  0  0  0  0  0  0  0  0
   50.8795   11.8888   18.9188 H   0  0  0  0  0  0  0  0  0  0  0  0
   46.0297   10.0161   19.4892 H   0  0  0  0  0  0  0  0  0  0  0  0
   46.2651   10.4719   21.1661 H   0  0  0  0  0  0  0  0  0  0  0  0
   51.0463   10.5618   21.9466 H   0  0  0  0  0  0  0  0  0  0  0  0
   50.9811    9.8264   20.3457 H   0  0  0  0  0  0  0  0  0  0  0  0
   50.2411   11.1035   16.1970 H   0  0  0  0  0  0  0  0  0  0  0  0
   45.8442   12.4812   19.9855 H   0  0  0  0  0  0  0  0  0  0  0  0
   46.9240   12.0843   18.6602 H   0  0  0  0  0  0  0  0  0  0  0  0
   49.5671    8.9806   15.1865 H   0  0  0  0  0  0  0  0  0  0  0  0
   49.6958    8.7011   22.9057 H   0  0  0  0  0  0  0  0  0  0  0  0
   51.1386    8.1038   22.0767 H   0  0  0  0  0  0  0  0  0  0  0  0
   47.9952   11.7357   22.2487 H   0  0  0  0  0  0  0  0  0  0  0  0
   46.9671   14.6235   20.3239 H   0  0  0  0  0  0  0  0  0  0  0  0
   48.7029   14.6774   20.5811 H   0  0  0  0  0  0  0  0  0  0  0  0
   48.0580   14.2770   18.9737 H   0  0  0  0  0  0  0  0  0  0  0  0
   48.2522    5.5700   15.0250 H   0  0  0  0  0  0  0  0  0  0  0  0
   49.7008    6.5797   15.1190 H   0  0  0  0  0  0  0  0  0  0  0  0
   48.1561    7.2407   14.4559 H   0  0  0  0  0  0  0  0  0  0  0  0
   51.0232   11.3147   17.6793 H   0  0  0  0  0  0  0  0  0  0  0  0
   46.9854   12.4394   20.9410 H   0  0  0  0  0  0  0  0  0  0  0  0
   46.7084    9.8744   21.6140 H   0  0  0  0  0  0  0  0  0  0  0  0
   45.9313   10.5144   20.1750 H   0  0  0  0  0  0  0  0  0  0  0  0
   51.1255    9.9064   20.1101 H   0  0  0  0  0  0  0  0  0  0  0  0
   51.1308   11.6582   20.1847 H   0  0  0  0  0  0  0  0  0  0  0  0
   46.8752   13.1611   18.4241 H   0  0  0  0  0  0  0  0  0  0  0  0
   46.8195   11.4463   18.0181 H   0  0  0  0  0  0  0  0  0  0  0  0
   46.1707    7.6222   20.1034 H   0  0  0  0  0  0  0  0  0  0  0  0
   50.6088   10.9032   22.3676 H   0  0  0  0  0  0  0  0  0  0  0  0
   49.4505    9.7043   21.8191 H   0  0  0  0  0  0  0  0  0  0  0  0
   47.2509    6.0754   18.5464 H   0  0  0  0  0  0  0  0  0  0  0  0
   48.9305   13.4659   17.0504 H   0  0  0  0  0  0  0  0  0  0  0  0
   47.6134   12.7550   16.1093 H   0  0  0  0  0  0  0  0  0  0  0  0
   49.3715   13.2458   20.5550 H   0  0  0  0  0  0  0  0  0  0  0  0
   48.9585   11.8793   23.8802 H   0  0  0  0  0  0  0  0  0  0  0  0
   47.4001   12.4025   23.2652 H   0  0  0  0  0  0  0  0  0  0  0  0
   47.7693   10.6675   23.3794 H   0  0  0  0  0  0  0  0  0  0  0  0
   47.8830    5.5072   16.2970 H   0  0  0  0  0  0  0  0  0  0  0  0
   48.9457    4.7680   17.5575 H   0  0  0  0  0  0  0  0  0  0  0  0
   49.5186    4.9675   15.8967 H   0  0  0  0  0  0  0  0  0  0  0  0
   50.2521   11.5391   20.7034 H   0  0  0  0  0  0  0  0  0  0  0  0
   51.1255    9.7040   19.2978 H   0  0  0  0  0  0  0  0  0  0  0  0
   46.2433   10.6489   19.3644 H   0  0  0  0  0  0  0  0  0  0  0  0
   47.1128    8.8225   17.9654 H   0  0  0  0  0  0  0  0  0  0  0  0
   46.2111   13.2542   21.5376 H   0  0  0  0  0  0  0  0  0  0  0  0
   49.3259    6.6978   16.5220 H   0  0  0  0  0  0  0  0  0  0  0  0
 14  7  2  0
 15  8  1  0
 16 11  1  0
 17 15  2  0
 18 13  1  0
  2 19  1  6
 20 13  2  0
 21  9  1  0
  4  7  1  0
 16  9  1  0
  6 10  1  0
 18 12  1  0
 17 14  1  0
 14 22  1  0
 22 23  1  0
  2  1  1  0
  3  1  1  0
  3  4  1  0
  5  1  1  0
  6  2  1  0
  7  5  1  0
  8  5  2  0
  6  9  1  0
 10  8  1  0
  1 11  1  6
 12  2  1  0
 13  3  1  0
 37 30  2  0
 38 31  1  0
 39 34  1  0
 40 38  2  0
 41 36  1  0
 25 42  1  1
 43 36  2  0
 44 32  1  0
 27 30  1  0
 39 32  1  0
 29 33  1  0
 41 35  1  0
 40 37  1  0
 37 45  1  0
 45 46  1  0
 25 24  1  0
 26 24  1  0
 26 27  1  0
 28 24  1  0
 29 25  1  0
 30 28  1  0
 31 28  2  0
 29 32  1  0
 33 31  1  0
 24 34  1  1
 35 25  1  0
 36 26  1  0
 48 49  1  0
 49 56  2  0
 50 47  1  0
 51 48  2  0
 52 47  2  0
 53 50  1  0
 54 53  2  0
 55 50  2  0
 56 55  1  0
 57 47  1  0
 58 48  1  0
 49 54  1  0
  3 59  1  6
  6 60  1  1
 10 61  1  0
 10 62  1  0
 11 63  1  0
 11 64  1  0
 12 65  1  0
 12 66  1  0
 15 67  1  0
 16 68  1  0
 16 69  1  0
 17 70  1  0
 18 71  1  0
 18 72  1  0
 19 73  1  0
 21 74  1  0
 21 75  1  0
 21 76  1  0
 23 77  1  0
 23 78  1  0
 23 79  1  0
 26 80  1  1
 29 81  1  6
 33 82  1  0
 33 83  1  0
 34 84  1  0
 34 85  1  0
 35 86  1  0
 35 87  1  0
 38 88  1  0
 39 89  1  0
 39 90  1  0
 40 91  1  0
 41 92  1  0
 41 93  1  0
 42 94  1  0
 44 95  1  0
 44 96  1  0
 44 97  1  0
 46 98  1  0
 46 99  1  0
 46100  1  0
 53101  1  0
 54102  1  0
 55103  1  0
 56104  1  0
 57105  1  0
 58106  1  0
M  END
> <Uni-Dock RESULT> 
ENERGY=   -5.226  LOWER_BOUND=    1.075  UPPER_BOUND=    3.607
INTER + INTRA:          -5.226
INTER:                  -5.226
INTRA:                   0.000
UNBOUND:                 0.000

$$$$
