
     RDKit          3D

106114  0  0  0  0  0  0  0  0999 V2000
   48.5172   12.1829   20.8662 C   0  0  2  0  0  0  0  0  0  0  0  0
   49.1125   10.8396   21.2981 C   0  0  2  0  0  0  0  0  0  0  0  0
   46.9867   12.3104   20.7901 C   0  0  1  0  0  0  0  0  0  0  0  0
   46.6936   13.2780   19.7380 O   0  0  0  0  0  0  0  0  0  0  0  0
   48.7656   12.3829   19.4020 C   0  0  0  0  0  0  0  0  0  0  0  0
   50.6322   10.9123   20.8997 C   0  0  2  0  0  0  0  0  0  0  0  0
   47.7125   13.0734   18.8294 C   0  0  0  0  0  0  0  0  0  0  0  0
   49.8425   11.9112   18.6737 C   0  0  0  0  0  0  0  0  0  0  0  0
   51.3497   12.1038   21.4349 N   0  0  0  0  0  0  0  0  0  0  0  0
   50.8205   10.9789   19.3451 C   0  0  0  0  0  0  0  0  0  0  0  0
   49.1575   13.3675   21.6319 C   0  0  0  0  0  0  0  0  0  0  0  0
   48.3646    9.6512   20.6632 C   0  0  0  0  0  0  0  0  0  0  0  0
   46.2559   10.9857   20.4826 C   0  0  0  0  0  0  0  0  0  0  0  0
   47.7314   13.4350   17.4948 C   0  0  0  0  0  0  0  0  0  0  0  0
   49.8809   12.2484   17.3212 C   0  0  0  0  0  0  0  0  0  0  0  0
   50.5770   13.1006   22.1653 C   0  0  0  0  0  0  0  0  0  0  0  0
   48.8449   13.0207   16.7439 C   0  0  0  0  0  0  0  0  0  0  0  0
   46.8757    9.7077   21.0006 C   0  0  0  0  0  0  0  0  0  0  0  0
   48.9568   10.5970   22.7064 O   0  0  0  0  0  0  0  0  0  0  0  0
   45.1655   10.9490   19.9067 O   0  0  0  0  0  0  0  0  0  0  0  0
   52.5848   11.7474   22.1290 C   0  0  0  0  0  0  0  0  0  0  0  0
   46.6631   14.1461   17.0341 O   0  0  0  0  0  0  0  0  0  0  0  0
   46.6812   14.5199   15.6612 C   0  0  0  0  0  0  0  0  0  0  0  0
   49.1964   10.9062   19.9851 C   0  0  2  0  0  0  0  0  0  0  0  0
   47.8959   10.7022   19.1985 C   0  0  2  0  0  0  0  0  0  0  0  0
   49.2954   10.2726   21.3771 C   0  0  1  0  0  0  0  0  0  0  0  0
   50.1661   11.1382   22.1727 O   0  0  0  0  0  0  0  0  0  0  0  0
   49.3104   12.3260   20.4227 C   0  0  0  0  0  0  0  0  0  0  0  0
   47.9460   11.7156   18.0000 C   0  0  2  0  0  0  0  0  0  0  0  0
   49.9368   12.3955   21.6542 C   0  0  0  0  0  0  0  0  0  0  0  0
   48.8557   13.4271   19.7263 C   0  0  0  0  0  0  0  0  0  0  0  0
   49.0490   11.2284   17.1071 N   0  0  0  0  0  0  0  0  0  0  0  0
   48.0370   13.2127   18.4783 C   0  0  0  0  0  0  0  0  0  0  0  0
   50.4161   10.5567   19.0946 C   0  0  0  0  0  0  0  0  0  0  0  0
   46.6482   10.8197   20.0756 C   0  0  0  0  0  0  0  0  0  0  0  0
   47.9379   10.1164   22.0935 C   0  0  0  0  0  0  0  0  0  0  0  0
   50.2293   13.6161   22.2300 C   0  0  0  0  0  0  0  0  0  0  0  0
   49.1212   14.6701   20.2975 C   0  0  0  0  0  0  0  0  0  0  0  0
   50.3741   11.2986   17.7453 C   0  0  0  0  0  0  0  0  0  0  0  0
   49.8165   14.7629   21.5300 C   0  0  0  0  0  0  0  0  0  0  0  0
   46.7201    9.8405   21.2412 C   0  0  0  0  0  0  0  0  0  0  0  0
   47.8715    9.3606   18.6637 O   0  0  0  0  0  0  0  0  0  0  0  0
   47.8322   10.1172   23.3226 O   0  0  0  0  0  0  0  0  0  0  0  0
   49.0701   11.9032   15.8085 C   0  0  0  0  0  0  0  0  0  0  0  0
   50.8713   13.5981   23.4324 O   0  0  0  0  0  0  0  0  0  0  0  0
   51.0772   14.8458   24.0782 C   0  0  0  0  0  0  0  0  0  0  0  0
   48.3564   10.9468   17.3426 C   0  0  0  0  0  0  0  0  0  0  0  0
   49.5558   13.1053   22.5651 C   0  0  0  0  0  0  0  0  0  0  0  0
   49.2661   12.5662   21.2143 C   0  0  0  0  0  0  0  0  0  0  0  0
   48.6447   11.4878   18.6944 C   0  0  0  0  0  0  0  0  0  0  0  0
   49.2713   12.5698   23.6192 O   0  0  0  0  0  0  0  0  0  0  0  0
   48.6332   11.4851   16.2878 O   0  0  0  0  0  0  0  0  0  0  0  0
   48.3077   10.7902   19.8624 C   0  0  0  0  0  0  0  0  0  0  0  0
   48.6165   11.3281   21.1156 C   0  0  0  0  0  0  0  0  0  0  0  0
   49.2905   12.7285   18.7920 C   0  0  0  0  0  0  0  0  0  0  0  0
   49.6107   13.2600   20.0464 C   0  0  0  0  0  0  0  0  0  0  0  0
   47.7419    9.7506   17.3804 O   0  0  0  0  0  0  0  0  0  0  0  0
   50.1686   14.3024   22.5300 O   0  0  0  0  0  0  0  0  0  0  0  0
   46.5605   12.6858   21.7281 H   0  0  0  0  0  0  0  0  0  0  0  0
   51.1167    9.9996   21.2699 H   0  0  0  0  0  0  0  0  0  0  0  0
   51.8495   11.2716   19.0954 H   0  0  0  0  0  0  0  0  0  0  0  0
   50.6651    9.9717   18.9322 H   0  0  0  0  0  0  0  0  0  0  0  0
   49.1864   14.2690   21.0055 H   0  0  0  0  0  0  0  0  0  0  0  0
   48.5266   13.6295   22.4914 H   0  0  0  0  0  0  0  0  0  0  0  0
   48.7688    8.7098   21.0500 H   0  0  0  0  0  0  0  0  0  0  0  0
   48.4750    9.6189   19.5764 H   0  0  0  0  0  0  0  0  0  0  0  0
   50.6978   11.9026   16.6896 H   0  0  0  0  0  0  0  0  0  0  0  0
   51.1251   14.0538   22.1438 H   0  0  0  0  0  0  0  0  0  0  0  0
   50.5169   12.8389   23.2298 H   0  0  0  0  0  0  0  0  0  0  0  0
   48.9310   13.2582   15.6866 H   0  0  0  0  0  0  0  0  0  0  0  0
   46.3702    8.8582   20.5284 H   0  0  0  0  0  0  0  0  0  0  0  0
   46.6990    9.6475   22.0799 H   0  0  0  0  0  0  0  0  0  0  0  0
   49.2716   11.3667   23.2222 H   0  0  0  0  0  0  0  0  0  0  0  0
   52.3829   11.1511   23.0267 H   0  0  0  0  0  0  0  0  0  0  0  0
   53.2422   11.1704   21.4672 H   0  0  0  0  0  0  0  0  0  0  0  0
   53.1460   12.6407   22.4287 H   0  0  0  0  0  0  0  0  0  0  0  0
   45.7848   15.1145   15.4671 H   0  0  0  0  0  0  0  0  0  0  0  0
   46.6455   13.6396   15.0075 H   0  0  0  0  0  0  0  0  0  0  0  0
   47.5477   15.1499   15.4323 H   0  0  0  0  0  0  0  0  0  0  0  0
   49.7468    9.2728   21.3337 H   0  0  0  0  0  0  0  0  0  0  0  0
   47.0185   11.6007   17.4225 H   0  0  0  0  0  0  0  0  0  0  0  0
   48.4118   13.8647   17.6827 H   0  0  0  0  0  0  0  0  0  0  0  0
   47.0145   13.5524   18.7012 H   0  0  0  0  0  0  0  0  0  0  0  0
   50.4397    9.4726   18.9063 H   0  0  0  0  0  0  0  0  0  0  0  0
   51.3637   10.7977   19.5961 H   0  0  0  0  0  0  0  0  0  0  0  0
   46.5138   11.8363   20.4571 H   0  0  0  0  0  0  0  0  0  0  0  0
   45.7587   10.5815   19.4837 H   0  0  0  0  0  0  0  0  0  0  0  0
   48.7911   15.5813   19.8046 H   0  0  0  0  0  0  0  0  0  0  0  0
   51.1233   10.8370   17.0901 H   0  0  0  0  0  0  0  0  0  0  0  0
   50.6854   12.3426   17.8791 H   0  0  0  0  0  0  0  0  0  0  0  0
   50.0090   15.7569   21.9242 H   0  0  0  0  0  0  0  0  0  0  0  0
   46.7639    8.7997   20.9007 H   0  0  0  0  0  0  0  0  0  0  0  0
   45.8246    9.9521   21.8649 H   0  0  0  0  0  0  0  0  0  0  0  0
   48.3131    9.4307   17.7882 H   0  0  0  0  0  0  0  0  0  0  0  0
   49.3057   12.9691   15.8867 H   0  0  0  0  0  0  0  0  0  0  0  0
   48.1053   11.7937   15.2994 H   0  0  0  0  0  0  0  0  0  0  0  0
   49.8205   11.4398   15.1562 H   0  0  0  0  0  0  0  0  0  0  0  0
   50.1297   15.3677   24.2462 H   0  0  0  0  0  0  0  0  0  0  0  0
   51.5242   14.6473   25.0564 H   0  0  0  0  0  0  0  0  0  0  0  0
   51.7758   15.4681   23.5100 H   0  0  0  0  0  0  0  0  0  0  0  0
   47.7944    9.8339   19.8097 H   0  0  0  0  0  0  0  0  0  0  0  0
   48.3522   10.7765   22.0162 H   0  0  0  0  0  0  0  0  0  0  0  0
   49.5543   13.2777   17.8893 H   0  0  0  0  0  0  0  0  0  0  0  0
   50.1119   14.2229   20.0982 H   0  0  0  0  0  0  0  0  0  0  0  0
   47.6229    9.5182   16.4373 H   0  0  0  0  0  0  0  0  0  0  0  0
   50.2733   14.5386   23.4737 H   0  0  0  0  0  0  0  0  0  0  0  0
 14  7  2  0
 15  8  1  0
 16 11  1  0
 17 15  2  0
 18 13  1  0
  2 19  1  6
 20 13  2  0
 21  9  1  0
  4  7  1  0
 16  9  1  0
  6 10  1  0
 18 12  1  0
 17 14  1  0
 14 22  1  0
 22 23  1  0
  2  1  1  0
  3  1  1  0
  3  4  1  0
  5  1  1  0
  6  2  1  0
  7  5  1  0
  8  5  2  0
  6  9  1  0
 10  8  1  0
  1 11  1  6
 12  2  1  0
 13  3  1  0
 37 30  2  0
 38 31  1  0
 39 34  1  0
 40 38  2  0
 41 36  1  0
 25 42  1  1
 43 36  2  0
 44 32  1  0
 27 30  1  0
 39 32  1  0
 29 33  1  0
 41 35  1  0
 40 37  1  0
 37 45  1  0
 45 46  1  0
 25 24  1  0
 26 24  1  0
 26 27  1  0
 28 24  1  0
 29 25  1  0
 30 28  1  0
 31 28  2  0
 29 32  1  0
 33 31  1  0
 24 34  1  1
 35 25  1  0
 36 26  1  0
 48 49  1  0
 49 56  2  0
 50 47  1  0
 51 48  2  0
 52 47  2  0
 53 50  1  0
 54 53  2  0
 55 50  2  0
 56 55  1  0
 57 47  1  0
 58 48  1  0
 49 54  1  0
  3 59  1  6
  6 60  1  1
 10 61  1  0
 10 62  1  0
 11 63  1  0
 11 64  1  0
 12 65  1  0
 12 66  1  0
 15 67  1  0
 16 68  1  0
 16 69  1  0
 17 70  1  0
 18 71  1  0
 18 72  1  0
 19 73  1  0
 21 74  1  0
 21 75  1  0
 21 76  1  0
 23 77  1  0
 23 78  1  0
 23 79  1  0
 26 80  1  1
 29 81  1  6
 33 82  1  0
 33 83  1  0
 34 84  1  0
 34 85  1  0
 35 86  1  0
 35 87  1  0
 38 88  1  0
 39 89  1  0
 39 90  1  0
 40 91  1  0
 41 92  1  0
 41 93  1  0
 42 94  1  0
 44 95  1  0
 44 96  1  0
 44 97  1  0
 46 98  1  0
 46 99  1  0
 46100  1  0
 53101  1  0
 54102  1  0
 55103  1  0
 56104  1  0
 57105  1  0
 58106  1  0
M  END
> <Uni-Dock RESULT> 
ENERGY=   -6.059  LOWER_BOUND=    0.000  UPPER_BOUND=    0.000
INTER + INTRA:          -6.059
INTER:                  -6.059
INTRA:                   0.000
UNBOUND:                 0.000

$$$$

     RDKit          3D

106114  0  0  0  0  0  0  0  0999 V2000
   49.9520    5.5609   17.3355 C   0  0  2  0  0  0  0  0  0  0  0  0
   48.4513    5.8542   17.2491 C   0  0  2  0  0  0  0  0  0  0  0  0
   50.4201    4.1054   17.1713 C   0  0  1  0  0  0  0  0  0  0  0  0
   51.6299    3.9561   17.9732 O   0  0  0  0  0  0  0  0  0  0  0  0
   50.4016    5.7122   18.7570 C   0  0  0  0  0  0  0  0  0  0  0  0
   48.2776    7.3029   17.8360 C   0  0  2  0  0  0  0  0  0  0  0  0
   51.4090    4.8068   19.0376 C   0  0  0  0  0  0  0  0  0  0  0  0
   49.8752    6.5717   19.7040 C   0  0  0  0  0  0  0  0  0  0  0  0
   49.1437    8.3320   17.1942 N   0  0  0  0  0  0  0  0  0  0  0  0
   48.6323    7.3557   19.3617 C   0  0  0  0  0  0  0  0  0  0  0  0
   50.7788    6.5352   16.4601 C   0  0  0  0  0  0  0  0  0  0  0  0
   47.6161    4.7872   17.9829 C   0  0  0  0  0  0  0  0  0  0  0  0
   49.3814    3.0527   17.6145 C   0  0  0  0  0  0  0  0  0  0  0  0
   52.0345    4.7872   20.2709 C   0  0  0  0  0  0  0  0  0  0  0  0
   50.4768    6.5634   20.9618 C   0  0  0  0  0  0  0  0  0  0  0  0
   50.1042    7.8927   16.1901 C   0  0  0  0  0  0  0  0  0  0  0  0
   51.5597    5.6937   21.2343 C   0  0  0  0  0  0  0  0  0  0  0  0
   47.9194    3.3935   17.4355 C   0  0  0  0  0  0  0  0  0  0  0  0
   47.9531    5.7770   15.9029 O   0  0  0  0  0  0  0  0  0  0  0  0
   49.7048    1.9365   18.0286 O   0  0  0  0  0  0  0  0  0  0  0  0
   48.3893    9.5048   16.7586 C   0  0  0  0  0  0  0  0  0  0  0  0
   53.0410    3.8824   20.4368 O   0  0  0  0  0  0  0  0  0  0  0  0
   53.6864    3.8615   21.7048 C   0  0  0  0  0  0  0  0  0  0  0  0
   48.7771    5.8287   18.5253 C   0  0  2  0  0  0  0  0  0  0  0  0
   49.0315    4.4496   19.1459 C   0  0  2  0  0  0  0  0  0  0  0  0
   47.8548    5.9023   17.3034 C   0  0  1  0  0  0  0  0  0  0  0  0
   48.3216    7.0256   16.4906 O   0  0  0  0  0  0  0  0  0  0  0  0
   50.0117    6.3202   17.8513 C   0  0  0  0  0  0  0  0  0  0  0  0
   50.2421    4.6293   20.1298 C   0  0  2  0  0  0  0  0  0  0  0  0
   49.6798    7.0572   16.7286 C   0  0  0  0  0  0  0  0  0  0  0  0
   51.3077    6.0800   18.2598 C   0  0  0  0  0  0  0  0  0  0  0  0
   49.7303    5.4949   21.2434 N   0  0  0  0  0  0  0  0  0  0  0  0
   51.5467    5.1210   19.3986 C   0  0  0  0  0  0  0  0  0  0  0  0
   48.3709    6.8403   19.6273 C   0  0  0  0  0  0  0  0  0  0  0  0
   49.2254    3.3541   18.0962 C   0  0  0  0  0  0  0  0  0  0  0  0
   47.8461    4.6199   16.4456 C   0  0  0  0  0  0  0  0  0  0  0  0
   50.6566    7.6863   15.9824 C   0  0  0  0  0  0  0  0  0  0  0  0
   52.3127    6.6881   17.5102 C   0  0  0  0  0  0  0  0  0  0  0  0
   49.3749    6.8517   20.7953 C   0  0  0  0  0  0  0  0  0  0  0  0
   51.9879    7.4973   16.3918 C   0  0  0  0  0  0  0  0  0  0  0  0
   48.0281    3.2975   17.1551 C   0  0  0  0  0  0  0  0  0  0  0  0
   47.8727    4.0544   19.9124 O   0  0  0  0  0  0  0  0  0  0  0  0
   47.6072    4.6328   15.2353 O   0  0  0  0  0  0  0  0  0  0  0  0
   50.6460    5.5559   22.3836 C   0  0  0  0  0  0  0  0  0  0  0  0
   50.2442    8.4147   14.9065 O   0  0  0  0  0  0  0  0  0  0  0  0
   51.2506    8.9732   14.0749 C   0  0  0  0  0  0  0  0  0  0  0  0
   49.5613    4.7801   20.9697 C   0  0  0  0  0  0  0  0  0  0  0  0
   50.2439    6.9443   15.6572 C   0  0  0  0  0  0  0  0  0  0  0  0
   50.0812    6.4089   17.0306 C   0  0  0  0  0  0  0  0  0  0  0  0
   49.7259    5.3146   19.5948 C   0  0  0  0  0  0  0  0  0  0  0  0
   49.5700    6.6393   14.6920 O   0  0  0  0  0  0  0  0  0  0  0  0
   50.2397    5.0782   21.9340 O   0  0  0  0  0  0  0  0  0  0  0  0
   48.8846    4.9306   18.5416 C   0  0  0  0  0  0  0  0  0  0  0  0
   49.0628    5.4751   17.2661 C   0  0  0  0  0  0  0  0  0  0  0  0
   50.7478    6.2454   19.3595 C   0  0  0  0  0  0  0  0  0  0  0  0
   50.9171    6.7994   18.0855 C   0  0  0  0  0  0  0  0  0  0  0  0
   48.5462    3.9029   21.0695 O   0  0  0  0  0  0  0  0  0  0  0  0
   51.2596    7.8203   15.5544 O   0  0  0  0  0  0  0  0  0  0  0  0
   50.6695    3.8711   16.1295 H   0  0  0  0  0  0  0  0  0  0  0  0
   47.2244    7.5868   17.7138 H   0  0  0  0  0  0  0  0  0  0  0  0
   48.7424    8.3970   19.6942 H   0  0  0  0  0  0  0  0  0  0  0  0
   47.7944    6.9254   19.9290 H   0  0  0  0  0  0  0  0  0  0  0  0
   51.7654    6.7210   16.9055 H   0  0  0  0  0  0  0  0  0  0  0  0
   50.9812    6.0686   15.4870 H   0  0  0  0  0  0  0  0  0  0  0  0
   46.5492    4.9880   17.8386 H   0  0  0  0  0  0  0  0  0  0  0  0
   47.7935    4.7846   19.0612 H   0  0  0  0  0  0  0  0  0  0  0  0
   50.1059    7.2109   21.7549 H   0  0  0  0  0  0  0  0  0  0  0  0
   50.8987    8.6489   16.1103 H   0  0  0  0  0  0  0  0  0  0  0  0
   49.6406    7.8712   15.1951 H   0  0  0  0  0  0  0  0  0  0  0  0
   51.9931    5.7352   22.2303 H   0  0  0  0  0  0  0  0  0  0  0  0
   47.3199    2.6572   17.9821 H   0  0  0  0  0  0  0  0  0  0  0  0
   47.6696    3.3090   16.3724 H   0  0  0  0  0  0  0  0  0  0  0  0
   48.5083    6.3139   15.3021 H   0  0  0  0  0  0  0  0  0  0  0  0
   47.6729    9.2505   15.9684 H   0  0  0  0  0  0  0  0  0  0  0  0
   47.8389    9.9399   17.6018 H   0  0  0  0  0  0  0  0  0  0  0  0
   49.0552   10.2894   16.3796 H   0  0  0  0  0  0  0  0  0  0  0  0
   54.4879    3.1198   21.6572 H   0  0  0  0  0  0  0  0  0  0  0  0
   52.9950    3.5548   22.4994 H   0  0  0  0  0  0  0  0  0  0  0  0
   54.1485    4.8285   21.9316 H   0  0  0  0  0  0  0  0  0  0  0  0
   46.8140    6.0947   17.5950 H   0  0  0  0  0  0  0  0  0  0  0  0
   50.4561    3.6516   20.5828 H   0  0  0  0  0  0  0  0  0  0  0  0
   52.2569    5.5653   20.1035 H   0  0  0  0  0  0  0  0  0  0  0  0
   52.0435    4.2352   18.9753 H   0  0  0  0  0  0  0  0  0  0  0  0
   47.3731    6.5855   20.0155 H   0  0  0  0  0  0  0  0  0  0  0  0
   48.2889    7.8606   19.2275 H   0  0  0  0  0  0  0  0  0  0  0  0
   50.1416    3.5037   17.5171 H   0  0  0  0  0  0  0  0  0  0  0  0
   49.3169    2.3821   18.5915 H   0  0  0  0  0  0  0  0  0  0  0  0
   53.3575    6.5416   17.7736 H   0  0  0  0  0  0  0  0  0  0  0  0
   48.9133    7.4038   21.6235 H   0  0  0  0  0  0  0  0  0  0  0  0
   50.2738    7.4155   20.5145 H   0  0  0  0  0  0  0  0  0  0  0  0
   52.8092    7.9585   15.8504 H   0  0  0  0  0  0  0  0  0  0  0  0
   47.0997    3.0583   17.6862 H   0  0  0  0  0  0  0  0  0  0  0  0
   48.1946    2.5171   16.4023 H   0  0  0  0  0  0  0  0  0  0  0  0
   48.0310    4.4161   20.8125 H   0  0  0  0  0  0  0  0  0  0  0  0
   51.5941    6.0466   22.1420 H   0  0  0  0  0  0  0  0  0  0  0  0
   50.8587    4.5499   22.7638 H   0  0  0  0  0  0  0  0  0  0  0  0
   50.1818    6.1090   23.2094 H   0  0  0  0  0  0  0  0  0  0  0  0
   51.9166    8.1985   13.6816 H   0  0  0  0  0  0  0  0  0  0  0  0
   50.7561    9.4488   13.2233 H   0  0  0  0  0  0  0  0  0  0  0  0
   51.8140    9.7445   14.6096 H   0  0  0  0  0  0  0  0  0  0  0  0
   48.0955    4.2003   18.6990 H   0  0  0  0  0  0  0  0  0  0  0  0
   48.4020    5.1714   16.4559 H   0  0  0  0  0  0  0  0  0  0  0  0
   51.4068    6.5478   20.1720 H   0  0  0  0  0  0  0  0  0  0  0  0
   51.7153    7.5195   17.9261 H   0  0  0  0  0  0  0  0  0  0  0  0
   48.5519    3.6441   22.0133 H   0  0  0  0  0  0  0  0  0  0  0  0
   51.2606    8.0662   14.6073 H   0  0  0  0  0  0  0  0  0  0  0  0
 14  7  2  0
 15  8  1  0
 16 11  1  0
 17 15  2  0
 18 13  1  0
  2 19  1  6
 20 13  2  0
 21  9  1  0
  4  7  1  0
 16  9  1  0
  6 10  1  0
 18 12  1  0
 17 14  1  0
 14 22  1  0
 22 23  1  0
  2  1  1  0
  3  1  1  0
  3  4  1  0
  5  1  1  0
  6  2  1  0
  7  5  1  0
  8  5  2  0
  6  9  1  0
 10  8  1  0
  1 11  1  6
 12  2  1  0
 13  3  1  0
 37 30  2  0
 38 31  1  0
 39 34  1  0
 40 38  2  0
 41 36  1  0
 25 42  1  1
 43 36  2  0
 44 32  1  0
 27 30  1  0
 39 32  1  0
 29 33  1  0
 41 35  1  0
 40 37  1  0
 37 45  1  0
 45 46  1  0
 25 24  1  0
 26 24  1  0
 26 27  1  0
 28 24  1  0
 29 25  1  0
 30 28  1  0
 31 28  2  0
 29 32  1  0
 33 31  1  0
 24 34  1  1
 35 25  1  0
 36 26  1  0
 48 49  1  0
 49 56  2  0
 50 47  1  0
 51 48  2  0
 52 47  2  0
 53 50  1  0
 54 53  2  0
 55 50  2  0
 56 55  1  0
 57 47  1  0
 58 48  1  0
 49 54  1  0
  3 59  1  6
  6 60  1  1
 10 61  1  0
 10 62  1  0
 11 63  1  0
 11 64  1  0
 12 65  1  0
 12 66  1  0
 15 67  1  0
 16 68  1  0
 16 69  1  0
 17 70  1  0
 18 71  1  0
 18 72  1  0
 19 73  1  0
 21 74  1  0
 21 75  1  0
 21 76  1  0
 23 77  1  0
 23 78  1  0
 23 79  1  0
 26 80  1  1
 29 81  1  6
 33 82  1  0
 33 83  1  0
 34 84  1  0
 34 85  1  0
 35 86  1  0
 35 87  1  0
 38 88  1  0
 39 89  1  0
 39 90  1  0
 40 91  1  0
 41 92  1  0
 41 93  1  0
 42 94  1  0
 44 95  1  0
 44 96  1  0
 44 97  1  0
 46 98  1  0
 46 99  1  0
 46100  1  0
 53101  1  0
 54102  1  0
 55103  1  0
 56104  1  0
 57105  1  0
 58106  1  0
M  END
> <Uni-Dock RESULT> 
ENERGY=   -6.044  LOWER_BOUND=    5.185  UPPER_BOUND=    8.136
INTER + INTRA:          -6.044
INTER:                  -6.044
INTRA:                   0.000
UNBOUND:                 0.000

$$$$

     RDKit          3D

106114  0  0  0  0  0  0  0  0999 V2000
   50.1781    6.9987   18.9451 C   0  0  2  0  0  0  0  0  0  0  0  0
   49.9554    6.8710   20.4549 C   0  0  2  0  0  0  0  0  0  0  0  0
   49.4599    8.1335   18.1964 C   0  0  1  0  0  0  0  0  0  0  0  0
   49.2079    7.6546   16.8413 O   0  0  0  0  0  0  0  0  0  0  0  0
   49.4715    5.8765   18.2471 C   0  0  0  0  0  0  0  0  0  0  0  0
   50.4800    5.4370   20.8316 C   0  0  2  0  0  0  0  0  0  0  0  0
   48.9964    6.3022   17.0196 C   0  0  0  0  0  0  0  0  0  0  0  0
   49.2472    4.6050   18.7425 C   0  0  0  0  0  0  0  0  0  0  0  0
   51.8760    5.1597   20.3900 N   0  0  0  0  0  0  0  0  0  0  0  0
   49.6072    4.3112   20.1780 C   0  0  0  0  0  0  0  0  0  0  0  0
   51.6814    6.9263   18.5783 C   0  0  0  0  0  0  0  0  0  0  0  0
   48.4820    7.1092   20.8385 C   0  0  0  0  0  0  0  0  0  0  0  0
   48.1258    8.5706   18.8390 C   0  0  0  0  0  0  0  0  0  0  0  0
   48.3569    5.4321   16.1557 C   0  0  0  0  0  0  0  0  0  0  0  0
   48.5914    3.7097   17.8984 C   0  0  0  0  0  0  0  0  0  0  0  0
   52.5588    6.1715   19.5937 C   0  0  0  0  0  0  0  0  0  0  0  0
   48.1697    4.1152   16.6096 C   0  0  0  0  0  0  0  0  0  0  0  0
   48.0091    8.4749   20.3433 C   0  0  0  0  0  0  0  0  0  0  0  0
   50.6459    7.8881   21.2000 O   0  0  0  0  0  0  0  0  0  0  0  0
   47.2022    9.0574   18.1819 O   0  0  0  0  0  0  0  0  0  0  0  0
   52.7149    4.6533   21.4736 C   0  0  0  0  0  0  0  0  0  0  0  0
   47.9587    5.9389   14.9541 O   0  0  0  0  0  0  0  0  0  0  0  0
   47.3014    5.0448   14.0633 C   0  0  0  0  0  0  0  0  0  0  0  0
   49.1878    5.9780   19.8644 C   0  0  2  0  0  0  0  0  0  0  0  0
   47.9274    6.5036   19.1665 C   0  0  2  0  0  0  0  0  0  0  0  0
   49.7615    6.8054   21.0199 C   0  0  1  0  0  0  0  0  0  0  0  0
   51.2082    6.5880   21.0157 O   0  0  0  0  0  0  0  0  0  0  0  0
   50.3618    6.0973   18.9546 C   0  0  0  0  0  0  0  0  0  0  0  0
   47.7749    5.6640   17.8483 C   0  0  2  0  0  0  0  0  0  0  0  0
   51.5024    6.3811   19.6842 C   0  0  0  0  0  0  0  0  0  0  0  0
   50.3396    5.9610   17.5816 C   0  0  0  0  0  0  0  0  0  0  0  0
   47.4479    4.2695   18.2952 N   0  0  0  0  0  0  0  0  0  0  0  0
   49.0096    5.8230   16.8846 C   0  0  0  0  0  0  0  0  0  0  0  0
   49.0002    4.4879   20.2478 C   0  0  0  0  0  0  0  0  0  0  0  0
   47.9561    8.0180   18.9532 C   0  0  0  0  0  0  0  0  0  0  0  0
   49.4718    8.3171   20.9135 C   0  0  0  0  0  0  0  0  0  0  0  0
   52.7351    6.4579   19.0667 C   0  0  0  0  0  0  0  0  0  0  0  0
   51.5694    6.0548   16.9332 C   0  0  0  0  0  0  0  0  0  0  0  0
   48.5457    3.6379   19.0463 C   0  0  0  0  0  0  0  0  0  0  0  0
   52.7578    6.2846   17.6720 C   0  0  0  0  0  0  0  0  0  0  0  0
   48.1669    8.7405   20.2784 C   0  0  0  0  0  0  0  0  0  0  0  0
   46.7803    6.2499   20.0069 O   0  0  0  0  0  0  0  0  0  0  0  0
   50.2144    9.1712   21.4046 O   0  0  0  0  0  0  0  0  0  0  0  0
   47.0172    3.4055   17.1951 C   0  0  0  0  0  0  0  0  0  0  0  0
   53.8129    6.7153   19.8606 O   0  0  0  0  0  0  0  0  0  0  0  0
   55.0647    6.9022   19.2169 C   0  0  0  0  0  0  0  0  0  0  0  0
   47.0973    4.9687   18.3475 C   0  0  0  0  0  0  0  0  0  0  0  0
   52.3232    7.2156   19.3547 C   0  0  0  0  0  0  0  0  0  0  0  0
   50.9928    6.6176   19.0868 C   0  0  0  0  0  0  0  0  0  0  0  0
   48.4288    5.5682   18.6135 C   0  0  0  0  0  0  0  0  0  0  0  0
   52.5499    8.1240   20.1307 O   0  0  0  0  0  0  0  0  0  0  0  0
   46.8680    4.0657   17.5656 O   0  0  0  0  0  0  0  0  0  0  0  0
   48.6081    6.5966   19.5488 C   0  0  0  0  0  0  0  0  0  0  0  0
   49.8840    7.1185   19.7829 C   0  0  0  0  0  0  0  0  0  0  0  0
   49.5365    5.0694   17.9135 C   0  0  0  0  0  0  0  0  0  0  0  0
   50.8150    5.5835   18.1578 C   0  0  0  0  0  0  0  0  0  0  0  0
   46.1185    5.5261   19.0829 O   0  0  0  0  0  0  0  0  0  0  0  0
   53.3033    6.6610   18.6190 O   0  0  0  0  0  0  0  0  0  0  0  0
   50.0791    9.0360   18.1303 H   0  0  0  0  0  0  0  0  0  0  0  0
   50.4171    5.3364   21.9228 H   0  0  0  0  0  0  0  0  0  0  0  0
   50.1188    3.3414   20.2453 H   0  0  0  0  0  0  0  0  0  0  0  0
   48.6720    4.2201   20.7491 H   0  0  0  0  0  0  0  0  0  0  0  0
   51.8220    6.4678   17.5904 H   0  0  0  0  0  0  0  0  0  0  0  0
   52.0837    7.9439   18.4877 H   0  0  0  0  0  0  0  0  0  0  0  0
   48.3739    7.0828   21.9279 H   0  0  0  0  0  0  0  0  0  0  0  0
   47.8151    6.3424   20.4367 H   0  0  0  0  0  0  0  0  0  0  0  0
   48.3773    2.6948   18.2300 H   0  0  0  0  0  0  0  0  0  0  0  0
   53.3728    5.6873   19.0348 H   0  0  0  0  0  0  0  0  0  0  0  0
   53.0628    6.8992   20.2432 H   0  0  0  0  0  0  0  0  0  0  0  0
   47.6688    3.3730   15.9932 H   0  0  0  0  0  0  0  0  0  0  0  0
   46.9582    8.6110   20.6212 H   0  0  0  0  0  0  0  0  0  0  0  0
   48.5844    9.2930   20.7900 H   0  0  0  0  0  0  0  0  0  0  0  0
   51.5852    7.9312   20.9291 H   0  0  0  0  0  0  0  0  0  0  0  0
   52.8451    5.4021   22.2639 H   0  0  0  0  0  0  0  0  0  0  0  0
   52.2676    3.7542   21.9149 H   0  0  0  0  0  0  0  0  0  0  0  0
   53.7073    4.3634   21.1078 H   0  0  0  0  0  0  0  0  0  0  0  0
   47.0903    5.5910   13.1404 H   0  0  0  0  0  0  0  0  0  0  0  0
   46.3437    4.7035   14.4753 H   0  0  0  0  0  0  0  0  0  0  0  0
   47.9459    4.1983   13.8025 H   0  0  0  0  0  0  0  0  0  0  0  0
   49.3642    6.4748   21.9885 H   0  0  0  0  0  0  0  0  0  0  0  0
   46.8834    6.0270   17.3189 H   0  0  0  0  0  0  0  0  0  0  0  0
   49.0621    5.0014   16.1631 H   0  0  0  0  0  0  0  0  0  0  0  0
   48.8563    6.7412   16.2980 H   0  0  0  0  0  0  0  0  0  0  0  0
   48.2517    4.4025   21.0502 H   0  0  0  0  0  0  0  0  0  0  0  0
   49.9267    4.0555   20.6506 H   0  0  0  0  0  0  0  0  0  0  0  0
   48.7357    8.3140   18.2448 H   0  0  0  0  0  0  0  0  0  0  0  0
   47.0012    8.3483   18.5321 H   0  0  0  0  0  0  0  0  0  0  0  0
   51.6272    5.9586   15.8516 H   0  0  0  0  0  0  0  0  0  0  0  0
   48.2152    2.6663   19.4341 H   0  0  0  0  0  0  0  0  0  0  0  0
   49.3982    3.4308   18.3868 H   0  0  0  0  0  0  0  0  0  0  0  0
   53.6912    6.3357   17.1183 H   0  0  0  0  0  0  0  0  0  0  0  0
   47.3555    8.5418   20.9877 H   0  0  0  0  0  0  0  0  0  0  0  0
   48.1998    9.8226   20.1007 H   0  0  0  0  0  0  0  0  0  0  0  0
   46.4711    5.3538   19.7469 H   0  0  0  0  0  0  0  0  0  0  0  0
   47.8100    3.2213   16.4634 H   0  0  0  0  0  0  0  0  0  0  0  0
   46.1549    3.8402   16.6760 H   0  0  0  0  0  0  0  0  0  0  0  0
   46.6882    2.4348   17.5861 H   0  0  0  0  0  0  0  0  0  0  0  0
   55.0198    7.7189   18.4894 H   0  0  0  0  0  0  0  0  0  0  0  0
   55.7967    7.1789   19.9809 H   0  0  0  0  0  0  0  0  0  0  0  0
   55.4040    5.9733   18.7476 H   0  0  0  0  0  0  0  0  0  0  0  0
   47.7613    7.0073   20.0920 H   0  0  0  0  0  0  0  0  0  0  0  0
   50.0121    7.9156   20.5133 H   0  0  0  0  0  0  0  0  0  0  0  0
   49.4054    4.2715   17.1839 H   0  0  0  0  0  0  0  0  0  0  0  0
   51.6591    5.1813   17.6040 H   0  0  0  0  0  0  0  0  0  0  0  0
   45.3149    5.0371   18.8130 H   0  0  0  0  0  0  0  0  0  0  0  0
   54.1026    7.1614   18.8802 H   0  0  0  0  0  0  0  0  0  0  0  0
 14  7  2  0
 15  8  1  0
 16 11  1  0
 17 15  2  0
 18 13  1  0
  2 19  1  6
 20 13  2  0
 21  9  1  0
  4  7  1  0
 16  9  1  0
  6 10  1  0
 18 12  1  0
 17 14  1  0
 14 22  1  0
 22 23  1  0
  2  1  1  0
  3  1  1  0
  3  4  1  0
  5  1  1  0
  6  2  1  0
  7  5  1  0
  8  5  2  0
  6  9  1  0
 10  8  1  0
  1 11  1  6
 12  2  1  0
 13  3  1  0
 37 30  2  0
 38 31  1  0
 39 34  1  0
 40 38  2  0
 41 36  1  0
 25 42  1  1
 43 36  2  0
 44 32  1  0
 27 30  1  0
 39 32  1  0
 29 33  1  0
 41 35  1  0
 40 37  1  0
 37 45  1  0
 45 46  1  0
 25 24  1  0
 26 24  1  0
 26 27  1  0
 28 24  1  0
 29 25  1  0
 30 28  1  0
 31 28  2  0
 29 32  1  0
 33 31  1  0
 24 34  1  1
 35 25  1  0
 36 26  1  0
 48 49  1  0
 49 56  2  0
 50 47  1  0
 51 48  2  0
 52 47  2  0
 53 50  1  0
 54 53  2  0
 55 50  2  0
 56 55  1  0
 57 47  1  0
 58 48  1  0
 49 54  1  0
  3 59  1  6
  6 60  1  1
 10 61  1  0
 10 62  1  0
 11 63  1  0
 11 64  1  0
 12 65  1  0
 12 66  1  0
 15 67  1  0
 16 68  1  0
 16 69  1  0
 17 70  1  0
 18 71  1  0
 18 72  1  0
 19 73  1  0
 21 74  1  0
 21 75  1  0
 21 76  1  0
 23 77  1  0
 23 78  1  0
 23 79  1  0
 26 80  1  1
 29 81  1  6
 33 82  1  0
 33 83  1  0
 34 84  1  0
 34 85  1  0
 35 86  1  0
 35 87  1  0
 38 88  1  0
 39 89  1  0
 39 90  1  0
 40 91  1  0
 41 92  1  0
 41 93  1  0
 42 94  1  0
 44 95  1  0
 44 96  1  0
 44 97  1  0
 46 98  1  0
 46 99  1  0
 46100  1  0
 53101  1  0
 54102  1  0
 55103  1  0
 56104  1  0
 57105  1  0
 58106  1  0
M  END
> <Uni-Dock RESULT> 
ENERGY=   -5.800  LOWER_BOUND=    4.714  UPPER_BOUND=    6.651
INTER + INTRA:          -5.800
INTER:                  -5.800
INTRA:                   0.000
UNBOUND:                 0.000

$$$$

     RDKit          3D

106114  0  0  0  0  0  0  0  0999 V2000
   45.0090   13.3138    9.9213 C   0  0  2  0  0  0  0  0  0  0  0  0
   43.8258   12.8400   10.7703 C   0  0  2  0  0  0  0  0  0  0  0  0
   45.0414   14.7845    9.4736 C   0  0  1  0  0  0  0  0  0  0  0  0
   45.7360   14.8221    8.1909 O   0  0  0  0  0  0  0  0  0  0  0  0
   44.8912   12.7321    8.5453 C   0  0  0  0  0  0  0  0  0  0  0  0
   43.8827   11.2691   10.7206 C   0  0  2  0  0  0  0  0  0  0  0  0
   45.3851   13.6212    7.6076 C   0  0  0  0  0  0  0  0  0  0  0  0
   44.3230   11.5177    8.2065 C   0  0  0  0  0  0  0  0  0  0  0  0
   45.1968   10.6905   11.1194 N   0  0  0  0  0  0  0  0  0  0  0  0
   43.6119   10.7255    9.2758 C   0  0  0  0  0  0  0  0  0  0  0  0
   46.3638   12.8638   10.5225 C   0  0  0  0  0  0  0  0  0  0  0  0
   42.4910   13.4250   10.2695 C   0  0  0  0  0  0  0  0  0  0  0  0
   43.6473   15.4294    9.3177 C   0  0  0  0  0  0  0  0  0  0  0  0
   45.4421   13.2923    6.2656 C   0  0  0  0  0  0  0  0  0  0  0  0
   44.3532   11.1656    6.8576 C   0  0  0  0  0  0  0  0  0  0  0  0
   46.2917   11.6075   11.4098 C   0  0  0  0  0  0  0  0  0  0  0  0
   44.9266   12.0367    5.9007 C   0  0  0  0  0  0  0  0  0  0  0  0
   42.5480   14.9514   10.2390 C   0  0  0  0  0  0  0  0  0  0  0  0
   43.8943   13.3188   12.1240 O   0  0  0  0  0  0  0  0  0  0  0  0
   43.4304   16.3568    8.5335 O   0  0  0  0  0  0  0  0  0  0  0  0
   45.0643    9.6513   12.1376 C   0  0  0  0  0  0  0  0  0  0  0  0
   45.9801   14.2220    5.4258 O   0  0  0  0  0  0  0  0  0  0  0  0
   46.0404   13.8848    4.0446 C   0  0  0  0  0  0  0  0  0  0  0  0
   43.6035   12.4539    9.5305 C   0  0  2  0  0  0  0  0  0  0  0  0
   43.1667   13.5376    8.5372 C   0  0  2  0  0  0  0  0  0  0  0  0
   43.3002   12.6826   11.0153 C   0  0  1  0  0  0  0  0  0  0  0  0
   44.3622   12.0165   11.7695 O   0  0  0  0  0  0  0  0  0  0  0  0
   45.0889   12.4390    9.6484 C   0  0  0  0  0  0  0  0  0  0  0  0
   43.8902   13.2072    7.1833 C   0  0  2  0  0  0  0  0  0  0  0  0
   45.4604   12.1147   10.9409 C   0  0  0  0  0  0  0  0  0  0  0  0
   45.9845   12.7156    8.6357 C   0  0  0  0  0  0  0  0  0  0  0  0
   43.2716   11.9292    6.6981 N   0  0  0  0  0  0  0  0  0  0  0  0
   45.4587   13.2237    7.3169 C   0  0  0  0  0  0  0  0  0  0  0  0
   43.1254   11.0625    9.0427 C   0  0  0  0  0  0  0  0  0  0  0  0
   43.4146   14.9540    9.0587 C   0  0  0  0  0  0  0  0  0  0  0  0
   43.2405   14.1697   11.4218 C   0  0  0  0  0  0  0  0  0  0  0  0
   46.7911   11.9588   11.2753 C   0  0  0  0  0  0  0  0  0  0  0  0
   47.3346   12.5848    8.9545 C   0  0  0  0  0  0  0  0  0  0  0  0
   43.5465   10.7878    7.5868 C   0  0  0  0  0  0  0  0  0  0  0  0
   47.7325   12.1937   10.2583 C   0  0  0  0  0  0  0  0  0  0  0  0
   42.7231   15.1579   10.4014 C   0  0  0  0  0  0  0  0  0  0  0  0
   41.7404   13.4425    8.3299 O   0  0  0  0  0  0  0  0  0  0  0  0
   43.5087   14.5573   12.5619 O   0  0  0  0  0  0  0  0  0  0  0  0
   43.6418   11.6052    5.3196 C   0  0  0  0  0  0  0  0  0  0  0  0
   47.0718   11.6129   12.5636 O   0  0  0  0  0  0  0  0  0  0  0  0
   48.4402   11.5574   12.9386 C   0  0  0  0  0  0  0  0  0  0  0  0
   43.0157   12.6586    6.8283 C   0  0  0  0  0  0  0  0  0  0  0  0
   46.3351   12.6936   11.5562 C   0  0  0  0  0  0  0  0  0  0  0  0
   45.4962   12.6645   10.3335 C   0  0  0  0  0  0  0  0  0  0  0  0
   43.8566   12.6893    8.0510 C   0  0  0  0  0  0  0  0  0  0  0  0
   46.0334   13.2167   12.6117 O   0  0  0  0  0  0  0  0  0  0  0  0
   43.3196   12.1429    5.7695 O   0  0  0  0  0  0  0  0  0  0  0  0
   43.4199   13.2904    9.2393 C   0  0  0  0  0  0  0  0  0  0  0  0
   44.2367   13.2783   10.3741 C   0  0  0  0  0  0  0  0  0  0  0  0
   45.1181   12.0788    8.0079 C   0  0  0  0  0  0  0  0  0  0  0  0
   45.9296   12.0559    9.1478 C   0  0  0  0  0  0  0  0  0  0  0  0
   41.8292   13.2698    6.9965 O   0  0  0  0  0  0  0  0  0  0  0  0
   47.5230   12.0847   11.3898 O   0  0  0  0  0  0  0  0  0  0  0  0
   45.5941   15.4151   10.1802 H   0  0  0  0  0  0  0  0  0  0  0  0
   43.0997   10.8871   11.3883 H   0  0  0  0  0  0  0  0  0  0  0  0
   43.8919    9.6655    9.2058 H   0  0  0  0  0  0  0  0  0  0  0  0
   42.5318   10.7849    9.0782 H   0  0  0  0  0  0  0  0  0  0  0  0
   47.1043   12.6870    9.7310 H   0  0  0  0  0  0  0  0  0  0  0  0
   46.7788   13.6757   11.1342 H   0  0  0  0  0  0  0  0  0  0  0  0
   41.6798   13.1251   10.9412 H   0  0  0  0  0  0  0  0  0  0  0  0
   42.2239   13.0660    9.2725 H   0  0  0  0  0  0  0  0  0  0  0  0
   43.9164   10.2259    6.5230 H   0  0  0  0  0  0  0  0  0  0  0  0
   47.2421   11.0657   11.2971 H   0  0  0  0  0  0  0  0  0  0  0  0
   46.2702   11.9137   12.4640 H   0  0  0  0  0  0  0  0  0  0  0  0
   44.9275   11.7070    4.8649 H   0  0  0  0  0  0  0  0  0  0  0  0
   41.5912   15.3370    9.8702 H   0  0  0  0  0  0  0  0  0  0  0  0
   42.7201   15.3736   11.2349 H   0  0  0  0  0  0  0  0  0  0  0  0
   44.7737   13.1290   12.5090 H   0  0  0  0  0  0  0  0  0  0  0  0
   44.6727   10.0580   13.0776 H   0  0  0  0  0  0  0  0  0  0  0  0
   44.3877    8.8606   11.7907 H   0  0  0  0  0  0  0  0  0  0  0  0
   46.0281    9.1713   12.3456 H   0  0  0  0  0  0  0  0  0  0  0  0
   46.5325   14.7095    3.5227 H   0  0  0  0  0  0  0  0  0  0  0  0
   45.0365   13.7715    3.6174 H   0  0  0  0  0  0  0  0  0  0  0  0
   46.6456   12.9865    3.8810 H   0  0  0  0  0  0  0  0  0  0  0  0
   42.3390   12.2373   11.3036 H   0  0  0  0  0  0  0  0  0  0  0  0
   43.6048   13.9760    6.4523 H   0  0  0  0  0  0  0  0  0  0  0  0
   45.9355   12.6722    6.5001 H   0  0  0  0  0  0  0  0  0  0  0  0
   45.7889   14.2687    7.2193 H   0  0  0  0  0  0  0  0  0  0  0  0
   42.0290   11.0001    9.1160 H   0  0  0  0  0  0  0  0  0  0  0  0
   43.5177   10.2559    9.6776 H   0  0  0  0  0  0  0  0  0  0  0  0
   44.4827   15.1692    9.1587 H   0  0  0  0  0  0  0  0  0  0  0  0
   43.0078   15.6831    8.3507 H   0  0  0  0  0  0  0  0  0  0  0  0
   48.0965   12.7883    8.2059 H   0  0  0  0  0  0  0  0  0  0  0  0
   42.9883    9.9090    7.2407 H   0  0  0  0  0  0  0  0  0  0  0  0
   44.6081   10.5119    7.5469 H   0  0  0  0  0  0  0  0  0  0  0  0
   48.7973   12.0939   10.4495 H   0  0  0  0  0  0  0  0  0  0  0  0
   41.6361   15.0405   10.3252 H   0  0  0  0  0  0  0  0  0  0  0  0
   42.9262   16.1732   10.7640 H   0  0  0  0  0  0  0  0  0  0  0  0
   41.6360   12.8099    7.5848 H   0  0  0  0  0  0  0  0  0  0  0  0
   44.7087   11.3900    5.2049 H   0  0  0  0  0  0  0  0  0  0  0  0
   43.3750   12.4262    4.6437 H   0  0  0  0  0  0  0  0  0  0  0  0
   43.0825   10.7258    4.9770 H   0  0  0  0  0  0  0  0  0  0  0  0
   48.9393   12.5160   12.7645 H   0  0  0  0  0  0  0  0  0  0  0  0
   48.4858   11.3501   14.0114 H   0  0  0  0  0  0  0  0  0  0  0  0
   48.9543   10.7438   12.4172 H   0  0  0  0  0  0  0  0  0  0  0  0
   42.4517   13.7812    9.2904 H   0  0  0  0  0  0  0  0  0  0  0  0
   43.8864   13.7462   11.2926 H   0  0  0  0  0  0  0  0  0  0  0  0
   45.4656   11.6109    7.0879 H   0  0  0  0  0  0  0  0  0  0  0  0
   46.9034   11.5767    9.0917 H   0  0  0  0  0  0  0  0  0  0  0  0
   41.3878   13.1679    6.1290 H   0  0  0  0  0  0  0  0  0  0  0  0
   47.9676   12.2006   12.2537 H   0  0  0  0  0  0  0  0  0  0  0  0
 14  7  2  0
 15  8  1  0
 16 11  1  0
 17 15  2  0
 18 13  1  0
  2 19  1  6
 20 13  2  0
 21  9  1  0
  4  7  1  0
 16  9  1  0
  6 10  1  0
 18 12  1  0
 17 14  1  0
 14 22  1  0
 22 23  1  0
  2  1  1  0
  3  1  1  0
  3  4  1  0
  5  1  1  0
  6  2  1  0
  7  5  1  0
  8  5  2  0
  6  9  1  0
 10  8  1  0
  1 11  1  6
 12  2  1  0
 13  3  1  0
 37 30  2  0
 38 31  1  0
 39 34  1  0
 40 38  2  0
 41 36  1  0
 25 42  1  1
 43 36  2  0
 44 32  1  0
 27 30  1  0
 39 32  1  0
 29 33  1  0
 41 35  1  0
 40 37  1  0
 37 45  1  0
 45 46  1  0
 25 24  1  0
 26 24  1  0
 26 27  1  0
 28 24  1  0
 29 25  1  0
 30 28  1  0
 31 28  2  0
 29 32  1  0
 33 31  1  0
 24 34  1  1
 35 25  1  0
 36 26  1  0
 48 49  1  0
 49 56  2  0
 50 47  1  0
 51 48  2  0
 52 47  2  0
 53 50  1  0
 54 53  2  0
 55 50  2  0
 56 55  1  0
 57 47  1  0
 58 48  1  0
 49 54  1  0
  3 59  1  6
  6 60  1  1
 10 61  1  0
 10 62  1  0
 11 63  1  0
 11 64  1  0
 12 65  1  0
 12 66  1  0
 15 67  1  0
 16 68  1  0
 16 69  1  0
 17 70  1  0
 18 71  1  0
 18 72  1  0
 19 73  1  0
 21 74  1  0
 21 75  1  0
 21 76  1  0
 23 77  1  0
 23 78  1  0
 23 79  1  0
 26 80  1  1
 29 81  1  6
 33 82  1  0
 33 83  1  0
 34 84  1  0
 34 85  1  0
 35 86  1  0
 35 87  1  0
 38 88  1  0
 39 89  1  0
 39 90  1  0
 40 91  1  0
 41 92  1  0
 41 93  1  0
 42 94  1  0
 44 95  1  0
 44 96  1  0
 44 97  1  0
 46 98  1  0
 46 99  1  0
 46100  1  0
 53101  1  0
 54102  1  0
 55103  1  0
 56104  1  0
 57105  1  0
 58106  1  0
M  END
> <Uni-Dock RESULT> 
ENERGY=   -5.440  LOWER_BOUND=    7.900  UPPER_BOUND=   11.920
INTER + INTRA:          -5.440
INTER:                  -5.440
INTRA:                   0.000
UNBOUND:                 0.000

$$$$

     RDKit          3D

106114  0  0  0  0  0  0  0  0999 V2000
   49.6484   11.9072   20.1731 C   0  0  2  0  0  0  0  0  0  0  0  0
   48.7439   13.0635   20.6094 C   0  0  2  0  0  0  0  0  0  0  0  0
   49.4236   11.2916   18.7821 C   0  0  1  0  0  0  0  0  0  0  0  0
   49.8029    9.8857   18.8742 O   0  0  0  0  0  0  0  0  0  0  0  0
   49.2853   10.6785   20.9504 C   0  0  0  0  0  0  0  0  0  0  0  0
   48.9536   13.1904   22.1629 C   0  0  2  0  0  0  0  0  0  0  0  0
   49.4582    9.5507   20.1683 C   0  0  0  0  0  0  0  0  0  0  0  0
   48.7867   10.6326   22.2395 C   0  0  0  0  0  0  0  0  0  0  0  0
   50.3774   13.3320   22.5796 N   0  0  0  0  0  0  0  0  0  0  0  0
   48.4227   11.9272   22.9237 C   0  0  0  0  0  0  0  0  0  0  0  0
   51.1436   12.2188   20.4314 C   0  0  0  0  0  0  0  0  0  0  0  0
   47.2765   12.8278   20.2022 C   0  0  0  0  0  0  0  0  0  0  0  0
   47.9702   11.3952   18.2716 C   0  0  0  0  0  0  0  0  0  0  0  0
   49.2454    8.2831   20.6782 C   0  0  0  0  0  0  0  0  0  0  0  0
   48.5488    9.3674   22.7753 C   0  0  0  0  0  0  0  0  0  0  0  0
   51.4065   13.2418   21.5516 C   0  0  0  0  0  0  0  0  0  0  0  0
   48.7963    8.2043   22.0077 C   0  0  0  0  0  0  0  0  0  0  0  0
   47.1639   12.6018   18.6955 C   0  0  0  0  0  0  0  0  0  0  0  0
   49.0652   14.2947   19.9405 O   0  0  0  0  0  0  0  0  0  0  0  0
   47.4854   10.5797   17.4831 O   0  0  0  0  0  0  0  0  0  0  0  0
   50.5883   14.4695   23.4716 C   0  0  0  0  0  0  0  0  0  0  0  0
   49.4789    7.2342   19.8388 O   0  0  0  0  0  0  0  0  0  0  0  0
   49.2613    5.9289   20.3622 C   0  0  0  0  0  0  0  0  0  0  0  0
   48.2897   11.9675   21.1822 C   0  0  2  0  0  0  0  0  0  0  0  0
   47.5283   10.9839   20.2852 C   0  0  2  0  0  0  0  0  0  0  0  0
   48.3068   13.4435   20.7694 C   0  0  1  0  0  0  0  0  0  0  0  0
   49.5758   13.9980   21.2411 O   0  0  0  0  0  0  0  0  0  0  0  0
   49.7565   11.7300   21.0694 C   0  0  0  0  0  0  0  0  0  0  0  0
   47.9584    9.5465   20.7485 C   0  0  2  0  0  0  0  0  0  0  0  0
   50.4421   12.9266   21.1793 C   0  0  0  0  0  0  0  0  0  0  0  0
   50.3662   10.5079   20.8724 C   0  0  0  0  0  0  0  0  0  0  0  0
   47.3847    9.3790   22.1248 N   0  0  0  0  0  0  0  0  0  0  0  0
   49.5059    9.3007   20.5963 C   0  0  0  0  0  0  0  0  0  0  0  0
   47.8634   11.7778   22.6603 C   0  0  0  0  0  0  0  0  0  0  0  0
   47.7366   11.2579   18.7948 C   0  0  0  0  0  0  0  0  0  0  0  0
   48.1838   13.6712   19.2484 C   0  0  0  0  0  0  0  0  0  0  0  0
   51.8228   12.9514   21.1865 C   0  0  0  0  0  0  0  0  0  0  0  0
   51.7595   10.5101   20.8557 C   0  0  0  0  0  0  0  0  0  0  0  0
   47.9718   10.3072   23.1055 C   0  0  0  0  0  0  0  0  0  0  0  0
   52.4802   11.7193   21.0280 C   0  0  0  0  0  0  0  0  0  0  0  0
   47.3482   12.6920   18.4556 C   0  0  0  0  0  0  0  0  0  0  0  0
   46.1101   11.1344   20.5148 O   0  0  0  0  0  0  0  0  0  0  0  0
   48.6599   14.6600   18.6848 O   0  0  0  0  0  0  0  0  0  0  0  0
   47.4664    8.0012   22.6116 C   0  0  0  0  0  0  0  0  0  0  0  0
   52.4217   14.1681   21.3252 O   0  0  0  0  0  0  0  0  0  0  0  0
   53.8374   14.2110   21.2248 C   0  0  0  0  0  0  0  0  0  0  0  0
   47.0893    9.4779   21.4054 C   0  0  0  0  0  0  0  0  0  0  0  0
   51.3669   13.2424   20.4556 C   0  0  0  0  0  0  0  0  0  0  0  0
   50.2818   12.2666   20.7195 C   0  0  0  0  0  0  0  0  0  0  0  0
   48.1763   10.4530   21.1398 C   0  0  0  0  0  0  0  0  0  0  0  0
   51.2577   14.2688   19.8127 O   0  0  0  0  0  0  0  0  0  0  0  0
   47.1991    8.4470   22.0414 O   0  0  0  0  0  0  0  0  0  0  0  0
   47.9579   11.6302   20.4112 C   0  0  0  0  0  0  0  0  0  0  0  0
   49.0064   12.5314   20.2019 C   0  0  0  0  0  0  0  0  0  0  0  0
   49.4527   10.1849   21.6543 C   0  0  0  0  0  0  0  0  0  0  0  0
   50.4982   11.0937   21.4554 C   0  0  0  0  0  0  0  0  0  0  0  0
   45.9136    9.8487   20.8670 O   0  0  0  0  0  0  0  0  0  0  0  0
   52.5441   12.8728   20.9915 O   0  0  0  0  0  0  0  0  0  0  0  0
   50.0518   11.7658   18.0187 H   0  0  0  0  0  0  0  0  0  0  0  0
   48.3862   14.0659   22.5042 H   0  0  0  0  0  0  0  0  0  0  0  0
   48.7900   11.9204   23.9590 H   0  0  0  0  0  0  0  0  0  0  0  0
   47.3258   11.9863   22.9736 H   0  0  0  0  0  0  0  0  0  0  0  0
   51.7009   11.3010   20.6624 H   0  0  0  0  0  0  0  0  0  0  0  0
   51.5978   12.6124   19.5126 H   0  0  0  0  0  0  0  0  0  0  0  0
   46.6741   13.7040   20.4640 H   0  0  0  0  0  0  0  0  0  0  0  0
   46.8308   11.9732   20.7174 H   0  0  0  0  0  0  0  0  0  0  0  0
   48.1494    9.2613   23.7828 H   0  0  0  0  0  0  0  0  0  0  0  0
   52.3587   12.9724   22.0315 H   0  0  0  0  0  0  0  0  0  0  0  0
   51.5911   14.2264   21.1022 H   0  0  0  0  0  0  0  0  0  0  0  0
   48.5983    7.2451   22.4793 H   0  0  0  0  0  0  0  0  0  0  0  0
   46.1133   12.4274   18.4384 H   0  0  0  0  0  0  0  0  0  0  0  0
   47.5106   13.4703   18.1252 H   0  0  0  0  0  0  0  0  0  0  0  0
   50.0238   14.4796   20.0078 H   0  0  0  0  0  0  0  0  0  0  0  0
   50.3782   15.4199   22.9667 H   0  0  0  0  0  0  0  0  0  0  0  0
   49.9382   14.3907   24.3516 H   0  0  0  0  0  0  0  0  0  0  0  0
   51.6194   14.4986   23.8441 H   0  0  0  0  0  0  0  0  0  0  0  0
   49.5332    5.2101   19.5850 H   0  0  0  0  0  0  0  0  0  0  0  0
   48.2045    5.7692   20.6093 H   0  0  0  0  0  0  0  0  0  0  0  0
   49.9053    5.7351   21.2269 H   0  0  0  0  0  0  0  0  0  0  0  0
   47.4879   14.0031   21.2401 H   0  0  0  0  0  0  0  0  0  0  0  0
   47.4359    8.8176   20.1140 H   0  0  0  0  0  0  0  0  0  0  0  0
   49.8416    8.4662   21.2204 H   0  0  0  0  0  0  0  0  0  0  0  0
   49.6934    9.0029   19.5538 H   0  0  0  0  0  0  0  0  0  0  0  0
   46.8247   12.1164   22.7934 H   0  0  0  0  0  0  0  0  0  0  0  0
   48.4717   12.3932   23.3375 H   0  0  0  0  0  0  0  0  0  0  0  0
   48.7709   11.0747   18.4885 H   0  0  0  0  0  0  0  0  0  0  0  0
   47.1059   10.5847   18.2054 H   0  0  0  0  0  0  0  0  0  0  0  0
   52.3071    9.5831   20.7036 H   0  0  0  0  0  0  0  0  0  0  0  0
   47.4459   10.2116   24.0636 H   0  0  0  0  0  0  0  0  0  0  0  0
   49.0201   10.0496   23.3043 H   0  0  0  0  0  0  0  0  0  0  0  0
   53.5652   11.6625   21.0200 H   0  0  0  0  0  0  0  0  0  0  0  0
   46.2907   12.8909   18.6635 H   0  0  0  0  0  0  0  0  0  0  0  0
   47.5197   12.8715   17.3870 H   0  0  0  0  0  0  0  0  0  0  0  0
   45.9078   10.5168   21.2523 H   0  0  0  0  0  0  0  0  0  0  0  0
   48.4966    7.6629   22.7606 H   0  0  0  0  0  0  0  0  0  0  0  0
   46.9689    7.3146   21.9165 H   0  0  0  0  0  0  0  0  0  0  0  0
   46.9402    7.9092   23.5698 H   0  0  0  0  0  0  0  0  0  0  0  0
   54.1805   13.8097   20.2659 H   0  0  0  0  0  0  0  0  0  0  0  0
   54.1455   15.2592   21.2747 H   0  0  0  0  0  0  0  0  0  0  0  0
   54.3036   13.6839   22.0633 H   0  0  0  0  0  0  0  0  0  0  0  0
   46.9800   11.8506   19.9917 H   0  0  0  0  0  0  0  0  0  0  0  0
   48.8249   13.4439   19.6365 H   0  0  0  0  0  0  0  0  0  0  0  0
   49.6311    9.2717   22.2201 H   0  0  0  0  0  0  0  0  0  0  0  0
   51.4792   10.8657   21.8637 H   0  0  0  0  0  0  0  0  0  0  0  0
   45.3012    9.1296   21.1229 H   0  0  0  0  0  0  0  0  0  0  0  0
   53.1574   13.5860   20.7219 H   0  0  0  0  0  0  0  0  0  0  0  0
 14  7  2  0
 15  8  1  0
 16 11  1  0
 17 15  2  0
 18 13  1  0
  2 19  1  6
 20 13  2  0
 21  9  1  0
  4  7  1  0
 16  9  1  0
  6 10  1  0
 18 12  1  0
 17 14  1  0
 14 22  1  0
 22 23  1  0
  2  1  1  0
  3  1  1  0
  3  4  1  0
  5  1  1  0
  6  2  1  0
  7  5  1  0
  8  5  2  0
  6  9  1  0
 10  8  1  0
  1 11  1  6
 12  2  1  0
 13  3  1  0
 37 30  2  0
 38 31  1  0
 39 34  1  0
 40 38  2  0
 41 36  1  0
 25 42  1  1
 43 36  2  0
 44 32  1  0
 27 30  1  0
 39 32  1  0
 29 33  1  0
 41 35  1  0
 40 37  1  0
 37 45  1  0
 45 46  1  0
 25 24  1  0
 26 24  1  0
 26 27  1  0
 28 24  1  0
 29 25  1  0
 30 28  1  0
 31 28  2  0
 29 32  1  0
 33 31  1  0
 24 34  1  1
 35 25  1  0
 36 26  1  0
 48 49  1  0
 49 56  2  0
 50 47  1  0
 51 48  2  0
 52 47  2  0
 53 50  1  0
 54 53  2  0
 55 50  2  0
 56 55  1  0
 57 47  1  0
 58 48  1  0
 49 54  1  0
  3 59  1  6
  6 60  1  1
 10 61  1  0
 10 62  1  0
 11 63  1  0
 11 64  1  0
 12 65  1  0
 12 66  1  0
 15 67  1  0
 16 68  1  0
 16 69  1  0
 17 70  1  0
 18 71  1  0
 18 72  1  0
 19 73  1  0
 21 74  1  0
 21 75  1  0
 21 76  1  0
 23 77  1  0
 23 78  1  0
 23 79  1  0
 26 80  1  1
 29 81  1  6
 33 82  1  0
 33 83  1  0
 34 84  1  0
 34 85  1  0
 35 86  1  0
 35 87  1  0
 38 88  1  0
 39 89  1  0
 39 90  1  0
 40 91  1  0
 41 92  1  0
 41 93  1  0
 42 94  1  0
 44 95  1  0
 44 96  1  0
 44 97  1  0
 46 98  1  0
 46 99  1  0
 46100  1  0
 53101  1  0
 54102  1  0
 55103  1  0
 56104  1  0
 57105  1  0
 58106  1  0
M  END
> <Uni-Dock RESULT> 
ENERGY=   -5.269  LOWER_BOUND=    1.675  UPPER_BOUND=    4.223
INTER + INTRA:          -5.269
INTER:                  -5.269
INTRA:                   0.000
UNBOUND:                 0.000

$$$$

     RDKit          3D

106114  0  0  0  0  0  0  0  0999 V2000
   49.4666    8.0184   21.5889 C   0  0  2  0  0  0  0  0  0  0  0  0
   48.2502    7.1044   21.7635 C   0  0  2  0  0  0  0  0  0  0  0  0
   49.6843    9.1446   22.6129 C   0  0  1  0  0  0  0  0  0  0  0  0
   50.3487   10.2359   21.9081 O   0  0  0  0  0  0  0  0  0  0  0  0
   49.2415    8.9169   20.4109 C   0  0  0  0  0  0  0  0  0  0  0  0
   48.0965    6.3521   20.3910 C   0  0  2  0  0  0  0  0  0  0  0  0
   49.8280   10.1500   20.6325 C   0  0  0  0  0  0  0  0  0  0  0  0
   48.5093    8.6238   19.2750 C   0  0  0  0  0  0  0  0  0  0  0  0
   49.3306    5.6532   19.9336 N   0  0  0  0  0  0  0  0  0  0  0  0
   47.7233    7.3366   19.2300 C   0  0  0  0  0  0  0  0  0  0  0  0
   50.7627    7.2078   21.3384 C   0  0  0  0  0  0  0  0  0  0  0  0
   46.9943    7.8955   22.1774 C   0  0  0  0  0  0  0  0  0  0  0  0
   48.3853    9.6714   23.2599 C   0  0  0  0  0  0  0  0  0  0  0  0
   49.8106   11.1383   19.6654 C   0  0  0  0  0  0  0  0  0  0  0  0
   48.4620    9.6076   18.2880 C   0  0  0  0  0  0  0  0  0  0  0  0
   50.5440    5.8127   20.7249 C   0  0  0  0  0  0  0  0  0  0  0  0
   49.1245   10.8444   18.4745 C   0  0  0  0  0  0  0  0  0  0  0  0
   47.2532    8.6890   23.4571 C   0  0  0  0  0  0  0  0  0  0  0  0
   48.4123    6.1755   22.8486 O   0  0  0  0  0  0  0  0  0  0  0  0
   48.2761   10.8257   23.6815 O   0  0  0  0  0  0  0  0  0  0  0  0
   49.0838    4.2576   19.5791 C   0  0  0  0  0  0  0  0  0  0  0  0
   50.4484   12.3054   19.9657 O   0  0  0  0  0  0  0  0  0  0  0  0
   50.4323   13.3231   18.9712 C   0  0  0  0  0  0  0  0  0  0  0  0
   47.9507    7.9892   20.8346 C   0  0  2  0  0  0  0  0  0  0  0  0
   47.6398    9.4132   21.3114 C   0  0  2  0  0  0  0  0  0  0  0  0
   47.7140    6.8390   21.8196 C   0  0  1  0  0  0  0  0  0  0  0  0
   48.6947    5.8018   21.4992 O   0  0  0  0  0  0  0  0  0  0  0  0
   49.4231    7.8085   20.6943 C   0  0  0  0  0  0  0  0  0  0  0  0
   48.2822   10.3790   20.2530 C   0  0  2  0  0  0  0  0  0  0  0  0
   49.7772    6.5127   21.0250 C   0  0  0  0  0  0  0  0  0  0  0  0
   50.3246    8.7780   20.3047 C   0  0  0  0  0  0  0  0  0  0  0  0
   47.4883   10.1825   18.9951 N   0  0  0  0  0  0  0  0  0  0  0  0
   49.8416   10.1966   20.1369 C   0  0  0  0  0  0  0  0  0  0  0  0
   47.2808    7.7309   19.4609 C   0  0  0  0  0  0  0  0  0  0  0  0
   48.0856    9.6661   22.7526 C   0  0  0  0  0  0  0  0  0  0  0  0
   47.8619    7.2416   23.3016 C   0  0  0  0  0  0  0  0  0  0  0  0
   51.0826    6.0818   20.8936 C   0  0  0  0  0  0  0  0  0  0  0  0
   51.6521    8.3721   20.1844 C   0  0  0  0  0  0  0  0  0  0  0  0
   47.6288    8.8273   18.4365 C   0  0  0  0  0  0  0  0  0  0  0  0
   52.0237    7.0317   20.4605 C   0  0  0  0  0  0  0  0  0  0  0  0
   47.4578    8.6447   23.6934 C   0  0  0  0  0  0  0  0  0  0  0  0
   46.2092    9.6127   21.3052 O   0  0  0  0  0  0  0  0  0  0  0  0
   48.2050    6.4413   24.1756 O   0  0  0  0  0  0  0  0  0  0  0  0
   47.7809   11.1896   17.9742 C   0  0  0  0  0  0  0  0  0  0  0  0
   51.3436    4.7831   21.2152 O   0  0  0  0  0  0  0  0  0  0  0  0
   52.7006    4.3659   21.1852 C   0  0  0  0  0  0  0  0  0  0  0  0
   47.3347   10.4505   19.7155 C   0  0  0  0  0  0  0  0  0  0  0  0
   50.7348    6.2322   21.7201 C   0  0  0  0  0  0  0  0  0  0  0  0
   49.8722    7.3120   21.1822 C   0  0  0  0  0  0  0  0  0  0  0  0
   48.1995    9.3713   20.2546 C   0  0  0  0  0  0  0  0  0  0  0  0
   50.5293    5.6006   22.7387 O   0  0  0  0  0  0  0  0  0  0  0  0
   47.5434   11.0884   18.7013 O   0  0  0  0  0  0  0  0  0  0  0  0
   47.8735    8.6710   21.4241 C   0  0  0  0  0  0  0  0  0  0  0  0
   48.7069    7.6473   21.8852 C   0  0  0  0  0  0  0  0  0  0  0  0
   49.3673    9.0398   19.5529 C   0  0  0  0  0  0  0  0  0  0  0  0
   50.1940    8.0064   20.0081 C   0  0  0  0  0  0  0  0  0  0  0  0
   46.2442   10.6708   20.4717 O   0  0  0  0  0  0  0  0  0  0  0  0
   51.8271    6.0113   20.9666 O   0  0  0  0  0  0  0  0  0  0  0  0
   50.3318    8.8269   23.4388 H   0  0  0  0  0  0  0  0  0  0  0  0
   47.2848    5.6215   20.5018 H   0  0  0  0  0  0  0  0  0  0  0  0
   47.8582    6.8488   18.2550 H   0  0  0  0  0  0  0  0  0  0  0  0
   46.6565    7.5889   19.3169 H   0  0  0  0  0  0  0  0  0  0  0  0
   51.4550    7.7654   20.6936 H   0  0  0  0  0  0  0  0  0  0  0  0
   51.2956    7.0700   22.2884 H   0  0  0  0  0  0  0  0  0  0  0  0
   46.1657    7.2042   22.3639 H   0  0  0  0  0  0  0  0  0  0  0  0
   46.6594    8.5869   21.4001 H   0  0  0  0  0  0  0  0  0  0  0  0
   47.8966    9.4432   17.3720 H   0  0  0  0  0  0  0  0  0  0  0  0
   51.4110    5.5908   20.0858 H   0  0  0  0  0  0  0  0  0  0  0  0
   50.5871    5.0593   21.5224 H   0  0  0  0  0  0  0  0  0  0  0  0
   49.0582   11.5711   17.6688 H   0  0  0  0  0  0  0  0  0  0  0  0
   46.3482    9.2475   23.7199 H   0  0  0  0  0  0  0  0  0  0  0  0
   47.5023    8.0351   24.2997 H   0  0  0  0  0  0  0  0  0  0  0  0
   49.2671    5.7056   22.7708 H   0  0  0  0  0  0  0  0  0  0  0  0
   48.7711    3.6712   20.4512 H   0  0  0  0  0  0  0  0  0  0  0  0
   48.3005    4.1904   18.8142 H   0  0  0  0  0  0  0  0  0  0  0  0
   49.9797    3.7897   19.1534 H   0  0  0  0  0  0  0  0  0  0  0  0
   51.0179   14.1654   19.3486 H   0  0  0  0  0  0  0  0  0  0  0  0
   49.4128   13.6827   18.7849 H   0  0  0  0  0  0  0  0  0  0  0  0
   50.9087   12.9819   18.0456 H   0  0  0  0  0  0  0  0  0  0  0  0
   46.7088    6.4122   21.7067 H   0  0  0  0  0  0  0  0  0  0  0  0
   48.0852   11.4107   20.5749 H   0  0  0  0  0  0  0  0  0  0  0  0
   50.2223   10.5996   19.1929 H   0  0  0  0  0  0  0  0  0  0  0  0
   50.3056   10.7919   20.9375 H   0  0  0  0  0  0  0  0  0  0  0  0
   46.1878    7.6891   19.5830 H   0  0  0  0  0  0  0  0  0  0  0  0
   47.5765    6.7579   19.0447 H   0  0  0  0  0  0  0  0  0  0  0  0
   49.1748    9.6370   22.8522 H   0  0  0  0  0  0  0  0  0  0  0  0
   47.7636   10.6639   23.0675 H   0  0  0  0  0  0  0  0  0  0  0  0
   52.4173    9.0835   19.8829 H   0  0  0  0  0  0  0  0  0  0  0  0
   46.9509    8.7093   17.5819 H   0  0  0  0  0  0  0  0  0  0  0  0
   48.6430    8.6714   18.0470 H   0  0  0  0  0  0  0  0  0  0  0  0
   53.0698    6.7653   20.3378 H   0  0  0  0  0  0  0  0  0  0  0  0
   46.3634    8.7035   23.6917 H   0  0  0  0  0  0  0  0  0  0  0  0
   47.8024    8.8344   24.7175 H   0  0  0  0  0  0  0  0  0  0  0  0
   46.0048    9.9409   20.4015 H   0  0  0  0  0  0  0  0  0  0  0  0
   48.8069   11.1285   17.5980 H   0  0  0  0  0  0  0  0  0  0  0  0
   47.6106   12.1992   18.3661 H   0  0  0  0  0  0  0  0  0  0  0  0
   47.1021   11.0684   17.1210 H   0  0  0  0  0  0  0  0  0  0  0  0
   53.3188    4.9755   21.8519 H   0  0  0  0  0  0  0  0  0  0  0  0
   52.7423    3.3342   21.5456 H   0  0  0  0  0  0  0  0  0  0  0  0
   53.0900    4.3802   20.1623 H   0  0  0  0  0  0  0  0  0  0  0  0
   46.9807    8.9212   21.9907 H   0  0  0  0  0  0  0  0  0  0  0  0
   48.4427    7.1083   22.7934 H   0  0  0  0  0  0  0  0  0  0  0  0
   49.6287    9.5802   18.6442 H   0  0  0  0  0  0  0  0  0  0  0  0
   51.0938    7.7662   19.4480 H   0  0  0  0  0  0  0  0  0  0  0  0
   45.7738   11.3886   20.0013 H   0  0  0  0  0  0  0  0  0  0  0  0
   52.3025    5.3036   21.4468 H   0  0  0  0  0  0  0  0  0  0  0  0
 14  7  2  0
 15  8  1  0
 16 11  1  0
 17 15  2  0
 18 13  1  0
  2 19  1  6
 20 13  2  0
 21  9  1  0
  4  7  1  0
 16  9  1  0
  6 10  1  0
 18 12  1  0
 17 14  1  0
 14 22  1  0
 22 23  1  0
  2  1  1  0
  3  1  1  0
  3  4  1  0
  5  1  1  0
  6  2  1  0
  7  5  1  0
  8  5  2  0
  6  9  1  0
 10  8  1  0
  1 11  1  6
 12  2  1  0
 13  3  1  0
 37 30  2  0
 38 31  1  0
 39 34  1  0
 40 38  2  0
 41 36  1  0
 25 42  1  1
 43 36  2  0
 44 32  1  0
 27 30  1  0
 39 32  1  0
 29 33  1  0
 41 35  1  0
 40 37  1  0
 37 45  1  0
 45 46  1  0
 25 24  1  0
 26 24  1  0
 26 27  1  0
 28 24  1  0
 29 25  1  0
 30 28  1  0
 31 28  2  0
 29 32  1  0
 33 31  1  0
 24 34  1  1
 35 25  1  0
 36 26  1  0
 48 49  1  0
 49 56  2  0
 50 47  1  0
 51 48  2  0
 52 47  2  0
 53 50  1  0
 54 53  2  0
 55 50  2  0
 56 55  1  0
 57 47  1  0
 58 48  1  0
 49 54  1  0
  3 59  1  6
  6 60  1  1
 10 61  1  0
 10 62  1  0
 11 63  1  0
 11 64  1  0
 12 65  1  0
 12 66  1  0
 15 67  1  0
 16 68  1  0
 16 69  1  0
 17 70  1  0
 18 71  1  0
 18 72  1  0
 19 73  1  0
 21 74  1  0
 21 75  1  0
 21 76  1  0
 23 77  1  0
 23 78  1  0
 23 79  1  0
 26 80  1  1
 29 81  1  6
 33 82  1  0
 33 83  1  0
 34 84  1  0
 34 85  1  0
 35 86  1  0
 35 87  1  0
 38 88  1  0
 39 89  1  0
 39 90  1  0
 40 91  1  0
 41 92  1  0
 41 93  1  0
 42 94  1  0
 44 95  1  0
 44 96  1  0
 44 97  1  0
 46 98  1  0
 46 99  1  0
 46100  1  0
 53101  1  0
 54102  1  0
 55103  1  0
 56104  1  0
 57105  1  0
 58106  1  0
M  END
> <Uni-Dock RESULT> 
ENERGY=   -5.264  LOWER_BOUND=    3.014  UPPER_BOUND=    5.064
INTER + INTRA:          -5.264
INTER:                  -5.264
INTRA:                   0.000
UNBOUND:                 0.000

$$$$

     RDKit          3D

106114  0  0  0  0  0  0  0  0999 V2000
   48.1755   10.2766   18.8389 C   0  0  2  0  0  0  0  0  0  0  0  0
   49.1528   11.3428   18.3354 C   0  0  2  0  0  0  0  0  0  0  0  0
   46.7722   10.7249   19.2795 C   0  0  1  0  0  0  0  0  0  0  0  0
   46.3425    9.8047   20.3272 O   0  0  0  0  0  0  0  0  0  0  0  0
   48.6202    9.7998   20.1882 C   0  0  0  0  0  0  0  0  0  0  0  0
   50.5647   10.6501   18.3482 C   0  0  2  0  0  0  0  0  0  0  0  0
   47.5223    9.4848   20.9686 C   0  0  0  0  0  0  0  0  0  0  0  0
   49.9208    9.7276   20.6527 C   0  0  0  0  0  0  0  0  0  0  0  0
   50.6219    9.3615   17.6019 N   0  0  0  0  0  0  0  0  0  0  0  0
   51.0274   10.3060   19.8055 C   0  0  0  0  0  0  0  0  0  0  0  0
   48.1189    9.0547   17.8885 C   0  0  0  0  0  0  0  0  0  0  0  0
   49.0877   12.6264   19.1854 C   0  0  0  0  0  0  0  0  0  0  0  0
   46.7090   12.1718   19.8144 C   0  0  0  0  0  0  0  0  0  0  0  0
   47.6708    8.9641   22.2410 C   0  0  0  0  0  0  0  0  0  0  0  0
   50.1003    9.2195   21.9387 C   0  0  0  0  0  0  0  0  0  0  0  0
   49.3841    8.8383   17.0380 C   0  0  0  0  0  0  0  0  0  0  0  0
   48.9860    8.8224   22.7160 C   0  0  0  0  0  0  0  0  0  0  0  0
   47.6644   13.1807   19.2184 C   0  0  0  0  0  0  0  0  0  0  0  0
   48.8193   11.8160   17.0196 O   0  0  0  0  0  0  0  0  0  0  0  0
   45.8676   12.5369   20.6395 O   0  0  0  0  0  0  0  0  0  0  0  0
   51.7246    9.3184   16.6445 C   0  0  0  0  0  0  0  0  0  0  0  0
   46.5280    8.6512   22.9158 O   0  0  0  0  0  0  0  0  0  0  0  0
   46.6789    8.1143   24.2250 C   0  0  0  0  0  0  0  0  0  0  0  0
   49.4722   11.0708   19.5841 C   0  0  2  0  0  0  0  0  0  0  0  0
   48.5529   11.6394   20.6719 C   0  0  2  0  0  0  0  0  0  0  0  0
   49.5254   11.8043   18.2395 C   0  0  1  0  0  0  0  0  0  0  0  0
   49.7955   10.7923   17.2181 O   0  0  0  0  0  0  0  0  0  0  0  0
   48.9192    9.7866   19.0691 C   0  0  0  0  0  0  0  0  0  0  0  0
   48.4421   10.5281   21.7758 C   0  0  2  0  0  0  0  0  0  0  0  0
   49.1975    9.6555   17.7204 C   0  0  0  0  0  0  0  0  0  0  0  0
   48.2186    8.8533   19.8056 C   0  0  0  0  0  0  0  0  0  0  0  0
   49.8063   10.4379   22.3941 N   0  0  0  0  0  0  0  0  0  0  0  0
   47.8295    9.1872   21.2236 C   0  0  0  0  0  0  0  0  0  0  0  0
   50.8854   10.8108   20.1656 C   0  0  0  0  0  0  0  0  0  0  0  0
   47.2098   12.1208   20.1206 C   0  0  0  0  0  0  0  0  0  0  0  0
   48.2260   12.5559   17.8828 C   0  0  0  0  0  0  0  0  0  0  0  0
   48.8548    8.5055   17.0369 C   0  0  0  0  0  0  0  0  0  0  0  0
   47.8439    7.6923   19.1322 C   0  0  0  0  0  0  0  0  0  0  0  0
   50.8312    9.9623   21.4500 C   0  0  0  0  0  0  0  0  0  0  0  0
   48.1742    7.5141   17.7646 C   0  0  0  0  0  0  0  0  0  0  0  0
   47.4229   13.1503   19.0173 C   0  0  0  0  0  0  0  0  0  0  0  0
   49.1750   12.8050   21.2557 O   0  0  0  0  0  0  0  0  0  0  0  0
   47.8776   12.7628   16.7176 O   0  0  0  0  0  0  0  0  0  0  0  0
   49.8248    9.6342   23.6172 C   0  0  0  0  0  0  0  0  0  0  0  0
   49.1879    8.4447   15.7165 O   0  0  0  0  0  0  0  0  0  0  0  0
   48.7425    7.3121   14.9851 C   0  0  0  0  0  0  0  0  0  0  0  0
   49.2504   10.9886   22.3470 C   0  0  0  0  0  0  0  0  0  0  0  0
   48.3866    9.2726   16.8989 C   0  0  0  0  0  0  0  0  0  0  0  0
   48.6207    9.6911   18.3023 C   0  0  0  0  0  0  0  0  0  0  0  0
   49.0141   10.5690   20.9431 C   0  0  0  0  0  0  0  0  0  0  0  0
   48.1277   10.0144   15.9708 O   0  0  0  0  0  0  0  0  0  0  0  0
   49.5015   10.2470   23.2777 O   0  0  0  0  0  0  0  0  0  0  0  0
   48.7491   11.4946   19.9245 C   0  0  0  0  0  0  0  0  0  0  0  0
   48.5527   11.0567   18.6112 C   0  0  0  0  0  0  0  0  0  0  0  0
   49.0780    9.2024   20.6361 C   0  0  0  0  0  0  0  0  0  0  0  0
   48.8941    8.7662   19.3191 C   0  0  0  0  0  0  0  0  0  0  0  0
   49.1689   12.3211   22.5132 O   0  0  0  0  0  0  0  0  0  0  0  0
   48.4658    7.9403   16.7306 O   0  0  0  0  0  0  0  0  0  0  0  0
   46.0483   10.6693   18.4578 H   0  0  0  0  0  0  0  0  0  0  0  0
   51.2844   11.3549   17.9121 H   0  0  0  0  0  0  0  0  0  0  0  0
   51.8824    9.6166   19.7839 H   0  0  0  0  0  0  0  0  0  0  0  0
   51.3741   11.2311   20.2883 H   0  0  0  0  0  0  0  0  0  0  0  0
   47.9156    8.1320   18.4482 H   0  0  0  0  0  0  0  0  0  0  0  0
   47.2733    9.1693   17.1976 H   0  0  0  0  0  0  0  0  0  0  0  0
   49.7435   13.3901   18.7541 H   0  0  0  0  0  0  0  0  0  0  0  0
   49.4235   12.4661   20.2130 H   0  0  0  0  0  0  0  0  0  0  0  0
   51.0984    9.1428   22.3672 H   0  0  0  0  0  0  0  0  0  0  0  0
   49.4995    7.7557   16.8830 H   0  0  0  0  0  0  0  0  0  0  0  0
   49.2147    9.2461   16.0328 H   0  0  0  0  0  0  0  0  0  0  0  0
   49.1868    8.4280   23.7088 H   0  0  0  0  0  0  0  0  0  0  0  0
   47.6478   14.0848   19.8368 H   0  0  0  0  0  0  0  0  0  0  0  0
   47.3076   13.4498   18.2184 H   0  0  0  0  0  0  0  0  0  0  0  0
   48.6883   11.0627   16.4089 H   0  0  0  0  0  0  0  0  0  0  0  0
   51.5960   10.0635   15.8504 H   0  0  0  0  0  0  0  0  0  0  0  0
   52.6784    9.5096   17.1514 H   0  0  0  0  0  0  0  0  0  0  0  0
   51.8093    8.3296   16.1778 H   0  0  0  0  0  0  0  0  0  0  0  0
   45.6811    7.8800   24.6048 H   0  0  0  0  0  0  0  0  0  0  0  0
   47.1319    8.8452   24.9062 H   0  0  0  0  0  0  0  0  0  0  0  0
   47.2503    7.1798   24.2078 H   0  0  0  0  0  0  0  0  0  0  0  0
   50.3355   12.5449   18.2161 H   0  0  0  0  0  0  0  0  0  0  0  0
   47.7778   10.9034   22.5662 H   0  0  0  0  0  0  0  0  0  0  0  0
   48.0695    8.3400   21.8742 H   0  0  0  0  0  0  0  0  0  0  0  0
   46.7343    9.2909   21.2414 H   0  0  0  0  0  0  0  0  0  0  0  0
   51.3764   11.7698   20.3905 H   0  0  0  0  0  0  0  0  0  0  0  0
   51.5332   10.3020   19.4383 H   0  0  0  0  0  0  0  0  0  0  0  0
   46.6066   11.2917   19.7385 H   0  0  0  0  0  0  0  0  0  0  0  0
   46.6314   12.5928   20.9212 H   0  0  0  0  0  0  0  0  0  0  0  0
   47.2881    6.9140   19.6496 H   0  0  0  0  0  0  0  0  0  0  0  0
   51.8199   10.0141   21.9230 H   0  0  0  0  0  0  0  0  0  0  0  0
   50.6669    8.9068   21.1982 H   0  0  0  0  0  0  0  0  0  0  0  0
   47.8698    6.5846   17.2916 H   0  0  0  0  0  0  0  0  0  0  0  0
   47.9462   14.0412   19.3829 H   0  0  0  0  0  0  0  0  0  0  0  0
   46.4492   13.4701   18.6261 H   0  0  0  0  0  0  0  0  0  0  0  0
   49.7225   12.4552   21.9933 H   0  0  0  0  0  0  0  0  0  0  0  0
   49.5954    8.5793   23.4366 H   0  0  0  0  0  0  0  0  0  0  0  0
   49.1108   10.0278   24.3502 H   0  0  0  0  0  0  0  0  0  0  0  0
   50.8146    9.6875   24.0871 H   0  0  0  0  0  0  0  0  0  0  0  0
   47.6532    7.2130   15.0298 H   0  0  0  0  0  0  0  0  0  0  0  0
   49.0192    7.4595   13.9373 H   0  0  0  0  0  0  0  0  0  0  0  0
   49.2369    6.4014   15.3379 H   0  0  0  0  0  0  0  0  0  0  0  0
   48.6814   12.5568   20.1431 H   0  0  0  0  0  0  0  0  0  0  0  0
   48.3499   11.7846   17.8274 H   0  0  0  0  0  0  0  0  0  0  0  0
   49.2817    8.4766   21.4220 H   0  0  0  0  0  0  0  0  0  0  0  0
   48.9485    7.7023   19.1041 H   0  0  0  0  0  0  0  0  0  0  0  0
   49.3495   12.4500   23.4664 H   0  0  0  0  0  0  0  0  0  0  0  0
   48.2707    7.8133   15.7802 H   0  0  0  0  0  0  0  0  0  0  0  0
 14  7  2  0
 15  8  1  0
 16 11  1  0
 17 15  2  0
 18 13  1  0
  2 19  1  6
 20 13  2  0
 21  9  1  0
  4  7  1  0
 16  9  1  0
  6 10  1  0
 18 12  1  0
 17 14  1  0
 14 22  1  0
 22 23  1  0
  2  1  1  0
  3  1  1  0
  3  4  1  0
  5  1  1  0
  6  2  1  0
  7  5  1  0
  8  5  2  0
  6  9  1  0
 10  8  1  0
  1 11  1  6
 12  2  1  0
 13  3  1  0
 37 30  2  0
 38 31  1  0
 39 34  1  0
 40 38  2  0
 41 36  1  0
 25 42  1  1
 43 36  2  0
 44 32  1  0
 27 30  1  0
 39 32  1  0
 29 33  1  0
 41 35  1  0
 40 37  1  0
 37 45  1  0
 45 46  1  0
 25 24  1  0
 26 24  1  0
 26 27  1  0
 28 24  1  0
 29 25  1  0
 30 28  1  0
 31 28  2  0
 29 32  1  0
 33 31  1  0
 24 34  1  1
 35 25  1  0
 36 26  1  0
 48 49  1  0
 49 56  2  0
 50 47  1  0
 51 48  2  0
 52 47  2  0
 53 50  1  0
 54 53  2  0
 55 50  2  0
 56 55  1  0
 57 47  1  0
 58 48  1  0
 49 54  1  0
  3 59  1  6
  6 60  1  1
 10 61  1  0
 10 62  1  0
 11 63  1  0
 11 64  1  0
 12 65  1  0
 12 66  1  0
 15 67  1  0
 16 68  1  0
 16 69  1  0
 17 70  1  0
 18 71  1  0
 18 72  1  0
 19 73  1  0
 21 74  1  0
 21 75  1  0
 21 76  1  0
 23 77  1  0
 23 78  1  0
 23 79  1  0
 26 80  1  1
 29 81  1  6
 33 82  1  0
 33 83  1  0
 34 84  1  0
 34 85  1  0
 35 86  1  0
 35 87  1  0
 38 88  1  0
 39 89  1  0
 39 90  1  0
 40 91  1  0
 41 92  1  0
 41 93  1  0
 42 94  1  0
 44 95  1  0
 44 96  1  0
 44 97  1  0
 46 98  1  0
 46 99  1  0
 46100  1  0
 53101  1  0
 54102  1  0
 55103  1  0
 56104  1  0
 57105  1  0
 58106  1  0
M  END
> <Uni-Dock RESULT> 
ENERGY=   -5.196  LOWER_BOUND=    1.649  UPPER_BOUND=    5.457
INTER + INTRA:          -5.196
INTER:                  -5.196
INTRA:                   0.000
UNBOUND:                 0.000

$$$$

     RDKit          3D

106114  0  0  0  0  0  0  0  0999 V2000
   48.2077    7.7792   21.3138 C   0  0  2  0  0  0  0  0  0  0  0  0
   48.9329    8.4289   22.4960 C   0  0  2  0  0  0  0  0  0  0  0  0
   47.2100    6.6460   21.6051 C   0  0  1  0  0  0  0  0  0  0  0  0
   47.2318    5.7545   20.4502 O   0  0  0  0  0  0  0  0  0  0  0  0
   49.1798    6.9396   20.5418 C   0  0  0  0  0  0  0  0  0  0  0  0
   50.1255    9.2328   21.8597 C   0  0  2  0  0  0  0  0  0  0  0  0
   48.5413    5.8291   20.0197 C   0  0  0  0  0  0  0  0  0  0  0  0
   50.5363    7.1667   20.3972 C   0  0  0  0  0  0  0  0  0  0  0  0
   49.7197   10.1855   20.7881 N   0  0  0  0  0  0  0  0  0  0  0  0
   51.1747    8.2796   21.1913 C   0  0  0  0  0  0  0  0  0  0  0  0
   47.6133    8.8385   20.3525 C   0  0  0  0  0  0  0  0  0  0  0  0
   49.3791    7.3848   23.5378 C   0  0  0  0  0  0  0  0  0  0  0  0
   47.5272    5.8360   22.8806 C   0  0  0  0  0  0  0  0  0  0  0  0
   49.2124    4.9266   19.2150 C   0  0  0  0  0  0  0  0  0  0  0  0
   51.2420    6.2642   19.6025 C   0  0  0  0  0  0  0  0  0  0  0  0
   48.3206   10.2058   20.3802 C   0  0  0  0  0  0  0  0  0  0  0  0
   50.5805    5.1671   19.0009 C   0  0  0  0  0  0  0  0  0  0  0  0
   48.1854    6.5672   24.0285 C   0  0  0  0  0  0  0  0  0  0  0  0
   48.0743    9.2926   23.2597 O   0  0  0  0  0  0  0  0  0  0  0  0
   47.1955    4.6554   23.0150 O   0  0  0  0  0  0  0  0  0  0  0  0
   50.2495   11.5296   21.0050 C   0  0  0  0  0  0  0  0  0  0  0  0
   48.4859    3.8849   18.7189 O   0  0  0  0  0  0  0  0  0  0  0  0
   49.1746    2.9557   17.8899 C   0  0  0  0  0  0  0  0  0  0  0  0
   49.7660    7.5709   21.9433 C   0  0  2  0  0  0  0  0  0  0  0  0
   49.5042    6.0837   22.2106 C   0  0  2  0  0  0  0  0  0  0  0  0
   49.2585    8.5821   22.9773 C   0  0  1  0  0  0  0  0  0  0  0  0
   48.9383    9.8078   22.2456 O   0  0  0  0  0  0  0  0  0  0  0  0
   48.9278    8.0395   20.8039 C   0  0  0  0  0  0  0  0  0  0  0  0
   49.8169    5.3359   20.8657 C   0  0  2  0  0  0  0  0  0  0  0  0
   48.5415    9.3525   21.0057 C   0  0  0  0  0  0  0  0  0  0  0  0
   48.5659    7.2904   19.7029 C   0  0  0  0  0  0  0  0  0  0  0  0
   51.2987    5.4652   20.6687 N   0  0  0  0  0  0  0  0  0  0  0  0
   48.9039    5.8211   19.6785 C   0  0  0  0  0  0  0  0  0  0  0  0
   51.2592    7.7926   21.5916 C   0  0  0  0  0  0  0  0  0  0  0  0
   48.1060    5.8197   22.7720 C   0  0  0  0  0  0  0  0  0  0  0  0
   48.0122    8.1116   23.7558 C   0  0  0  0  0  0  0  0  0  0  0  0
   47.8234   10.0335   20.0426 C   0  0  0  0  0  0  0  0  0  0  0  0
   47.8232    7.9503   18.7259 C   0  0  0  0  0  0  0  0  0  0  0  0
   51.7281    6.8581   20.4604 C   0  0  0  0  0  0  0  0  0  0  0  0
   47.4701    9.3142   18.8879 C   0  0  0  0  0  0  0  0  0  0  0  0
   47.8769    6.6330   24.0403 C   0  0  0  0  0  0  0  0  0  0  0  0
   50.4246    5.6151   23.2204 O   0  0  0  0  0  0  0  0  0  0  0  0
   47.1863    8.8991   24.2246 O   0  0  0  0  0  0  0  0  0  0  0  0
   51.8074    4.6073   19.5975 C   0  0  0  0  0  0  0  0  0  0  0  0
   47.5047   11.3321   20.3075 O   0  0  0  0  0  0  0  0  0  0  0  0
   46.6753   12.0023   19.3698 C   0  0  0  0  0  0  0  0  0  0  0  0
   50.8342    5.1226   21.1991 C   0  0  0  0  0  0  0  0  0  0  0  0
   47.4135    9.7613   20.8073 C   0  0  0  0  0  0  0  0  0  0  0  0
   48.3028    8.5771   20.8857 C   0  0  0  0  0  0  0  0  0  0  0  0
   49.9426    6.3065   21.1196 C   0  0  0  0  0  0  0  0  0  0  0  0
   46.8227   10.2684   21.7414 O   0  0  0  0  0  0  0  0  0  0  0  0
   51.4193    4.6096   20.2644 O   0  0  0  0  0  0  0  0  0  0  0  0
   49.3209    6.8471   22.2535 C   0  0  0  0  0  0  0  0  0  0  0  0
   48.5046    7.9762   22.1359 C   0  0  0  0  0  0  0  0  0  0  0  0
   49.7379    6.9040   19.8678 C   0  0  0  0  0  0  0  0  0  0  0  0
   48.9311    8.0418   19.7531 C   0  0  0  0  0  0  0  0  0  0  0  0
   50.9555    4.6448   22.4508 O   0  0  0  0  0  0  0  0  0  0  0  0
   47.2891   10.2397   19.5562 O   0  0  0  0  0  0  0  0  0  0  0  0
   46.1875    7.0227   21.7268 H   0  0  0  0  0  0  0  0  0  0  0  0
   50.6225    9.7849   22.6678 H   0  0  0  0  0  0  0  0  0  0  0  0
   51.8598    8.8518   20.5509 H   0  0  0  0  0  0  0  0  0  0  0  0
   51.7843    7.8223   21.9840 H   0  0  0  0  0  0  0  0  0  0  0  0
   47.6103    8.4706   19.3177 H   0  0  0  0  0  0  0  0  0  0  0  0
   46.5582    9.0083   20.6049 H   0  0  0  0  0  0  0  0  0  0  0  0
   49.8270    7.8899   24.4001 H   0  0  0  0  0  0  0  0  0  0  0  0
   50.1346    6.6988   23.1467 H   0  0  0  0  0  0  0  0  0  0  0  0
   52.3144    6.3816   19.4537 H   0  0  0  0  0  0  0  0  0  0  0  0
   48.2564   10.6341   19.3693 H   0  0  0  0  0  0  0  0  0  0  0  0
   47.7442   10.8952   21.0109 H   0  0  0  0  0  0  0  0  0  0  0  0
   51.1802    4.4998   18.3870 H   0  0  0  0  0  0  0  0  0  0  0  0
   48.5346    5.8287   24.7584 H   0  0  0  0  0  0  0  0  0  0  0  0
   47.4336    7.1956   24.5181 H   0  0  0  0  0  0  0  0  0  0  0  0
   47.6115    9.9218   22.6702 H   0  0  0  0  0  0  0  0  0  0  0  0
   49.8358   11.9823   21.9139 H   0  0  0  0  0  0  0  0  0  0  0  0
   51.3422   11.4994   21.0963 H   0  0  0  0  0  0  0  0  0  0  0  0
   50.0229   12.1892   20.1586 H   0  0  0  0  0  0  0  0  0  0  0  0
   48.4473    2.2165   17.5442 H   0  0  0  0  0  0  0  0  0  0  0  0
   49.9523    2.4217   18.4497 H   0  0  0  0  0  0  0  0  0  0  0  0
   49.5895    3.4462   17.0026 H   0  0  0  0  0  0  0  0  0  0  0  0
   50.0283    8.8155   23.7243 H   0  0  0  0  0  0  0  0  0  0  0  0
   49.6266    4.2655   21.0232 H   0  0  0  0  0  0  0  0  0  0  0  0
   49.3411    5.5661   18.7077 H   0  0  0  0  0  0  0  0  0  0  0  0
   47.9536    5.2706   19.7445 H   0  0  0  0  0  0  0  0  0  0  0  0
   51.8806    7.6157   22.4826 H   0  0  0  0  0  0  0  0  0  0  0  0
   51.4523    8.8312   21.2890 H   0  0  0  0  0  0  0  0  0  0  0  0
   47.3246    6.0496   22.0415 H   0  0  0  0  0  0  0  0  0  0  0  0
   48.0048    4.7591   23.0234 H   0  0  0  0  0  0  0  0  0  0  0  0
   47.5020    7.4216   17.8316 H   0  0  0  0  0  0  0  0  0  0  0  0
   52.8237    6.9044   20.4254 H   0  0  0  0  0  0  0  0  0  0  0  0
   51.3745    7.2324   19.4911 H   0  0  0  0  0  0  0  0  0  0  0  0
   46.9019    9.7839   18.0897 H   0  0  0  0  0  0  0  0  0  0  0  0
   48.5855    6.3662   24.8326 H   0  0  0  0  0  0  0  0  0  0  0  0
   46.8646    6.4409   24.4168 H   0  0  0  0  0  0  0  0  0  0  0  0
   51.2171    5.3184   22.7203 H   0  0  0  0  0  0  0  0  0  0  0  0
   51.4292    4.8900   18.6101 H   0  0  0  0  0  0  0  0  0  0  0  0
   51.5485    3.5586   19.7852 H   0  0  0  0  0  0  0  0  0  0  0  0
   52.9028    4.6563   19.5648 H   0  0  0  0  0  0  0  0  0  0  0  0
   45.7248   11.4768   19.2327 H   0  0  0  0  0  0  0  0  0  0  0  0
   46.4505   12.9948   19.7702 H   0  0  0  0  0  0  0  0  0  0  0  0
   47.1946   12.1350   18.4154 H   0  0  0  0  0  0  0  0  0  0  0  0
   49.4548    6.3913   23.2308 H   0  0  0  0  0  0  0  0  0  0  0  0
   48.0286    8.3892   23.0236 H   0  0  0  0  0  0  0  0  0  0  0  0
   50.2160    6.4892   18.9816 H   0  0  0  0  0  0  0  0  0  0  0  0
   48.7871    8.4887   18.7730 H   0  0  0  0  0  0  0  0  0  0  0  0
   51.5650    3.8853   22.3539 H   0  0  0  0  0  0  0  0  0  0  0  0
   46.6683   10.9897   19.6539 H   0  0  0  0  0  0  0  0  0  0  0  0
 14  7  2  0
 15  8  1  0
 16 11  1  0
 17 15  2  0
 18 13  1  0
  2 19  1  6
 20 13  2  0
 21  9  1  0
  4  7  1  0
 16  9  1  0
  6 10  1  0
 18 12  1  0
 17 14  1  0
 14 22  1  0
 22 23  1  0
  2  1  1  0
  3  1  1  0
  3  4  1  0
  5  1  1  0
  6  2  1  0
  7  5  1  0
  8  5  2  0
  6  9  1  0
 10  8  1  0
  1 11  1  6
 12  2  1  0
 13  3  1  0
 37 30  2  0
 38 31  1  0
 39 34  1  0
 40 38  2  0
 41 36  1  0
 25 42  1  1
 43 36  2  0
 44 32  1  0
 27 30  1  0
 39 32  1  0
 29 33  1  0
 41 35  1  0
 40 37  1  0
 37 45  1  0
 45 46  1  0
 25 24  1  0
 26 24  1  0
 26 27  1  0
 28 24  1  0
 29 25  1  0
 30 28  1  0
 31 28  2  0
 29 32  1  0
 33 31  1  0
 24 34  1  1
 35 25  1  0
 36 26  1  0
 48 49  1  0
 49 56  2  0
 50 47  1  0
 51 48  2  0
 52 47  2  0
 53 50  1  0
 54 53  2  0
 55 50  2  0
 56 55  1  0
 57 47  1  0
 58 48  1  0
 49 54  1  0
  3 59  1  6
  6 60  1  1
 10 61  1  0
 10 62  1  0
 11 63  1  0
 11 64  1  0
 12 65  1  0
 12 66  1  0
 15 67  1  0
 16 68  1  0
 16 69  1  0
 17 70  1  0
 18 71  1  0
 18 72  1  0
 19 73  1  0
 21 74  1  0
 21 75  1  0
 21 76  1  0
 23 77  1  0
 23 78  1  0
 23 79  1  0
 26 80  1  1
 29 81  1  6
 33 82  1  0
 33 83  1  0
 34 84  1  0
 34 85  1  0
 35 86  1  0
 35 87  1  0
 38 88  1  0
 39 89  1  0
 39 90  1  0
 40 91  1  0
 41 92  1  0
 41 93  1  0
 42 94  1  0
 44 95  1  0
 44 96  1  0
 44 97  1  0
 46 98  1  0
 46 99  1  0
 46100  1  0
 53101  1  0
 54102  1  0
 55103  1  0
 56104  1  0
 57105  1  0
 58106  1  0
M  END
> <Uni-Dock RESULT> 
ENERGY=   -5.114  LOWER_BOUND=    3.595  UPPER_BOUND=    5.833
INTER + INTRA:          -5.114
INTER:                  -5.114
INTRA:                   0.000
UNBOUND:                 0.000

$$$$

     RDKit          3D

106114  0  0  0  0  0  0  0  0999 V2000
   48.6382    6.0932   19.5984 C   0  0  2  0  0  0  0  0  0  0  0  0
   49.5825    4.8979   19.7570 C   0  0  2  0  0  0  0  0  0  0  0  0
   47.6411    6.0832   18.4279 C   0  0  1  0  0  0  0  0  0  0  0  0
   47.4237    7.4741   18.0442 O   0  0  0  0  0  0  0  0  0  0  0  0
   49.4224    7.2804   19.1282 C   0  0  0  0  0  0  0  0  0  0  0  0
   50.6967    5.3796   20.7570 C   0  0  2  0  0  0  0  0  0  0  0  0
   48.6467    8.0641   18.2929 C   0  0  0  0  0  0  0  0  0  0  0  0
   50.7471    7.5609   19.4094 C   0  0  0  0  0  0  0  0  0  0  0  0
   50.1733    5.9249   22.0413 N   0  0  0  0  0  0  0  0  0  0  0  0
   51.5677    6.5290   20.1432 C   0  0  0  0  0  0  0  0  0  0  0  0
   47.9530    6.4652   20.9369 C   0  0  0  0  0  0  0  0  0  0  0  0
   50.1358    4.4212   18.4001 C   0  0  0  0  0  0  0  0  0  0  0  0
   48.1186    5.2833   17.1967 C   0  0  0  0  0  0  0  0  0  0  0  0
   49.1257    9.2528   17.7733 C   0  0  0  0  0  0  0  0  0  0  0  0
   51.2619    8.7466   18.8865 C   0  0  0  0  0  0  0  0  0  0  0  0
   48.7295    6.0464   22.1988 C   0  0  0  0  0  0  0  0  0  0  0  0
   50.4511    9.5935   18.0936 C   0  0  0  0  0  0  0  0  0  0  0  0
   48.9958    4.0769   17.4430 C   0  0  0  0  0  0  0  0  0  0  0  0
   48.9100    3.7287   20.2541 O   0  0  0  0  0  0  0  0  0  0  0  0
   47.7491    5.5492   16.0501 O   0  0  0  0  0  0  0  0  0  0  0  0
   50.8047    5.3120   23.2075 C   0  0  0  0  0  0  0  0  0  0  0  0
   48.2713    9.9717   16.9908 O   0  0  0  0  0  0  0  0  0  0  0  0
   48.7622   11.1956   16.4560 C   0  0  0  0  0  0  0  0  0  0  0  0
   50.2649    5.8685   19.1846 C   0  0  2  0  0  0  0  0  0  0  0  0
   49.9692    6.1413   17.7047 C   0  0  2  0  0  0  0  0  0  0  0  0
   49.9907    4.4585   19.7191 C   0  0  1  0  0  0  0  0  0  0  0  0
   49.6226    4.6063   21.1273 O   0  0  0  0  0  0  0  0  0  0  0  0
   49.2779    6.5834   20.0420 C   0  0  0  0  0  0  0  0  0  0  0  0
   50.0149    7.7012   17.5298 C   0  0  2  0  0  0  0  0  0  0  0  0
   49.0028    5.8375   21.1742 C   0  0  0  0  0  0  0  0  0  0  0  0
   48.6993    7.8051   19.7649 C   0  0  0  0  0  0  0  0  0  0  0  0
   51.4490    8.0879   17.7421 N   0  0  0  0  0  0  0  0  0  0  0  0
   48.9473    8.4403   18.4200 C   0  0  0  0  0  0  0  0  0  0  0  0
   51.6899    6.3631   19.5414 C   0  0  0  0  0  0  0  0  0  0  0  0
   48.6699    5.4884   17.2299 C   0  0  0  0  0  0  0  0  0  0  0  0
   48.8654    3.7123   18.9726 C   0  0  0  0  0  0  0  0  0  0  0  0
   48.1748    6.3325   22.1622 C   0  0  0  0  0  0  0  0  0  0  0  0
   47.8435    8.3165   20.7384 C   0  0  0  0  0  0  0  0  0  0  0  0
   51.9143    7.8260   19.1143 C   0  0  0  0  0  0  0  0  0  0  0  0
   47.5974    7.5934   21.9332 C   0  0  0  0  0  0  0  0  0  0  0  0
   48.6975    3.9880   17.4957 C   0  0  0  0  0  0  0  0  0  0  0  0
   51.0159    5.5587   16.8976 O   0  0  0  0  0  0  0  0  0  0  0  0
   48.1724    2.8458   19.5119 O   0  0  0  0  0  0  0  0  0  0  0  0
   51.7267    9.4741   17.3635 C   0  0  0  0  0  0  0  0  0  0  0  0
   47.9759    5.5464   23.2580 O   0  0  0  0  0  0  0  0  0  0  0  0
   47.0418    6.0032   24.2250 C   0  0  0  0  0  0  0  0  0  0  0  0
   51.0599    7.6543   17.2177 C   0  0  0  0  0  0  0  0  0  0  0  0
   47.8818    5.6687   21.6143 C   0  0  0  0  0  0  0  0  0  0  0  0
   48.7054    6.1980   20.5003 C   0  0  0  0  0  0  0  0  0  0  0  0
   50.2338    7.1256   18.3317 C   0  0  0  0  0  0  0  0  0  0  0  0
   47.4814    4.5254   21.7199 O   0  0  0  0  0  0  0  0  0  0  0  0
   51.4542    8.7994   17.1067 O   0  0  0  0  0  0  0  0  0  0  0  0
   49.8377    5.7825   18.3918 C   0  0  0  0  0  0  0  0  0  0  0  0
   49.0766    5.3223   19.4707 C   0  0  0  0  0  0  0  0  0  0  0  0
   49.8594    8.0036   19.3588 C   0  0  0  0  0  0  0  0  0  0  0  0
   49.1086    7.5391   20.4447 C   0  0  0  0  0  0  0  0  0  0  0  0
   51.3588    6.7168   16.3003 O   0  0  0  0  0  0  0  0  0  0  0  0
   47.5800    6.6049   22.5320 O   0  0  0  0  0  0  0  0  0  0  0  0
   46.6748    5.6535   18.7174 H   0  0  0  0  0  0  0  0  0  0  0  0
   51.3494    4.5220   20.9653 H   0  0  0  0  0  0  0  0  0  0  0  0
   52.1686    7.0141   20.9244 H   0  0  0  0  0  0  0  0  0  0  0  0
   52.2732    6.0857   19.4256 H   0  0  0  0  0  0  0  0  0  0  0  0
   47.7597    7.5449   20.9913 H   0  0  0  0  0  0  0  0  0  0  0  0
   46.9648    5.9891   20.9851 H   0  0  0  0  0  0  0  0  0  0  0  0
   50.7464    3.5236   18.5436 H   0  0  0  0  0  0  0  0  0  0  0  0
   50.7777    5.1666   17.9241 H   0  0  0  0  0  0  0  0  0  0  0  0
   52.3000    9.0230   19.0646 H   0  0  0  0  0  0  0  0  0  0  0  0
   48.5236    6.7933   22.9793 H   0  0  0  0  0  0  0  0  0  0  0  0
   48.3033    5.1128   22.5889 H   0  0  0  0  0  0  0  0  0  0  0  0
   50.9041   10.5075   17.7180 H   0  0  0  0  0  0  0  0  0  0  0  0
   49.4190    3.7519   16.4862 H   0  0  0  0  0  0  0  0  0  0  0  0
   48.3705    3.2644   17.8282 H   0  0  0  0  0  0  0  0  0  0  0  0
   48.3919    3.9475   21.0549 H   0  0  0  0  0  0  0  0  0  0  0  0
   50.5716    4.2427   23.2746 H   0  0  0  0  0  0  0  0  0  0  0  0
   51.8942    5.4293   23.1579 H   0  0  0  0  0  0  0  0  0  0  0  0
   50.4787    5.7940   24.1371 H   0  0  0  0  0  0  0  0  0  0  0  0
   47.9484   11.6632   15.8958 H   0  0  0  0  0  0  0  0  0  0  0  0
   49.5907   11.0223   15.7583 H   0  0  0  0  0  0  0  0  0  0  0  0
   49.0520   11.8895   17.2526 H   0  0  0  0  0  0  0  0  0  0  0  0
   50.8845    3.8240   19.6594 H   0  0  0  0  0  0  0  0  0  0  0  0
   49.7945    7.9289   16.4779 H   0  0  0  0  0  0  0  0  0  0  0  0
   49.2043    9.4953   18.5594 H   0  0  0  0  0  0  0  0  0  0  0  0
   47.9919    8.4236   17.8745 H   0  0  0  0  0  0  0  0  0  0  0  0
   52.4386    5.7267   19.0457 H   0  0  0  0  0  0  0  0  0  0  0  0
   51.8875    6.2799   20.6191 H   0  0  0  0  0  0  0  0  0  0  0  0
   47.7929    5.9312   17.7115 H   0  0  0  0  0  0  0  0  0  0  0  0
   48.5532    5.6425   16.1524 H   0  0  0  0  0  0  0  0  0  0  0  0
   47.3511    9.2741   20.5867 H   0  0  0  0  0  0  0  0  0  0  0  0
   52.9902    8.0298   19.1835 H   0  0  0  0  0  0  0  0  0  0  0  0
   51.4273    8.5054   19.8255 H   0  0  0  0  0  0  0  0  0  0  0  0
   46.9325    8.0441   22.6649 H   0  0  0  0  0  0  0  0  0  0  0  0
   49.5110    3.4905   16.9554 H   0  0  0  0  0  0  0  0  0  0  0  0
   47.7519    3.5428   17.1624 H   0  0  0  0  0  0  0  0  0  0  0  0
   51.6978    6.2627   16.8235 H   0  0  0  0  0  0  0  0  0  0  0  0
   51.2075   10.2003   17.9966 H   0  0  0  0  0  0  0  0  0  0  0  0
   51.4449    9.6543   16.3194 H   0  0  0  0  0  0  0  0  0  0  0  0
   52.8029    9.6748   17.4343 H   0  0  0  0  0  0  0  0  0  0  0  0
   46.0543    6.1618   23.7801 H   0  0  0  0  0  0  0  0  0  0  0  0
   46.9409    5.2254   24.9872 H   0  0  0  0  0  0  0  0  0  0  0  0
   47.4037    6.9112   24.7177 H   0  0  0  0  0  0  0  0  0  0  0  0
   50.1051    5.0886   17.5996 H   0  0  0  0  0  0  0  0  0  0  0  0
   48.7764    4.2765   19.5084 H   0  0  0  0  0  0  0  0  0  0  0  0
   50.1617    9.0491   19.3188 H   0  0  0  0  0  0  0  0  0  0  0  0
   48.8301    8.2372   21.2297 H   0  0  0  0  0  0  0  0  0  0  0  0
   51.9013    7.1970   15.6425 H   0  0  0  0  0  0  0  0  0  0  0  0
   47.0259    6.1256   23.1806 H   0  0  0  0  0  0  0  0  0  0  0  0
 14  7  2  0
 15  8  1  0
 16 11  1  0
 17 15  2  0
 18 13  1  0
  2 19  1  6
 20 13  2  0
 21  9  1  0
  4  7  1  0
 16  9  1  0
  6 10  1  0
 18 12  1  0
 17 14  1  0
 14 22  1  0
 22 23  1  0
  2  1  1  0
  3  1  1  0
  3  4  1  0
  5  1  1  0
  6  2  1  0
  7  5  1  0
  8  5  2  0
  6  9  1  0
 10  8  1  0
  1 11  1  6
 12  2  1  0
 13  3  1  0
 37 30  2  0
 38 31  1  0
 39 34  1  0
 40 38  2  0
 41 36  1  0
 25 42  1  1
 43 36  2  0
 44 32  1  0
 27 30  1  0
 39 32  1  0
 29 33  1  0
 41 35  1  0
 40 37  1  0
 37 45  1  0
 45 46  1  0
 25 24  1  0
 26 24  1  0
 26 27  1  0
 28 24  1  0
 29 25  1  0
 30 28  1  0
 31 28  2  0
 29 32  1  0
 33 31  1  0
 24 34  1  1
 35 25  1  0
 36 26  1  0
 48 49  1  0
 49 56  2  0
 50 47  1  0
 51 48  2  0
 52 47  2  0
 53 50  1  0
 54 53  2  0
 55 50  2  0
 56 55  1  0
 57 47  1  0
 58 48  1  0
 49 54  1  0
  3 59  1  6
  6 60  1  1
 10 61  1  0
 10 62  1  0
 11 63  1  0
 11 64  1  0
 12 65  1  0
 12 66  1  0
 15 67  1  0
 16 68  1  0
 16 69  1  0
 17 70  1  0
 18 71  1  0
 18 72  1  0
 19 73  1  0
 21 74  1  0
 21 75  1  0
 21 76  1  0
 23 77  1  0
 23 78  1  0
 23 79  1  0
 26 80  1  1
 29 81  1  6
 33 82  1  0
 33 83  1  0
 34 84  1  0
 34 85  1  0
 35 86  1  0
 35 87  1  0
 38 88  1  0
 39 89  1  0
 39 90  1  0
 40 91  1  0
 41 92  1  0
 41 93  1  0
 42 94  1  0
 44 95  1  0
 44 96  1  0
 44 97  1  0
 46 98  1  0
 46 99  1  0
 46100  1  0
 53101  1  0
 54102  1  0
 55103  1  0
 56104  1  0
 57105  1  0
 58106  1  0
M  END
> <Uni-Dock RESULT> 
ENERGY=   -5.080  LOWER_BOUND=    4.235  UPPER_BOUND=    6.096
INTER + INTRA:          -5.080
INTER:                  -5.080
INTRA:                   0.000
UNBOUND:                 0.000

$$$$
