
     RDKit          3D

106114  0  0  0  0  0  0  0  0999 V2000
   47.8964   11.3533   20.7634 C   0  0  2  0  0  0  0  0  0  0  0  0
   48.7745   11.4221   22.0182 C   0  0  2  0  0  0  0  0  0  0  0  0
   46.8960   10.1977   20.6392 C   0  0  1  0  0  0  0  0  0  0  0  0
   46.7803    9.8888   19.2142 O   0  0  0  0  0  0  0  0  0  0  0  0
   48.7365   11.0011   19.5845 C   0  0  0  0  0  0  0  0  0  0  0  0
   49.9017   12.4719   21.7140 C   0  0  2  0  0  0  0  0  0  0  0  0
   48.0159   10.2220   18.7008 C   0  0  0  0  0  0  0  0  0  0  0  0
   50.0524   11.3677   19.3801 C   0  0  0  0  0  0  0  0  0  0  0  0
   49.2091   13.7963   21.6162 N   0  0  0  0  0  0  0  0  0  0  0  0
   50.7949   12.0614   20.4915 C   0  0  0  0  0  0  0  0  0  0  0  0
   47.2341   12.7282   20.5052 C   0  0  0  0  0  0  0  0  0  0  0  0
   49.2864   10.0433   22.4477 C   0  0  0  0  0  0  0  0  0  0  0  0
   47.2924    8.9251   21.4087 C   0  0  0  0  0  0  0  0  0  0  0  0
   48.5501    9.8541   17.4808 C   0  0  0  0  0  0  0  0  0  0  0  0
   50.6215   10.9916   18.1654 C   0  0  0  0  0  0  0  0  0  0  0  0
   48.2594   13.8744   20.4936 C   0  0  0  0  0  0  0  0  0  0  0  0
   49.8693   10.2610   17.2149 C   0  0  0  0  0  0  0  0  0  0  0  0
   48.1164    9.0889   22.6639 C   0  0  0  0  0  0  0  0  0  0  0  0
   47.9876   11.9113   23.1238 O   0  0  0  0  0  0  0  0  0  0  0  0
   46.8689    7.8077   21.0934 O   0  0  0  0  0  0  0  0  0  0  0  0
   50.1460   14.9190   21.5775 C   0  0  0  0  0  0  0  0  0  0  0  0
   47.7503    9.1281   16.6508 O   0  0  0  0  0  0  0  0  0  0  0  0
   48.2556    8.8485   15.3524 C   0  0  0  0  0  0  0  0  0  0  0  0
   49.3250   12.1268   19.7687 C   0  0  2  0  0  0  0  0  0  0  0  0
   48.2838   12.9819   20.4973 C   0  0  2  0  0  0  0  0  0  0  0  0
   49.4169   12.2342   18.2387 C   0  0  1  0  0  0  0  0  0  0  0  0
   49.8586   10.9315   17.7503 O   0  0  0  0  0  0  0  0  0  0  0  0
   48.8966   10.6936   19.8078 C   0  0  0  0  0  0  0  0  0  0  0  0
   48.1791   12.3728   21.9491 C   0  0  2  0  0  0  0  0  0  0  0  0
   49.2964   10.0504   18.6502 C   0  0  0  0  0  0  0  0  0  0  0  0
   48.1664   10.0746   20.8060 C   0  0  0  0  0  0  0  0  0  0  0  0
   49.4829   12.2527   22.6558 N   0  0  0  0  0  0  0  0  0  0  0  0
   47.5964   10.9166   21.9210 C   0  0  0  0  0  0  0  0  0  0  0  0
   50.7179   12.2383   20.4447 C   0  0  0  0  0  0  0  0  0  0  0  0
   46.9389   13.0118   19.7443 C   0  0  0  0  0  0  0  0  0  0  0  0
   48.0955   12.6310   17.5498 C   0  0  0  0  0  0  0  0  0  0  0  0
   49.0936    8.6946   18.4838 C   0  0  0  0  0  0  0  0  0  0  0  0
   47.9198    8.7125   20.6442 C   0  0  0  0  0  0  0  0  0  0  0  0
   50.6746   12.6600   21.9260 C   0  0  0  0  0  0  0  0  0  0  0  0
   48.4004    8.0254   19.5046 C   0  0  0  0  0  0  0  0  0  0  0  0
   47.1331   13.5121   18.3164 C   0  0  0  0  0  0  0  0  0  0  0  0
   48.6535   14.3717   20.5601 O   0  0  0  0  0  0  0  0  0  0  0  0
   47.8478   12.3251   16.3837 O   0  0  0  0  0  0  0  0  0  0  0  0
   49.4486   12.8347   23.9951 C   0  0  0  0  0  0  0  0  0  0  0  0
   49.5547    8.1361   17.3288 O   0  0  0  0  0  0  0  0  0  0  0  0
   49.5411    6.7187   17.2530 C   0  0  0  0  0  0  0  0  0  0  0  0
   48.7823   10.2181   17.4760 C   0  0  0  0  0  0  0  0  0  0  0  0
   48.9544   12.3463   22.8377 C   0  0  0  0  0  0  0  0  0  0  0  0
   48.9263   11.8187   21.4526 C   0  0  0  0  0  0  0  0  0  0  0  0
   48.8092   10.7456   18.8613 C   0  0  0  0  0  0  0  0  0  0  0  0
   48.3361   11.8952   23.7842 O   0  0  0  0  0  0  0  0  0  0  0  0
   49.4131   10.6607   16.5340 O   0  0  0  0  0  0  0  0  0  0  0  0
   49.6348   11.8443   19.1348 C   0  0  0  0  0  0  0  0  0  0  0  0
   49.6922   12.3820   20.4248 C   0  0  0  0  0  0  0  0  0  0  0  0
   48.0448   10.1807   19.8897 C   0  0  0  0  0  0  0  0  0  0  0  0
   48.1030   10.7176   21.1803 C   0  0  0  0  0  0  0  0  0  0  0  0
   47.9593    9.1633   17.3338 O   0  0  0  0  0  0  0  0  0  0  0  0
   49.7585   13.4161   22.9746 O   0  0  0  0  0  0  0  0  0  0  0  0
   45.9045   10.4899   21.0068 H   0  0  0  0  0  0  0  0  0  0  0  0
   50.5469   12.5265   22.6008 H   0  0  0  0  0  0  0  0  0  0  0  0
   51.5489   11.3557   20.8613 H   0  0  0  0  0  0  0  0  0  0  0  0
   51.3385   12.9210   20.0912 H   0  0  0  0  0  0  0  0  0  0  0  0
   46.6900   12.7418   19.5523 H   0  0  0  0  0  0  0  0  0  0  0  0
   46.4871   12.9255   21.2862 H   0  0  0  0  0  0  0  0  0  0  0  0
   49.8382   10.1311   23.3915 H   0  0  0  0  0  0  0  0  0  0  0  0
   49.9788    9.6179   21.7140 H   0  0  0  0  0  0  0  0  0  0  0  0
   51.6555   11.2459   17.9431 H   0  0  0  0  0  0  0  0  0  0  0  0
   47.7052   14.8194   20.5544 H   0  0  0  0  0  0  0  0  0  0  0  0
   48.7892   13.8950   19.5337 H   0  0  0  0  0  0  0  0  0  0  0  0
   50.3654   10.0007   16.2849 H   0  0  0  0  0  0  0  0  0  0  0  0
   47.4518    9.4379   23.4586 H   0  0  0  0  0  0  0  0  0  0  0  0
   48.5013    8.1102   22.9622 H   0  0  0  0  0  0  0  0  0  0  0  0
   48.0790   12.8898   23.0865 H   0  0  0  0  0  0  0  0  0  0  0  0
   50.8494   14.8711   22.4162 H   0  0  0  0  0  0  0  0  0  0  0  0
   49.6048   15.8667   21.6823 H   0  0  0  0  0  0  0  0  0  0  0  0
   50.7183   14.9601   20.6455 H   0  0  0  0  0  0  0  0  0  0  0  0
   49.1403    8.2038   15.4006 H   0  0  0  0  0  0  0  0  0  0  0  0
   48.4702    9.7727   14.8028 H   0  0  0  0  0  0  0  0  0  0  0  0
   47.4788    8.3092   14.8001 H   0  0  0  0  0  0  0  0  0  0  0  0
   50.1556   12.9864   17.9362 H   0  0  0  0  0  0  0  0  0  0  0  0
   47.5021   13.0099   22.5332 H   0  0  0  0  0  0  0  0  0  0  0  0
   47.7562   10.4151   22.8838 H   0  0  0  0  0  0  0  0  0  0  0  0
   46.5099   10.9779   21.7807 H   0  0  0  0  0  0  0  0  0  0  0  0
   51.3229   12.9878   19.9168 H   0  0  0  0  0  0  0  0  0  0  0  0
   51.2716   11.2929   20.3646 H   0  0  0  0  0  0  0  0  0  0  0  0
   46.4540   12.0312   19.7071 H   0  0  0  0  0  0  0  0  0  0  0  0
   46.2433   13.6898   20.2551 H   0  0  0  0  0  0  0  0  0  0  0  0
   47.3473    8.1659   21.3892 H   0  0  0  0  0  0  0  0  0  0  0  0
   50.8053   13.7457   21.9986 H   0  0  0  0  0  0  0  0  0  0  0  0
   51.5586   12.2376   22.4193 H   0  0  0  0  0  0  0  0  0  0  0  0
   48.1792    6.9645   19.4303 H   0  0  0  0  0  0  0  0  0  0  0  0
   47.5099   14.5384   18.2868 H   0  0  0  0  0  0  0  0  0  0  0  0
   46.1671   13.5029   17.7994 H   0  0  0  0  0  0  0  0  0  0  0  0
   49.6167   14.4746   20.6318 H   0  0  0  0  0  0  0  0  0  0  0  0
   49.3216   13.9218   23.9563 H   0  0  0  0  0  0  0  0  0  0  0  0
   48.6298   12.4082   24.5864 H   0  0  0  0  0  0  0  0  0  0  0  0
   50.3746   12.6150   24.5384 H   0  0  0  0  0  0  0  0  0  0  0  0
   50.0467    6.4261   16.3258 H   0  0  0  0  0  0  0  0  0  0  0  0
   48.5155    6.3475   17.2029 H   0  0  0  0  0  0  0  0  0  0  0  0
   50.0855    6.2667   18.0881 H   0  0  0  0  0  0  0  0  0  0  0  0
   50.2380   12.2888   18.3443 H   0  0  0  0  0  0  0  0  0  0  0  0
   50.3411   13.2350   20.6143 H   0  0  0  0  0  0  0  0  0  0  0  0
   47.4009    9.3244   19.7010 H   0  0  0  0  0  0  0  0  0  0  0  0
   47.5060   10.2702   21.9734 H   0  0  0  0  0  0  0  0  0  0  0  0
   48.0461    8.9273   16.3869 H   0  0  0  0  0  0  0  0  0  0  0  0
   49.6820   13.6449   23.9247 H   0  0  0  0  0  0  0  0  0  0  0  0
 14  7  2  0
 15  8  1  0
 16 11  1  0
 17 15  2  0
 18 13  1  0
  2 19  1  6
 20 13  2  0
 21  9  1  0
  4  7  1  0
 16  9  1  0
  6 10  1  0
 18 12  1  0
 17 14  1  0
 14 22  1  0
 22 23  1  0
  2  1  1  0
  3  1  1  0
  3  4  1  0
  5  1  1  0
  6  2  1  0
  7  5  1  0
  8  5  2  0
  6  9  1  0
 10  8  1  0
  1 11  1  6
 12  2  1  0
 13  3  1  0
 37 30  2  0
 38 31  1  0
 39 34  1  0
 40 38  2  0
 41 36  1  0
 25 42  1  6
 43 36  2  0
 44 32  1  0
 27 30  1  0
 39 32  1  0
 29 33  1  0
 41 35  1  0
 40 37  1  0
 37 45  1  0
 45 46  1  0
 25 24  1  0
 26 24  1  0
 26 27  1  0
 28 24  1  0
 29 25  1  0
 30 28  1  0
 31 28  2  0
 29 32  1  0
 33 31  1  0
 24 34  1  1
 35 25  1  0
 36 26  1  0
 48 49  1  0
 49 56  2  0
 50 47  1  0
 51 48  2  0
 52 47  2  0
 53 50  1  0
 54 53  2  0
 55 50  2  0
 56 55  1  0
 57 47  1  0
 58 48  1  0
 49 54  1  0
  3 59  1  6
  6 60  1  1
 10 61  1  0
 10 62  1  0
 11 63  1  0
 11 64  1  0
 12 65  1  0
 12 66  1  0
 15 67  1  0
 16 68  1  0
 16 69  1  0
 17 70  1  0
 18 71  1  0
 18 72  1  0
 19 73  1  0
 21 74  1  0
 21 75  1  0
 21 76  1  0
 23 77  1  0
 23 78  1  0
 23 79  1  0
 26 80  1  1
 29 81  1  6
 33 82  1  0
 33 83  1  0
 34 84  1  0
 34 85  1  0
 35 86  1  0
 35 87  1  0
 38 88  1  0
 39 89  1  0
 39 90  1  0
 40 91  1  0
 41 92  1  0
 41 93  1  0
 42 94  1  0
 44 95  1  0
 44 96  1  0
 44 97  1  0
 46 98  1  0
 46 99  1  0
 46100  1  0
 53101  1  0
 54102  1  0
 55103  1  0
 56104  1  0
 57105  1  0
 58106  1  0
M  END
> <Uni-Dock RESULT> 
ENERGY=   -6.349  LOWER_BOUND=    0.000  UPPER_BOUND=    0.000
INTER + INTRA:          -6.349
INTER:                  -6.349
INTRA:                   0.000
UNBOUND:                 0.000

$$$$

     RDKit          3D

106114  0  0  0  0  0  0  0  0999 V2000
   47.5732    9.3610   20.2096 C   0  0  2  0  0  0  0  0  0  0  0  0
   48.0362    8.8273   21.5700 C   0  0  2  0  0  0  0  0  0  0  0  0
   46.9549    8.3724   19.2135 C   0  0  1  0  0  0  0  0  0  0  0  0
   47.3064    8.8445   17.8745 O   0  0  0  0  0  0  0  0  0  0  0  0
   48.7595    9.7354   19.3898 C   0  0  0  0  0  0  0  0  0  0  0  0
   48.9139    9.9583   22.2150 C   0  0  2  0  0  0  0  0  0  0  0  0
   48.5154    9.4827   18.0542 C   0  0  0  0  0  0  0  0  0  0  0  0
   49.9519   10.2466   19.8637 C   0  0  0  0  0  0  0  0  0  0  0  0
   47.9735   11.0866   22.5075 N   0  0  0  0  0  0  0  0  0  0  0  0
   50.1756   10.3095   21.3516 C   0  0  0  0  0  0  0  0  0  0  0  0
   46.6919   10.6181   20.4065 C   0  0  0  0  0  0  0  0  0  0  0  0
   48.7320    7.4670   21.4564 C   0  0  0  0  0  0  0  0  0  0  0  0
   47.4256    6.9170   19.3836 C   0  0  0  0  0  0  0  0  0  0  0  0
   49.4316    9.8435   17.0849 C   0  0  0  0  0  0  0  0  0  0  0  0
   50.9011   10.6001   18.9073 C   0  0  0  0  0  0  0  0  0  0  0  0
   47.3724   11.6713   21.2971 C   0  0  0  0  0  0  0  0  0  0  0  0
   50.6338   10.4213   17.5290 C   0  0  0  0  0  0  0  0  0  0  0  0
   47.8151    6.4600   20.7695 C   0  0  0  0  0  0  0  0  0  0  0  0
   46.8860    8.6114   22.4134 O   0  0  0  0  0  0  0  0  0  0  0  0
   47.3871    6.1012   18.4560 O   0  0  0  0  0  0  0  0  0  0  0  0
   48.5845   12.1278   23.3337 C   0  0  0  0  0  0  0  0  0  0  0  0
   49.0864    9.6024   15.7893 O   0  0  0  0  0  0  0  0  0  0  0  0
   49.9754   10.0773   14.7875 C   0  0  0  0  0  0  0  0  0  0  0  0
   48.9850   10.6382   20.2737 C   0  0  2  0  0  0  0  0  0  0  0  0
   47.6106   10.9121   20.8922 C   0  0  2  0  0  0  0  0  0  0  0  0
   49.4573   11.5337   19.1179 C   0  0  1  0  0  0  0  0  0  0  0  0
   50.3167   10.7117   18.2717 O   0  0  0  0  0  0  0  0  0  0  0  0
   48.9230    9.3688   19.4840 C   0  0  0  0  0  0  0  0  0  0  0  0
   47.2694    9.6298   21.7460 C   0  0  2  0  0  0  0  0  0  0  0  0
   49.7639    9.4535   18.3888 C   0  0  0  0  0  0  0  0  0  0  0  0
   48.1236    8.2704   19.7433 C   0  0  0  0  0  0  0  0  0  0  0  0
   48.3228    9.2513   22.7261 N   0  0  0  0  0  0  0  0  0  0  0  0
   47.0873    8.3650   20.8361 C   0  0  0  0  0  0  0  0  0  0  0  0
   50.0736   10.4789   21.3688 C   0  0  0  0  0  0  0  0  0  0  0  0
   46.5533   11.2351   19.8179 C   0  0  0  0  0  0  0  0  0  0  0  0
   48.3154   12.1371   18.2751 C   0  0  0  0  0  0  0  0  0  0  0  0
   49.9489    8.3730   17.5490 C   0  0  0  0  0  0  0  0  0  0  0  0
   48.2680    7.1790   18.8887 C   0  0  0  0  0  0  0  0  0  0  0  0
   49.5313   10.0622   22.7495 C   0  0  0  0  0  0  0  0  0  0  0  0
   49.1900    7.2228   17.8164 C   0  0  0  0  0  0  0  0  0  0  0  0
   46.9980   12.4188   18.9644 C   0  0  0  0  0  0  0  0  0  0  0  0
   47.6010   12.0874   21.7233 O   0  0  0  0  0  0  0  0  0  0  0  0
   48.4734   12.4674   17.1000 O   0  0  0  0  0  0  0  0  0  0  0  0
   47.7884    9.0455   24.0698 C   0  0  0  0  0  0  0  0  0  0  0  0
   50.8257    8.5326   16.5174 O   0  0  0  0  0  0  0  0  0  0  0  0
   51.1774    7.3659   15.7896 C   0  0  0  0  0  0  0  0  0  0  0  0
   49.5609   10.1720   17.3335 C   0  0  0  0  0  0  0  0  0  0  0  0
   47.7586    9.1988   22.7289 C   0  0  0  0  0  0  0  0  0  0  0  0
   48.2340    9.4702   21.3512 C   0  0  0  0  0  0  0  0  0  0  0  0
   49.0843    9.9003   18.7109 C   0  0  0  0  0  0  0  0  0  0  0  0
   47.0366    8.2780   23.0646 O   0  0  0  0  0  0  0  0  0  0  0  0
   50.2954   11.0840   17.0019 O   0  0  0  0  0  0  0  0  0  0  0  0
   49.5132   10.7503   19.7389 C   0  0  0  0  0  0  0  0  0  0  0  0
   49.0883   10.5392   21.0547 C   0  0  0  0  0  0  0  0  0  0  0  0
   48.2317    8.8298   19.0076 C   0  0  0  0  0  0  0  0  0  0  0  0
   47.8075    8.6177   20.3238 C   0  0  0  0  0  0  0  0  0  0  0  0
   49.0883    9.2910   16.4331 O   0  0  0  0  0  0  0  0  0  0  0  0
   48.2113   10.0939   23.6254 O   0  0  0  0  0  0  0  0  0  0  0  0
   45.8609    8.3593   19.2946 H   0  0  0  0  0  0  0  0  0  0  0  0
   49.2627    9.5879   23.1881 H   0  0  0  0  0  0  0  0  0  0  0  0
   50.9497    9.5698   21.5899 H   0  0  0  0  0  0  0  0  0  0  0  0
   50.5815   11.2876   21.6222 H   0  0  0  0  0  0  0  0  0  0  0  0
   46.4386   11.0881   19.4478 H   0  0  0  0  0  0  0  0  0  0  0  0
   45.7373   10.3260   20.8651 H   0  0  0  0  0  0  0  0  0  0  0  0
   48.9703    7.0886   22.4579 H   0  0  0  0  0  0  0  0  0  0  0  0
   49.6784    7.5366   20.9103 H   0  0  0  0  0  0  0  0  0  0  0  0
   51.8628   11.0053   19.2141 H   0  0  0  0  0  0  0  0  0  0  0  0
   46.6102   12.4041   21.5902 H   0  0  0  0  0  0  0  0  0  0  0  0
   48.1199   12.2266   20.7182 H   0  0  0  0  0  0  0  0  0  0  0  0
   51.4102   10.7198   16.8312 H   0  0  0  0  0  0  0  0  0  0  0  0
   46.8967    6.2956   21.3392 H   0  0  0  0  0  0  0  0  0  0  0  0
   48.3308    5.4993   20.6912 H   0  0  0  0  0  0  0  0  0  0  0  0
   46.7438    9.4694   22.8725 H   0  0  0  0  0  0  0  0  0  0  0  0
   49.0254   11.6993   24.2406 H   0  0  0  0  0  0  0  0  0  0  0  0
   47.8219   12.8408   23.6683 H   0  0  0  0  0  0  0  0  0  0  0  0
   49.3592   12.6890   22.8020 H   0  0  0  0  0  0  0  0  0  0  0  0
   50.9432    9.5663   14.8405 H   0  0  0  0  0  0  0  0  0  0  0  0
   50.0992   11.1648   14.8503 H   0  0  0  0  0  0  0  0  0  0  0  0
   49.5313    9.8517   13.8122 H   0  0  0  0  0  0  0  0  0  0  0  0
   50.0447   12.3832   19.4870 H   0  0  0  0  0  0  0  0  0  0  0  0
   46.3263    9.8194   22.2753 H   0  0  0  0  0  0  0  0  0  0  0  0
   47.0982    7.4478   21.4384 H   0  0  0  0  0  0  0  0  0  0  0  0
   46.0979    8.4136   20.3645 H   0  0  0  0  0  0  0  0  0  0  0  0
   50.5978   11.4342   21.5066 H   0  0  0  0  0  0  0  0  0  0  0  0
   50.8406    9.7557   21.0598 H   0  0  0  0  0  0  0  0  0  0  0  0
   46.3494   10.3865   19.1574 H   0  0  0  0  0  0  0  0  0  0  0  0
   45.6028   11.4964   20.3003 H   0  0  0  0  0  0  0  0  0  0  0  0
   47.6662    6.2854   19.0329 H   0  0  0  0  0  0  0  0  0  0  0  0
   49.3700   10.9570   23.3616 H   0  0  0  0  0  0  0  0  0  0  0  0
   50.3245    9.5082   23.2664 H   0  0  0  0  0  0  0  0  0  0  0  0
   49.2613    6.3437   17.1824 H   0  0  0  0  0  0  0  0  0  0  0  0
   47.1080   13.3336   19.5537 H   0  0  0  0  0  0  0  0  0  0  0  0
   46.2395   12.6123   18.1978 H   0  0  0  0  0  0  0  0  0  0  0  0
   48.4542   12.2055   22.1722 H   0  0  0  0  0  0  0  0  0  0  0  0
   47.4167    9.9813   24.5007 H   0  0  0  0  0  0  0  0  0  0  0  0
   46.9694    8.3167   24.0581 H   0  0  0  0  0  0  0  0  0  0  0  0
   48.5580    8.6409   24.7367 H   0  0  0  0  0  0  0  0  0  0  0  0
   51.9696    7.6361   15.0823 H   0  0  0  0  0  0  0  0  0  0  0  0
   50.3253    7.0039   15.2107 H   0  0  0  0  0  0  0  0  0  0  0  0
   51.5691    6.5845   16.4485 H   0  0  0  0  0  0  0  0  0  0  0  0
   50.1807   11.5830   19.5211 H   0  0  0  0  0  0  0  0  0  0  0  0
   49.4348   11.2115   21.8373 H   0  0  0  0  0  0  0  0  0  0  0  0
   47.8904    8.1545   18.2260 H   0  0  0  0  0  0  0  0  0  0  0  0
   47.1459    7.7816   20.5446 H   0  0  0  0  0  0  0  0  0  0  0  0
   49.4820    9.5902   15.5873 H   0  0  0  0  0  0  0  0  0  0  0  0
   47.8282    9.7877   24.4741 H   0  0  0  0  0  0  0  0  0  0  0  0
 14  7  2  0
 15  8  1  0
 16 11  1  0
 17 15  2  0
 18 13  1  0
  2 19  1  6
 20 13  2  0
 21  9  1  0
  4  7  1  0
 16  9  1  0
  6 10  1  0
 18 12  1  0
 17 14  1  0
 14 22  1  0
 22 23  1  0
  2  1  1  0
  3  1  1  0
  3  4  1  0
  5  1  1  0
  6  2  1  0
  7  5  1  0
  8  5  2  0
  6  9  1  0
 10  8  1  0
  1 11  1  6
 12  2  1  0
 13  3  1  0
 37 30  2  0
 38 31  1  0
 39 34  1  0
 40 38  2  0
 41 36  1  0
 25 42  1  6
 43 36  2  0
 44 32  1  0
 27 30  1  0
 39 32  1  0
 29 33  1  0
 41 35  1  0
 40 37  1  0
 37 45  1  0
 45 46  1  0
 25 24  1  0
 26 24  1  0
 26 27  1  0
 28 24  1  0
 29 25  1  0
 30 28  1  0
 31 28  2  0
 29 32  1  0
 33 31  1  0
 24 34  1  1
 35 25  1  0
 36 26  1  0
 48 49  1  0
 49 56  2  0
 50 47  1  0
 51 48  2  0
 52 47  2  0
 53 50  1  0
 54 53  2  0
 55 50  2  0
 56 55  1  0
 57 47  1  0
 58 48  1  0
 49 54  1  0
  3 59  1  6
  6 60  1  1
 10 61  1  0
 10 62  1  0
 11 63  1  0
 11 64  1  0
 12 65  1  0
 12 66  1  0
 15 67  1  0
 16 68  1  0
 16 69  1  0
 17 70  1  0
 18 71  1  0
 18 72  1  0
 19 73  1  0
 21 74  1  0
 21 75  1  0
 21 76  1  0
 23 77  1  0
 23 78  1  0
 23 79  1  0
 26 80  1  1
 29 81  1  6
 33 82  1  0
 33 83  1  0
 34 84  1  0
 34 85  1  0
 35 86  1  0
 35 87  1  0
 38 88  1  0
 39 89  1  0
 39 90  1  0
 40 91  1  0
 41 92  1  0
 41 93  1  0
 42 94  1  0
 44 95  1  0
 44 96  1  0
 44 97  1  0
 46 98  1  0
 46 99  1  0
 46100  1  0
 53101  1  0
 54102  1  0
 55103  1  0
 56104  1  0
 57105  1  0
 58106  1  0
M  END
> <Uni-Dock RESULT> 
ENERGY=   -6.228  LOWER_BOUND=    1.445  UPPER_BOUND=    2.279
INTER + INTRA:          -6.228
INTER:                  -6.228
INTRA:                   0.000
UNBOUND:                 0.000

$$$$

     RDKit          3D

106114  0  0  0  0  0  0  0  0999 V2000
   48.1796    9.5705   13.2701 C   0  0  2  0  0  0  0  0  0  0  0  0
   46.9781    8.9986   12.5088 C   0  0  2  0  0  0  0  0  0  0  0  0
   48.3486   11.0938   13.3220 C   0  0  1  0  0  0  0  0  0  0  0  0
   49.7864   11.3593   13.3634 O   0  0  0  0  0  0  0  0  0  0  0  0
   49.4334    9.2683   12.5242 C   0  0  0  0  0  0  0  0  0  0  0  0
   47.2522    7.4621   12.3370 C   0  0  2  0  0  0  0  0  0  0  0  0
   50.3398   10.2989   12.6775 C   0  0  0  0  0  0  0  0  0  0  0  0
   49.6815    8.1410   11.7657 C   0  0  0  0  0  0  0  0  0  0  0  0
   47.1879    6.8804   13.7157 N   0  0  0  0  0  0  0  0  0  0  0  0
   48.5577    7.1696   11.5181 C   0  0  0  0  0  0  0  0  0  0  0  0
   48.2721    8.9254   14.6740 C   0  0  0  0  0  0  0  0  0  0  0  0
   46.7068    9.7480   11.2003 C   0  0  0  0  0  0  0  0  0  0  0  0
   47.7228   11.8460   12.1341 C   0  0  0  0  0  0  0  0  0  0  0  0
   51.6178   10.2024   12.1611 C   0  0  0  0  0  0  0  0  0  0  0  0
   50.9569    8.0288   11.2167 C   0  0  0  0  0  0  0  0  0  0  0  0
   48.2404    7.3891   14.6111 C   0  0  0  0  0  0  0  0  0  0  0  0
   51.9235    9.0400   11.4319 C   0  0  0  0  0  0  0  0  0  0  0  0
   46.5091   11.2354   11.4742 C   0  0  0  0  0  0  0  0  0  0  0  0
   45.7879    9.1589   13.3079 O   0  0  0  0  0  0  0  0  0  0  0  0
   48.1126   12.9662   11.7866 O   0  0  0  0  0  0  0  0  0  0  0  0
   47.1801    5.4176   13.7087 C   0  0  0  0  0  0  0  0  0  0  0  0
   52.4613   11.2443   12.4032 O   0  0  0  0  0  0  0  0  0  0  0  0
   53.8075   11.0957   11.9729 C   0  0  0  0  0  0  0  0  0  0  0  0
   49.1831    8.0325   12.7637 C   0  0  2  0  0  0  0  0  0  0  0  0
   48.3192    8.0609   14.0284 C   0  0  2  0  0  0  0  0  0  0  0  0
   50.6997    7.8418   12.9195 C   0  0  1  0  0  0  0  0  0  0  0  0
   51.3297    8.5477   11.8081 O   0  0  0  0  0  0  0  0  0  0  0  0
   49.2489    9.4103   12.1839 C   0  0  0  0  0  0  0  0  0  0  0  0
   46.9251    8.6436   13.5738 C   0  0  2  0  0  0  0  0  0  0  0  0
   50.4818    9.6135   11.5905 C   0  0  0  0  0  0  0  0  0  0  0  0
   48.2694   10.3845   12.2508 C   0  0  0  0  0  0  0  0  0  0  0  0
   46.3109    7.9281   12.4229 N   0  0  0  0  0  0  0  0  0  0  0  0
   47.0507   10.1353   13.1050 C   0  0  0  0  0  0  0  0  0  0  0  0
   48.5836    7.0809   11.6938 C   0  0  0  0  0  0  0  0  0  0  0  0
   48.9852    8.8705   15.1588 C   0  0  0  0  0  0  0  0  0  0  0  0
   51.2700    8.3559   14.2568 C   0  0  0  0  0  0  0  0  0  0  0  0
   50.7584   10.7814   10.9073 C   0  0  0  0  0  0  0  0  0  0  0  0
   48.5394   11.5853   11.5969 C   0  0  0  0  0  0  0  0  0  0  0  0
   47.0702    6.8317   11.8399 C   0  0  0  0  0  0  0  0  0  0  0  0
   49.7632   11.7713   10.9117 C   0  0  0  0  0  0  0  0  0  0  0  0
   50.3708    8.3154   15.4733 C   0  0  0  0  0  0  0  0  0  0  0  0
   48.1526    6.7571   14.6154 O   0  0  0  0  0  0  0  0  0  0  0  0
   52.4424    8.7117   14.3748 O   0  0  0  0  0  0  0  0  0  0  0  0
   44.9246    7.5451   12.6780 C   0  0  0  0  0  0  0  0  0  0  0  0
   51.9846   10.8804   10.3200 O   0  0  0  0  0  0  0  0  0  0  0  0
   52.1878   11.9781    9.4433 C   0  0  0  0  0  0  0  0  0  0  0  0
   51.6033    9.7741   12.2130 C   0  0  0  0  0  0  0  0  0  0  0  0
   46.0902    8.1987   12.8693 C   0  0  0  0  0  0  0  0  0  0  0  0
   47.5134    8.5782   12.7012 C   0  0  0  0  0  0  0  0  0  0  0  0
   50.1798    9.3954   12.3820 C   0  0  0  0  0  0  0  0  0  0  0  0
   45.1535    8.9706   12.9615 O   0  0  0  0  0  0  0  0  0  0  0  0
   52.5370    9.0009   12.1054 O   0  0  0  0  0  0  0  0  0  0  0  0
   49.8573    8.0322   12.4130 C   0  0  0  0  0  0  0  0  0  0  0  0
   48.5295    7.6232   12.5748 C   0  0  0  0  0  0  0  0  0  0  0  0
   49.1635   10.3507   12.5061 C   0  0  0  0  0  0  0  0  0  0  0  0
   47.8352    9.9418   12.6668 C   0  0  0  0  0  0  0  0  0  0  0  0
   51.7916   11.1061   12.1942 O   0  0  0  0  0  0  0  0  0  0  0  0
   45.9047    6.8669   12.9127 O   0  0  0  0  0  0  0  0  0  0  0  0
   47.8978   11.5124   14.2303 H   0  0  0  0  0  0  0  0  0  0  0  0
   46.4039    7.0376   11.7839 H   0  0  0  0  0  0  0  0  0  0  0  0
   48.2990    7.2446   10.4547 H   0  0  0  0  0  0  0  0  0  0  0  0
   48.9099    6.1484   11.6846 H   0  0  0  0  0  0  0  0  0  0  0  0
   49.1858    9.2308   15.1995 H   0  0  0  0  0  0  0  0  0  0  0  0
   47.4334    9.2746   15.2917 H   0  0  0  0  0  0  0  0  0  0  0  0
   45.7934    9.3593   10.7339 H   0  0  0  0  0  0  0  0  0  0  0  0
   47.5159    9.6107   10.4756 H   0  0  0  0  0  0  0  0  0  0  0  0
   51.2162    7.1670   10.6058 H   0  0  0  0  0  0  0  0  0  0  0  0
   48.0612    7.0165   15.6274 H   0  0  0  0  0  0  0  0  0  0  0  0
   49.2242    7.0047   14.3164 H   0  0  0  0  0  0  0  0  0  0  0  0
   52.9011    8.8943   10.9826 H   0  0  0  0  0  0  0  0  0  0  0  0
   45.6479   11.4157   12.1230 H   0  0  0  0  0  0  0  0  0  0  0  0
   46.3242   11.7535   10.5296 H   0  0  0  0  0  0  0  0  0  0  0  0
   45.7415    8.3460   13.8594 H   0  0  0  0  0  0  0  0  0  0  0  0
   46.3925    5.0335   13.0510 H   0  0  0  0  0  0  0  0  0  0  0  0
   46.9577    5.0361   14.7122 H   0  0  0  0  0  0  0  0  0  0  0  0
   48.1369    4.9912   13.3915 H   0  0  0  0  0  0  0  0  0  0  0  0
   53.8707   11.0300   10.8810 H   0  0  0  0  0  0  0  0  0  0  0  0
   54.2827   10.2296   12.4485 H   0  0  0  0  0  0  0  0  0  0  0  0
   54.3594   11.9881   12.2865 H   0  0  0  0  0  0  0  0  0  0  0  0
   50.9760    6.7821   12.8581 H   0  0  0  0  0  0  0  0  0  0  0  0
   46.2464    8.6032   14.4359 H   0  0  0  0  0  0  0  0  0  0  0  0
   46.1486   10.4507   12.5658 H   0  0  0  0  0  0  0  0  0  0  0  0
   47.1201   10.7758   13.9931 H   0  0  0  0  0  0  0  0  0  0  0  0
   49.0763    6.1013   11.7569 H   0  0  0  0  0  0  0  0  0  0  0  0
   48.7819    7.4536   10.6796 H   0  0  0  0  0  0  0  0  0  0  0  0
   49.0825    9.9333   14.9161 H   0  0  0  0  0  0  0  0  0  0  0  0
   48.3745    8.8080   16.0685 H   0  0  0  0  0  0  0  0  0  0  0  0
   47.8144   12.3951   11.6145 H   0  0  0  0  0  0  0  0  0  0  0  0
   46.9072    5.9147   12.4176 H   0  0  0  0  0  0  0  0  0  0  0  0
   46.6706    6.6096   10.8428 H   0  0  0  0  0  0  0  0  0  0  0  0
   49.9202   12.7269   10.4195 H   0  0  0  0  0  0  0  0  0  0  0  0
   50.3294    7.2840   15.8350 H   0  0  0  0  0  0  0  0  0  0  0  0
   50.8282    8.9213   16.2634 H   0  0  0  0  0  0  0  0  0  0  0  0
   48.1292    6.0665   13.9328 H   0  0  0  0  0  0  0  0  0  0  0  0
   44.8569    6.7876   13.4661 H   0  0  0  0  0  0  0  0  0  0  0  0
   44.3269    8.4143   12.9766 H   0  0  0  0  0  0  0  0  0  0  0  0
   44.4595    7.1418   11.7714 H   0  0  0  0  0  0  0  0  0  0  0  0
   53.1662   11.8514    8.9661 H   0  0  0  0  0  0  0  0  0  0  0  0
   52.2105   12.9158   10.0022 H   0  0  0  0  0  0  0  0  0  0  0  0
   51.4310   12.0063    8.6530 H   0  0  0  0  0  0  0  0  0  0  0  0
   50.6385    7.2800   12.3120 H   0  0  0  0  0  0  0  0  0  0  0  0
   48.3021    6.5590   12.5952 H   0  0  0  0  0  0  0  0  0  0  0  0
   49.3906   11.4143   12.4797 H   0  0  0  0  0  0  0  0  0  0  0  0
   47.0520   10.6923   12.7608 H   0  0  0  0  0  0  0  0  0  0  0  0
   52.7595   11.2019   12.0765 H   0  0  0  0  0  0  0  0  0  0  0  0
   44.9349    6.7702   13.0175 H   0  0  0  0  0  0  0  0  0  0  0  0
 14  7  2  0
 15  8  1  0
 16 11  1  0
 17 15  2  0
 18 13  1  0
  2 19  1  6
 20 13  2  0
 21  9  1  0
  4  7  1  0
 16  9  1  0
  6 10  1  0
 18 12  1  0
 17 14  1  0
 14 22  1  0
 22 23  1  0
  2  1  1  0
  3  1  1  0
  3  4  1  0
  5  1  1  0
  6  2  1  0
  7  5  1  0
  8  5  2  0
  6  9  1  0
 10  8  1  0
  1 11  1  6
 12  2  1  0
 13  3  1  0
 37 30  2  0
 38 31  1  0
 39 34  1  0
 40 38  2  0
 41 36  1  0
 25 42  1  6
 43 36  2  0
 44 32  1  0
 27 30  1  0
 39 32  1  0
 29 33  1  0
 41 35  1  0
 40 37  1  0
 37 45  1  0
 45 46  1  0
 25 24  1  0
 26 24  1  0
 26 27  1  0
 28 24  1  0
 29 25  1  0
 30 28  1  0
 31 28  2  0
 29 32  1  0
 33 31  1  0
 24 34  1  1
 35 25  1  0
 36 26  1  0
 48 49  1  0
 49 56  2  0
 50 47  1  0
 51 48  2  0
 52 47  2  0
 53 50  1  0
 54 53  2  0
 55 50  2  0
 56 55  1  0
 57 47  1  0
 58 48  1  0
 49 54  1  0
  3 59  1  6
  6 60  1  1
 10 61  1  0
 10 62  1  0
 11 63  1  0
 11 64  1  0
 12 65  1  0
 12 66  1  0
 15 67  1  0
 16 68  1  0
 16 69  1  0
 17 70  1  0
 18 71  1  0
 18 72  1  0
 19 73  1  0
 21 74  1  0
 21 75  1  0
 21 76  1  0
 23 77  1  0
 23 78  1  0
 23 79  1  0
 26 80  1  1
 29 81  1  6
 33 82  1  0
 33 83  1  0
 34 84  1  0
 34 85  1  0
 35 86  1  0
 35 87  1  0
 38 88  1  0
 39 89  1  0
 39 90  1  0
 40 91  1  0
 41 92  1  0
 41 93  1  0
 42 94  1  0
 44 95  1  0
 44 96  1  0
 44 97  1  0
 46 98  1  0
 46 99  1  0
 46100  1  0
 53101  1  0
 54102  1  0
 55103  1  0
 56104  1  0
 57105  1  0
 58106  1  0
M  END
> <Uni-Dock RESULT> 
ENERGY=   -5.976  LOWER_BOUND=    6.319  UPPER_BOUND=    8.914
INTER + INTRA:          -5.976
INTER:                  -5.976
INTRA:                   0.000
UNBOUND:                 0.000

$$$$

     RDKit          3D

106114  0  0  0  0  0  0  0  0999 V2000
   49.2386    5.9972   19.4942 C   0  0  2  0  0  0  0  0  0  0  0  0
   50.6754    5.6349   19.1009 C   0  0  2  0  0  0  0  0  0  0  0  0
   48.1958    6.1458   18.3796 C   0  0  1  0  0  0  0  0  0  0  0  0
   47.2440    7.1641   18.8229 O   0  0  0  0  0  0  0  0  0  0  0  0
   49.1938    7.4045   19.9812 C   0  0  0  0  0  0  0  0  0  0  0  0
   51.5607    5.8880   20.3728 C   0  0  2  0  0  0  0  0  0  0  0  0
   47.9962    7.9940   19.6272 C   0  0  0  0  0  0  0  0  0  0  0  0
   50.1922    8.0619   20.6732 C   0  0  0  0  0  0  0  0  0  0  0  0
   51.1321    4.8635   21.3778 N   0  0  0  0  0  0  0  0  0  0  0  0
   51.5257    7.3835   20.8447 C   0  0  0  0  0  0  0  0  0  0  0  0
   48.7498    5.0657   20.6295 C   0  0  0  0  0  0  0  0  0  0  0  0
   51.1399    6.3758   17.8429 C   0  0  0  0  0  0  0  0  0  0  0  0
   48.7764    6.5480   17.0122 C   0  0  0  0  0  0  0  0  0  0  0  0
   47.6785    9.2684   20.0564 C   0  0  0  0  0  0  0  0  0  0  0  0
   49.9046    9.3564   21.1003 C   0  0  0  0  0  0  0  0  0  0  0  0
   49.7338    5.0231   21.8107 C   0  0  0  0  0  0  0  0  0  0  0  0
   48.6500    9.9455   20.8140 C   0  0  0  0  0  0  0  0  0  0  0  0
   50.1831    6.1050   16.6863 C   0  0  0  0  0  0  0  0  0  0  0  0
   50.7406    4.2307   18.7769 O   0  0  0  0  0  0  0  0  0  0  0  0
   48.0961    7.1155   16.1505 O   0  0  0  0  0  0  0  0  0  0  0  0
   52.0257    4.8025   22.5343 C   0  0  0  0  0  0  0  0  0  0  0  0
   46.4550    9.7515   19.7023 O   0  0  0  0  0  0  0  0  0  0  0  0
   46.0815   11.0133   20.2389 C   0  0  0  0  0  0  0  0  0  0  0  0
   49.9337    7.0075   20.9519 C   0  0  2  0  0  0  0  0  0  0  0  0
   49.6295    5.5109   21.0702 C   0  0  2  0  0  0  0  0  0  0  0  0
   49.1484    7.9848   21.8402 C   0  0  1  0  0  0  0  0  0  0  0  0
   49.0422    9.2370   21.0979 O   0  0  0  0  0  0  0  0  0  0  0  0
   49.4074    7.5129   19.6455 C   0  0  0  0  0  0  0  0  0  0  0  0
   50.2890    4.8449   19.8008 C   0  0  2  0  0  0  0  0  0  0  0  0
   48.9778    8.8205   19.7847 C   0  0  0  0  0  0  0  0  0  0  0  0
   49.3006    6.8010   18.4646 C   0  0  0  0  0  0  0  0  0  0  0  0
   51.7298    5.1695   19.6206 N   0  0  0  0  0  0  0  0  0  0  0  0
   49.5962    5.3213   18.4764 C   0  0  0  0  0  0  0  0  0  0  0  0
   51.4617    7.2769   20.9995 C   0  0  0  0  0  0  0  0  0  0  0  0
   48.1163    5.2417   21.1899 C   0  0  0  0  0  0  0  0  0  0  0  0
   47.7427    7.4912   22.2382 C   0  0  0  0  0  0  0  0  0  0  0  0
   48.5274    9.5407   18.6959 C   0  0  0  0  0  0  0  0  0  0  0  0
   48.8163    7.4975   17.3589 C   0  0  0  0  0  0  0  0  0  0  0  0
   52.3331    6.0750   20.5874 C   0  0  0  0  0  0  0  0  0  0  0  0
   48.4562    8.8612   17.4696 C   0  0  0  0  0  0  0  0  0  0  0  0
   47.5276    5.9996   22.3757 C   0  0  0  0  0  0  0  0  0  0  0  0
   50.1605    4.9308   22.2759 O   0  0  0  0  0  0  0  0  0  0  0  0
   46.8325    8.2690   22.5239 O   0  0  0  0  0  0  0  0  0  0  0  0
   52.5499    3.9782   19.4163 C   0  0  0  0  0  0  0  0  0  0  0  0
   48.1608   10.8348   18.9174 O   0  0  0  0  0  0  0  0  0  0  0  0
   47.9063   11.6333   17.7718 C   0  0  0  0  0  0  0  0  0  0  0  0
   47.9148    9.2044   20.4120 C   0  0  0  0  0  0  0  0  0  0  0  0
   51.4198    4.7126   19.4926 C   0  0  0  0  0  0  0  0  0  0  0  0
   50.5307    5.8701   19.7521 C   0  0  0  0  0  0  0  0  0  0  0  0
   48.8030    8.0461   20.1521 C   0  0  0  0  0  0  0  0  0  0  0  0
   51.3976    4.0056   18.5020 O   0  0  0  0  0  0  0  0  0  0  0  0
   47.9485    9.9199   21.3959 O   0  0  0  0  0  0  0  0  0  0  0  0
   49.7817    7.7361   21.1057 C   0  0  0  0  0  0  0  0  0  0  0  0
   50.6417    6.6505   20.9093 C   0  0  0  0  0  0  0  0  0  0  0  0
   48.6934    7.2671   18.9936 C   0  0  0  0  0  0  0  0  0  0  0  0
   49.5541    6.1820   18.7964 C   0  0  0  0  0  0  0  0  0  0  0  0
   47.0193    9.4079   19.4287 O   0  0  0  0  0  0  0  0  0  0  0  0
   52.2991    4.4940   20.4871 O   0  0  0  0  0  0  0  0  0  0  0  0
   47.6459    5.2095   18.2232 H   0  0  0  0  0  0  0  0  0  0  0  0
   52.5969    5.6421   20.1051 H   0  0  0  0  0  0  0  0  0  0  0  0
   52.2468    7.9362   20.2300 H   0  0  0  0  0  0  0  0  0  0  0  0
   51.8576    7.4800   21.8816 H   0  0  0  0  0  0  0  0  0  0  0  0
   47.7673    5.3729   21.0093 H   0  0  0  0  0  0  0  0  0  0  0  0
   48.6206    4.0481   20.2360 H   0  0  0  0  0  0  0  0  0  0  0  0
   52.1379    6.0244   17.5540 H   0  0  0  0  0  0  0  0  0  0  0  0
   51.2200    7.4548   18.0105 H   0  0  0  0  0  0  0  0  0  0  0  0
   50.6491    9.9305   21.6473 H   0  0  0  0  0  0  0  0  0  0  0  0
   49.4541    4.1752   22.4484 H   0  0  0  0  0  0  0  0  0  0  0  0
   49.6161    5.9202   22.4303 H   0  0  0  0  0  0  0  0  0  0  0  0
   48.4825   10.9549   21.1770 H   0  0  0  0  0  0  0  0  0  0  0  0
   50.1497    5.0428   16.4300 H   0  0  0  0  0  0  0  0  0  0  0  0
   50.5265    6.6469   15.8012 H   0  0  0  0  0  0  0  0  0  0  0  0
   50.9314    3.7821   19.6310 H   0  0  0  0  0  0  0  0  0  0  0  0
   53.0670    4.6743   22.2181 H   0  0  0  0  0  0  0  0  0  0  0  0
   51.7821    3.9320   23.1546 H   0  0  0  0  0  0  0  0  0  0  0  0
   51.9612    5.6940   23.1659 H   0  0  0  0  0  0  0  0  0  0  0  0
   46.7330   11.8118   19.8668 H   0  0  0  0  0  0  0  0  0  0  0  0
   46.0712   10.9908   21.3350 H   0  0  0  0  0  0  0  0  0  0  0  0
   45.0618   11.2306   19.9039 H   0  0  0  0  0  0  0  0  0  0  0  0
   49.6787    8.1827   22.7797 H   0  0  0  0  0  0  0  0  0  0  0  0
   50.1657    3.7575   19.8892 H   0  0  0  0  0  0  0  0  0  0  0  0
   50.2050    5.0574   17.6025 H   0  0  0  0  0  0  0  0  0  0  0  0
   48.6466    4.7829   18.3658 H   0  0  0  0  0  0  0  0  0  0  0  0
   51.7547    7.5480   22.0228 H   0  0  0  0  0  0  0  0  0  0  0  0
   51.7299    8.1371   20.3710 H   0  0  0  0  0  0  0  0  0  0  0  0
   47.5646    5.5236   20.2876 H   0  0  0  0  0  0  0  0  0  0  0  0
   47.9420    4.1695   21.3458 H   0  0  0  0  0  0  0  0  0  0  0  0
   48.7024    6.9962   16.4011 H   0  0  0  0  0  0  0  0  0  0  0  0
   52.6336    5.5199   21.4834 H   0  0  0  0  0  0  0  0  0  0  0  0
   53.2700    6.4681   20.1738 H   0  0  0  0  0  0  0  0  0  0  0  0
   48.0851    9.3544   16.5757 H   0  0  0  0  0  0  0  0  0  0  0  0
   47.9601    5.6770   23.3271 H   0  0  0  0  0  0  0  0  0  0  0  0
   46.4500    5.8073   22.4241 H   0  0  0  0  0  0  0  0  0  0  0  0
   50.9945    5.3580   22.5319 H   0  0  0  0  0  0  0  0  0  0  0  0
   52.5787    3.3528   20.3149 H   0  0  0  0  0  0  0  0  0  0  0  0
   52.1660    3.3766   18.5840 H   0  0  0  0  0  0  0  0  0  0  0  0
   53.5779    4.2539   19.1553 H   0  0  0  0  0  0  0  0  0  0  0  0
   47.7434   12.6634   18.1085 H   0  0  0  0  0  0  0  0  0  0  0  0
   46.9963   11.3014   17.2678 H   0  0  0  0  0  0  0  0  0  0  0  0
   48.7599   11.6361   17.0866 H   0  0  0  0  0  0  0  0  0  0  0  0
   49.8801    8.3380   22.0081 H   0  0  0  0  0  0  0  0  0  0  0  0
   51.3949    6.4287   21.6629 H   0  0  0  0  0  0  0  0  0  0  0  0
   47.9442    7.4928   18.2378 H   0  0  0  0  0  0  0  0  0  0  0  0
   49.4619    5.5834   17.8916 H   0  0  0  0  0  0  0  0  0  0  0  0
   46.5148   10.1908   19.7328 H   0  0  0  0  0  0  0  0  0  0  0  0
   52.8128    3.7187   20.1775 H   0  0  0  0  0  0  0  0  0  0  0  0
 14  7  2  0
 15  8  1  0
 16 11  1  0
 17 15  2  0
 18 13  1  0
  2 19  1  6
 20 13  2  0
 21  9  1  0
  4  7  1  0
 16  9  1  0
  6 10  1  0
 18 12  1  0
 17 14  1  0
 14 22  1  0
 22 23  1  0
  2  1  1  0
  3  1  1  0
  3  4  1  0
  5  1  1  0
  6  2  1  0
  7  5  1  0
  8  5  2  0
  6  9  1  0
 10  8  1  0
  1 11  1  6
 12  2  1  0
 13  3  1  0
 37 30  2  0
 38 31  1  0
 39 34  1  0
 40 38  2  0
 41 36  1  0
 25 42  1  6
 43 36  2  0
 44 32  1  0
 27 30  1  0
 39 32  1  0
 29 33  1  0
 41 35  1  0
 40 37  1  0
 37 45  1  0
 45 46  1  0
 25 24  1  0
 26 24  1  0
 26 27  1  0
 28 24  1  0
 29 25  1  0
 30 28  1  0
 31 28  2  0
 29 32  1  0
 33 31  1  0
 24 34  1  1
 35 25  1  0
 36 26  1  0
 48 49  1  0
 49 56  2  0
 50 47  1  0
 51 48  2  0
 52 47  2  0
 53 50  1  0
 54 53  2  0
 55 50  2  0
 56 55  1  0
 57 47  1  0
 58 48  1  0
 49 54  1  0
  3 59  1  6
  6 60  1  1
 10 61  1  0
 10 62  1  0
 11 63  1  0
 11 64  1  0
 12 65  1  0
 12 66  1  0
 15 67  1  0
 16 68  1  0
 16 69  1  0
 17 70  1  0
 18 71  1  0
 18 72  1  0
 19 73  1  0
 21 74  1  0
 21 75  1  0
 21 76  1  0
 23 77  1  0
 23 78  1  0
 23 79  1  0
 26 80  1  1
 29 81  1  6
 33 82  1  0
 33 83  1  0
 34 84  1  0
 34 85  1  0
 35 86  1  0
 35 87  1  0
 38 88  1  0
 39 89  1  0
 39 90  1  0
 40 91  1  0
 41 92  1  0
 41 93  1  0
 42 94  1  0
 44 95  1  0
 44 96  1  0
 44 97  1  0
 46 98  1  0
 46 99  1  0
 46100  1  0
 53101  1  0
 54102  1  0
 55103  1  0
 56104  1  0
 57105  1  0
 58106  1  0
M  END
> <Uni-Dock RESULT> 
ENERGY=   -5.645  LOWER_BOUND=    2.977  UPPER_BOUND=    6.182
INTER + INTRA:          -5.645
INTER:                  -5.645
INTRA:                   0.000
UNBOUND:                 0.000

$$$$

     RDKit          3D

106114  0  0  0  0  0  0  0  0999 V2000
   47.9939    8.1453   20.4686 C   0  0  2  0  0  0  0  0  0  0  0  0
   47.6541    9.5993   20.8160 C   0  0  2  0  0  0  0  0  0  0  0  0
   47.6356    7.0531   21.4837 C   0  0  1  0  0  0  0  0  0  0  0  0
   48.6493    6.0064   21.3553 O   0  0  0  0  0  0  0  0  0  0  0  0
   49.4712    7.9556   20.5032 C   0  0  0  0  0  0  0  0  0  0  0  0
   48.4267   10.4945   19.7830 C   0  0  2  0  0  0  0  0  0  0  0  0
   49.7788    6.6859   20.9508 C   0  0  0  0  0  0  0  0  0  0  0  0
   50.4239    8.8954   20.1615 C   0  0  0  0  0  0  0  0  0  0  0  0
   47.7914   10.2235   18.4540 N   0  0  0  0  0  0  0  0  0  0  0  0
   49.9817   10.3037   19.8632 C   0  0  0  0  0  0  0  0  0  0  0  0
   47.4856    7.8086   19.0460 C   0  0  0  0  0  0  0  0  0  0  0  0
   47.9392    9.9296   22.2847 C   0  0  0  0  0  0  0  0  0  0  0  0
   47.5779    7.5339   22.9446 C   0  0  0  0  0  0  0  0  0  0  0  0
   51.0860    6.2386   20.9725 C   0  0  0  0  0  0  0  0  0  0  0  0
   51.7519    8.4756   20.1944 C   0  0  0  0  0  0  0  0  0  0  0  0
   47.9606    8.8325   18.0014 C   0  0  0  0  0  0  0  0  0  0  0  0
   52.0779    7.1519   20.5745 C   0  0  0  0  0  0  0  0  0  0  0  0
   47.1843    8.9698   23.1986 C   0  0  0  0  0  0  0  0  0  0  0  0
   46.2397    9.8148   20.6319 O   0  0  0  0  0  0  0  0  0  0  0  0
   47.7337    6.7620   23.8971 O   0  0  0  0  0  0  0  0  0  0  0  0
   48.2318   11.1591   17.4193 C   0  0  0  0  0  0  0  0  0  0  0  0
   51.2923    4.9555   21.3811 O   0  0  0  0  0  0  0  0  0  0  0  0
   52.6206    4.4582   21.2939 C   0  0  0  0  0  0  0  0  0  0  0  0
   49.5184    8.7708   19.5129 C   0  0  2  0  0  0  0  0  0  0  0  0
   48.1403    8.6461   18.8558 C   0  0  2  0  0  0  0  0  0  0  0  0
   50.6682    7.9101   18.9670 C   0  0  1  0  0  0  0  0  0  0  0  0
   51.5578    7.6333   20.0906 O   0  0  0  0  0  0  0  0  0  0  0  0
   49.4728    8.1431   20.8704 C   0  0  0  0  0  0  0  0  0  0  0  0
   47.1321    9.3322   19.8572 C   0  0  2  0  0  0  0  0  0  0  0  0
   50.6969    7.5705   21.1662 C   0  0  0  0  0  0  0  0  0  0  0  0
   48.3803    8.0770   21.7159 C   0  0  0  0  0  0  0  0  0  0  0  0
   47.5072   10.7184   20.2464 N   0  0  0  0  0  0  0  0  0  0  0  0
   47.0373    8.5420   21.2090 C   0  0  0  0  0  0  0  0  0  0  0  0
   49.9316   10.2581   19.6766 C   0  0  0  0  0  0  0  0  0  0  0  0
   47.7884    7.1794   18.5371 C   0  0  0  0  0  0  0  0  0  0  0  0
   50.2171    6.5860   18.3179 C   0  0  0  0  0  0  0  0  0  0  0  0
   50.9356    7.0010   22.4014 C   0  0  0  0  0  0  0  0  0  0  0  0
   48.5878    7.4761   22.9562 C   0  0  0  0  0  0  0  0  0  0  0  0
   48.7507   11.2473   19.7056 C   0  0  0  0  0  0  0  0  0  0  0  0
   49.8606    6.9650   23.3033 C   0  0  0  0  0  0  0  0  0  0  0  0
   48.8590    6.5499   17.6513 C   0  0  0  0  0  0  0  0  0  0  0  0
   48.0811    9.2835   17.5665 O   0  0  0  0  0  0  0  0  0  0  0  0
   50.9549    5.6029   18.2556 O   0  0  0  0  0  0  0  0  0  0  0  0
   46.4053   11.6629   20.0812 C   0  0  0  0  0  0  0  0  0  0  0  0
   52.1825    6.4954   22.6203 O   0  0  0  0  0  0  0  0  0  0  0  0
   52.4925    6.1094   23.9506 C   0  0  0  0  0  0  0  0  0  0  0  0
   51.1756    6.4933   20.6356 C   0  0  0  0  0  0  0  0  0  0  0  0
   47.0073   10.4590   20.1829 C   0  0  0  0  0  0  0  0  0  0  0  0
   48.0909    9.4518   20.2795 C   0  0  0  0  0  0  0  0  0  0  0  0
   50.0911    7.4996   20.5390 C   0  0  0  0  0  0  0  0  0  0  0  0
   45.9952   10.4831   20.8587 O   0  0  0  0  0  0  0  0  0  0  0  0
   52.1944    6.4793   19.9698 O   0  0  0  0  0  0  0  0  0  0  0  0
   50.2359    8.5412   19.6130 C   0  0  0  0  0  0  0  0  0  0  0  0
   49.2389    9.5133   19.4804 C   0  0  0  0  0  0  0  0  0  0  0  0
   48.9441    7.4393   21.3400 C   0  0  0  0  0  0  0  0  0  0  0  0
   47.9472    8.4121   21.2083 C   0  0  0  0  0  0  0  0  0  0  0  0
   50.9292    5.5457   21.5583 O   0  0  0  0  0  0  0  0  0  0  0  0
   47.2421   11.3927   19.2433 O   0  0  0  0  0  0  0  0  0  0  0  0
   46.6571    6.6099   21.2610 H   0  0  0  0  0  0  0  0  0  0  0  0
   48.2018   11.5418   20.0240 H   0  0  0  0  0  0  0  0  0  0  0  0
   50.3453   10.9336   20.6844 H   0  0  0  0  0  0  0  0  0  0  0  0
   50.4722   10.6592   18.9535 H   0  0  0  0  0  0  0  0  0  0  0  0
   47.8127    6.8113   18.7257 H   0  0  0  0  0  0  0  0  0  0  0  0
   46.3873    7.7838   19.0476 H   0  0  0  0  0  0  0  0  0  0  0  0
   47.6049   10.9505   22.5058 H   0  0  0  0  0  0  0  0  0  0  0  0
   49.0095    9.8904   22.5118 H   0  0  0  0  0  0  0  0  0  0  0  0
   52.5514    9.1678   19.9400 H   0  0  0  0  0  0  0  0  0  0  0  0
   47.3728    8.6758   17.0883 H   0  0  0  0  0  0  0  0  0  0  0  0
   49.0038    8.6342   17.7281 H   0  0  0  0  0  0  0  0  0  0  0  0
   53.1295    6.8819   20.5764 H   0  0  0  0  0  0  0  0  0  0  0  0
   46.1025    9.0502   23.0636 H   0  0  0  0  0  0  0  0  0  0  0  0
   47.4057    9.2162   24.2403 H   0  0  0  0  0  0  0  0  0  0  0  0
   46.1450   10.0866   19.6915 H   0  0  0  0  0  0  0  0  0  0  0  0
   48.0994   12.1961   17.7472 H   0  0  0  0  0  0  0  0  0  0  0  0
   47.6203   11.0401   16.5172 H   0  0  0  0  0  0  0  0  0  0  0  0
   49.2792   11.0146   17.1368 H   0  0  0  0  0  0  0  0  0  0  0  0
   53.2926    4.9992   21.9694 H   0  0  0  0  0  0  0  0  0  0  0  0
   52.9891    4.4899   20.2618 H   0  0  0  0  0  0  0  0  0  0  0  0
   52.6061    3.4089   21.6068 H   0  0  0  0  0  0  0  0  0  0  0  0
   51.2374    8.4473   18.1986 H   0  0  0  0  0  0  0  0  0  0  0  0
   46.1410    9.3387   19.3848 H   0  0  0  0  0  0  0  0  0  0  0  0
   46.5388    9.1455   21.9780 H   0  0  0  0  0  0  0  0  0  0  0  0
   46.4068    7.6576   21.0530 H   0  0  0  0  0  0  0  0  0  0  0  0
   50.5759   10.5542   18.8378 H   0  0  0  0  0  0  0  0  0  0  0  0
   50.5330   10.4023   20.5845 H   0  0  0  0  0  0  0  0  0  0  0  0
   47.6764    6.5669   19.4372 H   0  0  0  0  0  0  0  0  0  0  0  0
   46.8305    7.1360   18.0032 H   0  0  0  0  0  0  0  0  0  0  0  0
   47.7699    7.3866   23.6666 H   0  0  0  0  0  0  0  0  0  0  0  0
   48.5825   11.6418   18.6970 H   0  0  0  0  0  0  0  0  0  0  0  0
   49.0582   12.1170   20.2992 H   0  0  0  0  0  0  0  0  0  0  0  0
   49.9653    6.5075   24.2830 H   0  0  0  0  0  0  0  0  0  0  0  0
   48.9391    7.0507   16.6822 H   0  0  0  0  0  0  0  0  0  0  0  0
   48.5946    5.5042   17.4586 H   0  0  0  0  0  0  0  0  0  0  0  0
   48.6489   10.0711   17.5392 H   0  0  0  0  0  0  0  0  0  0  0  0
   46.1466   11.7960   19.0253 H   0  0  0  0  0  0  0  0  0  0  0  0
   45.5130   11.3216   20.6192 H   0  0  0  0  0  0  0  0  0  0  0  0
   46.6667   12.6421   20.4980 H   0  0  0  0  0  0  0  0  0  0  0  0
   53.5544    5.8407   23.9847 H   0  0  0  0  0  0  0  0  0  0  0  0
   51.9177    5.2264   24.2372 H   0  0  0  0  0  0  0  0  0  0  0  0
   52.3326    6.9318   24.6550 H   0  0  0  0  0  0  0  0  0  0  0  0
   51.1261    8.6016   18.9884 H   0  0  0  0  0  0  0  0  0  0  0  0
   49.3730   10.3136   18.7552 H   0  0  0  0  0  0  0  0  0  0  0  0
   48.8132    6.6424   22.0689 H   0  0  0  0  0  0  0  0  0  0  0  0
   47.0598    8.3574   21.8368 H   0  0  0  0  0  0  0  0  0  0  0  0
   51.7172    4.9652   21.5108 H   0  0  0  0  0  0  0  0  0  0  0  0
   46.4602   11.9812   19.2992 H   0  0  0  0  0  0  0  0  0  0  0  0
 14  7  2  0
 15  8  1  0
 16 11  1  0
 17 15  2  0
 18 13  1  0
  2 19  1  6
 20 13  2  0
 21  9  1  0
  4  7  1  0
 16  9  1  0
  6 10  1  0
 18 12  1  0
 17 14  1  0
 14 22  1  0
 22 23  1  0
  2  1  1  0
  3  1  1  0
  3  4  1  0
  5  1  1  0
  6  2  1  0
  7  5  1  0
  8  5  2  0
  6  9  1  0
 10  8  1  0
  1 11  1  6
 12  2  1  0
 13  3  1  0
 37 30  2  0
 38 31  1  0
 39 34  1  0
 40 38  2  0
 41 36  1  0
 25 42  1  6
 43 36  2  0
 44 32  1  0
 27 30  1  0
 39 32  1  0
 29 33  1  0
 41 35  1  0
 40 37  1  0
 37 45  1  0
 45 46  1  0
 25 24  1  0
 26 24  1  0
 26 27  1  0
 28 24  1  0
 29 25  1  0
 30 28  1  0
 31 28  2  0
 29 32  1  0
 33 31  1  0
 24 34  1  1
 35 25  1  0
 36 26  1  0
 48 49  1  0
 49 56  2  0
 50 47  1  0
 51 48  2  0
 52 47  2  0
 53 50  1  0
 54 53  2  0
 55 50  2  0
 56 55  1  0
 57 47  1  0
 58 48  1  0
 49 54  1  0
  3 59  1  6
  6 60  1  1
 10 61  1  0
 10 62  1  0
 11 63  1  0
 11 64  1  0
 12 65  1  0
 12 66  1  0
 15 67  1  0
 16 68  1  0
 16 69  1  0
 17 70  1  0
 18 71  1  0
 18 72  1  0
 19 73  1  0
 21 74  1  0
 21 75  1  0
 21 76  1  0
 23 77  1  0
 23 78  1  0
 23 79  1  0
 26 80  1  1
 29 81  1  6
 33 82  1  0
 33 83  1  0
 34 84  1  0
 34 85  1  0
 35 86  1  0
 35 87  1  0
 38 88  1  0
 39 89  1  0
 39 90  1  0
 40 91  1  0
 41 92  1  0
 41 93  1  0
 42 94  1  0
 44 95  1  0
 44 96  1  0
 44 97  1  0
 46 98  1  0
 46 99  1  0
 46100  1  0
 53101  1  0
 54102  1  0
 55103  1  0
 56104  1  0
 57105  1  0
 58106  1  0
M  END
> <Uni-Dock RESULT> 
ENERGY=   -5.591  LOWER_BOUND=    2.557  UPPER_BOUND=    4.556
INTER + INTRA:          -5.591
INTER:                  -5.591
INTRA:                   0.000
UNBOUND:                 0.000

$$$$

     RDKit          3D

106114  0  0  0  0  0  0  0  0999 V2000
   48.2474   12.7617   18.9996 C   0  0  2  0  0  0  0  0  0  0  0  0
   49.0394   13.1133   20.2642 C   0  0  2  0  0  0  0  0  0  0  0  0
   46.9536   11.9531   19.1539 C   0  0  1  0  0  0  0  0  0  0  0  0
   46.8243   11.1274   17.9534 O   0  0  0  0  0  0  0  0  0  0  0  0
   49.0026   11.7561   18.2007 C   0  0  0  0  0  0  0  0  0  0  0  0
   50.4443   13.6214   19.7811 C   0  0  2  0  0  0  0  0  0  0  0  0
   48.1277   10.8945   17.5686 C   0  0  0  0  0  0  0  0  0  0  0  0
   50.3765   11.6587   18.0981 C   0  0  0  0  0  0  0  0  0  0  0  0
   50.1880   14.9174   19.0754 N   0  0  0  0  0  0  0  0  0  0  0  0
   51.2347   12.5334   18.9736 C   0  0  0  0  0  0  0  0  0  0  0  0
   48.0435   14.0284   18.1338 C   0  0  0  0  0  0  0  0  0  0  0  0
   49.0900   11.9518   21.2621 C   0  0  0  0  0  0  0  0  0  0  0  0
   46.9086   11.0533   20.4017 C   0  0  0  0  0  0  0  0  0  0  0  0
   48.5890    9.9360   16.6867 C   0  0  0  0  0  0  0  0  0  0  0  0
   50.8682   10.6863   17.2301 C   0  0  0  0  0  0  0  0  0  0  0  0
   49.3652   14.7668   17.8635 C   0  0  0  0  0  0  0  0  0  0  0  0
   49.9813    9.8479   16.5135 C   0  0  0  0  0  0  0  0  0  0  0  0
   47.6776   11.5020   21.6218 C   0  0  0  0  0  0  0  0  0  0  0  0
   48.3799   14.1954   20.9535 O   0  0  0  0  0  0  0  0  0  0  0  0
   46.1856   10.0530   20.4650 O   0  0  0  0  0  0  0  0  0  0  0  0
   51.4199   15.6466   18.7743 C   0  0  0  0  0  0  0  0  0  0  0  0
   47.6520    9.1631   16.0701 O   0  0  0  0  0  0  0  0  0  0  0  0
   48.1163    8.2572   15.0785 C   0  0  0  0  0  0  0  0  0  0  0  0
   49.8920   12.6679   18.0428 C   0  0  2  0  0  0  0  0  0  0  0  0
   49.1198   13.9805   18.2079 C   0  0  2  0  0  0  0  0  0  0  0  0
   50.0909   12.1111   16.6247 C   0  0  1  0  0  0  0  0  0  0  0  0
   50.1451   10.6575   16.7461 O   0  0  0  0  0  0  0  0  0  0  0  0
   49.0510   11.5377   18.5471 C   0  0  0  0  0  0  0  0  0  0  0  0
   48.7619   14.0691   19.7421 C   0  0  2  0  0  0  0  0  0  0  0  0
   49.2982   10.3979   17.8032 C   0  0  0  0  0  0  0  0  0  0  0  0
   48.1178   11.5906   19.5665 C   0  0  0  0  0  0  0  0  0  0  0  0
   49.9308   13.9222   20.6507 N   0  0  0  0  0  0  0  0  0  0  0  0
   47.7705   12.9304   20.1677 C   0  0  0  0  0  0  0  0  0  0  0  0
   51.2170   12.6887   18.8512 C   0  0  0  0  0  0  0  0  0  0  0  0
   47.8870   14.0398   17.2842 C   0  0  0  0  0  0  0  0  0  0  0  0
   48.9876   12.5121   15.6247 C   0  0  0  0  0  0  0  0  0  0  0  0
   48.7060    9.1936   18.1293 C   0  0  0  0  0  0  0  0  0  0  0  0
   47.4817   10.3940   19.8917 C   0  0  0  0  0  0  0  0  0  0  0  0
   51.2259   13.6766   20.0335 C   0  0  0  0  0  0  0  0  0  0  0  0
   47.7918    9.2026   19.1944 C   0  0  0  0  0  0  0  0  0  0  0  0
   48.2963   13.8429   15.8278 C   0  0  0  0  0  0  0  0  0  0  0  0
   49.8866   15.1295   17.8028 O   0  0  0  0  0  0  0  0  0  0  0  0
   48.7200   11.8288   14.6366 O   0  0  0  0  0  0  0  0  0  0  0  0
   50.0038   14.9900   21.6448 C   0  0  0  0  0  0  0  0  0  0  0  0
   49.0369    8.1135   17.3662 O   0  0  0  0  0  0  0  0  0  0  0  0
   48.6016    6.8445   17.8299 C   0  0  0  0  0  0  0  0  0  0  0  0
   48.9198   10.1938   16.5841 C   0  0  0  0  0  0  0  0  0  0  0  0
   49.4462   14.2132   20.6919 C   0  0  0  0  0  0  0  0  0  0  0  0
   49.3325   13.1901   19.6251 C   0  0  0  0  0  0  0  0  0  0  0  0
   49.0323   11.2173   17.6509 C   0  0  0  0  0  0  0  0  0  0  0  0
   48.6728   14.3636   21.6198 O   0  0  0  0  0  0  0  0  0  0  0  0
   49.7023   10.0347   15.6657 O   0  0  0  0  0  0  0  0  0  0  0  0
   50.1348   12.0817   17.6245 C   0  0  0  0  0  0  0  0  0  0  0  0
   50.2845   13.0672   18.6058 C   0  0  0  0  0  0  0  0  0  0  0  0
   48.0813   11.3386   18.6716 C   0  0  0  0  0  0  0  0  0  0  0  0
   48.2314   12.3234   19.6539 C   0  0  0  0  0  0  0  0  0  0  0  0
   47.8262    9.4210   16.7140 O   0  0  0  0  0  0  0  0  0  0  0  0
   50.5266   15.0019   20.5484 O   0  0  0  0  0  0  0  0  0  0  0  0
   46.0783   12.6119   19.2111 H   0  0  0  0  0  0  0  0  0  0  0  0
   51.0292   13.8689   20.6768 H   0  0  0  0  0  0  0  0  0  0  0  0
   51.7213   11.8752   19.7038 H   0  0  0  0  0  0  0  0  0  0  0  0
   52.0316   12.9838   18.3763 H   0  0  0  0  0  0  0  0  0  0  0  0
   47.5787   13.7879   17.1692 H   0  0  0  0  0  0  0  0  0  0  0  0
   47.3511   14.7115   18.6445 H   0  0  0  0  0  0  0  0  0  0  0  0
   49.5931   12.2755   22.1813 H   0  0  0  0  0  0  0  0  0  0  0  0
   49.6595   11.1022   20.8713 H   0  0  0  0  0  0  0  0  0  0  0  0
   51.9409   10.5550   17.1061 H   0  0  0  0  0  0  0  0  0  0  0  0
   49.1185   15.7604   17.4688 H   0  0  0  0  0  0  0  0  0  0  0  0
   49.9256   14.2565   17.0711 H   0  0  0  0  0  0  0  0  0  0  0  0
   50.4237    9.1123   15.8487 H   0  0  0  0  0  0  0  0  0  0  0  0
   47.1086   12.3026   22.1016 H   0  0  0  0  0  0  0  0  0  0  0  0
   47.7344   10.6693   22.3278 H   0  0  0  0  0  0  0  0  0  0  0  0
   48.7632   15.0139   20.5657 H   0  0  0  0  0  0  0  0  0  0  0  0
   52.0319   15.7697   19.6748 H   0  0  0  0  0  0  0  0  0  0  0  0
   51.1840   16.6573   18.4208 H   0  0  0  0  0  0  0  0  0  0  0  0
   52.0254   15.1548   18.0067 H   0  0  0  0  0  0  0  0  0  0  0  0
   48.7624    7.4874   15.5150 H   0  0  0  0  0  0  0  0  0  0  0  0
   48.6269    8.7866   14.2655 H   0  0  0  0  0  0  0  0  0  0  0  0
   47.2429    7.7559   14.6482 H   0  0  0  0  0  0  0  0  0  0  0  0
   51.0363   12.4579   16.1899 H   0  0  0  0  0  0  0  0  0  0  0  0
   48.2785   15.0388   19.9192 H   0  0  0  0  0  0  0  0  0  0  0  0
   47.7220   12.8454   21.2607 H   0  0  0  0  0  0  0  0  0  0  0  0
   46.7615   13.2028   19.8337 H   0  0  0  0  0  0  0  0  0  0  0  0
   52.0458   12.9747   18.1896 H   0  0  0  0  0  0  0  0  0  0  0  0
   51.4641   11.6870   19.2285 H   0  0  0  0  0  0  0  0  0  0  0  0
   47.1323   13.2890   17.5385 H   0  0  0  0  0  0  0  0  0  0  0  0
   47.4021   15.0200   17.3760 H   0  0  0  0  0  0  0  0  0  0  0  0
   46.7336   10.3664   20.6798 H   0  0  0  0  0  0  0  0  0  0  0  0
   51.6731   14.6241   19.7118 H   0  0  0  0  0  0  0  0  0  0  0  0
   51.9152   13.2842   20.7913 H   0  0  0  0  0  0  0  0  0  0  0  0
   47.2659    8.2992   19.4899 H   0  0  0  0  0  0  0  0  0  0  0  0
   48.9653   14.6339   15.4771 H   0  0  0  0  0  0  0  0  0  0  0  0
   47.4004   13.8685   15.1977 H   0  0  0  0  0  0  0  0  0  0  0  0
   50.8311   15.0041   17.9917 H   0  0  0  0  0  0  0  0  0  0  0  0
   50.2118   15.9585   21.1777 H   0  0  0  0  0  0  0  0  0  0  0  0
   49.0652   15.0672   22.2061 H   0  0  0  0  0  0  0  0  0  0  0  0
   50.7915   14.7850   22.3785 H   0  0  0  0  0  0  0  0  0  0  0  0
   49.0430    6.0794   17.1813 H   0  0  0  0  0  0  0  0  0  0  0  0
   47.5159    6.7596   17.7513 H   0  0  0  0  0  0  0  0  0  0  0  0
   48.9409    6.6527   18.8527 H   0  0  0  0  0  0  0  0  0  0  0  0
   50.8838   11.9934   16.8387 H   0  0  0  0  0  0  0  0  0  0  0  0
   51.1491   13.7270   18.5659 H   0  0  0  0  0  0  0  0  0  0  0  0
   47.2204   10.6750   18.7144 H   0  0  0  0  0  0  0  0  0  0  0  0
   47.4874   12.4087   20.4442 H   0  0  0  0  0  0  0  0  0  0  0  0
   47.8870    8.8038   15.9554 H   0  0  0  0  0  0  0  0  0  0  0  0
   50.4734   15.6114   21.3143 H   0  0  0  0  0  0  0  0  0  0  0  0
 14  7  2  0
 15  8  1  0
 16 11  1  0
 17 15  2  0
 18 13  1  0
  2 19  1  6
 20 13  2  0
 21  9  1  0
  4  7  1  0
 16  9  1  0
  6 10  1  0
 18 12  1  0
 17 14  1  0
 14 22  1  0
 22 23  1  0
  2  1  1  0
  3  1  1  0
  3  4  1  0
  5  1  1  0
  6  2  1  0
  7  5  1  0
  8  5  2  0
  6  9  1  0
 10  8  1  0
  1 11  1  6
 12  2  1  0
 13  3  1  0
 37 30  2  0
 38 31  1  0
 39 34  1  0
 40 38  2  0
 41 36  1  0
 25 42  1  6
 43 36  2  0
 44 32  1  0
 27 30  1  0
 39 32  1  0
 29 33  1  0
 41 35  1  0
 40 37  1  0
 37 45  1  0
 45 46  1  0
 25 24  1  0
 26 24  1  0
 26 27  1  0
 28 24  1  0
 29 25  1  0
 30 28  1  0
 31 28  2  0
 29 32  1  0
 33 31  1  0
 24 34  1  1
 35 25  1  0
 36 26  1  0
 48 49  1  0
 49 56  2  0
 50 47  1  0
 51 48  2  0
 52 47  2  0
 53 50  1  0
 54 53  2  0
 55 50  2  0
 56 55  1  0
 57 47  1  0
 58 48  1  0
 49 54  1  0
  3 59  1  6
  6 60  1  1
 10 61  1  0
 10 62  1  0
 11 63  1  0
 11 64  1  0
 12 65  1  0
 12 66  1  0
 15 67  1  0
 16 68  1  0
 16 69  1  0
 17 70  1  0
 18 71  1  0
 18 72  1  0
 19 73  1  0
 21 74  1  0
 21 75  1  0
 21 76  1  0
 23 77  1  0
 23 78  1  0
 23 79  1  0
 26 80  1  1
 29 81  1  6
 33 82  1  0
 33 83  1  0
 34 84  1  0
 34 85  1  0
 35 86  1  0
 35 87  1  0
 38 88  1  0
 39 89  1  0
 39 90  1  0
 40 91  1  0
 41 92  1  0
 41 93  1  0
 42 94  1  0
 44 95  1  0
 44 96  1  0
 44 97  1  0
 46 98  1  0
 46 99  1  0
 46100  1  0
 53101  1  0
 54102  1  0
 55103  1  0
 56104  1  0
 57105  1  0
 58106  1  0
M  END
> <Uni-Dock RESULT> 
ENERGY=   -5.560  LOWER_BOUND=    1.412  UPPER_BOUND=    2.128
INTER + INTRA:          -5.560
INTER:                  -5.560
INTRA:                   0.000
UNBOUND:                 0.000

$$$$

     RDKit          3D

106114  0  0  0  0  0  0  0  0999 V2000
   49.0583   11.0198   19.8485 C   0  0  2  0  0  0  0  0  0  0  0  0
   47.8364   10.3067   20.4391 C   0  0  2  0  0  0  0  0  0  0  0  0
   49.1672   12.5395   20.0230 C   0  0  1  0  0  0  0  0  0  0  0  0
   49.8606   13.0530   18.8418 O   0  0  0  0  0  0  0  0  0  0  0  0
   48.9731   11.0079   18.3611 C   0  0  0  0  0  0  0  0  0  0  0  0
   47.8242    8.8629   19.8221 C   0  0  2  0  0  0  0  0  0  0  0  0
   49.5149   12.1676   17.8429 C   0  0  0  0  0  0  0  0  0  0  0  0
   48.4235   10.0084   17.5821 C   0  0  0  0  0  0  0  0  0  0  0  0
   49.0255    8.1688   20.3862 N   0  0  0  0  0  0  0  0  0  0  0  0
   47.6977    8.8756   18.2586 C   0  0  0  0  0  0  0  0  0  0  0  0
   50.3545   10.2895   20.2751 C   0  0  0  0  0  0  0  0  0  0  0  0
   46.5420   11.0997   20.2317 C   0  0  0  0  0  0  0  0  0  0  0  0
   47.8174   13.2622   20.1792 C   0  0  0  0  0  0  0  0  0  0  0  0
   49.6426   12.3430   16.4783 C   0  0  0  0  0  0  0  0  0  0  0  0
   48.5213   10.1706   16.2019 C   0  0  0  0  0  0  0  0  0  0  0  0
   50.2989    8.7825   19.9734 C   0  0  0  0  0  0  0  0  0  0  0  0
   49.1460   11.3170   15.6555 C   0  0  0  0  0  0  0  0  0  0  0  0
   46.6805   12.5007   20.8187 C   0  0  0  0  0  0  0  0  0  0  0  0
   47.9995   10.1866   21.8673 O   0  0  0  0  0  0  0  0  0  0  0  0
   47.6765   14.4584   19.9023 O   0  0  0  0  0  0  0  0  0  0  0  0
   49.0298    6.7336   20.1034 C   0  0  0  0  0  0  0  0  0  0  0  0
   50.2345   13.4954   16.0571 O   0  0  0  0  0  0  0  0  0  0  0  0
   50.4706   13.6248   14.6617 C   0  0  0  0  0  0  0  0  0  0  0  0
   49.0830    9.7319   18.4451 C   0  0  2  0  0  0  0  0  0  0  0  0
   49.8107    9.5028   19.7735 C   0  0  2  0  0  0  0  0  0  0  0  0
   49.9185    9.8027   17.1576 C   0  0  1  0  0  0  0  0  0  0  0  0
   49.2128   10.6978   16.2458 O   0  0  0  0  0  0  0  0  0  0  0  0
   48.5847   11.1419   18.3960 C   0  0  0  0  0  0  0  0  0  0  0  0
   48.7620    9.8625   20.8962 C   0  0  2  0  0  0  0  0  0  0  0  0
   48.6205   11.6094   17.0946 C   0  0  0  0  0  0  0  0  0  0  0  0
   48.1857   11.9171   19.4697 C   0  0  0  0  0  0  0  0  0  0  0  0
   47.4645    9.1450   20.7716 N   0  0  0  0  0  0  0  0  0  0  0  0
   48.3887   11.3858   20.8674 C   0  0  0  0  0  0  0  0  0  0  0  0
   47.8665    8.7790   18.2980 C   0  0  0  0  0  0  0  0  0  0  0  0
   51.1127   10.3234   19.8622 C   0  0  0  0  0  0  0  0  0  0  0  0
   51.3635   10.2997   17.3651 C   0  0  0  0  0  0  0  0  0  0  0  0
   48.1289   12.8595   16.7742 C   0  0  0  0  0  0  0  0  0  0  0  0
   47.7169   13.1959   19.1748 C   0  0  0  0  0  0  0  0  0  0  0  0
   47.3051    8.2527   19.6328 C   0  0  0  0  0  0  0  0  0  0  0  0
   47.6671   13.6524   17.8365 C   0  0  0  0  0  0  0  0  0  0  0  0
   52.0328   10.0006   18.6890 C   0  0  0  0  0  0  0  0  0  0  0  0
   50.2685    8.1468   19.9281 O   0  0  0  0  0  0  0  0  0  0  0  0
   52.0023   10.8481   16.4673 O   0  0  0  0  0  0  0  0  0  0  0  0
   47.0595    8.5014   22.0187 C   0  0  0  0  0  0  0  0  0  0  0  0
   48.1681   13.2231   15.4610 O   0  0  0  0  0  0  0  0  0  0  0  0
   47.4716   14.4071   15.1033 C   0  0  0  0  0  0  0  0  0  0  0  0
   49.6863   11.9161   16.4304 C   0  0  0  0  0  0  0  0  0  0  0  0
   47.7575    9.3346   21.2181 C   0  0  0  0  0  0  0  0  0  0  0  0
   48.2568    9.9743   19.9775 C   0  0  0  0  0  0  0  0  0  0  0  0
   49.1876   11.2772   17.6719 C   0  0  0  0  0  0  0  0  0  0  0  0
   47.4026    9.9170   22.2265 O   0  0  0  0  0  0  0  0  0  0  0  0
   50.0261   11.3333   15.4175 O   0  0  0  0  0  0  0  0  0  0  0  0
   49.0804    9.8804   17.6998 C   0  0  0  0  0  0  0  0  0  0  0  0
   48.6194    9.2293   18.8488 C   0  0  0  0  0  0  0  0  0  0  0  0
   48.8228   12.0226   18.7999 C   0  0  0  0  0  0  0  0  0  0  0  0
   48.3607   11.3717   19.9488 C   0  0  0  0  0  0  0  0  0  0  0  0
   49.7430   13.2574   16.5188 O   0  0  0  0  0  0  0  0  0  0  0  0
   47.7238    7.9921   21.1385 O   0  0  0  0  0  0  0  0  0  0  0  0
   49.7638   12.7956   20.9073 H   0  0  0  0  0  0  0  0  0  0  0  0
   46.9478    8.3404   20.2279 H   0  0  0  0  0  0  0  0  0  0  0  0
   46.6333    8.9896   18.0188 H   0  0  0  0  0  0  0  0  0  0  0  0
   48.0169    7.9235   17.8272 H   0  0  0  0  0  0  0  0  0  0  0  0
   51.2374   10.7092   19.7764 H   0  0  0  0  0  0  0  0  0  0  0  0
   50.5157   10.4321   21.3524 H   0  0  0  0  0  0  0  0  0  0  0  0
   45.7126   10.5936   20.7404 H   0  0  0  0  0  0  0  0  0  0  0  0
   46.2701   11.1684   19.1733 H   0  0  0  0  0  0  0  0  0  0  0  0
   48.1056    9.4214   15.5318 H   0  0  0  0  0  0  0  0  0  0  0  0
   51.1235    8.3024   20.5151 H   0  0  0  0  0  0  0  0  0  0  0  0
   50.4916    8.6050   18.9087 H   0  0  0  0  0  0  0  0  0  0  0  0
   49.1962   11.3851   14.5730 H   0  0  0  0  0  0  0  0  0  0  0  0
   46.8606   12.4711   21.8965 H   0  0  0  0  0  0  0  0  0  0  0  0
   45.7513   13.0527   20.6548 H   0  0  0  0  0  0  0  0  0  0  0  0
   48.4761    9.3363   21.9973 H   0  0  0  0  0  0  0  0  0  0  0  0
   48.0880    6.2700   20.4172 H   0  0  0  0  0  0  0  0  0  0  0  0
   49.8233    6.2381   20.6751 H   0  0  0  0  0  0  0  0  0  0  0  0
   49.1906    6.5120   19.0438 H   0  0  0  0  0  0  0  0  0  0  0  0
   49.5298   13.6605   14.1012 H   0  0  0  0  0  0  0  0  0  0  0  0
   51.1194   12.8215   14.2931 H   0  0  0  0  0  0  0  0  0  0  0  0
   50.9936   14.5728   14.4975 H   0  0  0  0  0  0  0  0  0  0  0  0
   50.0008    8.8179   16.6818 H   0  0  0  0  0  0  0  0  0  0  0  0
   49.2175    9.6316   21.8682 H   0  0  0  0  0  0  0  0  0  0  0  0
   47.4929   11.5781   21.4714 H   0  0  0  0  0  0  0  0  0  0  0  0
   49.2036   11.9539   21.3332 H   0  0  0  0  0  0  0  0  0  0  0  0
   48.1578    7.9011   17.7057 H   0  0  0  0  0  0  0  0  0  0  0  0
   47.0526    9.2623   17.7407 H   0  0  0  0  0  0  0  0  0  0  0  0
   50.9314   11.4027   19.8761 H   0  0  0  0  0  0  0  0  0  0  0  0
   51.6419   10.0792   20.7921 H   0  0  0  0  0  0  0  0  0  0  0  0
   47.3924   13.8593   19.9725 H   0  0  0  0  0  0  0  0  0  0  0  0
   47.7525    7.2774   19.8558 H   0  0  0  0  0  0  0  0  0  0  0  0
   46.2378    8.0449   19.4873 H   0  0  0  0  0  0  0  0  0  0  0  0
   47.2925   14.6574   17.6648 H   0  0  0  0  0  0  0  0  0  0  0  0
   52.3451    8.9524   18.6863 H   0  0  0  0  0  0  0  0  0  0  0  0
   52.9388   10.6120   18.7659 H   0  0  0  0  0  0  0  0  0  0  0  0
   49.6578    7.5209   19.5053 H   0  0  0  0  0  0  0  0  0  0  0  0
   47.7361    7.6824   22.2849 H   0  0  0  0  0  0  0  0  0  0  0  0
   47.0425    9.2229   22.8441 H   0  0  0  0  0  0  0  0  0  0  0  0
   46.0445    8.0968   21.9356 H   0  0  0  0  0  0  0  0  0  0  0  0
   47.4972   14.4962   14.0114 H   0  0  0  0  0  0  0  0  0  0  0  0
   47.9697   15.2852   15.5194 H   0  0  0  0  0  0  0  0  0  0  0  0
   46.4221   14.3641   15.4112 H   0  0  0  0  0  0  0  0  0  0  0  0
   49.3560    9.2904   16.8268 H   0  0  0  0  0  0  0  0  0  0  0  0
   48.5435    8.1436   18.8476 H   0  0  0  0  0  0  0  0  0  0  0  0
   48.8933   13.1082   18.7985 H   0  0  0  0  0  0  0  0  0  0  0  0
   48.0780   11.9603   20.8201 H   0  0  0  0  0  0  0  0  0  0  0  0
   50.0812   13.5336   15.6417 H   0  0  0  0  0  0  0  0  0  0  0  0
   47.3733    7.7158   22.0113 H   0  0  0  0  0  0  0  0  0  0  0  0
 14  7  2  0
 15  8  1  0
 16 11  1  0
 17 15  2  0
 18 13  1  0
  2 19  1  6
 20 13  2  0
 21  9  1  0
  4  7  1  0
 16  9  1  0
  6 10  1  0
 18 12  1  0
 17 14  1  0
 14 22  1  0
 22 23  1  0
  2  1  1  0
  3  1  1  0
  3  4  1  0
  5  1  1  0
  6  2  1  0
  7  5  1  0
  8  5  2  0
  6  9  1  0
 10  8  1  0
  1 11  1  6
 12  2  1  0
 13  3  1  0
 37 30  2  0
 38 31  1  0
 39 34  1  0
 40 38  2  0
 41 36  1  0
 25 42  1  6
 43 36  2  0
 44 32  1  0
 27 30  1  0
 39 32  1  0
 29 33  1  0
 41 35  1  0
 40 37  1  0
 37 45  1  0
 45 46  1  0
 25 24  1  0
 26 24  1  0
 26 27  1  0
 28 24  1  0
 29 25  1  0
 30 28  1  0
 31 28  2  0
 29 32  1  0
 33 31  1  0
 24 34  1  1
 35 25  1  0
 36 26  1  0
 48 49  1  0
 49 56  2  0
 50 47  1  0
 51 48  2  0
 52 47  2  0
 53 50  1  0
 54 53  2  0
 55 50  2  0
 56 55  1  0
 57 47  1  0
 58 48  1  0
 49 54  1  0
  3 59  1  6
  6 60  1  1
 10 61  1  0
 10 62  1  0
 11 63  1  0
 11 64  1  0
 12 65  1  0
 12 66  1  0
 15 67  1  0
 16 68  1  0
 16 69  1  0
 17 70  1  0
 18 71  1  0
 18 72  1  0
 19 73  1  0
 21 74  1  0
 21 75  1  0
 21 76  1  0
 23 77  1  0
 23 78  1  0
 23 79  1  0
 26 80  1  1
 29 81  1  6
 33 82  1  0
 33 83  1  0
 34 84  1  0
 34 85  1  0
 35 86  1  0
 35 87  1  0
 38 88  1  0
 39 89  1  0
 39 90  1  0
 40 91  1  0
 41 92  1  0
 41 93  1  0
 42 94  1  0
 44 95  1  0
 44 96  1  0
 44 97  1  0
 46 98  1  0
 46 99  1  0
 46100  1  0
 53101  1  0
 54102  1  0
 55103  1  0
 56104  1  0
 57105  1  0
 58106  1  0
M  END
> <Uni-Dock RESULT> 
ENERGY=   -5.496  LOWER_BOUND=    1.766  UPPER_BOUND=    4.201
INTER + INTRA:          -5.496
INTER:                  -5.496
INTRA:                   0.000
UNBOUND:                 0.000

$$$$

     RDKit          3D

106114  0  0  0  0  0  0  0  0999 V2000
   47.9068    7.2164   20.7692 C   0  0  2  0  0  0  0  0  0  0  0  0
   48.7493    6.2706   21.6327 C   0  0  2  0  0  0  0  0  0  0  0  0
   46.9739    6.6030   19.7179 C   0  0  1  0  0  0  0  0  0  0  0  0
   46.9096    7.5498   18.6047 O   0  0  0  0  0  0  0  0  0  0  0  0
   48.7929    7.9540   19.8256 C   0  0  0  0  0  0  0  0  0  0  0  0
   49.8249    7.1630   22.3485 C   0  0  2  0  0  0  0  0  0  0  0  0
   48.1372    8.1769   18.6308 C   0  0  0  0  0  0  0  0  0  0  0  0
   50.0915    8.3564   20.0695 C   0  0  0  0  0  0  0  0  0  0  0  0
   49.0639    8.0319   23.3019 N   0  0  0  0  0  0  0  0  0  0  0  0
   50.7682    7.9007   21.3353 C   0  0  0  0  0  0  0  0  0  0  0  0
   47.1771    8.2441   21.6675 C   0  0  0  0  0  0  0  0  0  0  0  0
   49.3249    5.1020   20.8261 C   0  0  0  0  0  0  0  0  0  0  0  0
   47.4202    5.2263   19.1944 C   0  0  0  0  0  0  0  0  0  0  0  0
   48.7199    8.9336   17.6322 C   0  0  0  0  0  0  0  0  0  0  0  0
   50.7093    9.1043   19.0696 C   0  0  0  0  0  0  0  0  0  0  0  0
   48.1386    8.9603   22.6308 C   0  0  0  0  0  0  0  0  0  0  0  0
   50.0210    9.4094   17.8713 C   0  0  0  0  0  0  0  0  0  0  0  0
   48.2036    4.3368   20.1305 C   0  0  0  0  0  0  0  0  0  0  0  0
   47.9106    5.6750   22.6440 O   0  0  0  0  0  0  0  0  0  0  0  0
   47.0658    4.7962   18.0913 O   0  0  0  0  0  0  0  0  0  0  0  0
   49.9390    8.7543   24.2250 C   0  0  0  0  0  0  0  0  0  0  0  0
   47.9809    9.1449   16.5075 O   0  0  0  0  0  0  0  0  0  0  0  0
   48.5318   10.0170   15.5301 C   0  0  0  0  0  0  0  0  0  0  0  0
   49.3148    8.4958   20.8655 C   0  0  2  0  0  0  0  0  0  0  0  0
   48.2114    8.4182   21.9252 C   0  0  2  0  0  0  0  0  0  0  0  0
   49.4375    9.7806   20.0318 C   0  0  1  0  0  0  0  0  0  0  0  0
   49.9610    9.3882   18.7270 O   0  0  0  0  0  0  0  0  0  0  0  0
   48.9641    7.5924   19.7254 C   0  0  0  0  0  0  0  0  0  0  0  0
   48.1050    6.8922   22.3122 C   0  0  2  0  0  0  0  0  0  0  0  0
   49.4260    8.1311   18.5379 C   0  0  0  0  0  0  0  0  0  0  0  0
   48.2447    6.4132   19.7943 C   0  0  0  0  0  0  0  0  0  0  0  0
   49.3960    6.2746   22.7191 N   0  0  0  0  0  0  0  0  0  0  0  0
   47.6031    6.0264   21.1042 C   0  0  0  0  0  0  0  0  0  0  0  0
   50.6829    8.0439   21.4432 C   0  0  0  0  0  0  0  0  0  0  0  0
   46.8854    9.0175   21.4162 C   0  0  0  0  0  0  0  0  0  0  0  0
   48.1135   10.5511   19.8546 C   0  0  0  0  0  0  0  0  0  0  0  0
   49.3013    7.4413   17.3481 C   0  0  0  0  0  0  0  0  0  0  0  0
   48.0765    5.7153   18.5998 C   0  0  0  0  0  0  0  0  0  0  0  0
   50.5810    7.1183   22.6708 C   0  0  0  0  0  0  0  0  0  0  0  0
   48.6211    6.2142   17.3930 C   0  0  0  0  0  0  0  0  0  0  0  0
   47.0865   10.4600   20.9622 C   0  0  0  0  0  0  0  0  0  0  0  0
   48.5034    9.2134   23.0890 O   0  0  0  0  0  0  0  0  0  0  0  0
   47.9109   11.2916   18.8925 O   0  0  0  0  0  0  0  0  0  0  0  0
   49.2979    5.5591   23.9888 C   0  0  0  0  0  0  0  0  0  0  0  0
   49.8197    8.0298   16.2331 O   0  0  0  0  0  0  0  0  0  0  0  0
   49.8849    7.2332   15.0601 C   0  0  0  0  0  0  0  0  0  0  0  0
   48.9320    9.1606   17.9320 C   0  0  0  0  0  0  0  0  0  0  0  0
   48.8590    6.1791   22.8728 C   0  0  0  0  0  0  0  0  0  0  0  0
   48.8930    6.9629   21.6150 C   0  0  0  0  0  0  0  0  0  0  0  0
   48.8968    8.3765   19.1899 C   0  0  0  0  0  0  0  0  0  0  0  0
   48.2435    5.1440   23.0504 O   0  0  0  0  0  0  0  0  0  0  0  0
   49.5603   10.1871   17.7511 O   0  0  0  0  0  0  0  0  0  0  0  0
   49.6546    8.8342   20.2759 C   0  0  0  0  0  0  0  0  0  0  0  0
   49.6517    8.1326   21.4860 C   0  0  0  0  0  0  0  0  0  0  0  0
   48.1397    7.2055   19.3179 C   0  0  0  0  0  0  0  0  0  0  0  0
   48.1375    6.5029   20.5278 C   0  0  0  0  0  0  0  0  0  0  0  0
   48.1711    8.6250   16.9603 O   0  0  0  0  0  0  0  0  0  0  0  0
   49.6003    6.7277   23.8523 O   0  0  0  0  0  0  0  0  0  0  0  0
   45.9594    6.4734   20.1148 H   0  0  0  0  0  0  0  0  0  0  0  0
   50.4446    6.4985   22.9650 H   0  0  0  0  0  0  0  0  0  0  0  0
   51.5503    7.1898   21.0415 H   0  0  0  0  0  0  0  0  0  0  0  0
   51.2738    8.7466   21.8081 H   0  0  0  0  0  0  0  0  0  0  0  0
   46.6562    9.0039   21.0712 H   0  0  0  0  0  0  0  0  0  0  0  0
   46.4020    7.7311   22.2531 H   0  0  0  0  0  0  0  0  0  0  0  0
   49.8483    4.4110   21.4980 H   0  0  0  0  0  0  0  0  0  0  0  0
   50.0569    5.4387   20.0848 H   0  0  0  0  0  0  0  0  0  0  0  0
   51.7330    9.4492   19.1973 H   0  0  0  0  0  0  0  0  0  0  0  0
   47.5326    9.4755   23.3865 H   0  0  0  0  0  0  0  0  0  0  0  0
   48.6895    9.7445   22.0979 H   0  0  0  0  0  0  0  0  0  0  0  0
   50.5528    9.9995   17.1312 H   0  0  0  0  0  0  0  0  0  0  0  0
   47.5021    3.9058   20.8496 H   0  0  0  0  0  0  0  0  0  0  0  0
   48.6338    3.5128   19.5552 H   0  0  0  0  0  0  0  0  0  0  0  0
   47.9496    6.2974   23.4044 H   0  0  0  0  0  0  0  0  0  0  0  0
   50.6236    8.0669   24.7343 H   0  0  0  0  0  0  0  0  0  0  0  0
   49.3448    9.2363   25.0102 H   0  0  0  0  0  0  0  0  0  0  0  0
   50.5305    9.5293   23.7277 H   0  0  0  0  0  0  0  0  0  0  0  0
   49.4488    9.6009   15.0980 H   0  0  0  0  0  0  0  0  0  0  0  0
   48.7090   11.0163   15.9449 H   0  0  0  0  0  0  0  0  0  0  0  0
   47.7990   10.1202   14.7229 H   0  0  0  0  0  0  0  0  0  0  0  0
   50.1414   10.4864   20.4896 H   0  0  0  0  0  0  0  0  0  0  0  0
   47.3805    6.8029   23.1322 H   0  0  0  0  0  0  0  0  0  0  0  0
   47.7667    4.9585   21.2966 H   0  0  0  0  0  0  0  0  0  0  0  0
   46.5186    6.1603   21.0053 H   0  0  0  0  0  0  0  0  0  0  0  0
   51.2588    8.9257   21.7548 H   0  0  0  0  0  0  0  0  0  0  0  0
   51.2889    7.5437   20.6755 H   0  0  0  0  0  0  0  0  0  0  0  0
   46.4555    8.4479   20.5863 H   0  0  0  0  0  0  0  0  0  0  0  0
   46.1419    9.0111   22.2234 H   0  0  0  0  0  0  0  0  0  0  0  0
   47.5167    4.7836   18.5823 H   0  0  0  0  0  0  0  0  0  0  0  0
   50.6507    7.7187   23.5851 H   0  0  0  0  0  0  0  0  0  0  0  0
   51.4746    6.4822   22.6843 H   0  0  0  0  0  0  0  0  0  0  0  0
   48.4596    5.6290   16.4922 H   0  0  0  0  0  0  0  0  0  0  0  0
   47.4075   11.1091   21.7819 H   0  0  0  0  0  0  0  0  0  0  0  0
   46.1352   10.8530   20.5868 H   0  0  0  0  0  0  0  0  0  0  0  0
   49.4576    9.2317   23.2698 H   0  0  0  0  0  0  0  0  0  0  0  0
   49.1130    6.2455   24.8220 H   0  0  0  0  0  0  0  0  0  0  0  0
   48.4895    4.8191   23.9598 H   0  0  0  0  0  0  0  0  0  0  0  0
   50.2211    5.0064   24.1960 H   0  0  0  0  0  0  0  0  0  0  0  0
   50.4278    7.8018   14.2966 H   0  0  0  0  0  0  0  0  0  0  0  0
   48.8825    7.0347   14.6755 H   0  0  0  0  0  0  0  0  0  0  0  0
   50.4328    6.3023   15.2369 H   0  0  0  0  0  0  0  0  0  0  0  0
   50.2517    9.7407   20.1865 H   0  0  0  0  0  0  0  0  0  0  0  0
   50.2485    8.5061   22.3160 H   0  0  0  0  0  0  0  0  0  0  0  0
   47.5480    6.8293   18.4862 H   0  0  0  0  0  0  0  0  0  0  0  0
   47.5468    5.5926   20.6169 H   0  0  0  0  0  0  0  0  0  0  0  0
   48.2935    9.2378   16.2056 H   0  0  0  0  0  0  0  0  0  0  0  0
   49.4886    6.1082   24.6037 H   0  0  0  0  0  0  0  0  0  0  0  0
 14  7  2  0
 15  8  1  0
 16 11  1  0
 17 15  2  0
 18 13  1  0
  2 19  1  6
 20 13  2  0
 21  9  1  0
  4  7  1  0
 16  9  1  0
  6 10  1  0
 18 12  1  0
 17 14  1  0
 14 22  1  0
 22 23  1  0
  2  1  1  0
  3  1  1  0
  3  4  1  0
  5  1  1  0
  6  2  1  0
  7  5  1  0
  8  5  2  0
  6  9  1  0
 10  8  1  0
  1 11  1  6
 12  2  1  0
 13  3  1  0
 37 30  2  0
 38 31  1  0
 39 34  1  0
 40 38  2  0
 41 36  1  0
 25 42  1  6
 43 36  2  0
 44 32  1  0
 27 30  1  0
 39 32  1  0
 29 33  1  0
 41 35  1  0
 40 37  1  0
 37 45  1  0
 45 46  1  0
 25 24  1  0
 26 24  1  0
 26 27  1  0
 28 24  1  0
 29 25  1  0
 30 28  1  0
 31 28  2  0
 29 32  1  0
 33 31  1  0
 24 34  1  1
 35 25  1  0
 36 26  1  0
 48 49  1  0
 49 56  2  0
 50 47  1  0
 51 48  2  0
 52 47  2  0
 53 50  1  0
 54 53  2  0
 55 50  2  0
 56 55  1  0
 57 47  1  0
 58 48  1  0
 49 54  1  0
  3 59  1  6
  6 60  1  1
 10 61  1  0
 10 62  1  0
 11 63  1  0
 11 64  1  0
 12 65  1  0
 12 66  1  0
 15 67  1  0
 16 68  1  0
 16 69  1  0
 17 70  1  0
 18 71  1  0
 18 72  1  0
 19 73  1  0
 21 74  1  0
 21 75  1  0
 21 76  1  0
 23 77  1  0
 23 78  1  0
 23 79  1  0
 26 80  1  1
 29 81  1  6
 33 82  1  0
 33 83  1  0
 34 84  1  0
 34 85  1  0
 35 86  1  0
 35 87  1  0
 38 88  1  0
 39 89  1  0
 39 90  1  0
 40 91  1  0
 41 92  1  0
 41 93  1  0
 42 94  1  0
 44 95  1  0
 44 96  1  0
 44 97  1  0
 46 98  1  0
 46 99  1  0
 46100  1  0
 53101  1  0
 54102  1  0
 55103  1  0
 56104  1  0
 57105  1  0
 58106  1  0
M  END
> <Uni-Dock RESULT> 
ENERGY=   -5.480  LOWER_BOUND=    2.397  UPPER_BOUND=    4.174
INTER + INTRA:          -5.480
INTER:                  -5.480
INTRA:                   0.000
UNBOUND:                 0.000

$$$$

     RDKit          3D

106114  0  0  0  0  0  0  0  0999 V2000
   49.3062    8.3241   20.9251 C   0  0  2  0  0  0  0  0  0  0  0  0
   48.1758    7.5313   21.5914 C   0  0  2  0  0  0  0  0  0  0  0  0
   49.6699    9.6968   21.5041 C   0  0  1  0  0  0  0  0  0  0  0  0
   50.1211   10.5227   20.3843 O   0  0  0  0  0  0  0  0  0  0  0  0
   48.8610    8.7982   19.5847 C   0  0  0  0  0  0  0  0  0  0  0  0
   47.8082    6.3674   20.6036 C   0  0  2  0  0  0  0  0  0  0  0  0
   49.4203   10.0294   19.3042 C   0  0  0  0  0  0  0  0  0  0  0  0
   48.0018    8.1379   18.7282 C   0  0  0  0  0  0  0  0  0  0  0  0
   48.9990    5.4593   20.5830 N   0  0  0  0  0  0  0  0  0  0  0  0
   47.3084    6.8918   19.2122 C   0  0  0  0  0  0  0  0  0  0  0  0
   50.5495    7.4206   20.7419 C   0  0  0  0  0  0  0  0  0  0  0  0
   46.9965    8.4231   21.9931 C   0  0  0  0  0  0  0  0  0  0  0  0
   48.5158   10.4080   22.2328 C   0  0  0  0  0  0  0  0  0  0  0  0
   49.2360   10.6283   18.0727 C   0  0  0  0  0  0  0  0  0  0  0  0
   47.7832    8.7312   17.4869 C   0  0  0  0  0  0  0  0  0  0  0  0
   50.2078    6.0978   20.0358 C   0  0  0  0  0  0  0  0  0  0  0  0
   48.4131    9.9540   17.1538 C   0  0  0  0  0  0  0  0  0  0  0  0
   47.4720    9.5487   22.9060 C   0  0  0  0  0  0  0  0  0  0  0  0
   48.6624    6.9470   22.8172 O   0  0  0  0  0  0  0  0  0  0  0  0
   48.4839   11.6356   22.3721 O   0  0  0  0  0  0  0  0  0  0  0  0
   48.7297    4.1947   19.8989 C   0  0  0  0  0  0  0  0  0  0  0  0
   49.8658   11.8182   17.8650 O   0  0  0  0  0  0  0  0  0  0  0  0
   49.7714   12.3773   16.5619 C   0  0  0  0  0  0  0  0  0  0  0  0
   48.8050    7.5593   19.2540 C   0  0  2  0  0  0  0  0  0  0  0  0
   49.7935    6.8713   20.2005 C   0  0  2  0  0  0  0  0  0  0  0  0
   49.3036    7.9933   17.8669 C   0  0  1  0  0  0  0  0  0  0  0  0
   48.5324    9.1745   17.4922 O   0  0  0  0  0  0  0  0  0  0  0  0
   48.5160    8.9363   19.7634 C   0  0  0  0  0  0  0  0  0  0  0  0
   49.1117    6.9098   21.6229 C   0  0  2  0  0  0  0  0  0  0  0  0
   48.3006    9.7961   18.7014 C   0  0  0  0  0  0  0  0  0  0  0  0
   48.5049    9.3450   21.0846 C   0  0  0  0  0  0  0  0  0  0  0  0
   47.7342    6.3483   21.6546 N   0  0  0  0  0  0  0  0  0  0  0  0
   48.9637    8.3799   22.1499 C   0  0  0  0  0  0  0  0  0  0  0  0
   47.4662    6.7780   19.1731 C   0  0  0  0  0  0  0  0  0  0  0  0
   51.1813    7.5416   20.1652 C   0  0  0  0  0  0  0  0  0  0  0  0
   50.8113    8.3111   17.8052 C   0  0  0  0  0  0  0  0  0  0  0  0
   47.9293   11.1092   18.9136 C   0  0  0  0  0  0  0  0  0  0  0  0
   48.1657   10.6757   21.3223 C   0  0  0  0  0  0  0  0  0  0  0  0
   47.1770    5.8826   20.3932 C   0  0  0  0  0  0  0  0  0  0  0  0
   47.8576   11.5420   20.2469 C   0  0  0  0  0  0  0  0  0  0  0  0
   51.7328    7.5618   18.7430 C   0  0  0  0  0  0  0  0  0  0  0  0
   50.0770    5.5137   19.8148 O   0  0  0  0  0  0  0  0  0  0  0  0
   51.2841    9.0817   16.9700 O   0  0  0  0  0  0  0  0  0  0  0  0
   47.5570    5.3613   22.7167 C   0  0  0  0  0  0  0  0  0  0  0  0
   47.6994   11.8745   17.8091 O   0  0  0  0  0  0  0  0  0  0  0  0
   47.1130   13.1492   18.0241 C   0  0  0  0  0  0  0  0  0  0  0  0
   49.2054   10.2380   17.8907 C   0  0  0  0  0  0  0  0  0  0  0  0
   48.1509    6.3660   22.0383 C   0  0  0  0  0  0  0  0  0  0  0  0
   48.4195    7.3417   20.9550 C   0  0  0  0  0  0  0  0  0  0  0  0
   48.9377    9.2627   18.9748 C   0  0  0  0  0  0  0  0  0  0  0  0
   48.1387    6.6112   23.2306 O   0  0  0  0  0  0  0  0  0  0  0  0
   49.2019    9.9947   16.6983 O   0  0  0  0  0  0  0  0  0  0  0  0
   48.6424    7.9405   18.6169 C   0  0  0  0  0  0  0  0  0  0  0  0
   48.3867    6.9813   19.6024 C   0  0  0  0  0  0  0  0  0  0  0  0
   48.9683    9.6238   20.3275 C   0  0  0  0  0  0  0  0  0  0  0  0
   48.7114    8.6649   21.3133 C   0  0  0  0  0  0  0  0  0  0  0  0
   49.4726   11.4731   18.3525 O   0  0  0  0  0  0  0  0  0  0  0  0
   47.9078    5.1256   21.5778 O   0  0  0  0  0  0  0  0  0  0  0  0
   50.4938    9.6182   22.2241 H   0  0  0  0  0  0  0  0  0  0  0  0
   46.9915    5.7941   21.0619 H   0  0  0  0  0  0  0  0  0  0  0  0
   46.2451    7.1392   19.3201 H   0  0  0  0  0  0  0  0  0  0  0  0
   47.3739    6.1131   18.4481 H   0  0  0  0  0  0  0  0  0  0  0  0
   51.3351    7.9264   20.1665 H   0  0  0  0  0  0  0  0  0  0  0  0
   50.9863    7.1978   21.7250 H   0  0  0  0  0  0  0  0  0  0  0  0
   46.2523    7.8292   22.5374 H   0  0  0  0  0  0  0  0  0  0  0  0
   46.4881    8.8456   21.1204 H   0  0  0  0  0  0  0  0  0  0  0  0
   47.1145    8.2643   16.7671 H   0  0  0  0  0  0  0  0  0  0  0  0
   51.0622    5.4211   20.1619 H   0  0  0  0  0  0  0  0  0  0  0  0
   50.1085    6.2627   18.9563 H   0  0  0  0  0  0  0  0  0  0  0  0
   48.2077   10.3650   16.1701 H   0  0  0  0  0  0  0  0  0  0  0  0
   47.9026    9.1621   23.8334 H   0  0  0  0  0  0  0  0  0  0  0  0
   46.6193   10.1774   23.1756 H   0  0  0  0  0  0  0  0  0  0  0  0
   49.0301    6.0738   22.5533 H   0  0  0  0  0  0  0  0  0  0  0  0
   47.8362    3.7105   20.3085 H   0  0  0  0  0  0  0  0  0  0  0  0
   49.5593    3.4955   20.0565 H   0  0  0  0  0  0  0  0  0  0  0  0
   48.5946    4.3182   18.8198 H   0  0  0  0  0  0  0  0  0  0  0  0
   48.7375   12.6472   16.3193 H   0  0  0  0  0  0  0  0  0  0  0  0
   50.1897   11.6997   15.8083 H   0  0  0  0  0  0  0  0  0  0  0  0
   50.3685   13.2952   16.5478 H   0  0  0  0  0  0  0  0  0  0  0  0
   49.1264    7.2118   17.1179 H   0  0  0  0  0  0  0  0  0  0  0  0
   49.7521    6.3511   22.3181 H   0  0  0  0  0  0  0  0  0  0  0  0
   48.2786    8.4189   23.0062 H   0  0  0  0  0  0  0  0  0  0  0  0
   49.9398    8.7184   22.5192 H   0  0  0  0  0  0  0  0  0  0  0  0
   47.4764    6.1230   18.2914 H   0  0  0  0  0  0  0  0  0  0  0  0
   46.6186    7.4622   19.0307 H   0  0  0  0  0  0  0  0  0  0  0  0
   51.1647    8.5672   20.5470 H   0  0  0  0  0  0  0  0  0  0  0  0
   51.8803    6.9796   20.7976 H   0  0  0  0  0  0  0  0  0  0  0  0
   48.1429   11.0636   22.3375 H   0  0  0  0  0  0  0  0  0  0  0  0
   47.5215    4.8631   20.1854 H   0  0  0  0  0  0  0  0  0  0  0  0
   46.0881    5.7957   20.4929 H   0  0  0  0  0  0  0  0  0  0  0  0
   47.5997   12.5688   20.4903 H   0  0  0  0  0  0  0  0  0  0  0  0
   51.8823    6.5542   18.3446 H   0  0  0  0  0  0  0  0  0  0  0  0
   52.7079    8.0614   18.7443 H   0  0  0  0  0  0  0  0  0  0  0  0
   49.2990    5.0948   19.4114 H   0  0  0  0  0  0  0  0  0  0  0  0
   48.1542    4.4620   22.5314 H   0  0  0  0  0  0  0  0  0  0  0  0
   47.8443    5.7771   23.6895 H   0  0  0  0  0  0  0  0  0  0  0  0
   46.5053    5.0652   22.8009 H   0  0  0  0  0  0  0  0  0  0  0  0
   46.8847   13.5845   17.0447 H   0  0  0  0  0  0  0  0  0  0  0  0
   47.8173   13.8151   18.5270 H   0  0  0  0  0  0  0  0  0  0  0  0
   46.1748   13.0705   18.5824 H   0  0  0  0  0  0  0  0  0  0  0  0
   48.6104    7.6491   17.5680 H   0  0  0  0  0  0  0  0  0  0  0  0
   48.1588    5.9607   19.3013 H   0  0  0  0  0  0  0  0  0  0  0  0
   49.1903   10.6455   20.6278 H   0  0  0  0  0  0  0  0  0  0  0  0
   48.7360    8.9559   22.3622 H   0  0  0  0  0  0  0  0  0  0  0  0
   49.6231   11.9974   17.5387 H   0  0  0  0  0  0  0  0  0  0  0  0
   47.7443    4.6031   22.3910 H   0  0  0  0  0  0  0  0  0  0  0  0
 14  7  2  0
 15  8  1  0
 16 11  1  0
 17 15  2  0
 18 13  1  0
  2 19  1  6
 20 13  2  0
 21  9  1  0
  4  7  1  0
 16  9  1  0
  6 10  1  0
 18 12  1  0
 17 14  1  0
 14 22  1  0
 22 23  1  0
  2  1  1  0
  3  1  1  0
  3  4  1  0
  5  1  1  0
  6  2  1  0
  7  5  1  0
  8  5  2  0
  6  9  1  0
 10  8  1  0
  1 11  1  6
 12  2  1  0
 13  3  1  0
 37 30  2  0
 38 31  1  0
 39 34  1  0
 40 38  2  0
 41 36  1  0
 25 42  1  6
 43 36  2  0
 44 32  1  0
 27 30  1  0
 39 32  1  0
 29 33  1  0
 41 35  1  0
 40 37  1  0
 37 45  1  0
 45 46  1  0
 25 24  1  0
 26 24  1  0
 26 27  1  0
 28 24  1  0
 29 25  1  0
 30 28  1  0
 31 28  2  0
 29 32  1  0
 33 31  1  0
 24 34  1  1
 35 25  1  0
 36 26  1  0
 48 49  1  0
 49 56  2  0
 50 47  1  0
 51 48  2  0
 52 47  2  0
 53 50  1  0
 54 53  2  0
 55 50  2  0
 56 55  1  0
 57 47  1  0
 58 48  1  0
 49 54  1  0
  3 59  1  6
  6 60  1  1
 10 61  1  0
 10 62  1  0
 11 63  1  0
 11 64  1  0
 12 65  1  0
 12 66  1  0
 15 67  1  0
 16 68  1  0
 16 69  1  0
 17 70  1  0
 18 71  1  0
 18 72  1  0
 19 73  1  0
 21 74  1  0
 21 75  1  0
 21 76  1  0
 23 77  1  0
 23 78  1  0
 23 79  1  0
 26 80  1  1
 29 81  1  6
 33 82  1  0
 33 83  1  0
 34 84  1  0
 34 85  1  0
 35 86  1  0
 35 87  1  0
 38 88  1  0
 39 89  1  0
 39 90  1  0
 40 91  1  0
 41 92  1  0
 41 93  1  0
 42 94  1  0
 44 95  1  0
 44 96  1  0
 44 97  1  0
 46 98  1  0
 46 99  1  0
 46100  1  0
 53101  1  0
 54102  1  0
 55103  1  0
 56104  1  0
 57105  1  0
 58106  1  0
M  END
> <Uni-Dock RESULT> 
ENERGY=   -5.429  LOWER_BOUND=    2.143  UPPER_BOUND=    4.972
INTER + INTRA:          -5.429
INTER:                  -5.429
INTRA:                   0.000
UNBOUND:                 0.000

$$$$
