
     RDKit          3D

106114  0  0  0  0  0  0  0  0999 V2000
   49.1376   10.3367   20.0634 C   0  0  2  0  0  0  0  0  0  0  0  0
   47.9147    9.8815   19.2598 C   0  0  2  0  0  0  0  0  0  0  0  0
   49.2381    9.9336   21.5436 C   0  0  1  0  0  0  0  0  0  0  0  0
   49.9795   10.9865   22.2240 O   0  0  0  0  0  0  0  0  0  0  0  0
   49.0455   11.8103   20.3112 C   0  0  0  0  0  0  0  0  0  0  0  0
   47.9182   10.7790   17.9581 C   0  0  2  0  0  0  0  0  0  0  0  0
   49.6103   12.1226   21.5355 C   0  0  0  0  0  0  0  0  0  0  0  0
   48.4440   12.7519   19.4966 C   0  0  0  0  0  0  0  0  0  0  0  0
   49.2133   10.7468   17.2116 N   0  0  0  0  0  0  0  0  0  0  0  0
   47.6713   12.2869   18.2887 C   0  0  0  0  0  0  0  0  0  0  0  0
   50.4445   10.0306   19.2835 C   0  0  0  0  0  0  0  0  0  0  0  0
   46.6139    9.9684   20.0757 C   0  0  0  0  0  0  0  0  0  0  0  0
   47.8743    9.7189   22.2308 C   0  0  0  0  0  0  0  0  0  0  0  0
   49.7135   13.4325   21.9639 C   0  0  0  0  0  0  0  0  0  0  0  0
   48.5147   14.0786   19.9164 C   0  0  0  0  0  0  0  0  0  0  0  0
   50.2307    9.8576   17.7689 C   0  0  0  0  0  0  0  0  0  0  0  0
   49.1626   14.4167   21.1284 C   0  0  0  0  0  0  0  0  0  0  0  0
   46.7375    9.1924   21.3825 C   0  0  0  0  0  0  0  0  0  0  0  0
   48.0122    8.4990   18.8600 O   0  0  0  0  0  0  0  0  0  0  0  0
   47.7153    9.8610   23.4443 O   0  0  0  0  0  0  0  0  0  0  0  0
   49.0081   10.4824   15.7887 C   0  0  0  0  0  0  0  0  0  0  0  0
   50.3165   13.6415   23.1678 O   0  0  0  0  0  0  0  0  0  0  0  0
   50.4967   14.9885   23.5736 C   0  0  0  0  0  0  0  0  0  0  0  0
   47.9642   11.2548   20.5085 C   0  0  2  0  0  0  0  0  0  0  0  0
   48.9532   11.4972   21.6506 C   0  0  2  0  0  0  0  0  0  0  0  0
   47.1490    9.9518   20.5086 C   0  0  1  0  0  0  0  0  0  0  0  0
   46.8964    9.6102   19.1117 O   0  0  0  0  0  0  0  0  0  0  0  0
   48.7199   10.9779   19.2479 C   0  0  0  0  0  0  0  0  0  0  0  0
   49.8814   12.6757   21.1664 C   0  0  2  0  0  0  0  0  0  0  0  0
   48.0180   10.0812   18.4624 C   0  0  0  0  0  0  0  0  0  0  0  0
   49.9594   11.4780   18.8987 C   0  0  0  0  0  0  0  0  0  0  0  0
   49.1216   13.8938   20.7791 N   0  0  0  0  0  0  0  0  0  0  0  0
   50.7347   12.2757   19.9159 C   0  0  0  0  0  0  0  0  0  0  0  0
   47.0705   12.5040   20.2851 C   0  0  0  0  0  0  0  0  0  0  0  0
   49.7182   10.2244   22.0442 C   0  0  0  0  0  0  0  0  0  0  0  0
   47.8526    8.7762   21.2150 C   0  0  0  0  0  0  0  0  0  0  0  0
   48.4708    9.7231   17.2068 C   0  0  0  0  0  0  0  0  0  0  0  0
   50.4511   11.1130   17.6469 C   0  0  0  0  0  0  0  0  0  0  0  0
   47.6640   13.8060   20.8523 C   0  0  0  0  0  0  0  0  0  0  0  0
   49.7020   10.2621   16.7992 C   0  0  0  0  0  0  0  0  0  0  0  0
   48.7473    9.0995   22.3902 C   0  0  0  0  0  0  0  0  0  0  0  0
   48.2289   11.8691   22.8393 O   0  0  0  0  0  0  0  0  0  0  0  0
   47.6443    7.5981   20.9127 O   0  0  0  0  0  0  0  0  0  0  0  0
   49.6294   15.1053   21.4152 C   0  0  0  0  0  0  0  0  0  0  0  0
   47.6906    8.8638   16.4925 O   0  0  0  0  0  0  0  0  0  0  0  0
   48.1074    8.5643   15.1684 C   0  0  0  0  0  0  0  0  0  0  0  0
   47.9059    9.3460   17.9738 C   0  0  0  0  0  0  0  0  0  0  0  0
   49.5362   13.3351   21.8170 C   0  0  0  0  0  0  0  0  0  0  0  0
   49.1074   12.2969   20.8471 C   0  0  0  0  0  0  0  0  0  0  0  0
   48.3351   10.3837   18.9429 C   0  0  0  0  0  0  0  0  0  0  0  0
   50.1142   14.3706   21.5430 O   0  0  0  0  0  0  0  0  0  0  0  0
   47.3442    8.3022   18.2511 O   0  0  0  0  0  0  0  0  0  0  0  0
   48.9887   11.5539   18.5377 C   0  0  0  0  0  0  0  0  0  0  0  0
   49.3728   12.5071   19.4872 C   0  0  0  0  0  0  0  0  0  0  0  0
   48.0668   10.1741   20.3018 C   0  0  0  0  0  0  0  0  0  0  0  0
   48.4510   11.1272   21.2513 C   0  0  0  0  0  0  0  0  0  0  0  0
   48.1965    9.6665   16.7007 O   0  0  0  0  0  0  0  0  0  0  0  0
   49.2169   13.0237   23.0859 O   0  0  0  0  0  0  0  0  0  0  0  0
   49.7895    8.9937   21.6631 H   0  0  0  0  0  0  0  0  0  0  0  0
   47.1111   10.4247   17.3036 H   0  0  0  0  0  0  0  0  0  0  0  0
   46.6030   12.4328   18.4898 H   0  0  0  0  0  0  0  0  0  0  0  0
   47.9148   12.9185   17.4254 H   0  0  0  0  0  0  0  0  0  0  0  0
   51.1986   10.8118   19.4496 H   0  0  0  0  0  0  0  0  0  0  0  0
   50.8877    9.0973   19.6536 H   0  0  0  0  0  0  0  0  0  0  0  0
   45.7858    9.5426   19.4952 H   0  0  0  0  0  0  0  0  0  0  0  0
   46.3415   11.0027   20.3096 H   0  0  0  0  0  0  0  0  0  0  0  0
   48.0599   14.8678   19.3218 H   0  0  0  0  0  0  0  0  0  0  0  0
   51.1917   10.0489   17.2750 H   0  0  0  0  0  0  0  0  0  0  0  0
   49.9954    8.8080   17.5511 H   0  0  0  0  0  0  0  0  0  0  0  0
   49.1918   15.4664   21.4041 H   0  0  0  0  0  0  0  0  0  0  0  0
   45.8057    9.2945   21.9490 H   0  0  0  0  0  0  0  0  0  0  0  0
   46.9017    8.1244   21.2102 H   0  0  0  0  0  0  0  0  0  0  0  0
   48.4767    7.9825   19.5373 H   0  0  0  0  0  0  0  0  0  0  0  0
   48.3384   11.2307   15.3500 H   0  0  0  0  0  0  0  0  0  0  0  0
   49.9538   10.5474   15.2393 H   0  0  0  0  0  0  0  0  0  0  0  0
   48.5798    9.4889   15.6145 H   0  0  0  0  0  0  0  0  0  0  0  0
   51.0340   14.9823   24.5278 H   0  0  0  0  0  0  0  0  0  0  0  0
   51.1086   15.5386   22.8530 H   0  0  0  0  0  0  0  0  0  0  0  0
   49.5352   15.4859   23.7325 H   0  0  0  0  0  0  0  0  0  0  0  0
   46.1828   10.0805   21.0107 H   0  0  0  0  0  0  0  0  0  0  0  0
   50.5681   12.9231   21.9874 H   0  0  0  0  0  0  0  0  0  0  0  0
   51.1629   13.1666   19.4398 H   0  0  0  0  0  0  0  0  0  0  0  0
   51.5810   11.6645   20.2543 H   0  0  0  0  0  0  0  0  0  0  0  0
   46.8527   12.6507   19.2185 H   0  0  0  0  0  0  0  0  0  0  0  0
   46.0995   12.3554   20.7744 H   0  0  0  0  0  0  0  0  0  0  0  0
   50.3429   10.4257   22.9233 H   0  0  0  0  0  0  0  0  0  0  0  0
   50.3876    9.8822   21.2480 H   0  0  0  0  0  0  0  0  0  0  0  0
   51.4209   11.4749   17.3130 H   0  0  0  0  0  0  0  0  0  0  0  0
   47.2241   14.6431   20.2940 H   0  0  0  0  0  0  0  0  0  0  0  0
   47.3196   13.9376   21.8862 H   0  0  0  0  0  0  0  0  0  0  0  0
   50.1309   10.0177   15.8322 H   0  0  0  0  0  0  0  0  0  0  0  0
   48.1126    9.3539   23.2450 H   0  0  0  0  0  0  0  0  0  0  0  0
   49.3164    8.2000   22.6527 H   0  0  0  0  0  0  0  0  0  0  0  0
   48.6105   12.7031   23.1709 H   0  0  0  0  0  0  0  0  0  0  0  0
   49.4662   15.0919   22.4998 H   0  0  0  0  0  0  0  0  0  0  0  0
   49.1408   15.9956   21.0018 H   0  0  0  0  0  0  0  0  0  0  0  0
   50.7023   15.2209   21.2264 H   0  0  0  0  0  0  0  0  0  0  0  0
   48.1674    9.4717   14.5583 H   0  0  0  0  0  0  0  0  0  0  0  0
   47.3536    7.9096   14.7194 H   0  0  0  0  0  0  0  0  0  0  0  0
   49.0623    8.0267   15.1664 H   0  0  0  0  0  0  0  0  0  0  0  0
   49.2046   11.7350   17.4869 H   0  0  0  0  0  0  0  0  0  0  0  0
   49.8808   13.4126   19.1599 H   0  0  0  0  0  0  0  0  0  0  0  0
   47.5596    9.2666   20.6264 H   0  0  0  0  0  0  0  0  0  0  0  0
   48.2307   10.9466   22.3014 H   0  0  0  0  0  0  0  0  0  0  0  0
   47.8482    8.9091   16.1835 H   0  0  0  0  0  0  0  0  0  0  0  0
   49.5494   13.7830   23.6088 H   0  0  0  0  0  0  0  0  0  0  0  0
 14  7  2  0
 15  8  1  0
 16 11  1  0
 17 15  2  0
 18 13  1  0
  2 19  1  6
 20 13  2  0
 21  9  1  0
  4  7  1  0
 16  9  1  0
  6 10  1  0
 18 12  1  0
 17 14  1  0
 14 22  1  0
 22 23  1  0
  2  1  1  0
  3  1  1  0
  3  4  1  0
  5  1  1  0
  6  2  1  0
  7  5  1  0
  8  5  2  0
  6  9  1  0
 10  8  1  0
  1 11  1  6
 12  2  1  0
 13  3  1  0
 37 30  2  0
 38 31  1  0
 39 34  1  0
 40 38  2  0
 41 36  1  0
 25 42  1  1
 43 36  2  0
 44 32  1  0
 27 30  1  0
 39 32  1  0
 29 33  1  0
 41 35  1  0
 40 37  1  0
 37 45  1  0
 45 46  1  0
 25 24  1  0
 26 24  1  0
 26 27  1  0
 28 24  1  0
 29 25  1  0
 30 28  1  0
 31 28  2  0
 29 32  1  0
 33 31  1  0
 24 34  1  1
 35 25  1  0
 36 26  1  0
 48 49  1  0
 49 56  2  0
 50 47  1  0
 51 48  2  0
 52 47  2  0
 53 50  1  0
 54 53  2  0
 55 50  2  0
 56 55  1  0
 57 47  1  0
 58 48  1  0
 49 54  1  0
  3 59  1  6
  6 60  1  1
 10 61  1  0
 10 62  1  0
 11 63  1  0
 11 64  1  0
 12 65  1  0
 12 66  1  0
 15 67  1  0
 16 68  1  0
 16 69  1  0
 17 70  1  0
 18 71  1  0
 18 72  1  0
 19 73  1  0
 21 74  1  0
 21 75  1  0
 21 76  1  0
 23 77  1  0
 23 78  1  0
 23 79  1  0
 26 80  1  1
 29 81  1  6
 33 82  1  0
 33 83  1  0
 34 84  1  0
 34 85  1  0
 35 86  1  0
 35 87  1  0
 38 88  1  0
 39 89  1  0
 39 90  1  0
 40 91  1  0
 41 92  1  0
 41 93  1  0
 42 94  1  0
 44 95  1  0
 44 96  1  0
 44 97  1  0
 46 98  1  0
 46 99  1  0
 46100  1  0
 53101  1  0
 54102  1  0
 55103  1  0
 56104  1  0
 57105  1  0
 58106  1  0
M  END
> <Uni-Dock RESULT> 
ENERGY=   -6.263  LOWER_BOUND=    0.000  UPPER_BOUND=    0.000
INTER + INTRA:          -6.263
INTER:                  -6.263
INTRA:                   0.000
UNBOUND:                 0.000

$$$$

     RDKit          3D

106114  0  0  0  0  0  0  0  0999 V2000
   49.6706    6.3924   19.1044 C   0  0  2  0  0  0  0  0  0  0  0  0
   50.2568    4.9843   18.9552 C   0  0  2  0  0  0  0  0  0  0  0  0
   50.6332    7.5730   19.3114 C   0  0  1  0  0  0  0  0  0  0  0  0
   49.9260    8.5668   20.1072 O   0  0  0  0  0  0  0  0  0  0  0  0
   48.9963    6.5084   20.4361 C   0  0  0  0  0  0  0  0  0  0  0  0
   49.0362    4.0033   19.1733 C   0  0  2  0  0  0  0  0  0  0  0  0
   49.1202    7.7989   20.9207 C   0  0  0  0  0  0  0  0  0  0  0  0
   48.3792    5.4935   21.1440 C   0  0  0  0  0  0  0  0  0  0  0  0
   47.8657    4.2978   18.2909 N   0  0  0  0  0  0  0  0  0  0  0  0
   48.4806    4.0791   20.6327 C   0  0  0  0  0  0  0  0  0  0  0  0
   48.6353    6.6713   17.9818 C   0  0  0  0  0  0  0  0  0  0  0  0
   51.4357    4.7378   19.9116 C   0  0  0  0  0  0  0  0  0  0  0  0
   51.9587    7.1902   20.0005 C   0  0  0  0  0  0  0  0  0  0  0  0
   48.5185    8.1804   22.1049 C   0  0  0  0  0  0  0  0  0  0  0  0
   47.7830    5.8471   22.3527 C   0  0  0  0  0  0  0  0  0  0  0  0
   48.0608    5.3937   17.3436 C   0  0  0  0  0  0  0  0  0  0  0  0
   47.8343    7.1830   22.8172 C   0  0  0  0  0  0  0  0  0  0  0  0
   52.5103    5.8059   19.7385 C   0  0  0  0  0  0  0  0  0  0  0  0
   50.7934    4.7572   17.6357 O   0  0  0  0  0  0  0  0  0  0  0  0
   52.6190    7.9958   20.6587 O   0  0  0  0  0  0  0  0  0  0  0  0
   47.3882    3.0953   17.6107 C   0  0  0  0  0  0  0  0  0  0  0  0
   48.6685    9.4815   22.4812 O   0  0  0  0  0  0  0  0  0  0  0  0
   47.9860    9.8967   23.6530 C   0  0  0  0  0  0  0  0  0  0  0  0
   50.0876    5.9462   20.5344 C   0  0  2  0  0  0  0  0  0  0  0  0
   49.9492    7.4554   20.7452 C   0  0  2  0  0  0  0  0  0  0  0  0
   51.3489    5.4164   19.8337 C   0  0  1  0  0  0  0  0  0  0  0  0
   50.9594    4.2026   19.1216 O   0  0  0  0  0  0  0  0  0  0  0  0
   49.1164    5.5001   19.4882 C   0  0  0  0  0  0  0  0  0  0  0  0
   48.4341    7.6971   21.1068 C   0  0  2  0  0  0  0  0  0  0  0  0
   49.6522    4.4524   18.7609 C   0  0  0  0  0  0  0  0  0  0  0  0
   47.8799    6.0529   19.2167 C   0  0  0  0  0  0  0  0  0  0  0  0
   47.9795    6.8969   22.2747 N   0  0  0  0  0  0  0  0  0  0  0  0
   47.4805    7.3237   19.9222 C   0  0  0  0  0  0  0  0  0  0  0  0
   49.7840    5.1805   21.8499 C   0  0  0  0  0  0  0  0  0  0  0  0
   50.4360    8.2641   19.5331 C   0  0  0  0  0  0  0  0  0  0  0  0
   51.9829    6.4189   18.8492 C   0  0  0  0  0  0  0  0  0  0  0  0
   48.9162    3.8105   17.7830 C   0  0  0  0  0  0  0  0  0  0  0  0
   47.1263    5.4397   18.2177 C   0  0  0  0  0  0  0  0  0  0  0  0
   48.9611    5.9902   22.8681 C   0  0  0  0  0  0  0  0  0  0  0  0
   47.6309    4.3138   17.5238 C   0  0  0  0  0  0  0  0  0  0  0  0
   51.8723    7.8902   19.1796 C   0  0  0  0  0  0  0  0  0  0  0  0
   50.8074    7.8677   21.8266 O   0  0  0  0  0  0  0  0  0  0  0  0
   52.6388    6.0618   17.8669 O   0  0  0  0  0  0  0  0  0  0  0  0
   47.2986    7.7022   23.2837 C   0  0  0  0  0  0  0  0  0  0  0  0
   49.5159    2.7644   17.1478 O   0  0  0  0  0  0  0  0  0  0  0  0
   48.7313    2.0469   16.2065 C   0  0  0  0  0  0  0  0  0  0  0  0
   49.8908    4.0161   18.0229 C   0  0  0  0  0  0  0  0  0  0  0  0
   48.6057    7.9536   22.0459 C   0  0  0  0  0  0  0  0  0  0  0  0
   48.9590    6.9486   21.0128 C   0  0  0  0  0  0  0  0  0  0  0  0
   49.5370    5.0207   19.0553 C   0  0  0  0  0  0  0  0  0  0  0  0
   47.5003    8.1229   22.5265 O   0  0  0  0  0  0  0  0  0  0  0  0
   50.9929    3.8601   17.5299 O   0  0  0  0  0  0  0  0  0  0  0  0
   48.2367    5.1404   19.5608 C   0  0  0  0  0  0  0  0  0  0  0  0
   47.9496    6.1012   20.5366 C   0  0  0  0  0  0  0  0  0  0  0  0
   50.5474    5.8656   19.5327 C   0  0  0  0  0  0  0  0  0  0  0  0
   50.2602    6.8263   20.5085 C   0  0  0  0  0  0  0  0  0  0  0  0
   48.8476    3.2496   17.6592 O   0  0  0  0  0  0  0  0  0  0  0  0
   49.6589    8.6979   22.4280 O   0  0  0  0  0  0  0  0  0  0  0  0
   50.9098    8.0328   18.3554 H   0  0  0  0  0  0  0  0  0  0  0  0
   49.3885    2.9812   18.9828 H   0  0  0  0  0  0  0  0  0  0  0  0
   49.1555    3.5240   21.2955 H   0  0  0  0  0  0  0  0  0  0  0  0
   47.5023    3.5874   20.7016 H   0  0  0  0  0  0  0  0  0  0  0  0
   47.8054    7.2890   18.3509 H   0  0  0  0  0  0  0  0  0  0  0  0
   49.1077    7.2478   17.1761 H   0  0  0  0  0  0  0  0  0  0  0  0
   51.8822    3.7579   19.7010 H   0  0  0  0  0  0  0  0  0  0  0  0
   51.1215    4.7272   20.9603 H   0  0  0  0  0  0  0  0  0  0  0  0
   47.2826    5.0952   22.9589 H   0  0  0  0  0  0  0  0  0  0  0  0
   47.0982    5.6559   16.8868 H   0  0  0  0  0  0  0  0  0  0  0  0
   48.7030    5.0814   16.5103 H   0  0  0  0  0  0  0  0  0  0  0  0
   47.3489    7.4027   23.7631 H   0  0  0  0  0  0  0  0  0  0  0  0
   53.3219    5.6156   20.4488 H   0  0  0  0  0  0  0  0  0  0  0  0
   52.9432    5.7916   18.7336 H   0  0  0  0  0  0  0  0  0  0  0  0
   51.1724    5.5758   17.2787 H   0  0  0  0  0  0  0  0  0  0  0  0
   47.1261    2.3190   18.3384 H   0  0  0  0  0  0  0  0  0  0  0  0
   46.4793    3.3065   17.0365 H   0  0  0  0  0  0  0  0  0  0  0  0
   48.1388    2.6880   16.9241 H   0  0  0  0  0  0  0  0  0  0  0  0
   48.1692   10.9681   23.7860 H   0  0  0  0  0  0  0  0  0  0  0  0
   46.9062    9.7560   23.5509 H   0  0  0  0  0  0  0  0  0  0  0  0
   48.3674    9.3781   24.5378 H   0  0  0  0  0  0  0  0  0  0  0  0
   52.1316    5.1549   20.5555 H   0  0  0  0  0  0  0  0  0  0  0  0
   48.3066    8.7654   21.3282 H   0  0  0  0  0  0  0  0  0  0  0  0
   46.4438    7.2432   20.2720 H   0  0  0  0  0  0  0  0  0  0  0  0
   47.5010    8.1404   19.1895 H   0  0  0  0  0  0  0  0  0  0  0  0
   49.2633    4.2347   21.6476 H   0  0  0  0  0  0  0  0  0  0  0  0
   50.7252    4.9079   22.3440 H   0  0  0  0  0  0  0  0  0  0  0  0
   50.4044    9.3355   19.7669 H   0  0  0  0  0  0  0  0  0  0  0  0
   49.8030    8.1102   18.6529 H   0  0  0  0  0  0  0  0  0  0  0  0
   46.1437    5.8268   17.9577 H   0  0  0  0  0  0  0  0  0  0  0  0
   48.4427    5.2751   23.5207 H   0  0  0  0  0  0  0  0  0  0  0  0
   49.6452    6.5385   23.5284 H   0  0  0  0  0  0  0  0  0  0  0  0
   46.9968    3.8722   16.7611 H   0  0  0  0  0  0  0  0  0  0  0  0
   52.5668    8.1116   19.9964 H   0  0  0  0  0  0  0  0  0  0  0  0
   52.1906    8.4687   18.3046 H   0  0  0  0  0  0  0  0  0  0  0  0
   50.2625    8.3635   22.4658 H   0  0  0  0  0  0  0  0  0  0  0  0
   47.9838    8.4092   23.7674 H   0  0  0  0  0  0  0  0  0  0  0  0
   46.8562    7.0635   24.0574 H   0  0  0  0  0  0  0  0  0  0  0  0
   46.4744    8.2679   22.8357 H   0  0  0  0  0  0  0  0  0  0  0  0
   47.8386    1.6226   16.6779 H   0  0  0  0  0  0  0  0  0  0  0  0
   49.3363    1.2162   15.8292 H   0  0  0  0  0  0  0  0  0  0  0  0
   48.4610    2.6792   15.3532 H   0  0  0  0  0  0  0  0  0  0  0  0
   47.4392    4.4926   19.2034 H   0  0  0  0  0  0  0  0  0  0  0  0
   46.9347    6.1850   20.9215 H   0  0  0  0  0  0  0  0  0  0  0  0
   51.5615    5.7802   19.1449 H   0  0  0  0  0  0  0  0  0  0  0  0
   51.0599    7.4707   20.8679 H   0  0  0  0  0  0  0  0  0  0  0  0
   49.2285    2.6360   16.9953 H   0  0  0  0  0  0  0  0  0  0  0  0
   49.2895    9.3054   23.1027 H   0  0  0  0  0  0  0  0  0  0  0  0
 14  7  2  0
 15  8  1  0
 16 11  1  0
 17 15  2  0
 18 13  1  0
  2 19  1  6
 20 13  2  0
 21  9  1  0
  4  7  1  0
 16  9  1  0
  6 10  1  0
 18 12  1  0
 17 14  1  0
 14 22  1  0
 22 23  1  0
  2  1  1  0
  3  1  1  0
  3  4  1  0
  5  1  1  0
  6  2  1  0
  7  5  1  0
  8  5  2  0
  6  9  1  0
 10  8  1  0
  1 11  1  6
 12  2  1  0
 13  3  1  0
 37 30  2  0
 38 31  1  0
 39 34  1  0
 40 38  2  0
 41 36  1  0
 25 42  1  1
 43 36  2  0
 44 32  1  0
 27 30  1  0
 39 32  1  0
 29 33  1  0
 41 35  1  0
 40 37  1  0
 37 45  1  0
 45 46  1  0
 25 24  1  0
 26 24  1  0
 26 27  1  0
 28 24  1  0
 29 25  1  0
 30 28  1  0
 31 28  2  0
 29 32  1  0
 33 31  1  0
 24 34  1  1
 35 25  1  0
 36 26  1  0
 48 49  1  0
 49 56  2  0
 50 47  1  0
 51 48  2  0
 52 47  2  0
 53 50  1  0
 54 53  2  0
 55 50  2  0
 56 55  1  0
 57 47  1  0
 58 48  1  0
 49 54  1  0
  3 59  1  6
  6 60  1  1
 10 61  1  0
 10 62  1  0
 11 63  1  0
 11 64  1  0
 12 65  1  0
 12 66  1  0
 15 67  1  0
 16 68  1  0
 16 69  1  0
 17 70  1  0
 18 71  1  0
 18 72  1  0
 19 73  1  0
 21 74  1  0
 21 75  1  0
 21 76  1  0
 23 77  1  0
 23 78  1  0
 23 79  1  0
 26 80  1  1
 29 81  1  6
 33 82  1  0
 33 83  1  0
 34 84  1  0
 34 85  1  0
 35 86  1  0
 35 87  1  0
 38 88  1  0
 39 89  1  0
 39 90  1  0
 40 91  1  0
 41 92  1  0
 41 93  1  0
 42 94  1  0
 44 95  1  0
 44 96  1  0
 44 97  1  0
 46 98  1  0
 46 99  1  0
 46100  1  0
 53101  1  0
 54102  1  0
 55103  1  0
 56104  1  0
 57105  1  0
 58106  1  0
M  END
> <Uni-Dock RESULT> 
ENERGY=   -5.897  LOWER_BOUND=    4.035  UPPER_BOUND=    6.021
INTER + INTRA:          -5.897
INTER:                  -5.897
INTRA:                   0.000
UNBOUND:                 0.000

$$$$

     RDKit          3D

106114  0  0  0  0  0  0  0  0999 V2000
   49.5493   12.1188   19.7064 C   0  0  2  0  0  0  0  0  0  0  0  0
   48.8342   13.3803   20.2022 C   0  0  2  0  0  0  0  0  0  0  0  0
   49.5527   11.8183   18.1987 C   0  0  1  0  0  0  0  0  0  0  0  0
   49.5986   10.3701   18.0515 O   0  0  0  0  0  0  0  0  0  0  0  0
   48.7552   10.9128   20.1018 C   0  0  0  0  0  0  0  0  0  0  0  0
   48.6649   13.1738   21.7606 C   0  0  2  0  0  0  0  0  0  0  0  0
   48.8850    9.9230   19.1432 C   0  0  0  0  0  0  0  0  0  0  0  0
   47.9499   10.7799   21.2181 C   0  0  0  0  0  0  0  0  0  0  0  0
   49.9443   12.8539   22.4651 N   0  0  0  0  0  0  0  0  0  0  0  0
   47.7051   11.9846   22.0905 C   0  0  0  0  0  0  0  0  0  0  0  0
   50.9694   12.0208   20.3258 C   0  0  0  0  0  0  0  0  0  0  0  0
   47.5124   13.6334   19.4578 C   0  0  0  0  0  0  0  0  0  0  0  0
   48.3361   12.3881   17.4413 C   0  0  0  0  0  0  0  0  0  0  0  0
   48.3029    8.6810   19.3122 C   0  0  0  0  0  0  0  0  0  0  0  0
   47.3335    9.5438   21.4009 C   0  0  0  0  0  0  0  0  0  0  0  0
   51.1350   12.8416   21.6175 C   0  0  0  0  0  0  0  0  0  0  0  0
   47.5263    8.4980   20.4671 C   0  0  0  0  0  0  0  0  0  0  0  0
   47.7366   13.6807   17.9502 C   0  0  0  0  0  0  0  0  0  0  0  0
   49.6192   14.5704   19.9831 O   0  0  0  0  0  0  0  0  0  0  0  0
   47.9136   11.8888   16.3971 O   0  0  0  0  0  0  0  0  0  0  0  0
   50.1423   13.7070   23.6354 C   0  0  0  0  0  0  0  0  0  0  0  0
   48.5167    7.7613   18.3297 O   0  0  0  0  0  0  0  0  0  0  0  0
   47.9891    6.4613   18.5374 C   0  0  0  0  0  0  0  0  0  0  0  0
   48.0283   11.8001   19.6533 C   0  0  2  0  0  0  0  0  0  0  0  0
   48.5749   10.6897   18.7534 C   0  0  2  0  0  0  0  0  0  0  0  0
   47.9086   13.2195   19.0760 C   0  0  1  0  0  0  0  0  0  0  0  0
   48.0957   14.1464   20.1886 O   0  0  0  0  0  0  0  0  0  0  0  0
   49.0411   12.1323   20.7024 C   0  0  0  0  0  0  0  0  0  0  0  0
   48.9371    9.4986   19.7201 C   0  0  2  0  0  0  0  0  0  0  0  0
   48.9777   13.4791   21.0121 C   0  0  0  0  0  0  0  0  0  0  0  0
   49.9585   11.2696   21.2703 C   0  0  0  0  0  0  0  0  0  0  0  0
   47.7911    9.0621   20.5611 N   0  0  0  0  0  0  0  0  0  0  0  0
   50.0891    9.8758   20.7114 C   0  0  0  0  0  0  0  0  0  0  0  0
   46.7217   11.3417   20.3546 C   0  0  0  0  0  0  0  0  0  0  0  0
   49.7491   11.1642   17.8838 C   0  0  0  0  0  0  0  0  0  0  0  0
   48.9287   13.5277   17.9621 C   0  0  0  0  0  0  0  0  0  0  0  0
   49.7621   14.0206   22.0127 C   0  0  0  0  0  0  0  0  0  0  0  0
   50.7794   11.7962   22.2657 C   0  0  0  0  0  0  0  0  0  0  0  0
   46.5459    9.8135   20.4104 C   0  0  0  0  0  0  0  0  0  0  0  0
   50.6652   13.1539   22.6496 C   0  0  0  0  0  0  0  0  0  0  0  0
   49.3503   12.3872   17.0634 C   0  0  0  0  0  0  0  0  0  0  0  0
   47.5593   10.2953   17.8105 O   0  0  0  0  0  0  0  0  0  0  0  0
   49.3364   14.6692   17.7312 O   0  0  0  0  0  0  0  0  0  0  0  0
   47.5692    7.6203   20.5135 C   0  0  0  0  0  0  0  0  0  0  0  0
   49.6006   15.3490   22.2711 O   0  0  0  0  0  0  0  0  0  0  0  0
   50.3393   15.8884   23.3573 C   0  0  0  0  0  0  0  0  0  0  0  0
   49.3020   14.2977   21.1403 C   0  0  0  0  0  0  0  0  0  0  0  0
   48.2190    8.9002   19.3984 C   0  0  0  0  0  0  0  0  0  0  0  0
   48.4914   10.2955   19.8241 C   0  0  0  0  0  0  0  0  0  0  0  0
   49.0302   12.9029   20.7151 C   0  0  0  0  0  0  0  0  0  0  0  0
   48.3026    7.9112   20.1029 O   0  0  0  0  0  0  0  0  0  0  0  0
   49.2357   15.2840   20.4297 O   0  0  0  0  0  0  0  0  0  0  0  0
   49.1423   11.8218   21.5979 C   0  0  0  0  0  0  0  0  0  0  0  0
   48.8732   10.5227   21.1532 C   0  0  0  0  0  0  0  0  0  0  0  0
   48.6459   12.6770   19.3870 C   0  0  0  0  0  0  0  0  0  0  0  0
   48.3768   11.3780   18.9424 C   0  0  0  0  0  0  0  0  0  0  0  0
   49.6399   14.3929   22.4383 O   0  0  0  0  0  0  0  0  0  0  0  0
   47.8526    8.8134   18.1071 O   0  0  0  0  0  0  0  0  0  0  0  0
   50.4389   12.2408   17.7111 H   0  0  0  0  0  0  0  0  0  0  0  0
   48.2398   14.0961   22.1774 H   0  0  0  0  0  0  0  0  0  0  0  0
   46.6705   12.3139   21.9354 H   0  0  0  0  0  0  0  0  0  0  0  0
   47.7867   11.7016   23.1472 H   0  0  0  0  0  0  0  0  0  0  0  0
   51.2427   10.9767   20.5300 H   0  0  0  0  0  0  0  0  0  0  0  0
   51.7130   12.3947   19.6105 H   0  0  0  0  0  0  0  0  0  0  0  0
   47.0881   14.5937   19.7767 H   0  0  0  0  0  0  0  0  0  0  0  0
   46.7629   12.8652   19.6742 H   0  0  0  0  0  0  0  0  0  0  0  0
   46.6857    9.3747   22.2582 H   0  0  0  0  0  0  0  0  0  0  0  0
   51.9758   12.4124   22.1769 H   0  0  0  0  0  0  0  0  0  0  0  0
   51.4456   13.8630   21.3635 H   0  0  0  0  0  0  0  0  0  0  0  0
   47.0254    7.5546   20.6620 H   0  0  0  0  0  0  0  0  0  0  0  0
   46.7749   13.8377   17.4500 H   0  0  0  0  0  0  0  0  0  0  0  0
   48.3959   14.5044   17.6602 H   0  0  0  0  0  0  0  0  0  0  0  0
   50.1366   14.4893   19.1664 H   0  0  0  0  0  0  0  0  0  0  0  0
   49.2975   13.6148   24.3273 H   0  0  0  0  0  0  0  0  0  0  0  0
   51.0371   13.4056   24.1912 H   0  0  0  0  0  0  0  0  0  0  0  0
   50.2512   14.7618   23.3594 H   0  0  0  0  0  0  0  0  0  0  0  0
   48.2883    5.8383   17.6880 H   0  0  0  0  0  0  0  0  0  0  0  0
   48.4033    6.0078   19.4424 H   0  0  0  0  0  0  0  0  0  0  0  0
   46.8956    6.4791   18.5725 H   0  0  0  0  0  0  0  0  0  0  0  0
   46.9165   13.3970   18.6443 H   0  0  0  0  0  0  0  0  0  0  0  0
   49.2756    8.6549   19.1034 H   0  0  0  0  0  0  0  0  0  0  0  0
   50.1441    9.1508   21.5329 H   0  0  0  0  0  0  0  0  0  0  0  0
   51.0438    9.8128   20.1740 H   0  0  0  0  0  0  0  0  0  0  0  0
   46.6578   11.7418   21.3756 H   0  0  0  0  0  0  0  0  0  0  0  0
   45.8536   11.7440   19.8172 H   0  0  0  0  0  0  0  0  0  0  0  0
   50.0439   10.3646   17.1929 H   0  0  0  0  0  0  0  0  0  0  0  0
   50.6323   11.4115   18.4820 H   0  0  0  0  0  0  0  0  0  0  0  0
   51.5215   11.1676   22.7526 H   0  0  0  0  0  0  0  0  0  0  0  0
   45.8830    9.5856   21.2556 H   0  0  0  0  0  0  0  0  0  0  0  0
   45.9990    9.4817   19.5185 H   0  0  0  0  0  0  0  0  0  0  0  0
   51.3251   13.5073   23.4360 H   0  0  0  0  0  0  0  0  0  0  0  0
   48.5266   12.1693   16.3761 H   0  0  0  0  0  0  0  0  0  0  0  0
   50.2077   12.7146   16.4640 H   0  0  0  0  0  0  0  0  0  0  0  0
   47.4537    9.3280   17.8750 H   0  0  0  0  0  0  0  0  0  0  0  0
   47.2369    7.2945   19.5202 H   0  0  0  0  0  0  0  0  0  0  0  0
   46.8133    7.3188   21.2483 H   0  0  0  0  0  0  0  0  0  0  0  0
   48.4869    7.0790   20.7682 H   0  0  0  0  0  0  0  0  0  0  0  0
   50.0899   15.3814   24.2953 H   0  0  0  0  0  0  0  0  0  0  0  0
   50.0601   16.9417   23.4628 H   0  0  0  0  0  0  0  0  0  0  0  0
   51.4170   15.8453   23.1628 H   0  0  0  0  0  0  0  0  0  0  0  0
   49.4383   11.9775   22.6331 H   0  0  0  0  0  0  0  0  0  0  0  0
   48.9644    9.6903   21.8489 H   0  0  0  0  0  0  0  0  0  0  0  0
   48.5567   13.5116   18.6931 H   0  0  0  0  0  0  0  0  0  0  0  0
   48.0769   11.2244   17.9078 H   0  0  0  0  0  0  0  0  0  0  0  0
   49.7733   15.3551   22.5753 H   0  0  0  0  0  0  0  0  0  0  0  0
   47.7035    7.8552   17.9652 H   0  0  0  0  0  0  0  0  0  0  0  0
 14  7  2  0
 15  8  1  0
 16 11  1  0
 17 15  2  0
 18 13  1  0
  2 19  1  6
 20 13  2  0
 21  9  1  0
  4  7  1  0
 16  9  1  0
  6 10  1  0
 18 12  1  0
 17 14  1  0
 14 22  1  0
 22 23  1  0
  2  1  1  0
  3  1  1  0
  3  4  1  0
  5  1  1  0
  6  2  1  0
  7  5  1  0
  8  5  2  0
  6  9  1  0
 10  8  1  0
  1 11  1  6
 12  2  1  0
 13  3  1  0
 37 30  2  0
 38 31  1  0
 39 34  1  0
 40 38  2  0
 41 36  1  0
 25 42  1  1
 43 36  2  0
 44 32  1  0
 27 30  1  0
 39 32  1  0
 29 33  1  0
 41 35  1  0
 40 37  1  0
 37 45  1  0
 45 46  1  0
 25 24  1  0
 26 24  1  0
 26 27  1  0
 28 24  1  0
 29 25  1  0
 30 28  1  0
 31 28  2  0
 29 32  1  0
 33 31  1  0
 24 34  1  1
 35 25  1  0
 36 26  1  0
 48 49  1  0
 49 56  2  0
 50 47  1  0
 51 48  2  0
 52 47  2  0
 53 50  1  0
 54 53  2  0
 55 50  2  0
 56 55  1  0
 57 47  1  0
 58 48  1  0
 49 54  1  0
  3 59  1  6
  6 60  1  1
 10 61  1  0
 10 62  1  0
 11 63  1  0
 11 64  1  0
 12 65  1  0
 12 66  1  0
 15 67  1  0
 16 68  1  0
 16 69  1  0
 17 70  1  0
 18 71  1  0
 18 72  1  0
 19 73  1  0
 21 74  1  0
 21 75  1  0
 21 76  1  0
 23 77  1  0
 23 78  1  0
 23 79  1  0
 26 80  1  1
 29 81  1  6
 33 82  1  0
 33 83  1  0
 34 84  1  0
 34 85  1  0
 35 86  1  0
 35 87  1  0
 38 88  1  0
 39 89  1  0
 39 90  1  0
 40 91  1  0
 41 92  1  0
 41 93  1  0
 42 94  1  0
 44 95  1  0
 44 96  1  0
 44 97  1  0
 46 98  1  0
 46 99  1  0
 46100  1  0
 53101  1  0
 54102  1  0
 55103  1  0
 56104  1  0
 57105  1  0
 58106  1  0
M  END
> <Uni-Dock RESULT> 
ENERGY=   -5.614  LOWER_BOUND=    1.493  UPPER_BOUND=    5.387
INTER + INTRA:          -5.614
INTER:                  -5.614
INTRA:                   0.000
UNBOUND:                 0.000

$$$$

     RDKit          3D

106114  0  0  0  0  0  0  0  0999 V2000
   47.8110   10.4335   18.8496 C   0  0  2  0  0  0  0  0  0  0  0  0
   48.8666   11.3116   18.1690 C   0  0  2  0  0  0  0  0  0  0  0  0
   46.7082   11.1144   19.6766 C   0  0  1  0  0  0  0  0  0  0  0  0
   46.3312   10.1855   20.7331 O   0  0  0  0  0  0  0  0  0  0  0  0
   48.4385    9.7071   19.9984 C   0  0  0  0  0  0  0  0  0  0  0  0
   50.0354   10.3224   17.7752 C   0  0  2  0  0  0  0  0  0  0  0  0
   47.5145    9.5364   21.0146 C   0  0  0  0  0  0  0  0  0  0  0  0
   49.7555    9.2983   20.1009 C   0  0  0  0  0  0  0  0  0  0  0  0
   49.5797    9.1453   16.9737 N   0  0  0  0  0  0  0  0  0  0  0  0
   50.7357    9.7162   19.0347 C   0  0  0  0  0  0  0  0  0  0  0  0
   47.2350    9.3996   17.8449 C   0  0  0  0  0  0  0  0  0  0  0  0
   49.3128   12.4842   19.0585 C   0  0  0  0  0  0  0  0  0  0  0  0
   47.1251   12.4679   20.2869 C   0  0  0  0  0  0  0  0  0  0  0  0
   47.8303    8.8289   22.1590 C   0  0  0  0  0  0  0  0  0  0  0  0
   50.1059    8.6013   21.2553 C   0  0  0  0  0  0  0  0  0  0  0  0
   48.1565    9.1325   16.6412 C   0  0  0  0  0  0  0  0  0  0  0  0
   49.1459    8.3509   22.2646 C   0  0  0  0  0  0  0  0  0  0  0  0
   48.1144   13.3107   19.5123 C   0  0  0  0  0  0  0  0  0  0  0  0
   48.3656   11.9270   16.9645 O   0  0  0  0  0  0  0  0  0  0  0  0
   46.6091   12.9190   21.3108 O   0  0  0  0  0  0  0  0  0  0  0  0
   50.3995    8.9582   15.7780 C   0  0  0  0  0  0  0  0  0  0  0  0
   46.8429    8.6851   23.0869 O   0  0  0  0  0  0  0  0  0  0  0  0
   47.1379    7.8918   24.2250 C   0  0  0  0  0  0  0  0  0  0  0  0
   48.7819   10.8895   19.9753 C   0  0  2  0  0  0  0  0  0  0  0  0
   47.5879   10.4249   20.8117 C   0  0  2  0  0  0  0  0  0  0  0  0
   48.7012   12.2569   19.2781 C   0  0  1  0  0  0  0  0  0  0  0  0
   49.5008   12.1592   18.0602 O   0  0  0  0  0  0  0  0  0  0  0  0
   48.8615   10.0706   18.7263 C   0  0  0  0  0  0  0  0  0  0  0  0
   47.8089    8.8823   21.0483 C   0  0  2  0  0  0  0  0  0  0  0  0
   49.3471   10.8413   17.6850 C   0  0  0  0  0  0  0  0  0  0  0  0
   48.4723    8.7540   18.5732 C   0  0  0  0  0  0  0  0  0  0  0  0
   49.1211    8.5714   21.6747 N   0  0  0  0  0  0  0  0  0  0  0  0
   47.7585    8.0696   19.7108 C   0  0  0  0  0  0  0  0  0  0  0  0
   50.1053   10.7138   20.7671 C   0  0  0  0  0  0  0  0  0  0  0  0
   46.2423   10.7669   20.1539 C   0  0  0  0  0  0  0  0  0  0  0  0
   47.2652   12.6938   18.9267 C   0  0  0  0  0  0  0  0  0  0  0  0
   49.5872   10.2917   16.4400 C   0  0  0  0  0  0  0  0  0  0  0  0
   48.6810    8.1818   17.3198 C   0  0  0  0  0  0  0  0  0  0  0  0
   50.0108    9.7043   21.9251 C   0  0  0  0  0  0  0  0  0  0  0  0
   49.2554    8.9377   16.2698 C   0  0  0  0  0  0  0  0  0  0  0  0
   46.1542   12.2607   19.8562 C   0  0  0  0  0  0  0  0  0  0  0  0
   47.5738   11.1395   22.0628 O   0  0  0  0  0  0  0  0  0  0  0  0
   47.0111   13.4425   17.9793 O   0  0  0  0  0  0  0  0  0  0  0  0
   49.0013    7.7016   22.8407 C   0  0  0  0  0  0  0  0  0  0  0  0
   50.1024   11.1214   15.4894 O   0  0  0  0  0  0  0  0  0  0  0  0
   50.4337   10.5393   14.2373 C   0  0  0  0  0  0  0  0  0  0  0  0
   49.3471   11.1915   16.8670 C   0  0  0  0  0  0  0  0  0  0  0  0
   47.9856    8.9644   22.0174 C   0  0  0  0  0  0  0  0  0  0  0  0
   48.3258    9.5578   20.7004 C   0  0  0  0  0  0  0  0  0  0  0  0
   49.0071   10.5978   18.1831 C   0  0  0  0  0  0  0  0  0  0  0  0
   48.2523    7.8333   22.3794 O   0  0  0  0  0  0  0  0  0  0  0  0
   49.0638   12.3169   16.4994 O   0  0  0  0  0  0  0  0  0  0  0  0
   49.3625    9.2862   18.5207 C   0  0  0  0  0  0  0  0  0  0  0  0
   49.0230    8.7688   19.7757 C   0  0  0  0  0  0  0  0  0  0  0  0
   48.3124   11.3882   19.1080 C   0  0  0  0  0  0  0  0  0  0  0  0
   47.9730   10.8708   20.3628 C   0  0  0  0  0  0  0  0  0  0  0  0
   50.0312   10.3486   16.0736 O   0  0  0  0  0  0  0  0  0  0  0  0
   47.3275    9.8212   22.8186 O   0  0  0  0  0  0  0  0  0  0  0  0
   45.8210   11.3173   19.0656 H   0  0  0  0  0  0  0  0  0  0  0  0
   50.7769   10.8910   17.1989 H   0  0  0  0  0  0  0  0  0  0  0  0
   51.4048   10.4722   19.4634 H   0  0  0  0  0  0  0  0  0  0  0  0
   51.3673    8.8639   18.7552 H   0  0  0  0  0  0  0  0  0  0  0  0
   47.0116    8.4454   18.3409 H   0  0  0  0  0  0  0  0  0  0  0  0
   46.2806    9.7638   17.4437 H   0  0  0  0  0  0  0  0  0  0  0  0
   49.9919   13.1363   18.4949 H   0  0  0  0  0  0  0  0  0  0  0  0
   49.8580   12.1455   19.9455 H   0  0  0  0  0  0  0  0  0  0  0  0
   51.1267    8.2537   21.3984 H   0  0  0  0  0  0  0  0  0  0  0  0
   47.8875    8.1515   16.2297 H   0  0  0  0  0  0  0  0  0  0  0  0
   47.9340    9.8533   15.8441 H   0  0  0  0  0  0  0  0  0  0  0  0
   49.4731    7.7991   23.1405 H   0  0  0  0  0  0  0  0  0  0  0  0
   48.4634   14.1207   20.1616 H   0  0  0  0  0  0  0  0  0  0  0  0
   47.5904   13.7692   18.6682 H   0  0  0  0  0  0  0  0  0  0  0  0
   47.4222   12.1337   17.0569 H   0  0  0  0  0  0  0  0  0  0  0  0
   51.4554    8.8446   16.0483 H   0  0  0  0  0  0  0  0  0  0  0  0
   50.1117    8.0444   15.2466 H   0  0  0  0  0  0  0  0  0  0  0  0
   50.3080    9.8004   15.0831 H   0  0  0  0  0  0  0  0  0  0  0  0
   46.2332    7.8375   24.8396 H   0  0  0  0  0  0  0  0  0  0  0  0
   47.4032    6.8710   23.9357 H   0  0  0  0  0  0  0  0  0  0  0  0
   47.9284    8.3463   24.8299 H   0  0  0  0  0  0  0  0  0  0  0  0
   49.1225   13.0536   19.9025 H   0  0  0  0  0  0  0  0  0  0  0  0
   47.0018    8.5223   21.7009 H   0  0  0  0  0  0  0  0  0  0  0  0
   48.1708    7.0632   19.8549 H   0  0  0  0  0  0  0  0  0  0  0  0
   46.7075    7.9389   19.4234 H   0  0  0  0  0  0  0  0  0  0  0  0
   50.9280   10.4141   20.1038 H   0  0  0  0  0  0  0  0  0  0  0  0
   50.4041   11.6749   21.2043 H   0  0  0  0  0  0  0  0  0  0  0  0
   45.4215   10.4995   20.8309 H   0  0  0  0  0  0  0  0  0  0  0  0
   46.0841   10.2104   19.2242 H   0  0  0  0  0  0  0  0  0  0  0  0
   48.3969    7.1481   17.1358 H   0  0  0  0  0  0  0  0  0  0  0  0
   51.0239    9.3297   22.1234 H   0  0  0  0  0  0  0  0  0  0  0  0
   49.7158   10.2335   22.8403 H   0  0  0  0  0  0  0  0  0  0  0  0
   49.4019    8.4377   15.3172 H   0  0  0  0  0  0  0  0  0  0  0  0
   46.2138   12.8648   20.7671 H   0  0  0  0  0  0  0  0  0  0  0  0
   45.1932   12.4763   19.3747 H   0  0  0  0  0  0  0  0  0  0  0  0
   47.5303   10.4808   22.7807 H   0  0  0  0  0  0  0  0  0  0  0  0
   48.4868    8.2038   23.6691 H   0  0  0  0  0  0  0  0  0  0  0  0
   49.9900    7.3810   23.1898 H   0  0  0  0  0  0  0  0  0  0  0  0
   48.4476    6.7906   22.5886 H   0  0  0  0  0  0  0  0  0  0  0  0
   51.1761    9.7431   14.3558 H   0  0  0  0  0  0  0  0  0  0  0  0
   50.8785   11.3198   13.6116 H   0  0  0  0  0  0  0  0  0  0  0  0
   49.5391   10.1681   13.7246 H   0  0  0  0  0  0  0  0  0  0  0  0
   49.9031    8.6576   17.8163 H   0  0  0  0  0  0  0  0  0  0  0  0
   49.3045    7.7474   20.0263 H   0  0  0  0  0  0  0  0  0  0  0  0
   48.0312   12.4092   18.8539 H   0  0  0  0  0  0  0  0  0  0  0  0
   47.4360   11.5021   21.0678 H   0  0  0  0  0  0  0  0  0  0  0  0
   50.1947   10.8732   15.2609 H   0  0  0  0  0  0  0  0  0  0  0  0
   47.1722    9.3088   23.6396 H   0  0  0  0  0  0  0  0  0  0  0  0
 14  7  2  0
 15  8  1  0
 16 11  1  0
 17 15  2  0
 18 13  1  0
  2 19  1  6
 20 13  2  0
 21  9  1  0
  4  7  1  0
 16  9  1  0
  6 10  1  0
 18 12  1  0
 17 14  1  0
 14 22  1  0
 22 23  1  0
  2  1  1  0
  3  1  1  0
  3  4  1  0
  5  1  1  0
  6  2  1  0
  7  5  1  0
  8  5  2  0
  6  9  1  0
 10  8  1  0
  1 11  1  6
 12  2  1  0
 13  3  1  0
 37 30  2  0
 38 31  1  0
 39 34  1  0
 40 38  2  0
 41 36  1  0
 25 42  1  1
 43 36  2  0
 44 32  1  0
 27 30  1  0
 39 32  1  0
 29 33  1  0
 41 35  1  0
 40 37  1  0
 37 45  1  0
 45 46  1  0
 25 24  1  0
 26 24  1  0
 26 27  1  0
 28 24  1  0
 29 25  1  0
 30 28  1  0
 31 28  2  0
 29 32  1  0
 33 31  1  0
 24 34  1  1
 35 25  1  0
 36 26  1  0
 48 49  1  0
 49 56  2  0
 50 47  1  0
 51 48  2  0
 52 47  2  0
 53 50  1  0
 54 53  2  0
 55 50  2  0
 56 55  1  0
 57 47  1  0
 58 48  1  0
 49 54  1  0
  3 59  1  6
  6 60  1  1
 10 61  1  0
 10 62  1  0
 11 63  1  0
 11 64  1  0
 12 65  1  0
 12 66  1  0
 15 67  1  0
 16 68  1  0
 16 69  1  0
 17 70  1  0
 18 71  1  0
 18 72  1  0
 19 73  1  0
 21 74  1  0
 21 75  1  0
 21 76  1  0
 23 77  1  0
 23 78  1  0
 23 79  1  0
 26 80  1  1
 29 81  1  6
 33 82  1  0
 33 83  1  0
 34 84  1  0
 34 85  1  0
 35 86  1  0
 35 87  1  0
 38 88  1  0
 39 89  1  0
 39 90  1  0
 40 91  1  0
 41 92  1  0
 41 93  1  0
 42 94  1  0
 44 95  1  0
 44 96  1  0
 44 97  1  0
 46 98  1  0
 46 99  1  0
 46100  1  0
 53101  1  0
 54102  1  0
 55103  1  0
 56104  1  0
 57105  1  0
 58106  1  0
M  END
> <Uni-Dock RESULT> 
ENERGY=   -5.582  LOWER_BOUND=    1.888  UPPER_BOUND=    3.915
INTER + INTRA:          -5.582
INTER:                  -5.582
INTRA:                   0.000
UNBOUND:                 0.000

$$$$

     RDKit          3D

106114  0  0  0  0  0  0  0  0999 V2000
   49.9632    5.2140   19.1034 C   0  0  2  0  0  0  0  0  0  0  0  0
   50.5427    5.7074   20.4335 C   0  0  2  0  0  0  0  0  0  0  0  0
   50.9182    4.6020   18.0655 C   0  0  1  0  0  0  0  0  0  0  0  0
   50.3593    4.8856   16.7508 O   0  0  0  0  0  0  0  0  0  0  0  0
   49.5653    6.3925   18.2702 C   0  0  0  0  0  0  0  0  0  0  0  0
   49.4148    6.6196   21.0626 C   0  0  2  0  0  0  0  0  0  0  0  0
   49.7512    6.1102   16.9281 C   0  0  0  0  0  0  0  0  0  0  0  0
   49.1271    7.6214   18.7281 C   0  0  0  0  0  0  0  0  0  0  0  0
   48.0850    5.9438   21.1640 N   0  0  0  0  0  0  0  0  0  0  0  0
   49.1596    7.9039   20.2085 C   0  0  0  0  0  0  0  0  0  0  0  0
   48.7184    4.3204   19.3516 C   0  0  0  0  0  0  0  0  0  0  0  0
   51.8944    6.4188   20.2539 C   0  0  0  0  0  0  0  0  0  0  0  0
   52.3635    5.1331   18.1510 C   0  0  0  0  0  0  0  0  0  0  0  0
   49.3884    7.0150   15.9485 C   0  0  0  0  0  0  0  0  0  0  0  0
   48.7752    8.5601   17.7605 C   0  0  0  0  0  0  0  0  0  0  0  0
   48.0601    4.5502   20.7240 C   0  0  0  0  0  0  0  0  0  0  0  0
   48.8850    8.2509   16.3838 C   0  0  0  0  0  0  0  0  0  0  0  0
   52.8860    5.5262   19.5154 C   0  0  0  0  0  0  0  0  0  0  0  0
   50.8110    4.6216   21.3444 O   0  0  0  0  0  0  0  0  0  0  0  0
   53.1216    5.1476   17.1797 O   0  0  0  0  0  0  0  0  0  0  0  0
   47.5115    6.0820   22.5014 C   0  0  0  0  0  0  0  0  0  0  0  0
   49.5781    6.6318   14.6547 O   0  0  0  0  0  0  0  0  0  0  0  0
   49.1328    7.5238   13.6460 C   0  0  0  0  0  0  0  0  0  0  0  0
   50.6679    6.5644   18.7910 C   0  0  2  0  0  0  0  0  0  0  0  0
   50.5369    5.9883   17.3796 C   0  0  2  0  0  0  0  0  0  0  0  0
   51.7769    6.0197   19.7053 C   0  0  1  0  0  0  0  0  0  0  0  0
   51.2836    6.1209   21.0759 O   0  0  0  0  0  0  0  0  0  0  0  0
   49.5191    6.0968   19.6266 C   0  0  0  0  0  0  0  0  0  0  0  0
   49.1188    6.4443   16.8642 C   0  0  2  0  0  0  0  0  0  0  0  0
   49.9249    5.9299   20.9386 C   0  0  0  0  0  0  0  0  0  0  0  0
   48.2399    5.8114   19.1901 C   0  0  0  0  0  0  0  0  0  0  0  0
   48.9261    7.9177   16.9172 N   0  0  0  0  0  0  0  0  0  0  0  0
   47.9577    5.8201   17.7094 C   0  0  0  0  0  0  0  0  0  0  0  0
   50.6518    8.1160   18.7517 C   0  0  0  0  0  0  0  0  0  0  0  0
   50.7521    4.4676   17.3445 C   0  0  0  0  0  0  0  0  0  0  0  0
   52.1769    4.5626   19.4002 C   0  0  0  0  0  0  0  0  0  0  0  0
   49.0249    5.5772   21.9263 C   0  0  0  0  0  0  0  0  0  0  0  0
   47.3177    5.4296   20.1626 C   0  0  0  0  0  0  0  0  0  0  0  0
   50.0285    8.7017   17.4720 C   0  0  0  0  0  0  0  0  0  0  0  0
   47.7017    5.3366   21.5219 C   0  0  0  0  0  0  0  0  0  0  0  0
   52.0979    4.1010   17.9626 C   0  0  0  0  0  0  0  0  0  0  0  0
   51.5829    6.5235   16.5458 O   0  0  0  0  0  0  0  0  0  0  0  0
   52.6324    3.8041   20.2604 O   0  0  0  0  0  0  0  0  0  0  0  0
   48.4403    8.4720   15.6574 C   0  0  0  0  0  0  0  0  0  0  0  0
   49.5118    5.4749   23.1952 O   0  0  0  0  0  0  0  0  0  0  0  0
   48.5733    5.2007   24.2250 C   0  0  0  0  0  0  0  0  0  0  0  0
   50.0224    5.4934   21.7079 C   0  0  0  0  0  0  0  0  0  0  0  0
   49.4677    7.0666   16.1800 C   0  0  0  0  0  0  0  0  0  0  0  0
   49.6328    6.6551   17.5962 C   0  0  0  0  0  0  0  0  0  0  0  0
   49.8567    5.9045   20.2924 C   0  0  0  0  0  0  0  0  0  0  0  0
   48.4764    7.5843   15.6995 O   0  0  0  0  0  0  0  0  0  0  0  0
   51.0076    4.9590   22.1830 O   0  0  0  0  0  0  0  0  0  0  0  0
   48.6807    6.5044   19.8256 C   0  0  0  0  0  0  0  0  0  0  0  0
   48.5701    6.8785   18.4819 C   0  0  0  0  0  0  0  0  0  0  0  0
   50.9207    5.6832   19.4082 C   0  0  0  0  0  0  0  0  0  0  0  0
   50.8100    6.0574   18.0646 C   0  0  0  0  0  0  0  0  0  0  0  0
   48.9470    5.7754   22.4641 O   0  0  0  0  0  0  0  0  0  0  0  0
   50.5571    6.8096   15.4341 O   0  0  0  0  0  0  0  0  0  0  0  0
   50.9872    3.5141   18.1815 H   0  0  0  0  0  0  0  0  0  0  0  0
   49.7474    6.9224   22.0640 H   0  0  0  0  0  0  0  0  0  0  0  0
   49.9667    8.6212   20.4015 H   0  0  0  0  0  0  0  0  0  0  0  0
   48.2273    8.3945   20.5143 H   0  0  0  0  0  0  0  0  0  0  0  0
   47.9636    4.4632   18.5665 H   0  0  0  0  0  0  0  0  0  0  0  0
   49.0061    3.2622   19.3070 H   0  0  0  0  0  0  0  0  0  0  0  0
   52.3141    6.6658   21.2372 H   0  0  0  0  0  0  0  0  0  0  0  0
   51.7959    7.3597   19.7030 H   0  0  0  0  0  0  0  0  0  0  0  0
   48.4245    9.5469   18.0546 H   0  0  0  0  0  0  0  0  0  0  0  0
   47.0195    4.2092   20.6533 H   0  0  0  0  0  0  0  0  0  0  0  0
   48.5308    3.8959   21.4688 H   0  0  0  0  0  0  0  0  0  0  0  0
   48.5925    9.0184   15.6738 H   0  0  0  0  0  0  0  0  0  0  0  0
   53.8274    6.0700   19.3830 H   0  0  0  0  0  0  0  0  0  0  0  0
   53.1101    4.6131   20.0751 H   0  0  0  0  0  0  0  0  0  0  0  0
   51.0908    3.8313   20.8562 H   0  0  0  0  0  0  0  0  0  0  0  0
   47.4191    7.1394   22.7740 H   0  0  0  0  0  0  0  0  0  0  0  0
   46.5014    5.6592   22.5386 H   0  0  0  0  0  0  0  0  0  0  0  0
   48.1200    5.5795   23.2616 H   0  0  0  0  0  0  0  0  0  0  0  0
   49.3122    7.0492   12.6755 H   0  0  0  0  0  0  0  0  0  0  0  0
   48.0581    7.7089   13.7300 H   0  0  0  0  0  0  0  0  0  0  0  0
   49.6957    8.4617   13.6706 H   0  0  0  0  0  0  0  0  0  0  0  0
   52.6941    6.6151   19.6257 H   0  0  0  0  0  0  0  0  0  0  0  0
   49.0115    6.1022   15.8258 H   0  0  0  0  0  0  0  0  0  0  0  0
   47.0139    6.3445   17.5152 H   0  0  0  0  0  0  0  0  0  0  0  0
   47.8115    4.7820   17.3849 H   0  0  0  0  0  0  0  0  0  0  0  0
   50.1249    8.5297   19.6222 H   0  0  0  0  0  0  0  0  0  0  0  0
   51.6791    8.4974   18.8106 H   0  0  0  0  0  0  0  0  0  0  0  0
   50.7411    4.1167   16.3051 H   0  0  0  0  0  0  0  0  0  0  0  0
   49.9603    3.9263   17.8729 H   0  0  0  0  0  0  0  0  0  0  0  0
   46.2937    5.1926   19.8830 H   0  0  0  0  0  0  0  0  0  0  0  0
   49.6686    9.7117   17.7094 H   0  0  0  0  0  0  0  0  0  0  0  0
   50.8167    8.8464   16.7219 H   0  0  0  0  0  0  0  0  0  0  0  0
   46.9394    5.0422   22.2368 H   0  0  0  0  0  0  0  0  0  0  0  0
   52.9355    4.5431   17.4137 H   0  0  0  0  0  0  0  0  0  0  0  0
   52.2209    3.0119   17.9391 H   0  0  0  0  0  0  0  0  0  0  0  0
   51.1643    6.9029   15.7508 H   0  0  0  0  0  0  0  0  0  0  0  0
   49.1904    8.3867   14.8616 H   0  0  0  0  0  0  0  0  0  0  0  0
   48.1770    9.5300   15.7740 H   0  0  0  0  0  0  0  0  0  0  0  0
   47.5295    7.9565   15.3336 H   0  0  0  0  0  0  0  0  0  0  0  0
   47.8033    5.9778   24.2751 H   0  0  0  0  0  0  0  0  0  0  0  0
   49.1114    5.2022   25.1784 H   0  0  0  0  0  0  0  0  0  0  0  0
   48.1227    4.2101   24.0960 H   0  0  0  0  0  0  0  0  0  0  0  0
   47.8443    6.6854   20.4973 H   0  0  0  0  0  0  0  0  0  0  0  0
   47.6505    7.3437   18.1308 H   0  0  0  0  0  0  0  0  0  0  0  0
   51.8389    5.2166   19.7621 H   0  0  0  0  0  0  0  0  0  0  0  0
   51.6490    5.8794   17.3950 H   0  0  0  0  0  0  0  0  0  0  0  0
   49.2030    5.4661   23.3593 H   0  0  0  0  0  0  0  0  0  0  0  0
   50.3147    7.1288   14.5397 H   0  0  0  0  0  0  0  0  0  0  0  0
 14  7  2  0
 15  8  1  0
 16 11  1  0
 17 15  2  0
 18 13  1  0
  2 19  1  6
 20 13  2  0
 21  9  1  0
  4  7  1  0
 16  9  1  0
  6 10  1  0
 18 12  1  0
 17 14  1  0
 14 22  1  0
 22 23  1  0
  2  1  1  0
  3  1  1  0
  3  4  1  0
  5  1  1  0
  6  2  1  0
  7  5  1  0
  8  5  2  0
  6  9  1  0
 10  8  1  0
  1 11  1  6
 12  2  1  0
 13  3  1  0
 37 30  2  0
 38 31  1  0
 39 34  1  0
 40 38  2  0
 41 36  1  0
 25 42  1  1
 43 36  2  0
 44 32  1  0
 27 30  1  0
 39 32  1  0
 29 33  1  0
 41 35  1  0
 40 37  1  0
 37 45  1  0
 45 46  1  0
 25 24  1  0
 26 24  1  0
 26 27  1  0
 28 24  1  0
 29 25  1  0
 30 28  1  0
 31 28  2  0
 29 32  1  0
 33 31  1  0
 24 34  1  1
 35 25  1  0
 36 26  1  0
 48 49  1  0
 49 56  2  0
 50 47  1  0
 51 48  2  0
 52 47  2  0
 53 50  1  0
 54 53  2  0
 55 50  2  0
 56 55  1  0
 57 47  1  0
 58 48  1  0
 49 54  1  0
  3 59  1  6
  6 60  1  1
 10 61  1  0
 10 62  1  0
 11 63  1  0
 11 64  1  0
 12 65  1  0
 12 66  1  0
 15 67  1  0
 16 68  1  0
 16 69  1  0
 17 70  1  0
 18 71  1  0
 18 72  1  0
 19 73  1  0
 21 74  1  0
 21 75  1  0
 21 76  1  0
 23 77  1  0
 23 78  1  0
 23 79  1  0
 26 80  1  1
 29 81  1  6
 33 82  1  0
 33 83  1  0
 34 84  1  0
 34 85  1  0
 35 86  1  0
 35 87  1  0
 38 88  1  0
 39 89  1  0
 39 90  1  0
 40 91  1  0
 41 92  1  0
 41 93  1  0
 42 94  1  0
 44 95  1  0
 44 96  1  0
 44 97  1  0
 46 98  1  0
 46 99  1  0
 46100  1  0
 53101  1  0
 54102  1  0
 55103  1  0
 56104  1  0
 57105  1  0
 58106  1  0
M  END
> <Uni-Dock RESULT> 
ENERGY=   -5.560  LOWER_BOUND=    4.233  UPPER_BOUND=    7.124
INTER + INTRA:          -5.560
INTER:                  -5.560
INTRA:                   0.000
UNBOUND:                 0.000

$$$$

     RDKit          3D

106114  0  0  0  0  0  0  0  0999 V2000
   48.1211   11.3943   20.3356 C   0  0  2  0  0  0  0  0  0  0  0  0
   49.1850   11.5576   21.4264 C   0  0  2  0  0  0  0  0  0  0  0  0
   47.2326   10.1397   20.3549 C   0  0  1  0  0  0  0  0  0  0  0  0
   46.8778    9.8459   18.9733 O   0  0  0  0  0  0  0  0  0  0  0  0
   48.7920   11.0875   19.0329 C   0  0  0  0  0  0  0  0  0  0  0  0
   50.1543   12.6868   20.8924 C   0  0  2  0  0  0  0  0  0  0  0  0
   47.9930   10.2522   18.2718 C   0  0  0  0  0  0  0  0  0  0  0  0
   50.0468   11.5046   18.6282 C   0  0  0  0  0  0  0  0  0  0  0  0
   49.4495   13.9465   20.5028 N   0  0  0  0  0  0  0  0  0  0  0  0
   50.9268   12.2343   19.6108 C   0  0  0  0  0  0  0  0  0  0  0  0
   47.2904   12.6974   20.1878 C   0  0  0  0  0  0  0  0  0  0  0  0
   49.8913   10.2320   21.7569 C   0  0  0  0  0  0  0  0  0  0  0  0
   47.8975    8.9084   21.0030 C   0  0  0  0  0  0  0  0  0  0  0  0
   48.3594    9.8802   16.9922 C   0  0  0  0  0  0  0  0  0  0  0  0
   50.4499   11.1247   17.3497 C   0  0  0  0  0  0  0  0  0  0  0  0
   48.0057   13.9476   20.7306 C   0  0  0  0  0  0  0  0  0  0  0  0
   49.6041   10.3378   16.5321 C   0  0  0  0  0  0  0  0  0  0  0  0
   48.8794    9.1531   22.1277 C   0  0  0  0  0  0  0  0  0  0  0  0
   48.6167   11.9989   22.6766 O   0  0  0  0  0  0  0  0  0  0  0  0
   47.5813    7.7544   20.7091 O   0  0  0  0  0  0  0  0  0  0  0  0
   50.0763   15.1222   21.1040 C   0  0  0  0  0  0  0  0  0  0  0  0
   47.4901    9.0837   16.3091 O   0  0  0  0  0  0  0  0  0  0  0  0
   47.8241    8.7660   14.9679 C   0  0  0  0  0  0  0  0  0  0  0  0
   49.2805   10.4312   19.9533 C   0  0  2  0  0  0  0  0  0  0  0  0
   48.1544    9.8664   19.0848 C   0  0  2  0  0  0  0  0  0  0  0  0
   49.2888   10.0949   21.4531 C   0  0  1  0  0  0  0  0  0  0  0  0
   49.9046   11.2281   22.1378 O   0  0  0  0  0  0  0  0  0  0  0  0
   49.0906   11.9059   20.1148 C   0  0  0  0  0  0  0  0  0  0  0  0
   48.2016   10.6878   17.7404 C   0  0  2  0  0  0  0  0  0  0  0  0
   49.5335   12.3065   21.3627 C   0  0  0  0  0  0  0  0  0  0  0  0
   48.5169   12.7715   19.2038 C   0  0  0  0  0  0  0  0  0  0  0  0
   49.5321   10.6446   17.0779 N   0  0  0  0  0  0  0  0  0  0  0  0
   47.8733   12.2023   17.9653 C   0  0  0  0  0  0  0  0  0  0  0  0
   50.6609   10.1800   19.2898 C   0  0  0  0  0  0  0  0  0  0  0  0
   46.7912    9.9080   19.7918 C   0  0  0  0  0  0  0  0  0  0  0  0
   47.8886    9.8279   22.0400 C   0  0  0  0  0  0  0  0  0  0  0  0
   49.5370   13.6397   21.7264 C   0  0  0  0  0  0  0  0  0  0  0  0
   48.4854   14.1195   19.5559 C   0  0  0  0  0  0  0  0  0  0  0  0
   50.5866    9.9108   17.7761 C   0  0  0  0  0  0  0  0  0  0  0  0
   49.0126   14.5521   20.7964 C   0  0  0  0  0  0  0  0  0  0  0  0
   46.8603    9.1879   21.1351 C   0  0  0  0  0  0  0  0  0  0  0  0
   48.3954    8.4670   18.8404 O   0  0  0  0  0  0  0  0  0  0  0  0
   47.6137   10.0357   23.2249 O   0  0  0  0  0  0  0  0  0  0  0  0
   49.4520   10.2777   15.6675 C   0  0  0  0  0  0  0  0  0  0  0  0
   50.0284   13.9399   22.9617 O   0  0  0  0  0  0  0  0  0  0  0  0
   50.1164   15.3155   23.3031 C   0  0  0  0  0  0  0  0  0  0  0  0
   49.4733   12.7105   22.1532 C   0  0  0  0  0  0  0  0  0  0  0  0
   48.5114    9.9318   17.1839 C   0  0  0  0  0  0  0  0  0  0  0  0
   48.7526   10.6260   18.4732 C   0  0  0  0  0  0  0  0  0  0  0  0
   49.2320   12.0172   20.8643 C   0  0  0  0  0  0  0  0  0  0  0  0
   48.6732   10.4098   16.0763 O   0  0  0  0  0  0  0  0  0  0  0  0
   49.2936   12.2373   23.2604 O   0  0  0  0  0  0  0  0  0  0  0  0
   49.4544   12.6424   19.6313 C   0  0  0  0  0  0  0  0  0  0  0  0
   49.2157   11.9482   18.4401 C   0  0  0  0  0  0  0  0  0  0  0  0
   48.7717   10.6945   20.8984 C   0  0  0  0  0  0  0  0  0  0  0  0
   48.5329   10.0004   19.7072 C   0  0  0  0  0  0  0  0  0  0  0  0
   49.9335   13.9640   21.9952 O   0  0  0  0  0  0  0  0  0  0  0  0
   48.0796    8.6684   17.3472 O   0  0  0  0  0  0  0  0  0  0  0  0
   46.3078   10.3161   20.9164 H   0  0  0  0  0  0  0  0  0  0  0  0
   50.8826   12.9062   21.6841 H   0  0  0  0  0  0  0  0  0  0  0  0
   51.7383   11.5593   19.9089 H   0  0  0  0  0  0  0  0  0  0  0  0
   51.4006   13.0931   19.1196 H   0  0  0  0  0  0  0  0  0  0  0  0
   47.0108   12.8739   19.1404 H   0  0  0  0  0  0  0  0  0  0  0  0
   46.3476   12.6014   20.7415 H   0  0  0  0  0  0  0  0  0  0  0  0
   50.5707   10.3784   22.6059 H   0  0  0  0  0  0  0  0  0  0  0  0
   50.4978    9.8678   20.9213 H   0  0  0  0  0  0  0  0  0  0  0  0
   51.4266   11.4188   16.9718 H   0  0  0  0  0  0  0  0  0  0  0  0
   47.5604   14.8227   20.2406 H   0  0  0  0  0  0  0  0  0  0  0  0
   47.7777   14.0642   21.7978 H   0  0  0  0  0  0  0  0  0  0  0  0
   49.9673   10.0750   15.5433 H   0  0  0  0  0  0  0  0  0  0  0  0
   49.4119    8.2183   22.3330 H   0  0  0  0  0  0  0  0  0  0  0  0
   48.3147    9.4139   23.0280 H   0  0  0  0  0  0  0  0  0  0  0  0
   47.7282   11.6276   22.7946 H   0  0  0  0  0  0  0  0  0  0  0  0
   51.1345   15.1802   20.8250 H   0  0  0  0  0  0  0  0  0  0  0  0
   49.6058   16.0432   20.7426 H   0  0  0  0  0  0  0  0  0  0  0  0
   50.0060   15.1094   22.1975 H   0  0  0  0  0  0  0  0  0  0  0  0
   47.0072    8.1673   14.5516 H   0  0  0  0  0  0  0  0  0  0  0  0
   47.9146    9.6705   14.3595 H   0  0  0  0  0  0  0  0  0  0  0  0
   48.7385    8.1671   14.9190 H   0  0  0  0  0  0  0  0  0  0  0  0
   49.8875    9.2006   21.6626 H   0  0  0  0  0  0  0  0  0  0  0  0
   47.4458   10.2684   17.0624 H   0  0  0  0  0  0  0  0  0  0  0  0
   48.1663   12.7949   17.0898 H   0  0  0  0  0  0  0  0  0  0  0  0
   46.7859   12.3104   18.0666 H   0  0  0  0  0  0  0  0  0  0  0  0
   51.3449   11.0214   19.4655 H   0  0  0  0  0  0  0  0  0  0  0  0
   51.1364    9.3032   19.7475 H   0  0  0  0  0  0  0  0  0  0  0  0
   46.0370    9.4099   19.1700 H   0  0  0  0  0  0  0  0  0  0  0  0
   46.4429   10.9330   19.9569 H   0  0  0  0  0  0  0  0  0  0  0  0
   48.0479   14.8515   18.8809 H   0  0  0  0  0  0  0  0  0  0  0  0
   51.5594   10.1783   17.3425 H   0  0  0  0  0  0  0  0  0  0  0  0
   50.4837    8.8311   17.6076 H   0  0  0  0  0  0  0  0  0  0  0  0
   48.9683   15.6149   21.0140 H   0  0  0  0  0  0  0  0  0  0  0  0
   47.1154    8.1295   21.0204 H   0  0  0  0  0  0  0  0  0  0  0  0
   45.8814    9.2443   21.6253 H   0  0  0  0  0  0  0  0  0  0  0  0
   48.3599    8.3234   17.8765 H   0  0  0  0  0  0  0  0  0  0  0  0
   49.1187    9.2407   15.5373 H   0  0  0  0  0  0  0  0  0  0  0  0
   50.4274   10.3924   15.1799 H   0  0  0  0  0  0  0  0  0  0  0  0
   48.7566   10.9359   15.1354 H   0  0  0  0  0  0  0  0  0  0  0  0
   50.7579   15.8569   22.5999 H   0  0  0  0  0  0  0  0  0  0  0  0
   50.5742   15.3863   24.2950 H   0  0  0  0  0  0  0  0  0  0  0  0
   49.1223   15.7733   23.3593 H   0  0  0  0  0  0  0  0  0  0  0  0
   49.8129   13.6685   19.5846 H   0  0  0  0  0  0  0  0  0  0  0  0
   49.3919   12.4452   17.4877 H   0  0  0  0  0  0  0  0  0  0  0  0
   48.5951   10.2003   21.8527 H   0  0  0  0  0  0  0  0  0  0  0  0
   48.1784    8.9728   19.7556 H   0  0  0  0  0  0  0  0  0  0  0  0
   50.0573   14.2852   22.9139 H   0  0  0  0  0  0  0  0  0  0  0  0
   47.9664    8.3348   16.4326 H   0  0  0  0  0  0  0  0  0  0  0  0
 14  7  2  0
 15  8  1  0
 16 11  1  0
 17 15  2  0
 18 13  1  0
  2 19  1  6
 20 13  2  0
 21  9  1  0
  4  7  1  0
 16  9  1  0
  6 10  1  0
 18 12  1  0
 17 14  1  0
 14 22  1  0
 22 23  1  0
  2  1  1  0
  3  1  1  0
  3  4  1  0
  5  1  1  0
  6  2  1  0
  7  5  1  0
  8  5  2  0
  6  9  1  0
 10  8  1  0
  1 11  1  6
 12  2  1  0
 13  3  1  0
 37 30  2  0
 38 31  1  0
 39 34  1  0
 40 38  2  0
 41 36  1  0
 25 42  1  1
 43 36  2  0
 44 32  1  0
 27 30  1  0
 39 32  1  0
 29 33  1  0
 41 35  1  0
 40 37  1  0
 37 45  1  0
 45 46  1  0
 25 24  1  0
 26 24  1  0
 26 27  1  0
 28 24  1  0
 29 25  1  0
 30 28  1  0
 31 28  2  0
 29 32  1  0
 33 31  1  0
 24 34  1  1
 35 25  1  0
 36 26  1  0
 48 49  1  0
 49 56  2  0
 50 47  1  0
 51 48  2  0
 52 47  2  0
 53 50  1  0
 54 53  2  0
 55 50  2  0
 56 55  1  0
 57 47  1  0
 58 48  1  0
 49 54  1  0
  3 59  1  6
  6 60  1  1
 10 61  1  0
 10 62  1  0
 11 63  1  0
 11 64  1  0
 12 65  1  0
 12 66  1  0
 15 67  1  0
 16 68  1  0
 16 69  1  0
 17 70  1  0
 18 71  1  0
 18 72  1  0
 19 73  1  0
 21 74  1  0
 21 75  1  0
 21 76  1  0
 23 77  1  0
 23 78  1  0
 23 79  1  0
 26 80  1  1
 29 81  1  6
 33 82  1  0
 33 83  1  0
 34 84  1  0
 34 85  1  0
 35 86  1  0
 35 87  1  0
 38 88  1  0
 39 89  1  0
 39 90  1  0
 40 91  1  0
 41 92  1  0
 41 93  1  0
 42 94  1  0
 44 95  1  0
 44 96  1  0
 44 97  1  0
 46 98  1  0
 46 99  1  0
 46100  1  0
 53101  1  0
 54102  1  0
 55103  1  0
 56104  1  0
 57105  1  0
 58106  1  0
M  END
> <Uni-Dock RESULT> 
ENERGY=   -5.548  LOWER_BOUND=    0.447  UPPER_BOUND=    4.930
INTER + INTRA:          -5.548
INTER:                  -5.548
INTRA:                   0.000
UNBOUND:                 0.000

$$$$

     RDKit          3D

106114  0  0  0  0  0  0  0  0999 V2000
   48.0957   11.6430   20.0607 C   0  0  2  0  0  0  0  0  0  0  0  0
   48.6606   10.5704   19.1231 C   0  0  2  0  0  0  0  0  0  0  0  0
   47.8696   13.0596   19.5080 C   0  0  1  0  0  0  0  0  0  0  0  0
   48.0483   13.9852   20.6183 O   0  0  0  0  0  0  0  0  0  0  0  0
   49.1446   12.0317   21.0557 C   0  0  0  0  0  0  0  0  0  0  0  0
   49.1441    9.4034   20.0740 C   0  0  2  0  0  0  0  0  0  0  0  0
   49.0151   13.3698   21.3847 C   0  0  0  0  0  0  0  0  0  0  0  0
   50.1504   11.2262   21.5575 C   0  0  0  0  0  0  0  0  0  0  0  0
   48.0892    8.9250   21.0194 N   0  0  0  0  0  0  0  0  0  0  0  0
   50.3384    9.8465   20.9803 C   0  0  0  0  0  0  0  0  0  0  0  0
   46.8509   11.1036   20.8152 C   0  0  0  0  0  0  0  0  0  0  0  0
   49.7608   11.1215   18.2005 C   0  0  0  0  0  0  0  0  0  0  0  0
   48.8109   13.4392   18.3469 C   0  0  0  0  0  0  0  0  0  0  0  0
   49.8236   13.9541   22.3411 C   0  0  0  0  0  0  0  0  0  0  0  0
   50.9937   11.7978   22.5080 C   0  0  0  0  0  0  0  0  0  0  0  0
   46.7843    9.5667   20.8721 C   0  0  0  0  0  0  0  0  0  0  0  0
   50.8174   13.1430   22.9110 C   0  0  0  0  0  0  0  0  0  0  0  0
   49.2609   12.3320   17.4192 C   0  0  0  0  0  0  0  0  0  0  0  0
   47.6554   10.0449   18.2320 O   0  0  0  0  0  0  0  0  0  0  0  0
   49.1157   14.6066   18.0970 O   0  0  0  0  0  0  0  0  0  0  0  0
   47.9635    7.4689   20.9938 C   0  0  0  0  0  0  0  0  0  0  0  0
   49.5964   15.2682   22.6209 O   0  0  0  0  0  0  0  0  0  0  0  0
   50.3693   15.8498   23.6582 C   0  0  0  0  0  0  0  0  0  0  0  0
   49.6134   11.9508   19.9198 C   0  0  2  0  0  0  0  0  0  0  0  0
   49.1119   13.2836   20.4796 C   0  0  2  0  0  0  0  0  0  0  0  0
   49.3791   11.6459   18.4316 C   0  0  1  0  0  0  0  0  0  0  0  0
   49.2408   10.1972   18.3129 O   0  0  0  0  0  0  0  0  0  0  0  0
   48.7668   10.8388   20.4525 C   0  0  0  0  0  0  0  0  0  0  0  0
   49.1430   13.1250   22.0476 C   0  0  2  0  0  0  0  0  0  0  0  0
   48.6523    9.8360   19.5064 C   0  0  0  0  0  0  0  0  0  0  0  0
   48.1311   10.7963   21.6782 C   0  0  0  0  0  0  0  0  0  0  0  0
   50.4809   12.7360   22.5670 N   0  0  0  0  0  0  0  0  0  0  0  0
   48.1434   12.0280   22.5470 C   0  0  0  0  0  0  0  0  0  0  0  0
   51.0850   11.6989   20.3439 C   0  0  0  0  0  0  0  0  0  0  0  0
   47.7350   13.6736   19.9210 C   0  0  0  0  0  0  0  0  0  0  0  0
   48.1355   12.3396   17.8413 C   0  0  0  0  0  0  0  0  0  0  0  0
   47.9818    8.6608   19.7875 C   0  0  0  0  0  0  0  0  0  0  0  0
   47.4270    9.6316   21.9776 C   0  0  0  0  0  0  0  0  0  0  0  0
   51.5291   12.5133   21.5723 C   0  0  0  0  0  0  0  0  0  0  0  0
   47.3732    8.5641   21.0495 C   0  0  0  0  0  0  0  0  0  0  0  0
   47.7605   13.6953   18.3957 C   0  0  0  0  0  0  0  0  0  0  0  0
   49.9912   14.3423   20.0530 O   0  0  0  0  0  0  0  0  0  0  0  0
   47.5018   11.8723   16.8912 O   0  0  0  0  0  0  0  0  0  0  0  0
   50.9358   13.5907   23.6592 C   0  0  0  0  0  0  0  0  0  0  0  0
   47.9560    7.7163   18.8052 O   0  0  0  0  0  0  0  0  0  0  0  0
   47.3457    6.4738   19.1221 C   0  0  0  0  0  0  0  0  0  0  0  0
   48.2204    9.2557   18.9882 C   0  0  0  0  0  0  0  0  0  0  0  0
   49.8828   13.7655   22.1881 C   0  0  0  0  0  0  0  0  0  0  0  0
   49.4559   12.6204   21.3461 C   0  0  0  0  0  0  0  0  0  0  0  0
   48.6467   10.3999   19.8303 C   0  0  0  0  0  0  0  0  0  0  0  0
   50.1008   13.7274   23.3849 O   0  0  0  0  0  0  0  0  0  0  0  0
   47.9849    9.2993   17.7946 O   0  0  0  0  0  0  0  0  0  0  0  0
   48.8856   10.2637   21.2033 C   0  0  0  0  0  0  0  0  0  0  0  0
   49.2892   11.3708   21.9579 C   0  0  0  0  0  0  0  0  0  0  0  0
   48.8157   11.6483   19.2173 C   0  0  0  0  0  0  0  0  0  0  0  0
   49.2194   12.7552   19.9719 C   0  0  0  0  0  0  0  0  0  0  0  0
   48.1134    8.1078   19.6803 O   0  0  0  0  0  0  0  0  0  0  0  0
   50.0171   14.9048   21.4858 O   0  0  0  0  0  0  0  0  0  0  0  0
   46.8499   13.1783   19.1234 H   0  0  0  0  0  0  0  0  0  0  0  0
   49.4724    8.5686   19.4411 H   0  0  0  0  0  0  0  0  0  0  0  0
   51.2549    9.8505   20.3777 H   0  0  0  0  0  0  0  0  0  0  0  0
   50.5008    9.1236   21.7893 H   0  0  0  0  0  0  0  0  0  0  0  0
   46.8037   11.5000   21.8385 H   0  0  0  0  0  0  0  0  0  0  0  0
   45.9362   11.4460   20.3146 H   0  0  0  0  0  0  0  0  0  0  0  0
   50.0639   10.3467   17.4851 H   0  0  0  0  0  0  0  0  0  0  0  0
   50.6583   11.4123   18.7560 H   0  0  0  0  0  0  0  0  0  0  0  0
   51.8061   11.2182   22.9407 H   0  0  0  0  0  0  0  0  0  0  0  0
   46.1464    9.2943   21.7224 H   0  0  0  0  0  0  0  0  0  0  0  0
   46.2610    9.1909   19.9836 H   0  0  0  0  0  0  0  0  0  0  0  0
   51.5006   13.5350   23.6582 H   0  0  0  0  0  0  0  0  0  0  0  0
   50.0736   12.7137   16.7920 H   0  0  0  0  0  0  0  0  0  0  0  0
   48.4277   12.0764   16.7576 H   0  0  0  0  0  0  0  0  0  0  0  0
   47.0198   10.7376   17.9923 H   0  0  0  0  0  0  0  0  0  0  0  0
   48.9233    6.9948   21.2282 H   0  0  0  0  0  0  0  0  0  0  0  0
   47.2507    7.1252   21.7515 H   0  0  0  0  0  0  0  0  0  0  0  0
   47.6258    7.1043   20.0172 H   0  0  0  0  0  0  0  0  0  0  0  0
   50.0324   16.8836   23.7882 H   0  0  0  0  0  0  0  0  0  0  0  0
   50.2115   15.3286   24.6067 H   0  0  0  0  0  0  0  0  0  0  0  0
   51.4311   15.8729   23.3950 H   0  0  0  0  0  0  0  0  0  0  0  0
   50.2302   11.9612   17.8165 H   0  0  0  0  0  0  0  0  0  0  0  0
   48.8486   14.0865   22.4896 H   0  0  0  0  0  0  0  0  0  0  0  0
   48.3649   11.7476   23.5843 H   0  0  0  0  0  0  0  0  0  0  0  0
   47.1322   12.4543   22.5473 H   0  0  0  0  0  0  0  0  0  0  0  0
   51.2639   10.6336   20.5433 H   0  0  0  0  0  0  0  0  0  0  0  0
   51.7580   11.9696   19.5205 H   0  0  0  0  0  0  0  0  0  0  0  0
   47.4616   14.6746   20.2773 H   0  0  0  0  0  0  0  0  0  0  0  0
   46.9464   12.9900   20.2524 H   0  0  0  0  0  0  0  0  0  0  0  0
   46.9058    9.5359   22.9274 H   0  0  0  0  0  0  0  0  0  0  0  0
   52.3642   11.9773   22.0427 H   0  0  0  0  0  0  0  0  0  0  0  0
   51.9532   13.4683   21.2363 H   0  0  0  0  0  0  0  0  0  0  0  0
   46.8167    7.6781   21.3397 H   0  0  0  0  0  0  0  0  0  0  0  0
   48.4702   14.4330   18.0077 H   0  0  0  0  0  0  0  0  0  0  0  0
   46.7648   13.9612   18.0221 H   0  0  0  0  0  0  0  0  0  0  0  0
   50.2722   14.8334   20.8474 H   0  0  0  0  0  0  0  0  0  0  0  0
   51.1327   14.6141   23.3173 H   0  0  0  0  0  0  0  0  0  0  0  0
   51.8534   13.1924   24.1082 H   0  0  0  0  0  0  0  0  0  0  0  0
   50.1873   13.6288   24.4582 H   0  0  0  0  0  0  0  0  0  0  0  0
   47.8456    5.9928   19.9694 H   0  0  0  0  0  0  0  0  0  0  0  0
   47.4535    5.8159   18.2538 H   0  0  0  0  0  0  0  0  0  0  0  0
   46.2746    6.5978   19.3177 H   0  0  0  0  0  0  0  0  0  0  0  0
   48.7609    9.3023   21.6968 H   0  0  0  0  0  0  0  0  0  0  0  0
   49.4714   11.2524   23.0247 H   0  0  0  0  0  0  0  0  0  0  0  0
   48.6316   11.7638   18.1501 H   0  0  0  0  0  0  0  0  0  0  0  0
   49.3476   13.7151   19.4760 H   0  0  0  0  0  0  0  0  0  0  0  0
   47.8432    7.4510   19.0034 H   0  0  0  0  0  0  0  0  0  0  0  0
   50.3009   15.5642   22.1530 H   0  0  0  0  0  0  0  0  0  0  0  0
 14  7  2  0
 15  8  1  0
 16 11  1  0
 17 15  2  0
 18 13  1  0
  2 19  1  6
 20 13  2  0
 21  9  1  0
  4  7  1  0
 16  9  1  0
  6 10  1  0
 18 12  1  0
 17 14  1  0
 14 22  1  0
 22 23  1  0
  2  1  1  0
  3  1  1  0
  3  4  1  0
  5  1  1  0
  6  2  1  0
  7  5  1  0
  8  5  2  0
  6  9  1  0
 10  8  1  0
  1 11  1  6
 12  2  1  0
 13  3  1  0
 37 30  2  0
 38 31  1  0
 39 34  1  0
 40 38  2  0
 41 36  1  0
 25 42  1  1
 43 36  2  0
 44 32  1  0
 27 30  1  0
 39 32  1  0
 29 33  1  0
 41 35  1  0
 40 37  1  0
 37 45  1  0
 45 46  1  0
 25 24  1  0
 26 24  1  0
 26 27  1  0
 28 24  1  0
 29 25  1  0
 30 28  1  0
 31 28  2  0
 29 32  1  0
 33 31  1  0
 24 34  1  1
 35 25  1  0
 36 26  1  0
 48 49  1  0
 49 56  2  0
 50 47  1  0
 51 48  2  0
 52 47  2  0
 53 50  1  0
 54 53  2  0
 55 50  2  0
 56 55  1  0
 57 47  1  0
 58 48  1  0
 49 54  1  0
  3 59  1  6
  6 60  1  1
 10 61  1  0
 10 62  1  0
 11 63  1  0
 11 64  1  0
 12 65  1  0
 12 66  1  0
 15 67  1  0
 16 68  1  0
 16 69  1  0
 17 70  1  0
 18 71  1  0
 18 72  1  0
 19 73  1  0
 21 74  1  0
 21 75  1  0
 21 76  1  0
 23 77  1  0
 23 78  1  0
 23 79  1  0
 26 80  1  1
 29 81  1  6
 33 82  1  0
 33 83  1  0
 34 84  1  0
 34 85  1  0
 35 86  1  0
 35 87  1  0
 38 88  1  0
 39 89  1  0
 39 90  1  0
 40 91  1  0
 41 92  1  0
 41 93  1  0
 42 94  1  0
 44 95  1  0
 44 96  1  0
 44 97  1  0
 46 98  1  0
 46 99  1  0
 46100  1  0
 53101  1  0
 54102  1  0
 55103  1  0
 56104  1  0
 57105  1  0
 58106  1  0
M  END
> <Uni-Dock RESULT> 
ENERGY=   -5.388  LOWER_BOUND=    1.478  UPPER_BOUND=    3.512
INTER + INTRA:          -5.388
INTER:                  -5.388
INTRA:                   0.000
UNBOUND:                 0.000

$$$$

     RDKit          3D

106114  0  0  0  0  0  0  0  0999 V2000
   48.4622   12.1229   21.1670 C   0  0  2  0  0  0  0  0  0  0  0  0
   49.5826   12.6780   20.2810 C   0  0  2  0  0  0  0  0  0  0  0  0
   48.6578   12.1281   22.6919 C   0  0  1  0  0  0  0  0  0  0  0  0
   47.9141   10.9936   23.2221 O   0  0  0  0  0  0  0  0  0  0  0  0
   48.4106   10.6336   21.0236 C   0  0  0  0  0  0  0  0  0  0  0  0
   49.2534   12.1585   18.8244 C   0  0  2  0  0  0  0  0  0  0  0  0
   48.0212   10.0542   22.2186 C   0  0  0  0  0  0  0  0  0  0  0  0
   48.7483    9.8965   19.9034 C   0  0  0  0  0  0  0  0  0  0  0  0
   47.8670   12.4863   18.3705 N   0  0  0  0  0  0  0  0  0  0  0  0
   49.3627   10.6023   18.7217 C   0  0  0  0  0  0  0  0  0  0  0  0
   47.0927   12.7238   20.7507 C   0  0  0  0  0  0  0  0  0  0  0  0
   50.9792   12.2788   20.7864 C   0  0  0  0  0  0  0  0  0  0  0  0
   50.1322   12.0479   23.1369 C   0  0  0  0  0  0  0  0  0  0  0  0
   47.8286    8.6898   22.3242 C   0  0  0  0  0  0  0  0  0  0  0  0
   48.5839    8.5156   19.9906 C   0  0  0  0  0  0  0  0  0  0  0  0
   47.0736   13.2730   19.3128 C   0  0  0  0  0  0  0  0  0  0  0  0
   48.1080    7.9210   21.1835 C   0  0  0  0  0  0  0  0  0  0  0  0
   51.1699   12.6900   22.2424 C   0  0  0  0  0  0  0  0  0  0  0  0
   49.5925   14.1202   20.2587 O   0  0  0  0  0  0  0  0  0  0  0  0
   50.4703   11.5791   24.2250 O   0  0  0  0  0  0  0  0  0  0  0  0
   47.8659   13.0998   17.0437 C   0  0  0  0  0  0  0  0  0  0  0  0
   47.4112    8.2179   23.5325 O   0  0  0  0  0  0  0  0  0  0  0  0
   47.1349    6.8297   23.6223 C   0  0  0  0  0  0  0  0  0  0  0  0
   49.5700   11.0321   21.1405 C   0  0  2  0  0  0  0  0  0  0  0  0
   48.7605   10.5744   22.3556 C   0  0  2  0  0  0  0  0  0  0  0  0
   50.5291   12.2220   21.3043 C   0  0  1  0  0  0  0  0  0  0  0  0
   50.5882   12.8992   20.0121 O   0  0  0  0  0  0  0  0  0  0  0  0
   48.6570   11.6892   20.1548 C   0  0  0  0  0  0  0  0  0  0  0  0
   47.6266    9.6406   21.7839 C   0  0  2  0  0  0  0  0  0  0  0  0
   49.3254   12.7042   19.4940 C   0  0  0  0  0  0  0  0  0  0  0  0
   47.3246   11.3961   19.9373 C   0  0  0  0  0  0  0  0  0  0  0  0
   48.1553    8.5128   20.9719 N   0  0  0  0  0  0  0  0  0  0  0  0
   46.6349   10.4209   20.8566 C   0  0  0  0  0  0  0  0  0  0  0  0
   50.2530    9.8209   20.4510 C   0  0  0  0  0  0  0  0  0  0  0  0
   48.2346   11.7535   23.1881 C   0  0  0  0  0  0  0  0  0  0  0  0
   50.1027   13.2205   22.3985 C   0  0  0  0  0  0  0  0  0  0  0  0
   48.7195   13.4145   18.4750 C   0  0  0  0  0  0  0  0  0  0  0  0
   46.6823   12.1151   18.9311 C   0  0  0  0  0  0  0  0  0  0  0  0
   49.6045    8.4653   20.7843 C   0  0  0  0  0  0  0  0  0  0  0  0
   47.3809   13.0988   18.1908 C   0  0  0  0  0  0  0  0  0  0  0  0
   49.3809   12.6689   23.6072 C   0  0  0  0  0  0  0  0  0  0  0  0
   49.6192    9.8474   23.2557 O   0  0  0  0  0  0  0  0  0  0  0  0
   50.4026   14.4169   22.3603 O   0  0  0  0  0  0  0  0  0  0  0  0
   47.6132    7.2194   21.3764 C   0  0  0  0  0  0  0  0  0  0  0  0
   49.4716   14.3688   17.8576 O   0  0  0  0  0  0  0  0  0  0  0  0
   48.8826   15.0380   16.7523 C   0  0  0  0  0  0  0  0  0  0  0  0
   49.4455   13.5313   19.1884 C   0  0  0  0  0  0  0  0  0  0  0  0
   47.9899    8.8084   22.1745 C   0  0  0  0  0  0  0  0  0  0  0  0
   48.3782   10.0292   21.4253 C   0  0  0  0  0  0  0  0  0  0  0  0
   49.0568   12.3111   19.9370 C   0  0  0  0  0  0  0  0  0  0  0  0
   47.2509    7.9296   21.7708 O   0  0  0  0  0  0  0  0  0  0  0  0
   50.1702   14.4184   19.6005 O   0  0  0  0  0  0  0  0  0  0  0  0
   48.2055   11.3433   19.3899 C   0  0  0  0  0  0  0  0  0  0  0  0
   47.8681   10.2061   20.1321 C   0  0  0  0  0  0  0  0  0  0  0  0
   49.5694   12.1337   21.2287 C   0  0  0  0  0  0  0  0  0  0  0  0
   49.2320   10.9966   21.9709 C   0  0  0  0  0  0  0  0  0  0  0  0
   48.9115   13.5811   17.9554 O   0  0  0  0  0  0  0  0  0  0  0  0
   48.5502    8.7486   23.3959 O   0  0  0  0  0  0  0  0  0  0  0  0
   48.2543   13.0429   23.1414 H   0  0  0  0  0  0  0  0  0  0  0  0
   49.9791   12.6093   18.1350 H   0  0  0  0  0  0  0  0  0  0  0  0
   50.4232   10.3264   18.6728 H   0  0  0  0  0  0  0  0  0  0  0  0
   48.9039   10.2415   17.7929 H   0  0  0  0  0  0  0  0  0  0  0  0
   46.2854   11.9872   20.8612 H   0  0  0  0  0  0  0  0  0  0  0  0
   46.8356   13.5579   21.4161 H   0  0  0  0  0  0  0  0  0  0  0  0
   51.7465   12.7773   20.1808 H   0  0  0  0  0  0  0  0  0  0  0  0
   51.1563   11.2016   20.7030 H   0  0  0  0  0  0  0  0  0  0  0  0
   48.8332    7.8785   19.1450 H   0  0  0  0  0  0  0  0  0  0  0  0
   46.0281   13.2935   18.9801 H   0  0  0  0  0  0  0  0  0  0  0  0
   47.3978   14.3214   19.3181 H   0  0  0  0  0  0  0  0  0  0  0  0
   47.9948    6.8413   21.1937 H   0  0  0  0  0  0  0  0  0  0  0  0
   52.1624   12.3705   22.5776 H   0  0  0  0  0  0  0  0  0  0  0  0
   51.1130   13.7750   22.3719 H   0  0  0  0  0  0  0  0  0  0  0  0
   49.3136   14.4741   21.1179 H   0  0  0  0  0  0  0  0  0  0  0  0
   48.3563   12.4442   16.3153 H   0  0  0  0  0  0  0  0  0  0  0  0
   46.8420   13.2552   16.6864 H   0  0  0  0  0  0  0  0  0  0  0  0
   48.3793   14.0679   17.0399 H   0  0  0  0  0  0  0  0  0  0  0  0
   46.7673    6.6257   24.6334 H   0  0  0  0  0  0  0  0  0  0  0  0
   46.3493    6.5380   22.9195 H   0  0  0  0  0  0  0  0  0  0  0  0
   48.0404    6.2353   23.4675 H   0  0  0  0  0  0  0  0  0  0  0  0
   51.5414   11.8911   21.5652 H   0  0  0  0  0  0  0  0  0  0  0  0
   47.0594    9.2394   22.6348 H   0  0  0  0  0  0  0  0  0  0  0  0
   46.0271    9.7228   20.2676 H   0  0  0  0  0  0  0  0  0  0  0  0
   45.9383   10.9847   21.4900 H   0  0  0  0  0  0  0  0  0  0  0  0
   50.2720    9.9441   19.3596 H   0  0  0  0  0  0  0  0  0  0  0  0
   51.3022    9.7597   20.7668 H   0  0  0  0  0  0  0  0  0  0  0  0
   47.7433   11.3765   24.0937 H   0  0  0  0  0  0  0  0  0  0  0  0
   47.4907   12.3442   22.6433 H   0  0  0  0  0  0  0  0  0  0  0  0
   45.6334   11.9301   18.7104 H   0  0  0  0  0  0  0  0  0  0  0  0
   49.8392    7.7736   19.9642 H   0  0  0  0  0  0  0  0  0  0  0  0
   50.0956    8.0396   21.6688 H   0  0  0  0  0  0  0  0  0  0  0  0
   46.8320   13.6219   17.4137 H   0  0  0  0  0  0  0  0  0  0  0  0
   50.1115   12.1500   24.2359 H   0  0  0  0  0  0  0  0  0  0  0  0
   48.9788   13.5086   24.1861 H   0  0  0  0  0  0  0  0  0  0  0  0
   49.1973    8.9876   23.4393 H   0  0  0  0  0  0  0  0  0  0  0  0
   47.9534    6.9338   22.3793 H   0  0  0  0  0  0  0  0  0  0  0  0
   47.9129    6.4347   20.6718 H   0  0  0  0  0  0  0  0  0  0  0  0
   46.5180    7.2410   21.3737 H   0  0  0  0  0  0  0  0  0  0  0  0
   48.6109   14.3310   15.9615 H   0  0  0  0  0  0  0  0  0  0  0  0
   49.6272   15.7277   16.3420 H   0  0  0  0  0  0  0  0  0  0  0  0
   48.0144   15.6292   17.0649 H   0  0  0  0  0  0  0  0  0  0  0  0
   47.7986   11.4629   18.3881 H   0  0  0  0  0  0  0  0  0  0  0  0
   47.2050    9.4610   19.6961 H   0  0  0  0  0  0  0  0  0  0  0  0
   50.2316   12.8815   21.6627 H   0  0  0  0  0  0  0  0  0  0  0  0
   49.6431   10.8764   22.9711 H   0  0  0  0  0  0  0  0  0  0  0  0
   49.2609   14.4188   17.5830 H   0  0  0  0  0  0  0  0  0  0  0  0
   48.2170    7.9063   23.7703 H   0  0  0  0  0  0  0  0  0  0  0  0
 14  7  2  0
 15  8  1  0
 16 11  1  0
 17 15  2  0
 18 13  1  0
  2 19  1  6
 20 13  2  0
 21  9  1  0
  4  7  1  0
 16  9  1  0
  6 10  1  0
 18 12  1  0
 17 14  1  0
 14 22  1  0
 22 23  1  0
  2  1  1  0
  3  1  1  0
  3  4  1  0
  5  1  1  0
  6  2  1  0
  7  5  1  0
  8  5  2  0
  6  9  1  0
 10  8  1  0
  1 11  1  6
 12  2  1  0
 13  3  1  0
 37 30  2  0
 38 31  1  0
 39 34  1  0
 40 38  2  0
 41 36  1  0
 25 42  1  1
 43 36  2  0
 44 32  1  0
 27 30  1  0
 39 32  1  0
 29 33  1  0
 41 35  1  0
 40 37  1  0
 37 45  1  0
 45 46  1  0
 25 24  1  0
 26 24  1  0
 26 27  1  0
 28 24  1  0
 29 25  1  0
 30 28  1  0
 31 28  2  0
 29 32  1  0
 33 31  1  0
 24 34  1  1
 35 25  1  0
 36 26  1  0
 48 49  1  0
 49 56  2  0
 50 47  1  0
 51 48  2  0
 52 47  2  0
 53 50  1  0
 54 53  2  0
 55 50  2  0
 56 55  1  0
 57 47  1  0
 58 48  1  0
 49 54  1  0
  3 59  1  6
  6 60  1  1
 10 61  1  0
 10 62  1  0
 11 63  1  0
 11 64  1  0
 12 65  1  0
 12 66  1  0
 15 67  1  0
 16 68  1  0
 16 69  1  0
 17 70  1  0
 18 71  1  0
 18 72  1  0
 19 73  1  0
 21 74  1  0
 21 75  1  0
 21 76  1  0
 23 77  1  0
 23 78  1  0
 23 79  1  0
 26 80  1  1
 29 81  1  6
 33 82  1  0
 33 83  1  0
 34 84  1  0
 34 85  1  0
 35 86  1  0
 35 87  1  0
 38 88  1  0
 39 89  1  0
 39 90  1  0
 40 91  1  0
 41 92  1  0
 41 93  1  0
 42 94  1  0
 44 95  1  0
 44 96  1  0
 44 97  1  0
 46 98  1  0
 46 99  1  0
 46100  1  0
 53101  1  0
 54102  1  0
 55103  1  0
 56104  1  0
 57105  1  0
 58106  1  0
M  END
> <Uni-Dock RESULT> 
ENERGY=   -5.222  LOWER_BOUND=    1.788  UPPER_BOUND=    4.434
INTER + INTRA:          -5.222
INTER:                  -5.222
INTRA:                   0.000
UNBOUND:                 0.000

$$$$

     RDKit          3D

106114  0  0  0  0  0  0  0  0999 V2000
   48.0269   10.4709   21.1011 C   0  0  2  0  0  0  0  0  0  0  0  0
   49.2432   11.3259   21.4729 C   0  0  2  0  0  0  0  0  0  0  0  0
   47.5444    9.4038   22.0972 C   0  0  1  0  0  0  0  0  0  0  0  0
   46.9509    8.3273   21.3162 O   0  0  0  0  0  0  0  0  0  0  0  0
   48.4107    9.5094   20.0197 C   0  0  0  0  0  0  0  0  0  0  0  0
   49.7072   11.9956   20.1179 C   0  0  2  0  0  0  0  0  0  0  0  0
   47.7044    8.3277   20.1616 C   0  0  0  0  0  0  0  0  0  0  0  0
   49.3648    9.7038   19.0378 C   0  0  0  0  0  0  0  0  0  0  0  0
   48.6143   12.7263   19.4056 N   0  0  0  0  0  0  0  0  0  0  0  0
   50.2300   10.9370   19.0932 C   0  0  0  0  0  0  0  0  0  0  0  0
   46.8653   11.3691   20.5974 C   0  0  0  0  0  0  0  0  0  0  0  0
   50.3405   10.5075   22.1738 C   0  0  0  0  0  0  0  0  0  0  0  0
   48.6565    8.8450   23.0077 C   0  0  0  0  0  0  0  0  0  0  0  0
   47.8283    7.3038   19.2417 C   0  0  0  0  0  0  0  0  0  0  0  0
   49.5252    8.6771   18.1097 C   0  0  0  0  0  0  0  0  0  0  0  0
   47.3275   12.7500   20.0984 C   0  0  0  0  0  0  0  0  0  0  0  0
   48.7483    7.4975   18.1994 C   0  0  0  0  0  0  0  0  0  0  0  0
   49.7829    9.7792   23.3920 C   0  0  0  0  0  0  0  0  0  0  0  0
   48.9055   12.3728   22.4060 O   0  0  0  0  0  0  0  0  0  0  0  0
   48.6014    7.7186   23.5043 O   0  0  0  0  0  0  0  0  0  0  0  0
   49.0288   14.0747   19.0227 C   0  0  0  0  0  0  0  0  0  0  0  0
   47.0654    6.1939   19.4484 O   0  0  0  0  0  0  0  0  0  0  0  0
   47.1292    5.1750   18.4638 C   0  0  0  0  0  0  0  0  0  0  0  0
   49.2710    9.5601   20.8995 C   0  0  2  0  0  0  0  0  0  0  0  0
   48.1606    8.5078   20.9332 C   0  0  2  0  0  0  0  0  0  0  0  0
   49.7418   10.1721   22.2285 C   0  0  1  0  0  0  0  0  0  0  0  0
   50.1782   11.5345   21.9363 O   0  0  0  0  0  0  0  0  0  0  0  0
   48.7358   10.8276   20.3132 C   0  0  0  0  0  0  0  0  0  0  0  0
   47.6488    8.3819   19.4477 C   0  0  2  0  0  0  0  0  0  0  0  0
   49.3491   11.9182   20.9034 C   0  0  0  0  0  0  0  0  0  0  0  0
   47.7421   10.9445   19.3608 C   0  0  0  0  0  0  0  0  0  0  0  0
   48.7338    8.0600   18.4833 N   0  0  0  0  0  0  0  0  0  0  0  0
   46.9899    9.7082   18.9389 C   0  0  0  0  0  0  0  0  0  0  0  0
   50.4584    9.0739   20.0262 C   0  0  0  0  0  0  0  0  0  0  0  0
   47.0566    8.8521   21.9445 C   0  0  0  0  0  0  0  0  0  0  0  0
   48.6571   10.1945   23.3236 C   0  0  0  0  0  0  0  0  0  0  0  0
   49.0823   13.2057   20.4781 C   0  0  0  0  0  0  0  0  0  0  0  0
   47.4358   12.2344   18.9314 C   0  0  0  0  0  0  0  0  0  0  0  0
   50.0863    7.9612   19.0299 C   0  0  0  0  0  0  0  0  0  0  0  0
   48.1171   13.3528   19.4686 C   0  0  0  0  0  0  0  0  0  0  0  0
   47.6489    9.0677   23.3339 C   0  0  0  0  0  0  0  0  0  0  0  0
   48.7024    7.2560   21.3976 O   0  0  0  0  0  0  0  0  0  0  0  0
   48.6391   11.0375   24.2245 O   0  0  0  0  0  0  0  0  0  0  0  0
   48.4085    6.9289   17.6202 C   0  0  0  0  0  0  0  0  0  0  0  0
   49.7648   14.2118   21.0941 O   0  0  0  0  0  0  0  0  0  0  0  0
   49.5595   15.5268   20.5990 C   0  0  0  0  0  0  0  0  0  0  0  0
   49.3801   12.7038   21.3202 C   0  0  0  0  0  0  0  0  0  0  0  0
   48.0033    7.4699   19.3075 C   0  0  0  0  0  0  0  0  0  0  0  0
   48.3600    8.8056   19.8468 C   0  0  0  0  0  0  0  0  0  0  0  0
   49.0232   11.3690   20.7807 C   0  0  0  0  0  0  0  0  0  0  0  0
   47.7498    7.2156   18.1445 O   0  0  0  0  0  0  0  0  0  0  0  0
   49.6156   12.9602   22.4867 O   0  0  0  0  0  0  0  0  0  0  0  0
   48.7552   11.1642   19.4217 C   0  0  0  0  0  0  0  0  0  0  0  0
   48.4251    9.8863   18.9570 C   0  0  0  0  0  0  0  0  0  0  0  0
   48.9610   10.2886   21.6705 C   0  0  0  0  0  0  0  0  0  0  0  0
   48.6310    9.0109   21.2058 C   0  0  0  0  0  0  0  0  0  0  0  0
   49.4301   13.6554   20.3715 O   0  0  0  0  0  0  0  0  0  0  0  0
   47.9836    6.5156   20.2552 O   0  0  0  0  0  0  0  0  0  0  0  0
   46.7757    9.8049   22.7681 H   0  0  0  0  0  0  0  0  0  0  0  0
   50.5218   12.6940   20.3501 H   0  0  0  0  0  0  0  0  0  0  0  0
   51.2414   10.6315   19.3879 H   0  0  0  0  0  0  0  0  0  0  0  0
   50.3167   11.3760   18.0916 H   0  0  0  0  0  0  0  0  0  0  0  0
   46.2976   10.8735   19.7983 H   0  0  0  0  0  0  0  0  0  0  0  0
   46.1517   11.5448   21.4124 H   0  0  0  0  0  0  0  0  0  0  0  0
   51.1437   11.1771   22.5063 H   0  0  0  0  0  0  0  0  0  0  0  0
   50.7959    9.7696   21.5054 H   0  0  0  0  0  0  0  0  0  0  0  0
   50.2605    8.7668   17.3132 H   0  0  0  0  0  0  0  0  0  0  0  0
   46.5552   13.1320   19.4189 H   0  0  0  0  0  0  0  0  0  0  0  0
   47.3486   13.4539   20.9400 H   0  0  0  0  0  0  0  0  0  0  0  0
   48.9118    6.7324   17.4467 H   0  0  0  0  0  0  0  0  0  0  0  0
   50.5819    9.1883   23.8526 H   0  0  0  0  0  0  0  0  0  0  0  0
   49.4105   10.4751   24.1498 H   0  0  0  0  0  0  0  0  0  0  0  0
   48.2086   12.0748   23.0117 H   0  0  0  0  0  0  0  0  0  0  0  0
   49.9283   14.0388   18.3978 H   0  0  0  0  0  0  0  0  0  0  0  0
   48.2525   14.5673   18.4270 H   0  0  0  0  0  0  0  0  0  0  0  0
   49.2382   14.7021   19.8964 H   0  0  0  0  0  0  0  0  0  0  0  0
   46.4278    4.3852   18.7526 H   0  0  0  0  0  0  0  0  0  0  0  0
   46.8179    5.5523   17.4855 H   0  0  0  0  0  0  0  0  0  0  0  0
   48.1296    4.7346   18.4144 H   0  0  0  0  0  0  0  0  0  0  0  0
   50.5924    9.6214   22.6473 H   0  0  0  0  0  0  0  0  0  0  0  0
   46.8909    7.5873   19.4185 H   0  0  0  0  0  0  0  0  0  0  0  0
   46.8850    9.6929   17.8470 H   0  0  0  0  0  0  0  0  0  0  0  0
   45.9743    9.7710   19.3499 H   0  0  0  0  0  0  0  0  0  0  0  0
   50.9108    9.9073   19.4718 H   0  0  0  0  0  0  0  0  0  0  0  0
   51.2512    8.6738   20.6709 H   0  0  0  0  0  0  0  0  0  0  0  0
   46.3354    8.0272   21.9994 H   0  0  0  0  0  0  0  0  0  0  0  0
   46.4966    9.7476   21.6553 H   0  0  0  0  0  0  0  0  0  0  0  0
   46.6634   12.3930   18.1822 H   0  0  0  0  0  0  0  0  0  0  0  0
   50.8114    7.9963   18.2059 H   0  0  0  0  0  0  0  0  0  0  0  0
   50.2407    6.9849   19.5071 H   0  0  0  0  0  0  0  0  0  0  0  0
   47.8426   14.3330   19.0909 H   0  0  0  0  0  0  0  0  0  0  0  0
   48.1438    8.1679   23.7130 H   0  0  0  0  0  0  0  0  0  0  0  0
   46.8447    9.3261   24.0326 H   0  0  0  0  0  0  0  0  0  0  0  0
   48.4690    6.5707   20.7441 H   0  0  0  0  0  0  0  0  0  0  0  0
   48.3465    5.9918   18.1870 H   0  0  0  0  0  0  0  0  0  0  0  0
   49.1639    6.8096   16.8344 H   0  0  0  0  0  0  0  0  0  0  0  0
   47.4517    7.0922   17.1125 H   0  0  0  0  0  0  0  0  0  0  0  0
   49.8355   15.5985   19.5417 H   0  0  0  0  0  0  0  0  0  0  0  0
   50.2124   16.2025   21.1608 H   0  0  0  0  0  0  0  0  0  0  0  0
   48.5250   15.8519   20.7572 H   0  0  0  0  0  0  0  0  0  0  0  0
   48.7997   11.9904   18.7153 H   0  0  0  0  0  0  0  0  0  0  0  0
   48.2184    9.7398   17.8982 H   0  0  0  0  0  0  0  0  0  0  0  0
   49.1672   10.4386   22.7293 H   0  0  0  0  0  0  0  0  0  0  0  0
   48.5909    8.1848   21.9128 H   0  0  0  0  0  0  0  0  0  0  0  0
   49.6865   14.4639   20.8646 H   0  0  0  0  0  0  0  0  0  0  0  0
   47.7416    5.7004   19.7679 H   0  0  0  0  0  0  0  0  0  0  0  0
 14  7  2  0
 15  8  1  0
 16 11  1  0
 17 15  2  0
 18 13  1  0
  2 19  1  6
 20 13  2  0
 21  9  1  0
  4  7  1  0
 16  9  1  0
  6 10  1  0
 18 12  1  0
 17 14  1  0
 14 22  1  0
 22 23  1  0
  2  1  1  0
  3  1  1  0
  3  4  1  0
  5  1  1  0
  6  2  1  0
  7  5  1  0
  8  5  2  0
  6  9  1  0
 10  8  1  0
  1 11  1  6
 12  2  1  0
 13  3  1  0
 37 30  2  0
 38 31  1  0
 39 34  1  0
 40 38  2  0
 41 36  1  0
 25 42  1  1
 43 36  2  0
 44 32  1  0
 27 30  1  0
 39 32  1  0
 29 33  1  0
 41 35  1  0
 40 37  1  0
 37 45  1  0
 45 46  1  0
 25 24  1  0
 26 24  1  0
 26 27  1  0
 28 24  1  0
 29 25  1  0
 30 28  1  0
 31 28  2  0
 29 32  1  0
 33 31  1  0
 24 34  1  1
 35 25  1  0
 36 26  1  0
 48 49  1  0
 49 56  2  0
 50 47  1  0
 51 48  2  0
 52 47  2  0
 53 50  1  0
 54 53  2  0
 55 50  2  0
 56 55  1  0
 57 47  1  0
 58 48  1  0
 49 54  1  0
  3 59  1  6
  6 60  1  1
 10 61  1  0
 10 62  1  0
 11 63  1  0
 11 64  1  0
 12 65  1  0
 12 66  1  0
 15 67  1  0
 16 68  1  0
 16 69  1  0
 17 70  1  0
 18 71  1  0
 18 72  1  0
 19 73  1  0
 21 74  1  0
 21 75  1  0
 21 76  1  0
 23 77  1  0
 23 78  1  0
 23 79  1  0
 26 80  1  1
 29 81  1  6
 33 82  1  0
 33 83  1  0
 34 84  1  0
 34 85  1  0
 35 86  1  0
 35 87  1  0
 38 88  1  0
 39 89  1  0
 39 90  1  0
 40 91  1  0
 41 92  1  0
 41 93  1  0
 42 94  1  0
 44 95  1  0
 44 96  1  0
 44 97  1  0
 46 98  1  0
 46 99  1  0
 46100  1  0
 53101  1  0
 54102  1  0
 55103  1  0
 56104  1  0
 57105  1  0
 58106  1  0
M  END
> <Uni-Dock RESULT> 
ENERGY=   -5.119  LOWER_BOUND=    1.378  UPPER_BOUND=    4.968
INTER + INTRA:          -5.119
INTER:                  -5.119
INTRA:                   0.000
UNBOUND:                 0.000

$$$$
