
     RDKit          3D

106114  0  0  0  0  0  0  0  0999 V2000
   50.9932    5.3755   18.9286 C   0  0  2  0  0  0  0  0  0  0  0  0
   50.2498    6.2444   17.9121 C   0  0  2  0  0  0  0  0  0  0  0  0
   52.4800    5.6637   19.1849 C   0  0  1  0  0  0  0  0  0  0  0  0
   53.1035    4.3905   19.5349 O   0  0  0  0  0  0  0  0  0  0  0  0
   51.1829    4.0047   18.3618 C   0  0  0  0  0  0  0  0  0  0  0  0
   48.9086    5.4728   17.5997 C   0  0  2  0  0  0  0  0  0  0  0  0
   52.3809    3.4721   18.8026 C   0  0  0  0  0  0  0  0  0  0  0  0
   50.3455    3.3515   17.4773 C   0  0  0  0  0  0  0  0  0  0  0  0
   48.1114    5.1586   18.8165 N   0  0  0  0  0  0  0  0  0  0  0  0
   49.1763    4.1020   16.8923 C   0  0  0  0  0  0  0  0  0  0  0  0
   50.1828    5.2665   20.2481 C   0  0  0  0  0  0  0  0  0  0  0  0
   51.0990    6.5544   16.6691 C   0  0  0  0  0  0  0  0  0  0  0  0
   53.2134    6.2857   17.9801 C   0  0  0  0  0  0  0  0  0  0  0  0
   52.7597    2.1867   18.4654 C   0  0  0  0  0  0  0  0  0  0  0  0
   50.7126    2.0586   17.1079 C   0  0  0  0  0  0  0  0  0  0  0  0
   48.6889    5.6004   20.0859 C   0  0  0  0  0  0  0  0  0  0  0  0
   51.8982    1.4747   17.6149 C   0  0  0  0  0  0  0  0  0  0  0  0
   52.4207    7.1996   17.0731 C   0  0  0  0  0  0  0  0  0  0  0  0
   49.9780    7.5311   18.5010 O   0  0  0  0  0  0  0  0  0  0  0  0
   54.4215    6.1320   17.7857 O   0  0  0  0  0  0  0  0  0  0  0  0
   46.7141    5.5605   18.6909 C   0  0  0  0  0  0  0  0  0  0  0  0
   53.9409    1.7387   18.9770 O   0  0  0  0  0  0  0  0  0  0  0  0
   54.3635    0.4409   18.5844 C   0  0  0  0  0  0  0  0  0  0  0  0
   51.0590    5.4718   18.6003 C   0  0  2  0  0  0  0  0  0  0  0  0
   49.7259    5.9986   18.0645 C   0  0  2  0  0  0  0  0  0  0  0  0
   52.3495    6.0243   17.9828 C   0  0  1  0  0  0  0  0  0  0  0  0
   53.3409    4.9492   18.0507 O   0  0  0  0  0  0  0  0  0  0  0  0
   51.2463    4.0560   18.1757 C   0  0  0  0  0  0  0  0  0  0  0  0
   48.6223    5.0353   18.6421 C   0  0  2  0  0  0  0  0  0  0  0  0
   52.5825    3.8037   17.9330 C   0  0  0  0  0  0  0  0  0  0  0  0
   50.2459    3.1198   17.9966 C   0  0  0  0  0  0  0  0  0  0  0  0
   48.5713    5.0236   20.1327 N   0  0  0  0  0  0  0  0  0  0  0  0
   48.8080    3.5585   18.1263 C   0  0  0  0  0  0  0  0  0  0  0  0
   51.0616    5.5502   20.1459 C   0  0  0  0  0  0  0  0  0  0  0  0
   49.7234    6.1070   16.5309 C   0  0  0  0  0  0  0  0  0  0  0  0
   52.2093    6.4772   16.5163 C   0  0  0  0  0  0  0  0  0  0  0  0
   53.0131    2.5389   17.5826 C   0  0  0  0  0  0  0  0  0  0  0  0
   50.6523    1.8398   17.6278 C   0  0  0  0  0  0  0  0  0  0  0  0
   49.8782    4.7892   20.7681 C   0  0  0  0  0  0  0  0  0  0  0  0
   52.0257    1.5487   17.4405 C   0  0  0  0  0  0  0  0  0  0  0  0
   50.8663    7.0005   16.0582 C   0  0  0  0  0  0  0  0  0  0  0  0
   49.5344    7.3462   18.5297 O   0  0  0  0  0  0  0  0  0  0  0  0
   53.1681    6.5077   15.7400 O   0  0  0  0  0  0  0  0  0  0  0  0
   47.8958    6.1760   20.7214 C   0  0  0  0  0  0  0  0  0  0  0  0
   54.3529    2.3761   17.3931 O   0  0  0  0  0  0  0  0  0  0  0  0
   54.7952    1.0939   16.9729 C   0  0  0  0  0  0  0  0  0  0  0  0
   53.2692    3.1675   18.1007 C   0  0  0  0  0  0  0  0  0  0  0  0
   48.2918    6.0617   18.5282 C   0  0  0  0  0  0  0  0  0  0  0  0
   49.5816    5.3388   18.4097 C   0  0  0  0  0  0  0  0  0  0  0  0
   51.9793    3.8906   18.2186 C   0  0  0  0  0  0  0  0  0  0  0  0
   47.2380    5.5814   18.9019 O   0  0  0  0  0  0  0  0  0  0  0  0
   54.3224    3.6470   17.7244 O   0  0  0  0  0  0  0  0  0  0  0  0
   51.9451    5.2482   17.8734 C   0  0  0  0  0  0  0  0  0  0  0  0
   50.7511    5.9706   17.9685 C   0  0  0  0  0  0  0  0  0  0  0  0
   50.8098    3.2589   18.6601 C   0  0  0  0  0  0  0  0  0  0  0  0
   49.6156    3.9811   18.7544 C   0  0  0  0  0  0  0  0  0  0  0  0
   53.1774    1.8756   18.4609 O   0  0  0  0  0  0  0  0  0  0  0  0
   48.3842    7.3553   18.1743 O   0  0  0  0  0  0  0  0  0  0  0  0
   52.6191    6.3586   20.0217 H   0  0  0  0  0  0  0  0  0  0  0  0
   48.3089    6.0991   16.9256 H   0  0  0  0  0  0  0  0  0  0  0  0
   49.3933    4.2943   15.8339 H   0  0  0  0  0  0  0  0  0  0  0  0
   48.2786    3.4715   16.9197 H   0  0  0  0  0  0  0  0  0  0  0  0
   50.5869    5.9650   20.9924 H   0  0  0  0  0  0  0  0  0  0  0  0
   50.2762    4.2652   20.6901 H   0  0  0  0  0  0  0  0  0  0  0  0
   51.3075    5.6576   16.0768 H   0  0  0  0  0  0  0  0  0  0  0  0
   50.5588    7.2512   16.0163 H   0  0  0  0  0  0  0  0  0  0  0  0
   50.0940    1.4895   16.4174 H   0  0  0  0  0  0  0  0  0  0  0  0
   48.5398    6.6787   20.2241 H   0  0  0  0  0  0  0  0  0  0  0  0
   48.1494    5.1246   20.9151 H   0  0  0  0  0  0  0  0  0  0  0  0
   52.1304    0.4616   17.3004 H   0  0  0  0  0  0  0  0  0  0  0  0
   53.0138    7.3979   16.1732 H   0  0  0  0  0  0  0  0  0  0  0  0
   52.2720    8.1542   17.5883 H   0  0  0  0  0  0  0  0  0  0  0  0
   49.1487    7.8659   18.1133 H   0  0  0  0  0  0  0  0  0  0  0  0
   46.6083    6.6492   18.6272 H   0  0  0  0  0  0  0  0  0  0  0  0
   46.1301    5.2056   19.5471 H   0  0  0  0  0  0  0  0  0  0  0  0
   46.2626    5.1151   17.7972 H   0  0  0  0  0  0  0  0  0  0  0  0
   55.3256    0.2411   19.0654 H   0  0  0  0  0  0  0  0  0  0  0  0
   54.5147    0.3854   17.5014 H   0  0  0  0  0  0  0  0  0  0  0  0
   53.6572   -0.3239   18.9244 H   0  0  0  0  0  0  0  0  0  0  0  0
   52.7288    6.8843   18.5472 H   0  0  0  0  0  0  0  0  0  0  0  0
   47.6367    5.3663   18.2887 H   0  0  0  0  0  0  0  0  0  0  0  0
   48.3496    3.4882   17.1313 H   0  0  0  0  0  0  0  0  0  0  0  0
   48.2641    2.8598   18.7739 H   0  0  0  0  0  0  0  0  0  0  0  0
   51.0240    6.6004   20.4630 H   0  0  0  0  0  0  0  0  0  0  0  0
   51.9918    5.1406   20.5619 H   0  0  0  0  0  0  0  0  0  0  0  0
   49.8073    5.1287   16.0462 H   0  0  0  0  0  0  0  0  0  0  0  0
   48.7780    6.5495   16.1930 H   0  0  0  0  0  0  0  0  0  0  0  0
   49.9171    1.0528   17.4731 H   0  0  0  0  0  0  0  0  0  0  0  0
   49.8319    5.0118   21.8422 H   0  0  0  0  0  0  0  0  0  0  0  0
   50.0848    3.7128   20.7301 H   0  0  0  0  0  0  0  0  0  0  0  0
   52.2868    0.5324   17.1610 H   0  0  0  0  0  0  0  0  0  0  0  0
   50.8621    7.0357   14.9626 H   0  0  0  0  0  0  0  0  0  0  0  0
   50.7577    8.0279   16.4203 H   0  0  0  0  0  0  0  0  0  0  0  0
   48.5966    7.5736   18.3971 H   0  0  0  0  0  0  0  0  0  0  0  0
   46.9414    6.3725   20.2214 H   0  0  0  0  0  0  0  0  0  0  0  0
   48.4951    7.0899   20.7023 H   0  0  0  0  0  0  0  0  0  0  0  0
   47.6528    5.9674   21.7696 H   0  0  0  0  0  0  0  0  0  0  0  0
   54.5771    0.3337   17.7301 H   0  0  0  0  0  0  0  0  0  0  0  0
   55.8815    1.1373   16.8494 H   0  0  0  0  0  0  0  0  0  0  0  0
   54.3611    0.8230   16.0050 H   0  0  0  0  0  0  0  0  0  0  0  0
   52.8485    5.7492   17.5291 H   0  0  0  0  0  0  0  0  0  0  0  0
   50.7455    7.0234   17.6958 H   0  0  0  0  0  0  0  0  0  0  0  0
   50.8159    2.2058   18.9321 H   0  0  0  0  0  0  0  0  0  0  0  0
   48.7123    3.4800   19.0990 H   0  0  0  0  0  0  0  0  0  0  0  0
   54.0859    1.5299   18.3337 H   0  0  0  0  0  0  0  0  0  0  0  0
   47.4754    7.7002   18.3016 H   0  0  0  0  0  0  0  0  0  0  0  0
 14  7  2  0
 15  8  1  0
 16 11  1  0
 17 15  2  0
 18 13  1  0
  2 19  1  6
 20 13  2  0
 21  9  1  0
  4  7  1  0
 16  9  1  0
  6 10  1  0
 18 12  1  0
 17 14  1  0
 14 22  1  0
 22 23  1  0
  2  1  1  0
  3  1  1  0
  3  4  1  0
  5  1  1  0
  6  2  1  0
  7  5  1  0
  8  5  2  0
  6  9  1  0
 10  8  1  0
  1 11  1  6
 12  2  1  0
 13  3  1  0
 37 30  2  0
 38 31  1  0
 39 34  1  0
 40 38  2  0
 41 36  1  0
 25 42  1  6
 43 36  2  0
 44 32  1  0
 27 30  1  0
 39 32  1  0
 29 33  1  0
 41 35  1  0
 40 37  1  0
 37 45  1  0
 45 46  1  0
 25 24  1  0
 26 24  1  0
 26 27  1  0
 28 24  1  0
 29 25  1  0
 30 28  1  0
 31 28  2  0
 29 32  1  0
 33 31  1  0
 24 34  1  6
 35 25  1  0
 36 26  1  0
 48 49  1  0
 49 56  2  0
 50 47  1  0
 51 48  2  0
 52 47  2  0
 53 50  1  0
 54 53  2  0
 55 50  2  0
 56 55  1  0
 57 47  1  0
 58 48  1  0
 49 54  1  0
  3 59  1  6
  6 60  1  1
 10 61  1  0
 10 62  1  0
 11 63  1  0
 11 64  1  0
 12 65  1  0
 12 66  1  0
 15 67  1  0
 16 68  1  0
 16 69  1  0
 17 70  1  0
 18 71  1  0
 18 72  1  0
 19 73  1  0
 21 74  1  0
 21 75  1  0
 21 76  1  0
 23 77  1  0
 23 78  1  0
 23 79  1  0
 26 80  1  6
 29 81  1  6
 33 82  1  0
 33 83  1  0
 34 84  1  0
 34 85  1  0
 35 86  1  0
 35 87  1  0
 38 88  1  0
 39 89  1  0
 39 90  1  0
 40 91  1  0
 41 92  1  0
 41 93  1  0
 42 94  1  0
 44 95  1  0
 44 96  1  0
 44 97  1  0
 46 98  1  0
 46 99  1  0
 46100  1  0
 53101  1  0
 54102  1  0
 55103  1  0
 56104  1  0
 57105  1  0
 58106  1  0
M  END
> <Uni-Dock RESULT> 
ENERGY=   -6.833  LOWER_BOUND=    0.000  UPPER_BOUND=    0.000
INTER + INTRA:          -6.833
INTER:                  -6.833
INTRA:                   0.000
UNBOUND:                 0.000

$$$$

     RDKit          3D

106114  0  0  0  0  0  0  0  0999 V2000
   44.1415   12.8246   10.1497 C   0  0  2  0  0  0  0  0  0  0  0  0
   43.4211   12.2508    8.9280 C   0  0  2  0  0  0  0  0  0  0  0  0
   45.3740   13.7118    9.9191 C   0  0  1  0  0  0  0  0  0  0  0  0
   46.2559   13.5173   11.0666 O   0  0  0  0  0  0  0  0  0  0  0  0
   44.8582   11.7231   10.8632 C   0  0  0  0  0  0  0  0  0  0  0  0
   42.4816   11.1131    9.4891 C   0  0  2  0  0  0  0  0  0  0  0  0
   46.0288   12.2042   11.4216 C   0  0  0  0  0  0  0  0  0  0  0  0
   44.4793   10.3956   10.9294 C   0  0  0  0  0  0  0  0  0  0  0  0
   41.5625   11.5821   10.5615 N   0  0  0  0  0  0  0  0  0  0  0  0
   43.3025    9.9327   10.1088 C   0  0  0  0  0  0  0  0  0  0  0  0
   43.1251   13.4777   11.1245 C   0  0  0  0  0  0  0  0  0  0  0  0
   44.3955   11.7783    7.8374 C   0  0  0  0  0  0  0  0  0  0  0  0
   46.1387   13.3947    8.6186 C   0  0  0  0  0  0  0  0  0  0  0  0
   46.8430   11.3916   12.1872 C   0  0  0  0  0  0  0  0  0  0  0  0
   45.2922    9.5503   11.6826 C   0  0  0  0  0  0  0  0  0  0  0  0
   41.6774   12.9948   10.9236 C   0  0  0  0  0  0  0  0  0  0  0  0
   46.4518   10.0496   12.3229 C   0  0  0  0  0  0  0  0  0  0  0  0
   45.3342   12.9107    7.4334 C   0  0  0  0  0  0  0  0  0  0  0  0
   42.6486   13.2942    8.3028 O   0  0  0  0  0  0  0  0  0  0  0  0
   47.3481   13.6000    8.4917 O   0  0  0  0  0  0  0  0  0  0  0  0
   40.1756   11.1987   10.3190 C   0  0  0  0  0  0  0  0  0  0  0  0
   47.9564   11.9660   12.7239 O   0  0  0  0  0  0  0  0  0  0  0  0
   48.8276   11.1205   13.4609 C   0  0  0  0  0  0  0  0  0  0  0  0
   44.2477   12.6505    9.8673 C   0  0  2  0  0  0  0  0  0  0  0  0
   42.9753   12.0453    9.2702 C   0  0  2  0  0  0  0  0  0  0  0  0
   45.4164   12.9440    8.9187 C   0  0  1  0  0  0  0  0  0  0  0  0
   46.6433   12.7743    9.6994 O   0  0  0  0  0  0  0  0  0  0  0  0
   44.9436   11.6320   10.7029 C   0  0  0  0  0  0  0  0  0  0  0  0
   42.1125   11.5674   10.4977 C   0  0  2  0  0  0  0  0  0  0  0  0
   46.3123   11.7937   10.6105 C   0  0  0  0  0  0  0  0  0  0  0  0
   44.3393   10.6300   11.4380 C   0  0  0  0  0  0  0  0  0  0  0  0
   41.7315   12.6773   11.4184 N   0  0  0  0  0  0  0  0  0  0  0  0
   42.8459   10.4461   11.3260 C   0  0  0  0  0  0  0  0  0  0  0  0
   43.8769   13.8700   10.7448 C   0  0  0  0  0  0  0  0  0  0  0  0
   43.2872   10.9355    8.2530 C   0  0  0  0  0  0  0  0  0  0  0  0
   45.4819   12.0213    7.6860 C   0  0  0  0  0  0  0  0  0  0  0  0
   47.1714   11.0009   11.3463 C   0  0  0  0  0  0  0  0  0  0  0  0
   45.1847    9.8063   12.1773 C   0  0  0  0  0  0  0  0  0  0  0  0
   42.8691   13.5063   11.8488 C   0  0  0  0  0  0  0  0  0  0  0  0
   46.5870   10.0028   12.1449 C   0  0  0  0  0  0  0  0  0  0  0  0
   44.1838   11.4697    7.1400 C   0  0  0  0  0  0  0  0  0  0  0  0
   42.2868   13.0563    8.5133 O   0  0  0  0  0  0  0  0  0  0  0  0
   46.5364   11.7930    7.0872 O   0  0  0  0  0  0  0  0  0  0  0  0
   40.6256   13.5024   10.9422 C   0  0  0  0  0  0  0  0  0  0  0  0
   48.5044   11.2527   11.2154 O   0  0  0  0  0  0  0  0  0  0  0  0
   49.3952   10.4016   11.9212 C   0  0  0  0  0  0  0  0  0  0  0  0
   47.1021   11.8265   11.1392 C   0  0  0  0  0  0  0  0  0  0  0  0
   41.5229   11.9145    9.6564 C   0  0  0  0  0  0  0  0  0  0  0  0
   42.9622   11.9003   10.0146 C   0  0  0  0  0  0  0  0  0  0  0  0
   45.6628   11.8401   10.7805 C   0  0  0  0  0  0  0  0  0  0  0  0
   40.6068   11.5596   10.3746 O   0  0  0  0  0  0  0  0  0  0  0  0
   48.0184   12.1786   10.4201 O   0  0  0  0  0  0  0  0  0  0  0  0
   45.3003   12.2966    9.5062 C   0  0  0  0  0  0  0  0  0  0  0  0
   43.9552   12.3271    9.1238 C   0  0  0  0  0  0  0  0  0  0  0  0
   44.6698   11.4136   11.6714 C   0  0  0  0  0  0  0  0  0  0  0  0
   43.3246   11.4434   11.2887 C   0  0  0  0  0  0  0  0  0  0  0  0
   47.3246   11.3713   12.3844 O   0  0  0  0  0  0  0  0  0  0  0  0
   41.2990   12.3754    8.4136 O   0  0  0  0  0  0  0  0  0  0  0  0
   45.1044   14.7734    9.8662 H   0  0  0  0  0  0  0  0  0  0  0  0
   41.8900   10.7209    8.6510 H   0  0  0  0  0  0  0  0  0  0  0  0
   43.6850    9.3091    9.2908 H   0  0  0  0  0  0  0  0  0  0  0  0
   42.6545    9.2897   10.7178 H   0  0  0  0  0  0  0  0  0  0  0  0
   43.1208   14.5665   10.9840 H   0  0  0  0  0  0  0  0  0  0  0  0
   43.4132   13.3083   12.1709 H   0  0  0  0  0  0  0  0  0  0  0  0
   44.9928   10.9195    8.1605 H   0  0  0  0  0  0  0  0  0  0  0  0
   43.8329   11.4619    6.9502 H   0  0  0  0  0  0  0  0  0  0  0  0
   45.0468    8.4948   11.7770 H   0  0  0  0  0  0  0  0  0  0  0  0
   41.1833   13.6272   10.1752 H   0  0  0  0  0  0  0  0  0  0  0  0
   41.1334   13.1748   11.8599 H   0  0  0  0  0  0  0  0  0  0  0  0
   47.0431    9.3482   12.9038 H   0  0  0  0  0  0  0  0  0  0  0  0
   46.0275   12.5466    6.6667 H   0  0  0  0  0  0  0  0  0  0  0  0
   44.7924   13.7634    7.0116 H   0  0  0  0  0  0  0  0  0  0  0  0
   41.8672   12.8801    7.8928 H   0  0  0  0  0  0  0  0  0  0  0  0
   39.7641   11.6986    9.4350 H   0  0  0  0  0  0  0  0  0  0  0  0
   39.5478   11.4483   11.1814 H   0  0  0  0  0  0  0  0  0  0  0  0
   40.0936   10.1155   10.1746 H   0  0  0  0  0  0  0  0  0  0  0  0
   49.6702   11.7263   13.8072 H   0  0  0  0  0  0  0  0  0  0  0  0
   49.2293   10.3208   12.8300 H   0  0  0  0  0  0  0  0  0  0  0  0
   48.3267   10.7122   14.3450 H   0  0  0  0  0  0  0  0  0  0  0  0
   45.3812   13.9739    8.5445 H   0  0  0  0  0  0  0  0  0  0  0  0
   41.1796   11.1209   10.1282 H   0  0  0  0  0  0  0  0  0  0  0  0
   42.6675    9.4854   10.8257 H   0  0  0  0  0  0  0  0  0  0  0  0
   42.4060   10.3662   12.3278 H   0  0  0  0  0  0  0  0  0  0  0  0
   43.4541   14.6637   10.1154 H   0  0  0  0  0  0  0  0  0  0  0  0
   44.7679   14.3017   11.2201 H   0  0  0  0  0  0  0  0  0  0  0  0
   43.7692   10.0697    8.7190 H   0  0  0  0  0  0  0  0  0  0  0  0
   42.3546   10.5754    7.8009 H   0  0  0  0  0  0  0  0  0  0  0  0
   44.7757    8.9992   12.7812 H   0  0  0  0  0  0  0  0  0  0  0  0
   42.5163   14.4271   12.3316 H   0  0  0  0  0  0  0  0  0  0  0  0
   43.3933   12.9721   12.6504 H   0  0  0  0  0  0  0  0  0  0  0  0
   47.1982    9.3366   12.7465 H   0  0  0  0  0  0  0  0  0  0  0  0
   44.4171   10.6532    6.4468 H   0  0  0  0  0  0  0  0  0  0  0  0
   43.6919   12.2597    6.5634 H   0  0  0  0  0  0  0  0  0  0  0  0
   41.3796   12.7394    8.3545 H   0  0  0  0  0  0  0  0  0  0  0  0
   39.7954   12.8832   10.5861 H   0  0  0  0  0  0  0  0  0  0  0  0
   40.9099   14.1966   10.1472 H   0  0  0  0  0  0  0  0  0  0  0  0
   40.2263   14.1001   11.7695 H   0  0  0  0  0  0  0  0  0  0  0  0
   49.2510   10.4896   13.0030 H   0  0  0  0  0  0  0  0  0  0  0  0
   50.4164   10.7231   11.6954 H   0  0  0  0  0  0  0  0  0  0  0  0
   49.2936    9.3622   11.5926 H   0  0  0  0  0  0  0  0  0  0  0  0
   46.0642   12.6306    8.8058 H   0  0  0  0  0  0  0  0  0  0  0  0
   43.6946   12.6848    8.1304 H   0  0  0  0  0  0  0  0  0  0  0  0
   44.9310   11.0554   12.6645 H   0  0  0  0  0  0  0  0  0  0  0  0
   42.5608   11.1096   11.9893 H   0  0  0  0  0  0  0  0  0  0  0  0
   48.2991   11.4162   12.4816 H   0  0  0  0  0  0  0  0  0  0  0  0
   40.3245   12.3301    8.3172 H   0  0  0  0  0  0  0  0  0  0  0  0
 14  7  2  0
 15  8  1  0
 16 11  1  0
 17 15  2  0
 18 13  1  0
  2 19  1  6
 20 13  2  0
 21  9  1  0
  4  7  1  0
 16  9  1  0
  6 10  1  0
 18 12  1  0
 17 14  1  0
 14 22  1  0
 22 23  1  0
  2  1  1  0
  3  1  1  0
  3  4  1  0
  5  1  1  0
  6  2  1  0
  7  5  1  0
  8  5  2  0
  6  9  1  0
 10  8  1  0
  1 11  1  6
 12  2  1  0
 13  3  1  0
 37 30  2  0
 38 31  1  0
 39 34  1  0
 40 38  2  0
 41 36  1  0
 25 42  1  6
 43 36  2  0
 44 32  1  0
 27 30  1  0
 39 32  1  0
 29 33  1  0
 41 35  1  0
 40 37  1  0
 37 45  1  0
 45 46  1  0
 25 24  1  0
 26 24  1  0
 26 27  1  0
 28 24  1  0
 29 25  1  0
 30 28  1  0
 31 28  2  0
 29 32  1  0
 33 31  1  0
 24 34  1  6
 35 25  1  0
 36 26  1  0
 48 49  1  0
 49 56  2  0
 50 47  1  0
 51 48  2  0
 52 47  2  0
 53 50  1  0
 54 53  2  0
 55 50  2  0
 56 55  1  0
 57 47  1  0
 58 48  1  0
 49 54  1  0
  3 59  1  6
  6 60  1  1
 10 61  1  0
 10 62  1  0
 11 63  1  0
 11 64  1  0
 12 65  1  0
 12 66  1  0
 15 67  1  0
 16 68  1  0
 16 69  1  0
 17 70  1  0
 18 71  1  0
 18 72  1  0
 19 73  1  0
 21 74  1  0
 21 75  1  0
 21 76  1  0
 23 77  1  0
 23 78  1  0
 23 79  1  0
 26 80  1  6
 29 81  1  6
 33 82  1  0
 33 83  1  0
 34 84  1  0
 34 85  1  0
 35 86  1  0
 35 87  1  0
 38 88  1  0
 39 89  1  0
 39 90  1  0
 40 91  1  0
 41 92  1  0
 41 93  1  0
 42 94  1  0
 44 95  1  0
 44 96  1  0
 44 97  1  0
 46 98  1  0
 46 99  1  0
 46100  1  0
 53101  1  0
 54102  1  0
 55103  1  0
 56104  1  0
 57105  1  0
 58106  1  0
M  END
> <Uni-Dock RESULT> 
ENERGY=   -6.571  LOWER_BOUND=   10.239  UPPER_BOUND=   12.712
INTER + INTRA:          -6.571
INTER:                  -6.571
INTRA:                   0.000
UNBOUND:                 0.000

$$$$

     RDKit          3D

106114  0  0  0  0  0  0  0  0999 V2000
   49.5988    7.1145   21.0273 C   0  0  2  0  0  0  0  0  0  0  0  0
   48.7232    5.9011   21.3465 C   0  0  2  0  0  0  0  0  0  0  0  0
   50.0443    8.0174   22.1873 C   0  0  1  0  0  0  0  0  0  0  0  0
   50.1755    9.3674   21.6462 O   0  0  0  0  0  0  0  0  0  0  0  0
   48.7774    8.1438   20.3188 C   0  0  0  0  0  0  0  0  0  0  0  0
   48.1353    5.4296   19.9595 C   0  0  2  0  0  0  0  0  0  0  0  0
   49.2044    9.4123   20.6680 C   0  0  0  0  0  0  0  0  0  0  0  0
   47.7032    7.9122   19.4805 C   0  0  0  0  0  0  0  0  0  0  0  0
   49.1814    5.1611   18.9357 N   0  0  0  0  0  0  0  0  0  0  0  0
   47.1841    6.5045   19.3343 C   0  0  0  0  0  0  0  0  0  0  0  0
   50.7868    6.7044   20.1160 C   0  0  0  0  0  0  0  0  0  0  0  0
   47.6554    6.2081   22.4085 C   0  0  0  0  0  0  0  0  0  0  0  0
   49.0684    8.0303   23.3805 C   0  0  0  0  0  0  0  0  0  0  0  0
   48.6416   10.5387   20.0988 C   0  0  0  0  0  0  0  0  0  0  0  0
   47.1064    9.0327   18.9050 C   0  0  0  0  0  0  0  0  0  0  0  0
   50.5625    5.3788   19.3664 C   0  0  0  0  0  0  0  0  0  0  0  0
   47.5860   10.3325   19.1958 C   0  0  0  0  0  0  0  0  0  0  0  0
   48.3044    6.7590   23.6742 C   0  0  0  0  0  0  0  0  0  0  0  0
   49.5410    4.8713   21.9356 O   0  0  0  0  0  0  0  0  0  0  0  0
   48.9571    8.9972   24.1378 O   0  0  0  0  0  0  0  0  0  0  0  0
   49.0159    3.8621   18.2917 C   0  0  0  0  0  0  0  0  0  0  0  0
   49.1537   11.7427   20.4806 O   0  0  0  0  0  0  0  0  0  0  0  0
   48.5384   12.9051   19.9446 C   0  0  0  0  0  0  0  0  0  0  0  0
   49.3054    7.0706   21.2099 C   0  0  2  0  0  0  0  0  0  0  0  0
   48.7724    5.7006   20.7849 C   0  0  2  0  0  0  0  0  0  0  0  0
   48.9375    7.5817   22.6082 C   0  0  1  0  0  0  0  0  0  0  0  0
   48.8690    9.0413   22.5170 O   0  0  0  0  0  0  0  0  0  0  0  0
   48.6128    8.1401   20.4378 C   0  0  0  0  0  0  0  0  0  0  0  0
   49.0325    5.6027   19.2349 C   0  0  2  0  0  0  0  0  0  0  0  0
   48.4456    9.2637   21.2237 C   0  0  0  0  0  0  0  0  0  0  0  0
   48.1512    8.0390   19.1392 C   0  0  0  0  0  0  0  0  0  0  0  0
   50.4766    5.6910   18.8726 N   0  0  0  0  0  0  0  0  0  0  0  0
   48.2381    6.7055   18.4386 C   0  0  0  0  0  0  0  0  0  0  0  0
   50.8268    7.1407   20.9354 C   0  0  0  0  0  0  0  0  0  0  0  0
   47.3018    5.5039   21.1876 C   0  0  0  0  0  0  0  0  0  0  0  0
   47.5918    7.0550   23.1439 C   0  0  0  0  0  0  0  0  0  0  0  0
   47.8790   10.4126   20.7072 C   0  0  0  0  0  0  0  0  0  0  0  0
   47.5613    9.1794   18.5994 C   0  0  0  0  0  0  0  0  0  0  0  0
   51.1653    6.8501   19.4630 C   0  0  0  0  0  0  0  0  0  0  0  0
   47.4434   10.3607   19.3718 C   0  0  0  0  0  0  0  0  0  0  0  0
   47.1327    5.6863   22.6930 C   0  0  0  0  0  0  0  0  0  0  0  0
   49.4898    4.6777   21.4977 O   0  0  0  0  0  0  0  0  0  0  0  0
   46.9298    7.6692   23.9849 O   0  0  0  0  0  0  0  0  0  0  0  0
   51.2293    4.4598   19.0925 C   0  0  0  0  0  0  0  0  0  0  0  0
   47.7827   11.4818   21.5469 O   0  0  0  0  0  0  0  0  0  0  0  0
   47.1456   12.6456   21.0410 C   0  0  0  0  0  0  0  0  0  0  0  0
   48.5383   10.2101   21.2106 C   0  0  0  0  0  0  0  0  0  0  0  0
   49.1063    4.6526   19.7524 C   0  0  0  0  0  0  0  0  0  0  0  0
   48.9571    6.0736   20.1508 C   0  0  0  0  0  0  0  0  0  0  0  0
   48.6867    8.7888   20.8123 C   0  0  0  0  0  0  0  0  0  0  0  0
   49.2734    4.2449   18.6181 O   0  0  0  0  0  0  0  0  0  0  0  0
   48.3684   10.6176   22.3445 O   0  0  0  0  0  0  0  0  0  0  0  0
   48.6317    7.8096   21.8130 C   0  0  0  0  0  0  0  0  0  0  0  0
   48.7665    6.4566   21.4845 C   0  0  0  0  0  0  0  0  0  0  0  0
   48.8777    8.4058   19.4787 C   0  0  0  0  0  0  0  0  0  0  0  0
   49.0118    7.0528   19.1500 C   0  0  0  0  0  0  0  0  0  0  0  0
   48.6102   11.0541   20.1667 O   0  0  0  0  0  0  0  0  0  0  0  0
   49.0408    3.8083   20.7964 O   0  0  0  0  0  0  0  0  0  0  0  0
   51.0172    7.7098   22.5890 H   0  0  0  0  0  0  0  0  0  0  0  0
   47.5553    4.5132   20.1336 H   0  0  0  0  0  0  0  0  0  0  0  0
   46.2137    6.4474   19.8436 H   0  0  0  0  0  0  0  0  0  0  0  0
   46.9969    6.2854   18.2755 H   0  0  0  0  0  0  0  0  0  0  0  0
   51.6944    6.5794   20.7207 H   0  0  0  0  0  0  0  0  0  0  0  0
   51.0160    7.4909   19.3843 H   0  0  0  0  0  0  0  0  0  0  0  0
   46.9100    6.9254   22.0499 H   0  0  0  0  0  0  0  0  0  0  0  0
   47.1164    5.2884   22.6679 H   0  0  0  0  0  0  0  0  0  0  0  0
   46.2587    8.9179   18.2333 H   0  0  0  0  0  0  0  0  0  0  0  0
   50.9090    4.5449   19.9898 H   0  0  0  0  0  0  0  0  0  0  0  0
   51.2209    5.3774   18.4881 H   0  0  0  0  0  0  0  0  0  0  0  0
   47.0890   11.1682   18.7125 H   0  0  0  0  0  0  0  0  0  0  0  0
   47.5238    6.9834   24.4099 H   0  0  0  0  0  0  0  0  0  0  0  0
   48.9921    6.0396   24.1304 H   0  0  0  0  0  0  0  0  0  0  0  0
   49.1580    4.0099   21.6878 H   0  0  0  0  0  0  0  0  0  0  0  0
   49.1719    3.0367   18.9951 H   0  0  0  0  0  0  0  0  0  0  0  0
   49.7219    3.7479   17.4619 H   0  0  0  0  0  0  0  0  0  0  0  0
   48.0113    3.7681   17.8638 H   0  0  0  0  0  0  0  0  0  0  0  0
   49.0527   13.7781   20.3573 H   0  0  0  0  0  0  0  0  0  0  0  0
   47.4862   12.9674   20.2408 H   0  0  0  0  0  0  0  0  0  0  0  0
   48.6450   12.9413   18.8553 H   0  0  0  0  0  0  0  0  0  0  0  0
   49.7016    7.3142   23.3476 H   0  0  0  0  0  0  0  0  0  0  0  0
   48.6677    4.6330   18.8706 H   0  0  0  0  0  0  0  0  0  0  0  0
   47.2129    6.3422   18.2903 H   0  0  0  0  0  0  0  0  0  0  0  0
   48.6728    6.8388   17.4403 H   0  0  0  0  0  0  0  0  0  0  0  0
   51.3519    6.4211   21.5767 H   0  0  0  0  0  0  0  0  0  0  0  0
   51.2309    8.1287   21.1935 H   0  0  0  0  0  0  0  0  0  0  0  0
   46.6327    6.1948   20.6641 H   0  0  0  0  0  0  0  0  0  0  0  0
   46.9791    4.4886   20.9255 H   0  0  0  0  0  0  0  0  0  0  0  0
   47.1790    9.1708   17.5809 H   0  0  0  0  0  0  0  0  0  0  0  0
   52.2534    6.7492   19.3571 H   0  0  0  0  0  0  0  0  0  0  0  0
   50.9220    7.7324   18.8587 H   0  0  0  0  0  0  0  0  0  0  0  0
   46.9823   11.2224   18.8984 H   0  0  0  0  0  0  0  0  0  0  0  0
   46.0731    5.5729   22.9495 H   0  0  0  0  0  0  0  0  0  0  0  0
   47.6904    4.9343   23.2604 H   0  0  0  0  0  0  0  0  0  0  0  0
   49.3228    3.8310   21.0463 H   0  0  0  0  0  0  0  0  0  0  0  0
   50.6966    3.5931   18.6868 H   0  0  0  0  0  0  0  0  0  0  0  0
   51.4566    4.2693   20.1446 H   0  0  0  0  0  0  0  0  0  0  0  0
   52.1840    4.5084   18.5564 H   0  0  0  0  0  0  0  0  0  0  0  0
   47.7037   13.0661   20.1982 H   0  0  0  0  0  0  0  0  0  0  0  0
   47.1334   13.3950   21.8381 H   0  0  0  0  0  0  0  0  0  0  0  0
   46.1069   12.4391   20.7630 H   0  0  0  0  0  0  0  0  0  0  0  0
   48.4837    8.0962   22.8529 H   0  0  0  0  0  0  0  0  0  0  0  0
   48.7208    5.7119   22.2758 H   0  0  0  0  0  0  0  0  0  0  0  0
   48.9227    9.1509   18.6876 H   0  0  0  0  0  0  0  0  0  0  0  0
   49.1599    6.7662   18.1100 H   0  0  0  0  0  0  0  0  0  0  0  0
   48.4969   11.9399   20.5711 H   0  0  0  0  0  0  0  0  0  0  0  0
   49.1540    2.9229   20.3913 H   0  0  0  0  0  0  0  0  0  0  0  0
 14  7  2  0
 15  8  1  0
 16 11  1  0
 17 15  2  0
 18 13  1  0
  2 19  1  6
 20 13  2  0
 21  9  1  0
  4  7  1  0
 16  9  1  0
  6 10  1  0
 18 12  1  0
 17 14  1  0
 14 22  1  0
 22 23  1  0
  2  1  1  0
  3  1  1  0
  3  4  1  0
  5  1  1  0
  6  2  1  0
  7  5  1  0
  8  5  2  0
  6  9  1  0
 10  8  1  0
  1 11  1  6
 12  2  1  0
 13  3  1  0
 37 30  2  0
 38 31  1  0
 39 34  1  0
 40 38  2  0
 41 36  1  0
 25 42  1  6
 43 36  2  0
 44 32  1  0
 27 30  1  0
 39 32  1  0
 29 33  1  0
 41 35  1  0
 40 37  1  0
 37 45  1  0
 45 46  1  0
 25 24  1  0
 26 24  1  0
 26 27  1  0
 28 24  1  0
 29 25  1  0
 30 28  1  0
 31 28  2  0
 29 32  1  0
 33 31  1  0
 24 34  1  6
 35 25  1  0
 36 26  1  0
 48 49  1  0
 49 56  2  0
 50 47  1  0
 51 48  2  0
 52 47  2  0
 53 50  1  0
 54 53  2  0
 55 50  2  0
 56 55  1  0
 57 47  1  0
 58 48  1  0
 49 54  1  0
  3 59  1  6
  6 60  1  1
 10 61  1  0
 10 62  1  0
 11 63  1  0
 11 64  1  0
 12 65  1  0
 12 66  1  0
 15 67  1  0
 16 68  1  0
 16 69  1  0
 17 70  1  0
 18 71  1  0
 18 72  1  0
 19 73  1  0
 21 74  1  0
 21 75  1  0
 21 76  1  0
 23 77  1  0
 23 78  1  0
 23 79  1  0
 26 80  1  6
 29 81  1  6
 33 82  1  0
 33 83  1  0
 34 84  1  0
 34 85  1  0
 35 86  1  0
 35 87  1  0
 38 88  1  0
 39 89  1  0
 39 90  1  0
 40 91  1  0
 41 92  1  0
 41 93  1  0
 42 94  1  0
 44 95  1  0
 44 96  1  0
 44 97  1  0
 46 98  1  0
 46 99  1  0
 46100  1  0
 53101  1  0
 54102  1  0
 55103  1  0
 56104  1  0
 57105  1  0
 58106  1  0
M  END
> <Uni-Dock RESULT> 
ENERGY=   -5.773  LOWER_BOUND=    3.169  UPPER_BOUND=    6.796
INTER + INTRA:          -5.773
INTER:                  -5.773
INTRA:                   0.000
UNBOUND:                 0.000

$$$$

     RDKit          3D

106114  0  0  0  0  0  0  0  0999 V2000
   49.5955    7.2562   21.1681 C   0  0  2  0  0  0  0  0  0  0  0  0
   48.7420    6.0309   21.5012 C   0  0  2  0  0  0  0  0  0  0  0  0
   49.9883    8.2037   22.3115 C   0  0  1  0  0  0  0  0  0  0  0  0
   50.1002    9.5402   21.7339 O   0  0  0  0  0  0  0  0  0  0  0  0
   48.7678    8.2432   20.4086 C   0  0  0  0  0  0  0  0  0  0  0  0
   48.2023    5.5042   20.1144 C   0  0  2  0  0  0  0  0  0  0  0  0
   49.1542    9.5318   20.7305 C   0  0  0  0  0  0  0  0  0  0  0  0
   47.7218    7.9600   19.5506 C   0  0  0  0  0  0  0  0  0  0  0  0
   49.2811    5.2326   19.1259 N   0  0  0  0  0  0  0  0  0  0  0  0
   47.2415    6.5359   19.4335 C   0  0  0  0  0  0  0  0  0  0  0  0
   50.8166    6.8500   20.2998 C   0  0  0  0  0  0  0  0  0  0  0  0
   47.6397    6.3415   22.5261 C   0  0  0  0  0  0  0  0  0  0  0  0
   48.9815    8.2266   23.4787 C   0  0  0  0  0  0  0  0  0  0  0  0
   48.5788   10.6264   20.1139 C   0  0  0  0  0  0  0  0  0  0  0  0
   47.1128    9.0477   18.9271 C   0  0  0  0  0  0  0  0  0  0  0  0
   50.6446    5.4978   19.5847 C   0  0  0  0  0  0  0  0  0  0  0  0
   47.5525   10.3672   19.1909 C   0  0  0  0  0  0  0  0  0  0  0  0
   48.2417    6.9455   23.7908 C   0  0  0  0  0  0  0  0  0  0  0  0
   49.5694    5.0398   22.1412 O   0  0  0  0  0  0  0  0  0  0  0  0
   48.8268    9.2122   24.2038 O   0  0  0  0  0  0  0  0  0  0  0  0
   49.1644    3.9116   18.5170 C   0  0  0  0  0  0  0  0  0  0  0  0
   49.0510   11.8537   20.4724 O   0  0  0  0  0  0  0  0  0  0  0  0
   48.4213   12.9840   19.8865 C   0  0  0  0  0  0  0  0  0  0  0  0
   49.2986    7.2103   21.3444 C   0  0  2  0  0  0  0  0  0  0  0  0
   48.8108    5.8153   20.9472 C   0  0  2  0  0  0  0  0  0  0  0  0
   48.8820    7.7525   22.7171 C   0  0  1  0  0  0  0  0  0  0  0  0
   48.7799    9.2066   22.5806 O   0  0  0  0  0  0  0  0  0  0  0  0
   48.6002    8.2389   20.5234 C   0  0  0  0  0  0  0  0  0  0  0  0
   49.1135    5.6788   19.4079 C   0  0  2  0  0  0  0  0  0  0  0  0
   48.3850    9.3803   21.2710 C   0  0  0  0  0  0  0  0  0  0  0  0
   48.1753    8.0882   19.2172 C   0  0  0  0  0  0  0  0  0  0  0  0
   50.5640    5.7932   19.0798 N   0  0  0  0  0  0  0  0  0  0  0  0
   48.3133    6.7373   18.5592 C   0  0  0  0  0  0  0  0  0  0  0  0
   50.8244    7.3109   21.1066 C   0  0  0  0  0  0  0  0  0  0  0  0
   47.3354    5.5932   21.3182 C   0  0  0  0  0  0  0  0  0  0  0  0
   47.5360    7.2077   23.2340 C   0  0  0  0  0  0  0  0  0  0  0  0
   47.8039   10.4989   20.7062 C   0  0  0  0  0  0  0  0  0  0  0  0
   47.5718    9.1969   18.6288 C   0  0  0  0  0  0  0  0  0  0  0  0
   51.2083    6.9862   19.6526 C   0  0  0  0  0  0  0  0  0  0  0  0
   47.4046   10.3969   19.3624 C   0  0  0  0  0  0  0  0  0  0  0  0
   47.1228    5.8152   22.8128 C   0  0  0  0  0  0  0  0  0  0  0  0
   49.5344    4.8322   21.7082 O   0  0  0  0  0  0  0  0  0  0  0  0
   46.8375    7.8292   24.0393 O   0  0  0  0  0  0  0  0  0  0  0  0
   51.3408    4.5884   19.3554 C   0  0  0  0  0  0  0  0  0  0  0  0
   47.6594   11.5893   21.5109 O   0  0  0  0  0  0  0  0  0  0  0  0
   47.0072   12.7213   20.9545 C   0  0  0  0  0  0  0  0  0  0  0  0
   48.4547   10.3279   21.2320 C   0  0  0  0  0  0  0  0  0  0  0  0
   49.1972    4.7464   19.9552 C   0  0  0  0  0  0  0  0  0  0  0  0
   49.0028    6.1742   20.3072 C   0  0  0  0  0  0  0  0  0  0  0  0
   48.6484    8.8998   20.8801 C   0  0  0  0  0  0  0  0  0  0  0  0
   49.4038    4.3101   18.8382 O   0  0  0  0  0  0  0  0  0  0  0  0
   48.2452   10.7640   22.3485 O   0  0  0  0  0  0  0  0  0  0  0  0
   48.5914    7.9492   21.9079 C   0  0  0  0  0  0  0  0  0  0  0  0
   48.7680    6.5911   21.6235 C   0  0  0  0  0  0  0  0  0  0  0  0
   48.8834    8.4830   19.5638 C   0  0  0  0  0  0  0  0  0  0  0  0
   49.0593    7.1248   19.2793 C   0  0  0  0  0  0  0  0  0  0  0  0
   48.5330   11.1426   20.1655 O   0  0  0  0  0  0  0  0  0  0  0  0
   49.1253    3.9316   21.0220 O   0  0  0  0  0  0  0  0  0  0  0  0
   50.9576    7.9328   22.7468 H   0  0  0  0  0  0  0  0  0  0  0  0
   47.6407    4.5789   20.3010 H   0  0  0  0  0  0  0  0  0  0  0  0
   46.2598    6.4691   19.9195 H   0  0  0  0  0  0  0  0  0  0  0  0
   47.0874    6.2813   18.3772 H   0  0  0  0  0  0  0  0  0  0  0  0
   51.7109    6.7658   20.9308 H   0  0  0  0  0  0  0  0  0  0  0  0
   51.0454    7.6203   19.5510 H   0  0  0  0  0  0  0  0  0  0  0  0
   46.8865    7.0289   22.1275 H   0  0  0  0  0  0  0  0  0  0  0  0
   47.1169    5.4164   22.7991 H   0  0  0  0  0  0  0  0  0  0  0  0
   46.2860    8.8918   18.2378 H   0  0  0  0  0  0  0  0  0  0  0  0
   50.9952    4.6915   20.2413 H   0  0  0  0  0  0  0  0  0  0  0  0
   51.3256    5.4874   18.7239 H   0  0  0  0  0  0  0  0  0  0  0  0
   47.0478   11.1756   18.6704 H   0  0  0  0  0  0  0  0  0  0  0  0
   47.4369    7.1714   24.4995 H   0  0  0  0  0  0  0  0  0  0  0  0
   48.9348    6.2574   24.2856 H   0  0  0  0  0  0  0  0  0  0  0  0
   49.2143    4.1621   21.9096 H   0  0  0  0  0  0  0  0  0  0  0  0
   49.3224    3.1112   19.2484 H   0  0  0  0  0  0  0  0  0  0  0  0
   49.8944    3.7911   17.7091 H   0  0  0  0  0  0  0  0  0  0  0  0
   48.1740    3.7796   18.0668 H   0  0  0  0  0  0  0  0  0  0  0  0
   48.9031   13.8814   20.2858 H   0  0  0  0  0  0  0  0  0  0  0  0
   47.3606   13.0282   20.1539 H   0  0  0  0  0  0  0  0  0  0  0  0
   48.5554   12.9910   18.7996 H   0  0  0  0  0  0  0  0  0  0  0  0
   49.6328    7.5262   23.4832 H   0  0  0  0  0  0  0  0  0  0  0  0
   48.7824    4.6899   19.0636 H   0  0  0  0  0  0  0  0  0  0  0  0
   47.3015    6.3440   18.3958 H   0  0  0  0  0  0  0  0  0  0  0  0
   48.7704    6.8524   17.5686 H   0  0  0  0  0  0  0  0  0  0  0  0
   51.3502    6.6240   21.7822 H   0  0  0  0  0  0  0  0  0  0  0  0
   51.1972    8.3160   21.3452 H   0  0  0  0  0  0  0  0  0  0  0  0
   46.6635    6.2513   20.7575 H   0  0  0  0  0  0  0  0  0  0  0  0
   47.0449    4.5628   21.0784 H   0  0  0  0  0  0  0  0  0  0  0  0
   47.2164    9.1489   17.6017 H   0  0  0  0  0  0  0  0  0  0  0  0
   52.3010    6.9098   19.5773 H   0  0  0  0  0  0  0  0  0  0  0  0
   50.9591    7.8439   19.0163 H   0  0  0  0  0  0  0  0  0  0  0  0
   46.9350   11.2324   18.8520 H   0  0  0  0  0  0  0  0  0  0  0  0
   46.0599    5.6824   23.0456 H   0  0  0  0  0  0  0  0  0  0  0  0
   47.6838    5.0944   23.4163 H   0  0  0  0  0  0  0  0  0  0  0  0
   49.4001    3.9687   21.2781 H   0  0  0  0  0  0  0  0  0  0  0  0
   50.8403    3.6970   18.9624 H   0  0  0  0  0  0  0  0  0  0  0  0
   51.5452    4.4346   20.4181 H   0  0  0  0  0  0  0  0  0  0  0  0
   52.3076    4.6456   18.8425 H   0  0  0  0  0  0  0  0  0  0  0  0
   47.5766   13.1310   20.1140 H   0  0  0  0  0  0  0  0  0  0  0  0
   46.9559   13.4931   21.7283 H   0  0  0  0  0  0  0  0  0  0  0  0
   45.9815   12.4805   20.6566 H   0  0  0  0  0  0  0  0  0  0  0  0
   48.4094    8.2622   22.9348 H   0  0  0  0  0  0  0  0  0  0  0  0
   48.7201    5.8689   22.4353 H   0  0  0  0  0  0  0  0  0  0  0  0
   48.9307    9.2056   18.7523 H   0  0  0  0  0  0  0  0  0  0  0  0
   49.2416    6.8118   18.2524 H   0  0  0  0  0  0  0  0  0  0  0  0
   48.3874   12.0368   20.5403 H   0  0  0  0  0  0  0  0  0  0  0  0
   49.2708    3.0379   20.6465 H   0  0  0  0  0  0  0  0  0  0  0  0
 14  7  2  0
 15  8  1  0
 16 11  1  0
 17 15  2  0
 18 13  1  0
  2 19  1  6
 20 13  2  0
 21  9  1  0
  4  7  1  0
 16  9  1  0
  6 10  1  0
 18 12  1  0
 17 14  1  0
 14 22  1  0
 22 23  1  0
  2  1  1  0
  3  1  1  0
  3  4  1  0
  5  1  1  0
  6  2  1  0
  7  5  1  0
  8  5  2  0
  6  9  1  0
 10  8  1  0
  1 11  1  6
 12  2  1  0
 13  3  1  0
 37 30  2  0
 38 31  1  0
 39 34  1  0
 40 38  2  0
 41 36  1  0
 25 42  1  6
 43 36  2  0
 44 32  1  0
 27 30  1  0
 39 32  1  0
 29 33  1  0
 41 35  1  0
 40 37  1  0
 37 45  1  0
 45 46  1  0
 25 24  1  0
 26 24  1  0
 26 27  1  0
 28 24  1  0
 29 25  1  0
 30 28  1  0
 31 28  2  0
 29 32  1  0
 33 31  1  0
 24 34  1  6
 35 25  1  0
 36 26  1  0
 48 49  1  0
 49 56  2  0
 50 47  1  0
 51 48  2  0
 52 47  2  0
 53 50  1  0
 54 53  2  0
 55 50  2  0
 56 55  1  0
 57 47  1  0
 58 48  1  0
 49 54  1  0
  3 59  1  6
  6 60  1  1
 10 61  1  0
 10 62  1  0
 11 63  1  0
 11 64  1  0
 12 65  1  0
 12 66  1  0
 15 67  1  0
 16 68  1  0
 16 69  1  0
 17 70  1  0
 18 71  1  0
 18 72  1  0
 19 73  1  0
 21 74  1  0
 21 75  1  0
 21 76  1  0
 23 77  1  0
 23 78  1  0
 23 79  1  0
 26 80  1  6
 29 81  1  6
 33 82  1  0
 33 83  1  0
 34 84  1  0
 34 85  1  0
 35 86  1  0
 35 87  1  0
 38 88  1  0
 39 89  1  0
 39 90  1  0
 40 91  1  0
 41 92  1  0
 41 93  1  0
 42 94  1  0
 44 95  1  0
 44 96  1  0
 44 97  1  0
 46 98  1  0
 46 99  1  0
 46100  1  0
 53101  1  0
 54102  1  0
 55103  1  0
 56104  1  0
 57105  1  0
 58106  1  0
M  END
> <Uni-Dock RESULT> 
ENERGY=   -5.768  LOWER_BOUND=    3.254  UPPER_BOUND=    6.894
INTER + INTRA:          -5.768
INTER:                  -5.768
INTRA:                   0.000
UNBOUND:                 0.000

$$$$

     RDKit          3D

106114  0  0  0  0  0  0  0  0999 V2000
   49.5263    6.2307   17.1096 C   0  0  2  0  0  0  0  0  0  0  0  0
   50.0743    5.0803   17.9564 C   0  0  2  0  0  0  0  0  0  0  0  0
   50.5226    7.2379   16.5159 C   0  0  1  0  0  0  0  0  0  0  0  0
   49.8290    8.5202   16.4329 O   0  0  0  0  0  0  0  0  0  0  0  0
   48.8141    7.2015   17.9965 C   0  0  0  0  0  0  0  0  0  0  0  0
   48.8247    4.4821   18.7130 C   0  0  2  0  0  0  0  0  0  0  0  0
   48.9732    8.4880   17.5139 C   0  0  0  0  0  0  0  0  0  0  0  0
   48.1381    6.9116   19.1666 C   0  0  0  0  0  0  0  0  0  0  0  0
   47.7189    4.0814   17.8011 N   0  0  0  0  0  0  0  0  0  0  0  0
   48.2052    5.5103   19.7181 C   0  0  0  0  0  0  0  0  0  0  0  0
   48.5300    5.6973   16.0453 C   0  0  0  0  0  0  0  0  0  0  0  0
   51.2161    5.5239   18.8847 C   0  0  0  0  0  0  0  0  0  0  0  0
   51.8145    7.4003   17.3411 C   0  0  0  0  0  0  0  0  0  0  0  0
   48.3577    9.5631   18.1261 C   0  0  0  0  0  0  0  0  0  0  0  0
   47.5210    7.9811   19.8134 C   0  0  0  0  0  0  0  0  0  0  0  0
   47.9577    4.3070   16.3756 C   0  0  0  0  0  0  0  0  0  0  0  0
   47.6129    9.2912   19.2852 C   0  0  0  0  0  0  0  0  0  0  0  0
   52.3303    6.1867   18.0810 C   0  0  0  0  0  0  0  0  0  0  0  0
   50.6690    4.0967   17.0874 O   0  0  0  0  0  0  0  0  0  0  0  0
   52.4723    8.4435   17.3477 O   0  0  0  0  0  0  0  0  0  0  0  0
   47.2411    2.7271   18.0601 C   0  0  0  0  0  0  0  0  0  0  0  0
   48.5458   10.7867   17.5559 O   0  0  0  0  0  0  0  0  0  0  0  0
   47.9654   11.9024   18.2158 C   0  0  0  0  0  0  0  0  0  0  0  0
   49.7459    6.2137   17.3795 C   0  0  2  0  0  0  0  0  0  0  0  0
   49.5353    4.8211   17.9777 C   0  0  2  0  0  0  0  0  0  0  0  0
   51.1154    6.8772   17.5698 C   0  0  1  0  0  0  0  0  0  0  0  0
   50.8778    8.3206   17.6294 O   0  0  0  0  0  0  0  0  0  0  0  0
   48.9514    7.2145   18.1456 C   0  0  0  0  0  0  0  0  0  0  0  0
   47.9849    4.5555   17.9072 C   0  0  2  0  0  0  0  0  0  0  0  0
   49.6273    8.4178   18.2023 C   0  0  0  0  0  0  0  0  0  0  0  0
   47.7348    6.9906   18.7613 C   0  0  0  0  0  0  0  0  0  0  0  0
   47.4471    4.5682   16.5160 N   0  0  0  0  0  0  0  0  0  0  0  0
   47.1750    5.5894   18.7769 C   0  0  0  0  0  0  0  0  0  0  0  0
   49.2877    6.2155   15.9013 C   0  0  0  0  0  0  0  0  0  0  0  0
   50.1277    4.7056   19.3918 C   0  0  0  0  0  0  0  0  0  0  0  0
   51.8593    6.4442   18.8482 C   0  0  0  0  0  0  0  0  0  0  0  0
   49.0619    9.5209   18.8116 C   0  0  0  0  0  0  0  0  0  0  0  0
   47.1500    8.0833   19.3966 C   0  0  0  0  0  0  0  0  0  0  0  0
   47.8251    5.7643   15.7461 C   0  0  0  0  0  0  0  0  0  0  0  0
   47.8005    9.3413   19.4053 C   0  0  0  0  0  0  0  0  0  0  0  0
   51.6144    5.0483   19.3762 C   0  0  0  0  0  0  0  0  0  0  0  0
   50.2634    3.8599   17.1934 O   0  0  0  0  0  0  0  0  0  0  0  0
   52.7024    7.1597   19.3961 O   0  0  0  0  0  0  0  0  0  0  0  0
   47.7065    3.3475   15.7587 C   0  0  0  0  0  0  0  0  0  0  0  0
   49.7882   10.6739   18.7922 O   0  0  0  0  0  0  0  0  0  0  0  0
   49.2400   11.7947   19.4700 C   0  0  0  0  0  0  0  0  0  0  0  0
   49.5025    9.3549   18.0993 C   0  0  0  0  0  0  0  0  0  0  0  0
   48.5883    3.6629   17.7843 C   0  0  0  0  0  0  0  0  0  0  0  0
   48.8478    5.1211   17.8656 C   0  0  0  0  0  0  0  0  0  0  0  0
   49.2433    7.8966   18.0186 C   0  0  0  0  0  0  0  0  0  0  0  0
   47.4921    3.1350   17.7601 O   0  0  0  0  0  0  0  0  0  0  0  0
   50.5986    9.8828   18.1263 O   0  0  0  0  0  0  0  0  0  0  0  0
   50.3421    7.0287   17.9659 C   0  0  0  0  0  0  0  0  0  0  0  0
   50.1461    5.6459   17.8895 C   0  0  0  0  0  0  0  0  0  0  0  0
   47.9449    7.3718   17.9945 C   0  0  0  0  0  0  0  0  0  0  0  0
   47.7489    5.9888   17.9188 C   0  0  0  0  0  0  0  0  0  0  0  0
   48.3735   10.0834   18.1422 O   0  0  0  0  0  0  0  0  0  0  0  0
   49.7167    2.9341   17.7349 O   0  0  0  0  0  0  0  0  0  0  0  0
   50.8371    6.9487   15.5060 H   0  0  0  0  0  0  0  0  0  0  0  0
   49.1627    3.6042   19.2799 H   0  0  0  0  0  0  0  0  0  0  0  0
   48.8287    5.5316   20.6210 H   0  0  0  0  0  0  0  0  0  0  0  0
   47.2053    5.1869   20.0342 H   0  0  0  0  0  0  0  0  0  0  0  0
   49.0331    5.6126   15.0733 H   0  0  0  0  0  0  0  0  0  0  0  0
   47.6966    6.3970   15.8953 H   0  0  0  0  0  0  0  0  0  0  0  0
   50.8737    6.2189   19.6582 H   0  0  0  0  0  0  0  0  0  0  0  0
   51.6339    4.6505   19.4007 H   0  0  0  0  0  0  0  0  0  0  0  0
   46.9702    7.8188   20.7372 H   0  0  0  0  0  0  0  0  0  0  0  0
   48.6212    3.5340   15.9677 H   0  0  0  0  0  0  0  0  0  0  0  0
   47.0130    4.1970   15.8275 H   0  0  0  0  0  0  0  0  0  0  0  0
   47.1053   10.0846   19.8256 H   0  0  0  0  0  0  0  0  0  0  0  0
   53.1249    6.5067   18.7645 H   0  0  0  0  0  0  0  0  0  0  0  0
   52.7761    5.5013   17.3530 H   0  0  0  0  0  0  0  0  0  0  0  0
   50.5614    3.2244   17.5088 H   0  0  0  0  0  0  0  0  0  0  0  0
   48.0051    1.9757   17.8315 H   0  0  0  0  0  0  0  0  0  0  0  0
   46.3507    2.5087   17.4605 H   0  0  0  0  0  0  0  0  0  0  0  0
   46.9474    2.6150   19.1099 H   0  0  0  0  0  0  0  0  0  0  0  0
   48.2191   12.8001   17.6441 H   0  0  0  0  0  0  0  0  0  0  0  0
   48.3755   12.0225   19.2238 H   0  0  0  0  0  0  0  0  0  0  0  0
   46.8735   11.8221   18.2404 H   0  0  0  0  0  0  0  0  0  0  0  0
   51.7836    6.6686   16.7260 H   0  0  0  0  0  0  0  0  0  0  0  0
   47.7716    3.5629   18.3259 H   0  0  0  0  0  0  0  0  0  0  0  0
   47.1883    5.2394   19.8172 H   0  0  0  0  0  0  0  0  0  0  0  0
   46.1237    5.6066   18.4636 H   0  0  0  0  0  0  0  0  0  0  0  0
   49.9356    5.5533   15.3125 H   0  0  0  0  0  0  0  0  0  0  0  0
   49.3894    7.2142   15.4561 H   0  0  0  0  0  0  0  0  0  0  0  0
   49.6161    5.3553   20.1097 H   0  0  0  0  0  0  0  0  0  0  0  0
   50.0152    3.6772   19.7570 H   0  0  0  0  0  0  0  0  0  0  0  0
   46.1905    7.9785   19.8988 H   0  0  0  0  0  0  0  0  0  0  0  0
   47.6027    5.6248   14.6800 H   0  0  0  0  0  0  0  0  0  0  0  0
   47.1632    6.5848   16.0486 H   0  0  0  0  0  0  0  0  0  0  0  0
   47.2958   10.1606   19.9085 H   0  0  0  0  0  0  0  0  0  0  0  0
   52.0049    4.9897   20.3987 H   0  0  0  0  0  0  0  0  0  0  0  0
   52.1889    4.3453   18.7644 H   0  0  0  0  0  0  0  0  0  0  0  0
   49.9276    2.9754   17.4247 H   0  0  0  0  0  0  0  0  0  0  0  0
   47.4613    2.4573   16.3478 H   0  0  0  0  0  0  0  0  0  0  0  0
   48.7387    3.2619   15.4092 H   0  0  0  0  0  0  0  0  0  0  0  0
   47.0593    3.3153   14.8749 H   0  0  0  0  0  0  0  0  0  0  0  0
   48.2972   12.1105   19.0117 H   0  0  0  0  0  0  0  0  0  0  0  0
   49.9485   12.6233   19.3763 H   0  0  0  0  0  0  0  0  0  0  0  0
   49.1103   11.5874   20.5372 H   0  0  0  0  0  0  0  0  0  0  0  0
   51.3558    7.4260   17.9840 H   0  0  0  0  0  0  0  0  0  0  0  0
   51.0122    4.9892   17.8496 H   0  0  0  0  0  0  0  0  0  0  0  0
   47.0792    8.0290   18.0350 H   0  0  0  0  0  0  0  0  0  0  0  0
   46.7352    5.5917   17.9005 H   0  0  0  0  0  0  0  0  0  0  0  0
   48.6917   11.0092   18.1944 H   0  0  0  0  0  0  0  0  0  0  0  0
   49.3977    2.0086   17.6830 H   0  0  0  0  0  0  0  0  0  0  0  0
 14  7  2  0
 15  8  1  0
 16 11  1  0
 17 15  2  0
 18 13  1  0
  2 19  1  6
 20 13  2  0
 21  9  1  0
  4  7  1  0
 16  9  1  0
  6 10  1  0
 18 12  1  0
 17 14  1  0
 14 22  1  0
 22 23  1  0
  2  1  1  0
  3  1  1  0
  3  4  1  0
  5  1  1  0
  6  2  1  0
  7  5  1  0
  8  5  2  0
  6  9  1  0
 10  8  1  0
  1 11  1  6
 12  2  1  0
 13  3  1  0
 37 30  2  0
 38 31  1  0
 39 34  1  0
 40 38  2  0
 41 36  1  0
 25 42  1  6
 43 36  2  0
 44 32  1  0
 27 30  1  0
 39 32  1  0
 29 33  1  0
 41 35  1  0
 40 37  1  0
 37 45  1  0
 45 46  1  0
 25 24  1  0
 26 24  1  0
 26 27  1  0
 28 24  1  0
 29 25  1  0
 30 28  1  0
 31 28  2  0
 29 32  1  0
 33 31  1  0
 24 34  1  6
 35 25  1  0
 36 26  1  0
 48 49  1  0
 49 56  2  0
 50 47  1  0
 51 48  2  0
 52 47  2  0
 53 50  1  0
 54 53  2  0
 55 50  2  0
 56 55  1  0
 57 47  1  0
 58 48  1  0
 49 54  1  0
  3 59  1  6
  6 60  1  1
 10 61  1  0
 10 62  1  0
 11 63  1  0
 11 64  1  0
 12 65  1  0
 12 66  1  0
 15 67  1  0
 16 68  1  0
 16 69  1  0
 17 70  1  0
 18 71  1  0
 18 72  1  0
 19 73  1  0
 21 74  1  0
 21 75  1  0
 21 76  1  0
 23 77  1  0
 23 78  1  0
 23 79  1  0
 26 80  1  6
 29 81  1  6
 33 82  1  0
 33 83  1  0
 34 84  1  0
 34 85  1  0
 35 86  1  0
 35 87  1  0
 38 88  1  0
 39 89  1  0
 39 90  1  0
 40 91  1  0
 41 92  1  0
 41 93  1  0
 42 94  1  0
 44 95  1  0
 44 96  1  0
 44 97  1  0
 46 98  1  0
 46 99  1  0
 46100  1  0
 53101  1  0
 54102  1  0
 55103  1  0
 56104  1  0
 57105  1  0
 58106  1  0
M  END
> <Uni-Dock RESULT> 
ENERGY=   -5.690  LOWER_BOUND=    2.282  UPPER_BOUND=    5.453
INTER + INTRA:          -5.690
INTER:                  -5.690
INTRA:                   0.000
UNBOUND:                 0.000

$$$$

     RDKit          3D

106114  0  0  0  0  0  0  0  0999 V2000
   47.9257    9.6313   20.7983 C   0  0  2  0  0  0  0  0  0  0  0  0
   49.1032   10.5797   21.0322 C   0  0  2  0  0  0  0  0  0  0  0  0
   47.7519    8.4368   21.7483 C   0  0  1  0  0  0  0  0  0  0  0  0
   47.1338    7.3654   20.9721 O   0  0  0  0  0  0  0  0  0  0  0  0
   48.1763    8.8279   19.5622 C   0  0  0  0  0  0  0  0  0  0  0  0
   49.2258   11.4328   19.7097 C   0  0  2  0  0  0  0  0  0  0  0  0
   47.6384    7.5615   19.7037 C   0  0  0  0  0  0  0  0  0  0  0  0
   48.8871    9.2265   18.4459 C   0  0  0  0  0  0  0  0  0  0  0  0
   47.9631   12.1257   19.3353 N   0  0  0  0  0  0  0  0  0  0  0  0
   49.6141   10.5467   18.4788 C   0  0  0  0  0  0  0  0  0  0  0  0
   46.6081   10.4323   20.6191 C   0  0  0  0  0  0  0  0  0  0  0  0
   50.3910    9.8359   21.4202 C   0  0  0  0  0  0  0  0  0  0  0  0
   49.0706    7.9330   22.3677 C   0  0  0  0  0  0  0  0  0  0  0  0
   47.6857    6.6445   18.6711 C   0  0  0  0  0  0  0  0  0  0  0  0
   48.9640    8.3140   17.3951 C   0  0  0  0  0  0  0  0  0  0  0  0
   46.8279   11.9057   20.2314 C   0  0  0  0  0  0  0  0  0  0  0  0
   48.3501    7.0428   17.4997 C   0  0  0  0  0  0  0  0  0  0  0  0
   50.1509    8.9548   22.6420 C   0  0  0  0  0  0  0  0  0  0  0  0
   48.8118   11.4233   22.1635 O   0  0  0  0  0  0  0  0  0  0  0  0
   49.2361    6.7620   22.7173 O   0  0  0  0  0  0  0  0  0  0  0  0
   48.1630   13.5442   19.0566 C   0  0  0  0  0  0  0  0  0  0  0  0
   47.0973    5.4354   18.8941 O   0  0  0  0  0  0  0  0  0  0  0  0
   47.1962    4.4686   17.8583 C   0  0  0  0  0  0  0  0  0  0  0  0
   48.2677    9.5837   20.8448 C   0  0  2  0  0  0  0  0  0  0  0  0
   48.8958   10.9609   20.6202 C   0  0  2  0  0  0  0  0  0  0  0  0
   49.0029    8.6007   21.7641 C   0  0  1  0  0  0  0  0  0  0  0  0
   48.7068    7.2569   21.2641 O   0  0  0  0  0  0  0  0  0  0  0  0
   48.3696    8.7761   19.5969 C   0  0  0  0  0  0  0  0  0  0  0  0
   48.1100   11.5975   19.4132 C   0  0  2  0  0  0  0  0  0  0  0  0
   48.5615    7.4435   19.9056 C   0  0  0  0  0  0  0  0  0  0  0  0
   48.3287    9.2640   18.3048 C   0  0  0  0  0  0  0  0  0  0  0  0
   46.6535   11.7709   19.6836 N   0  0  0  0  0  0  0  0  0  0  0  0
   48.2874   10.7574   18.0926 C   0  0  0  0  0  0  0  0  0  0  0  0
   46.7780    9.7519   21.2287 C   0  0  0  0  0  0  0  0  0  0  0  0
   50.4152   10.8730   20.4028 C   0  0  0  0  0  0  0  0  0  0  0  0
   50.5321    8.7891   21.8030 C   0  0  0  0  0  0  0  0  0  0  0  0
   48.6266    6.4873   18.9110 C   0  0  0  0  0  0  0  0  0  0  0  0
   48.4081    8.3216   17.2824 C   0  0  0  0  0  0  0  0  0  0  0  0
   45.9929   10.5503   20.1737 C   0  0  0  0  0  0  0  0  0  0  0  0
   48.5376    6.9439   17.5846 C   0  0  0  0  0  0  0  0  0  0  0  0
   51.0836   10.1807   21.5869 C   0  0  0  0  0  0  0  0  0  0  0  0
   48.7391   11.7470   21.8146 O   0  0  0  0  0  0  0  0  0  0  0  0
   51.3037    7.8693   22.0880 O   0  0  0  0  0  0  0  0  0  0  0  0
   46.3291   12.9212   20.5217 C   0  0  0  0  0  0  0  0  0  0  0  0
   48.7864    5.1942   19.3106 O   0  0  0  0  0  0  0  0  0  0  0  0
   48.9158    4.2139   18.2915 C   0  0  0  0  0  0  0  0  0  0  0  0
   48.2627    6.5695   19.6791 C   0  0  0  0  0  0  0  0  0  0  0  0
   48.4457   12.3211   20.1478 C   0  0  0  0  0  0  0  0  0  0  0  0
   48.4119   10.8415   20.0485 C   0  0  0  0  0  0  0  0  0  0  0  0
   48.2973    8.0492   19.7783 C   0  0  0  0  0  0  0  0  0  0  0  0
   47.9662   13.0998   19.3450 O   0  0  0  0  0  0  0  0  0  0  0  0
   48.7447    5.7907   20.4804 O   0  0  0  0  0  0  0  0  0  0  0  0
   48.9343    8.6258   20.8851 C   0  0  0  0  0  0  0  0  0  0  0  0
   48.9917   10.0168   21.0207 C   0  0  0  0  0  0  0  0  0  0  0  0
   47.7171    8.8739   18.8062 C   0  0  0  0  0  0  0  0  0  0  0  0
   47.7752   10.2650   18.9414 C   0  0  0  0  0  0  0  0  0  0  0  0
   47.6246    6.1357   18.5783 O   0  0  0  0  0  0  0  0  0  0  0  0
   49.0781   12.7556   21.2515 O   0  0  0  0  0  0  0  0  0  0  0  0
   47.0910    8.6808   22.5886 H   0  0  0  0  0  0  0  0  0  0  0  0
   50.0169   12.1792   19.8625 H   0  0  0  0  0  0  0  0  0  0  0  0
   50.6906   10.3388   18.5268 H   0  0  0  0  0  0  0  0  0  0  0  0
   49.4404   11.0903   17.5415 H   0  0  0  0  0  0  0  0  0  0  0  0
   46.0405   10.4309   21.5588 H   0  0  0  0  0  0  0  0  0  0  0  0
   45.9561    9.9623   19.8704 H   0  0  0  0  0  0  0  0  0  0  0  0
   50.7716    9.2145   20.6031 H   0  0  0  0  0  0  0  0  0  0  0  0
   51.1774   10.5605   21.6651 H   0  0  0  0  0  0  0  0  0  0  0  0
   49.5061    8.5683   16.4870 H   0  0  0  0  0  0  0  0  0  0  0  0
   46.9308   12.5102   21.1414 H   0  0  0  0  0  0  0  0  0  0  0  0
   45.9095   12.2633   19.7481 H   0  0  0  0  0  0  0  0  0  0  0  0
   48.4343    6.3755   16.6472 H   0  0  0  0  0  0  0  0  0  0  0  0
   51.0772    8.4247   22.8905 H   0  0  0  0  0  0  0  0  0  0  0  0
   49.8587    9.5399   23.5201 H   0  0  0  0  0  0  0  0  0  0  0  0
   49.2570   12.2782   22.0190 H   0  0  0  0  0  0  0  0  0  0  0  0
   48.4654   14.0961   19.9535 H   0  0  0  0  0  0  0  0  0  0  0  0
   47.2446   13.9957   18.6656 H   0  0  0  0  0  0  0  0  0  0  0  0
   48.9320   13.6825   18.2882 H   0  0  0  0  0  0  0  0  0  0  0  0
   46.6908    3.5597   18.1979 H   0  0  0  0  0  0  0  0  0  0  0  0
   48.2411    4.2128   17.6552 H   0  0  0  0  0  0  0  0  0  0  0  0
   46.6894    4.8105   16.9497 H   0  0  0  0  0  0  0  0  0  0  0  0
   48.6462    8.6742   22.7982 H   0  0  0  0  0  0  0  0  0  0  0  0
   48.5198   12.5948   19.2045 H   0  0  0  0  0  0  0  0  0  0  0  0
   49.2383   11.0521   17.6300 H   0  0  0  0  0  0  0  0  0  0  0  0
   47.4967   11.0082   17.3749 H   0  0  0  0  0  0  0  0  0  0  0  0
   46.7010   10.2598   22.1987 H   0  0  0  0  0  0  0  0  0  0  0  0
   46.2893    8.7768   21.3570 H   0  0  0  0  0  0  0  0  0  0  0  0
   50.6719   10.3390   19.4819 H   0  0  0  0  0  0  0  0  0  0  0  0
   50.8349   11.8827   20.3126 H   0  0  0  0  0  0  0  0  0  0  0  0
   48.3785    8.6361   16.2414 H   0  0  0  0  0  0  0  0  0  0  0  0
   44.9944   10.7818   20.5672 H   0  0  0  0  0  0  0  0  0  0  0  0
   45.7931    9.9037   19.3107 H   0  0  0  0  0  0  0  0  0  0  0  0
   48.5873    6.2523   16.7489 H   0  0  0  0  0  0  0  0  0  0  0  0
   52.1596   10.1021   21.3934 H   0  0  0  0  0  0  0  0  0  0  0  0
   50.9572   10.7469   22.5152 H   0  0  0  0  0  0  0  0  0  0  0  0
   48.9110   12.6767   21.5806 H   0  0  0  0  0  0  0  0  0  0  0  0
   46.8523   13.8201   20.1788 H   0  0  0  0  0  0  0  0  0  0  0  0
   46.5552   12.7675   21.5801 H   0  0  0  0  0  0  0  0  0  0  0  0
   45.2588   13.1445   20.4462 H   0  0  0  0  0  0  0  0  0  0  0  0
   48.0073    4.1548   17.6834 H   0  0  0  0  0  0  0  0  0  0  0  0
   49.0548    3.2426   18.7757 H   0  0  0  0  0  0  0  0  0  0  0  0
   49.7960    4.4041   17.6688 H   0  0  0  0  0  0  0  0  0  0  0  0
   49.3885    7.9940   21.6468 H   0  0  0  0  0  0  0  0  0  0  0  0
   49.4908   10.4447   21.8872 H   0  0  0  0  0  0  0  0  0  0  0  0
   47.2187    8.4454   17.9397 H   0  0  0  0  0  0  0  0  0  0  0  0
   47.3208   10.8967   18.1797 H   0  0  0  0  0  0  0  0  0  0  0  0
   47.6795    5.1590   18.6430 H   0  0  0  0  0  0  0  0  0  0  0  0
   49.0229   13.7322   21.1860 H   0  0  0  0  0  0  0  0  0  0  0  0
 14  7  2  0
 15  8  1  0
 16 11  1  0
 17 15  2  0
 18 13  1  0
  2 19  1  6
 20 13  2  0
 21  9  1  0
  4  7  1  0
 16  9  1  0
  6 10  1  0
 18 12  1  0
 17 14  1  0
 14 22  1  0
 22 23  1  0
  2  1  1  0
  3  1  1  0
  3  4  1  0
  5  1  1  0
  6  2  1  0
  7  5  1  0
  8  5  2  0
  6  9  1  0
 10  8  1  0
  1 11  1  6
 12  2  1  0
 13  3  1  0
 37 30  2  0
 38 31  1  0
 39 34  1  0
 40 38  2  0
 41 36  1  0
 25 42  1  6
 43 36  2  0
 44 32  1  0
 27 30  1  0
 39 32  1  0
 29 33  1  0
 41 35  1  0
 40 37  1  0
 37 45  1  0
 45 46  1  0
 25 24  1  0
 26 24  1  0
 26 27  1  0
 28 24  1  0
 29 25  1  0
 30 28  1  0
 31 28  2  0
 29 32  1  0
 33 31  1  0
 24 34  1  6
 35 25  1  0
 36 26  1  0
 48 49  1  0
 49 56  2  0
 50 47  1  0
 51 48  2  0
 52 47  2  0
 53 50  1  0
 54 53  2  0
 55 50  2  0
 56 55  1  0
 57 47  1  0
 58 48  1  0
 49 54  1  0
  3 59  1  6
  6 60  1  1
 10 61  1  0
 10 62  1  0
 11 63  1  0
 11 64  1  0
 12 65  1  0
 12 66  1  0
 15 67  1  0
 16 68  1  0
 16 69  1  0
 17 70  1  0
 18 71  1  0
 18 72  1  0
 19 73  1  0
 21 74  1  0
 21 75  1  0
 21 76  1  0
 23 77  1  0
 23 78  1  0
 23 79  1  0
 26 80  1  6
 29 81  1  6
 33 82  1  0
 33 83  1  0
 34 84  1  0
 34 85  1  0
 35 86  1  0
 35 87  1  0
 38 88  1  0
 39 89  1  0
 39 90  1  0
 40 91  1  0
 41 92  1  0
 41 93  1  0
 42 94  1  0
 44 95  1  0
 44 96  1  0
 44 97  1  0
 46 98  1  0
 46 99  1  0
 46100  1  0
 53101  1  0
 54102  1  0
 55103  1  0
 56104  1  0
 57105  1  0
 58106  1  0
M  END
> <Uni-Dock RESULT> 
ENERGY=   -5.597  LOWER_BOUND=    4.052  UPPER_BOUND=    6.424
INTER + INTRA:          -5.597
INTER:                  -5.597
INTRA:                   0.000
UNBOUND:                 0.000

$$$$

     RDKit          3D

106114  0  0  0  0  0  0  0  0999 V2000
   49.8752    8.3299   18.6739 C   0  0  2  0  0  0  0  0  0  0  0  0
   49.1359    9.6646   18.7882 C   0  0  2  0  0  0  0  0  0  0  0  0
   50.5597    7.9875   17.3421 C   0  0  1  0  0  0  0  0  0  0  0  0
   50.5195    6.5340   17.2073 O   0  0  0  0  0  0  0  0  0  0  0  0
   48.8795    7.2147   18.6429 C   0  0  0  0  0  0  0  0  0  0  0  0
   48.2467    9.5434   20.0868 C   0  0  2  0  0  0  0  0  0  0  0  0
   49.3418    6.1899   17.8369 C   0  0  0  0  0  0  0  0  0  0  0  0
   47.6429    7.1916   19.2598 C   0  0  0  0  0  0  0  0  0  0  0  0
   49.0247    9.1829   21.3032 N   0  0  0  0  0  0  0  0  0  0  0  0
   47.1437    8.4425   19.9369 C   0  0  0  0  0  0  0  0  0  0  0  0
   50.8217    8.1257   19.8873 C   0  0  0  0  0  0  0  0  0  0  0  0
   48.3450   10.0109   17.5167 C   0  0  0  0  0  0  0  0  0  0  0  0
   49.8976    8.6401   16.1124 C   0  0  0  0  0  0  0  0  0  0  0  0
   48.6276    5.0159   17.6921 C   0  0  0  0  0  0  0  0  0  0  0  0
   46.8944    6.0245   19.1163 C   0  0  0  0  0  0  0  0  0  0  0  0
   50.4619    8.9951   21.1055 C   0  0  0  0  0  0  0  0  0  0  0  0
   47.3929    4.9390   18.3568 C   0  0  0  0  0  0  0  0  0  0  0  0
   49.2622    9.9995   16.2980 C   0  0  0  0  0  0  0  0  0  0  0  0
   50.0996   10.7275   18.9218 O   0  0  0  0  0  0  0  0  0  0  0  0
   49.9436    8.1370   14.9874 O   0  0  0  0  0  0  0  0  0  0  0  0
   48.7465   10.0679   22.4297 C   0  0  0  0  0  0  0  0  0  0  0  0
   49.1821    4.0511   16.9049 O   0  0  0  0  0  0  0  0  0  0  0  0
   48.4239    2.8671   16.7043 C   0  0  0  0  0  0  0  0  0  0  0  0
   49.6353    8.4899   18.4783 C   0  0  2  0  0  0  0  0  0  0  0  0
   49.0549    9.5851   19.3757 C   0  0  2  0  0  0  0  0  0  0  0  0
   49.5985    8.7106   16.9611 C   0  0  1  0  0  0  0  0  0  0  0  0
   49.4691    7.3876   16.3476 O   0  0  0  0  0  0  0  0  0  0  0  0
   48.7483    7.2932   18.5092 C   0  0  0  0  0  0  0  0  0  0  0  0
   48.9393    8.9458   20.8101 C   0  0  2  0  0  0  0  0  0  0  0  0
   48.7424    6.6720   17.2755 C   0  0  0  0  0  0  0  0  0  0  0  0
   47.9924    6.8666   19.5844 C   0  0  0  0  0  0  0  0  0  0  0  0
   50.2517    8.5104   21.3692 N   0  0  0  0  0  0  0  0  0  0  0  0
   47.9467    7.7227   20.8261 C   0  0  0  0  0  0  0  0  0  0  0  0
   51.0442    8.0993   18.9855 C   0  0  0  0  0  0  0  0  0  0  0  0
   47.7295   10.1379   18.8268 C   0  0  0  0  0  0  0  0  0  0  0  0
   48.4353    9.5978   16.4759 C   0  0  0  0  0  0  0  0  0  0  0  0
   48.0365    5.5019   17.0740 C   0  0  0  0  0  0  0  0  0  0  0  0
   47.2587    5.6969   19.4024 C   0  0  0  0  0  0  0  0  0  0  0  0
   51.0287    7.6545   20.4582 C   0  0  0  0  0  0  0  0  0  0  0  0
   47.2957    5.0118   18.1634 C   0  0  0  0  0  0  0  0  0  0  0  0
   47.9205   10.6703   17.4097 C   0  0  0  0  0  0  0  0  0  0  0  0
   49.9506   10.7107   19.3793 O   0  0  0  0  0  0  0  0  0  0  0  0
   47.9768    9.5188   15.3329 O   0  0  0  0  0  0  0  0  0  0  0  0
   51.0695    9.5959   21.9019 C   0  0  0  0  0  0  0  0  0  0  0  0
   48.1139    4.9430   15.8334 O   0  0  0  0  0  0  0  0  0  0  0  0
   47.3417    3.7741   15.6018 C   0  0  0  0  0  0  0  0  0  0  0  0
   48.8026    5.8161   16.8653 C   0  0  0  0  0  0  0  0  0  0  0  0
   49.1614   10.0071   20.8202 C   0  0  0  0  0  0  0  0  0  0  0  0
   49.0720    8.9474   19.7860 C   0  0  0  0  0  0  0  0  0  0  0  0
   48.8914    6.8761   17.8992 C   0  0  0  0  0  0  0  0  0  0  0  0
   49.0637    9.8397   22.0215 O   0  0  0  0  0  0  0  0  0  0  0  0
   48.8975    5.9838   15.6637 O   0  0  0  0  0  0  0  0  0  0  0  0
   49.1050    8.1961   17.4803 C   0  0  0  0  0  0  0  0  0  0  0  0
   49.1953    9.2286   18.4196 C   0  0  0  0  0  0  0  0  0  0  0  0
   48.7684    6.5949   19.2658 C   0  0  0  0  0  0  0  0  0  0  0  0
   48.8580    7.6276   20.2050 C   0  0  0  0  0  0  0  0  0  0  0  0
   48.5989    4.5943   17.3876 O   0  0  0  0  0  0  0  0  0  0  0  0
   49.3715   11.2283   20.2990 O   0  0  0  0  0  0  0  0  0  0  0  0
   51.6087    8.3069   17.3323 H   0  0  0  0  0  0  0  0  0  0  0  0
   47.7513   10.5104   20.2472 H   0  0  0  0  0  0  0  0  0  0  0  0
   46.3253    8.8516   19.3309 H   0  0  0  0  0  0  0  0  0  0  0  0
   46.7148    8.1899   20.9150 H   0  0  0  0  0  0  0  0  0  0  0  0
   51.8508    8.3828   19.6045 H   0  0  0  0  0  0  0  0  0  0  0  0
   50.8469    7.0726   20.1985 H   0  0  0  0  0  0  0  0  0  0  0  0
   47.5156    9.3174   17.3440 H   0  0  0  0  0  0  0  0  0  0  0  0
   47.9098   11.0134   17.6131 H   0  0  0  0  0  0  0  0  0  0  0  0
   45.9142    5.9417   19.5804 H   0  0  0  0  0  0  0  0  0  0  0  0
   50.9709    9.9638   21.0245 H   0  0  0  0  0  0  0  0  0  0  0  0
   50.8909    8.5157   21.9950 H   0  0  0  0  0  0  0  0  0  0  0  0
   46.7713    4.0514   18.2861 H   0  0  0  0  0  0  0  0  0  0  0  0
   48.6743   10.2346   15.4035 H   0  0  0  0  0  0  0  0  0  0  0  0
   50.0591   10.7462   16.3759 H   0  0  0  0  0  0  0  0  0  0  0  0
   49.6928   11.4312   19.4597 H   0  0  0  0  0  0  0  0  0  0  0  0
   49.0895   11.0906   22.2378 H   0  0  0  0  0  0  0  0  0  0  0  0
   49.2364    9.7035   23.3393 H   0  0  0  0  0  0  0  0  0  0  0  0
   47.6718   10.0966   22.6425 H   0  0  0  0  0  0  0  0  0  0  0  0
   48.9972    2.2088   16.0449 H   0  0  0  0  0  0  0  0  0  0  0  0
   47.4718    3.0865   16.2103 H   0  0  0  0  0  0  0  0  0  0  0  0
   48.2657    2.3351   17.6484 H   0  0  0  0  0  0  0  0  0  0  0  0
   50.5245    9.1732   16.5999 H   0  0  0  0  0  0  0  0  0  0  0  0
   48.5254    9.6909   21.5026 H   0  0  0  0  0  0  0  0  0  0  0  0
   46.9264    8.1169   20.9188 H   0  0  0  0  0  0  0  0  0  0  0  0
   48.1260    7.1009   21.7120 H   0  0  0  0  0  0  0  0  0  0  0  0
   51.7276    8.9507   18.8714 H   0  0  0  0  0  0  0  0  0  0  0  0
   51.4704    7.2853   18.3840 H   0  0  0  0  0  0  0  0  0  0  0  0
   46.9355    9.3839   18.8240 H   0  0  0  0  0  0  0  0  0  0  0  0
   47.3822   10.9633   19.4608 H   0  0  0  0  0  0  0  0  0  0  0  0
   46.6441    5.3025   20.2088 H   0  0  0  0  0  0  0  0  0  0  0  0
   52.0623    7.5491   20.8132 H   0  0  0  0  0  0  0  0  0  0  0  0
   50.6231    6.6374   20.5208 H   0  0  0  0  0  0  0  0  0  0  0  0
   46.7107    4.1008   18.0792 H   0  0  0  0  0  0  0  0  0  0  0  0
   46.9566   11.0285   17.0302 H   0  0  0  0  0  0  0  0  0  0  0  0
   48.6187   11.5130   17.3810 H   0  0  0  0  0  0  0  0  0  0  0  0
   49.7043   11.2813   20.1291 H   0  0  0  0  0  0  0  0  0  0  0  0
   50.4798   10.2542   22.5487 H   0  0  0  0  0  0  0  0  0  0  0  0
   51.5472   10.2025   21.1281 H   0  0  0  0  0  0  0  0  0  0  0  0
   51.8664    9.1846   22.5319 H   0  0  0  0  0  0  0  0  0  0  0  0
   47.6700    2.9508   16.2445 H   0  0  0  0  0  0  0  0  0  0  0  0
   47.4996    3.4678   14.5633 H   0  0  0  0  0  0  0  0  0  0  0  0
   46.2729    3.9737   15.7307 H   0  0  0  0  0  0  0  0  0  0  0  0
   49.2021    8.4259   16.4204 H   0  0  0  0  0  0  0  0  0  0  0  0
   49.3613   10.2464   18.0740 H   0  0  0  0  0  0  0  0  0  0  0  0
   48.6019    5.5769   19.6107 H   0  0  0  0  0  0  0  0  0  0  0  0
   48.7611    7.3976   21.2649 H   0  0  0  0  0  0  0  0  0  0  0  0
   48.5608    4.0060   16.6043 H   0  0  0  0  0  0  0  0  0  0  0  0
   49.4093   11.8159   21.0828 H   0  0  0  0  0  0  0  0  0  0  0  0
 14  7  2  0
 15  8  1  0
 16 11  1  0
 17 15  2  0
 18 13  1  0
  2 19  1  6
 20 13  2  0
 21  9  1  0
  4  7  1  0
 16  9  1  0
  6 10  1  0
 18 12  1  0
 17 14  1  0
 14 22  1  0
 22 23  1  0
  2  1  1  0
  3  1  1  0
  3  4  1  0
  5  1  1  0
  6  2  1  0
  7  5  1  0
  8  5  2  0
  6  9  1  0
 10  8  1  0
  1 11  1  6
 12  2  1  0
 13  3  1  0
 37 30  2  0
 38 31  1  0
 39 34  1  0
 40 38  2  0
 41 36  1  0
 25 42  1  6
 43 36  2  0
 44 32  1  0
 27 30  1  0
 39 32  1  0
 29 33  1  0
 41 35  1  0
 40 37  1  0
 37 45  1  0
 45 46  1  0
 25 24  1  0
 26 24  1  0
 26 27  1  0
 28 24  1  0
 29 25  1  0
 30 28  1  0
 31 28  2  0
 29 32  1  0
 33 31  1  0
 24 34  1  6
 35 25  1  0
 36 26  1  0
 48 49  1  0
 49 56  2  0
 50 47  1  0
 51 48  2  0
 52 47  2  0
 53 50  1  0
 54 53  2  0
 55 50  2  0
 56 55  1  0
 57 47  1  0
 58 48  1  0
 49 54  1  0
  3 59  1  6
  6 60  1  1
 10 61  1  0
 10 62  1  0
 11 63  1  0
 11 64  1  0
 12 65  1  0
 12 66  1  0
 15 67  1  0
 16 68  1  0
 16 69  1  0
 17 70  1  0
 18 71  1  0
 18 72  1  0
 19 73  1  0
 21 74  1  0
 21 75  1  0
 21 76  1  0
 23 77  1  0
 23 78  1  0
 23 79  1  0
 26 80  1  6
 29 81  1  6
 33 82  1  0
 33 83  1  0
 34 84  1  0
 34 85  1  0
 35 86  1  0
 35 87  1  0
 38 88  1  0
 39 89  1  0
 39 90  1  0
 40 91  1  0
 41 92  1  0
 41 93  1  0
 42 94  1  0
 44 95  1  0
 44 96  1  0
 44 97  1  0
 46 98  1  0
 46 99  1  0
 46100  1  0
 53101  1  0
 54102  1  0
 55103  1  0
 56104  1  0
 57105  1  0
 58106  1  0
M  END
> <Uni-Dock RESULT> 
ENERGY=   -5.585  LOWER_BOUND=    3.181  UPPER_BOUND=    4.829
INTER + INTRA:          -5.585
INTER:                  -5.585
INTRA:                   0.000
UNBOUND:                 0.000

$$$$

     RDKit          3D

106114  0  0  0  0  0  0  0  0999 V2000
   44.7813   13.2140   10.2344 C   0  0  2  0  0  0  0  0  0  0  0  0
   45.6411   12.4863   11.2698 C   0  0  2  0  0  0  0  0  0  0  0  0
   43.3199   12.7738   10.0614 C   0  0  1  0  0  0  0  0  0  0  0  0
   42.9674   13.0171    8.6653 O   0  0  0  0  0  0  0  0  0  0  0  0
   45.2350   12.8347    8.8610 C   0  0  0  0  0  0  0  0  0  0  0  0
   47.1309   12.8883   10.9373 C   0  0  2  0  0  0  0  0  0  0  0  0
   44.1550   12.8053    7.9972 C   0  0  0  0  0  0  0  0  0  0  0  0
   46.5187   12.4950    8.4776 C   0  0  0  0  0  0  0  0  0  0  0  0
   47.3515   14.3596   10.9024 N   0  0  0  0  0  0  0  0  0  0  0  0
   47.5808   12.3503    9.5375 C   0  0  0  0  0  0  0  0  0  0  0  0
   44.9129   14.7518   10.4009 C   0  0  0  0  0  0  0  0  0  0  0  0
   45.3890   10.9703   11.2844 C   0  0  0  0  0  0  0  0  0  0  0  0
   43.0671   11.2934   10.4090 C   0  0  0  0  0  0  0  0  0  0  0  0
   44.3221   12.5387    6.6516 C   0  0  0  0  0  0  0  0  0  0  0  0
   46.7121   12.2057    7.1278 C   0  0  0  0  0  0  0  0  0  0  0  0
   46.1738   15.1850   11.1704 C   0  0  0  0  0  0  0  0  0  0  0  0
   45.6266   12.2485    6.2202 C   0  0  0  0  0  0  0  0  0  0  0  0
   43.9082   10.6776   11.5042 C   0  0  0  0  0  0  0  0  0  0  0  0
   45.2699   12.9327   12.5887 O   0  0  0  0  0  0  0  0  0  0  0  0
   42.1623   10.6343    9.8916 O   0  0  0  0  0  0  0  0  0  0  0  0
   48.4954   14.7746   11.7080 C   0  0  0  0  0  0  0  0  0  0  0  0
   43.2024   12.5670    5.8748 O   0  0  0  0  0  0  0  0  0  0  0  0
   43.3600   12.2343    4.5031 C   0  0  0  0  0  0  0  0  0  0  0  0
   44.8463   12.8782   10.3003 C   0  0  2  0  0  0  0  0  0  0  0  0
   46.0857   12.8804   11.1978 C   0  0  2  0  0  0  0  0  0  0  0  0
   43.8734   11.6991   10.4228 C   0  0  1  0  0  0  0  0  0  0  0  0
   43.2801   11.5051    9.0985 O   0  0  0  0  0  0  0  0  0  0  0  0
   45.2504   12.6338    8.8872 C   0  0  0  0  0  0  0  0  0  0  0  0
   47.0254   14.0073   10.6264 C   0  0  2  0  0  0  0  0  0  0  0  0
   44.2838   11.8925    8.2360 C   0  0  0  0  0  0  0  0  0  0  0  0
   46.4330   13.0364    8.2966 C   0  0  0  0  0  0  0  0  0  0  0  0
   46.4059   15.3637   10.6577 N   0  0  0  0  0  0  0  0  0  0  0  0
   47.4878   13.6912    9.1541 C   0  0  0  0  0  0  0  0  0  0  0  0
   44.1326   14.2475   10.4020 C   0  0  0  0  0  0  0  0  0  0  0  0
   46.7446   11.4934   11.2742 C   0  0  0  0  0  0  0  0  0  0  0  0
   44.5288   10.3779   10.8704 C   0  0  0  0  0  0  0  0  0  0  0  0
   44.4069   11.5892    6.8941 C   0  0  0  0  0  0  0  0  0  0  0  0
   46.5891   12.7292    6.9471 C   0  0  0  0  0  0  0  0  0  0  0  0
   45.0671   15.4173   10.0484 C   0  0  0  0  0  0  0  0  0  0  0  0
   45.5761   12.0277    6.2488 C   0  0  0  0  0  0  0  0  0  0  0  0
   45.7429   10.4543   11.7691 C   0  0  0  0  0  0  0  0  0  0  0  0
   45.6851   13.1730   12.5480 O   0  0  0  0  0  0  0  0  0  0  0  0
   44.0484    9.2754   10.5939 O   0  0  0  0  0  0  0  0  0  0  0  0
   46.4153   16.0001   11.9713 C   0  0  0  0  0  0  0  0  0  0  0  0
   43.3897   10.8805    6.3281 O   0  0  0  0  0  0  0  0  0  0  0  0
   43.5386   10.5126    4.9648 C   0  0  0  0  0  0  0  0  0  0  0  0
   43.7902   11.8497    7.4242 C   0  0  0  0  0  0  0  0  0  0  0  0
   47.0873   13.8892   11.7025 C   0  0  0  0  0  0  0  0  0  0  0  0
   46.2293   13.3496   10.6195 C   0  0  0  0  0  0  0  0  0  0  0  0
   44.6486   12.3887    8.5074 C   0  0  0  0  0  0  0  0  0  0  0  0
   47.9479   14.7397   11.5723 O   0  0  0  0  0  0  0  0  0  0  0  0
   42.9316   10.9972    7.5539 O   0  0  0  0  0  0  0  0  0  0  0  0
   44.4731   11.8889    9.8046 C   0  0  0  0  0  0  0  0  0  0  0  0
   45.2599   12.3671   10.8576 C   0  0  0  0  0  0  0  0  0  0  0  0
   45.6178   13.3714    8.2694 C   0  0  0  0  0  0  0  0  0  0  0  0
   46.4052   13.8491    9.3223 C   0  0  0  0  0  0  0  0  0  0  0  0
   44.0494   12.4060    6.2282 O   0  0  0  0  0  0  0  0  0  0  0  0
   46.8244   13.3380   12.9001 O   0  0  0  0  0  0  0  0  0  0  0  0
   42.6432   13.3585   10.6959 H   0  0  0  0  0  0  0  0  0  0  0  0
   47.7791   12.4430   11.7040 H   0  0  0  0  0  0  0  0  0  0  0  0
   47.8176   11.2832    9.6356 H   0  0  0  0  0  0  0  0  0  0  0  0
   48.5026   12.8481    9.2106 H   0  0  0  0  0  0  0  0  0  0  0  0
   44.0502   15.1416   10.9567 H   0  0  0  0  0  0  0  0  0  0  0  0
   44.9004   15.2593    9.4268 H   0  0  0  0  0  0  0  0  0  0  0  0
   45.7127   10.4884   10.3561 H   0  0  0  0  0  0  0  0  0  0  0  0
   45.9581   10.5083   12.1007 H   0  0  0  0  0  0  0  0  0  0  0  0
   47.6997   11.9347    6.7615 H   0  0  0  0  0  0  0  0  0  0  0  0
   45.9542   15.2081   12.2453 H   0  0  0  0  0  0  0  0  0  0  0  0
   46.3900   16.2257   10.8962 H   0  0  0  0  0  0  0  0  0  0  0  0
   45.8367   12.0228    5.1790 H   0  0  0  0  0  0  0  0  0  0  0  0
   43.7512    9.5931   11.4964 H   0  0  0  0  0  0  0  0  0  0  0  0
   43.5526   11.0565   12.4679 H   0  0  0  0  0  0  0  0  0  0  0  0
   46.0633   12.8844   13.1528 H   0  0  0  0  0  0  0  0  0  0  0  0
   48.3264   14.5974   12.7759 H   0  0  0  0  0  0  0  0  0  0  0  0
   48.7057   15.8399   11.5630 H   0  0  0  0  0  0  0  0  0  0  0  0
   49.3984   14.2328   11.4050 H   0  0  0  0  0  0  0  0  0  0  0  0
   42.3756   12.2898    4.0289 H   0  0  0  0  0  0  0  0  0  0  0  0
   43.7295   11.2105    4.3848 H   0  0  0  0  0  0  0  0  0  0  0  0
   44.0138   12.9514    3.9957 H   0  0  0  0  0  0  0  0  0  0  0  0
   43.0695   11.9140   11.1367 H   0  0  0  0  0  0  0  0  0  0  0  0
   47.9381   14.0560   11.2351 H   0  0  0  0  0  0  0  0  0  0  0  0
   48.3428   13.0049    9.2087 H   0  0  0  0  0  0  0  0  0  0  0  0
   47.8479   14.6051    8.6657 H   0  0  0  0  0  0  0  0  0  0  0  0
   43.7452   14.3880   11.4194 H   0  0  0  0  0  0  0  0  0  0  0  0
   43.2601   14.2900    9.7364 H   0  0  0  0  0  0  0  0  0  0  0  0
   47.1483   11.1726   10.3082 H   0  0  0  0  0  0  0  0  0  0  0  0
   47.5865   11.5221   11.9772 H   0  0  0  0  0  0  0  0  0  0  0  0
   47.4946   13.0194    6.4185 H   0  0  0  0  0  0  0  0  0  0  0  0
   44.5677   16.3637   10.2937 H   0  0  0  0  0  0  0  0  0  0  0  0
   45.1921   15.4593    8.9596 H   0  0  0  0  0  0  0  0  0  0  0  0
   45.7467   11.8215    5.1964 H   0  0  0  0  0  0  0  0  0  0  0  0
   46.2268    9.4709   11.7841 H   0  0  0  0  0  0  0  0  0  0  0  0
   45.4021   10.6683   12.7872 H   0  0  0  0  0  0  0  0  0  0  0  0
   46.4855   13.4148   13.0475 H   0  0  0  0  0  0  0  0  0  0  0  0
   47.4024   15.9249   12.4398 H   0  0  0  0  0  0  0  0  0  0  0  0
   45.6700   15.5924   12.6591 H   0  0  0  0  0  0  0  0  0  0  0  0
   46.2096   17.0714   11.8654 H   0  0  0  0  0  0  0  0  0  0  0  0
   43.5876   11.3965    4.3207 H   0  0  0  0  0  0  0  0  0  0  0  0
   42.6540    9.9383    4.6734 H   0  0  0  0  0  0  0  0  0  0  0  0
   44.4138    9.8706    4.8214 H   0  0  0  0  0  0  0  0  0  0  0  0
   43.7225   11.1248   10.0008 H   0  0  0  0  0  0  0  0  0  0  0  0
   45.1082   11.9663   11.8571 H   0  0  0  0  0  0  0  0  0  0  0  0
   45.7695   13.7715    7.2695 H   0  0  0  0  0  0  0  0  0  0  0  0
   47.1556   14.6133    9.1260 H   0  0  0  0  0  0  0  0  0  0  0  0
   43.4213   11.9622    5.6203 H   0  0  0  0  0  0  0  0  0  0  0  0
   47.4529   13.7821   13.5073 H   0  0  0  0  0  0  0  0  0  0  0  0
 14  7  2  0
 15  8  1  0
 16 11  1  0
 17 15  2  0
 18 13  1  0
  2 19  1  6
 20 13  2  0
 21  9  1  0
  4  7  1  0
 16  9  1  0
  6 10  1  0
 18 12  1  0
 17 14  1  0
 14 22  1  0
 22 23  1  0
  2  1  1  0
  3  1  1  0
  3  4  1  0
  5  1  1  0
  6  2  1  0
  7  5  1  0
  8  5  2  0
  6  9  1  0
 10  8  1  0
  1 11  1  6
 12  2  1  0
 13  3  1  0
 37 30  2  0
 38 31  1  0
 39 34  1  0
 40 38  2  0
 41 36  1  0
 25 42  1  6
 43 36  2  0
 44 32  1  0
 27 30  1  0
 39 32  1  0
 29 33  1  0
 41 35  1  0
 40 37  1  0
 37 45  1  0
 45 46  1  0
 25 24  1  0
 26 24  1  0
 26 27  1  0
 28 24  1  0
 29 25  1  0
 30 28  1  0
 31 28  2  0
 29 32  1  0
 33 31  1  0
 24 34  1  6
 35 25  1  0
 36 26  1  0
 48 49  1  0
 49 56  2  0
 50 47  1  0
 51 48  2  0
 52 47  2  0
 53 50  1  0
 54 53  2  0
 55 50  2  0
 56 55  1  0
 57 47  1  0
 58 48  1  0
 49 54  1  0
  3 59  1  6
  6 60  1  1
 10 61  1  0
 10 62  1  0
 11 63  1  0
 11 64  1  0
 12 65  1  0
 12 66  1  0
 15 67  1  0
 16 68  1  0
 16 69  1  0
 17 70  1  0
 18 71  1  0
 18 72  1  0
 19 73  1  0
 21 74  1  0
 21 75  1  0
 21 76  1  0
 23 77  1  0
 23 78  1  0
 23 79  1  0
 26 80  1  6
 29 81  1  6
 33 82  1  0
 33 83  1  0
 34 84  1  0
 34 85  1  0
 35 86  1  0
 35 87  1  0
 38 88  1  0
 39 89  1  0
 39 90  1  0
 40 91  1  0
 41 92  1  0
 41 93  1  0
 42 94  1  0
 44 95  1  0
 44 96  1  0
 44 97  1  0
 46 98  1  0
 46 99  1  0
 46100  1  0
 53101  1  0
 54102  1  0
 55103  1  0
 56104  1  0
 57105  1  0
 58106  1  0
M  END
> <Uni-Dock RESULT> 
ENERGY=   -5.536  LOWER_BOUND=   10.854  UPPER_BOUND=   14.022
INTER + INTRA:          -5.536
INTER:                  -5.536
INTRA:                   0.000
UNBOUND:                 0.000

$$$$

     RDKit          3D

106114  0  0  0  0  0  0  0  0999 V2000
   49.3040   11.1247   19.9117 C   0  0  2  0  0  0  0  0  0  0  0  0
   48.1280   11.7080   20.6976 C   0  0  2  0  0  0  0  0  0  0  0  0
   49.8628   11.9314   18.7300 C   0  0  1  0  0  0  0  0  0  0  0  0
   50.3739   10.9649   17.7620 O   0  0  0  0  0  0  0  0  0  0  0  0
   48.8301    9.9559   19.1083 C   0  0  0  0  0  0  0  0  0  0  0  0
   47.5594   10.5107   21.5549 C   0  0  2  0  0  0  0  0  0  0  0  0
   49.5311    9.8845   17.9180 C   0  0  0  0  0  0  0  0  0  0  0  0
   47.8067    9.0866   19.4358 C   0  0  0  0  0  0  0  0  0  0  0  0
   48.5869    9.8571   22.4104 N   0  0  0  0  0  0  0  0  0  0  0  0
   46.9648    9.3784   20.6518 C   0  0  0  0  0  0  0  0  0  0  0  0
   50.4232   10.6508   20.8774 C   0  0  0  0  0  0  0  0  0  0  0  0
   47.0861   12.3784   19.7882 C   0  0  0  0  0  0  0  0  0  0  0  0
   48.8245   12.8458   18.0500 C   0  0  0  0  0  0  0  0  0  0  0  0
   49.3192    8.8526   17.0236 C   0  0  0  0  0  0  0  0  0  0  0  0
   47.5611    8.0452   18.5425 C   0  0  0  0  0  0  0  0  0  0  0  0
   49.9370   10.4129   22.3184 C   0  0  0  0  0  0  0  0  0  0  0  0
   48.3256    7.9182   17.3579 C   0  0  0  0  0  0  0  0  0  0  0  0
   47.7437   13.4465   18.9203 C   0  0  0  0  0  0  0  0  0  0  0  0
   48.6084   12.7673   21.5483 O   0  0  0  0  0  0  0  0  0  0  0  0
   48.8964   13.1635   16.8606 O   0  0  0  0  0  0  0  0  0  0  0  0
   48.1552    9.7162   23.7972 C   0  0  0  0  0  0  0  0  0  0  0  0
   50.0834    8.8496   15.8950 O   0  0  0  0  0  0  0  0  0  0  0  0
   49.8271    7.8256   14.9448 C   0  0  0  0  0  0  0  0  0  0  0  0
   48.9947   11.2562   19.8201 C   0  0  2  0  0  0  0  0  0  0  0  0
   48.1724   11.2770   21.1104 C   0  0  2  0  0  0  0  0  0  0  0  0
   48.6507   12.2818   18.7330 C   0  0  1  0  0  0  0  0  0  0  0  0
   48.9589   11.6510   17.4483 O   0  0  0  0  0  0  0  0  0  0  0  0
   48.6605   10.0370   19.0316 C   0  0  0  0  0  0  0  0  0  0  0  0
   48.5290    9.9424   21.8663 C   0  0  2  0  0  0  0  0  0  0  0  0
   48.7153   10.3137   17.6794 C   0  0  0  0  0  0  0  0  0  0  0  0
   48.2992    8.8068   19.5469 C   0  0  0  0  0  0  0  0  0  0  0  0
   49.9742    9.8322   22.2181 N   0  0  0  0  0  0  0  0  0  0  0  0
   48.1071    8.6711   21.0374 C   0  0  0  0  0  0  0  0  0  0  0  0
   50.5024   11.2464   20.1686 C   0  0  0  0  0  0  0  0  0  0  0  0
   46.6710   11.4593   20.8343 C   0  0  0  0  0  0  0  0  0  0  0  0
   47.1756   12.7285   18.7245 C   0  0  0  0  0  0  0  0  0  0  0  0
   48.5010    9.3210   16.7431 C   0  0  0  0  0  0  0  0  0  0  0  0
   48.0623    7.7920   18.6230 C   0  0  0  0  0  0  0  0  0  0  0  0
   50.8798   10.0671   21.0818 C   0  0  0  0  0  0  0  0  0  0  0  0
   48.1803    8.0436   17.2342 C   0  0  0  0  0  0  0  0  0  0  0  0
   46.4271   12.7382   20.0386 C   0  0  0  0  0  0  0  0  0  0  0  0
   48.5472   12.4293   21.8857 O   0  0  0  0  0  0  0  0  0  0  0  0
   46.6208   13.1556   17.7083 O   0  0  0  0  0  0  0  0  0  0  0  0
   50.3722   10.6166   23.3830 C   0  0  0  0  0  0  0  0  0  0  0  0
   48.6060    9.6791   15.4323 O   0  0  0  0  0  0  0  0  0  0  0  0
   48.3266    8.6784   14.4645 C   0  0  0  0  0  0  0  0  0  0  0  0
   49.0435    9.9708   16.8553 C   0  0  0  0  0  0  0  0  0  0  0  0
   48.3180   10.7766   22.5262 C   0  0  0  0  0  0  0  0  0  0  0  0
   48.4976   10.5933   21.0652 C   0  0  0  0  0  0  0  0  0  0  0  0
   48.8632   10.1542   18.3163 C   0  0  0  0  0  0  0  0  0  0  0  0
   48.4722    9.9191   23.3757 O   0  0  0  0  0  0  0  0  0  0  0  0
   48.8866   10.8275   16.0055 O   0  0  0  0  0  0  0  0  0  0  0  0
   48.4799   11.4181   18.7845 C   0  0  0  0  0  0  0  0  0  0  0  0
   48.2977   11.6378   20.1538 C   0  0  0  0  0  0  0  0  0  0  0  0
   49.0634    9.1098   19.2277 C   0  0  0  0  0  0  0  0  0  0  0  0
   48.8804    9.3293   20.5970 C   0  0  0  0  0  0  0  0  0  0  0  0
   49.4128    8.7201   16.5287 O   0  0  0  0  0  0  0  0  0  0  0  0
   47.9549   12.0287   22.8541 O   0  0  0  0  0  0  0  0  0  0  0  0
   50.6898   12.5819   19.0390 H   0  0  0  0  0  0  0  0  0  0  0  0
   46.7553   10.9041   22.1913 H   0  0  0  0  0  0  0  0  0  0  0  0
   45.9718    9.6946   20.3077 H   0  0  0  0  0  0  0  0  0  0  0  0
   46.8184    8.4586   21.2320 H   0  0  0  0  0  0  0  0  0  0  0  0
   51.2161   11.4083   20.9291 H   0  0  0  0  0  0  0  0  0  0  0  0
   50.9034    9.7339   20.5095 H   0  0  0  0  0  0  0  0  0  0  0  0
   46.5777   11.6571   19.1403 H   0  0  0  0  0  0  0  0  0  0  0  0
   46.3135   12.8583   20.4018 H   0  0  0  0  0  0  0  0  0  0  0  0
   46.7714    7.3250   18.7442 H   0  0  0  0  0  0  0  0  0  0  0  0
   50.0093   11.3491   22.8862 H   0  0  0  0  0  0  0  0  0  0  0  0
   50.6455    9.7264   22.7998 H   0  0  0  0  0  0  0  0  0  0  0  0
   48.0969    7.0829   16.7028 H   0  0  0  0  0  0  0  0  0  0  0  0
   46.9855   13.8995   18.2716 H   0  0  0  0  0  0  0  0  0  0  0  0
   48.1879   14.2477   19.5198 H   0  0  0  0  0  0  0  0  0  0  0  0
   48.0436   12.7897   22.3424 H   0  0  0  0  0  0  0  0  0  0  0  0
   48.0391   10.6890   24.2878 H   0  0  0  0  0  0  0  0  0  0  0  0
   48.8771    9.1237   24.3698 H   0  0  0  0  0  0  0  0  0  0  0  0
   47.1989    9.1837   23.8521 H   0  0  0  0  0  0  0  0  0  0  0  0
   50.5076    7.9726   14.1008 H   0  0  0  0  0  0  0  0  0  0  0  0
   48.8032    7.8889   14.5621 H   0  0  0  0  0  0  0  0  0  0  0  0
   50.0306    6.8358   15.3667 H   0  0  0  0  0  0  0  0  0  0  0  0
   49.2580   13.1894   18.8303 H   0  0  0  0  0  0  0  0  0  0  0  0
   47.9644    9.9013   22.8073 H   0  0  0  0  0  0  0  0  0  0  0  0
   47.0397    8.4891   21.2181 H   0  0  0  0  0  0  0  0  0  0  0  0
   48.6437    7.7863   21.4014 H   0  0  0  0  0  0  0  0  0  0  0  0
   50.7740   12.1883   20.6624 H   0  0  0  0  0  0  0  0  0  0  0  0
   51.1185   11.1906   19.2613 H   0  0  0  0  0  0  0  0  0  0  0  0
   46.2435   10.6103   20.2908 H   0  0  0  0  0  0  0  0  0  0  0  0
   46.1269   11.5357   21.7840 H   0  0  0  0  0  0  0  0  0  0  0  0
   47.7772    6.7976   18.9598 H   0  0  0  0  0  0  0  0  0  0  0  0
   51.9126   10.1981   21.4304 H   0  0  0  0  0  0  0  0  0  0  0  0
   50.9176    9.1487   20.4835 H   0  0  0  0  0  0  0  0  0  0  0  0
   47.9920    7.2143   16.5591 H   0  0  0  0  0  0  0  0  0  0  0  0
   45.3552   12.8284   19.8277 H   0  0  0  0  0  0  0  0  0  0  0  0
   46.7282   13.6302   20.5973 H   0  0  0  0  0  0  0  0  0  0  0  0
   48.2115   12.2981   22.7905 H   0  0  0  0  0  0  0  0  0  0  0  0
   49.6750   10.4705   24.2148 H   0  0  0  0  0  0  0  0  0  0  0  0
   50.4550   11.6876   23.1803 H   0  0  0  0  0  0  0  0  0  0  0  0
   51.3501   10.2764   23.7422 H   0  0  0  0  0  0  0  0  0  0  0  0
   49.0414    7.8520   14.5339 H   0  0  0  0  0  0  0  0  0  0  0  0
   48.4361    9.1296   13.4738 H   0  0  0  0  0  0  0  0  0  0  0  0
   47.2965    8.3180   14.5537 H   0  0  0  0  0  0  0  0  0  0  0  0
   48.3217   12.2371   18.0847 H   0  0  0  0  0  0  0  0  0  0  0  0
   48.0000   12.6260   20.4970 H   0  0  0  0  0  0  0  0  0  0  0  0
   49.3605    8.1216   18.8838 H   0  0  0  0  0  0  0  0  0  0  0  0
   49.0389    8.5102   21.2968 H   0  0  0  0  0  0  0  0  0  0  0  0
   49.4920    8.7448   15.5519 H   0  0  0  0  0  0  0  0  0  0  0  0
   47.8757   12.0032   23.8309 H   0  0  0  0  0  0  0  0  0  0  0  0
 14  7  2  0
 15  8  1  0
 16 11  1  0
 17 15  2  0
 18 13  1  0
  2 19  1  6
 20 13  2  0
 21  9  1  0
  4  7  1  0
 16  9  1  0
  6 10  1  0
 18 12  1  0
 17 14  1  0
 14 22  1  0
 22 23  1  0
  2  1  1  0
  3  1  1  0
  3  4  1  0
  5  1  1  0
  6  2  1  0
  7  5  1  0
  8  5  2  0
  6  9  1  0
 10  8  1  0
  1 11  1  6
 12  2  1  0
 13  3  1  0
 37 30  2  0
 38 31  1  0
 39 34  1  0
 40 38  2  0
 41 36  1  0
 25 42  1  6
 43 36  2  0
 44 32  1  0
 27 30  1  0
 39 32  1  0
 29 33  1  0
 41 35  1  0
 40 37  1  0
 37 45  1  0
 45 46  1  0
 25 24  1  0
 26 24  1  0
 26 27  1  0
 28 24  1  0
 29 25  1  0
 30 28  1  0
 31 28  2  0
 29 32  1  0
 33 31  1  0
 24 34  1  6
 35 25  1  0
 36 26  1  0
 48 49  1  0
 49 56  2  0
 50 47  1  0
 51 48  2  0
 52 47  2  0
 53 50  1  0
 54 53  2  0
 55 50  2  0
 56 55  1  0
 57 47  1  0
 58 48  1  0
 49 54  1  0
  3 59  1  6
  6 60  1  1
 10 61  1  0
 10 62  1  0
 11 63  1  0
 11 64  1  0
 12 65  1  0
 12 66  1  0
 15 67  1  0
 16 68  1  0
 16 69  1  0
 17 70  1  0
 18 71  1  0
 18 72  1  0
 19 73  1  0
 21 74  1  0
 21 75  1  0
 21 76  1  0
 23 77  1  0
 23 78  1  0
 23 79  1  0
 26 80  1  6
 29 81  1  6
 33 82  1  0
 33 83  1  0
 34 84  1  0
 34 85  1  0
 35 86  1  0
 35 87  1  0
 38 88  1  0
 39 89  1  0
 39 90  1  0
 40 91  1  0
 41 92  1  0
 41 93  1  0
 42 94  1  0
 44 95  1  0
 44 96  1  0
 44 97  1  0
 46 98  1  0
 46 99  1  0
 46100  1  0
 53101  1  0
 54102  1  0
 55103  1  0
 56104  1  0
 57105  1  0
 58106  1  0
M  END
> <Uni-Dock RESULT> 
ENERGY=   -5.440  LOWER_BOUND=    5.086  UPPER_BOUND=    7.161
INTER + INTRA:          -5.440
INTER:                  -5.440
INTRA:                   0.000
UNBOUND:                 0.000

$$$$
