
     RDKit          3D

106114  0  0  0  0  0  0  0  0999 V2000
   50.4368    5.1254   18.2699 C   0  0  2  0  0  0  0  0  0  0  0  0
   48.9586    4.7756   18.0589 C   0  0  2  0  0  0  0  0  0  0  0  0
   51.4911    4.1522   17.7274 C   0  0  1  0  0  0  0  0  0  0  0  0
   52.6455    4.2443   18.6215 O   0  0  0  0  0  0  0  0  0  0  0  0
   50.7847    4.9899   19.7111 C   0  0  0  0  0  0  0  0  0  0  0  0
   48.1395    5.7364   18.9913 C   0  0  2  0  0  0  0  0  0  0  0  0
   52.0842    4.5387   19.8458 C   0  0  0  0  0  0  0  0  0  0  0  0
   49.9457    5.2347   20.7790 C   0  0  0  0  0  0  0  0  0  0  0  0
   48.3290    7.1112   18.4256 N   0  0  0  0  0  0  0  0  0  0  0  0
   48.4983    5.5544   20.5091 C   0  0  0  0  0  0  0  0  0  0  0  0
   50.7034    6.5857   17.8319 C   0  0  0  0  0  0  0  0  0  0  0  0
   48.6688    3.2868   18.2735 C   0  0  0  0  0  0  0  0  0  0  0  0
   51.0160    2.6885   17.6561 C   0  0  0  0  0  0  0  0  0  0  0  0
   52.6625    4.4001   21.0922 C   0  0  0  0  0  0  0  0  0  0  0  0
   50.4988    5.0825   22.0487 C   0  0  0  0  0  0  0  0  0  0  0  0
   49.7247    7.5768   18.4865 C   0  0  0  0  0  0  0  0  0  0  0  0
   51.8506    4.6886   22.2020 C   0  0  0  0  0  0  0  0  0  0  0  0
   49.5540    2.4379   17.3680 C   0  0  0  0  0  0  0  0  0  0  0  0
   48.5962    5.0527   16.6902 O   0  0  0  0  0  0  0  0  0  0  0  0
   51.7940    1.7354   17.7443 O   0  0  0  0  0  0  0  0  0  0  0  0
   47.4282    8.0961   19.0238 C   0  0  0  0  0  0  0  0  0  0  0  0
   53.9608    3.9874   21.1279 O   0  0  0  0  0  0  0  0  0  0  0  0
   54.5400    3.7807   22.4081 C   0  0  0  0  0  0  0  0  0  0  0  0
   49.5936    5.4660   20.1206 C   0  0  2  0  0  0  0  0  0  0  0  0
   48.8583    6.3649   19.1190 C   0  0  2  0  0  0  0  0  0  0  0  0
   50.2124    6.1260   21.3595 C   0  0  1  0  0  0  0  0  0  0  0  0
   51.3911    5.3341   21.7102 O   0  0  0  0  0  0  0  0  0  0  0  0
   50.8651    4.9764   19.5196 C   0  0  0  0  0  0  0  0  0  0  0  0
   48.6493    5.5025   17.8244 C   0  0  2  0  0  0  0  0  0  0  0  0
   51.8379    4.8613   20.4944 C   0  0  0  0  0  0  0  0  0  0  0  0
   51.0840    4.7005   18.1853 C   0  0  0  0  0  0  0  0  0  0  0  0
   47.6817    4.4235   18.2070 N   0  0  0  0  0  0  0  0  0  0  0  0
   50.0036    5.0276   17.1883 C   0  0  0  0  0  0  0  0  0  0  0  0
   48.7129    4.2452   20.4811 C   0  0  0  0  0  0  0  0  0  0  0  0
   49.5765    7.6978   18.8823 C   0  0  0  0  0  0  0  0  0  0  0  0
   50.6299    7.5937   21.1453 C   0  0  0  0  0  0  0  0  0  0  0  0
   53.0871    4.3539   20.1946 C   0  0  0  0  0  0  0  0  0  0  0  0
   52.3429    4.2042   17.8530 C   0  0  0  0  0  0  0  0  0  0  0  0
   48.2082    3.5040   19.2302 C   0  0  0  0  0  0  0  0  0  0  0  0
   53.3274    4.0138   18.8528 C   0  0  0  0  0  0  0  0  0  0  0  0
   49.7918    8.4285   20.2037 C   0  0  0  0  0  0  0  0  0  0  0  0
   47.5598    6.7068   19.6490 O   0  0  0  0  0  0  0  0  0  0  0  0
   51.5608    8.1167   21.7612 O   0  0  0  0  0  0  0  0  0  0  0  0
   47.1819    3.6805   17.0503 C   0  0  0  0  0  0  0  0  0  0  0  0
   53.9699    4.2399   21.2262 O   0  0  0  0  0  0  0  0  0  0  0  0
   55.2757    3.7800   20.9127 C   0  0  0  0  0  0  0  0  0  0  0  0
   52.9812    5.0188   20.3755 C   0  0  0  0  0  0  0  0  0  0  0  0
   47.6004    5.6592   18.3813 C   0  0  0  0  0  0  0  0  0  0  0  0
   48.9891    5.4561   18.8615 C   0  0  0  0  0  0  0  0  0  0  0  0
   51.6048    5.1443   19.8344 C   0  0  0  0  0  0  0  0  0  0  0  0
   46.8460    6.5436   18.7408 O   0  0  0  0  0  0  0  0  0  0  0  0
   53.4961    5.7583   21.1931 O   0  0  0  0  0  0  0  0  0  0  0  0
   51.0951    4.2472   18.8866 C   0  0  0  0  0  0  0  0  0  0  0  0
   49.7912    4.4034   18.4021 C   0  0  0  0  0  0  0  0  0  0  0  0
   50.8031    6.1973   20.2938 C   0  0  0  0  0  0  0  0  0  0  0  0
   49.5003    6.3519   19.8095 C   0  0  0  0  0  0  0  0  0  0  0  0
   53.6489    3.9688   19.8656 O   0  0  0  0  0  0  0  0  0  0  0  0
   47.2235    4.7434   17.4717 O   0  0  0  0  0  0  0  0  0  0  0  0
   51.8123    4.4319   16.7170 H   0  0  0  0  0  0  0  0  0  0  0  0
   47.0745    5.4981   18.8638 H   0  0  0  0  0  0  0  0  0  0  0  0
   47.9045    4.7131   20.8904 H   0  0  0  0  0  0  0  0  0  0  0  0
   48.2018    6.4321   21.0919 H   0  0  0  0  0  0  0  0  0  0  0  0
   50.6134    6.6614   16.7405 H   0  0  0  0  0  0  0  0  0  0  0  0
   51.7273    6.8991   18.0717 H   0  0  0  0  0  0  0  0  0  0  0  0
   47.6208    3.0762   18.0295 H   0  0  0  0  0  0  0  0  0  0  0  0
   48.8229    2.9900   19.3160 H   0  0  0  0  0  0  0  0  0  0  0  0
   49.8948    5.2558   22.9366 H   0  0  0  0  0  0  0  0  0  0  0  0
   49.8120    8.5330   17.9555 H   0  0  0  0  0  0  0  0  0  0  0  0
   50.0273    7.7726   19.5222 H   0  0  0  0  0  0  0  0  0  0  0  0
   52.2319    4.5954   23.2147 H   0  0  0  0  0  0  0  0  0  0  0  0
   49.3722    2.6395   16.3076 H   0  0  0  0  0  0  0  0  0  0  0  0
   49.3396    1.3782   17.5448 H   0  0  0  0  0  0  0  0  0  0  0  0
   48.3205    5.9959   16.6875 H   0  0  0  0  0  0  0  0  0  0  0  0
   46.3877    7.7567   18.9674 H   0  0  0  0  0  0  0  0  0  0  0  0
   47.6689    8.3123   20.0698 H   0  0  0  0  0  0  0  0  0  0  0  0
   47.4785    9.0387   18.4664 H   0  0  0  0  0  0  0  0  0  0  0  0
   55.5705    3.4433   22.2603 H   0  0  0  0  0  0  0  0  0  0  0  0
   54.5763    4.7133   22.9811 H   0  0  0  0  0  0  0  0  0  0  0  0
   54.0090    2.9982   22.9607 H   0  0  0  0  0  0  0  0  0  0  0  0
   49.5212    6.1142   22.2099 H   0  0  0  0  0  0  0  0  0  0  0  0
   48.1299    6.1288   17.0860 H   0  0  0  0  0  0  0  0  0  0  0  0
   50.3780    5.8484   16.5626 H   0  0  0  0  0  0  0  0  0  0  0  0
   49.8487    4.1740   16.5204 H   0  0  0  0  0  0  0  0  0  0  0  0
   49.2536    3.5309   21.1150 H   0  0  0  0  0  0  0  0  0  0  0  0
   47.8501    4.5798   21.0719 H   0  0  0  0  0  0  0  0  0  0  0  0
   50.5421    7.5553   18.3856 H   0  0  0  0  0  0  0  0  0  0  0  0
   48.9699    8.3362   18.2278 H   0  0  0  0  0  0  0  0  0  0  0  0
   52.5866    3.9685   16.8196 H   0  0  0  0  0  0  0  0  0  0  0  0
   47.4125    2.8174   19.5478 H   0  0  0  0  0  0  0  0  0  0  0  0
   49.0086    2.8757   18.8195 H   0  0  0  0  0  0  0  0  0  0  0  0
   54.2876    3.6156   18.5392 H   0  0  0  0  0  0  0  0  0  0  0  0
   50.3148    9.3723   20.0132 H   0  0  0  0  0  0  0  0  0  0  0  0
   48.8469    8.6685   20.7007 H   0  0  0  0  0  0  0  0  0  0  0  0
   46.9679    5.9794   19.3547 H   0  0  0  0  0  0  0  0  0  0  0  0
   46.7831    4.3629   16.2918 H   0  0  0  0  0  0  0  0  0  0  0  0
   46.3524    3.0298   17.3499 H   0  0  0  0  0  0  0  0  0  0  0  0
   47.9489    3.0530   16.5853 H   0  0  0  0  0  0  0  0  0  0  0  0
   55.8582    3.7678   21.8387 H   0  0  0  0  0  0  0  0  0  0  0  0
   55.2507    2.7573   20.5231 H   0  0  0  0  0  0  0  0  0  0  0  0
   55.7764    4.4564   20.2127 H   0  0  0  0  0  0  0  0  0  0  0  0
   51.7031    3.4234   18.5183 H   0  0  0  0  0  0  0  0  0  0  0  0
   49.4139    3.6962   17.6677 H   0  0  0  0  0  0  0  0  0  0  0  0
   51.1879    6.8999   21.0316 H   0  0  0  0  0  0  0  0  0  0  0  0
   48.8883    7.1743   20.1755 H   0  0  0  0  0  0  0  0  0  0  0  0
   54.5243    4.0091   20.3063 H   0  0  0  0  0  0  0  0  0  0  0  0
   46.3029    4.9989   17.2506 H   0  0  0  0  0  0  0  0  0  0  0  0
 14  7  2  0
 15  8  1  0
 16 11  1  0
 17 15  2  0
 18 13  1  0
  2 19  1  1
 20 13  2  0
 21  9  1  0
  4  7  1  0
 16  9  1  0
  6 10  1  0
 18 12  1  0
 17 14  1  0
 14 22  1  0
 22 23  1  0
  2  1  1  0
  3  1  1  0
  3  4  1  0
  5  1  1  0
  6  2  1  0
  7  5  1  0
  8  5  2  0
  6  9  1  0
 10  8  1  0
  1 11  1  1
 12  2  1  0
 13  3  1  0
 37 30  2  0
 38 31  1  0
 39 34  1  0
 40 38  2  0
 41 36  1  0
 25 42  1  6
 43 36  2  0
 44 32  1  0
 27 30  1  0
 39 32  1  0
 29 33  1  0
 41 35  1  0
 40 37  1  0
 37 45  1  0
 45 46  1  0
 25 24  1  0
 26 24  1  0
 26 27  1  0
 28 24  1  0
 29 25  1  0
 30 28  1  0
 31 28  2  0
 29 32  1  0
 33 31  1  0
 24 34  1  6
 35 25  1  0
 36 26  1  0
 48 49  1  0
 49 56  2  0
 50 47  1  0
 51 48  2  0
 52 47  2  0
 53 50  1  0
 54 53  2  0
 55 50  2  0
 56 55  1  0
 57 47  1  0
 58 48  1  0
 49 54  1  0
  3 59  1  1
  6 60  1  6
 10 61  1  0
 10 62  1  0
 11 63  1  0
 11 64  1  0
 12 65  1  0
 12 66  1  0
 15 67  1  0
 16 68  1  0
 16 69  1  0
 17 70  1  0
 18 71  1  0
 18 72  1  0
 19 73  1  0
 21 74  1  0
 21 75  1  0
 21 76  1  0
 23 77  1  0
 23 78  1  0
 23 79  1  0
 26 80  1  6
 29 81  1  1
 33 82  1  0
 33 83  1  0
 34 84  1  0
 34 85  1  0
 35 86  1  0
 35 87  1  0
 38 88  1  0
 39 89  1  0
 39 90  1  0
 40 91  1  0
 41 92  1  0
 41 93  1  0
 42 94  1  0
 44 95  1  0
 44 96  1  0
 44 97  1  0
 46 98  1  0
 46 99  1  0
 46100  1  0
 53101  1  0
 54102  1  0
 55103  1  0
 56104  1  0
 57105  1  0
 58106  1  0
M  END
> <Uni-Dock RESULT> 
ENERGY=   -6.967  LOWER_BOUND=    0.000  UPPER_BOUND=    0.000
INTER + INTRA:          -6.967
INTER:                  -6.967
INTRA:                   0.000
UNBOUND:                 0.000

$$$$

     RDKit          3D

106114  0  0  0  0  0  0  0  0999 V2000
   49.5713    5.1942   20.0769 C   0  0  2  0  0  0  0  0  0  0  0  0
   48.6921    6.2019   19.3261 C   0  0  2  0  0  0  0  0  0  0  0  0
   50.0840    5.5837   21.4691 C   0  0  1  0  0  0  0  0  0  0  0  0
   51.3807    4.9271   21.6367 O   0  0  0  0  0  0  0  0  0  0  0  0
   50.8997    5.0929   19.4125 C   0  0  0  0  0  0  0  0  0  0  0  0
   48.6106    5.6977   17.8420 C   0  0  2  0  0  0  0  0  0  0  0  0
   51.8875    4.8794   20.3554 C   0  0  0  0  0  0  0  0  0  0  0  0
   51.1479    5.2250   18.0616 C   0  0  0  0  0  0  0  0  0  0  0  0
   47.8325    4.4176   17.8896 N   0  0  0  0  0  0  0  0  0  0  0  0
   50.0184    5.6293   17.1500 C   0  0  0  0  0  0  0  0  0  0  0  0
   48.9045    3.7975   20.0651 C   0  0  0  0  0  0  0  0  0  0  0  0
   49.1869    7.6437   19.4781 C   0  0  0  0  0  0  0  0  0  0  0  0
   50.2500    7.1014   21.6745 C   0  0  0  0  0  0  0  0  0  0  0  0
   53.2006    4.6812   19.9764 C   0  0  0  0  0  0  0  0  0  0  0  0
   52.4688    5.0497   17.6545 C   0  0  0  0  0  0  0  0  0  0  0  0
   48.5131    3.3523   18.6448 C   0  0  0  0  0  0  0  0  0  0  0  0
   53.4811    4.7603   18.6020 C   0  0  0  0  0  0  0  0  0  0  0  0
   49.2888    8.0171   20.9527 C   0  0  0  0  0  0  0  0  0  0  0  0
   47.3629    6.1818   19.8865 O   0  0  0  0  0  0  0  0  0  0  0  0
   51.0750    7.5767   22.4587 O   0  0  0  0  0  0  0  0  0  0  0  0
   47.4447    3.9439   16.5613 C   0  0  0  0  0  0  0  0  0  0  0  0
   54.1002    4.4382   20.9708 O   0  0  0  0  0  0  0  0  0  0  0  0
   55.4619    4.2984   20.5925 C   0  0  0  0  0  0  0  0  0  0  0  0
   50.3752    5.2118   18.1781 C   0  0  2  0  0  0  0  0  0  0  0  0
   48.9039    4.8016   18.0399 C   0  0  2  0  0  0  0  0  0  0  0  0
   51.4389    4.2896   17.5688 C   0  0  1  0  0  0  0  0  0  0  0  0
   52.6349    4.4246   18.4000 O   0  0  0  0  0  0  0  0  0  0  0  0
   50.8053    5.0751   19.5972 C   0  0  0  0  0  0  0  0  0  0  0  0
   48.0977    5.7137   19.0307 C   0  0  2  0  0  0  0  0  0  0  0  0
   52.1292    4.6831   19.6566 C   0  0  0  0  0  0  0  0  0  0  0  0
   50.0157    5.2708   20.7119 C   0  0  0  0  0  0  0  0  0  0  0  0
   48.1985    7.1030   18.4773 N   0  0  0  0  0  0  0  0  0  0  0  0
   48.5434    5.5267   20.5242 C   0  0  0  0  0  0  0  0  0  0  0  0
   50.5559    6.6868   17.7449 C   0  0  0  0  0  0  0  0  0  0  0  0
   48.6871    3.2985   18.2447 C   0  0  0  0  0  0  0  0  0  0  0  0
   51.0239    2.8068   17.5102 C   0  0  0  0  0  0  0  0  0  0  0  0
   52.7798    4.5603   20.8688 C   0  0  0  0  0  0  0  0  0  0  0  0
   50.6436    5.1350   21.9484 C   0  0  0  0  0  0  0  0  0  0  0  0
   49.5747    7.6280   18.4663 C   0  0  0  0  0  0  0  0  0  0  0  0
   52.0180    4.8030   22.0241 C   0  0  0  0  0  0  0  0  0  0  0  0
   49.5611    2.4988   17.2838 C   0  0  0  0  0  0  0  0  0  0  0  0
   48.4542    5.0843   16.6976 O   0  0  0  0  0  0  0  0  0  0  0  0
   51.8405    1.8851   17.5667 O   0  0  0  0  0  0  0  0  0  0  0  0
   47.2918    8.0397   19.1407 C   0  0  0  0  0  0  0  0  0  0  0  0
   54.0952    4.2070   20.8294 O   0  0  0  0  0  0  0  0  0  0  0  0
   54.7516    4.0163   22.0735 C   0  0  0  0  0  0  0  0  0  0  0  0
   52.6342    4.0150   20.4595 C   0  0  0  0  0  0  0  0  0  0  0  0
   47.8714    6.0422   17.9012 C   0  0  0  0  0  0  0  0  0  0  0  0
   49.0872    5.5538   18.5966 C   0  0  0  0  0  0  0  0  0  0  0  0
   51.4053    4.5687   19.8380 C   0  0  0  0  0  0  0  0  0  0  0  0
   47.4201    5.5986   16.8620 O   0  0  0  0  0  0  0  0  0  0  0  0
   53.2951    3.0882   20.0299 O   0  0  0  0  0  0  0  0  0  0  0  0
   50.7019    5.6376   20.4085 C   0  0  0  0  0  0  0  0  0  0  0  0
   49.5465    6.1280   19.7890 C   0  0  0  0  0  0  0  0  0  0  0  0
   50.9463    3.9940   18.6457 C   0  0  0  0  0  0  0  0  0  0  0  0
   49.7922    4.4854   18.0274 C   0  0  0  0  0  0  0  0  0  0  0  0
   52.9784    4.6515   21.5930 O   0  0  0  0  0  0  0  0  0  0  0  0
   47.2781    7.0642   18.5430 O   0  0  0  0  0  0  0  0  0  0  0  0
   49.4109    5.2277   22.2581 H   0  0  0  0  0  0  0  0  0  0  0  0
   47.9911    6.4105   17.2804 H   0  0  0  0  0  0  0  0  0  0  0  0
   50.2505    6.6342   16.7733 H   0  0  0  0  0  0  0  0  0  0  0  0
   49.9969    4.9687   16.2776 H   0  0  0  0  0  0  0  0  0  0  0  0
   48.0057    3.8169   20.6949 H   0  0  0  0  0  0  0  0  0  0  0  0
   49.5604    3.0329   20.5003 H   0  0  0  0  0  0  0  0  0  0  0  0
   48.4800    8.3289   18.9954 H   0  0  0  0  0  0  0  0  0  0  0  0
   50.1590    7.7915   18.9966 H   0  0  0  0  0  0  0  0  0  0  0  0
   52.7383    5.1425   16.6047 H   0  0  0  0  0  0  0  0  0  0  0  0
   47.8431    2.4884   18.7379 H   0  0  0  0  0  0  0  0  0  0  0  0
   49.3997    2.9959   18.1066 H   0  0  0  0  0  0  0  0  0  0  0  0
   54.4915    4.6235   18.2274 H   0  0  0  0  0  0  0  0  0  0  0  0
   48.3193    7.9669   21.4584 H   0  0  0  0  0  0  0  0  0  0  0  0
   49.6544    9.0461   21.0396 H   0  0  0  0  0  0  0  0  0  0  0  0
   46.8900    5.4774   19.3907 H   0  0  0  0  0  0  0  0  0  0  0  0
   46.9265    4.7317   16.0030 H   0  0  0  0  0  0  0  0  0  0  0  0
   48.2972    3.5980   15.9676 H   0  0  0  0  0  0  0  0  0  0  0  0
   46.7384    3.1103   16.6511 H   0  0  0  0  0  0  0  0  0  0  0  0
   56.0466    4.1214   21.5006 H   0  0  0  0  0  0  0  0  0  0  0  0
   55.6031    3.4344   19.9347 H   0  0  0  0  0  0  0  0  0  0  0  0
   55.8391    5.2151   20.1267 H   0  0  0  0  0  0  0  0  0  0  0  0
   51.6926    4.5882   16.5453 H   0  0  0  0  0  0  0  0  0  0  0  0
   47.0380    5.4329   18.9561 H   0  0  0  0  0  0  0  0  0  0  0  0
   48.0098    4.6523   20.9191 H   0  0  0  0  0  0  0  0  0  0  0  0
   48.2373    6.3803   21.1378 H   0  0  0  0  0  0  0  0  0  0  0  0
   51.5782    7.0396   17.9313 H   0  0  0  0  0  0  0  0  0  0  0  0
   50.4011    6.7700   16.6611 H   0  0  0  0  0  0  0  0  0  0  0  0
   48.9069    2.9937   19.2734 H   0  0  0  0  0  0  0  0  0  0  0  0
   47.6374    3.0443   18.0519 H   0  0  0  0  0  0  0  0  0  0  0  0
   50.0812    5.2714   22.8693 H   0  0  0  0  0  0  0  0  0  0  0  0
   49.5928    8.5931   17.9431 H   0  0  0  0  0  0  0  0  0  0  0  0
   49.9280    7.8260   19.4861 H   0  0  0  0  0  0  0  0  0  0  0  0
   52.4581    4.7192   23.0131 H   0  0  0  0  0  0  0  0  0  0  0  0
   49.3985    1.4286   17.4538 H   0  0  0  0  0  0  0  0  0  0  0  0
   49.3207    2.7078   16.2369 H   0  0  0  0  0  0  0  0  0  0  0  0
   48.1401    6.0152   16.7277 H   0  0  0  0  0  0  0  0  0  0  0  0
   46.2665    7.6539   19.1428 H   0  0  0  0  0  0  0  0  0  0  0  0
   47.2653    8.9896   18.5947 H   0  0  0  0  0  0  0  0  0  0  0  0
   47.5849    8.2548   20.1732 H   0  0  0  0  0  0  0  0  0  0  0  0
   55.7833    3.7176   21.8659 H   0  0  0  0  0  0  0  0  0  0  0  0
   54.7852    4.9473   22.6484 H   0  0  0  0  0  0  0  0  0  0  0  0
   54.2816    3.2134   22.6504 H   0  0  0  0  0  0  0  0  0  0  0  0
   51.0434    6.0965   21.3341 H   0  0  0  0  0  0  0  0  0  0  0  0
   49.0154    6.9587   20.2470 H   0  0  0  0  0  0  0  0  0  0  0  0
   51.4857    3.1638   18.1921 H   0  0  0  0  0  0  0  0  0  0  0  0
   49.4471    4.0297   17.1010 H   0  0  0  0  0  0  0  0  0  0  0  0
   53.7926    4.1893   21.8853 H   0  0  0  0  0  0  0  0  0  0  0  0
   46.5051    7.2773   17.9786 H   0  0  0  0  0  0  0  0  0  0  0  0
 14  7  2  0
 15  8  1  0
 16 11  1  0
 17 15  2  0
 18 13  1  0
  2 19  1  1
 20 13  2  0
 21  9  1  0
  4  7  1  0
 16  9  1  0
  6 10  1  0
 18 12  1  0
 17 14  1  0
 14 22  1  0
 22 23  1  0
  2  1  1  0
  3  1  1  0
  3  4  1  0
  5  1  1  0
  6  2  1  0
  7  5  1  0
  8  5  2  0
  6  9  1  0
 10  8  1  0
  1 11  1  1
 12  2  1  0
 13  3  1  0
 37 30  2  0
 38 31  1  0
 39 34  1  0
 40 38  2  0
 41 36  1  0
 25 42  1  6
 43 36  2  0
 44 32  1  0
 27 30  1  0
 39 32  1  0
 29 33  1  0
 41 35  1  0
 40 37  1  0
 37 45  1  0
 45 46  1  0
 25 24  1  0
 26 24  1  0
 26 27  1  0
 28 24  1  0
 29 25  1  0
 30 28  1  0
 31 28  2  0
 29 32  1  0
 33 31  1  0
 24 34  1  6
 35 25  1  0
 36 26  1  0
 48 49  1  0
 49 56  2  0
 50 47  1  0
 51 48  2  0
 52 47  2  0
 53 50  1  0
 54 53  2  0
 55 50  2  0
 56 55  1  0
 57 47  1  0
 58 48  1  0
 49 54  1  0
  3 59  1  1
  6 60  1  6
 10 61  1  0
 10 62  1  0
 11 63  1  0
 11 64  1  0
 12 65  1  0
 12 66  1  0
 15 67  1  0
 16 68  1  0
 16 69  1  0
 17 70  1  0
 18 71  1  0
 18 72  1  0
 19 73  1  0
 21 74  1  0
 21 75  1  0
 21 76  1  0
 23 77  1  0
 23 78  1  0
 23 79  1  0
 26 80  1  6
 29 81  1  1
 33 82  1  0
 33 83  1  0
 34 84  1  0
 34 85  1  0
 35 86  1  0
 35 87  1  0
 38 88  1  0
 39 89  1  0
 39 90  1  0
 40 91  1  0
 41 92  1  0
 41 93  1  0
 42 94  1  0
 44 95  1  0
 44 96  1  0
 44 97  1  0
 46 98  1  0
 46 99  1  0
 46100  1  0
 53101  1  0
 54102  1  0
 55103  1  0
 56104  1  0
 57105  1  0
 58106  1  0
M  END
> <Uni-Dock RESULT> 
ENERGY=   -6.314  LOWER_BOUND=    0.513  UPPER_BOUND=    3.547
INTER + INTRA:          -6.314
INTER:                  -6.314
INTRA:                   0.000
UNBOUND:                 0.000

$$$$

     RDKit          3D

106114  0  0  0  0  0  0  0  0999 V2000
   47.8650   12.1001   19.5542 C   0  0  2  0  0  0  0  0  0  0  0  0
   48.7336   13.2233   20.1341 C   0  0  2  0  0  0  0  0  0  0  0  0
   47.1618   11.1544   20.5360 C   0  0  1  0  0  0  0  0  0  0  0  0
   47.0674    9.8547   19.8709 O   0  0  0  0  0  0  0  0  0  0  0  0
   48.7316   11.0794   18.9033 C   0  0  0  0  0  0  0  0  0  0  0  0
   49.5770   13.7917   18.9388 C   0  0  2  0  0  0  0  0  0  0  0  0
   48.1880    9.8194   19.0685 C   0  0  0  0  0  0  0  0  0  0  0  0
   49.9261   11.3178   18.2549 C   0  0  0  0  0  0  0  0  0  0  0  0
   48.5915   14.4546   18.0247 N   0  0  0  0  0  0  0  0  0  0  0  0
   50.5076   12.7074   18.2878 C   0  0  0  0  0  0  0  0  0  0  0  0
   46.8951   12.6744   18.4937 C   0  0  0  0  0  0  0  0  0  0  0  0
   49.5671   12.7636   21.3344 C   0  0  0  0  0  0  0  0  0  0  0  0
   47.8949   10.9878   21.8807 C   0  0  0  0  0  0  0  0  0  0  0  0
   48.7754    8.7110   18.4912 C   0  0  0  0  0  0  0  0  0  0  0  0
   50.5503   10.2126   17.6805 C   0  0  0  0  0  0  0  0  0  0  0  0
   47.6265   13.5139   17.4311 C   0  0  0  0  0  0  0  0  0  0  0  0
   49.9687    8.9250   17.7811 C   0  0  0  0  0  0  0  0  0  0  0  0
   48.6648   12.1741   22.4126 C   0  0  0  0  0  0  0  0  0  0  0  0
   47.8799   14.2757   20.6290 O   0  0  0  0  0  0  0  0  0  0  0  0
   47.8056    9.9623   22.5603 O   0  0  0  0  0  0  0  0  0  0  0  0
   49.2370   15.2577   16.9867 C   0  0  0  0  0  0  0  0  0  0  0  0
   48.1485    7.5148   18.6735 O   0  0  0  0  0  0  0  0  0  0  0  0
   48.7827    6.3626   18.1374 C   0  0  0  0  0  0  0  0  0  0  0  0
   49.5909   12.0018   18.4300 C   0  0  2  0  0  0  0  0  0  0  0  0
   49.0177   13.4131   18.2518 C   0  0  2  0  0  0  0  0  0  0  0  0
   49.8785   11.1780   17.1683 C   0  0  1  0  0  0  0  0  0  0  0  0
   49.6785    9.7751   17.5305 O   0  0  0  0  0  0  0  0  0  0  0  0
   48.5498   11.1036   19.0019 C   0  0  0  0  0  0  0  0  0  0  0  0
   48.5086   13.8634   19.6666 C   0  0  2  0  0  0  0  0  0  0  0  0
   48.6941    9.8261   18.4948 C   0  0  0  0  0  0  0  0  0  0  0  0
   47.5531   11.4673   19.8842 C   0  0  0  0  0  0  0  0  0  0  0  0
   49.7375   14.0145   20.5114 N   0  0  0  0  0  0  0  0  0  0  0  0
   47.3869   12.9229   20.2337 C   0  0  0  0  0  0  0  0  0  0  0  0
   50.7988   12.0399   19.3971 C   0  0  0  0  0  0  0  0  0  0  0  0
   47.9597   13.4866   17.1456 C   0  0  0  0  0  0  0  0  0  0  0  0
   48.9745   11.5290   15.9709 C   0  0  0  0  0  0  0  0  0  0  0  0
   47.8887    8.7930   18.9328 C   0  0  0  0  0  0  0  0  0  0  0  0
   46.7147   10.4467   20.3279 C   0  0  0  0  0  0  0  0  0  0  0  0
   50.4604   12.7483   20.7210 C   0  0  0  0  0  0  0  0  0  0  0  0
   46.8951    9.1185   19.8714 C   0  0  0  0  0  0  0  0  0  0  0  0
   48.5288   12.9668   15.8294 C   0  0  0  0  0  0  0  0  0  0  0  0
   50.0742   14.3090   17.8453 O   0  0  0  0  0  0  0  0  0  0  0  0
   48.6714   10.7074   15.1034 O   0  0  0  0  0  0  0  0  0  0  0  0
   49.4643   14.6729   21.7887 C   0  0  0  0  0  0  0  0  0  0  0  0
   48.1282    7.5591   18.4068 O   0  0  0  0  0  0  0  0  0  0  0  0
   47.2623    6.5069   18.8044 C   0  0  0  0  0  0  0  0  0  0  0  0
   47.8583    9.0492   18.2852 C   0  0  0  0  0  0  0  0  0  0  0  0
   49.4946   14.4781   19.3756 C   0  0  0  0  0  0  0  0  0  0  0  0
   49.0603   13.0788   19.1439 C   0  0  0  0  0  0  0  0  0  0  0  0
   48.2676   10.4379   18.6125 C   0  0  0  0  0  0  0  0  0  0  0  0
   49.9137   15.2423   18.5265 O   0  0  0  0  0  0  0  0  0  0  0  0
   47.8805    8.5411   17.1799 O   0  0  0  0  0  0  0  0  0  0  0  0
   48.2022   10.9429   19.9177 C   0  0  0  0  0  0  0  0  0  0  0  0
   48.5975   12.2594   20.1817 C   0  0  0  0  0  0  0  0  0  0  0  0
   48.7302   11.2569   17.5743 C   0  0  0  0  0  0  0  0  0  0  0  0
   49.1255   12.5719   17.8396 C   0  0  0  0  0  0  0  0  0  0  0  0
   47.4402    8.3605   19.3619 O   0  0  0  0  0  0  0  0  0  0  0  0
   49.3819   14.8534   20.6620 O   0  0  0  0  0  0  0  0  0  0  0  0
   46.1471   11.4995   20.7677 H   0  0  0  0  0  0  0  0  0  0  0  0
   50.2157   14.5944   19.3324 H   0  0  0  0  0  0  0  0  0  0  0  0
   51.4273   12.6593   18.8858 H   0  0  0  0  0  0  0  0  0  0  0  0
   50.8097   13.0025   17.2781 H   0  0  0  0  0  0  0  0  0  0  0  0
   46.1421   13.3009   18.9891 H   0  0  0  0  0  0  0  0  0  0  0  0
   46.3366   11.8792   17.9840 H   0  0  0  0  0  0  0  0  0  0  0  0
   50.1026   13.6200   21.7610 H   0  0  0  0  0  0  0  0  0  0  0  0
   50.3206   12.0239   21.0452 H   0  0  0  0  0  0  0  0  0  0  0  0
   51.4967   10.3255   17.1562 H   0  0  0  0  0  0  0  0  0  0  0  0
   46.8696   14.0760   16.8699 H   0  0  0  0  0  0  0  0  0  0  0  0
   48.1182   12.8540   16.7062 H   0  0  0  0  0  0  0  0  0  0  0  0
   50.4935    8.1013   17.3059 H   0  0  0  0  0  0  0  0  0  0  0  0
   47.9475   12.9070   22.7955 H   0  0  0  0  0  0  0  0  0  0  0  0
   49.2803   11.8419   23.2558 H   0  0  0  0  0  0  0  0  0  0  0  0
   47.7275   14.8625   19.8556 H   0  0  0  0  0  0  0  0  0  0  0  0
   49.9459   15.9673   17.4282 H   0  0  0  0  0  0  0  0  0  0  0  0
   49.7669   14.6494   16.2465 H   0  0  0  0  0  0  0  0  0  0  0  0
   48.4883   15.8563   16.4548 H   0  0  0  0  0  0  0  0  0  0  0  0
   48.1621    5.4942   18.3791 H   0  0  0  0  0  0  0  0  0  0  0  0
   48.8562    6.4231   17.0464 H   0  0  0  0  0  0  0  0  0  0  0  0
   49.7670    6.2057   18.5913 H   0  0  0  0  0  0  0  0  0  0  0  0
   50.9137   11.3049   16.8316 H   0  0  0  0  0  0  0  0  0  0  0  0
   48.0845   14.8718   19.5637 H   0  0  0  0  0  0  0  0  0  0  0  0
   46.4328   13.2527   19.8023 H   0  0  0  0  0  0  0  0  0  0  0  0
   47.2911   13.0320   21.3189 H   0  0  0  0  0  0  0  0  0  0  0  0
   51.1647   11.0308   19.6254 H   0  0  0  0  0  0  0  0  0  0  0  0
   51.6356   12.5622   18.9149 H   0  0  0  0  0  0  0  0  0  0  0  0
   47.0628   12.9136   17.4040 H   0  0  0  0  0  0  0  0  0  0  0  0
   47.6449   14.5275   17.0004 H   0  0  0  0  0  0  0  0  0  0  0  0
   45.9048   10.6618   21.0214 H   0  0  0  0  0  0  0  0  0  0  0  0
   51.4054   12.9498   21.2424 H   0  0  0  0  0  0  0  0  0  0  0  0
   49.8901   12.0730   21.3712 H   0  0  0  0  0  0  0  0  0  0  0  0
   46.2192    8.3614   20.2569 H   0  0  0  0  0  0  0  0  0  0  0  0
   47.7543   13.0185   15.0560 H   0  0  0  0  0  0  0  0  0  0  0  0
   49.3803   13.5616   15.4851 H   0  0  0  0  0  0  0  0  0  0  0  0
   50.4700   14.6298   18.6859 H   0  0  0  0  0  0  0  0  0  0  0  0
   48.9333   15.6184   21.6337 H   0  0  0  0  0  0  0  0  0  0  0  0
   50.4048   14.9235   22.2925 H   0  0  0  0  0  0  0  0  0  0  0  0
   48.8751   14.0504   22.4695 H   0  0  0  0  0  0  0  0  0  0  0  0
   47.5748    5.5991   18.2798 H   0  0  0  0  0  0  0  0  0  0  0  0
   47.3437    6.3138   19.8788 H   0  0  0  0  0  0  0  0  0  0  0  0
   46.2266    6.7170   18.5190 H   0  0  0  0  0  0  0  0  0  0  0  0
   47.8456   10.3214   20.7366 H   0  0  0  0  0  0  0  0  0  0  0  0
   48.5400   12.6322   21.2013 H   0  0  0  0  0  0  0  0  0  0  0  0
   48.7870   10.8749   16.5562 H   0  0  0  0  0  0  0  0  0  0  0  0
   49.4833   13.1971   17.0235 H   0  0  0  0  0  0  0  0  0  0  0  0
   47.2086    7.4779   19.0022 H   0  0  0  0  0  0  0  0  0  0  0  0
   49.6986   15.7814   20.6631 H   0  0  0  0  0  0  0  0  0  0  0  0
 14  7  2  0
 15  8  1  0
 16 11  1  0
 17 15  2  0
 18 13  1  0
  2 19  1  1
 20 13  2  0
 21  9  1  0
  4  7  1  0
 16  9  1  0
  6 10  1  0
 18 12  1  0
 17 14  1  0
 14 22  1  0
 22 23  1  0
  2  1  1  0
  3  1  1  0
  3  4  1  0
  5  1  1  0
  6  2  1  0
  7  5  1  0
  8  5  2  0
  6  9  1  0
 10  8  1  0
  1 11  1  1
 12  2  1  0
 13  3  1  0
 37 30  2  0
 38 31  1  0
 39 34  1  0
 40 38  2  0
 41 36  1  0
 25 42  1  6
 43 36  2  0
 44 32  1  0
 27 30  1  0
 39 32  1  0
 29 33  1  0
 41 35  1  0
 40 37  1  0
 37 45  1  0
 45 46  1  0
 25 24  1  0
 26 24  1  0
 26 27  1  0
 28 24  1  0
 29 25  1  0
 30 28  1  0
 31 28  2  0
 29 32  1  0
 33 31  1  0
 24 34  1  6
 35 25  1  0
 36 26  1  0
 48 49  1  0
 49 56  2  0
 50 47  1  0
 51 48  2  0
 52 47  2  0
 53 50  1  0
 54 53  2  0
 55 50  2  0
 56 55  1  0
 57 47  1  0
 58 48  1  0
 49 54  1  0
  3 59  1  1
  6 60  1  6
 10 61  1  0
 10 62  1  0
 11 63  1  0
 11 64  1  0
 12 65  1  0
 12 66  1  0
 15 67  1  0
 16 68  1  0
 16 69  1  0
 17 70  1  0
 18 71  1  0
 18 72  1  0
 19 73  1  0
 21 74  1  0
 21 75  1  0
 21 76  1  0
 23 77  1  0
 23 78  1  0
 23 79  1  0
 26 80  1  6
 29 81  1  1
 33 82  1  0
 33 83  1  0
 34 84  1  0
 34 85  1  0
 35 86  1  0
 35 87  1  0
 38 88  1  0
 39 89  1  0
 39 90  1  0
 40 91  1  0
 41 92  1  0
 41 93  1  0
 42 94  1  0
 44 95  1  0
 44 96  1  0
 44 97  1  0
 46 98  1  0
 46 99  1  0
 46100  1  0
 53101  1  0
 54102  1  0
 55103  1  0
 56104  1  0
 57105  1  0
 58106  1  0
M  END
> <Uni-Dock RESULT> 
ENERGY=   -5.877  LOWER_BOUND=    4.525  UPPER_BOUND=    7.986
INTER + INTRA:          -5.877
INTER:                  -5.877
INTRA:                   0.000
UNBOUND:                 0.000

$$$$

     RDKit          3D

106114  0  0  0  0  0  0  0  0999 V2000
   48.8608    6.2073   17.3981 C   0  0  2  0  0  0  0  0  0  0  0  0
   48.3442    4.8291   17.8290 C   0  0  2  0  0  0  0  0  0  0  0  0
   48.4568    6.7261   16.0123 C   0  0  1  0  0  0  0  0  0  0  0  0
   49.5598    7.5638   15.5408 O   0  0  0  0  0  0  0  0  0  0  0  0
   50.3271    6.1395   17.1496 C   0  0  0  0  0  0  0  0  0  0  0  0
   49.1739    4.4230   19.0980 C   0  0  2  0  0  0  0  0  0  0  0  0
   50.6729    6.9856   16.1128 C   0  0  0  0  0  0  0  0  0  0  0  0
   51.2302    5.3343   17.8130 C   0  0  0  0  0  0  0  0  0  0  0  0
   48.7626    5.3796   20.1759 N   0  0  0  0  0  0  0  0  0  0  0  0
   50.7136    4.3257   18.8060 C   0  0  0  0  0  0  0  0  0  0  0  0
   48.5958    7.2453   18.5151 C   0  0  0  0  0  0  0  0  0  0  0  0
   48.3839    3.8030   16.6922 C   0  0  0  0  0  0  0  0  0  0  0  0
   48.1831    5.6145   14.9815 C   0  0  0  0  0  0  0  0  0  0  0  0
   51.9925    7.1506   15.7406 C   0  0  0  0  0  0  0  0  0  0  0  0
   52.5667    5.4664   17.4423 C   0  0  0  0  0  0  0  0  0  0  0  0
   49.1254    6.7762   19.8820 C   0  0  0  0  0  0  0  0  0  0  0  0
   52.9451    6.3813   16.4295 C   0  0  0  0  0  0  0  0  0  0  0  0
   47.6019    4.3149   15.4877 C   0  0  0  0  0  0  0  0  0  0  0  0
   46.9570    4.9400   18.2094 O   0  0  0  0  0  0  0  0  0  0  0  0
   48.3448    5.7811   13.7701 O   0  0  0  0  0  0  0  0  0  0  0  0
   49.2514    4.9847   21.4966 C   0  0  0  0  0  0  0  0  0  0  0  0
   52.2441    8.0350   14.7348 O   0  0  0  0  0  0  0  0  0  0  0  0
   53.5917    8.1601   14.3041 C   0  0  0  0  0  0  0  0  0  0  0  0
   50.5364    5.2860   18.1698 C   0  0  2  0  0  0  0  0  0  0  0  0
   49.4849    5.3152   19.2858 C   0  0  2  0  0  0  0  0  0  0  0  0
   51.9180    5.8824   18.4680 C   0  0  1  0  0  0  0  0  0  0  0  0
   52.4258    6.4136   17.2033 O   0  0  0  0  0  0  0  0  0  0  0  0
   50.1540    6.2398   17.0920 C   0  0  0  0  0  0  0  0  0  0  0  0
   48.1116    4.9759   18.6057 C   0  0  2  0  0  0  0  0  0  0  0  0
   51.2852    6.8050   16.5345 C   0  0  0  0  0  0  0  0  0  0  0  0
   48.8691    6.5605   16.7040 C   0  0  0  0  0  0  0  0  0  0  0  0
   48.2174    3.5463   18.1678 N   0  0  0  0  0  0  0  0  0  0  0  0
   47.7119    6.0141   17.4982 C   0  0  0  0  0  0  0  0  0  0  0  0
   50.6263    3.8641   17.5650 C   0  0  0  0  0  0  0  0  0  0  0  0
   49.4936    6.6302   20.0726 C   0  0  0  0  0  0  0  0  0  0  0  0
   51.9016    7.0057   19.5226 C   0  0  0  0  0  0  0  0  0  0  0  0
   51.1919    7.6696   15.4614 C   0  0  0  0  0  0  0  0  0  0  0  0
   48.7468    7.4455   15.6347 C   0  0  0  0  0  0  0  0  0  0  0  0
   49.2485    3.3263   17.1391 C   0  0  0  0  0  0  0  0  0  0  0  0
   49.8989    7.9781   15.0069 C   0  0  0  0  0  0  0  0  0  0  0  0
   50.8842    6.9040   20.6364 C   0  0  0  0  0  0  0  0  0  0  0  0
   49.7812    4.2799   20.2473 O   0  0  0  0  0  0  0  0  0  0  0  0
   52.7228    7.9250   19.5275 O   0  0  0  0  0  0  0  0  0  0  0  0
   46.9327    2.9925   17.7407 C   0  0  0  0  0  0  0  0  0  0  0  0
   52.3616    8.1477   14.9516 O   0  0  0  0  0  0  0  0  0  0  0  0
   52.2694    9.0864   13.8908 C   0  0  0  0  0  0  0  0  0  0  0  0
   51.3999    7.8726   16.0950 C   0  0  0  0  0  0  0  0  0  0  0  0
   48.4678    4.0542   19.2829 C   0  0  0  0  0  0  0  0  0  0  0  0
   49.1879    5.0280   18.4264 C   0  0  0  0  0  0  0  0  0  0  0  0
   50.6166    6.8832   16.8764 C   0  0  0  0  0  0  0  0  0  0  0  0
   48.7434    3.7820   20.4363 O   0  0  0  0  0  0  0  0  0  0  0  0
   52.3555    8.5066   16.5015 O   0  0  0  0  0  0  0  0  0  0  0  0
   49.5225    6.2021   16.3271 C   0  0  0  0  0  0  0  0  0  0  0  0
   48.8108    5.2775   17.1004 C   0  0  0  0  0  0  0  0  0  0  0  0
   50.9939    6.6341   18.2024 C   0  0  0  0  0  0  0  0  0  0  0  0
   50.2825    5.7097   18.9737 C   0  0  0  0  0  0  0  0  0  0  0  0
   50.9479    8.0204   14.8372 O   0  0  0  0  0  0  0  0  0  0  0  0
   47.4349    3.4681   18.6520 O   0  0  0  0  0  0  0  0  0  0  0  0
   47.5512    7.3424   16.0635 H   0  0  0  0  0  0  0  0  0  0  0  0
   48.8268    3.4318   19.4210 H   0  0  0  0  0  0  0  0  0  0  0  0
   50.9081    3.3297   18.3866 H   0  0  0  0  0  0  0  0  0  0  0  0
   51.2948    4.3911   19.7312 H   0  0  0  0  0  0  0  0  0  0  0  0
   47.5166    7.4298   18.5932 H   0  0  0  0  0  0  0  0  0  0  0  0
   49.0508    8.2160   18.2810 H   0  0  0  0  0  0  0  0  0  0  0  0
   47.9282    2.8637   17.0272 H   0  0  0  0  0  0  0  0  0  0  0  0
   49.4106    3.5731   16.3893 H   0  0  0  0  0  0  0  0  0  0  0  0
   53.3332    4.8609   17.9209 H   0  0  0  0  0  0  0  0  0  0  0  0
   48.6964    7.4321   20.6498 H   0  0  0  0  0  0  0  0  0  0  0  0
   50.2119    6.9172   19.9307 H   0  0  0  0  0  0  0  0  0  0  0  0
   54.0019    6.4502   16.1881 H   0  0  0  0  0  0  0  0  0  0  0  0
   46.5451    4.4778   15.7217 H   0  0  0  0  0  0  0  0  0  0  0  0
   47.6521    3.5727   14.6835 H   0  0  0  0  0  0  0  0  0  0  0  0
   46.9744    5.1750   19.1634 H   0  0  0  0  0  0  0  0  0  0  0  0
   48.9709    3.9497   21.7220 H   0  0  0  0  0  0  0  0  0  0  0  0
   50.3377    5.0814   21.5943 H   0  0  0  0  0  0  0  0  0  0  0  0
   48.7884    5.6081   22.2704 H   0  0  0  0  0  0  0  0  0  0  0  0
   53.6184    8.8932   13.4920 H   0  0  0  0  0  0  0  0  0  0  0  0
   54.2313    8.5357   15.1098 H   0  0  0  0  0  0  0  0  0  0  0  0
   53.9704    7.2113   13.9092 H   0  0  0  0  0  0  0  0  0  0  0  0
   52.6168    5.1192   18.8290 H   0  0  0  0  0  0  0  0  0  0  0  0
   47.3380    4.9985   19.3857 H   0  0  0  0  0  0  0  0  0  0  0  0
   47.2347    6.8646   18.0023 H   0  0  0  0  0  0  0  0  0  0  0  0
   46.9629    5.5968   16.8172 H   0  0  0  0  0  0  0  0  0  0  0  0
   51.2950    3.8372   16.6953 H   0  0  0  0  0  0  0  0  0  0  0  0
   51.0650    3.1807   18.3039 H   0  0  0  0  0  0  0  0  0  0  0  0
   49.1815    7.4763   19.4513 H   0  0  0  0  0  0  0  0  0  0  0  0
   48.7864    6.5680   20.9091 H   0  0  0  0  0  0  0  0  0  0  0  0
   47.7640    7.7456   15.2781 H   0  0  0  0  0  0  0  0  0  0  0  0
   49.3539    2.2494   16.9527 H   0  0  0  0  0  0  0  0  0  0  0  0
   48.9515    3.7747   16.1827 H   0  0  0  0  0  0  0  0  0  0  0  0
   49.7451    8.6556   14.1725 H   0  0  0  0  0  0  0  0  0  0  0  0
   50.8707    7.8521   21.1855 H   0  0  0  0  0  0  0  0  0  0  0  0
   51.2081    6.1235   21.3317 H   0  0  0  0  0  0  0  0  0  0  0  0
   49.3238    3.4799   19.9054 H   0  0  0  0  0  0  0  0  0  0  0  0
   46.1668    3.1488   18.5082 H   0  0  0  0  0  0  0  0  0  0  0  0
   47.0168    1.9086   17.6017 H   0  0  0  0  0  0  0  0  0  0  0  0
   46.5761    3.4242   16.8001 H   0  0  0  0  0  0  0  0  0  0  0  0
   53.2860    9.3830   13.6162 H   0  0  0  0  0  0  0  0  0  0  0  0
   51.8046    8.6383   13.0068 H   0  0  0  0  0  0  0  0  0  0  0  0
   51.7326    9.9873   14.2047 H   0  0  0  0  0  0  0  0  0  0  0  0
   49.2150    6.3825   15.2991 H   0  0  0  0  0  0  0  0  0  0  0  0
   47.9654    4.7587   16.6555 H   0  0  0  0  0  0  0  0  0  0  0  0
   51.8436    7.1563   18.6396 H   0  0  0  0  0  0  0  0  0  0  0  0
   50.5869    5.5256   20.0025 H   0  0  0  0  0  0  0  0  0  0  0  0
   51.5499    8.6894   14.4471 H   0  0  0  0  0  0  0  0  0  0  0  0
   47.0621    2.8626   19.3272 H   0  0  0  0  0  0  0  0  0  0  0  0
 14  7  2  0
 15  8  1  0
 16 11  1  0
 17 15  2  0
 18 13  1  0
  2 19  1  1
 20 13  2  0
 21  9  1  0
  4  7  1  0
 16  9  1  0
  6 10  1  0
 18 12  1  0
 17 14  1  0
 14 22  1  0
 22 23  1  0
  2  1  1  0
  3  1  1  0
  3  4  1  0
  5  1  1  0
  6  2  1  0
  7  5  1  0
  8  5  2  0
  6  9  1  0
 10  8  1  0
  1 11  1  1
 12  2  1  0
 13  3  1  0
 37 30  2  0
 38 31  1  0
 39 34  1  0
 40 38  2  0
 41 36  1  0
 25 42  1  6
 43 36  2  0
 44 32  1  0
 27 30  1  0
 39 32  1  0
 29 33  1  0
 41 35  1  0
 40 37  1  0
 37 45  1  0
 45 46  1  0
 25 24  1  0
 26 24  1  0
 26 27  1  0
 28 24  1  0
 29 25  1  0
 30 28  1  0
 31 28  2  0
 29 32  1  0
 33 31  1  0
 24 34  1  6
 35 25  1  0
 36 26  1  0
 48 49  1  0
 49 56  2  0
 50 47  1  0
 51 48  2  0
 52 47  2  0
 53 50  1  0
 54 53  2  0
 55 50  2  0
 56 55  1  0
 57 47  1  0
 58 48  1  0
 49 54  1  0
  3 59  1  1
  6 60  1  6
 10 61  1  0
 10 62  1  0
 11 63  1  0
 11 64  1  0
 12 65  1  0
 12 66  1  0
 15 67  1  0
 16 68  1  0
 16 69  1  0
 17 70  1  0
 18 71  1  0
 18 72  1  0
 19 73  1  0
 21 74  1  0
 21 75  1  0
 21 76  1  0
 23 77  1  0
 23 78  1  0
 23 79  1  0
 26 80  1  6
 29 81  1  1
 33 82  1  0
 33 83  1  0
 34 84  1  0
 34 85  1  0
 35 86  1  0
 35 87  1  0
 38 88  1  0
 39 89  1  0
 39 90  1  0
 40 91  1  0
 41 92  1  0
 41 93  1  0
 42 94  1  0
 44 95  1  0
 44 96  1  0
 44 97  1  0
 46 98  1  0
 46 99  1  0
 46100  1  0
 53101  1  0
 54102  1  0
 55103  1  0
 56104  1  0
 57105  1  0
 58106  1  0
M  END
> <Uni-Dock RESULT> 
ENERGY=   -5.512  LOWER_BOUND=    2.251  UPPER_BOUND=    4.201
INTER + INTRA:          -5.512
INTER:                  -5.512
INTRA:                   0.000
UNBOUND:                 0.000

$$$$

     RDKit          3D

106114  0  0  0  0  0  0  0  0999 V2000
   49.0935    8.1752   12.8052 C   0  0  2  0  0  0  0  0  0  0  0  0
   48.9997    9.6377   12.3533 C   0  0  2  0  0  0  0  0  0  0  0  0
   47.8419    7.2987   12.6704 C   0  0  1  0  0  0  0  0  0  0  0  0
   47.8970    6.3200   13.7566 O   0  0  0  0  0  0  0  0  0  0  0  0
   49.2032    8.1134   14.2887 C   0  0  0  0  0  0  0  0  0  0  0  0
   50.2769   10.3566   12.9148 C   0  0  2  0  0  0  0  0  0  0  0  0
   48.5482    6.9944   14.7674 C   0  0  0  0  0  0  0  0  0  0  0  0
   49.8274    9.0393   15.0994 C   0  0  0  0  0  0  0  0  0  0  0  0
   51.4365    9.7632   12.1736 N   0  0  0  0  0  0  0  0  0  0  0  0
   50.3563   10.3080   14.4822 C   0  0  0  0  0  0  0  0  0  0  0  0
   50.3472    7.5094   12.1884 C   0  0  0  0  0  0  0  0  0  0  0  0
   47.6756   10.2949   12.7551 C   0  0  0  0  0  0  0  0  0  0  0  0
   46.5169    8.0800   12.7539 C   0  0  0  0  0  0  0  0  0  0  0  0
   48.5689    6.6800   16.1120 C   0  0  0  0  0  0  0  0  0  0  0  0
   49.8449    8.7562   16.4634 C   0  0  0  0  0  0  0  0  0  0  0  0
   51.6252    8.3280   12.4439 C   0  0  0  0  0  0  0  0  0  0  0  0
   49.2386    7.5768   16.9612 C   0  0  0  0  0  0  0  0  0  0  0  0
   46.4985    9.4912   12.2141 C   0  0  0  0  0  0  0  0  0  0  0  0
   49.0438    9.6927   10.9123 O   0  0  0  0  0  0  0  0  0  0  0  0
   45.4722    7.5690   13.1651 O   0  0  0  0  0  0  0  0  0  0  0  0
   52.6814   10.4992   12.3921 C   0  0  0  0  0  0  0  0  0  0  0  0
   47.9299    5.5367   16.4884 O   0  0  0  0  0  0  0  0  0  0  0  0
   47.8924    5.2428   17.8774 C   0  0  0  0  0  0  0  0  0  0  0  0
   49.9769    9.2136   14.3523 C   0  0  2  0  0  0  0  0  0  0  0  0
   50.7669    9.5438   13.0799 C   0  0  2  0  0  0  0  0  0  0  0  0
   50.7529    8.6748   15.5609 C   0  0  1  0  0  0  0  0  0  0  0  0
   49.8410    7.7862   16.2809 O   0  0  0  0  0  0  0  0  0  0  0  0
   49.1339    8.0075   14.1234 C   0  0  0  0  0  0  0  0  0  0  0  0
   49.7058    9.7272   11.9380 C   0  0  2  0  0  0  0  0  0  0  0  0
   49.0429    7.2642   15.2849 C   0  0  0  0  0  0  0  0  0  0  0  0
   48.5432    7.6387   12.9320 C   0  0  0  0  0  0  0  0  0  0  0  0
   48.9412   10.9676   12.2895 N   0  0  0  0  0  0  0  0  0  0  0  0
   48.8534    8.4325   11.6902 C   0  0  0  0  0  0  0  0  0  0  0  0
   49.0549   10.3997   14.7250 C   0  0  0  0  0  0  0  0  0  0  0  0
   51.8540    8.5082   12.7731 C   0  0  0  0  0  0  0  0  0  0  0  0
   52.0321    7.9001   15.1898 C   0  0  0  0  0  0  0  0  0  0  0  0
   48.2513    6.1339   15.3445 C   0  0  0  0  0  0  0  0  0  0  0  0
   47.7535    6.4911   12.9604 C   0  0  0  0  0  0  0  0  0  0  0  0
   48.1765   10.8459   13.5425 C   0  0  0  0  0  0  0  0  0  0  0  0
   47.5934    5.7581   14.1613 C   0  0  0  0  0  0  0  0  0  0  0  0
   52.7935    8.3536   13.9648 C   0  0  0  0  0  0  0  0  0  0  0  0
   51.4585   10.7980   13.2601 O   0  0  0  0  0  0  0  0  0  0  0  0
   52.4840    6.9897   15.8874 O   0  0  0  0  0  0  0  0  0  0  0  0
   48.0801   11.4253   11.1992 C   0  0  0  0  0  0  0  0  0  0  0  0
   48.1909    5.4861   16.5417 O   0  0  0  0  0  0  0  0  0  0  0  0
   47.4309    4.2882   16.5917 C   0  0  0  0  0  0  0  0  0  0  0  0
   48.9471    6.1121   15.3823 C   0  0  0  0  0  0  0  0  0  0  0  0
   50.1775   10.7894   12.2281 C   0  0  0  0  0  0  0  0  0  0  0  0
   49.8164    9.5852   13.0154 C   0  0  0  0  0  0  0  0  0  0  0  0
   49.2186    7.3122   14.5522 C   0  0  0  0  0  0  0  0  0  0  0  0
   51.2471   11.3684   12.2647 O   0  0  0  0  0  0  0  0  0  0  0  0
   49.7297    5.5843   16.1499 O   0  0  0  0  0  0  0  0  0  0  0  0
   48.2562    7.8497   13.6873 C   0  0  0  0  0  0  0  0  0  0  0  0
   48.5551    8.9827   12.9217 C   0  0  0  0  0  0  0  0  0  0  0  0
   50.4800    7.9143   14.6461 C   0  0  0  0  0  0  0  0  0  0  0  0
   50.7771    9.0466   13.8811 C   0  0  0  0  0  0  0  0  0  0  0  0
   47.7037    5.6293   15.2113 O   0  0  0  0  0  0  0  0  0  0  0  0
   49.1797   11.2104   11.4309 O   0  0  0  0  0  0  0  0  0  0  0  0
   47.8325    6.7575   11.7167 H   0  0  0  0  0  0  0  0  0  0  0  0
   50.2277   11.4112   12.6104 H   0  0  0  0  0  0  0  0  0  0  0  0
   49.7466   11.1349   14.8697 H   0  0  0  0  0  0  0  0  0  0  0  0
   51.3783   10.4868   14.8306 H   0  0  0  0  0  0  0  0  0  0  0  0
   50.2048    7.3960   11.1059 H   0  0  0  0  0  0  0  0  0  0  0  0
   50.5002    6.4956   12.5794 H   0  0  0  0  0  0  0  0  0  0  0  0
   47.6248   11.3074   12.3374 H   0  0  0  0  0  0  0  0  0  0  0  0
   47.5835   10.3896   13.8419 H   0  0  0  0  0  0  0  0  0  0  0  0
   50.3168    9.4433   17.1623 H   0  0  0  0  0  0  0  0  0  0  0  0
   52.4110    7.9350   11.7867 H   0  0  0  0  0  0  0  0  0  0  0  0
   51.9746    8.1655   13.4706 H   0  0  0  0  0  0  0  0  0  0  0  0
   49.2911    7.4018   18.0319 H   0  0  0  0  0  0  0  0  0  0  0  0
   46.5011    9.4421   11.1206 H   0  0  0  0  0  0  0  0  0  0  0  0
   45.5628    9.9709   12.5215 H   0  0  0  0  0  0  0  0  0  0  0  0
   50.0000    9.7388   10.6901 H   0  0  0  0  0  0  0  0  0  0  0  0
   52.5458   11.5655   12.1787 H   0  0  0  0  0  0  0  0  0  0  0  0
   53.0646   10.3930   13.4122 H   0  0  0  0  0  0  0  0  0  0  0  0
   53.4557   10.1403   11.7041 H   0  0  0  0  0  0  0  0  0  0  0  0
   47.3383    4.3082   18.0084 H   0  0  0  0  0  0  0  0  0  0  0  0
   48.9004    5.0884   18.2765 H   0  0  0  0  0  0  0  0  0  0  0  0
   47.3634    6.0246   18.4329 H   0  0  0  0  0  0  0  0  0  0  0  0
   51.0565    9.4820   16.2372 H   0  0  0  0  0  0  0  0  0  0  0  0
   50.2490    9.9573   11.0110 H   0  0  0  0  0  0  0  0  0  0  0  0
   49.4338    7.7797   11.0251 H   0  0  0  0  0  0  0  0  0  0  0  0
   47.9237    8.6666   11.1615 H   0  0  0  0  0  0  0  0  0  0  0  0
   48.4012   10.1521   15.5709 H   0  0  0  0  0  0  0  0  0  0  0  0
   49.6682   11.2481   15.0560 H   0  0  0  0  0  0  0  0  0  0  0  0
   51.4249    7.5326   12.5212 H   0  0  0  0  0  0  0  0  0  0  0  0
   52.4435    8.8331   11.9067 H   0  0  0  0  0  0  0  0  0  0  0  0
   47.2607    6.1394   12.0568 H   0  0  0  0  0  0  0  0  0  0  0  0
   47.7406   11.8202   13.8000 H   0  0  0  0  0  0  0  0  0  0  0  0
   47.3324   10.1552   13.4224 H   0  0  0  0  0  0  0  0  0  0  0  0
   46.9594    4.8773   14.1284 H   0  0  0  0  0  0  0  0  0  0  0  0
   53.5555    7.6026   13.7286 H   0  0  0  0  0  0  0  0  0  0  0  0
   53.3120    9.2869   14.2046 H   0  0  0  0  0  0  0  0  0  0  0  0
   50.8138   11.4842   12.9781 H   0  0  0  0  0  0  0  0  0  0  0  0
   48.6494   11.5235   10.2684 H   0  0  0  0  0  0  0  0  0  0  0  0
   47.6813   12.4206   11.4261 H   0  0  0  0  0  0  0  0  0  0  0  0
   47.2317   10.7573   11.0195 H   0  0  0  0  0  0  0  0  0  0  0  0
   47.5036    3.8872   17.6069 H   0  0  0  0  0  0  0  0  0  0  0  0
   46.3734    4.4832   16.3871 H   0  0  0  0  0  0  0  0  0  0  0  0
   47.8328    3.5353   15.9062 H   0  0  0  0  0  0  0  0  0  0  0  0
   47.2712    7.3957   13.6013 H   0  0  0  0  0  0  0  0  0  0  0  0
   47.7945    9.3851   12.2572 H   0  0  0  0  0  0  0  0  0  0  0  0
   51.2355    7.5063   15.3161 H   0  0  0  0  0  0  0  0  0  0  0  0
   51.7612    9.5045   13.9643 H   0  0  0  0  0  0  0  0  0  0  0  0
   47.6668    4.8545   15.8115 H   0  0  0  0  0  0  0  0  0  0  0  0
   49.5555   11.9969   10.9819 H   0  0  0  0  0  0  0  0  0  0  0  0
 14  7  2  0
 15  8  1  0
 16 11  1  0
 17 15  2  0
 18 13  1  0
  2 19  1  1
 20 13  2  0
 21  9  1  0
  4  7  1  0
 16  9  1  0
  6 10  1  0
 18 12  1  0
 17 14  1  0
 14 22  1  0
 22 23  1  0
  2  1  1  0
  3  1  1  0
  3  4  1  0
  5  1  1  0
  6  2  1  0
  7  5  1  0
  8  5  2  0
  6  9  1  0
 10  8  1  0
  1 11  1  1
 12  2  1  0
 13  3  1  0
 37 30  2  0
 38 31  1  0
 39 34  1  0
 40 38  2  0
 41 36  1  0
 25 42  1  6
 43 36  2  0
 44 32  1  0
 27 30  1  0
 39 32  1  0
 29 33  1  0
 41 35  1  0
 40 37  1  0
 37 45  1  0
 45 46  1  0
 25 24  1  0
 26 24  1  0
 26 27  1  0
 28 24  1  0
 29 25  1  0
 30 28  1  0
 31 28  2  0
 29 32  1  0
 33 31  1  0
 24 34  1  6
 35 25  1  0
 36 26  1  0
 48 49  1  0
 49 56  2  0
 50 47  1  0
 51 48  2  0
 52 47  2  0
 53 50  1  0
 54 53  2  0
 55 50  2  0
 56 55  1  0
 57 47  1  0
 58 48  1  0
 49 54  1  0
  3 59  1  1
  6 60  1  6
 10 61  1  0
 10 62  1  0
 11 63  1  0
 11 64  1  0
 12 65  1  0
 12 66  1  0
 15 67  1  0
 16 68  1  0
 16 69  1  0
 17 70  1  0
 18 71  1  0
 18 72  1  0
 19 73  1  0
 21 74  1  0
 21 75  1  0
 21 76  1  0
 23 77  1  0
 23 78  1  0
 23 79  1  0
 26 80  1  6
 29 81  1  1
 33 82  1  0
 33 83  1  0
 34 84  1  0
 34 85  1  0
 35 86  1  0
 35 87  1  0
 38 88  1  0
 39 89  1  0
 39 90  1  0
 40 91  1  0
 41 92  1  0
 41 93  1  0
 42 94  1  0
 44 95  1  0
 44 96  1  0
 44 97  1  0
 46 98  1  0
 46 99  1  0
 46100  1  0
 53101  1  0
 54102  1  0
 55103  1  0
 56104  1  0
 57105  1  0
 58106  1  0
M  END
> <Uni-Dock RESULT> 
ENERGY=   -5.505  LOWER_BOUND=    5.114  UPPER_BOUND=    7.456
INTER + INTRA:          -5.505
INTER:                  -5.505
INTRA:                   0.000
UNBOUND:                 0.000

$$$$

     RDKit          3D

106114  0  0  0  0  0  0  0  0999 V2000
   48.4182    9.9144   13.2686 C   0  0  2  0  0  0  0  0  0  0  0  0
   49.9142    9.7215   12.9914 C   0  0  2  0  0  0  0  0  0  0  0  0
   47.4983    8.6943   13.1346 C   0  0  1  0  0  0  0  0  0  0  0  0
   46.1947    9.1981   12.7018 O   0  0  0  0  0  0  0  0  0  0  0  0
   47.8062   10.7273   12.1818 C   0  0  0  0  0  0  0  0  0  0  0  0
   50.5297   11.1598   12.8661 C   0  0  2  0  0  0  0  0  0  0  0  0
   46.5108   10.3070   11.9461 C   0  0  0  0  0  0  0  0  0  0  0  0
   48.4251   11.7339   11.4692 C   0  0  0  0  0  0  0  0  0  0  0  0
   50.4322   11.7644   14.2341 N   0  0  0  0  0  0  0  0  0  0  0  0
   49.8932   11.9881   11.6939 C   0  0  0  0  0  0  0  0  0  0  0  0
   48.2198   10.6559   14.6126 C   0  0  0  0  0  0  0  0  0  0  0  0
   50.1779    8.8133   11.7863 C   0  0  0  0  0  0  0  0  0  0  0  0
   47.9977    7.6396   12.1288 C   0  0  0  0  0  0  0  0  0  0  0  0
   45.7094   10.9560   11.0275 C   0  0  0  0  0  0  0  0  0  0  0  0
   47.6444   12.3919   10.5214 C   0  0  0  0  0  0  0  0  0  0  0  0
   49.0441   11.9535   14.6877 C   0  0  0  0  0  0  0  0  0  0  0  0
   46.2932   12.0188   10.3180 C   0  0  0  0  0  0  0  0  0  0  0  0
   49.4909    7.4657   11.9768 C   0  0  0  0  0  0  0  0  0  0  0  0
   50.5248    9.0627   14.1204 O   0  0  0  0  0  0  0  0  0  0  0  0
   47.2297    6.8925   11.5177 O   0  0  0  0  0  0  0  0  0  0  0  0
   51.1907   13.0089   14.3557 C   0  0  0  0  0  0  0  0  0  0  0  0
   44.4333   10.4981   10.8893 O   0  0  0  0  0  0  0  0  0  0  0  0
   43.6256   11.1196    9.9002 C   0  0  0  0  0  0  0  0  0  0  0  0
   48.8922   11.5134   12.0559 C   0  0  2  0  0  0  0  0  0  0  0  0
   49.7914   11.6063   13.2948 C   0  0  2  0  0  0  0  0  0  0  0  0
   48.0418   12.7370   11.6913 C   0  0  1  0  0  0  0  0  0  0  0  0
   46.8287   12.2277   11.0523 O   0  0  0  0  0  0  0  0  0  0  0  0
   47.7637   10.5786   12.3213 C   0  0  0  0  0  0  0  0  0  0  0  0
   50.2525   10.1406   13.6150 C   0  0  2  0  0  0  0  0  0  0  0  0
   46.6259   11.0095   11.6657 C   0  0  0  0  0  0  0  0  0  0  0  0
   47.8043    9.4573   13.1245 C   0  0  0  0  0  0  0  0  0  0  0  0
   51.1446    9.7383   12.4796 N   0  0  0  0  0  0  0  0  0  0  0  0
   49.0491    9.1819   13.9263 C   0  0  0  0  0  0  0  0  0  0  0  0
   49.7050   10.9803   10.8513 C   0  0  0  0  0  0  0  0  0  0  0  0
   49.1133   12.3263   14.4653 C   0  0  0  0  0  0  0  0  0  0  0  0
   47.6529   13.6123   12.8982 C   0  0  0  0  0  0  0  0  0  0  0  0
   45.4626   10.2655   11.6987 C   0  0  0  0  0  0  0  0  0  0  0  0
   46.6375    8.6985   13.1898 C   0  0  0  0  0  0  0  0  0  0  0  0
   50.4466    9.6734   11.1842 C   0  0  0  0  0  0  0  0  0  0  0  0
   45.4845    9.0891   12.4665 C   0  0  0  0  0  0  0  0  0  0  0  0
   48.6426   13.7125   14.0369 C   0  0  0  0  0  0  0  0  0  0  0  0
   50.9618   12.3892   12.9767 O   0  0  0  0  0  0  0  0  0  0  0  0
   46.6156   14.2775   12.9304 O   0  0  0  0  0  0  0  0  0  0  0  0
   51.8637    8.4922   12.7438 C   0  0  0  0  0  0  0  0  0  0  0  0
   44.4025   10.7474   10.9913 O   0  0  0  0  0  0  0  0  0  0  0  0
   43.1855   10.0213   11.0738 C   0  0  0  0  0  0  0  0  0  0  0  0
   45.5236   10.8879   12.0068 C   0  0  0  0  0  0  0  0  0  0  0  0
   51.1752   10.7713   13.1839 C   0  0  0  0  0  0  0  0  0  0  0  0
   49.7236   10.7507   12.8793 C   0  0  0  0  0  0  0  0  0  0  0  0
   46.9757   10.8094   12.3042 C   0  0  0  0  0  0  0  0  0  0  0  0
   51.8363   11.7631   13.4284 O   0  0  0  0  0  0  0  0  0  0  0  0
   44.8539   11.9035   11.9867 O   0  0  0  0  0  0  0  0  0  0  0  0
   47.6670    9.5908   12.3116 C   0  0  0  0  0  0  0  0  0  0  0  0
   49.0367    9.5624   12.5984 C   0  0  0  0  0  0  0  0  0  0  0  0
   47.6621   11.9978   12.5851 C   0  0  0  0  0  0  0  0  0  0  0  0
   49.0308   11.9682   12.8709 C   0  0  0  0  0  0  0  0  0  0  0  0
   44.9781    9.6865   11.7469 O   0  0  0  0  0  0  0  0  0  0  0  0
   51.7292    9.5461   13.1683 O   0  0  0  0  0  0  0  0  0  0  0  0
   47.3700    8.1817   14.0955 H   0  0  0  0  0  0  0  0  0  0  0  0
   51.6026   11.0472   12.6580 H   0  0  0  0  0  0  0  0  0  0  0  0
   50.4153   11.7075   10.7695 H   0  0  0  0  0  0  0  0  0  0  0  0
   50.0626   13.0606   11.8320 H   0  0  0  0  0  0  0  0  0  0  0  0
   48.5132    9.9967   15.4398 H   0  0  0  0  0  0  0  0  0  0  0  0
   47.1650   10.9041   14.7854 H   0  0  0  0  0  0  0  0  0  0  0  0
   51.2558    8.6410   11.6832 H   0  0  0  0  0  0  0  0  0  0  0  0
   49.8336    9.2691   10.8522 H   0  0  0  0  0  0  0  0  0  0  0  0
   48.0674   13.1939    9.9204 H   0  0  0  0  0  0  0  0  0  0  0  0
   49.0460   12.2884   15.7325 H   0  0  0  0  0  0  0  0  0  0  0  0
   48.5487   12.7453   14.1129 H   0  0  0  0  0  0  0  0  0  0  0  0
   45.7288   12.5726    9.5733 H   0  0  0  0  0  0  0  0  0  0  0  0
   49.8670    6.9321   12.8554 H   0  0  0  0  0  0  0  0  0  0  0  0
   49.6821    6.8365   11.1006 H   0  0  0  0  0  0  0  0  0  0  0  0
   50.7835    9.7902   14.7282 H   0  0  0  0  0  0  0  0  0  0  0  0
   52.2275   12.8663   14.0307 H   0  0  0  0  0  0  0  0  0  0  0  0
   50.7540   13.8311   13.7794 H   0  0  0  0  0  0  0  0  0  0  0  0
   51.2341   13.3214   15.4056 H   0  0  0  0  0  0  0  0  0  0  0  0
   42.6461   10.6316    9.9108 H   0  0  0  0  0  0  0  0  0  0  0  0
   43.4694   12.1798   10.1259 H   0  0  0  0  0  0  0  0  0  0  0  0
   44.0529   10.9876    8.9004 H   0  0  0  0  0  0  0  0  0  0  0  0
   48.5601   13.3903   10.9801 H   0  0  0  0  0  0  0  0  0  0  0  0
   50.8937   10.1793   14.5064 H   0  0  0  0  0  0  0  0  0  0  0  0
   48.7888    9.3149   14.9846 H   0  0  0  0  0  0  0  0  0  0  0  0
   49.3387    8.1327   13.8074 H   0  0  0  0  0  0  0  0  0  0  0  0
   49.0638   10.8046    9.9782 H   0  0  0  0  0  0  0  0  0  0  0  0
   50.4362   11.7383   10.5409 H   0  0  0  0  0  0  0  0  0  0  0  0
   48.2608   11.7577   14.8518 H   0  0  0  0  0  0  0  0  0  0  0  0
   49.8240   12.4418   15.2930 H   0  0  0  0  0  0  0  0  0  0  0  0
   46.5965    7.8036   13.8066 H   0  0  0  0  0  0  0  0  0  0  0  0
   51.1771    9.4917   10.3849 H   0  0  0  0  0  0  0  0  0  0  0  0
   49.7465    8.8289   11.1567 H   0  0  0  0  0  0  0  0  0  0  0  0
   44.6062    8.4559   12.5463 H   0  0  0  0  0  0  0  0  0  0  0  0
   48.1525   14.2050   14.8841 H   0  0  0  0  0  0  0  0  0  0  0  0
   49.4735   14.3499   13.7191 H   0  0  0  0  0  0  0  0  0  0  0  0
   51.6082   11.7417   12.6175 H   0  0  0  0  0  0  0  0  0  0  0  0
   52.3895    8.5420   13.7036 H   0  0  0  0  0  0  0  0  0  0  0  0
   52.6302    8.3293   11.9776 H   0  0  0  0  0  0  0  0  0  0  0  0
   51.2067    7.6166   12.7519 H   0  0  0  0  0  0  0  0  0  0  0  0
   42.4389   10.5488   10.4730 H   0  0  0  0  0  0  0  0  0  0  0  0
   43.2972    9.0157   10.6559 H   0  0  0  0  0  0  0  0  0  0  0  0
   42.8171    9.9816   12.1039 H   0  0  0  0  0  0  0  0  0  0  0  0
   47.1505    8.6578   12.0957 H   0  0  0  0  0  0  0  0  0  0  0  0
   49.5552    8.6069   12.5984 H   0  0  0  0  0  0  0  0  0  0  0  0
   47.1357   12.9511   12.5807 H   0  0  0  0  0  0  0  0  0  0  0  0
   49.5517   12.8993   13.0870 H   0  0  0  0  0  0  0  0  0  0  0  0
   44.0349    9.8889   11.5698 H   0  0  0  0  0  0  0  0  0  0  0  0
   52.6715    9.7131   13.3823 H   0  0  0  0  0  0  0  0  0  0  0  0
 14  7  2  0
 15  8  1  0
 16 11  1  0
 17 15  2  0
 18 13  1  0
  2 19  1  1
 20 13  2  0
 21  9  1  0
  4  7  1  0
 16  9  1  0
  6 10  1  0
 18 12  1  0
 17 14  1  0
 14 22  1  0
 22 23  1  0
  2  1  1  0
  3  1  1  0
  3  4  1  0
  5  1  1  0
  6  2  1  0
  7  5  1  0
  8  5  2  0
  6  9  1  0
 10  8  1  0
  1 11  1  1
 12  2  1  0
 13  3  1  0
 37 30  2  0
 38 31  1  0
 39 34  1  0
 40 38  2  0
 41 36  1  0
 25 42  1  6
 43 36  2  0
 44 32  1  0
 27 30  1  0
 39 32  1  0
 29 33  1  0
 41 35  1  0
 40 37  1  0
 37 45  1  0
 45 46  1  0
 25 24  1  0
 26 24  1  0
 26 27  1  0
 28 24  1  0
 29 25  1  0
 30 28  1  0
 31 28  2  0
 29 32  1  0
 33 31  1  0
 24 34  1  6
 35 25  1  0
 36 26  1  0
 48 49  1  0
 49 56  2  0
 50 47  1  0
 51 48  2  0
 52 47  2  0
 53 50  1  0
 54 53  2  0
 55 50  2  0
 56 55  1  0
 57 47  1  0
 58 48  1  0
 49 54  1  0
  3 59  1  1
  6 60  1  6
 10 61  1  0
 10 62  1  0
 11 63  1  0
 11 64  1  0
 12 65  1  0
 12 66  1  0
 15 67  1  0
 16 68  1  0
 16 69  1  0
 17 70  1  0
 18 71  1  0
 18 72  1  0
 19 73  1  0
 21 74  1  0
 21 75  1  0
 21 76  1  0
 23 77  1  0
 23 78  1  0
 23 79  1  0
 26 80  1  6
 29 81  1  1
 33 82  1  0
 33 83  1  0
 34 84  1  0
 34 85  1  0
 35 86  1  0
 35 87  1  0
 38 88  1  0
 39 89  1  0
 39 90  1  0
 40 91  1  0
 41 92  1  0
 41 93  1  0
 42 94  1  0
 44 95  1  0
 44 96  1  0
 44 97  1  0
 46 98  1  0
 46 99  1  0
 46100  1  0
 53101  1  0
 54102  1  0
 55103  1  0
 56104  1  0
 57105  1  0
 58106  1  0
M  END
> <Uni-Dock RESULT> 
ENERGY=   -5.333  LOWER_BOUND=    7.424  UPPER_BOUND=   10.411
INTER + INTRA:          -5.333
INTER:                  -5.333
INTRA:                   0.000
UNBOUND:                 0.000

$$$$

     RDKit          3D

106114  0  0  0  0  0  0  0  0999 V2000
   47.7294    9.1624   20.5442 C   0  0  2  0  0  0  0  0  0  0  0  0
   48.3220    9.7429   21.8341 C   0  0  2  0  0  0  0  0  0  0  0  0
   47.6069    7.6376   20.4312 C   0  0  1  0  0  0  0  0  0  0  0  0
   47.7614    7.3088   19.0139 O   0  0  0  0  0  0  0  0  0  0  0  0
   48.6867    9.3544   19.4203 C   0  0  0  0  0  0  0  0  0  0  0  0
   48.6390   11.2508   21.5355 C   0  0  2  0  0  0  0  0  0  0  0  0
   48.6131    8.2866   18.5458 C   0  0  0  0  0  0  0  0  0  0  0  0
   49.5591   10.4121   19.2639 C   0  0  0  0  0  0  0  0  0  0  0  0
   47.3093   11.9167   21.3492 N   0  0  0  0  0  0  0  0  0  0  0  0
   49.6748   11.4297   20.3690 C   0  0  0  0  0  0  0  0  0  0  0  0
   46.4065    9.8863   20.1963 C   0  0  0  0  0  0  0  0  0  0  0  0
   49.5173    8.9351   22.3492 C   0  0  0  0  0  0  0  0  0  0  0  0
   48.6539    6.8615   21.2525 C   0  0  0  0  0  0  0  0  0  0  0  0
   49.3579    8.2680   17.3830 C   0  0  0  0  0  0  0  0  0  0  0  0
   50.3373   10.4074   18.1083 C   0  0  0  0  0  0  0  0  0  0  0  0
   46.5685   11.4167   20.1789 C   0  0  0  0  0  0  0  0  0  0  0  0
   50.2219    9.3548   17.1676 C   0  0  0  0  0  0  0  0  0  0  0  0
   49.1247    7.4758   22.5503 C   0  0  0  0  0  0  0  0  0  0  0  0
   47.3297    9.6856   22.8798 O   0  0  0  0  0  0  0  0  0  0  0  0
   49.0493    5.7388   20.9287 O   0  0  0  0  0  0  0  0  0  0  0  0
   47.4093   13.3754   21.3141 C   0  0  0  0  0  0  0  0  0  0  0  0
   49.1920    7.1939   16.5608 O   0  0  0  0  0  0  0  0  0  0  0  0
   50.0030    7.1381   15.3963 C   0  0  0  0  0  0  0  0  0  0  0  0
   49.0815   10.5629   19.8640 C   0  0  2  0  0  0  0  0  0  0  0  0
   48.0766   11.3034   20.7550 C   0  0  2  0  0  0  0  0  0  0  0  0
   49.2992   11.0852   18.4381 C   0  0  1  0  0  0  0  0  0  0  0  0
   49.6331    9.9238   17.6140 O   0  0  0  0  0  0  0  0  0  0  0  0
   48.5354    9.2291   19.4891 C   0  0  0  0  0  0  0  0  0  0  0  0
   47.8063   10.3674   21.9857 C   0  0  2  0  0  0  0  0  0  0  0  0
   48.9406    8.8919   18.2116 C   0  0  0  0  0  0  0  0  0  0  0  0
   47.7156    8.4354   20.2651 C   0  0  0  0  0  0  0  0  0  0  0  0
   49.0931   10.3236   22.7530 N   0  0  0  0  0  0  0  0  0  0  0  0
   47.1978    8.9814   21.5698 C   0  0  0  0  0  0  0  0  0  0  0  0
   50.4129   10.3573   20.6261 C   0  0  0  0  0  0  0  0  0  0  0  0
   46.8158   11.7309   19.9961 C   0  0  0  0  0  0  0  0  0  0  0  0
   48.0731   11.8000   17.8382 C   0  0  0  0  0  0  0  0  0  0  0  0
   48.6211    7.6638   17.6662 C   0  0  0  0  0  0  0  0  0  0  0  0
   47.3632    7.1980   19.7302 C   0  0  0  0  0  0  0  0  0  0  0  0
   50.1987    9.7034   22.0029 C   0  0  0  0  0  0  0  0  0  0  0  0
   47.8295    6.8087   18.4510 C   0  0  0  0  0  0  0  0  0  0  0  0
   47.1862   12.5786   18.7834 C   0  0  0  0  0  0  0  0  0  0  0  0
   48.6771   12.5239   21.2386 O   0  0  0  0  0  0  0  0  0  0  0  0
   47.8400   11.8177   16.6279 O   0  0  0  0  0  0  0  0  0  0  0  0
   48.9433    9.6982   24.0669 C   0  0  0  0  0  0  0  0  0  0  0  0
   49.0961    7.4022   16.4162 O   0  0  0  0  0  0  0  0  0  0  0  0
   48.7172    6.1685   15.8250 C   0  0  0  0  0  0  0  0  0  0  0  0
   48.3599    8.2645   17.4273 C   0  0  0  0  0  0  0  0  0  0  0  0
   48.4559   11.3131   22.3300 C   0  0  0  0  0  0  0  0  0  0  0  0
   48.4314   10.4874   21.0979 C   0  0  0  0  0  0  0  0  0  0  0  0
   48.3875    9.0063   18.7126 C   0  0  0  0  0  0  0  0  0  0  0  0
   48.4044   12.5280   22.3728 O   0  0  0  0  0  0  0  0  0  0  0  0
   48.2732    8.7603   16.3196 O   0  0  0  0  0  0  0  0  0  0  0  0
   48.4828    8.3498   19.9466 C   0  0  0  0  0  0  0  0  0  0  0  0
   48.5046    9.0889   21.1352 C   0  0  0  0  0  0  0  0  0  0  0  0
   48.3140   10.4048   18.6749 C   0  0  0  0  0  0  0  0  0  0  0  0
   48.3366   11.1420   19.8631 C   0  0  0  0  0  0  0  0  0  0  0  0
   48.4434    6.9324   17.5914 O   0  0  0  0  0  0  0  0  0  0  0  0
   48.5432   10.5755   23.4510 O   0  0  0  0  0  0  0  0  0  0  0  0
   46.6211    7.2892   20.7621 H   0  0  0  0  0  0  0  0  0  0  0  0
   49.0741   11.6873   22.4451 H   0  0  0  0  0  0  0  0  0  0  0  0
   50.6792   11.3262   20.8003 H   0  0  0  0  0  0  0  0  0  0  0  0
   49.6216   12.4378   19.9462 H   0  0  0  0  0  0  0  0  0  0  0  0
   45.6381    9.6158   20.9321 H   0  0  0  0  0  0  0  0  0  0  0  0
   46.0153    9.5674   19.2219 H   0  0  0  0  0  0  0  0  0  0  0  0
   49.8487    9.3405   23.3126 H   0  0  0  0  0  0  0  0  0  0  0  0
   50.3702    8.9922   21.6651 H   0  0  0  0  0  0  0  0  0  0  0  0
   51.0493   11.2081   17.9208 H   0  0  0  0  0  0  0  0  0  0  0  0
   45.5646   11.8592   20.1684 H   0  0  0  0  0  0  0  0  0  0  0  0
   47.0518   11.7312   19.2459 H   0  0  0  0  0  0  0  0  0  0  0  0
   50.8455    9.4076   16.2799 H   0  0  0  0  0  0  0  0  0  0  0  0
   48.3297    7.3618   23.2940 H   0  0  0  0  0  0  0  0  0  0  0  0
   49.9949    6.9142   22.9074 H   0  0  0  0  0  0  0  0  0  0  0  0
   46.8244   10.5242   22.7952 H   0  0  0  0  0  0  0  0  0  0  0  0
   47.9491   13.7498   22.1913 H   0  0  0  0  0  0  0  0  0  0  0  0
   47.9082   13.7458   20.4126 H   0  0  0  0  0  0  0  0  0  0  0  0
   46.4087   13.8216   21.3509 H   0  0  0  0  0  0  0  0  0  0  0  0
   49.7564    6.2173   14.8587 H   0  0  0  0  0  0  0  0  0  0  0  0
   49.7921    7.9786   14.7267 H   0  0  0  0  0  0  0  0  0  0  0  0
   51.0662    7.0976   15.6563 H   0  0  0  0  0  0  0  0  0  0  0  0
   50.1334   11.7944   18.3919 H   0  0  0  0  0  0  0  0  0  0  0  0
   47.0807   10.8737   22.6374 H   0  0  0  0  0  0  0  0  0  0  0  0
   46.1146    9.1193   21.4561 H   0  0  0  0  0  0  0  0  0  0  0  0
   47.3346    8.2365   22.3604 H   0  0  0  0  0  0  0  0  0  0  0  0
   51.1150    9.7393   20.0521 H   0  0  0  0  0  0  0  0  0  0  0  0
   50.9080   11.3277   20.7634 H   0  0  0  0  0  0  0  0  0  0  0  0
   46.2276   10.8672   19.6684 H   0  0  0  0  0  0  0  0  0  0  0  0
   46.1709   12.3281   20.6527 H   0  0  0  0  0  0  0  0  0  0  0  0
   46.7163    6.5223   20.2851 H   0  0  0  0  0  0  0  0  0  0  0  0
   51.1314    9.8113   22.5720 H   0  0  0  0  0  0  0  0  0  0  0  0
   50.0362    8.6249   21.8832 H   0  0  0  0  0  0  0  0  0  0  0  0
   47.5318    5.8300   18.0871 H   0  0  0  0  0  0  0  0  0  0  0  0
   46.2726   12.8644   18.2503 H   0  0  0  0  0  0  0  0  0  0  0  0
   47.7055   13.4992   19.0670 H   0  0  0  0  0  0  0  0  0  0  0  0
   49.1433   12.2655   22.0644 H   0  0  0  0  0  0  0  0  0  0  0  0
   48.1262   10.1637   24.6288 H   0  0  0  0  0  0  0  0  0  0  0  0
   49.8525    9.8459   24.6607 H   0  0  0  0  0  0  0  0  0  0  0  0
   48.7544    8.6217   24.0054 H   0  0  0  0  0  0  0  0  0  0  0  0
   49.1594    6.1259   14.8253 H   0  0  0  0  0  0  0  0  0  0  0  0
   49.1077    5.3207   16.3968 H   0  0  0  0  0  0  0  0  0  0  0  0
   47.6304    6.1007   15.7120 H   0  0  0  0  0  0  0  0  0  0  0  0
   48.5409    7.2644   19.9954 H   0  0  0  0  0  0  0  0  0  0  0  0
   48.5800    8.5608   22.0824 H   0  0  0  0  0  0  0  0  0  0  0  0
   48.2412   10.9261   17.7216 H   0  0  0  0  0  0  0  0  0  0  0  0
   48.2792   12.2282   19.8190 H   0  0  0  0  0  0  0  0  0  0  0  0
   48.4159    6.5797   16.6766 H   0  0  0  0  0  0  0  0  0  0  0  0
   48.5496   11.2426   24.1696 H   0  0  0  0  0  0  0  0  0  0  0  0
 14  7  2  0
 15  8  1  0
 16 11  1  0
 17 15  2  0
 18 13  1  0
  2 19  1  1
 20 13  2  0
 21  9  1  0
  4  7  1  0
 16  9  1  0
  6 10  1  0
 18 12  1  0
 17 14  1  0
 14 22  1  0
 22 23  1  0
  2  1  1  0
  3  1  1  0
  3  4  1  0
  5  1  1  0
  6  2  1  0
  7  5  1  0
  8  5  2  0
  6  9  1  0
 10  8  1  0
  1 11  1  1
 12  2  1  0
 13  3  1  0
 37 30  2  0
 38 31  1  0
 39 34  1  0
 40 38  2  0
 41 36  1  0
 25 42  1  6
 43 36  2  0
 44 32  1  0
 27 30  1  0
 39 32  1  0
 29 33  1  0
 41 35  1  0
 40 37  1  0
 37 45  1  0
 45 46  1  0
 25 24  1  0
 26 24  1  0
 26 27  1  0
 28 24  1  0
 29 25  1  0
 30 28  1  0
 31 28  2  0
 29 32  1  0
 33 31  1  0
 24 34  1  6
 35 25  1  0
 36 26  1  0
 48 49  1  0
 49 56  2  0
 50 47  1  0
 51 48  2  0
 52 47  2  0
 53 50  1  0
 54 53  2  0
 55 50  2  0
 56 55  1  0
 57 47  1  0
 58 48  1  0
 49 54  1  0
  3 59  1  1
  6 60  1  6
 10 61  1  0
 10 62  1  0
 11 63  1  0
 11 64  1  0
 12 65  1  0
 12 66  1  0
 15 67  1  0
 16 68  1  0
 16 69  1  0
 17 70  1  0
 18 71  1  0
 18 72  1  0
 19 73  1  0
 21 74  1  0
 21 75  1  0
 21 76  1  0
 23 77  1  0
 23 78  1  0
 23 79  1  0
 26 80  1  6
 29 81  1  1
 33 82  1  0
 33 83  1  0
 34 84  1  0
 34 85  1  0
 35 86  1  0
 35 87  1  0
 38 88  1  0
 39 89  1  0
 39 90  1  0
 40 91  1  0
 41 92  1  0
 41 93  1  0
 42 94  1  0
 44 95  1  0
 44 96  1  0
 44 97  1  0
 46 98  1  0
 46 99  1  0
 46100  1  0
 53101  1  0
 54102  1  0
 55103  1  0
 56104  1  0
 57105  1  0
 58106  1  0
M  END
> <Uni-Dock RESULT> 
ENERGY=   -5.327  LOWER_BOUND=    3.692  UPPER_BOUND=    6.366
INTER + INTRA:          -5.327
INTER:                  -5.327
INTRA:                   0.000
UNBOUND:                 0.000

$$$$

     RDKit          3D

106114  0  0  0  0  0  0  0  0999 V2000
   47.8711   10.0858   21.5482 C   0  0  2  0  0  0  0  0  0  0  0  0
   48.6395   11.2208   22.2362 C   0  0  2  0  0  0  0  0  0  0  0  0
   47.6269    8.7970   22.3432 C   0  0  1  0  0  0  0  0  0  0  0  0
   47.6038    7.7034   21.3714 O   0  0  0  0  0  0  0  0  0  0  0  0
   48.7133    9.4854   20.4773 C   0  0  0  0  0  0  0  0  0  0  0  0
   49.0310   12.2378   21.1066 C   0  0  2  0  0  0  0  0  0  0  0  0
   48.4688    8.1281   20.3855 C   0  0  0  0  0  0  0  0  0  0  0  0
   49.6381   10.1502   19.6983 C   0  0  0  0  0  0  0  0  0  0  0  0
   47.7408   12.8341   20.6314 N   0  0  0  0  0  0  0  0  0  0  0  0
   49.9455   11.5930   20.0051 C   0  0  0  0  0  0  0  0  0  0  0  0
   46.5743   10.6364   20.9074 C   0  0  0  0  0  0  0  0  0  0  0  0
   49.8216   10.7128   23.0676 C   0  0  0  0  0  0  0  0  0  0  0  0
   48.6972    8.5071   23.4126 C   0  0  0  0  0  0  0  0  0  0  0  0
   49.0808    7.3602   19.4145 C   0  0  0  0  0  0  0  0  0  0  0  0
   50.2850    9.3936   18.7236 C   0  0  0  0  0  0  0  0  0  0  0  0
   46.8441   11.8507   20.0011 C   0  0  0  0  0  0  0  0  0  0  0  0
   49.9931    8.0161   18.5709 C   0  0  0  0  0  0  0  0  0  0  0  0
   49.3482    9.6888   24.0930 C   0  0  0  0  0  0  0  0  0  0  0  0
   47.7640   11.8904   23.1670 O   0  0  0  0  0  0  0  0  0  0  0  0
   48.9730    7.3622   23.7794 O   0  0  0  0  0  0  0  0  0  0  0  0
   47.9419   13.9877   19.7550 C   0  0  0  0  0  0  0  0  0  0  0  0
   48.7500    6.0388   19.3732 O   0  0  0  0  0  0  0  0  0  0  0  0
   49.4248    5.2316   18.4192 C   0  0  0  0  0  0  0  0  0  0  0  0
   49.2400   10.6726   20.1221 C   0  0  2  0  0  0  0  0  0  0  0  0
   48.3932   11.9041   20.4664 C   0  0  2  0  0  0  0  0  0  0  0  0
   49.3403   10.2583   18.6484 C   0  0  1  0  0  0  0  0  0  0  0  0
   49.4986    8.8043   18.6329 O   0  0  0  0  0  0  0  0  0  0  0  0
   48.5615    9.4412   20.6128 C   0  0  0  0  0  0  0  0  0  0  0  0
   48.1898   11.8773   22.0225 C   0  0  2  0  0  0  0  0  0  0  0  0
   48.8014    8.3901   19.7482 C   0  0  0  0  0  0  0  0  0  0  0  0
   47.7746    9.3376   21.7417 C   0  0  0  0  0  0  0  0  0  0  0  0
   49.5451   12.1229   22.6136 N   0  0  0  0  0  0  0  0  0  0  0  0
   47.4412   10.5876   22.5129 C   0  0  0  0  0  0  0  0  0  0  0  0
   50.6273   10.7784   20.8003 C   0  0  0  0  0  0  0  0  0  0  0  0
   47.0924   11.9720   19.6591 C   0  0  0  0  0  0  0  0  0  0  0  0
   48.1119   10.6462   17.8031 C   0  0  0  0  0  0  0  0  0  0  0  0
   48.3369    7.1198   20.0285 C   0  0  0  0  0  0  0  0  0  0  0  0
   47.2780    8.0697   22.0374 C   0  0  0  0  0  0  0  0  0  0  0  0
   50.5157   11.0573   22.3099 C   0  0  0  0  0  0  0  0  0  0  0  0
   47.5745    6.9680   21.1987 C   0  0  0  0  0  0  0  0  0  0  0  0
   47.3906   11.9251   18.1640 C   0  0  0  0  0  0  0  0  0  0  0  0
   49.1291   13.0988   20.1271 O   0  0  0  0  0  0  0  0  0  0  0  0
   47.7518    9.9992   16.8176 O   0  0  0  0  0  0  0  0  0  0  0  0
   49.4926   12.3814   24.0524 C   0  0  0  0  0  0  0  0  0  0  0  0
   48.6545    6.1373   19.1394 O   0  0  0  0  0  0  0  0  0  0  0  0
   48.1257    4.8437   19.3883 C   0  0  0  0  0  0  0  0  0  0  0  0
   48.0958    7.5036   19.4987 C   0  0  0  0  0  0  0  0  0  0  0  0
   48.9395   12.7634   21.7264 C   0  0  0  0  0  0  0  0  0  0  0  0
   48.7228   11.3932   21.2010 C   0  0  0  0  0  0  0  0  0  0  0  0
   48.3152    8.8355   20.1158 C   0  0  0  0  0  0  0  0  0  0  0  0
   48.9810   13.7815   21.0614 O   0  0  0  0  0  0  0  0  0  0  0  0
   47.9266    7.2860   18.3137 O   0  0  0  0  0  0  0  0  0  0  0  0
   48.4950    8.9935   21.4963 C   0  0  0  0  0  0  0  0  0  0  0  0
   48.6980   10.2688   22.0364 C   0  0  0  0  0  0  0  0  0  0  0  0
   48.3396    9.9597   19.2801 C   0  0  0  0  0  0  0  0  0  0  0  0
   48.5433   11.2332   19.8210 C   0  0  0  0  0  0  0  0  0  0  0  0
   48.0996    6.5042   20.3985 O   0  0  0  0  0  0  0  0  0  0  0  0
   49.0932   12.7920   23.0620 O   0  0  0  0  0  0  0  0  0  0  0  0
   46.6599    8.8218   22.8597 H   0  0  0  0  0  0  0  0  0  0  0  0
   49.5919   13.0582   21.5753 H   0  0  0  0  0  0  0  0  0  0  0  0
   50.9804   11.6328   20.3699 H   0  0  0  0  0  0  0  0  0  0  0  0
   49.9203   12.1779   19.0803 H   0  0  0  0  0  0  0  0  0  0  0  0
   45.8721   10.9290   21.6987 H   0  0  0  0  0  0  0  0  0  0  0  0
   46.0586    9.8694   20.3159 H   0  0  0  0  0  0  0  0  0  0  0  0
   50.2832   11.5510   23.6029 H   0  0  0  0  0  0  0  0  0  0  0  0
   50.5978   10.2660   22.4378 H   0  0  0  0  0  0  0  0  0  0  0  0
   51.0289    9.8513   18.0751 H   0  0  0  0  0  0  0  0  0  0  0  0
   45.8795   12.3262   19.7832 H   0  0  0  0  0  0  0  0  0  0  0  0
   47.2456   11.5162   19.0369 H   0  0  0  0  0  0  0  0  0  0  0  0
   50.5198    7.4776   17.7884 H   0  0  0  0  0  0  0  0  0  0  0  0
   48.6317   10.1163   24.8015 H   0  0  0  0  0  0  0  0  0  0  0  0
   50.2088    9.3304   24.6684 H   0  0  0  0  0  0  0  0  0  0  0  0
   47.3146   12.5850   22.6367 H   0  0  0  0  0  0  0  0  0  0  0  0
   48.5986   14.7263   20.2283 H   0  0  0  0  0  0  0  0  0  0  0  0
   48.3664   13.7146   18.7834 H   0  0  0  0  0  0  0  0  0  0  0  0
   46.9860   14.4926   19.5732 H   0  0  0  0  0  0  0  0  0  0  0  0
   49.0557    4.2067   18.5249 H   0  0  0  0  0  0  0  0  0  0  0  0
   49.2046    5.5587   17.3976 H   0  0  0  0  0  0  0  0  0  0  0  0
   50.5040    5.2179   18.6054 H   0  0  0  0  0  0  0  0  0  0  0  0
   50.2139   10.7073   18.1623 H   0  0  0  0  0  0  0  0  0  0  0  0
   47.5772   12.7481   22.2943 H   0  0  0  0  0  0  0  0  0  0  0  0
   46.3649   10.7661   22.3906 H   0  0  0  0  0  0  0  0  0  0  0  0
   47.6079   10.4160   23.5813 H   0  0  0  0  0  0  0  0  0  0  0  0
   51.2169    9.8639   20.6575 H   0  0  0  0  0  0  0  0  0  0  0  0
   51.2033   11.5853   20.3284 H   0  0  0  0  0  0  0  0  0  0  0  0
   46.4113   11.1545   19.9186 H   0  0  0  0  0  0  0  0  0  0  0  0
   46.5668   12.9097   19.8787 H   0  0  0  0  0  0  0  0  0  0  0  0
   46.6474    7.9151   22.9099 H   0  0  0  0  0  0  0  0  0  0  0  0
   51.5096   11.3562   22.6681 H   0  0  0  0  0  0  0  0  0  0  0  0
   50.2635   10.1322   22.8433 H   0  0  0  0  0  0  0  0  0  0  0  0
   47.1692    6.0013   21.4817 H   0  0  0  0  0  0  0  0  0  0  0  0
   46.4481   11.9644   17.6067 H   0  0  0  0  0  0  0  0  0  0  0  0
   48.0027   12.7720   17.8391 H   0  0  0  0  0  0  0  0  0  0  0  0
   49.6615   13.3028   20.9278 H   0  0  0  0  0  0  0  0  0  0  0  0
   48.7766   13.1789   24.2789 H   0  0  0  0  0  0  0  0  0  0  0  0
   50.4687   12.7295   24.4088 H   0  0  0  0  0  0  0  0  0  0  0  0
   49.2207   11.4943   24.6332 H   0  0  0  0  0  0  0  0  0  0  0  0
   48.4536    4.1858   18.5781 H   0  0  0  0  0  0  0  0  0  0  0  0
   48.5131    4.4331   20.3262 H   0  0  0  0  0  0  0  0  0  0  0  0
   47.0311    4.8560   19.3856 H   0  0  0  0  0  0  0  0  0  0  0  0
   48.4791    8.1320   22.1607 H   0  0  0  0  0  0  0  0  0  0  0  0
   48.8364   10.3702   23.1099 H   0  0  0  0  0  0  0  0  0  0  0  0
   48.2027    9.8490   18.2055 H   0  0  0  0  0  0  0  0  0  0  0  0
   48.5604   12.0978   19.1599 H   0  0  0  0  0  0  0  0  0  0  0  0
   47.9485    5.6996   19.8583 H   0  0  0  0  0  0  0  0  0  0  0  0
   49.2252   13.7429   23.2616 H   0  0  0  0  0  0  0  0  0  0  0  0
 14  7  2  0
 15  8  1  0
 16 11  1  0
 17 15  2  0
 18 13  1  0
  2 19  1  1
 20 13  2  0
 21  9  1  0
  4  7  1  0
 16  9  1  0
  6 10  1  0
 18 12  1  0
 17 14  1  0
 14 22  1  0
 22 23  1  0
  2  1  1  0
  3  1  1  0
  3  4  1  0
  5  1  1  0
  6  2  1  0
  7  5  1  0
  8  5  2  0
  6  9  1  0
 10  8  1  0
  1 11  1  1
 12  2  1  0
 13  3  1  0
 37 30  2  0
 38 31  1  0
 39 34  1  0
 40 38  2  0
 41 36  1  0
 25 42  1  6
 43 36  2  0
 44 32  1  0
 27 30  1  0
 39 32  1  0
 29 33  1  0
 41 35  1  0
 40 37  1  0
 37 45  1  0
 45 46  1  0
 25 24  1  0
 26 24  1  0
 26 27  1  0
 28 24  1  0
 29 25  1  0
 30 28  1  0
 31 28  2  0
 29 32  1  0
 33 31  1  0
 24 34  1  6
 35 25  1  0
 36 26  1  0
 48 49  1  0
 49 56  2  0
 50 47  1  0
 51 48  2  0
 52 47  2  0
 53 50  1  0
 54 53  2  0
 55 50  2  0
 56 55  1  0
 57 47  1  0
 58 48  1  0
 49 54  1  0
  3 59  1  1
  6 60  1  6
 10 61  1  0
 10 62  1  0
 11 63  1  0
 11 64  1  0
 12 65  1  0
 12 66  1  0
 15 67  1  0
 16 68  1  0
 16 69  1  0
 17 70  1  0
 18 71  1  0
 18 72  1  0
 19 73  1  0
 21 74  1  0
 21 75  1  0
 21 76  1  0
 23 77  1  0
 23 78  1  0
 23 79  1  0
 26 80  1  6
 29 81  1  1
 33 82  1  0
 33 83  1  0
 34 84  1  0
 34 85  1  0
 35 86  1  0
 35 87  1  0
 38 88  1  0
 39 89  1  0
 39 90  1  0
 40 91  1  0
 41 92  1  0
 41 93  1  0
 42 94  1  0
 44 95  1  0
 44 96  1  0
 44 97  1  0
 46 98  1  0
 46 99  1  0
 46100  1  0
 53101  1  0
 54102  1  0
 55103  1  0
 56104  1  0
 57105  1  0
 58106  1  0
M  END
> <Uni-Dock RESULT> 
ENERGY=   -5.224  LOWER_BOUND=    3.386  UPPER_BOUND=    6.778
INTER + INTRA:          -5.224
INTER:                  -5.224
INTRA:                   0.000
UNBOUND:                 0.000

$$$$

     RDKit          3D

106114  0  0  0  0  0  0  0  0999 V2000
   51.2295    7.2238   17.6783 C   0  0  2  0  0  0  0  0  0  0  0  0
   50.3678    8.1196   16.7799 C   0  0  2  0  0  0  0  0  0  0  0  0
   52.6833    6.9708   17.2599 C   0  0  1  0  0  0  0  0  0  0  0  0
   53.0299    5.6322   17.7383 O   0  0  0  0  0  0  0  0  0  0  0  0
   50.7611    5.8141   17.5802 C   0  0  0  0  0  0  0  0  0  0  0  0
   48.8838    7.9211   17.2508 C   0  0  2  0  0  0  0  0  0  0  0  0
   51.8340    4.9487   17.6824 C   0  0  0  0  0  0  0  0  0  0  0  0
   49.4605    5.3991   17.3796 C   0  0  0  0  0  0  0  0  0  0  0  0
   48.8107    8.5134   18.6256 N   0  0  0  0  0  0  0  0  0  0  0  0
   48.3997    6.4342   17.1085 C   0  0  0  0  0  0  0  0  0  0  0  0
   51.1127    7.6824   19.1519 C   0  0  0  0  0  0  0  0  0  0  0  0
   50.5991    7.8556   15.2888 C   0  0  0  0  0  0  0  0  0  0  0  0
   52.9210    7.0472   15.7398 C   0  0  0  0  0  0  0  0  0  0  0  0
   51.6451    3.5807   17.6899 C   0  0  0  0  0  0  0  0  0  0  0  0
   49.2452    4.0227   17.3626 C   0  0  0  0  0  0  0  0  0  0  0  0
   49.6479    7.8049   19.6082 C   0  0  0  0  0  0  0  0  0  0  0  0
   50.3255    3.1234   17.5367 C   0  0  0  0  0  0  0  0  0  0  0  0
   52.0757    8.0147   14.9445 C   0  0  0  0  0  0  0  0  0  0  0  0
   50.7324    9.4987   16.9956 O   0  0  0  0  0  0  0  0  0  0  0  0
   53.8184    6.4144   15.1778 O   0  0  0  0  0  0  0  0  0  0  0  0
   47.4374    8.6412   19.1121 C   0  0  0  0  0  0  0  0  0  0  0  0
   52.7561    2.8050   17.8347 O   0  0  0  0  0  0  0  0  0  0  0  0
   52.5755    1.3974   17.7778 C   0  0  0  0  0  0  0  0  0  0  0  0
   49.4652    6.1712   17.5009 C   0  0  2  0  0  0  0  0  0  0  0  0
   49.1153    7.5373   18.1036 C   0  0  2  0  0  0  0  0  0  0  0  0
   49.0078    4.9150   18.2532 C   0  0  1  0  0  0  0  0  0  0  0  0
   50.0023    3.8781   17.9790 O   0  0  0  0  0  0  0  0  0  0  0  0
   50.9303    5.9301   17.6156 C   0  0  0  0  0  0  0  0  0  0  0  0
   49.9871    8.5933   17.3364 C   0  0  2  0  0  0  0  0  0  0  0  0
   51.1755    4.5863   17.8253 C   0  0  0  0  0  0  0  0  0  0  0  0
   51.9220    6.8880   17.5589 C   0  0  0  0  0  0  0  0  0  0  0  0
   49.4635    8.6090   15.9320 N   0  0  0  0  0  0  0  0  0  0  0  0
   51.5276    8.3404   17.5008 C   0  0  0  0  0  0  0  0  0  0  0  0
   49.0727    6.1374   16.0040 C   0  0  0  0  0  0  0  0  0  0  0  0
   49.2764    7.5705   19.6271 C   0  0  0  0  0  0  0  0  0  0  0  0
   48.8801    5.1083   19.7766 C   0  0  0  0  0  0  0  0  0  0  0  0
   52.4674    4.1019   17.8907 C   0  0  0  0  0  0  0  0  0  0  0  0
   53.2345    6.4275   17.6410 C   0  0  0  0  0  0  0  0  0  0  0  0
   49.6530    7.3310   15.2246 C   0  0  0  0  0  0  0  0  0  0  0  0
   53.5036    5.0447   17.7848 C   0  0  0  0  0  0  0  0  0  0  0  0
   48.4448    6.4679   20.2746 C   0  0  0  0  0  0  0  0  0  0  0  0
   47.7245    7.8286   17.8490 O   0  0  0  0  0  0  0  0  0  0  0  0
   49.0463    4.1881   20.5798 O   0  0  0  0  0  0  0  0  0  0  0  0
   49.9971    9.7209   15.1454 C   0  0  0  0  0  0  0  0  0  0  0  0
   52.6139    2.7580   18.0606 O   0  0  0  0  0  0  0  0  0  0  0  0
   53.9377    2.2630   18.1933 C   0  0  0  0  0  0  0  0  0  0  0  0
   52.0377    4.1116   18.4396 C   0  0  0  0  0  0  0  0  0  0  0  0
   48.8392    8.7018   17.0117 C   0  0  0  0  0  0  0  0  0  0  0  0
   49.6977    7.5400   17.3485 C   0  0  0  0  0  0  0  0  0  0  0  0
   51.2508    5.3056   18.0419 C   0  0  0  0  0  0  0  0  0  0  0  0
   47.7430    8.9367   17.4848 O   0  0  0  0  0  0  0  0  0  0  0  0
   51.7004    3.2750   19.2561 O   0  0  0  0  0  0  0  0  0  0  0  0
   51.7224    6.2234   17.0942 C   0  0  0  0  0  0  0  0  0  0  0  0
   50.9476    7.3369   16.7492 C   0  0  0  0  0  0  0  0  0  0  0  0
   50.0011    5.5084   18.6416 C   0  0  0  0  0  0  0  0  0  0  0  0
   49.2277    6.6210   18.2955 C   0  0  0  0  0  0  0  0  0  0  0  0
   53.2131    4.0217   17.7927 O   0  0  0  0  0  0  0  0  0  0  0  0
   49.3968    9.5152   16.0974 O   0  0  0  0  0  0  0  0  0  0  0  0
   53.3656    7.6923   17.7252 H   0  0  0  0  0  0  0  0  0  0  0  0
   48.2445    8.5481   16.6141 H   0  0  0  0  0  0  0  0  0  0  0  0
   48.0671    6.2928   16.0717 H   0  0  0  0  0  0  0  0  0  0  0  0
   47.5286    6.2412   17.7424 H   0  0  0  0  0  0  0  0  0  0  0  0
   51.6077    8.6548   19.2718 H   0  0  0  0  0  0  0  0  0  0  0  0
   51.6318    6.9948   19.8315 H   0  0  0  0  0  0  0  0  0  0  0  0
   50.0252    8.5756   14.6935 H   0  0  0  0  0  0  0  0  0  0  0  0
   50.2625    6.8554   14.9973 H   0  0  0  0  0  0  0  0  0  0  0  0
   48.2454    3.6237   17.2060 H   0  0  0  0  0  0  0  0  0  0  0  0
   49.6383    8.3551   20.5574 H   0  0  0  0  0  0  0  0  0  0  0  0
   49.2395    6.8106   19.8261 H   0  0  0  0  0  0  0  0  0  0  0  0
   50.0982    2.0613   17.5248 H   0  0  0  0  0  0  0  0  0  0  0  0
   52.4372    9.0292   15.1395 H   0  0  0  0  0  0  0  0  0  0  0  0
   52.2211    7.8109   13.8779 H   0  0  0  0  0  0  0  0  0  0  0  0
   50.1691    9.7952   17.7443 H   0  0  0  0  0  0  0  0  0  0  0  0
   46.8163    9.1798   18.3875 H   0  0  0  0  0  0  0  0  0  0  0  0
   46.9692    7.6741   19.3229 H   0  0  0  0  0  0  0  0  0  0  0  0
   47.4194    9.2308   20.0361 H   0  0  0  0  0  0  0  0  0  0  0  0
   53.5565    0.9275   17.8978 H   0  0  0  0  0  0  0  0  0  0  0  0
   51.9385    1.0469   18.5967 H   0  0  0  0  0  0  0  0  0  0  0  0
   52.1748    1.0891   16.8062 H   0  0  0  0  0  0  0  0  0  0  0  0
   48.0331    4.5638   17.8957 H   0  0  0  0  0  0  0  0  0  0  0  0
   49.7598    9.5828   17.7567 H   0  0  0  0  0  0  0  0  0  0  0  0
   51.8360    8.7980   18.4499 H   0  0  0  0  0  0  0  0  0  0  0  0
   52.0971    8.8449   16.7135 H   0  0  0  0  0  0  0  0  0  0  0  0
   49.4058    5.2102   15.5205 H   0  0  0  0  0  0  0  0  0  0  0  0
   47.9785    6.1483   15.9137 H   0  0  0  0  0  0  0  0  0  0  0  0
   50.3238    7.4575   19.9265 H   0  0  0  0  0  0  0  0  0  0  0  0
   48.9338    8.5373   20.0165 H   0  0  0  0  0  0  0  0  0  0  0  0
   54.0666    7.1272   17.6070 H   0  0  0  0  0  0  0  0  0  0  0  0
   49.1446    7.3733   14.2524 H   0  0  0  0  0  0  0  0  0  0  0  0
   50.7142    7.1554   15.0076 H   0  0  0  0  0  0  0  0  0  0  0  0
   54.5447    4.7408   17.8343 H   0  0  0  0  0  0  0  0  0  0  0  0
   48.5823    6.5030   21.3610 H   0  0  0  0  0  0  0  0  0  0  0  0
   47.3758    6.5854   20.0724 H   0  0  0  0  0  0  0  0  0  0  0  0
   47.7160    8.2696   16.9706 H   0  0  0  0  0  0  0  0  0  0  0  0
   49.8500   10.6728   15.6671 H   0  0  0  0  0  0  0  0  0  0  0  0
   49.4596    9.8016   14.1937 H   0  0  0  0  0  0  0  0  0  0  0  0
   51.0624    9.6085   14.9200 H   0  0  0  0  0  0  0  0  0  0  0  0
   53.8776    1.1810   18.3433 H   0  0  0  0  0  0  0  0  0  0  0  0
   54.5180    2.4397   17.2821 H   0  0  0  0  0  0  0  0  0  0  0  0
   54.4358    2.6936   19.0678 H   0  0  0  0  0  0  0  0  0  0  0  0
   52.6905    6.0823   16.6180 H   0  0  0  0  0  0  0  0  0  0  0  0
   51.3308    8.0370   16.0110 H   0  0  0  0  0  0  0  0  0  0  0  0
   49.6235    4.8010   19.3784 H   0  0  0  0  0  0  0  0  0  0  0  0
   48.2583    6.7660   18.7691 H   0  0  0  0  0  0  0  0  0  0  0  0
   53.6156    3.2006   18.1474 H   0  0  0  0  0  0  0  0  0  0  0  0
   48.7291   10.2231   15.9765 H   0  0  0  0  0  0  0  0  0  0  0  0
 14  7  2  0
 15  8  1  0
 16 11  1  0
 17 15  2  0
 18 13  1  0
  2 19  1  1
 20 13  2  0
 21  9  1  0
  4  7  1  0
 16  9  1  0
  6 10  1  0
 18 12  1  0
 17 14  1  0
 14 22  1  0
 22 23  1  0
  2  1  1  0
  3  1  1  0
  3  4  1  0
  5  1  1  0
  6  2  1  0
  7  5  1  0
  8  5  2  0
  6  9  1  0
 10  8  1  0
  1 11  1  1
 12  2  1  0
 13  3  1  0
 37 30  2  0
 38 31  1  0
 39 34  1  0
 40 38  2  0
 41 36  1  0
 25 42  1  6
 43 36  2  0
 44 32  1  0
 27 30  1  0
 39 32  1  0
 29 33  1  0
 41 35  1  0
 40 37  1  0
 37 45  1  0
 45 46  1  0
 25 24  1  0
 26 24  1  0
 26 27  1  0
 28 24  1  0
 29 25  1  0
 30 28  1  0
 31 28  2  0
 29 32  1  0
 33 31  1  0
 24 34  1  6
 35 25  1  0
 36 26  1  0
 48 49  1  0
 49 56  2  0
 50 47  1  0
 51 48  2  0
 52 47  2  0
 53 50  1  0
 54 53  2  0
 55 50  2  0
 56 55  1  0
 57 47  1  0
 58 48  1  0
 49 54  1  0
  3 59  1  1
  6 60  1  6
 10 61  1  0
 10 62  1  0
 11 63  1  0
 11 64  1  0
 12 65  1  0
 12 66  1  0
 15 67  1  0
 16 68  1  0
 16 69  1  0
 17 70  1  0
 18 71  1  0
 18 72  1  0
 19 73  1  0
 21 74  1  0
 21 75  1  0
 21 76  1  0
 23 77  1  0
 23 78  1  0
 23 79  1  0
 26 80  1  6
 29 81  1  1
 33 82  1  0
 33 83  1  0
 34 84  1  0
 34 85  1  0
 35 86  1  0
 35 87  1  0
 38 88  1  0
 39 89  1  0
 39 90  1  0
 40 91  1  0
 41 92  1  0
 41 93  1  0
 42 94  1  0
 44 95  1  0
 44 96  1  0
 44 97  1  0
 46 98  1  0
 46 99  1  0
 46100  1  0
 53101  1  0
 54102  1  0
 55103  1  0
 56104  1  0
 57105  1  0
 58106  1  0
M  END
> <Uni-Dock RESULT> 
ENERGY=   -5.156  LOWER_BOUND=    2.036  UPPER_BOUND=    3.620
INTER + INTRA:          -5.156
INTER:                  -5.156
INTRA:                   0.000
UNBOUND:                 0.000

$$$$
