
     RDKit          3D

106114  0  0  0  0  0  0  0  0999 V2000
   49.6833    9.3418   21.3898 C   0  0  2  0  0  0  0  0  0  0  0  0
   48.9418    8.8397   22.6418 C   0  0  2  0  0  0  0  0  0  0  0  0
   50.8624   10.3055   21.6084 C   0  0  1  0  0  0  0  0  0  0  0  0
   50.7623   11.4098   20.6798 O   0  0  0  0  0  0  0  0  0  0  0  0
   48.7658   10.2925   20.6911 C   0  0  0  0  0  0  0  0  0  0  0  0
   47.6523    8.1018   22.0835 C   0  0  2  0  0  0  0  0  0  0  0  0
   49.4545   11.4083   20.2598 C   0  0  0  0  0  0  0  0  0  0  0  0
   47.3902   10.1782   20.5884 C   0  0  0  0  0  0  0  0  0  0  0  0
   47.9377    7.0352   21.0796 N   0  0  0  0  0  0  0  0  0  0  0  0
   46.6802    9.0902   21.3556 C   0  0  0  0  0  0  0  0  0  0  0  0
   50.0697    8.1780   20.4405 C   0  0  0  0  0  0  0  0  0  0  0  0
   48.5917    9.9535   23.6722 C   0  0  0  0  0  0  0  0  0  0  0  0
   50.8856   10.7663   23.0619 C   0  0  0  0  0  0  0  0  0  0  0  0
   48.8184   12.4168   19.5592 C   0  0  0  0  0  0  0  0  0  0  0  0
   46.7236   11.1827   19.8882 C   0  0  0  0  0  0  0  0  0  0  0  0
   49.3519    6.8583   20.7565 C   0  0  0  0  0  0  0  0  0  0  0  0
   47.4373   12.2781   19.3544 C   0  0  0  0  0  0  0  0  0  0  0  0
   49.5603   11.1420   23.6757 C   0  0  0  0  0  0  0  0  0  0  0  0
   49.7572    7.8875   23.3549 O   0  0  0  0  0  0  0  0  0  0  0  0
   51.9173   10.7573   23.7351 O   0  0  0  0  0  0  0  0  0  0  0  0
   47.3320    5.7611   21.4605 C   0  0  0  0  0  0  0  0  0  0  0  0
   49.5887   13.4736   19.1706 O   0  0  0  0  0  0  0  0  0  0  0  0
   48.9497   14.4851   18.4035 C   0  0  0  0  0  0  0  0  0  0  0  0
   49.6159    9.5976   20.4240 C   0  0  2  0  0  0  0  0  0  0  0  0
   48.9479   10.8157   19.7758 C   0  0  2  0  0  0  0  0  0  0  0  0
   49.4839    8.2374   19.7195 C   0  0  1  0  0  0  0  0  0  0  0  0
   49.4959    7.2146   20.7608 O   0  0  0  0  0  0  0  0  0  0  0  0
   48.8507    9.2142   21.6542 C   0  0  0  0  0  0  0  0  0  0  0  0
   48.9230   11.9227   20.8966 C   0  0  2  0  0  0  0  0  0  0  0  0
   48.8826    7.8414   21.8252 C   0  0  0  0  0  0  0  0  0  0  0  0
   48.1511   10.0643   22.4905 C   0  0  0  0  0  0  0  0  0  0  0  0
   50.2485   12.1980   21.5153 N   0  0  0  0  0  0  0  0  0  0  0  0
   47.9981   11.5129   22.0939 C   0  0  0  0  0  0  0  0  0  0  0  0
   51.0810    9.9045   20.8402 C   0  0  0  0  0  0  0  0  0  0  0  0
   47.5500   10.4744   19.2206 C   0  0  0  0  0  0  0  0  0  0  0  0
   48.2140    8.0847   18.8580 C   0  0  0  0  0  0  0  0  0  0  0  0
   48.3038    7.2449   22.9291 C   0  0  0  0  0  0  0  0  0  0  0  0
   47.5375    9.4843   23.5995 C   0  0  0  0  0  0  0  0  0  0  0  0
   51.3806   11.3978   21.0713 C   0  0  0  0  0  0  0  0  0  0  0  0
   47.6274    8.0896   23.8253 C   0  0  0  0  0  0  0  0  0  0  0  0
   47.6383    9.3284   18.2179 C   0  0  0  0  0  0  0  0  0  0  0  0
   49.6528   11.2888   18.6141 O   0  0  0  0  0  0  0  0  0  0  0  0
   47.7283    6.9823   18.5946 O   0  0  0  0  0  0  0  0  0  0  0  0
   50.5627   13.6233   21.5428 C   0  0  0  0  0  0  0  0  0  0  0  0
   48.4224    5.8905   23.0302 O   0  0  0  0  0  0  0  0  0  0  0  0
   47.9475    5.2887   24.2244 C   0  0  0  0  0  0  0  0  0  0  0  0
   49.0335   12.6158   20.5932 C   0  0  0  0  0  0  0  0  0  0  0  0
   48.4405    7.0223   21.8994 C   0  0  0  0  0  0  0  0  0  0  0  0
   48.5690    8.4607   21.5588 C   0  0  0  0  0  0  0  0  0  0  0  0
   48.9044   11.1777   20.9303 C   0  0  0  0  0  0  0  0  0  0  0  0
   49.3587    6.2674   22.1599 O   0  0  0  0  0  0  0  0  0  0  0  0
   48.1220   13.3583   20.2793 O   0  0  0  0  0  0  0  0  0  0  0  0
   50.0154   10.3879   21.2499 C   0  0  0  0  0  0  0  0  0  0  0  0
   49.8480    9.0341   21.5632 C   0  0  0  0  0  0  0  0  0  0  0  0
   47.6251   10.6049   20.9293 C   0  0  0  0  0  0  0  0  0  0  0  0
   47.4578    9.2493   21.2360 C   0  0  0  0  0  0  0  0  0  0  0  0
   50.3010   13.0574   20.6702 O   0  0  0  0  0  0  0  0  0  0  0  0
   47.1629    6.6021   21.9073 O   0  0  0  0  0  0  0  0  0  0  0  0
   51.8244    9.8122   21.4247 H   0  0  0  0  0  0  0  0  0  0  0  0
   47.1266    7.6605   22.9412 H   0  0  0  0  0  0  0  0  0  0  0  0
   46.0497    9.5706   22.1156 H   0  0  0  0  0  0  0  0  0  0  0  0
   45.9987    8.5499   20.6861 H   0  0  0  0  0  0  0  0  0  0  0  0
   51.1466    7.9691   20.5062 H   0  0  0  0  0  0  0  0  0  0  0  0
   49.8751    8.4469   19.3931 H   0  0  0  0  0  0  0  0  0  0  0  0
   47.5812   10.3545   23.5256 H   0  0  0  0  0  0  0  0  0  0  0  0
   48.5835    9.5112   24.6803 H   0  0  0  0  0  0  0  0  0  0  0  0
   45.6439   11.1408   19.7608 H   0  0  0  0  0  0  0  0  0  0  0  0
   49.8806    6.3310   21.5621 H   0  0  0  0  0  0  0  0  0  0  0  0
   49.4430    6.2107   19.8731 H   0  0  0  0  0  0  0  0  0  0  0  0
   46.8689   13.0304   18.8171 H   0  0  0  0  0  0  0  0  0  0  0  0
   49.1482   11.9840   23.1091 H   0  0  0  0  0  0  0  0  0  0  0  0
   49.7154   11.4991   24.7002 H   0  0  0  0  0  0  0  0  0  0  0  0
   50.4822    8.3418   23.8269 H   0  0  0  0  0  0  0  0  0  0  0  0
   47.4734    5.0156   20.6717 H   0  0  0  0  0  0  0  0  0  0  0  0
   47.7566    5.3653   22.3882 H   0  0  0  0  0  0  0  0  0  0  0  0
   46.2509    5.8749   21.5961 H   0  0  0  0  0  0  0  0  0  0  0  0
   48.1496   14.9658   18.9759 H   0  0  0  0  0  0  0  0  0  0  0  0
   48.5713   14.0802   17.4587 H   0  0  0  0  0  0  0  0  0  0  0  0
   49.6948   15.2518   18.1679 H   0  0  0  0  0  0  0  0  0  0  0  0
   50.3327    8.0518   19.0506 H   0  0  0  0  0  0  0  0  0  0  0  0
   48.5296   12.8458   20.4483 H   0  0  0  0  0  0  0  0  0  0  0  0
   48.1799   12.1592   22.9634 H   0  0  0  0  0  0  0  0  0  0  0  0
   46.9538   11.6735   21.7982 H   0  0  0  0  0  0  0  0  0  0  0  0
   51.7659    9.5555   20.0543 H   0  0  0  0  0  0  0  0  0  0  0  0
   51.3563    9.3476   21.7478 H   0  0  0  0  0  0  0  0  0  0  0  0
   47.1310   11.3514   18.7109 H   0  0  0  0  0  0  0  0  0  0  0  0
   46.8413   10.2001   20.0077 H   0  0  0  0  0  0  0  0  0  0  0  0
   46.9620   10.0982   24.2886 H   0  0  0  0  0  0  0  0  0  0  0  0
   52.1819   11.4644   21.8225 H   0  0  0  0  0  0  0  0  0  0  0  0
   51.8138   11.8230   20.1559 H   0  0  0  0  0  0  0  0  0  0  0  0
   47.1268    7.6929   24.7036 H   0  0  0  0  0  0  0  0  0  0  0  0
   46.6327    9.0948   17.8502 H   0  0  0  0  0  0  0  0  0  0  0  0
   48.2517    9.5900   17.3483 H   0  0  0  0  0  0  0  0  0  0  0  0
   50.6148   11.2377   18.7473 H   0  0  0  0  0  0  0  0  0  0  0  0
   50.7071   14.0250   20.5330 H   0  0  0  0  0  0  0  0  0  0  0  0
   49.7590   14.1854   22.0321 H   0  0  0  0  0  0  0  0  0  0  0  0
   51.4733   13.8084   22.1238 H   0  0  0  0  0  0  0  0  0  0  0  0
   46.8617    5.3889   24.3093 H   0  0  0  0  0  0  0  0  0  0  0  0
   48.4512    5.7031   25.1020 H   0  0  0  0  0  0  0  0  0  0  0  0
   48.1790    4.2206   24.1803 H   0  0  0  0  0  0  0  0  0  0  0  0
   51.0160   10.8133   21.2612 H   0  0  0  0  0  0  0  0  0  0  0  0
   50.7191    8.4297   21.8134 H   0  0  0  0  0  0  0  0  0  0  0  0
   46.7532   11.2100   20.6846 H   0  0  0  0  0  0  0  0  0  0  0  0
   46.4566    8.8231   21.2292 H   0  0  0  0  0  0  0  0  0  0  0  0
   50.2351   14.0037   20.4243 H   0  0  0  0  0  0  0  0  0  0  0  0
   47.2276    5.6545   22.1482 H   0  0  0  0  0  0  0  0  0  0  0  0
 14  7  2  0
 15  8  1  0
 16 11  1  0
 17 15  2  0
 18 13  1  0
  2 19  1  1
 20 13  2  0
 21  9  1  0
  4  7  1  0
 16  9  1  0
  6 10  1  0
 18 12  1  0
 17 14  1  0
 14 22  1  0
 22 23  1  0
  2  1  1  0
  3  1  1  0
  3  4  1  0
  5  1  1  0
  6  2  1  0
  7  5  1  0
  8  5  2  0
  6  9  1  0
 10  8  1  0
  1 11  1  1
 12  2  1  0
 13  3  1  0
 37 30  2  0
 38 31  1  0
 39 34  1  0
 40 38  2  0
 41 36  1  0
 25 42  1  1
 43 36  2  0
 44 32  1  0
 27 30  1  0
 39 32  1  0
 29 33  1  0
 41 35  1  0
 40 37  1  0
 37 45  1  0
 45 46  1  0
 25 24  1  0
 26 24  1  0
 26 27  1  0
 28 24  1  0
 29 25  1  0
 30 28  1  0
 31 28  2  0
 29 32  1  0
 33 31  1  0
 24 34  1  1
 35 25  1  0
 36 26  1  0
 48 49  1  0
 49 56  2  0
 50 47  1  0
 51 48  2  0
 52 47  2  0
 53 50  1  0
 54 53  2  0
 55 50  2  0
 56 55  1  0
 57 47  1  0
 58 48  1  0
 49 54  1  0
  3 59  1  1
  6 60  1  6
 10 61  1  0
 10 62  1  0
 11 63  1  0
 11 64  1  0
 12 65  1  0
 12 66  1  0
 15 67  1  0
 16 68  1  0
 16 69  1  0
 17 70  1  0
 18 71  1  0
 18 72  1  0
 19 73  1  0
 21 74  1  0
 21 75  1  0
 21 76  1  0
 23 77  1  0
 23 78  1  0
 23 79  1  0
 26 80  1  1
 29 81  1  6
 33 82  1  0
 33 83  1  0
 34 84  1  0
 34 85  1  0
 35 86  1  0
 35 87  1  0
 38 88  1  0
 39 89  1  0
 39 90  1  0
 40 91  1  0
 41 92  1  0
 41 93  1  0
 42 94  1  0
 44 95  1  0
 44 96  1  0
 44 97  1  0
 46 98  1  0
 46 99  1  0
 46100  1  0
 53101  1  0
 54102  1  0
 55103  1  0
 56104  1  0
 57105  1  0
 58106  1  0
M  END
> <Uni-Dock RESULT> 
ENERGY=   -5.005  LOWER_BOUND=    0.000  UPPER_BOUND=    0.000
INTER + INTRA:          -5.005
INTER:                  -5.005
INTRA:                   0.000
UNBOUND:                 0.000

$$$$

     RDKit          3D

106114  0  0  0  0  0  0  0  0999 V2000
   49.7622    9.8870   20.9947 C   0  0  2  0  0  0  0  0  0  0  0  0
   48.8927    9.0464   21.9471 C   0  0  2  0  0  0  0  0  0  0  0  0
   50.9760   10.6106   21.6028 C   0  0  1  0  0  0  0  0  0  0  0  0
   51.0186   11.9730   21.1190 O   0  0  0  0  0  0  0  0  0  0  0  0
   48.9636   11.0957   20.6270 C   0  0  0  0  0  0  0  0  0  0  0  0
   47.6103    8.6611   21.0952 C   0  0  2  0  0  0  0  0  0  0  0  0
   49.7513   12.2289   20.6549 C   0  0  0  0  0  0  0  0  0  0  0  0
   47.5964   11.1418   20.4158 C   0  0  0  0  0  0  0  0  0  0  0  0
   47.9107    7.9894   19.7969 N   0  0  0  0  0  0  0  0  0  0  0  0
   46.7619    9.9197   20.7105 C   0  0  0  0  0  0  0  0  0  0  0  0
   50.1528    9.0970   19.7187 C   0  0  0  0  0  0  0  0  0  0  0  0
   48.5286    9.7585   23.2832 C   0  0  0  0  0  0  0  0  0  0  0  0
   50.9095   10.5341   23.1244 C   0  0  0  0  0  0  0  0  0  0  0  0
   49.2363   13.4682   20.3211 C   0  0  0  0  0  0  0  0  0  0  0  0
   47.0507   12.3798   20.0795 C   0  0  0  0  0  0  0  0  0  0  0  0
   49.3331    7.8160   19.5097 C   0  0  0  0  0  0  0  0  0  0  0  0
   47.8704   13.5274   20.0056 C   0  0  0  0  0  0  0  0  0  0  0  0
   49.5641   10.7847   23.7581 C   0  0  0  0  0  0  0  0  0  0  0  0
   49.5886    7.8401   22.3220 O   0  0  0  0  0  0  0  0  0  0  0  0
   51.8808   10.2041   23.8064 O   0  0  0  0  0  0  0  0  0  0  0  0
   47.2000    6.7189   19.6707 C   0  0  0  0  0  0  0  0  0  0  0  0
   50.0982   14.5245   20.3724 O   0  0  0  0  0  0  0  0  0  0  0  0
   49.5859   15.7899   19.9775 C   0  0  0  0  0  0  0  0  0  0  0  0
   49.7888   10.4672   20.1789 C   0  0  2  0  0  0  0  0  0  0  0  0
   49.2506   11.8867   19.9662 C   0  0  2  0  0  0  0  0  0  0  0  0
   49.6319    9.4528   19.0342 C   0  0  1  0  0  0  0  0  0  0  0  0
   49.4976    8.1349   19.6472 O   0  0  0  0  0  0  0  0  0  0  0  0
   48.9048    9.7470   21.1514 C   0  0  0  0  0  0  0  0  0  0  0  0
   49.2022   12.5333   21.4021 C   0  0  2  0  0  0  0  0  0  0  0  0
   48.8394    8.4029   20.8291 C   0  0  0  0  0  0  0  0  0  0  0  0
   48.1926   10.3099   22.1942 C   0  0  0  0  0  0  0  0  0  0  0  0
   50.4875   12.4626   22.1493 N   0  0  0  0  0  0  0  0  0  0  0  0
   48.1603   11.8136   22.3259 C   0  0  0  0  0  0  0  0  0  0  0  0
   51.2313   10.4844   20.7557 C   0  0  0  0  0  0  0  0  0  0  0  0
   47.8839   11.8799   19.2511 C   0  0  0  0  0  0  0  0  0  0  0  0
   48.4289    9.7176   18.1063 C   0  0  0  0  0  0  0  0  0  0  0  0
   48.1381    7.5117   21.6186 C   0  0  0  0  0  0  0  0  0  0  0  0
   47.4573    9.4354   22.9925 C   0  0  0  0  0  0  0  0  0  0  0  0
   51.6012   11.7731   21.5142 C   0  0  0  0  0  0  0  0  0  0  0  0
   47.4439    8.0469   22.7168 C   0  0  0  0  0  0  0  0  0  0  0  0
   47.9834   11.1504   17.9152 C   0  0  0  0  0  0  0  0  0  0  0  0
   50.0744   12.6719   19.0860 O   0  0  0  0  0  0  0  0  0  0  0  0
   47.9002    8.8210   17.4452 O   0  0  0  0  0  0  0  0  0  0  0  0
   50.8844   13.7574   22.6945 C   0  0  0  0  0  0  0  0  0  0  0  0
   48.1657    6.2016   21.2422 O   0  0  0  0  0  0  0  0  0  0  0  0
   47.5602    5.2653   22.1199 C   0  0  0  0  0  0  0  0  0  0  0  0
   49.3787   13.2766   21.3689 C   0  0  0  0  0  0  0  0  0  0  0  0
   48.3438    7.6498   20.5856 C   0  0  0  0  0  0  0  0  0  0  0  0
   48.5865    9.1004   20.7814 C   0  0  0  0  0  0  0  0  0  0  0  0
   49.1358   11.8275   21.1700 C   0  0  0  0  0  0  0  0  0  0  0  0
   49.1905    6.7761   20.6129 O   0  0  0  0  0  0  0  0  0  0  0  0
   48.5423   14.1566   21.2877 O   0  0  0  0  0  0  0  0  0  0  0  0
   50.1673   10.8843   21.2508 C   0  0  0  0  0  0  0  0  0  0  0  0
   49.8933    9.5254   21.0572 C   0  0  0  0  0  0  0  0  0  0  0  0
   47.8284   11.4018   20.8975 C   0  0  0  0  0  0  0  0  0  0  0  0
   47.5549   10.0437   20.6972 C   0  0  0  0  0  0  0  0  0  0  0  0
   50.6603   13.5542   21.6656 O   0  0  0  0  0  0  0  0  0  0  0  0
   47.0467    7.3635   20.3753 O   0  0  0  0  0  0  0  0  0  0  0  0
   51.9180   10.1319   21.3097 H   0  0  0  0  0  0  0  0  0  0  0  0
   46.9911    7.9958   21.7123 H   0  0  0  0  0  0  0  0  0  0  0  0
   46.1024   10.1581   21.5555 H   0  0  0  0  0  0  0  0  0  0  0  0
   46.1054    9.7058   19.8574 H   0  0  0  0  0  0  0  0  0  0  0  0
   51.2062    8.7873   19.7651 H   0  0  0  0  0  0  0  0  0  0  0  0
   50.0602    9.7285   18.8243 H   0  0  0  0  0  0  0  0  0  0  0  0
   47.5596   10.2700   23.2325 H   0  0  0  0  0  0  0  0  0  0  0  0
   48.4121    8.9961   24.0686 H   0  0  0  0  0  0  0  0  0  0  0  0
   45.9844   12.4769   19.8868 H   0  0  0  0  0  0  0  0  0  0  0  0
   49.7619    6.9987   20.1053 H   0  0  0  0  0  0  0  0  0  0  0  0
   49.4559    7.5103   18.4611 H   0  0  0  0  0  0  0  0  0  0  0  0
   47.3940   14.4650   19.7378 H   0  0  0  0  0  0  0  0  0  0  0  0
   49.2510   11.8029   23.5031 H   0  0  0  0  0  0  0  0  0  0  0  0
   49.6572   10.7492   24.8495 H   0  0  0  0  0  0  0  0  0  0  0  0
   50.2992    8.0386   22.9626 H   0  0  0  0  0  0  0  0  0  0  0  0
   47.3593    6.2846   18.6787 H   0  0  0  0  0  0  0  0  0  0  0  0
   47.5234    5.9909   20.4210 H   0  0  0  0  0  0  0  0  0  0  0  0
   46.1204    6.8701   19.7786 H   0  0  0  0  0  0  0  0  0  0  0  0
   48.7727   16.1081   20.6381 H   0  0  0  0  0  0  0  0  0  0  0  0
   49.2612   15.7722   18.9315 H   0  0  0  0  0  0  0  0  0  0  0  0
   50.3927   16.5243   20.0682 H   0  0  0  0  0  0  0  0  0  0  0  0
   50.5192    9.4395   18.3900 H   0  0  0  0  0  0  0  0  0  0  0  0
   48.9031   13.5846   21.2872 H   0  0  0  0  0  0  0  0  0  0  0  0
   48.3101   12.0996   23.3759 H   0  0  0  0  0  0  0  0  0  0  0  0
   47.1550   12.1551   22.0494 H   0  0  0  0  0  0  0  0  0  0  0  0
   51.9551   10.3731   19.9358 H   0  0  0  0  0  0  0  0  0  0  0  0
   51.3980    9.6256   21.4223 H   0  0  0  0  0  0  0  0  0  0  0  0
   47.5616   12.9116   19.0612 H   0  0  0  0  0  0  0  0  0  0  0  0
   47.0986   11.4107   19.8512 H   0  0  0  0  0  0  0  0  0  0  0  0
   46.8662    9.8183   23.8212 H   0  0  0  0  0  0  0  0  0  0  0  0
   52.3417   11.5062   22.2832 H   0  0  0  0  0  0  0  0  0  0  0  0
   52.1321   12.4512   20.8325 H   0  0  0  0  0  0  0  0  0  0  0  0
   46.8507    7.4140   23.3703 H   0  0  0  0  0  0  0  0  0  0  0  0
   46.9985   11.1457   17.4346 H   0  0  0  0  0  0  0  0  0  0  0  0
   48.6799   11.6445   17.2284 H   0  0  0  0  0  0  0  0  0  0  0  0
   51.0176   12.4961   19.2449 H   0  0  0  0  0  0  0  0  0  0  0  0
   51.1340   14.4710   21.9006 H   0  0  0  0  0  0  0  0  0  0  0  0
   50.0793   14.1808   23.3059 H   0  0  0  0  0  0  0  0  0  0  0  0
   51.7545   13.6509   23.3521 H   0  0  0  0  0  0  0  0  0  0  0  0
   46.4791    5.4219   22.1753 H   0  0  0  0  0  0  0  0  0  0  0  0
   48.0154    5.3046   23.1133 H   0  0  0  0  0  0  0  0  0  0  0  0
   47.7293    4.2634   21.7148 H   0  0  0  0  0  0  0  0  0  0  0  0
   51.1877   11.1924   21.4658 H   0  0  0  0  0  0  0  0  0  0  0  0
   50.7031    8.7999   21.1254 H   0  0  0  0  0  0  0  0  0  0  0  0
   47.0174   12.1262   20.8347 H   0  0  0  0  0  0  0  0  0  0  0  0
   46.5335    9.7332   20.4861 H   0  0  0  0  0  0  0  0  0  0  0  0
   50.6720   14.5290   21.7658 H   0  0  0  0  0  0  0  0  0  0  0  0
   47.0341    6.3893   20.2699 H   0  0  0  0  0  0  0  0  0  0  0  0
 14  7  2  0
 15  8  1  0
 16 11  1  0
 17 15  2  0
 18 13  1  0
  2 19  1  1
 20 13  2  0
 21  9  1  0
  4  7  1  0
 16  9  1  0
  6 10  1  0
 18 12  1  0
 17 14  1  0
 14 22  1  0
 22 23  1  0
  2  1  1  0
  3  1  1  0
  3  4  1  0
  5  1  1  0
  6  2  1  0
  7  5  1  0
  8  5  2  0
  6  9  1  0
 10  8  1  0
  1 11  1  1
 12  2  1  0
 13  3  1  0
 37 30  2  0
 38 31  1  0
 39 34  1  0
 40 38  2  0
 41 36  1  0
 25 42  1  1
 43 36  2  0
 44 32  1  0
 27 30  1  0
 39 32  1  0
 29 33  1  0
 41 35  1  0
 40 37  1  0
 37 45  1  0
 45 46  1  0
 25 24  1  0
 26 24  1  0
 26 27  1  0
 28 24  1  0
 29 25  1  0
 30 28  1  0
 31 28  2  0
 29 32  1  0
 33 31  1  0
 24 34  1  1
 35 25  1  0
 36 26  1  0
 48 49  1  0
 49 56  2  0
 50 47  1  0
 51 48  2  0
 52 47  2  0
 53 50  1  0
 54 53  2  0
 55 50  2  0
 56 55  1  0
 57 47  1  0
 58 48  1  0
 49 54  1  0
  3 59  1  1
  6 60  1  6
 10 61  1  0
 10 62  1  0
 11 63  1  0
 11 64  1  0
 12 65  1  0
 12 66  1  0
 15 67  1  0
 16 68  1  0
 16 69  1  0
 17 70  1  0
 18 71  1  0
 18 72  1  0
 19 73  1  0
 21 74  1  0
 21 75  1  0
 21 76  1  0
 23 77  1  0
 23 78  1  0
 23 79  1  0
 26 80  1  1
 29 81  1  6
 33 82  1  0
 33 83  1  0
 34 84  1  0
 34 85  1  0
 35 86  1  0
 35 87  1  0
 38 88  1  0
 39 89  1  0
 39 90  1  0
 40 91  1  0
 41 92  1  0
 41 93  1  0
 42 94  1  0
 44 95  1  0
 44 96  1  0
 44 97  1  0
 46 98  1  0
 46 99  1  0
 46100  1  0
 53101  1  0
 54102  1  0
 55103  1  0
 56104  1  0
 57105  1  0
 58106  1  0
M  END
> <Uni-Dock RESULT> 
ENERGY=   -4.948  LOWER_BOUND=    0.995  UPPER_BOUND=    1.226
INTER + INTRA:          -4.948
INTER:                  -4.948
INTRA:                   0.000
UNBOUND:                 0.000

$$$$

     RDKit          3D

106114  0  0  0  0  0  0  0  0999 V2000
   48.0327   10.8153   20.9938 C   0  0  2  0  0  0  0  0  0  0  0  0
   49.2167   11.5736   21.6205 C   0  0  2  0  0  0  0  0  0  0  0  0
   47.3549    9.7337   21.8527 C   0  0  1  0  0  0  0  0  0  0  0  0
   47.1509    8.5430   21.0575 O   0  0  0  0  0  0  0  0  0  0  0  0
   48.5975    9.9187   19.9398 C   0  0  0  0  0  0  0  0  0  0  0  0
   49.8475   12.4048   20.4246 C   0  0  2  0  0  0  0  0  0  0  0  0
   48.0080    8.6716   19.9919 C   0  0  0  0  0  0  0  0  0  0  0  0
   49.6581   10.2087   19.0990 C   0  0  0  0  0  0  0  0  0  0  0  0
   48.8787   13.2821   19.7043 N   0  0  0  0  0  0  0  0  0  0  0  0
   50.4489   11.4750   19.3175 C   0  0  0  0  0  0  0  0  0  0  0  0
   46.9914   11.7811   20.3712 C   0  0  0  0  0  0  0  0  0  0  0  0
   50.2618   10.6624   22.3292 C   0  0  0  0  0  0  0  0  0  0  0  0
   48.1942    9.4667   23.0976 C   0  0  0  0  0  0  0  0  0  0  0  0
   48.3501    7.6790   19.0917 C   0  0  0  0  0  0  0  0  0  0  0  0
   50.0249    9.2243   18.1825 C   0  0  0  0  0  0  0  0  0  0  0  0
   47.5054   13.2174   20.1999 C   0  0  0  0  0  0  0  0  0  0  0  0
   49.3564    7.9805   18.1617 C   0  0  0  0  0  0  0  0  0  0  0  0
   49.6857    9.3615   22.9005 C   0  0  0  0  0  0  0  0  0  0  0  0
   48.7436   12.4877   22.6308 O   0  0  0  0  0  0  0  0  0  0  0  0
   47.6978    9.4194   24.2240 O   0  0  0  0  0  0  0  0  0  0  0  0
   49.3432   14.6665   19.6500 C   0  0  0  0  0  0  0  0  0  0  0  0
   47.7049    6.4841   19.2221 O   0  0  0  0  0  0  0  0  0  0  0  0
   48.0145    5.4803   18.2649 C   0  0  0  0  0  0  0  0  0  0  0  0
   47.6231   10.4482   20.1570 C   0  0  2  0  0  0  0  0  0  0  0  0
   48.0586    9.2611   19.2904 C   0  0  2  0  0  0  0  0  0  0  0  0
   47.1035   11.7106   19.4498 C   0  0  1  0  0  0  0  0  0  0  0  0
   47.4554   12.8482   20.2940 O   0  0  0  0  0  0  0  0  0  0  0  0
   48.8373   11.0905   20.7565 C   0  0  0  0  0  0  0  0  0  0  0  0
   48.8818    8.3231   20.2520 C   0  0  2  0  0  0  0  0  0  0  0  0
   48.6450   12.4560   20.8712 C   0  0  0  0  0  0  0  0  0  0  0  0
   50.0188   10.4616   21.1030 C   0  0  0  0  0  0  0  0  0  0  0  0
   48.1668    7.9490   21.5027 N   0  0  0  0  0  0  0  0  0  0  0  0
   50.2055    9.0091   20.7359 C   0  0  0  0  0  0  0  0  0  0  0  0
   46.6912    9.9974   21.3155 C   0  0  0  0  0  0  0  0  0  0  0  0
   48.8549    9.7183   18.0511 C   0  0  0  0  0  0  0  0  0  0  0  0
   47.6665   11.9252   18.0302 C   0  0  0  0  0  0  0  0  0  0  0  0
   49.5981   13.2652   21.4595 C   0  0  0  0  0  0  0  0  0  0  0  0
   51.0064   11.2600   21.6772 C   0  0  0  0  0  0  0  0  0  0  0  0
   46.8458    8.5197   21.7223 C   0  0  0  0  0  0  0  0  0  0  0  0
   50.7912   12.6461   21.8688 C   0  0  0  0  0  0  0  0  0  0  0  0
   48.0347   10.7011   17.2215 C   0  0  0  0  0  0  0  0  0  0  0  0
   46.9475    8.5480   18.7184 O   0  0  0  0  0  0  0  0  0  0  0  0
   47.7215   13.0408   17.5078 O   0  0  0  0  0  0  0  0  0  0  0  0
   48.1884    6.5095   21.7448 C   0  0  0  0  0  0  0  0  0  0  0  0
   49.3004   14.5916   21.5638 O   0  0  0  0  0  0  0  0  0  0  0  0
   50.2147   15.4032   22.2842 C   0  0  0  0  0  0  0  0  0  0  0  0
   48.7590    7.5879   20.0814 C   0  0  0  0  0  0  0  0  0  0  0  0
   48.8964   13.3312   20.6646 C   0  0  0  0  0  0  0  0  0  0  0  0
   48.8784   11.8570   20.4977 C   0  0  0  0  0  0  0  0  0  0  0  0
   48.7757    9.0614   20.2452 C   0  0  0  0  0  0  0  0  0  0  0  0
   48.1349   13.9786   21.3588 O   0  0  0  0  0  0  0  0  0  0  0  0
   49.4842    6.9448   19.3458 O   0  0  0  0  0  0  0  0  0  0  0  0
   47.8798    9.7240   21.0929 C   0  0  0  0  0  0  0  0  0  0  0  0
   47.9312   11.1170   21.2186 C   0  0  0  0  0  0  0  0  0  0  0  0
   49.7250    9.8014   19.5269 C   0  0  0  0  0  0  0  0  0  0  0  0
   49.7726   11.1953   19.6471 C   0  0  0  0  0  0  0  0  0  0  0  0
   47.8352    6.9883   20.8526 O   0  0  0  0  0  0  0  0  0  0  0  0
   49.8776   13.9222   19.9598 O   0  0  0  0  0  0  0  0  0  0  0  0
   46.3702   10.0606   22.2075 H   0  0  0  0  0  0  0  0  0  0  0  0
   50.6549   13.0223   20.8410 H   0  0  0  0  0  0  0  0  0  0  0  0
   51.4635   11.1895   19.6256 H   0  0  0  0  0  0  0  0  0  0  0  0
   50.5551   12.0132   18.3669 H   0  0  0  0  0  0  0  0  0  0  0  0
   46.0974   11.8451   21.0071 H   0  0  0  0  0  0  0  0  0  0  0  0
   46.6460   11.4083   19.3970 H   0  0  0  0  0  0  0  0  0  0  0  0
   51.0938   10.3900   21.6682 H   0  0  0  0  0  0  0  0  0  0  0  0
   50.7214   11.2285   23.1539 H   0  0  0  0  0  0  0  0  0  0  0  0
   50.8414    9.3989   17.4850 H   0  0  0  0  0  0  0  0  0  0  0  0
   47.3980   13.7661   21.1454 H   0  0  0  0  0  0  0  0  0  0  0  0
   46.8397   13.7259   19.4885 H   0  0  0  0  0  0  0  0  0  0  0  0
   49.6814    7.2512   17.4267 H   0  0  0  0  0  0  0  0  0  0  0  0
   49.8827    8.5185   22.2294 H   0  0  0  0  0  0  0  0  0  0  0  0
   50.1687    9.1222   23.8548 H   0  0  0  0  0  0  0  0  0  0  0  0
   48.4803   12.0022   23.4369 H   0  0  0  0  0  0  0  0  0  0  0  0
   48.6678   15.2765   19.0420 H   0  0  0  0  0  0  0  0  0  0  0  0
   49.4112   15.1164   20.6453 H   0  0  0  0  0  0  0  0  0  0  0  0
   50.3298   14.7225   19.1772 H   0  0  0  0  0  0  0  0  0  0  0  0
   49.0697    5.1938   18.3234 H   0  0  0  0  0  0  0  0  0  0  0  0
   47.7495    5.8078   17.2538 H   0  0  0  0  0  0  0  0  0  0  0  0
   47.4171    4.5935   18.5000 H   0  0  0  0  0  0  0  0  0  0  0  0
   46.0120   11.6882   19.3469 H   0  0  0  0  0  0  0  0  0  0  0  0
   49.1413    7.4133   19.6928 H   0  0  0  0  0  0  0  0  0  0  0  0
   50.6381    8.4621   21.5846 H   0  0  0  0  0  0  0  0  0  0  0  0
   50.9413    8.9582   19.9236 H   0  0  0  0  0  0  0  0  0  0  0  0
   45.6424   10.1430   21.0198 H   0  0  0  0  0  0  0  0  0  0  0  0
   46.8417   10.6236   22.2070 H   0  0  0  0  0  0  0  0  0  0  0  0
   49.0943    8.8493   17.4249 H   0  0  0  0  0  0  0  0  0  0  0  0
   49.8072   10.1881   18.3140 H   0  0  0  0  0  0  0  0  0  0  0  0
   51.9629   10.8267   21.9604 H   0  0  0  0  0  0  0  0  0  0  0  0
   46.5953    8.4404   22.7909 H   0  0  0  0  0  0  0  0  0  0  0  0
   46.0810    7.9234   21.2067 H   0  0  0  0  0  0  0  0  0  0  0  0
   51.5973   13.2190   22.3176 H   0  0  0  0  0  0  0  0  0  0  0  0
   48.6265   11.0224   16.3569 H   0  0  0  0  0  0  0  0  0  0  0  0
   47.1148   10.2463   16.8371 H   0  0  0  0  0  0  0  0  0  0  0  0
   46.2138    8.4818   19.3533 H   0  0  0  0  0  0  0  0  0  0  0  0
   47.6079    5.9641   20.9917 H   0  0  0  0  0  0  0  0  0  0  0  0
   49.2177    6.1327   21.7345 H   0  0  0  0  0  0  0  0  0  0  0  0
   47.7794    6.2766   22.7345 H   0  0  0  0  0  0  0  0  0  0  0  0
   51.1757   15.4668   21.7658 H   0  0  0  0  0  0  0  0  0  0  0  0
   50.3423   15.0403   23.3077 H   0  0  0  0  0  0  0  0  0  0  0  0
   49.8001   16.4140   22.3380 H   0  0  0  0  0  0  0  0  0  0  0  0
   47.1386    9.1688   21.6628 H   0  0  0  0  0  0  0  0  0  0  0  0
   47.2313   11.6218   21.8835 H   0  0  0  0  0  0  0  0  0  0  0  0
   50.4286    9.2967   18.8663 H   0  0  0  0  0  0  0  0  0  0  0  0
   50.5165   11.7519   19.0807 H   0  0  0  0  0  0  0  0  0  0  0  0
   47.9361    6.0364   20.6423 H   0  0  0  0  0  0  0  0  0  0  0  0
   49.7749   14.8749   20.1652 H   0  0  0  0  0  0  0  0  0  0  0  0
 14  7  2  0
 15  8  1  0
 16 11  1  0
 17 15  2  0
 18 13  1  0
  2 19  1  1
 20 13  2  0
 21  9  1  0
  4  7  1  0
 16  9  1  0
  6 10  1  0
 18 12  1  0
 17 14  1  0
 14 22  1  0
 22 23  1  0
  2  1  1  0
  3  1  1  0
  3  4  1  0
  5  1  1  0
  6  2  1  0
  7  5  1  0
  8  5  2  0
  6  9  1  0
 10  8  1  0
  1 11  1  1
 12  2  1  0
 13  3  1  0
 37 30  2  0
 38 31  1  0
 39 34  1  0
 40 38  2  0
 41 36  1  0
 25 42  1  1
 43 36  2  0
 44 32  1  0
 27 30  1  0
 39 32  1  0
 29 33  1  0
 41 35  1  0
 40 37  1  0
 37 45  1  0
 45 46  1  0
 25 24  1  0
 26 24  1  0
 26 27  1  0
 28 24  1  0
 29 25  1  0
 30 28  1  0
 31 28  2  0
 29 32  1  0
 33 31  1  0
 24 34  1  1
 35 25  1  0
 36 26  1  0
 48 49  1  0
 49 56  2  0
 50 47  1  0
 51 48  2  0
 52 47  2  0
 53 50  1  0
 54 53  2  0
 55 50  2  0
 56 55  1  0
 57 47  1  0
 58 48  1  0
 49 54  1  0
  3 59  1  1
  6 60  1  6
 10 61  1  0
 10 62  1  0
 11 63  1  0
 11 64  1  0
 12 65  1  0
 12 66  1  0
 15 67  1  0
 16 68  1  0
 16 69  1  0
 17 70  1  0
 18 71  1  0
 18 72  1  0
 19 73  1  0
 21 74  1  0
 21 75  1  0
 21 76  1  0
 23 77  1  0
 23 78  1  0
 23 79  1  0
 26 80  1  1
 29 81  1  6
 33 82  1  0
 33 83  1  0
 34 84  1  0
 34 85  1  0
 35 86  1  0
 35 87  1  0
 38 88  1  0
 39 89  1  0
 39 90  1  0
 40 91  1  0
 41 92  1  0
 41 93  1  0
 42 94  1  0
 44 95  1  0
 44 96  1  0
 44 97  1  0
 46 98  1  0
 46 99  1  0
 46100  1  0
 53101  1  0
 54102  1  0
 55103  1  0
 56104  1  0
 57105  1  0
 58106  1  0
M  END
> <Uni-Dock RESULT> 
ENERGY=   -4.931  LOWER_BOUND=    1.382  UPPER_BOUND=    5.096
INTER + INTRA:          -4.931
INTER:                  -4.931
INTRA:                   0.000
UNBOUND:                 0.000

$$$$

     RDKit          3D

106114  0  0  0  0  0  0  0  0999 V2000
   49.7982    8.5193   19.9264 C   0  0  2  0  0  0  0  0  0  0  0  0
   48.8744    9.6706   20.3630 C   0  0  2  0  0  0  0  0  0  0  0  0
   50.3232    8.5471   18.4806 C   0  0  1  0  0  0  0  0  0  0  0  0
   50.1859    7.2333   17.8915 O   0  0  0  0  0  0  0  0  0  0  0  0
   48.9474    7.2957   19.8141 C   0  0  0  0  0  0  0  0  0  0  0  0
   48.3061    9.2239   21.7760 C   0  0  2  0  0  0  0  0  0  0  0  0
   49.2645    6.5828   18.6755 C   0  0  0  0  0  0  0  0  0  0  0  0
   47.8864    6.9567   20.6359 C   0  0  0  0  0  0  0  0  0  0  0  0
   49.3533    8.8731   22.7796 N   0  0  0  0  0  0  0  0  0  0  0  0
   47.4069    7.9464   21.6691 C   0  0  0  0  0  0  0  0  0  0  0  0
   50.9451    8.2806   20.9425 C   0  0  0  0  0  0  0  0  0  0  0  0
   47.7445   10.0099   19.3466 C   0  0  0  0  0  0  0  0  0  0  0  0
   49.5864    9.6214   17.6878 C   0  0  0  0  0  0  0  0  0  0  0  0
   48.6266    5.3934   18.3735 C   0  0  0  0  0  0  0  0  0  0  0  0
   47.2245    5.7629   20.3527 C   0  0  0  0  0  0  0  0  0  0  0  0
   50.7280    8.9752   22.2941 C   0  0  0  0  0  0  0  0  0  0  0  0
   47.6112    4.9748   19.2465 C   0  0  0  0  0  0  0  0  0  0  0  0
   48.0936    9.7060   17.8849 C   0  0  0  0  0  0  0  0  0  0  0  0
   49.6350   10.8853   20.5244 O   0  0  0  0  0  0  0  0  0  0  0  0
   50.1809   10.4376   16.9821 O   0  0  0  0  0  0  0  0  0  0  0  0
   49.1862    9.6289   24.0190 C   0  0  0  0  0  0  0  0  0  0  0  0
   49.0174    4.7613   17.2295 O   0  0  0  0  0  0  0  0  0  0  0  0
   48.4025    3.5119   16.9452 C   0  0  0  0  0  0  0  0  0  0  0  0
   50.0287    7.5495   20.0219 C   0  0  2  0  0  0  0  0  0  0  0  0
   49.2630    6.3079   19.5510 C   0  0  2  0  0  0  0  0  0  0  0  0
   50.7216    7.4975   21.3934 C   0  0  1  0  0  0  0  0  0  0  0  0
   50.7094    8.8552   21.9295 O   0  0  0  0  0  0  0  0  0  0  0  0
   49.0483    8.6250   20.3801 C   0  0  0  0  0  0  0  0  0  0  0  0
   48.3705    6.7997   18.3494 C   0  0  2  0  0  0  0  0  0  0  0  0
   49.5337    9.3789   21.4340 C   0  0  0  0  0  0  0  0  0  0  0  0
   47.8059    8.8335   19.8105 C   0  0  0  0  0  0  0  0  0  0  0  0
   49.1224    7.5084   17.2779 N   0  0  0  0  0  0  0  0  0  0  0  0
   47.2803    7.8231   18.8194 C   0  0  0  0  0  0  0  0  0  0  0  0
   50.9653    8.0980   18.9104 C   0  0  0  0  0  0  0  0  0  0  0  0
   48.4508    5.6676   20.6953 C   0  0  0  0  0  0  0  0  0  0  0  0
   50.0658    6.5354   22.4046 C   0  0  0  0  0  0  0  0  0  0  0  0
   48.8407   10.4772   21.9061 C   0  0  0  0  0  0  0  0  0  0  0  0
   47.0756    9.9215   20.2854 C   0  0  0  0  0  0  0  0  0  0  0  0
   50.5495    7.7149   17.4774 C   0  0  0  0  0  0  0  0  0  0  0  0
   47.5959   10.7455   21.3123 C   0  0  0  0  0  0  0  0  0  0  0  0
   49.3639    5.3096   21.8635 C   0  0  0  0  0  0  0  0  0  0  0  0
   50.1313    5.2402   19.1314 O   0  0  0  0  0  0  0  0  0  0  0  0
   50.1895    6.6796   23.6229 O   0  0  0  0  0  0  0  0  0  0  0  0
   48.8259    6.9803   15.9497 C   0  0  0  0  0  0  0  0  0  0  0  0
   49.4192   11.1809   22.9204 O   0  0  0  0  0  0  0  0  0  0  0  0
   48.7788   12.3830   23.3188 C   0  0  0  0  0  0  0  0  0  0  0  0
   48.3174    6.2569   17.8134 C   0  0  0  0  0  0  0  0  0  0  0  0
   49.4504    9.7042   22.3053 C   0  0  0  0  0  0  0  0  0  0  0  0
   49.1409    8.8084   21.1637 C   0  0  0  0  0  0  0  0  0  0  0  0
   48.6276    7.1494   18.9560 C   0  0  0  0  0  0  0  0  0  0  0  0
   50.4012   10.4600   22.3801 O   0  0  0  0  0  0  0  0  0  0  0  0
   47.3982    5.4613   17.7603 O   0  0  0  0  0  0  0  0  0  0  0  0
   49.7289    8.0139   18.9446 C   0  0  0  0  0  0  0  0  0  0  0  0
   49.9844    8.8405   20.0448 C   0  0  0  0  0  0  0  0  0  0  0  0
   47.7824    7.1199   20.0738 C   0  0  0  0  0  0  0  0  0  0  0  0
   48.0412    7.9416   21.1772 C   0  0  0  0  0  0  0  0  0  0  0  0
   49.1729    6.4074   16.7873 O   0  0  0  0  0  0  0  0  0  0  0  0
   48.5444    9.6163   23.2954 O   0  0  0  0  0  0  0  0  0  0  0  0
   51.3871    8.8103   18.4440 H   0  0  0  0  0  0  0  0  0  0  0  0
   47.6958   10.0511   22.1634 H   0  0  0  0  0  0  0  0  0  0  0  0
   46.3945    8.2642   21.3865 H   0  0  0  0  0  0  0  0  0  0  0  0
   47.3135    7.4485   22.6427 H   0  0  0  0  0  0  0  0  0  0  0  0
   51.8962    8.6630   20.5462 H   0  0  0  0  0  0  0  0  0  0  0  0
   51.0972    7.2062   21.1149 H   0  0  0  0  0  0  0  0  0  0  0  0
   46.8074    9.4876   19.5752 H   0  0  0  0  0  0  0  0  0  0  0  0
   47.5057   11.0813   19.4295 H   0  0  0  0  0  0  0  0  0  0  0  0
   46.3920    5.4352   20.9718 H   0  0  0  0  0  0  0  0  0  0  0  0
   51.0497   10.0234   22.2295 H   0  0  0  0  0  0  0  0  0  0  0  0
   51.4045    8.5051   23.0217 H   0  0  0  0  0  0  0  0  0  0  0  0
   47.0630    4.0543   19.0732 H   0  0  0  0  0  0  0  0  0  0  0  0
   47.6529    8.7549   17.5671 H   0  0  0  0  0  0  0  0  0  0  0  0
   47.6774   10.4793   17.2291 H   0  0  0  0  0  0  0  0  0  0  0  0
   49.8764   11.2575   19.6538 H   0  0  0  0  0  0  0  0  0  0  0  0
   49.9045    9.2950   24.7743 H   0  0  0  0  0  0  0  0  0  0  0  0
   49.3221   10.7040   23.8662 H   0  0  0  0  0  0  0  0  0  0  0  0
   48.1880    9.4629   24.4386 H   0  0  0  0  0  0  0  0  0  0  0  0
   47.3234    3.6289   16.8011 H   0  0  0  0  0  0  0  0  0  0  0  0
   48.6192    2.7805   17.7312 H   0  0  0  0  0  0  0  0  0  0  0  0
   48.8227    3.1343   16.0075 H   0  0  0  0  0  0  0  0  0  0  0  0
   51.7665    7.1784   21.2994 H   0  0  0  0  0  0  0  0  0  0  0  0
   47.8671    5.9207   17.9230 H   0  0  0  0  0  0  0  0  0  0  0  0
   46.8372    8.3409   17.9579 H   0  0  0  0  0  0  0  0  0  0  0  0
   46.4667    7.2680   19.3027 H   0  0  0  0  0  0  0  0  0  0  0  0
   51.9830    7.7122   19.0654 H   0  0  0  0  0  0  0  0  0  0  0  0
   51.0468    9.1932   18.9703 H   0  0  0  0  0  0  0  0  0  0  0  0
   47.9682    4.7494   20.3366 H   0  0  0  0  0  0  0  0  0  0  0  0
   47.6522    6.3206   21.0595 H   0  0  0  0  0  0  0  0  0  0  0  0
   46.0859   10.1312   19.8861 H   0  0  0  0  0  0  0  0  0  0  0  0
   50.8920    8.5163   16.8056 H   0  0  0  0  0  0  0  0  0  0  0  0
   51.1119    6.8243   17.1662 H   0  0  0  0  0  0  0  0  0  0  0  0
   46.9812   11.5767   21.6449 H   0  0  0  0  0  0  0  0  0  0  0  0
   48.7625    4.8715   22.6681 H   0  0  0  0  0  0  0  0  0  0  0  0
   50.1209    4.5693   21.5811 H   0  0  0  0  0  0  0  0  0  0  0  0
   50.8992    5.5878   18.6462 H   0  0  0  0  0  0  0  0  0  0  0  0
   49.1943    5.9546   15.8310 H   0  0  0  0  0  0  0  0  0  0  0  0
   47.7457    6.9884   15.7644 H   0  0  0  0  0  0  0  0  0  0  0  0
   49.2818    7.6051   15.1734 H   0  0  0  0  0  0  0  0  0  0  0  0
   47.8021   12.1776   23.7661 H   0  0  0  0  0  0  0  0  0  0  0  0
   48.6896   13.0788   22.4801 H   0  0  0  0  0  0  0  0  0  0  0  0
   49.3993   12.8597   24.0831 H   0  0  0  0  0  0  0  0  0  0  0  0
   50.3945    8.0560   18.0858 H   0  0  0  0  0  0  0  0  0  0  0  0
   50.8423    9.5116   20.0237 H   0  0  0  0  0  0  0  0  0  0  0  0
   46.9213    6.4532   20.0931 H   0  0  0  0  0  0  0  0  0  0  0  0
   47.3736    7.9036   22.0356 H   0  0  0  0  0  0  0  0  0  0  0  0
   48.8527    5.7663   16.1189 H   0  0  0  0  0  0  0  0  0  0  0  0
   48.8661   10.2534   23.9669 H   0  0  0  0  0  0  0  0  0  0  0  0
 14  7  2  0
 15  8  1  0
 16 11  1  0
 17 15  2  0
 18 13  1  0
  2 19  1  1
 20 13  2  0
 21  9  1  0
  4  7  1  0
 16  9  1  0
  6 10  1  0
 18 12  1  0
 17 14  1  0
 14 22  1  0
 22 23  1  0
  2  1  1  0
  3  1  1  0
  3  4  1  0
  5  1  1  0
  6  2  1  0
  7  5  1  0
  8  5  2  0
  6  9  1  0
 10  8  1  0
  1 11  1  1
 12  2  1  0
 13  3  1  0
 37 30  2  0
 38 31  1  0
 39 34  1  0
 40 38  2  0
 41 36  1  0
 25 42  1  1
 43 36  2  0
 44 32  1  0
 27 30  1  0
 39 32  1  0
 29 33  1  0
 41 35  1  0
 40 37  1  0
 37 45  1  0
 45 46  1  0
 25 24  1  0
 26 24  1  0
 26 27  1  0
 28 24  1  0
 29 25  1  0
 30 28  1  0
 31 28  2  0
 29 32  1  0
 33 31  1  0
 24 34  1  1
 35 25  1  0
 36 26  1  0
 48 49  1  0
 49 56  2  0
 50 47  1  0
 51 48  2  0
 52 47  2  0
 53 50  1  0
 54 53  2  0
 55 50  2  0
 56 55  1  0
 57 47  1  0
 58 48  1  0
 49 54  1  0
  3 59  1  1
  6 60  1  6
 10 61  1  0
 10 62  1  0
 11 63  1  0
 11 64  1  0
 12 65  1  0
 12 66  1  0
 15 67  1  0
 16 68  1  0
 16 69  1  0
 17 70  1  0
 18 71  1  0
 18 72  1  0
 19 73  1  0
 21 74  1  0
 21 75  1  0
 21 76  1  0
 23 77  1  0
 23 78  1  0
 23 79  1  0
 26 80  1  1
 29 81  1  6
 33 82  1  0
 33 83  1  0
 34 84  1  0
 34 85  1  0
 35 86  1  0
 35 87  1  0
 38 88  1  0
 39 89  1  0
 39 90  1  0
 40 91  1  0
 41 92  1  0
 41 93  1  0
 42 94  1  0
 44 95  1  0
 44 96  1  0
 44 97  1  0
 46 98  1  0
 46 99  1  0
 46100  1  0
 53101  1  0
 54102  1  0
 55103  1  0
 56104  1  0
 57105  1  0
 58106  1  0
M  END
> <Uni-Dock RESULT> 
ENERGY=   -4.781  LOWER_BOUND=    1.849  UPPER_BOUND=    4.954
INTER + INTRA:          -4.781
INTER:                  -4.781
INTRA:                   0.000
UNBOUND:                 0.000

$$$$

     RDKit          3D

106114  0  0  0  0  0  0  0  0999 V2000
   49.3877   10.9787   20.1540 C   0  0  2  0  0  0  0  0  0  0  0  0
   48.0798   10.6661   20.9032 C   0  0  2  0  0  0  0  0  0  0  0  0
   49.8197   12.4532   20.0760 C   0  0  1  0  0  0  0  0  0  0  0  0
   50.2265   12.7665   18.7238 O   0  0  0  0  0  0  0  0  0  0  0  0
   49.1194   10.7644   18.6994 C   0  0  0  0  0  0  0  0  0  0  0  0
   47.7817    9.1403   20.5837 C   0  0  2  0  0  0  0  0  0  0  0  0
   49.6771   11.7772   17.9453 C   0  0  0  0  0  0  0  0  0  0  0  0
   48.3146    9.7812   18.1504 C   0  0  0  0  0  0  0  0  0  0  0  0
   48.9033    8.2111   20.9086 N   0  0  0  0  0  0  0  0  0  0  0  0
   47.4919    8.9054   19.0630 C   0  0  0  0  0  0  0  0  0  0  0  0
   50.5538   10.0694   20.6214 C   0  0  0  0  0  0  0  0  0  0  0  0
   46.8876   11.5965   20.5321 C   0  0  0  0  0  0  0  0  0  0  0  0
   48.6850   13.3468   20.5653 C   0  0  0  0  0  0  0  0  0  0  0  0
   49.5838   11.7781   16.5655 C   0  0  0  0  0  0  0  0  0  0  0  0
   48.2017    9.7603   16.7610 C   0  0  0  0  0  0  0  0  0  0  0  0
   50.0997    8.8565   21.4454 C   0  0  0  0  0  0  0  0  0  0  0  0
   48.8546   10.7349   15.9749 C   0  0  0  0  0  0  0  0  0  0  0  0
   47.2969   13.0048   20.0849 C   0  0  0  0  0  0  0  0  0  0  0  0
   48.2710   10.8208   22.3243 O   0  0  0  0  0  0  0  0  0  0  0  0
   48.8701   14.2545   21.3772 O   0  0  0  0  0  0  0  0  0  0  0  0
   48.4666    7.1247   21.7829 C   0  0  0  0  0  0  0  0  0  0  0  0
   50.1747   12.8193   15.9116 O   0  0  0  0  0  0  0  0  0  0  0  0
   50.1276   12.7943   14.4913 C   0  0  0  0  0  0  0  0  0  0  0  0
   50.0023   10.7291   19.4038 C   0  0  2  0  0  0  0  0  0  0  0  0
   49.8104   10.8710   17.8896 C   0  0  2  0  0  0  0  0  0  0  0  0
   50.6863    9.4576   19.9324 C   0  0  1  0  0  0  0  0  0  0  0  0
   50.1240    9.1877   21.2521 O   0  0  0  0  0  0  0  0  0  0  0  0
   48.6726   10.4726   20.0458 C   0  0  0  0  0  0  0  0  0  0  0  0
   48.7664   12.0370   17.7094 C   0  0  2  0  0  0  0  0  0  0  0  0
   48.8257    9.6392   21.1398 C   0  0  0  0  0  0  0  0  0  0  0  0
   47.4427   10.9299   19.6100 C   0  0  0  0  0  0  0  0  0  0  0  0
   49.1307   13.2990   18.4096 N   0  0  0  0  0  0  0  0  0  0  0  0
   47.3610   11.6494   18.2853 C   0  0  0  0  0  0  0  0  0  0  0  0
   50.6003   12.0207   20.0267 C   0  0  0  0  0  0  0  0  0  0  0  0
   49.3645    9.5440   17.2419 C   0  0  0  0  0  0  0  0  0  0  0  0
   50.5131    8.2176   19.0321 C   0  0  0  0  0  0  0  0  0  0  0  0
   47.7506    9.3076   21.9419 C   0  0  0  0  0  0  0  0  0  0  0  0
   46.3380   10.5896   20.3887 C   0  0  0  0  0  0  0  0  0  0  0  0
   50.3475   13.3013   19.2086 C   0  0  0  0  0  0  0  0  0  0  0  0
   46.4932    9.7995   21.5531 C   0  0  0  0  0  0  0  0  0  0  0  0
   50.3710    8.4380   17.5423 C   0  0  0  0  0  0  0  0  0  0  0  0
   51.0336   11.1765   17.1963 O   0  0  0  0  0  0  0  0  0  0  0  0
   50.5944    7.0693   19.4739 O   0  0  0  0  0  0  0  0  0  0  0  0
   49.0492   14.4634   17.5329 C   0  0  0  0  0  0  0  0  0  0  0  0
   48.0083    8.5138   23.0200 O   0  0  0  0  0  0  0  0  0  0  0  0
   46.9362    8.2796   23.9196 C   0  0  0  0  0  0  0  0  0  0  0  0
   48.9308   12.4524   17.0888 C   0  0  0  0  0  0  0  0  0  0  0  0
   48.6353    8.8406   21.5847 C   0  0  0  0  0  0  0  0  0  0  0  0
   48.6991    9.7525   20.4159 C   0  0  0  0  0  0  0  0  0  0  0  0
   48.8692   11.5391   18.2552 C   0  0  0  0  0  0  0  0  0  0  0  0
   49.1880    9.0148   22.6547 O   0  0  0  0  0  0  0  0  0  0  0  0
   48.4240   12.2531   16.0007 O   0  0  0  0  0  0  0  0  0  0  0  0
   49.5115   11.8344   19.4637 C   0  0  0  0  0  0  0  0  0  0  0  0
   49.4265   10.9441   20.5402 C   0  0  0  0  0  0  0  0  0  0  0  0
   48.1391   10.3489   18.1322 C   0  0  0  0  0  0  0  0  0  0  0  0
   48.0592    9.4549   19.2064 C   0  0  0  0  0  0  0  0  0  0  0  0
   49.6223   13.5769   17.3435 O   0  0  0  0  0  0  0  0  0  0  0  0
   47.8712    7.7574   21.3578 O   0  0  0  0  0  0  0  0  0  0  0  0
   50.6771   12.6562   20.7288 H   0  0  0  0  0  0  0  0  0  0  0  0
   46.8924    8.8497   21.1594 H   0  0  0  0  0  0  0  0  0  0  0  0
   46.4326    9.1285   18.8789 H   0  0  0  0  0  0  0  0  0  0  0  0
   47.6366    7.8514   18.7933 H   0  0  0  0  0  0  0  0  0  0  0  0
   51.2506   10.6333   21.2571 H   0  0  0  0  0  0  0  0  0  0  0  0
   51.1422    9.7164   19.7632 H   0  0  0  0  0  0  0  0  0  0  0  0
   46.2575   11.1716   19.7410 H   0  0  0  0  0  0  0  0  0  0  0  0
   46.2275   11.6901   21.4081 H   0  0  0  0  0  0  0  0  0  0  0  0
   47.5952    9.0023   16.2698 H   0  0  0  0  0  0  0  0  0  0  0  0
   49.9555    9.1518   22.4935 H   0  0  0  0  0  0  0  0  0  0  0  0
   50.9272    8.1332   21.4557 H   0  0  0  0  0  0  0  0  0  0  0  0
   48.7342   10.6707   14.8982 H   0  0  0  0  0  0  0  0  0  0  0  0
   47.2836   13.0877   18.9928 H   0  0  0  0  0  0  0  0  0  0  0  0
   46.5820   13.7437   20.4644 H   0  0  0  0  0  0  0  0  0  0  0  0
   48.3156   11.7671   22.5637 H   0  0  0  0  0  0  0  0  0  0  0  0
   49.2762    6.4046   21.9373 H   0  0  0  0  0  0  0  0  0  0  0  0
   48.1403    7.4906   22.7613 H   0  0  0  0  0  0  0  0  0  0  0  0
   47.6376    6.5734   21.3259 H   0  0  0  0  0  0  0  0  0  0  0  0
   49.0943   12.8372   14.1317 H   0  0  0  0  0  0  0  0  0  0  0  0
   50.6469   11.9140   14.0974 H   0  0  0  0  0  0  0  0  0  0  0  0
   50.6445   13.6853   14.1205 H   0  0  0  0  0  0  0  0  0  0  0  0
   51.7668    9.6053   20.0467 H   0  0  0  0  0  0  0  0  0  0  0  0
   48.6635   12.2325   16.6328 H   0  0  0  0  0  0  0  0  0  0  0  0
   46.7228   12.5383   18.3819 H   0  0  0  0  0  0  0  0  0  0  0  0
   46.8629   10.9834   17.5696 H   0  0  0  0  0  0  0  0  0  0  0  0
   51.6896   11.9098   20.1247 H   0  0  0  0  0  0  0  0  0  0  0  0
   50.2210   12.1766   21.0472 H   0  0  0  0  0  0  0  0  0  0  0  0
   49.2985    9.6684   16.1535 H   0  0  0  0  0  0  0  0  0  0  0  0
   48.3757    9.2225   17.5820 H   0  0  0  0  0  0  0  0  0  0  0  0
   45.3415   10.9089   20.0922 H   0  0  0  0  0  0  0  0  0  0  0  0
   50.3104   14.1452   19.9138 H   0  0  0  0  0  0  0  0  0  0  0  0
   51.2214   13.5002   18.5738 H   0  0  0  0  0  0  0  0  0  0  0  0
   45.5968    9.5627   22.1187 H   0  0  0  0  0  0  0  0  0  0  0  0
   50.0249    7.5038   17.0856 H   0  0  0  0  0  0  0  0  0  0  0  0
   51.3602    8.6586   17.1256 H   0  0  0  0  0  0  0  0  0  0  0  0
   51.5761   11.8003   17.7085 H   0  0  0  0  0  0  0  0  0  0  0  0
   49.8073   14.4277   16.7418 H   0  0  0  0  0  0  0  0  0  0  0  0
   48.0591   14.5260   17.0669 H   0  0  0  0  0  0  0  0  0  0  0  0
   49.1861   15.3888   18.1037 H   0  0  0  0  0  0  0  0  0  0  0  0
   46.1437    7.6962   23.4421 H   0  0  0  0  0  0  0  0  0  0  0  0
   46.5464    9.2187   24.3215 H   0  0  0  0  0  0  0  0  0  0  0  0
   47.3205    7.6918   24.7583 H   0  0  0  0  0  0  0  0  0  0  0  0
   50.0792   12.7543   19.5819 H   0  0  0  0  0  0  0  0  0  0  0  0
   49.9276   11.1856   21.4769 H   0  0  0  0  0  0  0  0  0  0  0  0
   47.6333   10.1096   17.1978 H   0  0  0  0  0  0  0  0  0  0  0  0
   47.4880    8.5359   19.0910 H   0  0  0  0  0  0  0  0  0  0  0  0
   49.5816   14.0735   16.4996 H   0  0  0  0  0  0  0  0  0  0  0  0
   47.9150    7.2572   22.1993 H   0  0  0  0  0  0  0  0  0  0  0  0
 14  7  2  0
 15  8  1  0
 16 11  1  0
 17 15  2  0
 18 13  1  0
  2 19  1  1
 20 13  2  0
 21  9  1  0
  4  7  1  0
 16  9  1  0
  6 10  1  0
 18 12  1  0
 17 14  1  0
 14 22  1  0
 22 23  1  0
  2  1  1  0
  3  1  1  0
  3  4  1  0
  5  1  1  0
  6  2  1  0
  7  5  1  0
  8  5  2  0
  6  9  1  0
 10  8  1  0
  1 11  1  1
 12  2  1  0
 13  3  1  0
 37 30  2  0
 38 31  1  0
 39 34  1  0
 40 38  2  0
 41 36  1  0
 25 42  1  1
 43 36  2  0
 44 32  1  0
 27 30  1  0
 39 32  1  0
 29 33  1  0
 41 35  1  0
 40 37  1  0
 37 45  1  0
 45 46  1  0
 25 24  1  0
 26 24  1  0
 26 27  1  0
 28 24  1  0
 29 25  1  0
 30 28  1  0
 31 28  2  0
 29 32  1  0
 33 31  1  0
 24 34  1  1
 35 25  1  0
 36 26  1  0
 48 49  1  0
 49 56  2  0
 50 47  1  0
 51 48  2  0
 52 47  2  0
 53 50  1  0
 54 53  2  0
 55 50  2  0
 56 55  1  0
 57 47  1  0
 58 48  1  0
 49 54  1  0
  3 59  1  1
  6 60  1  6
 10 61  1  0
 10 62  1  0
 11 63  1  0
 11 64  1  0
 12 65  1  0
 12 66  1  0
 15 67  1  0
 16 68  1  0
 16 69  1  0
 17 70  1  0
 18 71  1  0
 18 72  1  0
 19 73  1  0
 21 74  1  0
 21 75  1  0
 21 76  1  0
 23 77  1  0
 23 78  1  0
 23 79  1  0
 26 80  1  1
 29 81  1  6
 33 82  1  0
 33 83  1  0
 34 84  1  0
 34 85  1  0
 35 86  1  0
 35 87  1  0
 38 88  1  0
 39 89  1  0
 39 90  1  0
 40 91  1  0
 41 92  1  0
 41 93  1  0
 42 94  1  0
 44 95  1  0
 44 96  1  0
 44 97  1  0
 46 98  1  0
 46 99  1  0
 46100  1  0
 53101  1  0
 54102  1  0
 55103  1  0
 56104  1  0
 57105  1  0
 58106  1  0
M  END
> <Uni-Dock RESULT> 
ENERGY=   -4.665  LOWER_BOUND=    1.689  UPPER_BOUND=    2.943
INTER + INTRA:          -4.665
INTER:                  -4.665
INTRA:                   0.000
UNBOUND:                 0.000

$$$$

     RDKit          3D

106114  0  0  0  0  0  0  0  0999 V2000
   47.9717   10.5367   20.3010 C   0  0  2  0  0  0  0  0  0  0  0  0
   48.6237    9.7506   19.1492 C   0  0  2  0  0  0  0  0  0  0  0  0
   47.3711   11.9123   19.9637 C   0  0  1  0  0  0  0  0  0  0  0  0
   47.7779   12.8753   20.9631 O   0  0  0  0  0  0  0  0  0  0  0  0
   49.0777   11.0061   21.1899 C   0  0  0  0  0  0  0  0  0  0  0  0
   49.3626    8.5347   19.8525 C   0  0  2  0  0  0  0  0  0  0  0  0
   48.8705   12.3144   21.5784 C   0  0  0  0  0  0  0  0  0  0  0  0
   50.2348   10.3108   21.4958 C   0  0  0  0  0  0  0  0  0  0  0  0
   48.4874    7.7063   20.7326 N   0  0  0  0  0  0  0  0  0  0  0  0
   50.5284    9.0149   20.7810 C   0  0  0  0  0  0  0  0  0  0  0  0
   46.9742    9.6635   21.1056 C   0  0  0  0  0  0  0  0  0  0  0  0
   49.5810   10.5934   18.2559 C   0  0  0  0  0  0  0  0  0  0  0  0
   47.7877   12.3225   18.5552 C   0  0  0  0  0  0  0  0  0  0  0  0
   49.7507   12.9573   22.4296 C   0  0  0  0  0  0  0  0  0  0  0  0
   51.1405   10.9370   22.3509 C   0  0  0  0  0  0  0  0  0  0  0  0
   47.1012    8.1601   20.8228 C   0  0  0  0  0  0  0  0  0  0  0  0
   50.8853   12.2387   22.8354 C   0  0  0  0  0  0  0  0  0  0  0  0
   49.2279   12.0833   18.1770 C   0  0  0  0  0  0  0  0  0  0  0  0
   47.6102    9.2357   18.2617 O   0  0  0  0  0  0  0  0  0  0  0  0
   46.9781   12.7522   17.7321 O   0  0  0  0  0  0  0  0  0  0  0  0
   48.5449    6.2916   20.3713 C   0  0  0  0  0  0  0  0  0  0  0  0
   49.4528   14.2470   22.7597 O   0  0  0  0  0  0  0  0  0  0  0  0
   50.3258   14.8921   23.6771 C   0  0  0  0  0  0  0  0  0  0  0  0
   47.9811   10.7487   21.2796 C   0  0  2  0  0  0  0  0  0  0  0  0
   48.9877   11.5664   22.0969 C   0  0  2  0  0  0  0  0  0  0  0  0
   47.4011    9.4722   21.9104 C   0  0  1  0  0  0  0  0  0  0  0  0
   47.1260    8.5435   20.8184 O   0  0  0  0  0  0  0  0  0  0  0  0
   48.7011   10.0597   20.1603 C   0  0  0  0  0  0  0  0  0  0  0  0
   49.6680   12.5423   21.0640 C   0  0  2  0  0  0  0  0  0  0  0  0
   48.1150    8.8332   19.9018 C   0  0  0  0  0  0  0  0  0  0  0  0
   49.8245   10.5159   19.4959 C   0  0  0  0  0  0  0  0  0  0  0  0
   48.7095   13.3558   20.2670 N   0  0  0  0  0  0  0  0  0  0  0  0
   50.5134   11.7611   20.0001 C   0  0  0  0  0  0  0  0  0  0  0  0
   46.8785   11.6530   20.6628 C   0  0  0  0  0  0  0  0  0  0  0  0
   49.9930   10.6615   22.8383 C   0  0  0  0  0  0  0  0  0  0  0  0
   48.3223    8.7958   22.9459 C   0  0  0  0  0  0  0  0  0  0  0  0
   48.5575    8.0337   18.8653 C   0  0  0  0  0  0  0  0  0  0  0  0
   50.3058    9.7163   18.4607 C   0  0  0  0  0  0  0  0  0  0  0  0
   47.2879   13.1269   20.4812 C   0  0  0  0  0  0  0  0  0  0  0  0
   49.6677    8.4944   18.1378 C   0  0  0  0  0  0  0  0  0  0  0  0
   49.2592    9.6764   23.7427 C   0  0  0  0  0  0  0  0  0  0  0  0
   48.3709   12.3096   23.1634 O   0  0  0  0  0  0  0  0  0  0  0  0
   48.2398    7.5947   23.2122 O   0  0  0  0  0  0  0  0  0  0  0  0
   49.0433   14.7769   20.2798 C   0  0  0  0  0  0  0  0  0  0  0  0
   47.8905    6.8619   18.6636 O   0  0  0  0  0  0  0  0  0  0  0  0
   48.2533    6.1014   17.5217 C   0  0  0  0  0  0  0  0  0  0  0  0
   49.8155   13.2186   21.3891 C   0  0  0  0  0  0  0  0  0  0  0  0
   48.1706    7.9027   19.8460 C   0  0  0  0  0  0  0  0  0  0  0  0
   48.6141    9.2595   20.2511 C   0  0  0  0  0  0  0  0  0  0  0  0
   49.3720   11.8619   20.9875 C   0  0  0  0  0  0  0  0  0  0  0  0
   47.0751    7.6149   19.4012 O   0  0  0  0  0  0  0  0  0  0  0  0
   50.8909   13.4986   21.8848 O   0  0  0  0  0  0  0  0  0  0  0  0
   48.1000   11.6251   20.4526 C   0  0  0  0  0  0  0  0  0  0  0  0
   47.7226   10.3283   20.0856 C   0  0  0  0  0  0  0  0  0  0  0  0
   50.2645   10.7934   21.1498 C   0  0  0  0  0  0  0  0  0  0  0  0
   49.8853    9.4951   20.7892 C   0  0  0  0  0  0  0  0  0  0  0  0
   48.8899   14.1628   21.1455 O   0  0  0  0  0  0  0  0  0  0  0  0
   49.1282    6.9726   20.0088 O   0  0  0  0  0  0  0  0  0  0  0  0
   46.2749   11.8841   19.9664 H   0  0  0  0  0  0  0  0  0  0  0  0
   49.7834    7.9007   19.0602 H   0  0  0  0  0  0  0  0  0  0  0  0
   51.4198    9.1683   20.1582 H   0  0  0  0  0  0  0  0  0  0  0  0
   50.7928    8.2407   21.5127 H   0  0  0  0  0  0  0  0  0  0  0  0
   45.9385    9.9388   20.8623 H   0  0  0  0  0  0  0  0  0  0  0  0
   47.0888    9.8333   22.1852 H   0  0  0  0  0  0  0  0  0  0  0  0
   50.6262   10.5210   18.5807 H   0  0  0  0  0  0  0  0  0  0  0  0
   49.5662   10.1802   17.2357 H   0  0  0  0  0  0  0  0  0  0  0  0
   52.0613   10.4348   22.6400 H   0  0  0  0  0  0  0  0  0  0  0  0
   46.5394    7.9038   19.9143 H   0  0  0  0  0  0  0  0  0  0  0  0
   46.5976    7.6245   21.6398 H   0  0  0  0  0  0  0  0  0  0  0  0
   51.6230   12.6779   23.4992 H   0  0  0  0  0  0  0  0  0  0  0  0
   49.8600   12.6713   18.8512 H   0  0  0  0  0  0  0  0  0  0  0  0
   49.4120   12.4615   17.1650 H   0  0  0  0  0  0  0  0  0  0  0  0
   47.2377    9.9531   17.7128 H   0  0  0  0  0  0  0  0  0  0  0  0
   47.9704    5.6884   21.0812 H   0  0  0  0  0  0  0  0  0  0  0  0
   48.1519    6.1077   19.3666 H   0  0  0  0  0  0  0  0  0  0  0  0
   49.5770    5.9265   20.4108 H   0  0  0  0  0  0  0  0  0  0  0  0
   51.3370   14.9746   23.2654 H   0  0  0  0  0  0  0  0  0  0  0  0
   50.3330   14.3737   24.6419 H   0  0  0  0  0  0  0  0  0  0  0  0
   49.9518   15.9077   23.8423 H   0  0  0  0  0  0  0  0  0  0  0  0
   46.4566    9.6779   22.4281 H   0  0  0  0  0  0  0  0  0  0  0  0
   50.3376   13.2103   21.6237 H   0  0  0  0  0  0  0  0  0  0  0  0
   50.7715   12.4133   19.1547 H   0  0  0  0  0  0  0  0  0  0  0  0
   51.4614   11.4586   20.4623 H   0  0  0  0  0  0  0  0  0  0  0  0
   45.9906   11.6419   21.3109 H   0  0  0  0  0  0  0  0  0  0  0  0
   46.5461   11.2597   19.6910 H   0  0  0  0  0  0  0  0  0  0  0  0
   50.6555   11.2774   23.4597 H   0  0  0  0  0  0  0  0  0  0  0  0
   50.6360   10.1000   22.1542 H   0  0  0  0  0  0  0  0  0  0  0  0
   51.1935   10.0145   17.9076 H   0  0  0  0  0  0  0  0  0  0  0  0
   46.7283   13.5246   19.6213 H   0  0  0  0  0  0  0  0  0  0  0  0
   46.9329   13.7071   21.3436 H   0  0  0  0  0  0  0  0  0  0  0  0
   50.0887    7.9113   17.3241 H   0  0  0  0  0  0  0  0  0  0  0  0
   49.9927    9.0359   24.2455 H   0  0  0  0  0  0  0  0  0  0  0  0
   48.6817   10.1862   24.5221 H   0  0  0  0  0  0  0  0  0  0  0  0
   47.5159   12.6770   22.8809 H   0  0  0  0  0  0  0  0  0  0  0  0
   48.9194   15.2123   21.2782 H   0  0  0  0  0  0  0  0  0  0  0  0
   50.0787   14.9322   19.9557 H   0  0  0  0  0  0  0  0  0  0  0  0
   48.4089   15.3304   19.5783 H   0  0  0  0  0  0  0  0  0  0  0  0
   49.2755    5.7225   17.6112 H   0  0  0  0  0  0  0  0  0  0  0  0
   48.1277    6.6831   16.6044 H   0  0  0  0  0  0  0  0  0  0  0  0
   47.5841    5.2381   17.4635 H   0  0  0  0  0  0  0  0  0  0  0  0
   47.3939   12.4404   20.3138 H   0  0  0  0  0  0  0  0  0  0  0  0
   46.7315   10.1561   19.6674 H   0  0  0  0  0  0  0  0  0  0  0  0
   51.2575   10.9659   21.5627 H   0  0  0  0  0  0  0  0  0  0  0  0
   50.5922    8.6788   20.9235 H   0  0  0  0  0  0  0  0  0  0  0  0
   49.3119   14.9907   21.4567 H   0  0  0  0  0  0  0  0  0  0  0  0
   48.7060    6.1430   19.7025 H   0  0  0  0  0  0  0  0  0  0  0  0
 14  7  2  0
 15  8  1  0
 16 11  1  0
 17 15  2  0
 18 13  1  0
  2 19  1  1
 20 13  2  0
 21  9  1  0
  4  7  1  0
 16  9  1  0
  6 10  1  0
 18 12  1  0
 17 14  1  0
 14 22  1  0
 22 23  1  0
  2  1  1  0
  3  1  1  0
  3  4  1  0
  5  1  1  0
  6  2  1  0
  7  5  1  0
  8  5  2  0
  6  9  1  0
 10  8  1  0
  1 11  1  1
 12  2  1  0
 13  3  1  0
 37 30  2  0
 38 31  1  0
 39 34  1  0
 40 38  2  0
 41 36  1  0
 25 42  1  1
 43 36  2  0
 44 32  1  0
 27 30  1  0
 39 32  1  0
 29 33  1  0
 41 35  1  0
 40 37  1  0
 37 45  1  0
 45 46  1  0
 25 24  1  0
 26 24  1  0
 26 27  1  0
 28 24  1  0
 29 25  1  0
 30 28  1  0
 31 28  2  0
 29 32  1  0
 33 31  1  0
 24 34  1  1
 35 25  1  0
 36 26  1  0
 48 49  1  0
 49 56  2  0
 50 47  1  0
 51 48  2  0
 52 47  2  0
 53 50  1  0
 54 53  2  0
 55 50  2  0
 56 55  1  0
 57 47  1  0
 58 48  1  0
 49 54  1  0
  3 59  1  1
  6 60  1  6
 10 61  1  0
 10 62  1  0
 11 63  1  0
 11 64  1  0
 12 65  1  0
 12 66  1  0
 15 67  1  0
 16 68  1  0
 16 69  1  0
 17 70  1  0
 18 71  1  0
 18 72  1  0
 19 73  1  0
 21 74  1  0
 21 75  1  0
 21 76  1  0
 23 77  1  0
 23 78  1  0
 23 79  1  0
 26 80  1  1
 29 81  1  6
 33 82  1  0
 33 83  1  0
 34 84  1  0
 34 85  1  0
 35 86  1  0
 35 87  1  0
 38 88  1  0
 39 89  1  0
 39 90  1  0
 40 91  1  0
 41 92  1  0
 41 93  1  0
 42 94  1  0
 44 95  1  0
 44 96  1  0
 44 97  1  0
 46 98  1  0
 46 99  1  0
 46100  1  0
 53101  1  0
 54102  1  0
 55103  1  0
 56104  1  0
 57105  1  0
 58106  1  0
M  END
> <Uni-Dock RESULT> 
ENERGY=   -4.577  LOWER_BOUND=    1.407  UPPER_BOUND=    3.836
INTER + INTRA:          -4.577
INTER:                  -4.577
INTRA:                   0.000
UNBOUND:                 0.000

$$$$

     RDKit          3D

106114  0  0  0  0  0  0  0  0999 V2000
   48.1577   11.5518   18.6840 C   0  0  2  0  0  0  0  0  0  0  0  0
   48.9189   10.3498   18.0965 C   0  0  2  0  0  0  0  0  0  0  0  0
   47.8701   12.7328   17.7409 C   0  0  1  0  0  0  0  0  0  0  0  0
   48.1893   13.9745   18.4104 O   0  0  0  0  0  0  0  0  0  0  0  0
   49.0970   12.2520   19.6120 C   0  0  0  0  0  0  0  0  0  0  0  0
   49.2829    9.4459   19.3492 C   0  0  2  0  0  0  0  0  0  0  0  0
   49.0156   13.6203   19.4490 C   0  0  0  0  0  0  0  0  0  0  0  0
   50.0334   11.6527   20.4365 C   0  0  0  0  0  0  0  0  0  0  0  0
   48.1149    9.0678   20.1977 N   0  0  0  0  0  0  0  0  0  0  0  0
   50.2727   10.1671   20.3249 C   0  0  0  0  0  0  0  0  0  0  0  0
   46.8819   11.1116   19.4479 C   0  0  0  0  0  0  0  0  0  0  0  0
   50.1710   10.7310   17.2529 C   0  0  0  0  0  0  0  0  0  0  0  0
   48.6492   12.5537   16.4423 C   0  0  0  0  0  0  0  0  0  0  0  0
   49.7733   14.4806   20.2225 C   0  0  0  0  0  0  0  0  0  0  0  0
   50.8121   12.4974   21.2263 C   0  0  0  0  0  0  0  0  0  0  0  0
   46.8319    9.6079   19.7527 C   0  0  0  0  0  0  0  0  0  0  0  0
   50.6622   13.8989   21.1391 C   0  0  0  0  0  0  0  0  0  0  0  0
   50.0819   12.0997   16.5677 C   0  0  0  0  0  0  0  0  0  0  0  0
   48.0610    9.6024   17.2102 O   0  0  0  0  0  0  0  0  0  0  0  0
   48.1210   12.6905   15.3378 O   0  0  0  0  0  0  0  0  0  0  0  0
   48.0295    7.6208   20.3827 C   0  0  0  0  0  0  0  0  0  0  0  0
   49.6148   15.8154   19.9896 O   0  0  0  0  0  0  0  0  0  0  0  0
   50.3511   16.7032   20.8199 C   0  0  0  0  0  0  0  0  0  0  0  0
   47.9816   12.1168   19.4918 C   0  0  2  0  0  0  0  0  0  0  0  0
   48.8958   13.1178   20.2074 C   0  0  2  0  0  0  0  0  0  0  0  0
   47.0833   11.2121   20.3511 C   0  0  1  0  0  0  0  0  0  0  0  0
   46.9168    9.9589   19.6214 O   0  0  0  0  0  0  0  0  0  0  0  0
   48.8163   11.0124   18.9177 C   0  0  0  0  0  0  0  0  0  0  0  0
   49.9333   13.5867   19.1185 C   0  0  2  0  0  0  0  0  0  0  0  0
   48.1181    9.8184   18.9586 C   0  0  0  0  0  0  0  0  0  0  0  0
   50.1166   11.1125   18.4588 C   0  0  0  0  0  0  0  0  0  0  0  0
   49.3160   14.0971   17.8639 N   0  0  0  0  0  0  0  0  0  0  0  0
   50.8618   12.4101   18.6595 C   0  0  0  0  0  0  0  0  0  0  0  0
   47.1997   12.7882   18.3293 C   0  0  0  0  0  0  0  0  0  0  0  0
   49.5562   12.4990   21.4564 C   0  0  0  0  0  0  0  0  0  0  0  0
   47.6330   10.9207   21.7622 C   0  0  0  0  0  0  0  0  0  0  0  0
   48.6499    8.6606   18.4239 C   0  0  0  0  0  0  0  0  0  0  0  0
   50.6855    9.9526   17.9356 C   0  0  0  0  0  0  0  0  0  0  0  0
   47.8647   14.0556   17.7596 C   0  0  0  0  0  0  0  0  0  0  0  0
   49.9525    8.7419   17.9033 C   0  0  0  0  0  0  0  0  0  0  0  0
   48.4945   11.9764   22.4189 C   0  0  0  0  0  0  0  0  0  0  0  0
   48.1808   14.2458   20.7426 O   0  0  0  0  0  0  0  0  0  0  0  0
   47.3063    9.9168   22.3994 O   0  0  0  0  0  0  0  0  0  0  0  0
   49.8566   15.3939   17.4672 C   0  0  0  0  0  0  0  0  0  0  0  0
   47.8698    7.5437   18.4752 O   0  0  0  0  0  0  0  0  0  0  0  0
   48.3546    6.3871   17.8110 C   0  0  0  0  0  0  0  0  0  0  0  0
   50.1086   14.3249   19.2134 C   0  0  0  0  0  0  0  0  0  0  0  0
   48.0385    8.9343   19.2483 C   0  0  0  0  0  0  0  0  0  0  0  0
   48.5871   10.3129   19.2558 C   0  0  0  0  0  0  0  0  0  0  0  0
   49.5592   12.9477   19.2090 C   0  0  0  0  0  0  0  0  0  0  0  0
   47.0386    8.5690   18.6588 O   0  0  0  0  0  0  0  0  0  0  0  0
   51.0766   14.7035   19.8461 O   0  0  0  0  0  0  0  0  0  0  0  0
   48.4175   12.6066   18.4739 C   0  0  0  0  0  0  0  0  0  0  0  0
   47.9334   11.2936   18.4973 C   0  0  0  0  0  0  0  0  0  0  0  0
   50.2147   11.9660   19.9649 C   0  0  0  0  0  0  0  0  0  0  0  0
   49.7271   10.6541   19.9940 C   0  0  0  0  0  0  0  0  0  0  0  0
   49.4200   15.1631   18.4192 O   0  0  0  0  0  0  0  0  0  0  0  0
   48.7782    8.0765   19.9735 O   0  0  0  0  0  0  0  0  0  0  0  0
   46.8103   12.7765   17.4626 H   0  0  0  0  0  0  0  0  0  0  0  0
   49.7653    8.5346   18.9703 H   0  0  0  0  0  0  0  0  0  0  0  0
   51.2931   10.0178   19.9479 H   0  0  0  0  0  0  0  0  0  0  0  0
   50.2428    9.7118   21.3231 H   0  0  0  0  0  0  0  0  0  0  0  0
   45.9827   11.3389   18.8584 H   0  0  0  0  0  0  0  0  0  0  0  0
   46.7779   11.6691   20.3890 H   0  0  0  0  0  0  0  0  0  0  0  0
   51.0929   10.7213   17.8472 H   0  0  0  0  0  0  0  0  0  0  0  0
   50.3196    9.9648   16.4766 H   0  0  0  0  0  0  0  0  0  0  0  0
   51.5552   12.0851   21.9057 H   0  0  0  0  0  0  0  0  0  0  0  0
   46.4539    9.0633   18.8770 H   0  0  0  0  0  0  0  0  0  0  0  0
   46.0814    9.4534   20.5406 H   0  0  0  0  0  0  0  0  0  0  0  0
   51.2926   14.5092   21.7777 H   0  0  0  0  0  0  0  0  0  0  0  0
   50.6317   12.8579   17.1357 H   0  0  0  0  0  0  0  0  0  0  0  0
   50.5438   12.0553   15.5749 H   0  0  0  0  0  0  0  0  0  0  0  0
   47.9372   10.0812   16.3675 H   0  0  0  0  0  0  0  0  0  0  0  0
   47.2241    7.3678   21.0792 H   0  0  0  0  0  0  0  0  0  0  0  0
   47.8467    7.0962   19.4399 H   0  0  0  0  0  0  0  0  0  0  0  0
   48.9567    7.2339   20.8194 H   0  0  0  0  0  0  0  0  0  0  0  0
   51.4288   16.5605   20.6892 H   0  0  0  0  0  0  0  0  0  0  0  0
   50.0619   16.5883   21.8701 H   0  0  0  0  0  0  0  0  0  0  0  0
   50.1133   17.7271   20.5143 H   0  0  0  0  0  0  0  0  0  0  0  0
   46.0912   11.6568   20.4941 H   0  0  0  0  0  0  0  0  0  0  0  0
   50.5574   14.3732   19.5655 H   0  0  0  0  0  0  0  0  0  0  0  0
   51.4007   12.6771   17.7402 H   0  0  0  0  0  0  0  0  0  0  0  0
   51.6236   12.2459   19.4318 H   0  0  0  0  0  0  0  0  0  0  0  0
   46.1991   13.0784   18.6802 H   0  0  0  0  0  0  0  0  0  0  0  0
   47.0350   12.0786   17.5053 H   0  0  0  0  0  0  0  0  0  0  0  0
   50.1515   13.2612   21.9752 H   0  0  0  0  0  0  0  0  0  0  0  0
   50.2397   11.6816   21.2083 H   0  0  0  0  0  0  0  0  0  0  0  0
   51.7097    9.9636   17.5697 H   0  0  0  0  0  0  0  0  0  0  0  0
   47.5802   14.1333   16.6994 H   0  0  0  0  0  0  0  0  0  0  0  0
   47.4215   14.9396   18.2377 H   0  0  0  0  0  0  0  0  0  0  0  0
   50.4478    7.8695   17.4875 H   0  0  0  0  0  0  0  0  0  0  0  0
   48.9879   11.5287   23.2890 H   0  0  0  0  0  0  0  0  0  0  0  0
   47.8448   12.7780   22.7881 H   0  0  0  0  0  0  0  0  0  0  0  0
   47.4786   14.5321   20.1337 H   0  0  0  0  0  0  0  0  0  0  0  0
   49.5829   16.1810   18.1794 H   0  0  0  0  0  0  0  0  0  0  0  0
   50.9495   15.3500   17.3961 H   0  0  0  0  0  0  0  0  0  0  0  0
   49.4893   15.6799   16.4751 H   0  0  0  0  0  0  0  0  0  0  0  0
   49.2589    6.0069   18.2948 H   0  0  0  0  0  0  0  0  0  0  0  0
   48.5292    6.5859   16.7501 H   0  0  0  0  0  0  0  0  0  0  0  0
   47.5887    5.6096   17.8830 H   0  0  0  0  0  0  0  0  0  0  0  0
   47.8966   13.3516   17.8771 H   0  0  0  0  0  0  0  0  0  0  0  0
   47.0461   11.0386   17.9189 H   0  0  0  0  0  0  0  0  0  0  0  0
   51.1050   12.2191   20.5389 H   0  0  0  0  0  0  0  0  0  0  0  0
   50.2497    9.9065   20.5874 H   0  0  0  0  0  0  0  0  0  0  0  0
   49.8861   16.0191   18.5214 H   0  0  0  0  0  0  0  0  0  0  0  0
   48.3104    7.2209   19.8763 H   0  0  0  0  0  0  0  0  0  0  0  0
 14  7  2  0
 15  8  1  0
 16 11  1  0
 17 15  2  0
 18 13  1  0
  2 19  1  1
 20 13  2  0
 21  9  1  0
  4  7  1  0
 16  9  1  0
  6 10  1  0
 18 12  1  0
 17 14  1  0
 14 22  1  0
 22 23  1  0
  2  1  1  0
  3  1  1  0
  3  4  1  0
  5  1  1  0
  6  2  1  0
  7  5  1  0
  8  5  2  0
  6  9  1  0
 10  8  1  0
  1 11  1  1
 12  2  1  0
 13  3  1  0
 37 30  2  0
 38 31  1  0
 39 34  1  0
 40 38  2  0
 41 36  1  0
 25 42  1  1
 43 36  2  0
 44 32  1  0
 27 30  1  0
 39 32  1  0
 29 33  1  0
 41 35  1  0
 40 37  1  0
 37 45  1  0
 45 46  1  0
 25 24  1  0
 26 24  1  0
 26 27  1  0
 28 24  1  0
 29 25  1  0
 30 28  1  0
 31 28  2  0
 29 32  1  0
 33 31  1  0
 24 34  1  1
 35 25  1  0
 36 26  1  0
 48 49  1  0
 49 56  2  0
 50 47  1  0
 51 48  2  0
 52 47  2  0
 53 50  1  0
 54 53  2  0
 55 50  2  0
 56 55  1  0
 57 47  1  0
 58 48  1  0
 49 54  1  0
  3 59  1  1
  6 60  1  6
 10 61  1  0
 10 62  1  0
 11 63  1  0
 11 64  1  0
 12 65  1  0
 12 66  1  0
 15 67  1  0
 16 68  1  0
 16 69  1  0
 17 70  1  0
 18 71  1  0
 18 72  1  0
 19 73  1  0
 21 74  1  0
 21 75  1  0
 21 76  1  0
 23 77  1  0
 23 78  1  0
 23 79  1  0
 26 80  1  1
 29 81  1  6
 33 82  1  0
 33 83  1  0
 34 84  1  0
 34 85  1  0
 35 86  1  0
 35 87  1  0
 38 88  1  0
 39 89  1  0
 39 90  1  0
 40 91  1  0
 41 92  1  0
 41 93  1  0
 42 94  1  0
 44 95  1  0
 44 96  1  0
 44 97  1  0
 46 98  1  0
 46 99  1  0
 46100  1  0
 53101  1  0
 54102  1  0
 55103  1  0
 56104  1  0
 57105  1  0
 58106  1  0
M  END
> <Uni-Dock RESULT> 
ENERGY=   -4.547  LOWER_BOUND=    2.048  UPPER_BOUND=    4.428
INTER + INTRA:          -4.547
INTER:                  -4.547
INTRA:                   0.000
UNBOUND:                 0.000

$$$$

     RDKit          3D

106114  0  0  0  0  0  0  0  0999 V2000
   48.0250   10.3964   19.2982 C   0  0  2  0  0  0  0  0  0  0  0  0
   48.7367   10.1434   17.9569 C   0  0  2  0  0  0  0  0  0  0  0  0
   47.2703   11.7278   19.4551 C   0  0  1  0  0  0  0  0  0  0  0  0
   47.5883   12.3152   20.7379 O   0  0  0  0  0  0  0  0  0  0  0  0
   49.0899   10.6408   20.3180 C   0  0  0  0  0  0  0  0  0  0  0  0
   49.6185    8.8467   18.2015 C   0  0  2  0  0  0  0  0  0  0  0  0
   48.7477   11.6970   21.1383 C   0  0  0  0  0  0  0  0  0  0  0  0
   50.3222   10.0139   20.3828 C   0  0  0  0  0  0  0  0  0  0  0  0
   48.8572    7.6705   18.7150 N   0  0  0  0  0  0  0  0  0  0  0  0
   50.7425    9.0936   19.2634 C   0  0  0  0  0  0  0  0  0  0  0  0
   47.1455    9.1918   19.7228 C   0  0  0  0  0  0  0  0  0  0  0  0
   49.5778   11.3467   17.4377 C   0  0  0  0  0  0  0  0  0  0  0  0
   47.6115   12.6513   18.2904 C   0  0  0  0  0  0  0  0  0  0  0  0
   49.5685   12.0911   22.1793 C   0  0  0  0  0  0  0  0  0  0  0  0
   51.1702   10.3938   21.4222 C   0  0  0  0  0  0  0  0  0  0  0  0
   47.4314    7.9082   18.9309 C   0  0  0  0  0  0  0  0  0  0  0  0
   50.7830   11.4047   22.3290 C   0  0  0  0  0  0  0  0  0  0  0  0
   49.0616   12.7204   17.8818 C   0  0  0  0  0  0  0  0  0  0  0  0
   47.7687    9.8665   16.9243 O   0  0  0  0  0  0  0  0  0  0  0  0
   46.7436   13.2519   17.6552 O   0  0  0  0  0  0  0  0  0  0  0  0
   49.0628    6.4893   17.8796 C   0  0  0  0  0  0  0  0  0  0  0  0
   49.1371   13.1406   22.9366 O   0  0  0  0  0  0  0  0  0  0  0  0
   49.9517   13.5126   24.0402 C   0  0  0  0  0  0  0  0  0  0  0  0
   48.0302   10.2496   20.2887 C   0  0  2  0  0  0  0  0  0  0  0  0
   48.9567   10.8319   21.3622 C   0  0  2  0  0  0  0  0  0  0  0  0
   47.6066    8.7772   20.4171 C   0  0  1  0  0  0  0  0  0  0  0  0
   47.4139    8.2689   19.0624 O   0  0  0  0  0  0  0  0  0  0  0  0
   48.7995   10.0828   19.0134 C   0  0  0  0  0  0  0  0  0  0  0  0
   49.5051   12.1777   20.7538 C   0  0  2  0  0  0  0  0  0  0  0  0
   48.3468    8.9697   18.3273 C   0  0  0  0  0  0  0  0  0  0  0  0
   49.8526   10.8643   18.5756 C   0  0  0  0  0  0  0  0  0  0  0  0
   48.4475   13.1094   20.2751 N   0  0  0  0  0  0  0  0  0  0  0  0
   50.4102   11.9194   19.5003 C   0  0  0  0  0  0  0  0  0  0  0  0
   46.8230   11.1863   20.0077 C   0  0  0  0  0  0  0  0  0  0  0  0
   50.0697    9.8400   21.7576 C   0  0  0  0  0  0  0  0  0  0  0  0
   48.6167    7.8848   21.1664 C   0  0  0  0  0  0  0  0  0  0  0  0
   48.8541    8.6406   17.0848 C   0  0  0  0  0  0  0  0  0  0  0  0
   50.3985   10.5389   17.3351 C   0  0  0  0  0  0  0  0  0  0  0  0
   47.0643   12.6651   20.3657 C   0  0  0  0  0  0  0  0  0  0  0  0
   49.8925    9.4471   16.5893 C   0  0  0  0  0  0  0  0  0  0  0  0
   49.4666    8.5251   22.2415 C   0  0  0  0  0  0  0  0  0  0  0  0
   48.2830   11.0789   22.6093 O   0  0  0  0  0  0  0  0  0  0  0  0
   48.6720    6.6656   20.9906 O   0  0  0  0  0  0  0  0  0  0  0  0
   48.6232   14.4622   20.7947 C   0  0  0  0  0  0  0  0  0  0  0  0
   48.3162    7.5495   16.4694 O   0  0  0  0  0  0  0  0  0  0  0  0
   48.7379    7.2851   15.1405 C   0  0  0  0  0  0  0  0  0  0  0  0
   49.5837   12.7077   21.2993 C   0  0  0  0  0  0  0  0  0  0  0  0
   48.5033    8.1308   17.9483 C   0  0  0  0  0  0  0  0  0  0  0  0
   48.8028    9.2975   18.8146 C   0  0  0  0  0  0  0  0  0  0  0  0
   49.2843   11.5398   20.4363 C   0  0  0  0  0  0  0  0  0  0  0  0
   47.4376    7.8998   17.4082 O   0  0  0  0  0  0  0  0  0  0  0  0
   50.6313   12.9113   21.8838 O   0  0  0  0  0  0  0  0  0  0  0  0
   48.0358   11.3687   19.8262 C   0  0  0  0  0  0  0  0  0  0  0  0
   47.7962   10.2513   19.0181 C   0  0  0  0  0  0  0  0  0  0  0  0
   50.2919   10.5876   20.2299 C   0  0  0  0  0  0  0  0  0  0  0  0
   50.0507    9.4664   19.4271 C   0  0  0  0  0  0  0  0  0  0  0  0
   48.5554   13.5695   21.3851 O   0  0  0  0  0  0  0  0  0  0  0  0
   49.5604    7.3141   17.7924 O   0  0  0  0  0  0  0  0  0  0  0  0
   46.1841   11.5804   19.4252 H   0  0  0  0  0  0  0  0  0  0  0  0
   50.0908    8.5829   17.2454 H   0  0  0  0  0  0  0  0  0  0  0  0
   51.5991    9.5536   18.7531 H   0  0  0  0  0  0  0  0  0  0  0  0
   51.1047    8.1453   19.6805 H   0  0  0  0  0  0  0  0  0  0  0  0
   46.0813    9.4198   19.5709 H   0  0  0  0  0  0  0  0  0  0  0  0
   47.2619    8.9817   20.7950 H   0  0  0  0  0  0  0  0  0  0  0  0
   50.6308   11.2796   17.7376 H   0  0  0  0  0  0  0  0  0  0  0  0
   49.5886   11.3206   16.3373 H   0  0  0  0  0  0  0  0  0  0  0  0
   52.1461    9.9263   21.5346 H   0  0  0  0  0  0  0  0  0  0  0  0
   46.8835    7.9286   17.9791 H   0  0  0  0  0  0  0  0  0  0  0  0
   47.0059    7.0672   19.4963 H   0  0  0  0  0  0  0  0  0  0  0  0
   51.4808   11.6599   23.1200 H   0  0  0  0  0  0  0  0  0  0  0  0
   49.6383   13.0986   18.7328 H   0  0  0  0  0  0  0  0  0  0  0  0
   49.1831   13.4488   17.0720 H   0  0  0  0  0  0  0  0  0  0  0  0
   47.3089   10.6858   16.6559 H   0  0  0  0  0  0  0  0  0  0  0  0
   48.5721    5.6154   18.3195 H   0  0  0  0  0  0  0  0  0  0  0  0
   48.6727    6.6295   16.8667 H   0  0  0  0  0  0  0  0  0  0  0  0
   50.1293    6.2495   17.8091 H   0  0  0  0  0  0  0  0  0  0  0  0
   50.9395   13.8454   23.7048 H   0  0  0  0  0  0  0  0  0  0  0  0
   50.0349   12.6915   24.7604 H   0  0  0  0  0  0  0  0  0  0  0  0
   49.4716   14.3571   24.5450 H   0  0  0  0  0  0  0  0  0  0  0  0
   46.6555    8.6822   20.9545 H   0  0  0  0  0  0  0  0  0  0  0  0
   50.1081   12.6747   21.5266 H   0  0  0  0  0  0  0  0  0  0  0  0
   50.5784   12.8519   18.9445 H   0  0  0  0  0  0  0  0  0  0  0  0
   51.3946   11.5795   19.8456 H   0  0  0  0  0  0  0  0  0  0  0  0
   45.9546   10.8501   20.5919 H   0  0  0  0  0  0  0  0  0  0  0  0
   46.5168   11.1269   18.9530 H   0  0  0  0  0  0  0  0  0  0  0  0
   50.6726   10.2661   22.5696 H   0  0  0  0  0  0  0  0  0  0  0  0
   50.7570    9.6299   20.9328 H   0  0  0  0  0  0  0  0  0  0  0  0
   51.2371   11.1085   16.9410 H   0  0  0  0  0  0  0  0  0  0  0  0
   46.4475   13.2764   19.6898 H   0  0  0  0  0  0  0  0  0  0  0  0
   46.6646   12.8613   21.3697 H   0  0  0  0  0  0  0  0  0  0  0  0
   50.3590    9.2382   15.6311 H   0  0  0  0  0  0  0  0  0  0  0  0
   50.2757    7.8331   22.5013 H   0  0  0  0  0  0  0  0  0  0  0  0
   48.8520    8.6608   23.1385 H   0  0  0  0  0  0  0  0  0  0  0  0
   47.3874   11.4261   22.4570 H   0  0  0  0  0  0  0  0  0  0  0  0
   48.4719   14.5014   21.8798 H   0  0  0  0  0  0  0  0  0  0  0  0
   49.6288   14.8344   20.5675 H   0  0  0  0  0  0  0  0  0  0  0  0
   47.9182   15.1543   20.3204 H   0  0  0  0  0  0  0  0  0  0  0  0
   49.7971    7.0136   15.1117 H   0  0  0  0  0  0  0  0  0  0  0  0
   48.5311    8.1352   14.4847 H   0  0  0  0  0  0  0  0  0  0  0  0
   48.1667    6.4298   14.7680 H   0  0  0  0  0  0  0  0  0  0  0  0
   47.2418   12.0977   19.9693 H   0  0  0  0  0  0  0  0  0  0  0  0
   46.8220   10.1299   18.5458 H   0  0  0  0  0  0  0  0  0  0  0  0
   51.2679   10.7113   20.6973 H   0  0  0  0  0  0  0  0  0  0  0  0
   50.8456    8.7381   19.2796 H   0  0  0  0  0  0  0  0  0  0  0  0
   48.8898   14.2756   21.9768 H   0  0  0  0  0  0  0  0  0  0  0  0
   49.2260    6.6047   17.2048 H   0  0  0  0  0  0  0  0  0  0  0  0
 14  7  2  0
 15  8  1  0
 16 11  1  0
 17 15  2  0
 18 13  1  0
  2 19  1  1
 20 13  2  0
 21  9  1  0
  4  7  1  0
 16  9  1  0
  6 10  1  0
 18 12  1  0
 17 14  1  0
 14 22  1  0
 22 23  1  0
  2  1  1  0
  3  1  1  0
  3  4  1  0
  5  1  1  0
  6  2  1  0
  7  5  1  0
  8  5  2  0
  6  9  1  0
 10  8  1  0
  1 11  1  1
 12  2  1  0
 13  3  1  0
 37 30  2  0
 38 31  1  0
 39 34  1  0
 40 38  2  0
 41 36  1  0
 25 42  1  1
 43 36  2  0
 44 32  1  0
 27 30  1  0
 39 32  1  0
 29 33  1  0
 41 35  1  0
 40 37  1  0
 37 45  1  0
 45 46  1  0
 25 24  1  0
 26 24  1  0
 26 27  1  0
 28 24  1  0
 29 25  1  0
 30 28  1  0
 31 28  2  0
 29 32  1  0
 33 31  1  0
 24 34  1  1
 35 25  1  0
 36 26  1  0
 48 49  1  0
 49 56  2  0
 50 47  1  0
 51 48  2  0
 52 47  2  0
 53 50  1  0
 54 53  2  0
 55 50  2  0
 56 55  1  0
 57 47  1  0
 58 48  1  0
 49 54  1  0
  3 59  1  1
  6 60  1  6
 10 61  1  0
 10 62  1  0
 11 63  1  0
 11 64  1  0
 12 65  1  0
 12 66  1  0
 15 67  1  0
 16 68  1  0
 16 69  1  0
 17 70  1  0
 18 71  1  0
 18 72  1  0
 19 73  1  0
 21 74  1  0
 21 75  1  0
 21 76  1  0
 23 77  1  0
 23 78  1  0
 23 79  1  0
 26 80  1  1
 29 81  1  6
 33 82  1  0
 33 83  1  0
 34 84  1  0
 34 85  1  0
 35 86  1  0
 35 87  1  0
 38 88  1  0
 39 89  1  0
 39 90  1  0
 40 91  1  0
 41 92  1  0
 41 93  1  0
 42 94  1  0
 44 95  1  0
 44 96  1  0
 44 97  1  0
 46 98  1  0
 46 99  1  0
 46100  1  0
 53101  1  0
 54102  1  0
 55103  1  0
 56104  1  0
 57105  1  0
 58106  1  0
M  END
> <Uni-Dock RESULT> 
ENERGY=   -4.544  LOWER_BOUND=    1.640  UPPER_BOUND=    4.316
INTER + INTRA:          -4.544
INTER:                  -4.544
INTRA:                   0.000
UNBOUND:                 0.000

$$$$

     RDKit          3D

106114  0  0  0  0  0  0  0  0999 V2000
   49.9960   11.3633   19.9102 C   0  0  2  0  0  0  0  0  0  0  0  0
   49.3538   12.7545   20.0577 C   0  0  2  0  0  0  0  0  0  0  0  0
   50.2817   10.8672   18.4822 C   0  0  1  0  0  0  0  0  0  0  0  0
   49.8399    9.4964   18.3496 O   0  0  0  0  0  0  0  0  0  0  0  0
   48.9500   10.3592   20.2727 C   0  0  0  0  0  0  0  0  0  0  0  0
   48.9524   12.8579   21.5897 C   0  0  2  0  0  0  0  0  0  0  0  0
   48.9613    9.3004   19.3872 C   0  0  0  0  0  0  0  0  0  0  0  0
   47.9924   10.4941   21.2630 C   0  0  0  0  0  0  0  0  0  0  0  0
   50.0745   12.6043   22.5402 N   0  0  0  0  0  0  0  0  0  0  0  0
   47.8514   11.8148   21.9790 C   0  0  0  0  0  0  0  0  0  0  0  0
   51.2354   11.1979   20.8274 C   0  0  0  0  0  0  0  0  0  0  0  0
   48.1474   13.0105   19.1070 C   0  0  0  0  0  0  0  0  0  0  0  0
   49.6135   11.7952   17.4734 C   0  0  0  0  0  0  0  0  0  0  0  0
   48.0981    8.2305   19.5381 C   0  0  0  0  0  0  0  0  0  0  0  0
   47.1080    9.4303   21.4354 C   0  0  0  0  0  0  0  0  0  0  0  0
   51.3524   12.2803   21.9096 C   0  0  0  0  0  0  0  0  0  0  0  0
   47.1799    8.2963   20.5970 C   0  0  0  0  0  0  0  0  0  0  0  0
   48.2052   12.2353   17.7855 C   0  0  0  0  0  0  0  0  0  0  0  0
   50.3184   13.7827   19.7535 O   0  0  0  0  0  0  0  0  0  0  0  0
   50.2133   12.2354   16.4915 O   0  0  0  0  0  0  0  0  0  0  0  0
   50.2323   13.7016   23.4922 C   0  0  0  0  0  0  0  0  0  0  0  0
   48.1934    7.2307   18.6148 O   0  0  0  0  0  0  0  0  0  0  0  0
   47.3455    6.1050   18.7988 C   0  0  0  0  0  0  0  0  0  0  0  0
   50.0774   10.4361   20.2794 C   0  0  2  0  0  0  0  0  0  0  0  0
   49.0542    9.2948   20.3001 C   0  0  2  0  0  0  0  0  0  0  0  0
   50.9618   10.6400   21.5205 C   0  0  1  0  0  0  0  0  0  0  0  0
   51.2567   12.0671   21.6045 O   0  0  0  0  0  0  0  0  0  0  0  0
   49.3553   11.7453   20.3823 C   0  0  0  0  0  0  0  0  0  0  0  0
   48.0744    9.5920   19.1027 C   0  0  2  0  0  0  0  0  0  0  0  0
   50.1186   12.6546   21.0931 C   0  0  0  0  0  0  0  0  0  0  0  0
   48.0890   12.0301   19.9060 C   0  0  0  0  0  0  0  0  0  0  0  0
   48.7516    9.7945   17.7928 N   0  0  0  0  0  0  0  0  0  0  0  0
   47.2547   10.9070   19.3387 C   0  0  0  0  0  0  0  0  0  0  0  0
   50.9020   10.4394   18.9628 C   0  0  0  0  0  0  0  0  0  0  0  0
   48.3410    9.1896   21.6636 C   0  0  0  0  0  0  0  0  0  0  0  0
   50.3271   10.1635   22.8427 C   0  0  0  0  0  0  0  0  0  0  0  0
   49.6982   13.9594   21.2671 C   0  0  0  0  0  0  0  0  0  0  0  0
   47.6310   13.3337   20.0896 C   0  0  0  0  0  0  0  0  0  0  0  0
   50.2066    9.7541   17.7711 C   0  0  0  0  0  0  0  0  0  0  0  0
   48.4355   14.2937   20.7495 C   0  0  0  0  0  0  0  0  0  0  0  0
   49.3575    9.0039   22.7856 C   0  0  0  0  0  0  0  0  0  0  0  0
   49.6587    7.9980   20.1482 O   0  0  0  0  0  0  0  0  0  0  0  0
   50.6649   10.6230   23.9359 O   0  0  0  0  0  0  0  0  0  0  0  0
   48.1655    8.9792   16.7332 C   0  0  0  0  0  0  0  0  0  0  0  0
   50.5377   14.7914   21.9466 O   0  0  0  0  0  0  0  0  0  0  0  0
   50.1738   16.1614   22.0132 C   0  0  0  0  0  0  0  0  0  0  0  0
   47.8487    8.9408   18.7712 C   0  0  0  0  0  0  0  0  0  0  0  0
   50.2292   13.2263   21.8231 C   0  0  0  0  0  0  0  0  0  0  0  0
   49.6001   12.1231   21.0558 C   0  0  0  0  0  0  0  0  0  0  0  0
   48.4783   10.0411   19.5404 C   0  0  0  0  0  0  0  0  0  0  0  0
   51.2902   13.7613   21.5609 O   0  0  0  0  0  0  0  0  0  0  0  0
   46.8155    8.3684   19.0631 O   0  0  0  0  0  0  0  0  0  0  0  0
   49.6898   10.6225   19.1475 C   0  0  0  0  0  0  0  0  0  0  0  0
   50.2485   11.6600   19.9027 C   0  0  0  0  0  0  0  0  0  0  0  0
   47.8283   10.5066   20.6917 C   0  0  0  0  0  0  0  0  0  0  0  0
   48.3900   11.5398   21.4512 C   0  0  0  0  0  0  0  0  0  0  0  0
   48.5431    8.6128   17.6677 O   0  0  0  0  0  0  0  0  0  0  0  0
   49.4903   13.6129   22.8782 O   0  0  0  0  0  0  0  0  0  0  0  0
   51.3547   10.8863   18.2570 H   0  0  0  0  0  0  0  0  0  0  0  0
   48.5549   13.8678   21.7599 H   0  0  0  0  0  0  0  0  0  0  0  0
   46.8726   12.2374   21.7163 H   0  0  0  0  0  0  0  0  0  0  0  0
   47.8341   11.6474   23.0636 H   0  0  0  0  0  0  0  0  0  0  0  0
   52.1608   11.2482   20.2367 H   0  0  0  0  0  0  0  0  0  0  0  0
   51.2356   10.2108   21.3100 H   0  0  0  0  0  0  0  0  0  0  0  0
   47.1860   12.7783   19.5815 H   0  0  0  0  0  0  0  0  0  0  0  0
   48.1030   14.0858   18.8754 H   0  0  0  0  0  0  0  0  0  0  0  0
   46.3425    9.4710   22.2075 H   0  0  0  0  0  0  0  0  0  0  0  0
   51.8265   13.1774   21.4887 H   0  0  0  0  0  0  0  0  0  0  0  0
   52.0502   11.9114   22.6745 H   0  0  0  0  0  0  0  0  0  0  0  0
   46.4683    7.4967   20.7764 H   0  0  0  0  0  0  0  0  0  0  0  0
   47.5703   11.3436   17.8270 H   0  0  0  0  0  0  0  0  0  0  0  0
   47.8218   12.8555   16.9673 H   0  0  0  0  0  0  0  0  0  0  0  0
   50.4756   13.8319   18.7904 H   0  0  0  0  0  0  0  0  0  0  0  0
   50.9974   13.4596   24.2365 H   0  0  0  0  0  0  0  0  0  0  0  0
   50.5158   14.6363   22.9986 H   0  0  0  0  0  0  0  0  0  0  0  0
   49.3000   13.8702   24.0422 H   0  0  0  0  0  0  0  0  0  0  0  0
   46.2910    6.3931   18.7364 H   0  0  0  0  0  0  0  0  0  0  0  0
   47.5622    5.6020   19.7473 H   0  0  0  0  0  0  0  0  0  0  0  0
   47.5438    5.3967   17.9880 H   0  0  0  0  0  0  0  0  0  0  0  0
   51.9121   10.1014   21.4246 H   0  0  0  0  0  0  0  0  0  0  0  0
   47.3729    8.7494   19.0255 H   0  0  0  0  0  0  0  0  0  0  0  0
   46.7706   11.2346   18.4085 H   0  0  0  0  0  0  0  0  0  0  0  0
   46.4487   10.6920   20.0514 H   0  0  0  0  0  0  0  0  0  0  0  0
   51.8546    9.9154   19.1257 H   0  0  0  0  0  0  0  0  0  0  0  0
   51.1696   11.4650   18.6694 H   0  0  0  0  0  0  0  0  0  0  0  0
   47.6642    8.3256   21.6605 H   0  0  0  0  0  0  0  0  0  0  0  0
   47.7279   10.0681   21.8855 H   0  0  0  0  0  0  0  0  0  0  0  0
   46.6380   13.6170   19.7480 H   0  0  0  0  0  0  0  0  0  0  0  0
   50.5640   10.2415   16.8516 H   0  0  0  0  0  0  0  0  0  0  0  0
   50.5593    8.7166   17.6977 H   0  0  0  0  0  0  0  0  0  0  0  0
   48.0255   15.2924   20.8670 H   0  0  0  0  0  0  0  0  0  0  0  0
   48.8284    8.9474   23.7437 H   0  0  0  0  0  0  0  0  0  0  0  0
   49.9289    8.0756   22.6726 H   0  0  0  0  0  0  0  0  0  0  0  0
   50.3859    8.0276   19.5031 H   0  0  0  0  0  0  0  0  0  0  0  0
   48.3379    7.9100   16.9035 H   0  0  0  0  0  0  0  0  0  0  0  0
   47.0855    9.1537   16.6659 H   0  0  0  0  0  0  0  0  0  0  0  0
   48.5878    9.2482   15.7584 H   0  0  0  0  0  0  0  0  0  0  0  0
   49.2603   16.2966   22.5995 H   0  0  0  0  0  0  0  0  0  0  0  0
   50.0669   16.5900   21.0130 H   0  0  0  0  0  0  0  0  0  0  0  0
   50.9773   16.7006   22.5230 H   0  0  0  0  0  0  0  0  0  0  0  0
   50.2082   10.2797   18.2552 H   0  0  0  0  0  0  0  0  0  0  0  0
   51.1900   12.1072   19.5859 H   0  0  0  0  0  0  0  0  0  0  0  0
   46.8842   10.0637   21.0058 H   0  0  0  0  0  0  0  0  0  0  0  0
   47.8703   11.8868   22.3420 H   0  0  0  0  0  0  0  0  0  0  0  0
   48.0203    7.8861   17.2690 H   0  0  0  0  0  0  0  0  0  0  0  0
   50.0143   14.3365   23.2809 H   0  0  0  0  0  0  0  0  0  0  0  0
 14  7  2  0
 15  8  1  0
 16 11  1  0
 17 15  2  0
 18 13  1  0
  2 19  1  1
 20 13  2  0
 21  9  1  0
  4  7  1  0
 16  9  1  0
  6 10  1  0
 18 12  1  0
 17 14  1  0
 14 22  1  0
 22 23  1  0
  2  1  1  0
  3  1  1  0
  3  4  1  0
  5  1  1  0
  6  2  1  0
  7  5  1  0
  8  5  2  0
  6  9  1  0
 10  8  1  0
  1 11  1  1
 12  2  1  0
 13  3  1  0
 37 30  2  0
 38 31  1  0
 39 34  1  0
 40 38  2  0
 41 36  1  0
 25 42  1  1
 43 36  2  0
 44 32  1  0
 27 30  1  0
 39 32  1  0
 29 33  1  0
 41 35  1  0
 40 37  1  0
 37 45  1  0
 45 46  1  0
 25 24  1  0
 26 24  1  0
 26 27  1  0
 28 24  1  0
 29 25  1  0
 30 28  1  0
 31 28  2  0
 29 32  1  0
 33 31  1  0
 24 34  1  1
 35 25  1  0
 36 26  1  0
 48 49  1  0
 49 56  2  0
 50 47  1  0
 51 48  2  0
 52 47  2  0
 53 50  1  0
 54 53  2  0
 55 50  2  0
 56 55  1  0
 57 47  1  0
 58 48  1  0
 49 54  1  0
  3 59  1  1
  6 60  1  6
 10 61  1  0
 10 62  1  0
 11 63  1  0
 11 64  1  0
 12 65  1  0
 12 66  1  0
 15 67  1  0
 16 68  1  0
 16 69  1  0
 17 70  1  0
 18 71  1  0
 18 72  1  0
 19 73  1  0
 21 74  1  0
 21 75  1  0
 21 76  1  0
 23 77  1  0
 23 78  1  0
 23 79  1  0
 26 80  1  1
 29 81  1  6
 33 82  1  0
 33 83  1  0
 34 84  1  0
 34 85  1  0
 35 86  1  0
 35 87  1  0
 38 88  1  0
 39 89  1  0
 39 90  1  0
 40 91  1  0
 41 92  1  0
 41 93  1  0
 42 94  1  0
 44 95  1  0
 44 96  1  0
 44 97  1  0
 46 98  1  0
 46 99  1  0
 46100  1  0
 53101  1  0
 54102  1  0
 55103  1  0
 56104  1  0
 57105  1  0
 58106  1  0
M  END
> <Uni-Dock RESULT> 
ENERGY=   -4.431  LOWER_BOUND=    1.646  UPPER_BOUND=    5.152
INTER + INTRA:          -4.431
INTER:                  -4.431
INTRA:                   0.000
UNBOUND:                 0.000

$$$$
