
     RDKit          3D

104107  0  0  0  0  0  0  0  0999 V2000
    6.1361    2.8248   -0.1530 C   0  0  0  0  0  0  0  0  0  0  0  0
    6.8563    3.9386    0.0119 F   0  0  0  0  0  0  0  0  0  0  0  0
    4.9918    2.6298    0.6132 C   0  0  0  0  0  0  0  0  0  0  0  0
    4.2486    1.4658    0.4360 C   0  0  0  0  0  0  0  0  0  0  0  0
    3.1472    1.2990    1.1846 F   0  0  0  0  0  0  0  0  0  0  0  0
    4.6367    0.4946   -0.4916 C   0  0  0  0  0  0  0  0  0  0  0  0
    4.5178   -1.7879   -0.9260 O   0  0  0  0  0  0  0  0  0  0  0  0
    3.8874   -0.7740   -0.6545 C   0  0  0  0  0  0  0  0  0  0  0  0
    2.5250   -0.6951   -0.4758 N   0  0  0  0  0  0  0  0  0  0  0  0
    5.7890    0.7224   -1.2507 C   0  0  0  0  0  0  0  0  0  0  0  0
    6.1870   -0.1503   -2.1873 F   0  0  0  0  0  0  0  0  0  0  0  0
    6.5398    1.8850   -1.0894 C   0  0  0  0  0  0  0  0  0  0  0  0
    0.3215   -1.3197   -0.2974 N   0  0  0  0  0  0  0  0  0  0  0  0
   -0.6552   -2.2616   -0.3250 C   0  0  0  0  0  0  0  0  0  0  0  0
    1.5845   -1.7266   -0.5506 C   0  0  0  0  0  0  0  0  0  0  0  0
    1.8989   -3.0457   -0.8455 C   0  0  0  0  0  0  0  0  0  0  0  0
    0.8817   -3.9968   -0.8681 C   0  0  0  0  0  0  0  0  0  0  0  0
   -0.4200   -3.6040   -0.5983 C   0  0  0  0  0  0  0  0  0  0  0  0
   -2.0496   -1.8137   -0.0346 C   0  0  0  0  0  0  0  0  0  0  0  0
   -2.3751   -0.3229   -0.1171 C   0  0  0  0  0  0  0  0  0  0  0  0
   -2.7093    0.2176    1.2807 C   0  0  0  0  0  0  0  0  0  0  0  0
   -4.2152    0.2144    1.5407 C   0  0  0  0  0  0  0  0  0  0  0  0
   -4.9830    1.0084    0.5692 N   0  0  0  0  0  0  0  0  0  0  0  0
   -4.3369    1.1427   -0.7405 C   0  0  0  0  0  0  0  0  0  0  0  0
   -3.5238   -0.0942   -1.1135 C   0  0  0  0  0  0  0  0  0  0  0  0
   -2.9027   -2.6522    0.2592 O   0  0  0  0  0  0  0  0  0  0  0  0
   -5.3804    2.3103    1.0972 C   0  0  0  0  0  0  0  0  0  0  0  0
    4.5718    2.5709    2.5184 C   0  0  0  0  0  0  0  0  0  0  0  0
    5.0029    3.5495    3.3229 F   0  0  0  0  0  0  0  0  0  0  0  0
    5.4490    1.5735    2.1195 C   0  0  0  0  0  0  0  0  0  0  0  0
    4.9890    0.5555    1.2842 C   0  0  0  0  0  0  0  0  0  0  0  0
    5.8703   -0.3974    0.9462 F   0  0  0  0  0  0  0  0  0  0  0  0
    3.6613    0.5202    0.8346 C   0  0  0  0  0  0  0  0  0  0  0  0
    4.0510   -1.2966   -0.5987 O   0  0  0  0  0  0  0  0  0  0  0  0
    3.2090   -0.5802   -0.0689 C   0  0  0  0  0  0  0  0  0  0  0  0
    1.8476   -0.7031   -0.2501 N   0  0  0  0  0  0  0  0  0  0  0  0
    2.8067    1.5426    1.2615 C   0  0  0  0  0  0  0  0  0  0  0  0
    1.5230    1.5698    0.8739 F   0  0  0  0  0  0  0  0  0  0  0  0
    3.2499    2.5645    2.0998 C   0  0  0  0  0  0  0  0  0  0  0  0
   -0.1781   -1.4654   -1.0223 N   0  0  0  0  0  0  0  0  0  0  0  0
   -0.9371   -2.3513   -1.7116 C   0  0  0  0  0  0  0  0  0  0  0  0
    1.1585   -1.6610   -1.0019 C   0  0  0  0  0  0  0  0  0  0  0  0
    1.7625   -2.7236   -1.6583 C   0  0  0  0  0  0  0  0  0  0  0  0
    0.9653   -3.6286   -2.3563 C   0  0  0  0  0  0  0  0  0  0  0  0
   -0.4089   -3.4417   -2.3904 C   0  0  0  0  0  0  0  0  0  0  0  0
   -2.4162   -2.1312   -1.7278 C   0  0  0  0  0  0  0  0  0  0  0  0
   -3.0339   -0.8866   -1.0958 C   0  0  0  0  0  0  0  0  0  0  0  0
   -3.0015   -0.9288    0.4320 C   0  0  0  0  0  0  0  0  0  0  0  0
   -3.5045    0.4030    0.9847 C   0  0  0  0  0  0  0  0  0  0  0  0
   -2.6668    1.5454    0.5960 N   0  0  0  0  0  0  0  0  0  0  0  0
   -1.8584    1.3275   -0.6079 C   0  0  0  0  0  0  0  0  0  0  0  0
   -2.5215    0.4436   -1.6670 C   0  0  0  0  0  0  0  0  0  0  0  0
   -3.1378   -2.9779   -2.2633 O   0  0  0  0  0  0  0  0  0  0  0  0
   -3.4544    2.7721    0.5192 C   0  0  0  0  0  0  0  0  0  0  0  0
   -2.2769    0.2915    0.4135 O   0  0  0  0  0  0  0  0  0  0  0  0
   -1.3680    0.4136   -0.5704 C   0  0  0  0  0  0  0  0  0  0  0  0
   -1.3536    1.3928   -1.2961 O   0  0  0  0  0  0  0  0  0  0  0  0
   -0.4336   -0.7584   -0.6495 C   0  0  0  0  0  0  0  0  0  0  0  0
    0.4621   -0.8277    0.5742 C   0  0  0  0  0  0  0  0  0  0  0  0
    1.3526    0.3774    0.6647 C   0  0  0  0  0  0  0  0  0  0  0  0
    1.3071    1.2416    1.5229 O   0  0  0  0  0  0  0  0  0  0  0  0
    2.2622    0.4303   -0.3239 O   0  0  0  0  0  0  0  0  0  0  0  0
    4.6904    3.3764    1.3407 H   0  0  0  0  0  0  0  0  0  0  0  0
    2.1007    0.1842   -0.2068 H   0  0  0  0  0  0  0  0  0  0  0  0
    7.4282    2.0516   -1.6920 H   0  0  0  0  0  0  0  0  0  0  0  0
    2.9116   -3.3661   -1.0560 H   0  0  0  0  0  0  0  0  0  0  0  0
    1.1122   -5.0362   -1.0923 H   0  0  0  0  0  0  0  0  0  0  0  0
   -1.2314   -4.3251   -0.6069 H   0  0  0  0  0  0  0  0  0  0  0  0
   -1.5024    0.2280   -0.4855 H   0  0  0  0  0  0  0  0  0  0  0  0
   -2.3388    1.2465    1.3659 H   0  0  0  0  0  0  0  0  0  0  0  0
   -2.1969   -0.3601    2.0584 H   0  0  0  0  0  0  0  0  0  0  0  0
   -4.4136    0.5427    2.5700 H   0  0  0  0  0  0  0  0  0  0  0  0
   -4.5818   -0.8199    1.4940 H   0  0  0  0  0  0  0  0  0  0  0  0
   -5.1075    1.3150   -1.5013 H   0  0  0  0  0  0  0  0  0  0  0  0
   -3.6689    2.0140   -0.7614 H   0  0  0  0  0  0  0  0  0  0  0  0
   -3.1050    0.0263   -2.1197 H   0  0  0  0  0  0  0  0  0  0  0  0
   -4.1914   -0.9628   -1.1707 H   0  0  0  0  0  0  0  0  0  0  0  0
   -5.9685    2.1957    2.0151 H   0  0  0  0  0  0  0  0  0  0  0  0
   -6.0210    2.8362    0.3787 H   0  0  0  0  0  0  0  0  0  0  0  0
   -4.5141    2.9455    1.3183 H   0  0  0  0  0  0  0  0  0  0  0  0
    6.4813    1.5797    2.4569 H   0  0  0  0  0  0  0  0  0  0  0  0
    1.2173   -0.0330    0.1786 H   0  0  0  0  0  0  0  0  0  0  0  0
    2.5690    3.3466    2.4198 H   0  0  0  0  0  0  0  0  0  0  0  0
    2.8336   -2.8834   -1.6341 H   0  0  0  0  0  0  0  0  0  0  0  0
    1.4226   -4.4704   -2.8697 H   0  0  0  0  0  0  0  0  0  0  0  0
   -1.0488   -4.1350   -2.9281 H   0  0  0  0  0  0  0  0  0  0  0  0
   -4.0952   -0.9372   -1.3853 H   0  0  0  0  0  0  0  0  0  0  0  0
   -1.9989   -1.1376    0.8177 H   0  0  0  0  0  0  0  0  0  0  0  0
   -3.6399   -1.7434    0.7931 H   0  0  0  0  0  0  0  0  0  0  0  0
   -3.5380    0.3546    2.0789 H   0  0  0  0  0  0  0  0  0  0  0  0
   -4.5407    0.5413    0.6414 H   0  0  0  0  0  0  0  0  0  0  0  0
   -0.9194    0.8667   -0.2860 H   0  0  0  0  0  0  0  0  0  0  0  0
   -1.5594    2.2805   -1.0634 H   0  0  0  0  0  0  0  0  0  0  0  0
   -1.8299    0.2853   -2.5024 H   0  0  0  0  0  0  0  0  0  0  0  0
   -3.3732    0.9930   -2.0894 H   0  0  0  0  0  0  0  0  0  0  0  0
   -2.8001    3.6402    0.3858 H   0  0  0  0  0  0  0  0  0  0  0  0
   -4.0060    2.9375    1.4516 H   0  0  0  0  0  0  0  0  0  0  0  0
   -4.1729    2.7496   -0.3078 H   0  0  0  0  0  0  0  0  0  0  0  0
   -2.7973    1.1218    0.3643 H   0  0  0  0  0  0  0  0  0  0  0  0
   -1.0316   -1.6709   -0.7502 H   0  0  0  0  0  0  0  0  0  0  0  0
    0.1585   -0.6650   -1.5673 H   0  0  0  0  0  0  0  0  0  0  0  0
   -0.1293   -0.8839    1.4955 H   0  0  0  0  0  0  0  0  0  0  0  0
    1.0919   -1.7229    0.5440 H   0  0  0  0  0  0  0  0  0  0  0  0
    2.7558    1.2599   -0.1482 H   0  0  0  0  0  0  0  0  0  0  0  0
  1  2  1  0
  1 12  2  0
  3  1  1  0
  3  4  2  0
  4  6  1  0
  5  4  1  0
  7  8  2  0
  8  9  1  0
  8  6  1  0
  9 15  1  0
 10 11  1  0
 10  6  2  0
 12 10  1  0
 13 14  2  0
 14 18  1  0
 15 13  1  0
 15 16  2  0
 16 17  1  0
 18 17  2  0
 19 14  1  0
 19 20  1  0
 20 21  1  0
 21 22  1  0
 22 23  1  0
 23 24  1  0
 23 27  1  0
 24 25  1  0
 25 20  1  0
 26 19  2  0
 28 29  1  0
 28 39  2  0
 30 28  1  0
 30 31  2  0
 31 33  1  0
 32 31  1  0
 34 35  2  0
 35 36  1  0
 35 33  1  0
 36 42  1  0
 37 38  1  0
 37 33  2  0
 39 37  1  0
 40 41  2  0
 41 45  1  0
 42 40  1  0
 42 43  2  0
 43 44  1  0
 45 44  2  0
 46 41  1  0
 46 47  1  0
 47 48  1  0
 48 49  1  0
 49 50  1  0
 50 51  1  0
 50 54  1  0
 51 52  1  0
 52 47  1  0
 53 46  2  0
 55 56  1  0
 56 57  2  0
 56 58  1  0
 58 59  1  0
 59 60  1  0
 60 61  2  0
 60 62  1  0
  3 63  1  0
  9 64  1  0
 12 65  1  0
 16 66  1  0
 17 67  1  0
 18 68  1  0
 20 69  1  0
 21 70  1  0
 21 71  1  0
 22 72  1  0
 22 73  1  0
 24 74  1  0
 24 75  1  0
 25 76  1  0
 25 77  1  0
 27 78  1  0
 27 79  1  0
 27 80  1  0
 30 81  1  0
 36 82  1  0
 39 83  1  0
 43 84  1  0
 44 85  1  0
 45 86  1  0
 47 87  1  0
 48 88  1  0
 48 89  1  0
 49 90  1  0
 49 91  1  0
 51 92  1  0
 51 93  1  0
 52 94  1  0
 52 95  1  0
 54 96  1  0
 54 97  1  0
 54 98  1  0
 55 99  1  0
 58100  1  0
 58101  1  0
 59102  1  0
 59103  1  0
 62104  1  0
M  END
$$$$
