
     RDKit          3D

 62 65  0  0  0  0  0  0  0  0999 V2000
   -5.2733    1.9723    0.8495 C   0  0  0  0  0  0  0  0  0  0  0  0
   -6.3314    2.7591    1.1282 F   0  0  0  0  0  0  0  0  0  0  0  0
   -4.4977    1.4407    1.8544 C   0  0  0  0  0  0  0  0  0  0  0  0
   -3.4142    0.6348    1.5631 C   0  0  0  0  0  0  0  0  0  0  0  0
   -2.6661    0.1235    2.5702 F   0  0  0  0  0  0  0  0  0  0  0  0
   -3.0971    0.3529    0.2469 C   0  0  0  0  0  0  0  0  0  0  0  0
   -1.6777   -0.7473   -1.3226 O   0  0  0  0  0  0  0  0  0  0  0  0
   -1.9562   -0.4977   -0.1122 C   0  0  0  0  0  0  0  0  0  0  0  0
   -1.1507   -1.0495    0.9365 N   0  0  0  0  0  0  0  0  0  0  0  0
   -3.8642    0.8776   -0.7754 C   0  0  0  0  0  0  0  0  0  0  0  0
   -3.5513    0.5993   -2.0761 F   0  0  0  0  0  0  0  0  0  0  0  0
   -4.9376    1.6766   -0.4707 C   0  0  0  0  0  0  0  0  0  0  0  0
    1.0990   -1.2187    0.2547 N   0  0  0  0  0  0  0  0  0  0  0  0
    2.1563   -1.9319   -0.1769 C   0  0  0  0  0  0  0  0  0  0  0  0
   -0.0602   -1.8668    0.4771 C   0  0  0  0  0  0  0  0  0  0  0  0
   -0.2036   -3.2280    0.2800 C   0  0  0  0  0  0  0  0  0  0  0  0
    0.8761   -3.9457   -0.1589 C   0  0  0  0  0  0  0  0  0  0  0  0
    2.0494   -3.2968   -0.3852 C   0  0  0  0  0  0  0  0  0  0  0  0
    3.4386   -1.2742   -0.4333 C   0  0  0  0  0  0  0  0  0  0  0  0
    3.5630    0.1908   -0.2122 C   0  0  0  0  0  0  0  0  0  0  0  0
    4.9795    0.6070   -0.5500 C   0  0  0  0  0  0  0  0  0  0  0  0
    4.9848    1.0224   -2.0060 C   0  0  0  0  0  0  0  0  0  0  0  0
    4.3501    2.3335   -2.0489 N   0  0  0  0  0  0  0  0  0  0  0  0
    3.0108    2.2916   -1.4953 C   0  0  0  0  0  0  0  0  0  0  0  0
    2.5969    0.8815   -1.1330 C   0  0  0  0  0  0  0  0  0  0  0  0
    4.4446   -1.8851   -0.8322 O   0  0  0  0  0  0  0  0  0  0  0  0
    5.1321    3.1782   -1.1324 C   0  0  0  0  0  0  0  0  0  0  0  0
    5.6638   -0.7242    1.4065 C   0  0  0  0  0  0  0  0  0  0  0  0
    6.8776   -0.7345    2.0228 F   0  0  0  0  0  0  0  0  0  0  0  0
    4.9614   -1.8550    1.1146 C   0  0  0  0  0  0  0  0  0  0  0  0
    3.7344   -1.8064    0.4895 C   0  0  0  0  0  0  0  0  0  0  0  0
    3.0661   -2.9276    0.2143 F   0  0  0  0  0  0  0  0  0  0  0  0
    3.1778   -0.5892    0.1378 C   0  0  0  0  0  0  0  0  0  0  0  0
    1.2947   -1.6402   -0.7575 O   0  0  0  0  0  0  0  0  0  0  0  0
    1.8646   -0.5427   -0.5310 C   0  0  0  0  0  0  0  0  0  0  0  0
    1.3483    0.7153   -0.8646 N   0  0  0  0  0  0  0  0  0  0  0  0
    3.8895    0.5440    0.4342 C   0  0  0  0  0  0  0  0  0  0  0  0
    3.3677    1.7400    0.1014 F   0  0  0  0  0  0  0  0  0  0  0  0
    5.1236    0.5083    1.0623 C   0  0  0  0  0  0  0  0  0  0  0  0
   -1.0399    0.9622   -0.7861 N   0  0  0  0  0  0  0  0  0  0  0  0
   -2.2492    1.0844   -1.3317 C   0  0  0  0  0  0  0  0  0  0  0  0
    0.0892    0.8422   -1.5105 C   0  0  0  0  0  0  0  0  0  0  0  0
    0.0160    0.8433   -2.9016 C   0  0  0  0  0  0  0  0  0  0  0  0
   -1.2388    0.9702   -3.4742 C   0  0  0  0  0  0  0  0  0  0  0  0
   -2.3780    1.0913   -2.7057 C   0  0  0  0  0  0  0  0  0  0  0  0
   -3.4775    1.2148   -0.5558 C   0  0  0  0  0  0  0  0  0  0  0  0
   -3.3592    1.2098    0.9205 C   0  0  0  0  0  0  0  0  0  0  0  0
   -4.7123    1.3525    1.5728 C   0  0  0  0  0  0  0  0  0  0  0  0
   -5.0811    0.1144    2.3651 C   0  0  0  0  0  0  0  0  0  0  0  0
   -4.7576   -1.0976    1.6611 N   0  0  0  0  0  0  0  0  0  0  0  0
   -3.3584   -1.2588    1.3617 C   0  0  0  0  0  0  0  0  0  0  0  0
   -2.5862    0.0316    1.4384 C   0  0  0  0  0  0  0  0  0  0  0  0
   -4.6165    1.3298   -1.0771 O   0  0  0  0  0  0  0  0  0  0  0  0
   -5.6198   -1.3780    0.5523 C   0  0  0  0  0  0  0  0  0  0  0  0
   -2.2936   -0.3341    0.8497 O   0  0  0  0  0  0  0  0  0  0  0  0
   -1.3744    0.1803   -0.0768 C   0  0  0  0  0  0  0  0  0  0  0  0
   -1.0977    1.4114   -0.1399 O   0  0  0  0  0  0  0  0  0  0  0  0
   -0.6655   -0.7194   -1.0539 C   0  0  0  0  0  0  0  0  0  0  0  0
    0.5599   -1.2655   -0.3183 C   0  0  0  0  0  0  0  0  0  0  0  0
    1.3760   -0.1081    0.1194 C   0  0  0  0  0  0  0  0  0  0  0  0
    1.3183    0.2070    1.3323 O   0  0  0  0  0  0  0  0  0  0  0  0
    2.1770    0.6282   -0.7124 O   0  0  0  0  0  0  0  0  0  0  0  0
  1  2  1  0
  1 12  2  0
  3  1  1  0
  3  4  2  0
  4  6  1  0
  5  4  1  0
  7  8  2  0
  8  9  1  0
  8  6  1  0
  9 15  1  0
 10 11  1  0
 10  6  2  0
 12 10  1  0
 13 14  2  0
 14 18  1  0
 15 13  1  0
 15 16  2  0
 16 17  1  0
 18 17  2  0
 19 14  1  0
 19 20  1  0
 20 21  1  0
 21 22  1  0
 22 23  1  0
 23 24  1  0
 23 27  1  0
 24 25  1  0
 25 20  1  0
 26 19  2  0
 28 29  1  0
 28 39  2  0
 30 28  1  0
 30 31  2  0
 31 33  1  0
 32 31  1  0
 34 35  2  0
 35 36  1  0
 35 33  1  0
 36 42  1  0
 37 38  1  0
 37 33  2  0
 39 37  1  0
 40 41  2  0
 41 45  1  0
 42 40  1  0
 42 43  2  0
 43 44  1  0
 45 44  2  0
 46 41  1  0
 46 47  1  0
 47 48  1  0
 48 49  1  0
 49 50  1  0
 50 51  1  0
 50 54  1  0
 51 52  1  0
 52 47  1  0
 53 46  2  0
 55 56  1  0
 56 57  2  0
 56 58  1  0
 58 59  1  0
 59 60  1  0
 60 61  2  0
 60 62  1  0
M  END
