
     RDKit          3D

104107  0  0  0  0  0  0  0  0999 V2000
    4.5724   -0.8502   -4.4176 C   0  0  0  0  0  0  0  0  0  0  0  0
    4.9064   -0.6882   -5.7030 F   0  0  0  0  0  0  0  0  0  0  0  0
    3.2760   -0.5804   -4.0080 C   0  0  0  0  0  0  0  0  0  0  0  0
    2.9372   -0.7491   -2.6666 C   0  0  0  0  0  0  0  0  0  0  0  0
    1.6725   -0.4751   -2.3113 F   0  0  0  0  0  0  0  0  0  0  0  0
    3.8722   -1.1869   -1.7217 C   0  0  0  0  0  0  0  0  0  0  0  0
    4.3762   -1.8346    0.4809 O   0  0  0  0  0  0  0  0  0  0  0  0
    3.5305   -1.3780   -0.2793 C   0  0  0  0  0  0  0  0  0  0  0  0
    2.2585   -1.0140    0.1040 N   0  0  0  0  0  0  0  0  0  0  0  0
    5.1729   -1.4503   -2.1725 C   0  0  0  0  0  0  0  0  0  0  0  0
    6.1353   -1.8650   -1.3371 F   0  0  0  0  0  0  0  0  0  0  0  0
    5.5269   -1.2839   -3.5111 C   0  0  0  0  0  0  0  0  0  0  0  0
    0.4116   -0.6295    1.3974 N   0  0  0  0  0  0  0  0  0  0  0  0
   -0.2387   -0.6411    2.5879 C   0  0  0  0  0  0  0  0  0  0  0  0
    1.6842   -1.0752    1.3755 C   0  0  0  0  0  0  0  0  0  0  0  0
    2.3325   -1.5360    2.5128 C   0  0  0  0  0  0  0  0  0  0  0  0
    1.6466   -1.5411    3.7266 C   0  0  0  0  0  0  0  0  0  0  0  0
    0.3366   -1.0844    3.7707 C   0  0  0  0  0  0  0  0  0  0  0  0
   -1.6437   -0.1309    2.5965 C   0  0  0  0  0  0  0  0  0  0  0  0
   -2.2668    0.2963    1.2682 C   0  0  0  0  0  0  0  0  0  0  0  0
   -3.7896    0.0557    1.2526 C   0  0  0  0  0  0  0  0  0  0  0  0
   -4.5713    1.1882    0.5788 C   0  0  0  0  0  0  0  0  0  0  0  0
   -3.8571    1.6298   -0.6187 N   0  0  0  0  0  0  0  0  0  0  0  0
   -2.5826    2.2805   -0.2867 C   0  0  0  0  0  0  0  0  0  0  0  0
   -1.9416    1.7686    1.0083 C   0  0  0  0  0  0  0  0  0  0  0  0
   -2.2438   -0.0362    3.6675 O   0  0  0  0  0  0  0  0  0  0  0  0
   -4.6848    2.4969   -1.4523 C   0  0  0  0  0  0  0  0  0  0  0  0
   -5.2988   -0.5499   -3.4792 C   0  0  0  0  0  0  0  0  0  0  0  0
   -5.7934   -0.7736   -4.7018 F   0  0  0  0  0  0  0  0  0  0  0  0
   -4.2632    0.3603   -3.3189 C   0  0  0  0  0  0  0  0  0  0  0  0
   -3.7495    0.5818   -2.0438 C   0  0  0  0  0  0  0  0  0  0  0  0
   -2.7442    1.4602   -1.9105 F   0  0  0  0  0  0  0  0  0  0  0  0
   -4.2584   -0.0905   -0.9328 C   0  0  0  0  0  0  0  0  0  0  0  0
   -4.5434    0.2047    1.3575 O   0  0  0  0  0  0  0  0  0  0  0  0
   -3.7431    0.1656    0.4310 C   0  0  0  0  0  0  0  0  0  0  0  0
   -2.3811    0.3398    0.5238 N   0  0  0  0  0  0  0  0  0  0  0  0
   -5.3034   -0.9979   -1.1236 C   0  0  0  0  0  0  0  0  0  0  0  0
   -5.8105   -1.6960   -0.0952 F   0  0  0  0  0  0  0  0  0  0  0  0
   -5.8261   -1.2354   -2.3919 C   0  0  0  0  0  0  0  0  0  0  0  0
   -0.2969    0.6701    1.4201 N   0  0  0  0  0  0  0  0  0  0  0  0
    0.5258    0.9141    2.4724 C   0  0  0  0  0  0  0  0  0  0  0  0
   -1.6215    0.5962    1.6675 C   0  0  0  0  0  0  0  0  0  0  0  0
   -2.1525    0.7625    2.9396 C   0  0  0  0  0  0  0  0  0  0  0  0
   -1.2911    1.0241    4.0036 C   0  0  0  0  0  0  0  0  0  0  0  0
    0.0749    1.1053    3.7707 C   0  0  0  0  0  0  0  0  0  0  0  0
    1.9923    0.9711    2.1901 C   0  0  0  0  0  0  0  0  0  0  0  0
    2.4721    0.5631    0.7987 C   0  0  0  0  0  0  0  0  0  0  0  0
    2.4158   -0.9596    0.6396 C   0  0  0  0  0  0  0  0  0  0  0  0
    2.9943   -1.4005   -0.7045 C   0  0  0  0  0  0  0  0  0  0  0  0
    4.3682   -0.9154   -0.8727 N   0  0  0  0  0  0  0  0  0  0  0  0
    4.4340    0.5495   -0.7956 C   0  0  0  0  0  0  0  0  0  0  0  0
    3.9043    1.0515    0.5466 C   0  0  0  0  0  0  0  0  0  0  0  0
    2.7636    1.3288    3.0805 O   0  0  0  0  0  0  0  0  0  0  0  0
    4.9310   -1.3842   -2.1375 C   0  0  0  0  0  0  0  0  0  0  0  0
   -2.0037    0.8808   -0.5465 O   0  0  0  0  0  0  0  0  0  0  0  0
   -1.5297    0.0791    0.4260 C   0  0  0  0  0  0  0  0  0  0  0  0
   -1.8451    0.2604    1.5899 O   0  0  0  0  0  0  0  0  0  0  0  0
   -0.6343   -1.0075   -0.0958 C   0  0  0  0  0  0  0  0  0  0  0  0
    0.6206   -0.4315   -0.7321 C   0  0  0  0  0  0  0  0  0  0  0  0
    1.5114    0.1882    0.3064 C   0  0  0  0  0  0  0  0  0  0  0  0
    1.7351   -0.2421    1.4246 O   0  0  0  0  0  0  0  0  0  0  0  0
    2.1050    1.3145   -0.1285 O   0  0  0  0  0  0  0  0  0  0  0  0
    2.5354   -0.2390   -4.7232 H   0  0  0  0  0  0  0  0  0  0  0  0
    1.6057   -0.6504   -0.5808 H   0  0  0  0  0  0  0  0  0  0  0  0
    6.5404   -1.4930   -3.8369 H   0  0  0  0  0  0  0  0  0  0  0  0
    3.3546   -1.8942    2.4927 H   0  0  0  0  0  0  0  0  0  0  0  0
    2.1371   -1.8955    4.6296 H   0  0  0  0  0  0  0  0  0  0  0  0
   -0.2176   -1.0734    4.7038 H   0  0  0  0  0  0  0  0  0  0  0  0
   -1.8423   -0.3137    0.4607 H   0  0  0  0  0  0  0  0  0  0  0  0
   -3.9773   -0.8822    0.7123 H   0  0  0  0  0  0  0  0  0  0  0  0
   -4.1998   -0.0977    2.2571 H   0  0  0  0  0  0  0  0  0  0  0  0
   -5.5662    0.8031    0.3199 H   0  0  0  0  0  0  0  0  0  0  0  0
   -4.7256    2.0222    1.2774 H   0  0  0  0  0  0  0  0  0  0  0  0
   -1.8900    2.1158   -1.1201 H   0  0  0  0  0  0  0  0  0  0  0  0
   -2.7019    3.3669   -0.1859 H   0  0  0  0  0  0  0  0  0  0  0  0
   -0.8572    1.9274    0.9617 H   0  0  0  0  0  0  0  0  0  0  0  0
   -2.2985    2.3739    1.8535 H   0  0  0  0  0  0  0  0  0  0  0  0
   -5.5908    1.9730   -1.7767 H   0  0  0  0  0  0  0  0  0  0  0  0
   -4.9886    3.4085   -0.9254 H   0  0  0  0  0  0  0  0  0  0  0  0
   -4.1456    2.7870   -2.3617 H   0  0  0  0  0  0  0  0  0  0  0  0
   -3.8625    0.8934   -4.1746 H   0  0  0  0  0  0  0  0  0  0  0  0
   -1.8089    0.3019   -0.3101 H   0  0  0  0  0  0  0  0  0  0  0  0
   -6.6325   -1.9498   -2.5288 H   0  0  0  0  0  0  0  0  0  0  0  0
   -3.2172    0.7052    3.1340 H   0  0  0  0  0  0  0  0  0  0  0  0
   -1.6869    1.1640    5.0065 H   0  0  0  0  0  0  0  0  0  0  0  0
    0.7677    1.3072    4.5824 H   0  0  0  0  0  0  0  0  0  0  0  0
    1.8258    1.0455    0.0534 H   0  0  0  0  0  0  0  0  0  0  0  0
    2.9706   -1.4410    1.4560 H   0  0  0  0  0  0  0  0  0  0  0  0
    1.3838   -1.3209    0.7170 H   0  0  0  0  0  0  0  0  0  0  0  0
    2.3504   -1.0454   -1.5204 H   0  0  0  0  0  0  0  0  0  0  0  0
    2.9829   -2.4975   -0.7349 H   0  0  0  0  0  0  0  0  0  0  0  0
    5.4759    0.8791   -0.8959 H   0  0  0  0  0  0  0  0  0  0  0  0
    3.8666    1.0116   -1.6144 H   0  0  0  0  0  0  0  0  0  0  0  0
    3.9329    2.1481    0.5654 H   0  0  0  0  0  0  0  0  0  0  0  0
    4.5724    0.7081    1.3480 H   0  0  0  0  0  0  0  0  0  0  0  0
    4.9125   -2.4790   -2.1865 H   0  0  0  0  0  0  0  0  0  0  0  0
    4.3850   -0.9916   -3.0029 H   0  0  0  0  0  0  0  0  0  0  0  0
    5.9824   -1.0844   -2.2257 H   0  0  0  0  0  0  0  0  0  0  0  0
   -2.5682    1.5256   -0.0686 H   0  0  0  0  0  0  0  0  0  0  0  0
   -1.2036   -1.5935   -0.8270 H   0  0  0  0  0  0  0  0  0  0  0  0
   -0.3895   -1.6812    0.7330 H   0  0  0  0  0  0  0  0  0  0  0  0
    0.3608    0.3213   -1.4852 H   0  0  0  0  0  0  0  0  0  0  0  0
    1.1935   -1.2220   -1.2299 H   0  0  0  0  0  0  0  0  0  0  0  0
    2.6478    1.6079    0.6338 H   0  0  0  0  0  0  0  0  0  0  0  0
  1  2  1  0
  1 12  2  0
  3  1  1  0
  3  4  2  0
  4  6  1  0
  5  4  1  0
  7  8  2  0
  8  9  1  0
  8  6  1  0
  9 15  1  0
 10 11  1  0
 10  6  2  0
 12 10  1  0
 13 14  2  0
 14 18  1  0
 15 13  1  0
 15 16  2  0
 16 17  1  0
 18 17  2  0
 19 14  1  0
 19 20  1  0
 20 21  1  0
 21 22  1  0
 22 23  1  0
 23 24  1  0
 23 27  1  0
 24 25  1  0
 25 20  1  0
 26 19  2  0
 28 29  1  0
 28 39  2  0
 30 28  1  0
 30 31  2  0
 31 33  1  0
 32 31  1  0
 34 35  2  0
 35 36  1  0
 35 33  1  0
 36 42  1  0
 37 38  1  0
 37 33  2  0
 39 37  1  0
 40 41  2  0
 41 45  1  0
 42 40  1  0
 42 43  2  0
 43 44  1  0
 45 44  2  0
 46 41  1  0
 46 47  1  0
 47 48  1  0
 48 49  1  0
 49 50  1  0
 50 51  1  0
 50 54  1  0
 51 52  1  0
 52 47  1  0
 53 46  2  0
 55 56  1  0
 56 57  2  0
 56 58  1  0
 58 59  1  0
 59 60  1  0
 60 61  2  0
 60 62  1  0
  3 63  1  0
  9 64  1  0
 12 65  1  0
 16 66  1  0
 17 67  1  0
 18 68  1  0
 20 69  1  0
 21 70  1  0
 21 71  1  0
 22 72  1  0
 22 73  1  0
 24 74  1  0
 24 75  1  0
 25 76  1  0
 25 77  1  0
 27 78  1  0
 27 79  1  0
 27 80  1  0
 30 81  1  0
 36 82  1  0
 39 83  1  0
 43 84  1  0
 44 85  1  0
 45 86  1  0
 47 87  1  0
 48 88  1  0
 48 89  1  0
 49 90  1  0
 49 91  1  0
 51 92  1  0
 51 93  1  0
 52 94  1  0
 52 95  1  0
 54 96  1  0
 54 97  1  0
 54 98  1  0
 55 99  1  0
 58100  1  0
 58101  1  0
 59102  1  0
 59103  1  0
 62104  1  0
M  END
$$$$
