
     RDKit          3D

104107  0  0  0  0  0  0  0  0999 V2000
    6.3115    1.9791   -0.8842 C   0  0  0  0  0  0  0  0  0  0  0  0
    7.1177    3.0121   -1.1572 F   0  0  0  0  0  0  0  0  0  0  0  0
    5.1553    2.1938   -0.1424 C   0  0  0  0  0  0  0  0  0  0  0  0
    4.3166    1.1162    0.1289 C   0  0  0  0  0  0  0  0  0  0  0  0
    3.2012    1.3411    0.8412 F   0  0  0  0  0  0  0  0  0  0  0  0
    4.6222   -0.1678   -0.3249 C   0  0  0  0  0  0  0  0  0  0  0  0
    4.2635   -2.4050    0.2096 O   0  0  0  0  0  0  0  0  0  0  0  0
    3.7453   -1.3239   -0.0335 C   0  0  0  0  0  0  0  0  0  0  0  0
    2.3935   -1.0667   -0.0973 N   0  0  0  0  0  0  0  0  0  0  0  0
    5.7940   -0.3556   -1.0627 C   0  0  0  0  0  0  0  0  0  0  0  0
    6.1188   -1.5595   -1.5536 F   0  0  0  0  0  0  0  0  0  0  0  0
    6.6393    0.7136   -1.3498 C   0  0  0  0  0  0  0  0  0  0  0  0
    0.1274   -1.4038   -0.1581 N   0  0  0  0  0  0  0  0  0  0  0  0
   -0.9636   -2.2054   -0.0448 C   0  0  0  0  0  0  0  0  0  0  0  0
    1.3356   -1.9633    0.0646 C   0  0  0  0  0  0  0  0  0  0  0  0
    1.4891   -3.2994    0.4071 C   0  0  0  0  0  0  0  0  0  0  0  0
    0.3562   -4.1030    0.5239 C   0  0  0  0  0  0  0  0  0  0  0  0
   -0.8965   -3.5498    0.2921 C   0  0  0  0  0  0  0  0  0  0  0  0
   -2.2926   -1.5848   -0.3394 C   0  0  0  0  0  0  0  0  0  0  0  0
   -2.3268   -0.0861   -0.6462 C   0  0  0  0  0  0  0  0  0  0  0  0
   -1.9867    0.7524    0.5977 C   0  0  0  0  0  0  0  0  0  0  0  0
   -3.0621    1.7847    0.9436 C   0  0  0  0  0  0  0  0  0  0  0  0
   -4.3556    1.1193    1.0341 N   0  0  0  0  0  0  0  0  0  0  0  0
   -4.7822    0.4878   -0.2222 C   0  0  0  0  0  0  0  0  0  0  0  0
   -3.6675    0.3317   -1.2621 C   0  0  0  0  0  0  0  0  0  0  0  0
   -3.2960   -2.2978   -0.3680 O   0  0  0  0  0  0  0  0  0  0  0  0
   -5.3871    1.9964    1.5743 C   0  0  0  0  0  0  0  0  0  0  0  0
    6.0799   -1.5224   -2.0853 C   0  0  0  0  0  0  0  0  0  0  0  0
    7.2071   -1.8674   -2.7183 F   0  0  0  0  0  0  0  0  0  0  0  0
    4.9552   -1.1853   -2.8213 C   0  0  0  0  0  0  0  0  0  0  0  0
    3.7823   -0.8267   -2.1559 C   0  0  0  0  0  0  0  0  0  0  0  0
    2.7288   -0.4964   -2.9148 F   0  0  0  0  0  0  0  0  0  0  0  0
    3.7148   -0.8016   -0.7560 C   0  0  0  0  0  0  0  0  0  0  0  0
    1.4242   -0.3159   -0.7528 O   0  0  0  0  0  0  0  0  0  0  0  0
    2.4393   -0.4206   -0.0748 C   0  0  0  0  0  0  0  0  0  0  0  0
    2.5115   -0.2253    1.2939 N   0  0  0  0  0  0  0  0  0  0  0  0
    4.8736   -1.1416   -0.0485 C   0  0  0  0  0  0  0  0  0  0  0  0
    4.8891   -1.1262    1.2939 F   0  0  0  0  0  0  0  0  0  0  0  0
    6.0529   -1.5000   -0.6998 C   0  0  0  0  0  0  0  0  0  0  0  0
    0.2537    0.4886    1.5820 N   0  0  0  0  0  0  0  0  0  0  0  0
   -0.7349    0.8931    2.4115 C   0  0  0  0  0  0  0  0  0  0  0  0
    1.4481    0.1833    2.1131 C   0  0  0  0  0  0  0  0  0  0  0  0
    1.6900    0.2717    3.4820 C   0  0  0  0  0  0  0  0  0  0  0  0
    0.6611    0.6797    4.3285 C   0  0  0  0  0  0  0  0  0  0  0  0
   -0.5768    0.9995    3.7859 C   0  0  0  0  0  0  0  0  0  0  0  0
   -2.0457    1.2300    1.7806 C   0  0  0  0  0  0  0  0  0  0  0  0
   -2.1534    1.1238    0.2595 C   0  0  0  0  0  0  0  0  0  0  0  0
   -3.2451    2.0556   -0.2900 C   0  0  0  0  0  0  0  0  0  0  0  0
   -3.7728    1.5344   -1.6235 C   0  0  0  0  0  0  0  0  0  0  0  0
   -4.4391    0.2325   -1.4837 N   0  0  0  0  0  0  0  0  0  0  0  0
   -3.8679   -0.6123   -0.4262 C   0  0  0  0  0  0  0  0  0  0  0  0
   -2.3877   -0.3378   -0.1583 C   0  0  0  0  0  0  0  0  0  0  0  0
   -2.9870    1.5624    2.5005 O   0  0  0  0  0  0  0  0  0  0  0  0
   -4.4959   -0.4638   -2.7665 C   0  0  0  0  0  0  0  0  0  0  0  0
    2.8957    0.2862    0.5225 O   0  0  0  0  0  0  0  0  0  0  0  0
    1.8787    0.3098   -0.3595 C   0  0  0  0  0  0  0  0  0  0  0  0
    2.0805    0.5731   -1.5316 O   0  0  0  0  0  0  0  0  0  0  0  0
    0.5642   -0.0167    0.2861 C   0  0  0  0  0  0  0  0  0  0  0  0
   -0.5662    0.0211   -0.7335 C   0  0  0  0  0  0  0  0  0  0  0  0
   -1.8795   -0.3071   -0.0892 C   0  0  0  0  0  0  0  0  0  0  0  0
   -2.0827   -0.5716    1.0833 O   0  0  0  0  0  0  0  0  0  0  0  0
   -2.8936   -0.2912   -0.9739 O   0  0  0  0  0  0  0  0  0  0  0  0
    4.9096    3.1870    0.2198 H   0  0  0  0  0  0  0  0  0  0  0  0
    2.0673   -0.1320   -0.3054 H   0  0  0  0  0  0  0  0  0  0  0  0
    7.5390    0.5557   -1.9360 H   0  0  0  0  0  0  0  0  0  0  0  0
    2.4616   -3.7418    0.5896 H   0  0  0  0  0  0  0  0  0  0  0  0
    0.4558   -5.1522    0.7892 H   0  0  0  0  0  0  0  0  0  0  0  0
   -1.7937   -4.1556    0.3691 H   0  0  0  0  0  0  0  0  0  0  0  0
   -1.5676    0.0884   -1.4205 H   0  0  0  0  0  0  0  0  0  0  0  0
   -1.8254    0.1082    1.4714 H   0  0  0  0  0  0  0  0  0  0  0  0
   -1.0385    1.2776    0.4282 H   0  0  0  0  0  0  0  0  0  0  0  0
   -2.7980    2.2370    1.9081 H   0  0  0  0  0  0  0  0  0  0  0  0
   -3.0774    2.5965    0.2051 H   0  0  0  0  0  0  0  0  0  0  0  0
   -5.1966   -0.4971    0.0224 H   0  0  0  0  0  0  0  0  0  0  0  0
   -5.5943    1.0528   -0.7000 H   0  0  0  0  0  0  0  0  0  0  0  0
   -3.9853   -0.3773   -2.0385 H   0  0  0  0  0  0  0  0  0  0  0  0
   -3.5291    1.2974   -1.7692 H   0  0  0  0  0  0  0  0  0  0  0  0
   -6.3279    1.4517    1.7073 H   0  0  0  0  0  0  0  0  0  0  0  0
   -5.0966    2.3670    2.5646 H   0  0  0  0  0  0  0  0  0  0  0  0
   -5.5731    2.8576    0.9241 H   0  0  0  0  0  0  0  0  0  0  0  0
    4.9818   -1.1970   -3.9059 H   0  0  0  0  0  0  0  0  0  0  0  0
    3.3897   -0.4032    1.7634 H   0  0  0  0  0  0  0  0  0  0  0  0
    6.9389   -1.7614   -0.1316 H   0  0  0  0  0  0  0  0  0  0  0  0
    2.6597    0.0259    3.9030 H   0  0  0  0  0  0  0  0  0  0  0  0
    0.8217    0.7489    5.4005 H   0  0  0  0  0  0  0  0  0  0  0  0
   -1.3983    1.3237    4.4162 H   0  0  0  0  0  0  0  0  0  0  0  0
   -1.2001    1.4604   -0.1680 H   0  0  0  0  0  0  0  0  0  0  0  0
   -2.8295    3.0618   -0.4200 H   0  0  0  0  0  0  0  0  0  0  0  0
   -4.0842    2.1630    0.4090 H   0  0  0  0  0  0  0  0  0  0  0  0
   -4.4886    2.2552   -2.0366 H   0  0  0  0  0  0  0  0  0  0  0  0
   -2.9317    1.4788   -2.3278 H   0  0  0  0  0  0  0  0  0  0  0  0
   -4.0153   -1.6776   -0.6425 H   0  0  0  0  0  0  0  0  0  0  0  0
   -4.4342   -0.4229    0.4952 H   0  0  0  0  0  0  0  0  0  0  0  0
   -1.8142   -0.5459   -1.0707 H   0  0  0  0  0  0  0  0  0  0  0  0
   -2.0215   -1.0383    0.6012 H   0  0  0  0  0  0  0  0  0  0  0  0
   -3.5018   -0.7538   -3.1260 H   0  0  0  0  0  0  0  0  0  0  0  0
   -5.1137   -1.3658   -2.6858 H   0  0  0  0  0  0  0  0  0  0  0  0
   -4.9638    0.1702   -3.5294 H   0  0  0  0  0  0  0  0  0  0  0  0
    3.6875    0.5103   -0.0105 H   0  0  0  0  0  0  0  0  0  0  0  0
    0.6355   -1.0155    0.7326 H   0  0  0  0  0  0  0  0  0  0  0  0
    0.3790    0.7127    1.0834 H   0  0  0  0  0  0  0  0  0  0  0  0
   -0.3777   -0.7088   -1.5292 H   0  0  0  0  0  0  0  0  0  0  0  0
   -0.6381    1.0183   -1.1828 H   0  0  0  0  0  0  0  0  0  0  0  0
   -3.6833   -0.5205   -0.4404 H   0  0  0  0  0  0  0  0  0  0  0  0
  1  2  1  0
  1 12  2  0
  3  1  1  0
  3  4  2  0
  4  6  1  0
  5  4  1  0
  7  8  2  0
  8  9  1  0
  8  6  1  0
  9 15  1  0
 10 11  1  0
 10  6  2  0
 12 10  1  0
 13 14  2  0
 14 18  1  0
 15 13  1  0
 15 16  2  0
 16 17  1  0
 18 17  2  0
 19 14  1  0
 19 20  1  0
 20 21  1  0
 21 22  1  0
 22 23  1  0
 23 24  1  0
 23 27  1  0
 24 25  1  0
 25 20  1  0
 26 19  2  0
 28 29  1  0
 28 39  2  0
 30 28  1  0
 30 31  2  0
 31 33  1  0
 32 31  1  0
 34 35  2  0
 35 36  1  0
 35 33  1  0
 36 42  1  0
 37 38  1  0
 37 33  2  0
 39 37  1  0
 40 41  2  0
 41 45  1  0
 42 40  1  0
 42 43  2  0
 43 44  1  0
 45 44  2  0
 46 41  1  0
 46 47  1  0
 47 48  1  0
 48 49  1  0
 49 50  1  0
 50 51  1  0
 50 54  1  0
 51 52  1  0
 52 47  1  0
 53 46  2  0
 55 56  1  0
 56 57  2  0
 56 58  1  0
 58 59  1  0
 59 60  1  0
 60 61  2  0
 60 62  1  0
  3 63  1  0
  9 64  1  0
 12 65  1  0
 16 66  1  0
 17 67  1  0
 18 68  1  0
 20 69  1  0
 21 70  1  0
 21 71  1  0
 22 72  1  0
 22 73  1  0
 24 74  1  0
 24 75  1  0
 25 76  1  0
 25 77  1  0
 27 78  1  0
 27 79  1  0
 27 80  1  0
 30 81  1  0
 36 82  1  0
 39 83  1  0
 43 84  1  0
 44 85  1  0
 45 86  1  0
 47 87  1  0
 48 88  1  0
 48 89  1  0
 49 90  1  0
 49 91  1  0
 51 92  1  0
 51 93  1  0
 52 94  1  0
 52 95  1  0
 54 96  1  0
 54 97  1  0
 54 98  1  0
 55 99  1  0
 58100  1  0
 58101  1  0
 59102  1  0
 59103  1  0
 62104  1  0
M  END
$$$$
