
     RDKit          3D

104107  0  0  0  0  0  0  0  0999 V2000
    5.3282   -1.7876   -2.9088 C   0  0  0  0  0  0  0  0  0  0  0  0
    5.8488   -2.6132   -3.8241 F   0  0  0  0  0  0  0  0  0  0  0  0
    5.9119   -1.7060   -1.6497 C   0  0  0  0  0  0  0  0  0  0  0  0
    5.3656   -0.8426   -0.7027 C   0  0  0  0  0  0  0  0  0  0  0  0
    5.9235   -0.8104    0.5155 F   0  0  0  0  0  0  0  0  0  0  0  0
    4.2395   -0.0703   -1.0007 C   0  0  0  0  0  0  0  0  0  0  0  0
    4.4770    1.4722    0.7213 O   0  0  0  0  0  0  0  0  0  0  0  0
    3.6919    0.8540    0.0137 C   0  0  0  0  0  0  0  0  0  0  0  0
    2.3180    0.9124    0.0812 N   0  0  0  0  0  0  0  0  0  0  0  0
    3.6752   -0.1729   -2.2725 C   0  0  0  0  0  0  0  0  0  0  0  0
    2.5980    0.5542   -2.6027 F   0  0  0  0  0  0  0  0  0  0  0  0
    4.2141   -1.0257   -3.2318 C   0  0  0  0  0  0  0  0  0  0  0  0
    0.2145    1.4119    0.8421 N   0  0  0  0  0  0  0  0  0  0  0  0
   -0.6282    2.1019    1.6510 C   0  0  0  0  0  0  0  0  0  0  0  0
    1.5329    1.6789    0.9442 C   0  0  0  0  0  0  0  0  0  0  0  0
    2.0361    2.6258    1.8262 C   0  0  0  0  0  0  0  0  0  0  0  0
    1.1515    3.3319    2.6386 C   0  0  0  0  0  0  0  0  0  0  0  0
   -0.2082    3.0688    2.5541 C   0  0  0  0  0  0  0  0  0  0  0  0
   -2.0814    1.7634    1.5607 C   0  0  0  0  0  0  0  0  0  0  0  0
   -2.4917    0.6064    0.6521 C   0  0  0  0  0  0  0  0  0  0  0  0
   -2.1002   -0.7403    1.2873 C   0  0  0  0  0  0  0  0  0  0  0  0
   -3.1525   -1.8362    1.0809 C   0  0  0  0  0  0  0  0  0  0  0  0
   -3.6800   -1.7641   -0.2804 N   0  0  0  0  0  0  0  0  0  0  0  0
   -4.4430   -0.5279   -0.5141 C   0  0  0  0  0  0  0  0  0  0  0  0
   -3.9967    0.6480    0.3609 C   0  0  0  0  0  0  0  0  0  0  0  0
   -2.8961    2.4030    2.2274 O   0  0  0  0  0  0  0  0  0  0  0  0
   -4.4773   -2.9415   -0.6133 C   0  0  0  0  0  0  0  0  0  0  0  0
    4.7806   -2.6194    2.0555 C   0  0  0  0  0  0  0  0  0  0  0  0
    5.2556   -3.6392    2.7800 F   0  0  0  0  0  0  0  0  0  0  0  0
    3.4114   -2.4717    1.9001 C   0  0  0  0  0  0  0  0  0  0  0  0
    2.9260   -1.4049    1.1460 C   0  0  0  0  0  0  0  0  0  0  0  0
    1.5947   -1.2949    1.0205 F   0  0  0  0  0  0  0  0  0  0  0  0
    3.7854   -0.4795    0.5393 C   0  0  0  0  0  0  0  0  0  0  0  0
    4.0886    1.5008   -0.6927 O   0  0  0  0  0  0  0  0  0  0  0  0
    3.2862    0.6772   -0.2662 C   0  0  0  0  0  0  0  0  0  0  0  0
    1.9254    0.7395   -0.4699 N   0  0  0  0  0  0  0  0  0  0  0  0
    5.1632   -0.6622    0.7174 C   0  0  0  0  0  0  0  0  0  0  0  0
    6.0604    0.1685    0.1675 F   0  0  0  0  0  0  0  0  0  0  0  0
    5.6634   -1.7247    1.4700 C   0  0  0  0  0  0  0  0  0  0  0  0
   -0.1361    1.4719   -1.1288 N   0  0  0  0  0  0  0  0  0  0  0  0
   -0.9523    2.3526   -1.7511 C   0  0  0  0  0  0  0  0  0  0  0  0
    1.1923    1.7033   -1.1643 C   0  0  0  0  0  0  0  0  0  0  0  0
    1.7421    2.7942   -1.8223 C   0  0  0  0  0  0  0  0  0  0  0  0
    0.8889    3.6884   -2.4667 C   0  0  0  0  0  0  0  0  0  0  0  0
   -0.4830    3.4678   -2.4322 C   0  0  0  0  0  0  0  0  0  0  0  0
   -2.4240    2.0958   -1.6796 C   0  0  0  0  0  0  0  0  0  0  0  0
   -2.9767    0.8908   -0.9211 C   0  0  0  0  0  0  0  0  0  0  0  0
   -2.6670    0.9186    0.5768 C   0  0  0  0  0  0  0  0  0  0  0  0
   -3.2396   -0.3104    1.2824 C   0  0  0  0  0  0  0  0  0  0  0  0
   -2.7626   -1.5472    0.6487 N   0  0  0  0  0  0  0  0  0  0  0  0
   -3.1773   -1.6138   -0.7599 C   0  0  0  0  0  0  0  0  0  0  0  0
   -2.5921   -0.4463   -1.5549 C   0  0  0  0  0  0  0  0  0  0  0  0
   -3.1930    2.8746   -2.2481 O   0  0  0  0  0  0  0  0  0  0  0  0
   -3.2465   -2.7163    1.3831 C   0  0  0  0  0  0  0  0  0  0  0  0
   -2.6055   -0.8108    0.9196 O   0  0  0  0  0  0  0  0  0  0  0  0
   -1.8570   -0.1336    0.0272 C   0  0  0  0  0  0  0  0  0  0  0  0
   -2.3814    0.5248   -0.8547 O   0  0  0  0  0  0  0  0  0  0  0  0
   -0.3876   -0.3131    0.2753 C   0  0  0  0  0  0  0  0  0  0  0  0
    0.4348    0.4976   -0.7206 C   0  0  0  0  0  0  0  0  0  0  0  0
    1.9193    0.4075   -0.4995 C   0  0  0  0  0  0  0  0  0  0  0  0
    2.7569    1.0818   -1.0792 O   0  0  0  0  0  0  0  0  0  0  0  0
    2.3033   -0.5252    0.3884 O   0  0  0  0  0  0  0  0  0  0  0  0
    6.7781   -2.3115   -1.4041 H   0  0  0  0  0  0  0  0  0  0  0  0
    1.7559    0.3283   -0.5249 H   0  0  0  0  0  0  0  0  0  0  0  0
    3.7705   -1.0923   -4.2197 H   0  0  0  0  0  0  0  0  0  0  0  0
    3.0961    2.8405    1.8999 H   0  0  0  0  0  0  0  0  0  0  0  0
    1.5271    4.0768    3.3354 H   0  0  0  0  0  0  0  0  0  0  0  0
   -0.9186    3.5980    3.1807 H   0  0  0  0  0  0  0  0  0  0  0  0
   -1.9758    0.7274   -0.3100 H   0  0  0  0  0  0  0  0  0  0  0  0
   -1.9115   -0.6359    2.3645 H   0  0  0  0  0  0  0  0  0  0  0  0
   -1.1498   -1.0677    0.8443 H   0  0  0  0  0  0  0  0  0  0  0  0
   -3.9566   -1.7427    1.8224 H   0  0  0  0  0  0  0  0  0  0  0  0
   -2.6678   -2.8035    1.2582 H   0  0  0  0  0  0  0  0  0  0  0  0
   -5.5162   -0.6764   -0.3398 H   0  0  0  0  0  0  0  0  0  0  0  0
   -4.3321   -0.2576   -1.5705 H   0  0  0  0  0  0  0  0  0  0  0  0
   -4.5561    0.6227    1.3061 H   0  0  0  0  0  0  0  0  0  0  0  0
   -4.2667    1.5935   -0.1280 H   0  0  0  0  0  0  0  0  0  0  0  0
   -3.8709   -3.8519   -0.5360 H   0  0  0  0  0  0  0  0  0  0  0  0
   -5.3462   -3.0536    0.0454 H   0  0  0  0  0  0  0  0  0  0  0  0
   -4.8310   -2.8885   -1.6502 H   0  0  0  0  0  0  0  0  0  0  0  0
    2.7261   -3.1751    2.3622 H   0  0  0  0  0  0  0  0  0  0  0  0
    1.3179    0.0320   -0.0690 H   0  0  0  0  0  0  0  0  0  0  0  0
    6.7343   -1.8442    1.5958 H   0  0  0  0  0  0  0  0  0  0  0  0
    2.8102    2.9760   -1.8554 H   0  0  0  0  0  0  0  0  0  0  0  0
    1.2943    4.5544   -2.9847 H   0  0  0  0  0  0  0  0  0  0  0  0
   -1.1676    4.1502   -2.9256 H   0  0  0  0  0  0  0  0  0  0  0  0
   -4.0700    0.9769   -1.0144 H   0  0  0  0  0  0  0  0  0  0  0  0
   -1.5900    0.9511    0.7633 H   0  0  0  0  0  0  0  0  0  0  0  0
   -3.0803    1.8289    1.0256 H   0  0  0  0  0  0  0  0  0  0  0  0
   -4.3363   -0.2669    1.2822 H   0  0  0  0  0  0  0  0  0  0  0  0
   -2.9159   -0.2819    2.3297 H   0  0  0  0  0  0  0  0  0  0  0  0
   -2.8191   -2.5464   -1.2121 H   0  0  0  0  0  0  0  0  0  0  0  0
   -4.2718   -1.6078   -0.8444 H   0  0  0  0  0  0  0  0  0  0  0  0
   -2.9552   -0.4870   -2.5883 H   0  0  0  0  0  0  0  0  0  0  0  0
   -1.5060   -0.5660   -1.6108 H   0  0  0  0  0  0  0  0  0  0  0  0
   -2.8614   -3.6397    0.9367 H   0  0  0  0  0  0  0  0  0  0  0  0
   -4.3413   -2.7722    1.3985 H   0  0  0  0  0  0  0  0  0  0  0  0
   -2.8819   -2.6959    2.4178 H   0  0  0  0  0  0  0  0  0  0  0  0
   -3.5287   -0.6177    0.6541 H   0  0  0  0  0  0  0  0  0  0  0  0
   -0.1685    0.0132    1.2987 H   0  0  0  0  0  0  0  0  0  0  0  0
   -0.1519   -1.3800    0.1832 H   0  0  0  0  0  0  0  0  0  0  0  0
    0.1572    1.5566   -0.6484 H   0  0  0  0  0  0  0  0  0  0  0  0
    0.2270    0.1563   -1.7426 H   0  0  0  0  0  0  0  0  0  0  0  0
    3.2822   -0.4574    0.3902 H   0  0  0  0  0  0  0  0  0  0  0  0
  1  2  1  0
  1 12  2  0
  3  1  1  0
  3  4  2  0
  4  6  1  0
  5  4  1  0
  7  8  2  0
  8  9  1  0
  8  6  1  0
  9 15  1  0
 10 11  1  0
 10  6  2  0
 12 10  1  0
 13 14  2  0
 14 18  1  0
 15 13  1  0
 15 16  2  0
 16 17  1  0
 18 17  2  0
 19 14  1  0
 19 20  1  0
 20 21  1  0
 21 22  1  0
 22 23  1  0
 23 24  1  0
 23 27  1  0
 24 25  1  0
 25 20  1  0
 26 19  2  0
 28 29  1  0
 28 39  2  0
 30 28  1  0
 30 31  2  0
 31 33  1  0
 32 31  1  0
 34 35  2  0
 35 36  1  0
 35 33  1  0
 36 42  1  0
 37 38  1  0
 37 33  2  0
 39 37  1  0
 40 41  2  0
 41 45  1  0
 42 40  1  0
 42 43  2  0
 43 44  1  0
 45 44  2  0
 46 41  1  0
 46 47  1  0
 47 48  1  0
 48 49  1  0
 49 50  1  0
 50 51  1  0
 50 54  1  0
 51 52  1  0
 52 47  1  0
 53 46  2  0
 55 56  1  0
 56 57  2  0
 56 58  1  0
 58 59  1  0
 59 60  1  0
 60 61  2  0
 60 62  1  0
  3 63  1  0
  9 64  1  0
 12 65  1  0
 16 66  1  0
 17 67  1  0
 18 68  1  0
 20 69  1  0
 21 70  1  0
 21 71  1  0
 22 72  1  0
 22 73  1  0
 24 74  1  0
 24 75  1  0
 25 76  1  0
 25 77  1  0
 27 78  1  0
 27 79  1  0
 27 80  1  0
 30 81  1  0
 36 82  1  0
 39 83  1  0
 43 84  1  0
 44 85  1  0
 45 86  1  0
 47 87  1  0
 48 88  1  0
 48 89  1  0
 49 90  1  0
 49 91  1  0
 51 92  1  0
 51 93  1  0
 52 94  1  0
 52 95  1  0
 54 96  1  0
 54 97  1  0
 54 98  1  0
 55 99  1  0
 58100  1  0
 58101  1  0
 59102  1  0
 59103  1  0
 62104  1  0
M  END
$$$$
