
     RDKit          3D

 26 27  0  0  0  0  0  0  0  0999 V2000
   44.4668    3.4565   10.1676 N   0  0  0  0  0  0  0  0  0  0  0  0
   43.7048    3.4540   11.3029 C   0  0  0  0  0  0  0  0  0  0  0  0
   44.8448    2.1529    9.5819 C   0  0  0  0  0  0  0  0  0  0  0  0
   45.8152    2.2514    8.4206 C   0  0  0  0  0  0  0  0  0  0  0  0
   42.6741    4.1739   11.5705 N   0  0  0  0  0  0  0  0  0  0  0  0
   44.3263    4.5274    9.1752 C   0  0  0  0  0  0  0  0  0  0  0  0
   46.1890    3.4861    7.8655 C   0  0  0  0  0  0  0  0  0  0  0  0
   45.6543    4.7607    8.4570 C   0  0  0  0  0  0  0  0  0  0  0  0
   44.1252    2.6065   12.2649 N   0  0  0  0  0  0  0  0  0  0  0  0
   46.3383    1.0707    7.8681 C   0  0  0  0  0  0  0  0  0  0  0  0
   47.0975    3.5286    6.7991 C   0  0  0  0  0  0  0  0  0  0  0  0
   47.2309    1.1196    6.7970 C   0  0  0  0  0  0  0  0  0  0  0  0
   47.6123    2.3483    6.2650 C   0  0  0  0  0  0  0  0  0  0  0  0
   45.3173    1.5226   10.3448 H   0  0  0  0  0  0  0  0  0  0  0  0
   43.9362    1.6473    9.2312 H   0  0  0  0  0  0  0  0  0  0  0  0
   42.4362    4.7552   10.7688 H   0  0  0  0  0  0  0  0  0  0  0  0
   44.0453    5.4720    9.6557 H   0  0  0  0  0  0  0  0  0  0  0  0
   43.5326    4.2698    8.4624 H   0  0  0  0  0  0  0  0  0  0  0  0
   46.3977    5.1519    9.1625 H   0  0  0  0  0  0  0  0  0  0  0  0
   45.5061    5.5105    7.6712 H   0  0  0  0  0  0  0  0  0  0  0  0
   45.1231    2.6762   12.4182 H   0  0  0  0  0  0  0  0  0  0  0  0
   43.6161    2.8033   13.1210 H   0  0  0  0  0  0  0  0  0  0  0  0
   46.0532    0.1026    8.2752 H   0  0  0  0  0  0  0  0  0  0  0  0
   47.4081    4.4825    6.3789 H   0  0  0  0  0  0  0  0  0  0  0  0
   47.6314    0.1991    6.3804 H   0  0  0  0  0  0  0  0  0  0  0  0
   48.3130    2.3876    5.4351 H   0  0  0  0  0  0  0  0  0  0  0  0
  2  1  1  0
  3  1  1  0
  4  3  1  0
  5  2  2  3
  6  1  1  0
  7  8  1  0
  8  6  1  0
  9  2  1  0
 10  4  2  0
 11  7  2  0
 12 10  1  0
 13 11  1  0
  4  7  1  0
 12 13  2  0
  3 14  1  0
  3 15  1  0
  5 16  1  0
  6 17  1  0
  6 18  1  0
  8 19  1  0
  8 20  1  0
  9 21  1  0
  9 22  1  0
 10 23  1  0
 11 24  1  0
 12 25  1  0
 13 26  1  0
M  END
> <Uni-Dock RESULT> 
ENERGY=   -6.272  LOWER_BOUND=    0.000  UPPER_BOUND=    0.000
INTER + INTRA:          -6.272
INTER:                  -6.272
INTRA:                   0.000
UNBOUND:                 0.000

$$$$

     RDKit          3D

 26 27  0  0  0  0  0  0  0  0999 V2000
   45.6348    3.5404    8.3536 N   0  0  0  0  0  0  0  0  0  0  0  0
   46.3760    3.5610    7.2048 C   0  0  0  0  0  0  0  0  0  0  0  0
   45.2621    4.8346    8.9632 C   0  0  0  0  0  0  0  0  0  0  0  0
   44.5783    4.7125   10.3113 C   0  0  0  0  0  0  0  0  0  0  0  0
   46.2054    2.8681    6.1357 N   0  0  0  0  0  0  0  0  0  0  0  0
   44.6551    2.4753    8.5922 C   0  0  0  0  0  0  0  0  0  0  0  0
   44.2017    3.4693   10.8451 C   0  0  0  0  0  0  0  0  0  0  0  0
   44.5180    2.2082   10.0901 C   0  0  0  0  0  0  0  0  0  0  0  0
   47.4360    4.3955    7.2300 N   0  0  0  0  0  0  0  0  0  0  0  0
   44.2921    5.8800   11.0379 C   0  0  0  0  0  0  0  0  0  0  0  0
   43.5812    3.4047   12.1003 C   0  0  0  0  0  0  0  0  0  0  0  0
   43.6609    5.8094   12.2802 C   0  0  0  0  0  0  0  0  0  0  0  0
   43.3086    4.5720   12.8120 C   0  0  0  0  0  0  0  0  0  0  0  0
   46.1572    5.4509    9.1097 H   0  0  0  0  0  0  0  0  0  0  0  0
   44.5867    5.3645    8.2797 H   0  0  0  0  0  0  0  0  0  0  0  0
   45.3681    2.2946    6.2209 H   0  0  0  0  0  0  0  0  0  0  0  0
   44.9739    1.5376    8.1219 H   0  0  0  0  0  0  0  0  0  0  0  0
   43.6896    2.7549    8.1517 H   0  0  0  0  0  0  0  0  0  0  0  0
   45.4554    1.7965   10.4842 H   0  0  0  0  0  0  0  0  0  0  0  0
   43.7288    1.4639   10.2475 H   0  0  0  0  0  0  0  0  0  0  0  0
   47.9707    4.2994    8.0838 H   0  0  0  0  0  0  0  0  0  0  0  0
   48.0183    4.2107    6.4191 H   0  0  0  0  0  0  0  0  0  0  0  0
   44.5648    6.8546   10.6378 H   0  0  0  0  0  0  0  0  0  0  0  0
   43.3068    2.4437   12.5292 H   0  0  0  0  0  0  0  0  0  0  0  0
   43.4478    6.7197   12.8344 H   0  0  0  0  0  0  0  0  0  0  0  0
   42.8232    4.5157   13.7828 H   0  0  0  0  0  0  0  0  0  0  0  0
  2  1  1  0
  3  1  1  0
  4  3  1  0
  5  2  2  3
  6  1  1  0
  7  8  1  0
  8  6  1  0
  9  2  1  0
 10  4  2  0
 11  7  2  0
 12 10  1  0
 13 11  1  0
  4  7  1  0
 12 13  2  0
  3 14  1  0
  3 15  1  0
  5 16  1  0
  6 17  1  0
  6 18  1  0
  8 19  1  0
  8 20  1  0
  9 21  1  0
  9 22  1  0
 10 23  1  0
 11 24  1  0
 12 25  1  0
 13 26  1  0
M  END
> <Uni-Dock RESULT> 
ENERGY=   -4.000  LOWER_BOUND=    2.211  UPPER_BOUND=    5.318
INTER + INTRA:          -4.000
INTER:                  -4.000
INTRA:                   0.000
UNBOUND:                 0.000

$$$$

     RDKit          3D

 26 27  0  0  0  0  0  0  0  0999 V2000
   44.2632    6.3537   12.4331 N   0  0  0  0  0  0  0  0  0  0  0  0
   43.1575    5.5492   12.4223 C   0  0  0  0  0  0  0  0  0  0  0  0
   45.5790    5.7230   12.6697 C   0  0  0  0  0  0  0  0  0  0  0  0
   46.7223    6.7080   12.8193 C   0  0  0  0  0  0  0  0  0  0  0  0
   42.1804    5.5515   11.5872 N   0  0  0  0  0  0  0  0  0  0  0  0
   44.3283    7.5461   11.5814 C   0  0  0  0  0  0  0  0  0  0  0  0
   46.5535    8.0841   12.5955 C   0  0  0  0  0  0  0  0  0  0  0  0
   45.1945    8.6192   12.2388 C   0  0  0  0  0  0  0  0  0  0  0  0
   43.0855    4.6727   13.4455 N   0  0  0  0  0  0  0  0  0  0  0  0
   47.9944    6.2267   13.1700 C   0  0  0  0  0  0  0  0  0  0  0  0
   47.6373    8.9583   12.7562 C   0  0  0  0  0  0  0  0  0  0  0  0
   49.0723    7.1007   13.3140 C   0  0  0  0  0  0  0  0  0  0  0  0
   48.8926    8.4661   13.1099 C   0  0  0  0  0  0  0  0  0  0  0  0
   45.5471    5.1235   13.5873 H   0  0  0  0  0  0  0  0  0  0  0  0
   45.8059    5.0551   11.8291 H   0  0  0  0  0  0  0  0  0  0  0  0
   42.3523    6.2330   10.8501 H   0  0  0  0  0  0  0  0  0  0  0  0
   43.3310    7.9773   11.4345 H   0  0  0  0  0  0  0  0  0  0  0  0
   44.7201    7.2742   10.5930 H   0  0  0  0  0  0  0  0  0  0  0  0
   44.7133    8.9779   13.1571 H   0  0  0  0  0  0  0  0  0  0  0  0
   45.2895    9.4686   11.5525 H   0  0  0  0  0  0  0  0  0  0  0  0
   43.2866    5.1136   14.3339 H   0  0  0  0  0  0  0  0  0  0  0  0
   42.1608    4.2536   13.4540 H   0  0  0  0  0  0  0  0  0  0  0  0
   48.1503    5.1627   13.3370 H   0  0  0  0  0  0  0  0  0  0  0  0
   47.5082   10.0277   12.6057 H   0  0  0  0  0  0  0  0  0  0  0  0
   50.0511    6.7165   13.5890 H   0  0  0  0  0  0  0  0  0  0  0  0
   49.7302    9.1485   13.2286 H   0  0  0  0  0  0  0  0  0  0  0  0
  2  1  1  0
  3  1  1  0
  4  3  1  0
  5  2  2  3
  6  1  1  0
  7  8  1  0
  8  6  1  0
  9  2  1  0
 10  4  2  0
 11  7  2  0
 12 10  1  0
 13 11  1  0
  4  7  1  0
 12 13  2  0
  3 14  1  0
  3 15  1  0
  5 16  1  0
  6 17  1  0
  6 18  1  0
  8 19  1  0
  8 20  1  0
  9 21  1  0
  9 22  1  0
 10 23  1  0
 11 24  1  0
 12 25  1  0
 13 26  1  0
M  END
> <Uni-Dock RESULT> 
ENERGY=   -3.713  LOWER_BOUND=    5.121  UPPER_BOUND=    6.009
INTER + INTRA:          -3.713
INTER:                  -3.713
INTRA:                   0.000
UNBOUND:                 0.000

$$$$

     RDKit          3D

 26 27  0  0  0  0  0  0  0  0999 V2000
   44.8424    4.6864   12.3122 N   0  0  0  0  0  0  0  0  0  0  0  0
   44.0303    3.6678   11.8966 C   0  0  0  0  0  0  0  0  0  0  0  0
   44.3812    6.0743   12.0971 C   0  0  0  0  0  0  0  0  0  0  0  0
   45.4105    7.1322   12.4454 C   0  0  0  0  0  0  0  0  0  0  0  0
   43.7182    2.5919   12.5269 N   0  0  0  0  0  0  0  0  0  0  0  0
   45.6949    4.5277   13.4951 C   0  0  0  0  0  0  0  0  0  0  0  0
   46.6303    6.8095   13.0620 C   0  0  0  0  0  0  0  0  0  0  0  0
   46.9602    5.3718   13.3526 C   0  0  0  0  0  0  0  0  0  0  0  0
   43.5317    3.8136   10.6514 N   0  0  0  0  0  0  0  0  0  0  0  0
   45.1256    8.4785   12.1638 C   0  0  0  0  0  0  0  0  0  0  0  0
   47.5559    7.8202   13.3557 C   0  0  0  0  0  0  0  0  0  0  0  0
   46.0454    9.4811   12.4722 C   0  0  0  0  0  0  0  0  0  0  0  0
   47.2610    9.1514   13.0652 C   0  0  0  0  0  0  0  0  0  0  0  0
   44.1116    6.2203   11.0443 H   0  0  0  0  0  0  0  0  0  0  0  0
   43.4869    6.2474   12.7092 H   0  0  0  0  0  0  0  0  0  0  0  0
   44.1300    2.6006   13.4584 H   0  0  0  0  0  0  0  0  0  0  0  0
   46.0107    3.4844   13.6131 H   0  0  0  0  0  0  0  0  0  0  0  0
   45.1339    4.8074   14.3960 H   0  0  0  0  0  0  0  0  0  0  0  0
   47.5765    4.9866   12.5308 H   0  0  0  0  0  0  0  0  0  0  0  0
   47.5438    5.2960   14.2774 H   0  0  0  0  0  0  0  0  0  0  0  0
   44.2457    4.0901    9.9898 H   0  0  0  0  0  0  0  0  0  0  0  0
   43.0979    2.9407   10.3674 H   0  0  0  0  0  0  0  0  0  0  0  0
   44.1815    8.7522   11.6967 H   0  0  0  0  0  0  0  0  0  0  0  0
   48.5116    7.5747   13.8132 H   0  0  0  0  0  0  0  0  0  0  0  0
   45.8147   10.5189   12.2463 H   0  0  0  0  0  0  0  0  0  0  0  0
   47.9810    9.9311   13.2994 H   0  0  0  0  0  0  0  0  0  0  0  0
  2  1  1  0
  3  1  1  0
  4  3  1  0
  5  2  2  3
  6  1  1  0
  7  8  1  0
  8  6  1  0
  9  2  1  0
 10  4  2  0
 11  7  2  0
 12 10  1  0
 13 11  1  0
  4  7  1  0
 12 13  2  0
  3 14  1  0
  3 15  1  0
  5 16  1  0
  6 17  1  0
  6 18  1  0
  8 19  1  0
  8 20  1  0
  9 21  1  0
  9 22  1  0
 10 23  1  0
 11 24  1  0
 12 25  1  0
 13 26  1  0
M  END
> <Uni-Dock RESULT> 
ENERGY=   -3.530  LOWER_BOUND=    4.183  UPPER_BOUND=    6.172
INTER + INTRA:          -3.530
INTER:                  -3.530
INTRA:                   0.000
UNBOUND:                 0.000

$$$$

     RDKit          3D

 26 27  0  0  0  0  0  0  0  0999 V2000
   47.1766    6.8755   13.7559 N   0  0  0  0  0  0  0  0  0  0  0  0
   48.1133    7.7755   14.1831 C   0  0  0  0  0  0  0  0  0  0  0  0
   46.1504    7.3420   12.7996 C   0  0  0  0  0  0  0  0  0  0  0  0
   45.0668    6.3229   12.5047 C   0  0  0  0  0  0  0  0  0  0  0  0
   49.3833    7.6102   14.2923 N   0  0  0  0  0  0  0  0  0  0  0  0
   47.5168    5.4566   13.6063 C   0  0  0  0  0  0  0  0  0  0  0  0
   45.1335    5.0051   12.9856 C   0  0  0  0  0  0  0  0  0  0  0  0
   46.2854    4.5880   13.8572 C   0  0  0  0  0  0  0  0  0  0  0  0
   47.6169    8.9701   14.5663 N   0  0  0  0  0  0  0  0  0  0  0  0
   43.9745    6.7017   11.7070 C   0  0  0  0  0  0  0  0  0  0  0  0
   44.1027    4.1005   12.6960 C   0  0  0  0  0  0  0  0  0  0  0  0
   42.9592    5.7919   11.4105 C   0  0  0  0  0  0  0  0  0  0  0  0
   43.0223    4.4929   11.9074 C   0  0  0  0  0  0  0  0  0  0  0  0
   45.6534    8.2376   13.1912 H   0  0  0  0  0  0  0  0  0  0  0  0
   46.6429    7.6061   11.8552 H   0  0  0  0  0  0  0  0  0  0  0  0
   49.6456    6.6856   13.9552 H   0  0  0  0  0  0  0  0  0  0  0  0
   48.2801    5.1581   14.3346 H   0  0  0  0  0  0  0  0  0  0  0  0
   47.9277    5.2781   12.6044 H   0  0  0  0  0  0  0  0  0  0  0  0
   45.9735    4.6745   14.9054 H   0  0  0  0  0  0  0  0  0  0  0  0
   46.5451    3.5402   13.6667 H   0  0  0  0  0  0  0  0  0  0  0  0
   46.8133    8.8670   15.1727 H   0  0  0  0  0  0  0  0  0  0  0  0
   48.3508    9.4969   15.0297 H   0  0  0  0  0  0  0  0  0  0  0  0
   43.9085    7.7145   11.3143 H   0  0  0  0  0  0  0  0  0  0  0  0
   44.1374    3.0849   13.0835 H   0  0  0  0  0  0  0  0  0  0  0  0
   42.1174    6.0981   10.7949 H   0  0  0  0  0  0  0  0  0  0  0  0
   42.2283    3.7856   11.6826 H   0  0  0  0  0  0  0  0  0  0  0  0
  2  1  1  0
  3  1  1  0
  4  3  1  0
  5  2  2  3
  6  1  1  0
  7  8  1  0
  8  6  1  0
  9  2  1  0
 10  4  2  0
 11  7  2  0
 12 10  1  0
 13 11  1  0
  4  7  1  0
 12 13  2  0
  3 14  1  0
  3 15  1  0
  5 16  1  0
  6 17  1  0
  6 18  1  0
  8 19  1  0
  8 20  1  0
  9 21  1  0
  9 22  1  0
 10 23  1  0
 11 24  1  0
 12 25  1  0
 13 26  1  0
M  END
> <Uni-Dock RESULT> 
ENERGY=   -3.449  LOWER_BOUND=    5.397  UPPER_BOUND=    6.669
INTER + INTRA:          -3.449
INTER:                  -3.449
INTRA:                   0.000
UNBOUND:                 0.000

$$$$

     RDKit          3D

 26 27  0  0  0  0  0  0  0  0999 V2000
   46.5006    5.6364   13.5561 N   0  0  0  0  0  0  0  0  0  0  0  0
   46.9893    4.5294   14.1928 C   0  0  0  0  0  0  0  0  0  0  0  0
   47.3780    6.8215   13.4513 C   0  0  0  0  0  0  0  0  0  0  0  0
   46.6997    8.0475   12.8710 C   0  0  0  0  0  0  0  0  0  0  0  0
   46.9125    3.3007   13.8234 N   0  0  0  0  0  0  0  0  0  0  0  0
   45.5597    5.5019   12.4390 C   0  0  0  0  0  0  0  0  0  0  0  0
   45.3995    7.9987   12.3423 C   0  0  0  0  0  0  0  0  0  0  0  0
   44.6263    6.7101   12.3850 C   0  0  0  0  0  0  0  0  0  0  0  0
   47.5947    4.7764   15.3730 N   0  0  0  0  0  0  0  0  0  0  0  0
   47.4017    9.2637   12.8402 C   0  0  0  0  0  0  0  0  0  0  0  0
   44.8092    9.1604   11.8259 C   0  0  0  0  0  0  0  0  0  0  0  0
   46.8133   10.4129   12.3113 C   0  0  0  0  0  0  0  0  0  0  0  0
   45.5166   10.3614   11.8072 C   0  0  0  0  0  0  0  0  0  0  0  0
   47.7524    7.0990   14.4439 H   0  0  0  0  0  0  0  0  0  0  0  0
   48.2371    6.5690   12.8169 H   0  0  0  0  0  0  0  0  0  0  0  0
   46.4589    3.2369   12.9137 H   0  0  0  0  0  0  0  0  0  0  0  0
   44.9325    4.6108   12.5604 H   0  0  0  0  0  0  0  0  0  0  0  0
   46.1147    5.3902   11.4988 H   0  0  0  0  0  0  0  0  0  0  0  0
   43.9810    6.7245   13.2720 H   0  0  0  0  0  0  0  0  0  0  0  0
   43.9842    6.6236   11.5007 H   0  0  0  0  0  0  0  0  0  0  0  0
   47.0476    5.3988   15.9538 H   0  0  0  0  0  0  0  0  0  0  0  0
   47.7595    3.8944   15.8481 H   0  0  0  0  0  0  0  0  0  0  0  0
   48.4145    9.3214   13.2340 H   0  0  0  0  0  0  0  0  0  0  0  0
   43.7946    9.1345   11.4349 H   0  0  0  0  0  0  0  0  0  0  0  0
   47.3655   11.3489   12.2962 H   0  0  0  0  0  0  0  0  0  0  0  0
   45.0550   11.2578   11.4014 H   0  0  0  0  0  0  0  0  0  0  0  0
  2  1  1  0
  3  1  1  0
  4  3  1  0
  5  2  2  3
  6  1  1  0
  7  8  1  0
  8  6  1  0
  9  2  1  0
 10  4  2  0
 11  7  2  0
 12 10  1  0
 13 11  1  0
  4  7  1  0
 12 13  2  0
  3 14  1  0
  3 15  1  0
  5 16  1  0
  6 17  1  0
  6 18  1  0
  8 19  1  0
  8 20  1  0
  9 21  1  0
  9 22  1  0
 10 23  1  0
 11 24  1  0
 12 25  1  0
 13 26  1  0
M  END
> <Uni-Dock RESULT> 
ENERGY=   -3.402  LOWER_BOUND=    5.163  UPPER_BOUND=    6.984
INTER + INTRA:          -3.402
INTER:                  -3.402
INTRA:                   0.000
UNBOUND:                 0.000

$$$$

     RDKit          3D

 26 27  0  0  0  0  0  0  0  0999 V2000
   52.9962    2.6896   18.8930 N   0  0  0  0  0  0  0  0  0  0  0  0
   54.1142    2.8466   19.6644 C   0  0  0  0  0  0  0  0  0  0  0  0
   52.1267    3.8664   18.6823 C   0  0  0  0  0  0  0  0  0  0  0  0
   50.8354    3.5613   17.9479 C   0  0  0  0  0  0  0  0  0  0  0  0
   55.3059    2.4240   19.4331 N   0  0  0  0  0  0  0  0  0  0  0  0
   52.9892    1.7459   17.7701 C   0  0  0  0  0  0  0  0  0  0  0  0
   50.5772    2.2991   17.3889 C   0  0  0  0  0  0  0  0  0  0  0  0
   51.5819    1.1927   17.5526 C   0  0  0  0  0  0  0  0  0  0  0  0
   53.9122    3.5005   20.8272 N   0  0  0  0  0  0  0  0  0  0  0  0
   49.8781    4.5789   17.8020 C   0  0  0  0  0  0  0  0  0  0  0  0
   49.3645    2.0604   16.7278 C   0  0  0  0  0  0  0  0  0  0  0  0
   48.6794    4.3385   17.1299 C   0  0  0  0  0  0  0  0  0  0  0  0
   48.4219    3.0789   16.5958 C   0  0  0  0  0  0  0  0  0  0  0  0
   51.8524    4.3068   19.6484 H   0  0  0  0  0  0  0  0  0  0  0  0
   52.6828    4.6170   18.1066 H   0  0  0  0  0  0  0  0  0  0  0  0
   55.3445    1.9683   18.5230 H   0  0  0  0  0  0  0  0  0  0  0  0
   53.6473    0.8924   17.9718 H   0  0  0  0  0  0  0  0  0  0  0  0
   53.3611    2.2440   16.8656 H   0  0  0  0  0  0  0  0  0  0  0  0
   51.2834    0.5804   18.4126 H   0  0  0  0  0  0  0  0  0  0  0  0
   51.5862    0.5499   16.6647 H   0  0  0  0  0  0  0  0  0  0  0  0
   53.0978    3.1537   21.3177 H   0  0  0  0  0  0  0  0  0  0  0  0
   54.7435    3.4102   21.4030 H   0  0  0  0  0  0  0  0  0  0  0  0
   50.0626    5.5677   18.2173 H   0  0  0  0  0  0  0  0  0  0  0  0
   49.1490    1.0789   16.3118 H   0  0  0  0  0  0  0  0  0  0  0  0
   47.9451    5.1331   17.0266 H   0  0  0  0  0  0  0  0  0  0  0  0
   47.4854    2.8888   16.0782 H   0  0  0  0  0  0  0  0  0  0  0  0
  2  1  1  0
  3  1  1  0
  4  3  1  0
  5  2  2  3
  6  1  1  0
  7  8  1  0
  8  6  1  0
  9  2  1  0
 10  4  2  0
 11  7  2  0
 12 10  1  0
 13 11  1  0
  4  7  1  0
 12 13  2  0
  3 14  1  0
  3 15  1  0
  5 16  1  0
  6 17  1  0
  6 18  1  0
  8 19  1  0
  8 20  1  0
  9 21  1  0
  9 22  1  0
 10 23  1  0
 11 24  1  0
 12 25  1  0
 13 26  1  0
M  END
> <Uni-Dock RESULT> 
ENERGY=   -3.353  LOWER_BOUND=   10.546  UPPER_BOUND=   11.878
INTER + INTRA:          -3.353
INTER:                  -3.353
INTRA:                   0.000
UNBOUND:                 0.000

$$$$

     RDKit          3D

 26 27  0  0  0  0  0  0  0  0999 V2000
   45.8026    5.5203   12.9621 N   0  0  0  0  0  0  0  0  0  0  0  0
   46.3083    4.4291   13.6127 C   0  0  0  0  0  0  0  0  0  0  0  0
   46.5595    6.7877   13.0395 C   0  0  0  0  0  0  0  0  0  0  0  0
   45.8469    7.9757   12.4224 C   0  0  0  0  0  0  0  0  0  0  0  0
   46.4108    3.2227   13.1811 N   0  0  0  0  0  0  0  0  0  0  0  0
   45.0465    5.3633   11.7151 C   0  0  0  0  0  0  0  0  0  0  0  0
   44.6457    7.8348   11.7086 C   0  0  0  0  0  0  0  0  0  0  0  0
   44.0107    6.4781   11.5803 C   0  0  0  0  0  0  0  0  0  0  0  0
   46.7135    4.6623   14.8783 N   0  0  0  0  0  0  0  0  0  0  0  0
   46.4175    9.2530   12.5489 C   0  0  0  0  0  0  0  0  0  0  0  0
   44.0174    8.9634   11.1646 C   0  0  0  0  0  0  0  0  0  0  0  0
   45.7942   10.3702   11.9923 C   0  0  0  0  0  0  0  0  0  0  0  0
   44.5932   10.2254   11.3031 C   0  0  0  0  0  0  0  0  0  0  0  0
   46.7604    7.0403   14.0875 H   0  0  0  0  0  0  0  0  0  0  0  0
   47.5204    6.6562   12.5262 H   0  0  0  0  0  0  0  0  0  0  0  0
   46.0982    3.1701   12.2131 H   0  0  0  0  0  0  0  0  0  0  0  0
   44.5034    4.4108   11.7038 H   0  0  0  0  0  0  0  0  0  0  0  0
   45.7364    5.3609   10.8616 H   0  0  0  0  0  0  0  0  0  0  0  0
   43.2493    6.3784   12.3638 H   0  0  0  0  0  0  0  0  0  0  0  0
   43.5113    6.3834   10.6090 H   0  0  0  0  0  0  0  0  0  0  0  0
   46.0293    5.1942   15.4008 H   0  0  0  0  0  0  0  0  0  0  0  0
   46.8998    3.7734   15.3321 H   0  0  0  0  0  0  0  0  0  0  0  0
   47.3537    9.3835   13.0881 H   0  0  0  0  0  0  0  0  0  0  0  0
   43.0758    8.8642   10.6294 H   0  0  0  0  0  0  0  0  0  0  0  0
   46.2439   11.3538   12.0999 H   0  0  0  0  0  0  0  0  0  0  0  0
   44.1035   11.0962   10.8752 H   0  0  0  0  0  0  0  0  0  0  0  0
  2  1  1  0
  3  1  1  0
  4  3  1  0
  5  2  2  3
  6  1  1  0
  7  8  1  0
  8  6  1  0
  9  2  1  0
 10  4  2  0
 11  7  2  0
 12 10  1  0
 13 11  1  0
  4  7  1  0
 12 13  2  0
  3 14  1  0
  3 15  1  0
  5 16  1  0
  6 17  1  0
  6 18  1  0
  8 19  1  0
  8 20  1  0
  9 21  1  0
  9 22  1  0
 10 23  1  0
 11 24  1  0
 12 25  1  0
 13 26  1  0
M  END
> <Uni-Dock RESULT> 
ENERGY=   -3.334  LOWER_BOUND=    4.576  UPPER_BOUND=    6.590
INTER + INTRA:          -3.334
INTER:                  -3.334
INTRA:                   0.000
UNBOUND:                 0.000

$$$$

     RDKit          3D

 26 27  0  0  0  0  0  0  0  0999 V2000
   46.8353    5.5538   13.2631 N   0  0  0  0  0  0  0  0  0  0  0  0
   46.6012    4.2250   13.4852 C   0  0  0  0  0  0  0  0  0  0  0  0
   45.6704    6.4375   13.0455 C   0  0  0  0  0  0  0  0  0  0  0  0
   46.0322    7.8573   12.6539 C   0  0  0  0  0  0  0  0  0  0  0  0
   47.1308    3.4618   14.3735 N   0  0  0  0  0  0  0  0  0  0  0  0
   47.9738    6.2283   13.8958 C   0  0  0  0  0  0  0  0  0  0  0  0
   47.3601    8.3143   12.6545 C   0  0  0  0  0  0  0  0  0  0  0  0
   48.4731    7.3679   13.0092 C   0  0  0  0  0  0  0  0  0  0  0  0
   45.7264    3.6541   12.6313 N   0  0  0  0  0  0  0  0  0  0  0  0
   45.0057    8.7493   12.3021 C   0  0  0  0  0  0  0  0  0  0  0  0
   47.6476    9.6326   12.2748 C   0  0  0  0  0  0  0  0  0  0  0  0
   45.2977   10.0644   11.9393 C   0  0  0  0  0  0  0  0  0  0  0  0
   46.6184   10.5045   11.9230 C   0  0  0  0  0  0  0  0  0  0  0  0
   45.0380    6.0333   12.2461 H   0  0  0  0  0  0  0  0  0  0  0  0
   45.0782    6.4738   13.9686 H   0  0  0  0  0  0  0  0  0  0  0  0
   47.7533    4.0018   14.9720 H   0  0  0  0  0  0  0  0  0  0  0  0
   48.8110    5.5343   14.0367 H   0  0  0  0  0  0  0  0  0  0  0  0
   47.6808    6.5988   14.8864 H   0  0  0  0  0  0  0  0  0  0  0  0
   48.8909    6.9631   12.0792 H   0  0  0  0  0  0  0  0  0  0  0  0
   49.2726    7.9026   13.5349 H   0  0  0  0  0  0  0  0  0  0  0  0
   45.9238    3.9000   11.6697 H   0  0  0  0  0  0  0  0  0  0  0  0
   45.7548    2.6471   12.7572 H   0  0  0  0  0  0  0  0  0  0  0  0
   43.9686    8.4194   12.3059 H   0  0  0  0  0  0  0  0  0  0  0  0
   48.6757    9.9865   12.2521 H   0  0  0  0  0  0  0  0  0  0  0  0
   44.4949   10.7441   11.6658 H   0  0  0  0  0  0  0  0  0  0  0  0
   46.8473   11.5268   11.6338 H   0  0  0  0  0  0  0  0  0  0  0  0
  2  1  1  0
  3  1  1  0
  4  3  1  0
  5  2  2  3
  6  1  1  0
  7  8  1  0
  8  6  1  0
  9  2  1  0
 10  4  2  0
 11  7  2  0
 12 10  1  0
 13 11  1  0
  4  7  1  0
 12 13  2  0
  3 14  1  0
  3 15  1  0
  5 16  1  0
  6 17  1  0
  6 18  1  0
  8 19  1  0
  8 20  1  0
  9 21  1  0
  9 22  1  0
 10 23  1  0
 11 24  1  0
 12 25  1  0
 13 26  1  0
M  END
> <Uni-Dock RESULT> 
ENERGY=   -3.315  LOWER_BOUND=    5.290  UPPER_BOUND=    6.934
INTER + INTRA:          -3.315
INTER:                  -3.315
INTRA:                   0.000
UNBOUND:                 0.000

$$$$
