
     RDKit          3D

 26 27  0  0  0  0  0  0  0  0999 V2000
   44.4672    3.4570   10.1673 N   0  0  0  0  0  0  0  0  0  0  0  0
   43.7053    3.4546   11.3026 C   0  0  0  0  0  0  0  0  0  0  0  0
   44.8455    2.1535    9.5817 C   0  0  0  0  0  0  0  0  0  0  0  0
   45.8157    2.2521    8.4204 C   0  0  0  0  0  0  0  0  0  0  0  0
   42.6744    4.1744   11.5703 N   0  0  0  0  0  0  0  0  0  0  0  0
   44.3266    4.5278    9.1749 C   0  0  0  0  0  0  0  0  0  0  0  0
   46.1894    3.4868    7.8652 C   0  0  0  0  0  0  0  0  0  0  0  0
   45.6544    4.7613    8.4566 C   0  0  0  0  0  0  0  0  0  0  0  0
   44.1259    2.6072   12.2648 N   0  0  0  0  0  0  0  0  0  0  0  0
   46.3390    1.0713    7.8680 C   0  0  0  0  0  0  0  0  0  0  0  0
   47.0978    3.5292    6.7987 C   0  0  0  0  0  0  0  0  0  0  0  0
   47.2315    1.1203    6.7968 C   0  0  0  0  0  0  0  0  0  0  0  0
   47.6128    2.3489    6.2648 C   0  0  0  0  0  0  0  0  0  0  0  0
   45.3180    1.5234   10.3447 H   0  0  0  0  0  0  0  0  0  0  0  0
   43.9369    1.6477    9.2311 H   0  0  0  0  0  0  0  0  0  0  0  0
   42.4364    4.7556   10.7685 H   0  0  0  0  0  0  0  0  0  0  0  0
   44.0454    5.4725    9.6552 H   0  0  0  0  0  0  0  0  0  0  0  0
   43.5328    4.2701    8.4621 H   0  0  0  0  0  0  0  0  0  0  0  0
   46.3980    5.1526    9.1620 H   0  0  0  0  0  0  0  0  0  0  0  0
   45.5061    5.5110    7.6707 H   0  0  0  0  0  0  0  0  0  0  0  0
   43.6167    2.8041   13.1208 H   0  0  0  0  0  0  0  0  0  0  0  0
   45.1238    2.6771   12.4180 H   0  0  0  0  0  0  0  0  0  0  0  0
   46.0540    0.1032    8.2752 H   0  0  0  0  0  0  0  0  0  0  0  0
   47.4082    4.4832    6.3784 H   0  0  0  0  0  0  0  0  0  0  0  0
   47.6321    0.1998    6.3803 H   0  0  0  0  0  0  0  0  0  0  0  0
   48.3134    2.3883    5.4347 H   0  0  0  0  0  0  0  0  0  0  0  0
  2  1  1  0
  3  1  1  0
  4  3  1  0
  5  2  2  3
  6  1  1  0
  7  8  1  0
  8  6  1  0
  9  2  1  0
 10  4  2  0
 11  7  2  0
 12 10  1  0
 13 11  1  0
  4  7  1  0
 12 13  2  0
  3 14  1  0
  3 15  1  0
  5 16  1  0
  6 17  1  0
  6 18  1  0
  8 19  1  0
  8 20  1  0
  9 21  1  0
  9 22  1  0
 10 23  1  0
 11 24  1  0
 12 25  1  0
 13 26  1  0
M  END
> <Uni-Dock RESULT> 
ENERGY=   -6.268  LOWER_BOUND=    0.000  UPPER_BOUND=    0.000
INTER + INTRA:          -6.268
INTER:                  -6.268
INTRA:                   0.000
UNBOUND:                 0.000

$$$$

     RDKit          3D

 26 27  0  0  0  0  0  0  0  0999 V2000
   43.6194    4.5170   11.1975 N   0  0  0  0  0  0  0  0  0  0  0  0
   42.9228    5.3512   12.0272 C   0  0  0  0  0  0  0  0  0  0  0  0
   44.5358    5.1256   10.2100 C   0  0  0  0  0  0  0  0  0  0  0  0
   45.1433    4.1366    9.2340 C   0  0  0  0  0  0  0  0  0  0  0  0
   42.7411    5.2422   13.2951 N   0  0  0  0  0  0  0  0  0  0  0  0
   44.0484    3.1921   11.6578 C   0  0  0  0  0  0  0  0  0  0  0  0
   44.9617    2.7505    9.3687 C   0  0  0  0  0  0  0  0  0  0  0  0
   44.1056    2.2168   10.4835 C   0  0  0  0  0  0  0  0  0  0  0  0
   42.3303    6.3959   11.4121 N   0  0  0  0  0  0  0  0  0  0  0  0
   45.9307    4.6201    8.1761 C   0  0  0  0  0  0  0  0  0  0  0  0
   45.5341    1.8750    8.4359 C   0  0  0  0  0  0  0  0  0  0  0  0
   46.5097    3.7418    7.2595 C   0  0  0  0  0  0  0  0  0  0  0  0
   46.3086    2.3703    7.3880 C   0  0  0  0  0  0  0  0  0  0  0  0
   44.0013    5.8775    9.6172 H   0  0  0  0  0  0  0  0  0  0  0  0
   45.3512    5.6261   10.7475 H   0  0  0  0  0  0  0  0  0  0  0  0
   43.2498    4.4356   13.6529 H   0  0  0  0  0  0  0  0  0  0  0  0
   43.3397    2.7825   12.3873 H   0  0  0  0  0  0  0  0  0  0  0  0
   45.0247    3.2704   12.1531 H   0  0  0  0  0  0  0  0  0  0  0  0
   43.0960    2.0444   10.0904 H   0  0  0  0  0  0  0  0  0  0  0  0
   44.4994    1.2570   10.8377 H   0  0  0  0  0  0  0  0  0  0  0  0
   41.6990    6.8470   12.0669 H   0  0  0  0  0  0  0  0  0  0  0  0
   41.8353    6.1097   10.5772 H   0  0  0  0  0  0  0  0  0  0  0  0
   46.0941    5.6897    8.0594 H   0  0  0  0  0  0  0  0  0  0  0  0
   45.3792    0.8018    8.5218 H   0  0  0  0  0  0  0  0  0  0  0  0
   47.1142    4.1285    6.4432 H   0  0  0  0  0  0  0  0  0  0  0  0
   46.7536    1.6859    6.6704 H   0  0  0  0  0  0  0  0  0  0  0  0
  2  1  1  0
  3  1  1  0
  4  3  1  0
  5  2  2  3
  6  1  1  0
  7  8  1  0
  8  6  1  0
  9  2  1  0
 10  4  2  0
 11  7  2  0
 12 10  1  0
 13 11  1  0
  4  7  1  0
 12 13  2  0
  3 14  1  0
  3 15  1  0
  5 16  1  0
  6 17  1  0
  6 18  1  0
  8 19  1  0
  8 20  1  0
  9 21  1  0
  9 22  1  0
 10 23  1  0
 11 24  1  0
 12 25  1  0
 13 26  1  0
M  END
> <Uni-Dock RESULT> 
ENERGY=   -5.492  LOWER_BOUND=    1.293  UPPER_BOUND=    2.783
INTER + INTRA:          -5.492
INTER:                  -5.492
INTRA:                   0.000
UNBOUND:                 0.000

$$$$

     RDKit          3D

 26 27  0  0  0  0  0  0  0  0999 V2000
   45.1757    6.7039   11.9482 N   0  0  0  0  0  0  0  0  0  0  0  0
   45.3319    8.0039   12.3419 C   0  0  0  0  0  0  0  0  0  0  0  0
   45.4950    6.3593   10.5466 C   0  0  0  0  0  0  0  0  0  0  0  0
   45.1443    4.9351   10.1615 C   0  0  0  0  0  0  0  0  0  0  0  0
   45.8790    8.4493   13.4165 N   0  0  0  0  0  0  0  0  0  0  0  0
   45.4079    5.6043   12.8906 C   0  0  0  0  0  0  0  0  0  0  0  0
   44.7007    3.9960   11.1068 C   0  0  0  0  0  0  0  0  0  0  0  0
   44.5207    4.4111   12.5406 C   0  0  0  0  0  0  0  0  0  0  0  0
   44.8083    8.9177   11.4984 N   0  0  0  0  0  0  0  0  0  0  0  0
   45.2894    4.5364    8.8224 C   0  0  0  0  0  0  0  0  0  0  0  0
   44.3781    2.6934   10.7023 C   0  0  0  0  0  0  0  0  0  0  0  0
   44.9804    3.2338    8.4294 C   0  0  0  0  0  0  0  0  0  0  0  0
   44.5221    2.3141    9.3686 C   0  0  0  0  0  0  0  0  0  0  0  0
   44.9492    7.0221    9.8646 H   0  0  0  0  0  0  0  0  0  0  0  0
   46.5702    6.5067   10.3837 H   0  0  0  0  0  0  0  0  0  0  0  0
   46.2568    7.6768   13.9623 H   0  0  0  0  0  0  0  0  0  0  0  0
   45.1582    5.9067   13.9145 H   0  0  0  0  0  0  0  0  0  0  0  0
   46.4690    5.3238   12.8781 H   0  0  0  0  0  0  0  0  0  0  0  0
   43.4660    4.6708   12.6944 H   0  0  0  0  0  0  0  0  0  0  0  0
   44.7653    3.5781   13.2100 H   0  0  0  0  0  0  0  0  0  0  0  0
   44.8116    9.8248   11.9543 H   0  0  0  0  0  0  0  0  0  0  0  0
   43.8723    8.6675   11.2063 H   0  0  0  0  0  0  0  0  0  0  0  0
   45.6426    5.2445    8.0754 H   0  0  0  0  0  0  0  0  0  0  0  0
   44.0131    1.9675   11.4254 H   0  0  0  0  0  0  0  0  0  0  0  0
   45.0937    2.9383    7.3896 H   0  0  0  0  0  0  0  0  0  0  0  0
   44.2746    1.3012    9.0619 H   0  0  0  0  0  0  0  0  0  0  0  0
  2  1  1  0
  3  1  1  0
  4  3  1  0
  5  2  2  3
  6  1  1  0
  7  8  1  0
  8  6  1  0
  9  2  1  0
 10  4  2  0
 11  7  2  0
 12 10  1  0
 13 11  1  0
  4  7  1  0
 12 13  2  0
  3 14  1  0
  3 15  1  0
  5 16  1  0
  6 17  1  0
  6 18  1  0
  8 19  1  0
  8 20  1  0
  9 21  1  0
  9 22  1  0
 10 23  1  0
 11 24  1  0
 12 25  1  0
 13 26  1  0
M  END
> <Uni-Dock RESULT> 
ENERGY=   -3.977  LOWER_BOUND=    3.055  UPPER_BOUND=    4.447
INTER + INTRA:          -3.977
INTER:                  -3.977
INTRA:                   0.000
UNBOUND:                 0.000

$$$$

     RDKit          3D

 26 27  0  0  0  0  0  0  0  0999 V2000
   44.2632    6.3540   12.4333 N   0  0  0  0  0  0  0  0  0  0  0  0
   43.1576    5.5497   12.4227 C   0  0  0  0  0  0  0  0  0  0  0  0
   45.5791    5.7232   12.6699 C   0  0  0  0  0  0  0  0  0  0  0  0
   46.7224    6.7082   12.8194 C   0  0  0  0  0  0  0  0  0  0  0  0
   42.1803    5.5519   11.5876 N   0  0  0  0  0  0  0  0  0  0  0  0
   44.3284    7.5465   11.5818 C   0  0  0  0  0  0  0  0  0  0  0  0
   46.5537    8.0843   12.5957 C   0  0  0  0  0  0  0  0  0  0  0  0
   45.1946    8.6194   12.2392 C   0  0  0  0  0  0  0  0  0  0  0  0
   43.0856    4.6730   13.4459 N   0  0  0  0  0  0  0  0  0  0  0  0
   47.9946    6.2267   13.1700 C   0  0  0  0  0  0  0  0  0  0  0  0
   47.6375    8.9584   12.7563 C   0  0  0  0  0  0  0  0  0  0  0  0
   49.0725    7.1007   13.3138 C   0  0  0  0  0  0  0  0  0  0  0  0
   48.8929    8.4661   13.1100 C   0  0  0  0  0  0  0  0  0  0  0  0
   45.5472    5.1237   13.5874 H   0  0  0  0  0  0  0  0  0  0  0  0
   45.8059    5.0553   11.8292 H   0  0  0  0  0  0  0  0  0  0  0  0
   42.3522    6.2335   10.8505 H   0  0  0  0  0  0  0  0  0  0  0  0
   43.3311    7.9778   11.4349 H   0  0  0  0  0  0  0  0  0  0  0  0
   44.7202    7.2746   10.5933 H   0  0  0  0  0  0  0  0  0  0  0  0
   44.7137    8.9781   13.1576 H   0  0  0  0  0  0  0  0  0  0  0  0
   45.2897    9.4689   11.5529 H   0  0  0  0  0  0  0  0  0  0  0  0
   42.1608    4.2540   13.4543 H   0  0  0  0  0  0  0  0  0  0  0  0
   43.2868    5.1139   14.3342 H   0  0  0  0  0  0  0  0  0  0  0  0
   48.1505    5.1627   13.3369 H   0  0  0  0  0  0  0  0  0  0  0  0
   47.5085   10.0278   12.6059 H   0  0  0  0  0  0  0  0  0  0  0  0
   50.0513    6.7163   13.5888 H   0  0  0  0  0  0  0  0  0  0  0  0
   49.7306    9.1485   13.2286 H   0  0  0  0  0  0  0  0  0  0  0  0
  2  1  1  0
  3  1  1  0
  4  3  1  0
  5  2  2  3
  6  1  1  0
  7  8  1  0
  8  6  1  0
  9  2  1  0
 10  4  2  0
 11  7  2  0
 12 10  1  0
 13 11  1  0
  4  7  1  0
 12 13  2  0
  3 14  1  0
  3 15  1  0
  5 16  1  0
  6 17  1  0
  6 18  1  0
  8 19  1  0
  8 20  1  0
  9 21  1  0
  9 22  1  0
 10 23  1  0
 11 24  1  0
 12 25  1  0
 13 26  1  0
M  END
> <Uni-Dock RESULT> 
ENERGY=   -3.713  LOWER_BOUND=    5.122  UPPER_BOUND=    6.009
INTER + INTRA:          -3.713
INTER:                  -3.713
INTRA:                   0.000
UNBOUND:                 0.000

$$$$

     RDKit          3D

 26 27  0  0  0  0  0  0  0  0999 V2000
   49.0726    3.6377   17.4421 N   0  0  0  0  0  0  0  0  0  0  0  0
   47.7328    3.7513   17.1943 C   0  0  0  0  0  0  0  0  0  0  0  0
   49.7245    2.3419   17.1571 C   0  0  0  0  0  0  0  0  0  0  0  0
   51.1703    2.2612   17.6074 C   0  0  0  0  0  0  0  0  0  0  0  0
   47.1106    4.7127   16.6103 N   0  0  0  0  0  0  0  0  0  0  0  0
   49.9635    4.7914   17.2792 C   0  0  0  0  0  0  0  0  0  0  0  0
   51.8578    3.3791   18.1077 C   0  0  0  0  0  0  0  0  0  0  0  0
   51.1399    4.6926   18.2487 C   0  0  0  0  0  0  0  0  0  0  0  0
   46.9825    2.7310   17.6599 N   0  0  0  0  0  0  0  0  0  0  0  0
   51.8500    1.0367   17.4994 C   0  0  0  0  0  0  0  0  0  0  0  0
   53.1909    3.2542   18.5218 C   0  0  0  0  0  0  0  0  0  0  0  0
   53.1817    0.9231   17.8999 C   0  0  0  0  0  0  0  0  0  0  0  0
   53.8504    2.0308   18.4135 C   0  0  0  0  0  0  0  0  0  0  0  0
   49.1837    1.5320   17.6609 H   0  0  0  0  0  0  0  0  0  0  0  0
   49.6886    2.1598   16.0755 H   0  0  0  0  0  0  0  0  0  0  0  0
   47.7756    5.4112   16.2827 H   0  0  0  0  0  0  0  0  0  0  0  0
   49.4368    5.7272   17.5004 H   0  0  0  0  0  0  0  0  0  0  0  0
   50.3125    4.8459   16.2401 H   0  0  0  0  0  0  0  0  0  0  0  0
   50.7820    4.7806   19.2820 H   0  0  0  0  0  0  0  0  0  0  0  0
   51.8288    5.5236   18.0572 H   0  0  0  0  0  0  0  0  0  0  0  0
   46.0024    2.9866   17.5912 H   0  0  0  0  0  0  0  0  0  0  0  0
   47.2237    2.4908   18.6129 H   0  0  0  0  0  0  0  0  0  0  0  0
   51.3401    0.1605   17.1038 H   0  0  0  0  0  0  0  0  0  0  0  0
   53.7223    4.1107   18.9306 H   0  0  0  0  0  0  0  0  0  0  0  0
   53.6956   -0.0307   17.8145 H   0  0  0  0  0  0  0  0  0  0  0  0
   54.8857    1.9414   18.7322 H   0  0  0  0  0  0  0  0  0  0  0  0
  2  1  1  0
  3  1  1  0
  4  3  1  0
  5  2  2  3
  6  1  1  0
  7  8  1  0
  8  6  1  0
  9  2  1  0
 10  4  2  0
 11  7  2  0
 12 10  1  0
 13 11  1  0
  4  7  1  0
 12 13  2  0
  3 14  1  0
  3 15  1  0
  5 16  1  0
  6 17  1  0
  6 18  1  0
  8 19  1  0
  8 20  1  0
  9 21  1  0
  9 22  1  0
 10 23  1  0
 11 24  1  0
 12 25  1  0
 13 26  1  0
M  END
> <Uni-Dock RESULT> 
ENERGY=   -3.705  LOWER_BOUND=    9.543  UPPER_BOUND=   10.399
INTER + INTRA:          -3.705
INTER:                  -3.705
INTRA:                   0.000
UNBOUND:                 0.000

$$$$

     RDKit          3D

 26 27  0  0  0  0  0  0  0  0999 V2000
   44.6658    4.6107   11.9689 N   0  0  0  0  0  0  0  0  0  0  0  0
   43.9232    3.5979   11.4283 C   0  0  0  0  0  0  0  0  0  0  0  0
   44.2400    6.0016   11.7053 C   0  0  0  0  0  0  0  0  0  0  0  0
   45.2074    7.0541   12.2113 C   0  0  0  0  0  0  0  0  0  0  0  0
   43.5235    2.5152   11.9942 N   0  0  0  0  0  0  0  0  0  0  0  0
   45.3379    4.4375   13.2610 C   0  0  0  0  0  0  0  0  0  0  0  0
   46.3252    6.7230   12.9945 C   0  0  0  0  0  0  0  0  0  0  0  0
   46.6101    5.2815   13.3131 C   0  0  0  0  0  0  0  0  0  0  0  0
   43.6102    3.7586   10.1257 N   0  0  0  0  0  0  0  0  0  0  0  0
   44.9656    8.4039   11.9069 C   0  0  0  0  0  0  0  0  0  0  0  0
   47.1978    7.7292   13.4310 C   0  0  0  0  0  0  0  0  0  0  0  0
   45.8304    9.4019   12.3571 C   0  0  0  0  0  0  0  0  0  0  0  0
   46.9474    9.0639   13.1161 C   0  0  0  0  0  0  0  0  0  0  0  0
   44.1259    6.1599   10.6263 H   0  0  0  0  0  0  0  0  0  0  0  0
   43.2663    6.1686   12.1832 H   0  0  0  0  0  0  0  0  0  0  0  0
   43.7959    2.5127   12.9756 H   0  0  0  0  0  0  0  0  0  0  0  0
   45.6338    3.3925   13.4116 H   0  0  0  0  0  0  0  0  0  0  0  0
   44.6521    4.7075   14.0743 H   0  0  0  0  0  0  0  0  0  0  0  0
   47.3393    4.9052   12.5849 H   0  0  0  0  0  0  0  0  0  0  0  0
   47.0535    5.1945   14.3119 H   0  0  0  0  0  0  0  0  0  0  0  0
   43.2227    2.8895    9.7718 H   0  0  0  0  0  0  0  0  0  0  0  0
   44.4126    4.0419    9.5779 H   0  0  0  0  0  0  0  0  0  0  0  0
   44.0991    8.6841   11.3111 H   0  0  0  0  0  0  0  0  0  0  0  0
   48.0772    7.4773   14.0193 H   0  0  0  0  0  0  0  0  0  0  0  0
   45.6343   10.4425   12.1120 H   0  0  0  0  0  0  0  0  0  0  0  0
   47.6254    9.8401   13.4613 H   0  0  0  0  0  0  0  0  0  0  0  0
  2  1  1  0
  3  1  1  0
  4  3  1  0
  5  2  2  3
  6  1  1  0
  7  8  1  0
  8  6  1  0
  9  2  1  0
 10  4  2  0
 11  7  2  0
 12 10  1  0
 13 11  1  0
  4  7  1  0
 12 13  2  0
  3 14  1  0
  3 15  1  0
  5 16  1  0
  6 17  1  0
  6 18  1  0
  8 19  1  0
  8 20  1  0
  9 21  1  0
  9 22  1  0
 10 23  1  0
 11 24  1  0
 12 25  1  0
 13 26  1  0
M  END
> <Uni-Dock RESULT> 
ENERGY=   -3.498  LOWER_BOUND=    4.003  UPPER_BOUND=    6.069
INTER + INTRA:          -3.498
INTER:                  -3.498
INTRA:                   0.000
UNBOUND:                 0.000

$$$$

     RDKit          3D

 26 27  0  0  0  0  0  0  0  0999 V2000
   47.1315    7.3177   12.9580 N   0  0  0  0  0  0  0  0  0  0  0  0
   48.3940    7.7109   13.3057 C   0  0  0  0  0  0  0  0  0  0  0  0
   46.7089    5.9459   13.3114 C   0  0  0  0  0  0  0  0  0  0  0  0
   45.3572    5.5482   12.7507 C   0  0  0  0  0  0  0  0  0  0  0  0
   48.7621    8.8187   13.8440 N   0  0  0  0  0  0  0  0  0  0  0  0
   46.0280    8.2836   12.9324 C   0  0  0  0  0  0  0  0  0  0  0  0
   44.5265    6.4665   12.0881 C   0  0  0  0  0  0  0  0  0  0  0  0
   44.9956    7.8800   11.8814 C   0  0  0  0  0  0  0  0  0  0  0  0
   49.3657    6.8239   13.0062 N   0  0  0  0  0  0  0  0  0  0  0  0
   44.9121    4.2266   12.9193 C   0  0  0  0  0  0  0  0  0  0  0  0
   43.2895    6.0505   11.5772 C   0  0  0  0  0  0  0  0  0  0  0  0
   43.6730    3.8230   12.4209 C   0  0  0  0  0  0  0  0  0  0  0  0
   42.8639    4.7340   11.7476 C   0  0  0  0  0  0  0  0  0  0  0  0
   47.4404    5.2205   12.9360 H   0  0  0  0  0  0  0  0  0  0  0  0
   46.6684    5.8604   14.4048 H   0  0  0  0  0  0  0  0  0  0  0  0
   47.9481    9.3969   14.0451 H   0  0  0  0  0  0  0  0  0  0  0  0
   46.3894    9.2841   12.6667 H   0  0  0  0  0  0  0  0  0  0  0  0
   45.5714    8.3506   13.9282 H   0  0  0  0  0  0  0  0  0  0  0  0
   45.4335    7.9545   10.8783 H   0  0  0  0  0  0  0  0  0  0  0  0
   44.1472    8.5723   11.9326 H   0  0  0  0  0  0  0  0  0  0  0  0
   50.2684    7.2713   13.1323 H   0  0  0  0  0  0  0  0  0  0  0  0
   49.2719    6.4667   12.0641 H   0  0  0  0  0  0  0  0  0  0  0  0
   45.5345    3.5014   13.4397 H   0  0  0  0  0  0  0  0  0  0  0  0
   42.6511    6.7512   11.0438 H   0  0  0  0  0  0  0  0  0  0  0  0
   43.3413    2.7967   12.5548 H   0  0  0  0  0  0  0  0  0  0  0  0
   41.9015    4.4186   11.3530 H   0  0  0  0  0  0  0  0  0  0  0  0
  2  1  1  0
  3  1  1  0
  4  3  1  0
  5  2  2  3
  6  1  1  0
  7  8  1  0
  8  6  1  0
  9  2  1  0
 10  4  2  0
 11  7  2  0
 12 10  1  0
 13 11  1  0
  4  7  1  0
 12 13  2  0
  3 14  1  0
  3 15  1  0
  5 16  1  0
  6 17  1  0
  6 18  1  0
  8 19  1  0
  8 20  1  0
  9 21  1  0
  9 22  1  0
 10 23  1  0
 11 24  1  0
 12 25  1  0
 13 26  1  0
M  END
> <Uni-Dock RESULT> 
ENERGY=   -3.424  LOWER_BOUND=    5.317  UPPER_BOUND=    6.316
INTER + INTRA:          -3.424
INTER:                  -3.424
INTRA:                   0.000
UNBOUND:                 0.000

$$$$

     RDKit          3D

 26 27  0  0  0  0  0  0  0  0999 V2000
   47.3561    4.7634   16.1081 N   0  0  0  0  0  0  0  0  0  0  0  0
   47.1781    4.1712   17.3275 C   0  0  0  0  0  0  0  0  0  0  0  0
   48.4194    5.7822   15.9791 C   0  0  0  0  0  0  0  0  0  0  0  0
   48.4398    6.4930   14.6397 C   0  0  0  0  0  0  0  0  0  0  0  0
   47.0081    2.9241   17.5889 N   0  0  0  0  0  0  0  0  0  0  0  0
   47.1049    4.0170   14.8707 C   0  0  0  0  0  0  0  0  0  0  0  0
   47.6144    6.0977   13.5743 C   0  0  0  0  0  0  0  0  0  0  0  0
   46.6441    4.9651   13.7651 C   0  0  0  0  0  0  0  0  0  0  0  0
   47.1454    5.0248   18.3720 N   0  0  0  0  0  0  0  0  0  0  0  0
   49.3276    7.5651   14.4510 C   0  0  0  0  0  0  0  0  0  0  0  0
   47.6604    6.7916   12.3575 C   0  0  0  0  0  0  0  0  0  0  0  0
   49.3785    8.2421   13.2321 C   0  0  0  0  0  0  0  0  0  0  0  0
   48.5430    7.8572   12.1873 C   0  0  0  0  0  0  0  0  0  0  0  0
   48.2966    6.5512   16.7510 H   0  0  0  0  0  0  0  0  0  0  0  0
   49.3924    5.2968   16.1276 H   0  0  0  0  0  0  0  0  0  0  0  0
   47.0742    2.3756   16.7332 H   0  0  0  0  0  0  0  0  0  0  0  0
   46.3110    3.2748   15.0153 H   0  0  0  0  0  0  0  0  0  0  0  0
   48.0128    3.4765   14.5736 H   0  0  0  0  0  0  0  0  0  0  0  0
   45.6650    5.3893   14.0196 H   0  0  0  0  0  0  0  0  0  0  0  0
   46.5355    4.3980   12.8332 H   0  0  0  0  0  0  0  0  0  0  0  0
   46.8334    4.5220   19.1969 H   0  0  0  0  0  0  0  0  0  0  0  0
   46.5466    5.8199   18.1897 H   0  0  0  0  0  0  0  0  0  0  0  0
   49.9844    7.8808   15.2593 H   0  0  0  0  0  0  0  0  0  0  0  0
   47.0082    6.5045   11.5357 H   0  0  0  0  0  0  0  0  0  0  0  0
   50.0674    9.0722   13.0997 H   0  0  0  0  0  0  0  0  0  0  0  0
   48.5771    8.3885   11.2397 H   0  0  0  0  0  0  0  0  0  0  0  0
  2  1  1  0
  3  1  1  0
  4  3  1  0
  5  2  2  3
  6  1  1  0
  7  8  1  0
  8  6  1  0
  9  2  1  0
 10  4  2  0
 11  7  2  0
 12 10  1  0
 13 11  1  0
  4  7  1  0
 12 13  2  0
  3 14  1  0
  3 15  1  0
  5 16  1  0
  6 17  1  0
  6 18  1  0
  8 19  1  0
  8 20  1  0
  9 21  1  0
  9 22  1  0
 10 23  1  0
 11 24  1  0
 12 25  1  0
 13 26  1  0
M  END
> <Uni-Dock RESULT> 
ENERGY=   -3.381  LOWER_BOUND=    6.173  UPPER_BOUND=    7.564
INTER + INTRA:          -3.381
INTER:                  -3.381
INTRA:                   0.000
UNBOUND:                 0.000

$$$$

     RDKit          3D

 26 27  0  0  0  0  0  0  0  0999 V2000
   46.8578    5.5391   13.2646 N   0  0  0  0  0  0  0  0  0  0  0  0
   46.6167    4.2115   13.4853 C   0  0  0  0  0  0  0  0  0  0  0  0
   45.6974    6.4301   13.0528 C   0  0  0  0  0  0  0  0  0  0  0  0
   46.0660    7.8483   12.6622 C   0  0  0  0  0  0  0  0  0  0  0  0
   47.1451    3.4435   14.3703 N   0  0  0  0  0  0  0  0  0  0  0  0
   48.0026    6.2057   13.8939 C   0  0  0  0  0  0  0  0  0  0  0  0
   47.3966    8.2976   12.6585 C   0  0  0  0  0  0  0  0  0  0  0  0
   48.5053    7.3438   13.0075 C   0  0  0  0  0  0  0  0  0  0  0  0
   45.7353    3.6470   12.6337 N   0  0  0  0  0  0  0  0  0  0  0  0
   45.0435    8.7469   12.3157 C   0  0  0  0  0  0  0  0  0  0  0  0
   47.6904    9.6146   12.2800 C   0  0  0  0  0  0  0  0  0  0  0  0
   45.3420   10.0609   11.9541 C   0  0  0  0  0  0  0  0  0  0  0  0
   46.6651   10.4932   11.9334 C   0  0  0  0  0  0  0  0  0  0  0  0
   45.0596    6.0309   12.2551 H   0  0  0  0  0  0  0  0  0  0  0  0
   45.1088    6.4683   13.9783 H   0  0  0  0  0  0  0  0  0  0  0  0
   47.7731    3.9788   14.9674 H   0  0  0  0  0  0  0  0  0  0  0  0
   48.8362    5.5067   14.0307 H   0  0  0  0  0  0  0  0  0  0  0  0
   47.7156    6.5764   14.8863 H   0  0  0  0  0  0  0  0  0  0  0  0
   48.9172    6.9382   12.0751 H   0  0  0  0  0  0  0  0  0  0  0  0
   49.3100    7.8730   13.5310 H   0  0  0  0  0  0  0  0  0  0  0  0
   45.7582    2.6396   12.7579 H   0  0  0  0  0  0  0  0  0  0  0  0
   45.9305    3.8935   11.6718 H   0  0  0  0  0  0  0  0  0  0  0  0
   44.0045    8.4233   12.3230 H   0  0  0  0  0  0  0  0  0  0  0  0
   48.7206    9.9625   12.2539 H   0  0  0  0  0  0  0  0  0  0  0  0
   44.5421   10.7458   11.6848 H   0  0  0  0  0  0  0  0  0  0  0  0
   46.8990   11.5148   11.6451 H   0  0  0  0  0  0  0  0  0  0  0  0
  2  1  1  0
  3  1  1  0
  4  3  1  0
  5  2  2  3
  6  1  1  0
  7  8  1  0
  8  6  1  0
  9  2  1  0
 10  4  2  0
 11  7  2  0
 12 10  1  0
 13 11  1  0
  4  7  1  0
 12 13  2  0
  3 14  1  0
  3 15  1  0
  5 16  1  0
  6 17  1  0
  6 18  1  0
  8 19  1  0
  8 20  1  0
  9 21  1  0
  9 22  1  0
 10 23  1  0
 11 24  1  0
 12 25  1  0
 13 26  1  0
M  END
> <Uni-Dock RESULT> 
ENERGY=   -3.316  LOWER_BOUND=    5.290  UPPER_BOUND=    6.934
INTER + INTRA:          -3.316
INTER:                  -3.316
INTRA:                   0.000
UNBOUND:                 0.000

$$$$
