
     RDKit          3D

 26 27  0  0  0  0  0  0  0  0999 V2000
   44.4672    3.4569   10.1669 N   0  0  0  0  0  0  0  0  0  0  0  0
   43.7052    3.4546   11.3022 C   0  0  0  0  0  0  0  0  0  0  0  0
   44.8457    2.1534    9.5815 C   0  0  0  0  0  0  0  0  0  0  0  0
   45.8160    2.2519    8.4202 C   0  0  0  0  0  0  0  0  0  0  0  0
   42.6743    4.1742   11.5697 N   0  0  0  0  0  0  0  0  0  0  0  0
   44.3265    4.5276    9.1743 C   0  0  0  0  0  0  0  0  0  0  0  0
   46.1895    3.4866    7.8649 C   0  0  0  0  0  0  0  0  0  0  0  0
   45.6544    4.7612    8.4560 C   0  0  0  0  0  0  0  0  0  0  0  0
   44.1259    2.6074   12.2645 N   0  0  0  0  0  0  0  0  0  0  0  0
   46.3395    1.0712    7.8681 C   0  0  0  0  0  0  0  0  0  0  0  0
   47.0980    3.5290    6.7984 C   0  0  0  0  0  0  0  0  0  0  0  0
   47.2320    1.1201    6.7969 C   0  0  0  0  0  0  0  0  0  0  0  0
   47.6132    2.3488    6.2647 C   0  0  0  0  0  0  0  0  0  0  0  0
   43.9372    1.6474    9.2310 H   0  0  0  0  0  0  0  0  0  0  0  0
   45.3182    1.5234   10.3446 H   0  0  0  0  0  0  0  0  0  0  0  0
   42.4362    4.7553   10.7677 H   0  0  0  0  0  0  0  0  0  0  0  0
   44.0451    5.4722    9.6545 H   0  0  0  0  0  0  0  0  0  0  0  0
   43.5329    4.2696    8.4615 H   0  0  0  0  0  0  0  0  0  0  0  0
   45.5060    5.5107    7.6700 H   0  0  0  0  0  0  0  0  0  0  0  0
   46.3977    5.1526    9.1614 H   0  0  0  0  0  0  0  0  0  0  0  0
   43.6167    2.8043   13.1205 H   0  0  0  0  0  0  0  0  0  0  0  0
   45.1237    2.6773   12.4177 H   0  0  0  0  0  0  0  0  0  0  0  0
   46.0547    0.1031    8.2754 H   0  0  0  0  0  0  0  0  0  0  0  0
   47.4083    4.4829    6.3781 H   0  0  0  0  0  0  0  0  0  0  0  0
   47.6328    0.1996    6.3805 H   0  0  0  0  0  0  0  0  0  0  0  0
   48.3139    2.3881    5.4347 H   0  0  0  0  0  0  0  0  0  0  0  0
  2  1  1  0
  3  1  1  0
  4  3  1  0
  5  2  2  3
  6  1  1  0
  7  8  1  0
  8  6  1  0
  9  2  1  0
 10  4  2  0
 11  7  2  0
 12 10  1  0
 13 11  1  0
  4  7  1  0
 12 13  2  0
  3 14  1  0
  3 15  1  0
  5 16  1  0
  6 17  1  0
  6 18  1  0
  8 19  1  0
  8 20  1  0
  9 21  1  0
  9 22  1  0
 10 23  1  0
 11 24  1  0
 12 25  1  0
 13 26  1  0
M  END
> <Uni-Dock RESULT> 
ENERGY=   -6.267  LOWER_BOUND=    0.000  UPPER_BOUND=    0.000
INTER + INTRA:          -6.267
INTER:                  -6.267
INTRA:                   0.000
UNBOUND:                 0.000

$$$$

     RDKit          3D

 26 27  0  0  0  0  0  0  0  0999 V2000
   45.6348    3.5403    8.3533 N   0  0  0  0  0  0  0  0  0  0  0  0
   46.3759    3.5608    7.2045 C   0  0  0  0  0  0  0  0  0  0  0  0
   45.2624    4.8344    8.9632 C   0  0  0  0  0  0  0  0  0  0  0  0
   44.5786    4.7122   10.3113 C   0  0  0  0  0  0  0  0  0  0  0  0
   46.2052    2.8681    6.1353 N   0  0  0  0  0  0  0  0  0  0  0  0
   44.6549    2.4753    8.5918 C   0  0  0  0  0  0  0  0  0  0  0  0
   44.2017    3.4689   10.8449 C   0  0  0  0  0  0  0  0  0  0  0  0
   44.5178    2.2080   10.0897 C   0  0  0  0  0  0  0  0  0  0  0  0
   47.4362    4.3951    7.2298 N   0  0  0  0  0  0  0  0  0  0  0  0
   44.2927    5.8796   11.0381 C   0  0  0  0  0  0  0  0  0  0  0  0
   43.5813    3.4044   12.1000 C   0  0  0  0  0  0  0  0  0  0  0  0
   43.6615    5.8089   12.2803 C   0  0  0  0  0  0  0  0  0  0  0  0
   43.3090    4.5715   12.8120 C   0  0  0  0  0  0  0  0  0  0  0  0
   44.5871    5.3646    8.2798 H   0  0  0  0  0  0  0  0  0  0  0  0
   46.1576    5.4504    9.1098 H   0  0  0  0  0  0  0  0  0  0  0  0
   45.3676    2.2948    6.2205 H   0  0  0  0  0  0  0  0  0  0  0  0
   44.9733    1.5376    8.1213 H   0  0  0  0  0  0  0  0  0  0  0  0
   43.6894    2.7552    8.1514 H   0  0  0  0  0  0  0  0  0  0  0  0
   43.7284    1.4638   10.2469 H   0  0  0  0  0  0  0  0  0  0  0  0
   45.4550    1.7960   10.4838 H   0  0  0  0  0  0  0  0  0  0  0  0
   48.0185    4.2103    6.4189 H   0  0  0  0  0  0  0  0  0  0  0  0
   47.9708    4.2987    8.0836 H   0  0  0  0  0  0  0  0  0  0  0  0
   44.5656    6.8542   10.6382 H   0  0  0  0  0  0  0  0  0  0  0  0
   43.3067    2.4434   12.5289 H   0  0  0  0  0  0  0  0  0  0  0  0
   43.4487    6.7193   12.8347 H   0  0  0  0  0  0  0  0  0  0  0  0
   42.8236    4.5151   13.7828 H   0  0  0  0  0  0  0  0  0  0  0  0
  2  1  1  0
  3  1  1  0
  4  3  1  0
  5  2  2  3
  6  1  1  0
  7  8  1  0
  8  6  1  0
  9  2  1  0
 10  4  2  0
 11  7  2  0
 12 10  1  0
 13 11  1  0
  4  7  1  0
 12 13  2  0
  3 14  1  0
  3 15  1  0
  5 16  1  0
  6 17  1  0
  6 18  1  0
  8 19  1  0
  8 20  1  0
  9 21  1  0
  9 22  1  0
 10 23  1  0
 11 24  1  0
 12 25  1  0
 13 26  1  0
M  END
> <Uni-Dock RESULT> 
ENERGY=   -4.001  LOWER_BOUND=    2.211  UPPER_BOUND=    5.318
INTER + INTRA:          -4.001
INTER:                  -4.001
INTRA:                   0.000
UNBOUND:                 0.000

$$$$

     RDKit          3D

 26 27  0  0  0  0  0  0  0  0999 V2000
   45.2252    6.7321   12.0142 N   0  0  0  0  0  0  0  0  0  0  0  0
   45.3979    8.0292   12.4106 C   0  0  0  0  0  0  0  0  0  0  0  0
   45.5131    6.3921   10.6047 C   0  0  0  0  0  0  0  0  0  0  0  0
   45.1453    4.9719   10.2203 C   0  0  0  0  0  0  0  0  0  0  0  0
   45.9700    8.4660   13.4756 N   0  0  0  0  0  0  0  0  0  0  0  0
   45.4701    5.6265   12.9465 C   0  0  0  0  0  0  0  0  0  0  0  0
   44.7156    4.0311   11.1704 C   0  0  0  0  0  0  0  0  0  0  0  0
   44.5682    4.4404   12.6095 C   0  0  0  0  0  0  0  0  0  0  0  0
   44.8625    8.9502   11.5825 N   0  0  0  0  0  0  0  0  0  0  0  0
   45.2599    4.5787    8.8768 C   0  0  0  0  0  0  0  0  0  0  0  0
   44.3764    2.7325   10.7666 C   0  0  0  0  0  0  0  0  0  0  0  0
   44.9346    3.2800    8.4842 C   0  0  0  0  0  0  0  0  0  0  0  0
   44.4901    2.3587    9.4286 C   0  0  0  0  0  0  0  0  0  0  0  0
   46.5855    6.5336   10.4200 H   0  0  0  0  0  0  0  0  0  0  0  0
   44.9573    7.0615    9.9372 H   0  0  0  0  0  0  0  0  0  0  0  0
   46.3542    7.6885   14.0098 H   0  0  0  0  0  0  0  0  0  0  0  0
   45.2437    5.9257   13.9768 H   0  0  0  0  0  0  0  0  0  0  0  0
   46.5287    5.3395   12.9105 H   0  0  0  0  0  0  0  0  0  0  0  0
   44.8214    3.6028   13.2698 H   0  0  0  0  0  0  0  0  0  0  0  0
   43.5187    4.7060   12.7865 H   0  0  0  0  0  0  0  0  0  0  0  0
   44.8810    9.8551   12.0423 H   0  0  0  0  0  0  0  0  0  0  0  0
   43.9191    8.7072   11.3087 H   0  0  0  0  0  0  0  0  0  0  0  0
   45.6019    5.2882    8.1258 H   0  0  0  0  0  0  0  0  0  0  0  0
   44.0220    2.0056   11.4938 H   0  0  0  0  0  0  0  0  0  0  0  0
   45.0243    2.9887    7.4409 H   0  0  0  0  0  0  0  0  0  0  0  0
   44.2298    1.3488    9.1224 H   0  0  0  0  0  0  0  0  0  0  0  0
  2  1  1  0
  3  1  1  0
  4  3  1  0
  5  2  2  3
  6  1  1  0
  7  8  1  0
  8  6  1  0
  9  2  1  0
 10  4  2  0
 11  7  2  0
 12 10  1  0
 13 11  1  0
  4  7  1  0
 12 13  2  0
  3 14  1  0
  3 15  1  0
  5 16  1  0
  6 17  1  0
  6 18  1  0
  8 19  1  0
  8 20  1  0
  9 21  1  0
  9 22  1  0
 10 23  1  0
 11 24  1  0
 12 25  1  0
 13 26  1  0
M  END
> <Uni-Dock RESULT> 
ENERGY=   -3.978  LOWER_BOUND=    3.107  UPPER_BOUND=    4.506
INTER + INTRA:          -3.978
INTER:                  -3.978
INTRA:                   0.000
UNBOUND:                 0.000

$$$$

     RDKit          3D

 26 27  0  0  0  0  0  0  0  0999 V2000
   45.2169    6.6814   11.9758 N   0  0  0  0  0  0  0  0  0  0  0  0
   45.3803    7.9756   12.3856 C   0  0  0  0  0  0  0  0  0  0  0  0
   45.5194    6.3555   10.5660 C   0  0  0  0  0  0  0  0  0  0  0  0
   45.1614    4.9374   10.1654 C   0  0  0  0  0  0  0  0  0  0  0  0
   45.9406    8.4050   13.4599 N   0  0  0  0  0  0  0  0  0  0  0  0
   45.4578    5.5684   12.9003 C   0  0  0  0  0  0  0  0  0  0  0  0
   44.7268    3.9862   11.1028 C   0  0  0  0  0  0  0  0  0  0  0  0
   44.5642    4.3817   12.5441 C   0  0  0  0  0  0  0  0  0  0  0  0
   44.8488    8.9018   11.5609 N   0  0  0  0  0  0  0  0  0  0  0  0
   45.2903    4.5569    8.8195 C   0  0  0  0  0  0  0  0  0  0  0  0
   44.3970    2.6899   10.6841 C   0  0  0  0  0  0  0  0  0  0  0  0
   44.9742    3.2605    8.4121 C   0  0  0  0  0  0  0  0  0  0  0  0
   44.5248    2.3288    9.3438 C   0  0  0  0  0  0  0  0  0  0  0  0
   46.5929    6.5032   10.3928 H   0  0  0  0  0  0  0  0  0  0  0  0
   44.9671    7.0286    9.8995 H   0  0  0  0  0  0  0  0  0  0  0  0
   46.3231    7.6243   13.9906 H   0  0  0  0  0  0  0  0  0  0  0  0
   45.2205    5.8572   13.9311 H   0  0  0  0  0  0  0  0  0  0  0  0
   46.5180    5.2862   12.8716 H   0  0  0  0  0  0  0  0  0  0  0  0
   44.8148    3.5392   13.1991 H   0  0  0  0  0  0  0  0  0  0  0  0
   43.5119    4.6412   12.7136 H   0  0  0  0  0  0  0  0  0  0  0  0
   44.8591    9.8026   12.0291 H   0  0  0  0  0  0  0  0  0  0  0  0
   43.9090    8.6574   11.2761 H   0  0  0  0  0  0  0  0  0  0  0  0
   45.6362    5.2747    8.0782 H   0  0  0  0  0  0  0  0  0  0  0  0
   44.0389    1.9548   11.4012 H   0  0  0  0  0  0  0  0  0  0  0  0
   45.0748    2.9792    7.3670 H   0  0  0  0  0  0  0  0  0  0  0  0
   44.2717    1.3206    9.0260 H   0  0  0  0  0  0  0  0  0  0  0  0
  2  1  1  0
  3  1  1  0
  4  3  1  0
  5  2  2  3
  6  1  1  0
  7  8  1  0
  8  6  1  0
  9  2  1  0
 10  4  2  0
 11  7  2  0
 12 10  1  0
 13 11  1  0
  4  7  1  0
 12 13  2  0
  3 14  1  0
  3 15  1  0
  5 16  1  0
  6 17  1  0
  6 18  1  0
  8 19  1  0
  8 20  1  0
  9 21  1  0
  9 22  1  0
 10 23  1  0
 11 24  1  0
 12 25  1  0
 13 26  1  0
M  END
> <Uni-Dock RESULT> 
ENERGY=   -3.977  LOWER_BOUND=    3.067  UPPER_BOUND=    4.446
INTER + INTRA:          -3.977
INTER:                  -3.977
INTRA:                   0.000
UNBOUND:                 0.000

$$$$

     RDKit          3D

 26 27  0  0  0  0  0  0  0  0999 V2000
   44.2628    6.3536   12.4332 N   0  0  0  0  0  0  0  0  0  0  0  0
   43.1572    5.5492   12.4222 C   0  0  0  0  0  0  0  0  0  0  0  0
   45.5787    5.7228   12.6696 C   0  0  0  0  0  0  0  0  0  0  0  0
   46.7221    6.7077   12.8196 C   0  0  0  0  0  0  0  0  0  0  0  0
   42.1800    5.5518   11.5871 N   0  0  0  0  0  0  0  0  0  0  0  0
   44.3281    7.5464   11.5821 C   0  0  0  0  0  0  0  0  0  0  0  0
   46.5532    8.0840   12.5963 C   0  0  0  0  0  0  0  0  0  0  0  0
   45.1943    8.6192   12.2399 C   0  0  0  0  0  0  0  0  0  0  0  0
   43.0851    4.6722   13.4451 N   0  0  0  0  0  0  0  0  0  0  0  0
   47.9941    6.2262   13.1701 C   0  0  0  0  0  0  0  0  0  0  0  0
   47.6371    8.9579   12.7573 C   0  0  0  0  0  0  0  0  0  0  0  0
   49.0720    7.1001   13.3143 C   0  0  0  0  0  0  0  0  0  0  0  0
   48.8924    8.4656   13.1109 C   0  0  0  0  0  0  0  0  0  0  0  0
   45.8055    5.0552   11.8288 H   0  0  0  0  0  0  0  0  0  0  0  0
   45.5467    5.1229   13.5870 H   0  0  0  0  0  0  0  0  0  0  0  0
   42.3519    6.2336   10.8502 H   0  0  0  0  0  0  0  0  0  0  0  0
   43.3308    7.9777   11.4352 H   0  0  0  0  0  0  0  0  0  0  0  0
   44.7199    7.2748   10.5936 H   0  0  0  0  0  0  0  0  0  0  0  0
   45.2893    9.4688   11.5538 H   0  0  0  0  0  0  0  0  0  0  0  0
   44.7133    8.9775   13.1583 H   0  0  0  0  0  0  0  0  0  0  0  0
   42.1604    4.2532   13.4534 H   0  0  0  0  0  0  0  0  0  0  0  0
   43.2863    5.1128   14.3336 H   0  0  0  0  0  0  0  0  0  0  0  0
   48.1500    5.1621   13.3367 H   0  0  0  0  0  0  0  0  0  0  0  0
   47.5081   10.0274   12.6073 H   0  0  0  0  0  0  0  0  0  0  0  0
   50.0508    6.7156   13.5892 H   0  0  0  0  0  0  0  0  0  0  0  0
   49.7300    9.1479   13.2298 H   0  0  0  0  0  0  0  0  0  0  0  0
  2  1  1  0
  3  1  1  0
  4  3  1  0
  5  2  2  3
  6  1  1  0
  7  8  1  0
  8  6  1  0
  9  2  1  0
 10  4  2  0
 11  7  2  0
 12 10  1  0
 13 11  1  0
  4  7  1  0
 12 13  2  0
  3 14  1  0
  3 15  1  0
  5 16  1  0
  6 17  1  0
  6 18  1  0
  8 19  1  0
  8 20  1  0
  9 21  1  0
  9 22  1  0
 10 23  1  0
 11 24  1  0
 12 25  1  0
 13 26  1  0
M  END
> <Uni-Dock RESULT> 
ENERGY=   -3.714  LOWER_BOUND=    5.122  UPPER_BOUND=    6.009
INTER + INTRA:          -3.714
INTER:                  -3.714
INTRA:                   0.000
UNBOUND:                 0.000

$$$$

     RDKit          3D

 26 27  0  0  0  0  0  0  0  0999 V2000
   49.0710    3.6369   17.4412 N   0  0  0  0  0  0  0  0  0  0  0  0
   47.7311    3.7496   17.1936 C   0  0  0  0  0  0  0  0  0  0  0  0
   49.7236    2.3414   17.1567 C   0  0  0  0  0  0  0  0  0  0  0  0
   51.1697    2.2618   17.6068 C   0  0  0  0  0  0  0  0  0  0  0  0
   47.1082    4.7103   16.6093 N   0  0  0  0  0  0  0  0  0  0  0  0
   49.9612    4.7911   17.2773 C   0  0  0  0  0  0  0  0  0  0  0  0
   51.8565    3.3805   18.1062 C   0  0  0  0  0  0  0  0  0  0  0  0
   51.1380    4.6937   18.2466 C   0  0  0  0  0  0  0  0  0  0  0  0
   46.9815    2.7292   17.6601 N   0  0  0  0  0  0  0  0  0  0  0  0
   51.8499    1.0377   17.4994 C   0  0  0  0  0  0  0  0  0  0  0  0
   53.1899    3.2566   18.5200 C   0  0  0  0  0  0  0  0  0  0  0  0
   53.1817    0.9251   17.8995 C   0  0  0  0  0  0  0  0  0  0  0  0
   53.8500    2.0335   18.4124 C   0  0  0  0  0  0  0  0  0  0  0  0
   49.6875    2.1586   16.0753 H   0  0  0  0  0  0  0  0  0  0  0  0
   49.1834    1.5315   17.6613 H   0  0  0  0  0  0  0  0  0  0  0  0
   47.7727    5.4089   16.2809 H   0  0  0  0  0  0  0  0  0  0  0  0
   49.4339    5.7268   17.4980 H   0  0  0  0  0  0  0  0  0  0  0  0
   50.3099    4.8451   16.2381 H   0  0  0  0  0  0  0  0  0  0  0  0
   51.8263    5.5249   18.0543 H   0  0  0  0  0  0  0  0  0  0  0  0
   50.7804    4.7821   19.2798 H   0  0  0  0  0  0  0  0  0  0  0  0
   46.0012    2.9841   17.5915 H   0  0  0  0  0  0  0  0  0  0  0  0
   47.2231    2.4897   18.6132 H   0  0  0  0  0  0  0  0  0  0  0  0
   51.3405    0.1609   17.1044 H   0  0  0  0  0  0  0  0  0  0  0  0
   53.7208    4.1135   18.9281 H   0  0  0  0  0  0  0  0  0  0  0  0
   53.6963   -0.0285   17.8146 H   0  0  0  0  0  0  0  0  0  0  0  0
   54.8854    1.9450   18.7308 H   0  0  0  0  0  0  0  0  0  0  0  0
  2  1  1  0
  3  1  1  0
  4  3  1  0
  5  2  2  3
  6  1  1  0
  7  8  1  0
  8  6  1  0
  9  2  1  0
 10  4  2  0
 11  7  2  0
 12 10  1  0
 13 11  1  0
  4  7  1  0
 12 13  2  0
  3 14  1  0
  3 15  1  0
  5 16  1  0
  6 17  1  0
  6 18  1  0
  8 19  1  0
  8 20  1  0
  9 21  1  0
  9 22  1  0
 10 23  1  0
 11 24  1  0
 12 25  1  0
 13 26  1  0
M  END
> <Uni-Dock RESULT> 
ENERGY=   -3.704  LOWER_BOUND=    9.542  UPPER_BOUND=   10.398
INTER + INTRA:          -3.704
INTER:                  -3.704
INTRA:                   0.000
UNBOUND:                 0.000

$$$$

     RDKit          3D

 26 27  0  0  0  0  0  0  0  0999 V2000
   44.7855    4.5934   12.2279 N   0  0  0  0  0  0  0  0  0  0  0  0
   44.0171    3.5492   11.7935 C   0  0  0  0  0  0  0  0  0  0  0  0
   44.2984    5.9662   11.9768 C   0  0  0  0  0  0  0  0  0  0  0  0
   45.2857    7.0544   12.3522 C   0  0  0  0  0  0  0  0  0  0  0  0
   43.7073    2.4731   12.4245 N   0  0  0  0  0  0  0  0  0  0  0  0
   45.5937    4.4708   13.4458 C   0  0  0  0  0  0  0  0  0  0  0  0
   46.4877    6.7706   13.0210 C   0  0  0  0  0  0  0  0  0  0  0  0
   46.8420    5.3455   13.3429 C   0  0  0  0  0  0  0  0  0  0  0  0
   43.5652    3.6673   10.5276 N   0  0  0  0  0  0  0  0  0  0  0  0
   44.9783    8.3894   12.0421 C   0  0  0  0  0  0  0  0  0  0  0  0
   47.3747    7.8084   13.3383 C   0  0  0  0  0  0  0  0  0  0  0  0
   45.8591    9.4191   12.3742 C   0  0  0  0  0  0  0  0  0  0  0  0
   47.0580    9.1279   13.0191 C   0  0  0  0  0  0  0  0  0  0  0  0
   43.3762    6.1233   12.5505 H   0  0  0  0  0  0  0  0  0  0  0  0
   44.0677    6.0927   10.9123 H   0  0  0  0  0  0  0  0  0  0  0  0
   44.0810    2.5035   13.3716 H   0  0  0  0  0  0  0  0  0  0  0  0
   45.9309    3.4374   13.5896 H   0  0  0  0  0  0  0  0  0  0  0  0
   44.9902    4.7465   14.3199 H   0  0  0  0  0  0  0  0  0  0  0  0
   47.3896    5.2958   14.2912 H   0  0  0  0  0  0  0  0  0  0  0  0
   47.5003    4.9668   12.5513 H   0  0  0  0  0  0  0  0  0  0  0  0
   43.1656    2.7802   10.2377 H   0  0  0  0  0  0  0  0  0  0  0  0
   44.2980    3.9545    9.8915 H   0  0  0  0  0  0  0  0  0  0  0  0
   44.0471    8.6332   11.5344 H   0  0  0  0  0  0  0  0  0  0  0  0
   48.3172    7.5931   13.8365 H   0  0  0  0  0  0  0  0  0  0  0  0
   45.6114   10.4479   12.1259 H   0  0  0  0  0  0  0  0  0  0  0  0
   47.7480    9.9288   13.2719 H   0  0  0  0  0  0  0  0  0  0  0  0
  2  1  1  0
  3  1  1  0
  4  3  1  0
  5  2  2  3
  6  1  1  0
  7  8  1  0
  8  6  1  0
  9  2  1  0
 10  4  2  0
 11  7  2  0
 12 10  1  0
 13 11  1  0
  4  7  1  0
 12 13  2  0
  3 14  1  0
  3 15  1  0
  5 16  1  0
  6 17  1  0
  6 18  1  0
  8 19  1  0
  8 20  1  0
  9 21  1  0
  9 22  1  0
 10 23  1  0
 11 24  1  0
 12 25  1  0
 13 26  1  0
M  END
> <Uni-Dock RESULT> 
ENERGY=   -3.530  LOWER_BOUND=    4.099  UPPER_BOUND=    6.109
INTER + INTRA:          -3.530
INTER:                  -3.530
INTRA:                   0.000
UNBOUND:                 0.000

$$$$

     RDKit          3D

 26 27  0  0  0  0  0  0  0  0999 V2000
   47.1322    7.3161   12.9560 N   0  0  0  0  0  0  0  0  0  0  0  0
   48.3950    7.7093   13.3029 C   0  0  0  0  0  0  0  0  0  0  0  0
   46.7100    5.9442   13.3093 C   0  0  0  0  0  0  0  0  0  0  0  0
   45.3578    5.5465   12.7496 C   0  0  0  0  0  0  0  0  0  0  0  0
   48.7634    8.8169   13.8412 N   0  0  0  0  0  0  0  0  0  0  0  0
   46.0286    8.2820   12.9318 C   0  0  0  0  0  0  0  0  0  0  0  0
   44.5266    6.4651   12.0880 C   0  0  0  0  0  0  0  0  0  0  0  0
   44.9953    7.8786   11.8814 C   0  0  0  0  0  0  0  0  0  0  0  0
   49.3665    6.8226   13.0022 N   0  0  0  0  0  0  0  0  0  0  0  0
   44.9130    4.2249   12.9180 C   0  0  0  0  0  0  0  0  0  0  0  0
   43.2892    6.0491   11.5779 C   0  0  0  0  0  0  0  0  0  0  0  0
   43.6736    3.8213   12.4206 C   0  0  0  0  0  0  0  0  0  0  0  0
   42.8639    4.7326   11.7482 C   0  0  0  0  0  0  0  0  0  0  0  0
   46.6705    5.8582   14.4026 H   0  0  0  0  0  0  0  0  0  0  0  0
   47.4413    5.2189   12.9329 H   0  0  0  0  0  0  0  0  0  0  0  0
   47.9495    9.3950   14.0433 H   0  0  0  0  0  0  0  0  0  0  0  0
   46.3898    9.2826   12.6661 H   0  0  0  0  0  0  0  0  0  0  0  0
   45.5729    8.3485   13.9279 H   0  0  0  0  0  0  0  0  0  0  0  0
   44.1469    8.5709   11.9336 H   0  0  0  0  0  0  0  0  0  0  0  0
   45.4324    7.9536   10.8781 H   0  0  0  0  0  0  0  0  0  0  0  0
   50.2692    7.2698   13.1276 H   0  0  0  0  0  0  0  0  0  0  0  0
   49.2719    6.4655   12.0601 H   0  0  0  0  0  0  0  0  0  0  0  0
   45.5360    3.4995   13.4376 H   0  0  0  0  0  0  0  0  0  0  0  0
   42.6503    6.7499   11.0454 H   0  0  0  0  0  0  0  0  0  0  0  0
   43.3420    2.7949   12.5543 H   0  0  0  0  0  0  0  0  0  0  0  0
   41.9012    4.4172   11.3542 H   0  0  0  0  0  0  0  0  0  0  0  0
  2  1  1  0
  3  1  1  0
  4  3  1  0
  5  2  2  3
  6  1  1  0
  7  8  1  0
  8  6  1  0
  9  2  1  0
 10  4  2  0
 11  7  2  0
 12 10  1  0
 13 11  1  0
  4  7  1  0
 12 13  2  0
  3 14  1  0
  3 15  1  0
  5 16  1  0
  6 17  1  0
  6 18  1  0
  8 19  1  0
  8 20  1  0
  9 21  1  0
  9 22  1  0
 10 23  1  0
 11 24  1  0
 12 25  1  0
 13 26  1  0
M  END
> <Uni-Dock RESULT> 
ENERGY=   -3.426  LOWER_BOUND=    5.316  UPPER_BOUND=    6.316
INTER + INTRA:          -3.426
INTER:                  -3.426
INTRA:                   0.000
UNBOUND:                 0.000

$$$$

     RDKit          3D

 26 27  0  0  0  0  0  0  0  0999 V2000
   46.5052    5.6701   13.5444 N   0  0  0  0  0  0  0  0  0  0  0  0
   46.9957    4.5644   14.1817 C   0  0  0  0  0  0  0  0  0  0  0  0
   47.3801    6.8570   13.4395 C   0  0  0  0  0  0  0  0  0  0  0  0
   46.6996    8.0814   12.8585 C   0  0  0  0  0  0  0  0  0  0  0  0
   46.9216    3.3353   13.8127 N   0  0  0  0  0  0  0  0  0  0  0  0
   45.5649    5.5334   12.4269 C   0  0  0  0  0  0  0  0  0  0  0  0
   45.3997    8.0298   12.3292 C   0  0  0  0  0  0  0  0  0  0  0  0
   44.6291    6.7396   12.3721 C   0  0  0  0  0  0  0  0  0  0  0  0
   47.6001    4.8130   15.3622 N   0  0  0  0  0  0  0  0  0  0  0  0
   47.3990    9.2990   12.8276 C   0  0  0  0  0  0  0  0  0  0  0  0
   44.8072    9.1900   11.8121 C   0  0  0  0  0  0  0  0  0  0  0  0
   46.8086   10.4468   12.2979 C   0  0  0  0  0  0  0  0  0  0  0  0
   45.5122   10.3925   11.7934 C   0  0  0  0  0  0  0  0  0  0  0  0
   48.2400    6.6060   12.8057 H   0  0  0  0  0  0  0  0  0  0  0  0
   47.7534    7.1356   14.4322 H   0  0  0  0  0  0  0  0  0  0  0  0
   46.4685    3.2704   12.9028 H   0  0  0  0  0  0  0  0  0  0  0  0
   44.9396    4.6410   12.5484 H   0  0  0  0  0  0  0  0  0  0  0  0
   46.1206    5.4225   11.4870 H   0  0  0  0  0  0  0  0  0  0  0  0
   43.9876    6.6515   11.4876 H   0  0  0  0  0  0  0  0  0  0  0  0
   43.9834    6.7531   13.2588 H   0  0  0  0  0  0  0  0  0  0  0  0
   47.7665    3.9316   15.8377 H   0  0  0  0  0  0  0  0  0  0  0  0
   47.0515    5.4346   15.9424 H   0  0  0  0  0  0  0  0  0  0  0  0
   48.4116    9.3590   13.2219 H   0  0  0  0  0  0  0  0  0  0  0  0
   43.7929    9.1619   11.4208 H   0  0  0  0  0  0  0  0  0  0  0  0
   47.3589   11.3840   12.2828 H   0  0  0  0  0  0  0  0  0  0  0  0
   45.0489   11.2878   11.3870 H   0  0  0  0  0  0  0  0  0  0  0  0
  2  1  1  0
  3  1  1  0
  4  3  1  0
  5  2  2  3
  6  1  1  0
  7  8  1  0
  8  6  1  0
  9  2  1  0
 10  4  2  0
 11  7  2  0
 12 10  1  0
 13 11  1  0
  4  7  1  0
 12 13  2  0
  3 14  1  0
  3 15  1  0
  5 16  1  0
  6 17  1  0
  6 18  1  0
  8 19  1  0
  8 20  1  0
  9 21  1  0
  9 22  1  0
 10 23  1  0
 11 24  1  0
 12 25  1  0
 13 26  1  0
M  END
> <Uni-Dock RESULT> 
ENERGY=   -3.402  LOWER_BOUND=    5.169  UPPER_BOUND=    6.998
INTER + INTRA:          -3.402
INTER:                  -3.402
INTRA:                   0.000
UNBOUND:                 0.000

$$$$
