
     RDKit          3D

 26 27  0  0  0  0  0  0  0  0999 V2000
   44.3995    3.1654   10.0679 N   0  0  0  0  0  0  0  0  0  0  0  0
   43.7201    3.1030   11.2508 C   0  0  0  0  0  0  0  0  0  0  0  0
   44.8282    1.9363    9.3882 C   0  0  0  0  0  0  0  0  0  0  0  0
   45.8558    2.1736    8.2989 C   0  0  0  0  0  0  0  0  0  0  0  0
   43.2279    2.0656   11.8293 N   0  0  0  0  0  0  0  0  0  0  0  0
   44.1935    4.2933    9.1450 C   0  0  0  0  0  0  0  0  0  0  0  0
   46.1707    3.4668    7.8448 C   0  0  0  0  0  0  0  0  0  0  0  0
   45.5184    4.6656    8.4817 C   0  0  0  0  0  0  0  0  0  0  0  0
   43.6003    4.2763   11.9063 N   0  0  0  0  0  0  0  0  0  0  0  0
   46.4888    1.0700    7.7044 C   0  0  0  0  0  0  0  0  0  0  0  0
   47.1291    3.6402    6.8369 C   0  0  0  0  0  0  0  0  0  0  0  0
   47.4318    1.2505    6.6921 C   0  0  0  0  0  0  0  0  0  0  0  0
   47.7534    2.5347    6.2610 C   0  0  0  0  0  0  0  0  0  0  0  0
   43.9545    1.4433    8.9444 H   0  0  0  0  0  0  0  0  0  0  0  0
   45.2761    1.2573   10.1246 H   0  0  0  0  0  0  0  0  0  0  0  0
   43.3656    1.2389   11.2512 H   0  0  0  0  0  0  0  0  0  0  0  0
   43.4495    4.0083    8.3894 H   0  0  0  0  0  0  0  0  0  0  0  0
   43.7993    5.1827    9.6486 H   0  0  0  0  0  0  0  0  0  0  0  0
   45.3339    5.4400    7.7281 H   0  0  0  0  0  0  0  0  0  0  0  0
   46.2077    5.0763    9.2299 H   0  0  0  0  0  0  0  0  0  0  0  0
   44.4794    4.7743   11.9501 H   0  0  0  0  0  0  0  0  0  0  0  0
   43.2448    4.0943   12.8396 H   0  0  0  0  0  0  0  0  0  0  0  0
   46.2523    0.0596    8.0319 H   0  0  0  0  0  0  0  0  0  0  0  0
   47.3936    4.6384    6.4956 H   0  0  0  0  0  0  0  0  0  0  0  0
   47.9186    0.3890    6.2425 H   0  0  0  0  0  0  0  0  0  0  0  0
   48.4929    2.6758    5.4771 H   0  0  0  0  0  0  0  0  0  0  0  0
  2  1  1  0
  3  1  1  0
  4  3  1  0
  5  2  2  3
  6  1  1  0
  7  8  1  0
  8  6  1  0
  9  2  1  0
 10  4  2  0
 11  7  2  0
 12 10  1  0
 13 11  1  0
  4  7  1  0
 12 13  2  0
  3 14  1  0
  3 15  1  0
  5 16  1  0
  6 17  1  0
  6 18  1  0
  8 19  1  0
  8 20  1  0
  9 21  1  0
  9 22  1  0
 10 23  1  0
 11 24  1  0
 12 25  1  0
 13 26  1  0
M  END
> <Uni-Dock RESULT> 
ENERGY=   -6.424  LOWER_BOUND=    0.000  UPPER_BOUND=    0.000
INTER + INTRA:          -6.424
INTER:                  -6.424
INTRA:                   0.000
UNBOUND:                 0.000

$$$$

     RDKit          3D

 26 27  0  0  0  0  0  0  0  0999 V2000
   45.6241    3.3295    8.4517 N   0  0  0  0  0  0  0  0  0  0  0  0
   46.4866    3.1443    7.4094 C   0  0  0  0  0  0  0  0  0  0  0  0
   45.2678    4.6839    8.8935 C   0  0  0  0  0  0  0  0  0  0  0  0
   44.5991    4.7209   10.2538 C   0  0  0  0  0  0  0  0  0  0  0  0
   46.9513    4.0267    6.5978 N   0  0  0  0  0  0  0  0  0  0  0  0
   44.5812    2.3336    8.7464 C   0  0  0  0  0  0  0  0  0  0  0  0
   44.1611    3.5497   10.8975 C   0  0  0  0  0  0  0  0  0  0  0  0
   44.4009    2.2073   10.2581 C   0  0  0  0  0  0  0  0  0  0  0  0
   46.9361    1.8816    7.2540 N   0  0  0  0  0  0  0  0  0  0  0  0
   44.3825    5.9614   10.8753 C   0  0  0  0  0  0  0  0  0  0  0  0
   43.5497    3.6302   12.1561 C   0  0  0  0  0  0  0  0  0  0  0  0
   43.7607    6.0338   12.1222 C   0  0  0  0  0  0  0  0  0  0  0  0
   43.3474    4.8689   12.7629 C   0  0  0  0  0  0  0  0  0  0  0  0
   44.5928    5.1397    8.1587 H   0  0  0  0  0  0  0  0  0  0  0  0
   46.1791    5.2919    8.9552 H   0  0  0  0  0  0  0  0  0  0  0  0
   46.5457    4.9392    6.7963 H   0  0  0  0  0  0  0  0  0  0  0  0
   43.6422    2.6444    8.2695 H   0  0  0  0  0  0  0  0  0  0  0  0
   44.8199    1.3427    8.3447 H   0  0  0  0  0  0  0  0  0  0  0  0
   43.5581    1.5365   10.4613 H   0  0  0  0  0  0  0  0  0  0  0  0
   45.3009    1.7681   10.7058 H   0  0  0  0  0  0  0  0  0  0  0  0
   47.2409    1.4802    8.1307 H   0  0  0  0  0  0  0  0  0  0  0  0
   47.6942    1.8856    6.5788 H   0  0  0  0  0  0  0  0  0  0  0  0
   44.7026    6.8815   10.3905 H   0  0  0  0  0  0  0  0  0  0  0  0
   43.2278    2.7271   12.6697 H   0  0  0  0  0  0  0  0  0  0  0  0
   43.6024    6.9993   12.5956 H   0  0  0  0  0  0  0  0  0  0  0  0
   42.8692    4.9247   13.7373 H   0  0  0  0  0  0  0  0  0  0  0  0
  2  1  1  0
  3  1  1  0
  4  3  1  0
  5  2  2  3
  6  1  1  0
  7  8  1  0
  8  6  1  0
  9  2  1  0
 10  4  2  0
 11  7  2  0
 12 10  1  0
 13 11  1  0
  4  7  1  0
 12 13  2  0
  3 14  1  0
  3 15  1  0
  5 16  1  0
  6 17  1  0
  6 18  1  0
  8 19  1  0
  8 20  1  0
  9 21  1  0
  9 22  1  0
 10 23  1  0
 11 24  1  0
 12 25  1  0
 13 26  1  0
M  END
> <Uni-Dock RESULT> 
ENERGY=   -4.223  LOWER_BOUND=    2.247  UPPER_BOUND=    5.338
INTER + INTRA:          -4.223
INTER:                  -4.223
INTRA:                   0.000
UNBOUND:                 0.000

$$$$

     RDKit          3D

 26 27  0  0  0  0  0  0  0  0999 V2000
   48.9662    3.8626   17.6384 N   0  0  0  0  0  0  0  0  0  0  0  0
   47.6139    4.0505   17.6638 C   0  0  0  0  0  0  0  0  0  0  0  0
   49.5317    2.5640   17.2509 C   0  0  0  0  0  0  0  0  0  0  0  0
   50.9972    2.4106   17.6085 C   0  0  0  0  0  0  0  0  0  0  0  0
   46.6953    3.2645   17.2260 N   0  0  0  0  0  0  0  0  0  0  0  0
   49.8736    4.9901   17.3708 C   0  0  0  0  0  0  0  0  0  0  0  0
   51.7717    3.4994   18.0474 C   0  0  0  0  0  0  0  0  0  0  0  0
   51.1334    4.8520   18.2239 C   0  0  0  0  0  0  0  0  0  0  0  0
   47.2033    5.1839   18.2699 N   0  0  0  0  0  0  0  0  0  0  0  0
   51.6070    1.1535   17.4681 C   0  0  0  0  0  0  0  0  0  0  0  0
   53.1228    3.3117   18.3696 C   0  0  0  0  0  0  0  0  0  0  0  0
   52.9560    0.9782   17.7780 C   0  0  0  0  0  0  0  0  0  0  0  0
   53.7121    2.0560   18.2310 C   0  0  0  0  0  0  0  0  0  0  0  0
   49.4190    2.4275   16.1683 H   0  0  0  0  0  0  0  0  0  0  0  0
   48.9800    1.7658   17.7631 H   0  0  0  0  0  0  0  0  0  0  0  0
   47.1101    2.4467   16.7836 H   0  0  0  0  0  0  0  0  0  0  0  0
   50.1291    5.0004   16.3028 H   0  0  0  0  0  0  0  0  0  0  0  0
   49.4151    5.9607   17.5894 H   0  0  0  0  0  0  0  0  0  0  0  0
   51.8403    5.6423   17.9455 H   0  0  0  0  0  0  0  0  0  0  0  0
   50.8817    4.9787   19.2841 H   0  0  0  0  0  0  0  0  0  0  0  0
   47.6658    5.3243   19.1582 H   0  0  0  0  0  0  0  0  0  0  0  0
   46.1964    5.1423   18.3928 H   0  0  0  0  0  0  0  0  0  0  0  0
   51.0299    0.2996   17.1191 H   0  0  0  0  0  0  0  0  0  0  0  0
   53.7227    4.1442   18.7303 H   0  0  0  0  0  0  0  0  0  0  0  0
   53.4161   -0.0005   17.6697 H   0  0  0  0  0  0  0  0  0  0  0  0
   54.7613    1.9180   18.4788 H   0  0  0  0  0  0  0  0  0  0  0  0
  2  1  1  0
  3  1  1  0
  4  3  1  0
  5  2  2  3
  6  1  1  0
  7  8  1  0
  8  6  1  0
  9  2  1  0
 10  4  2  0
 11  7  2  0
 12 10  1  0
 13 11  1  0
  4  7  1  0
 12 13  2  0
  3 14  1  0
  3 15  1  0
  5 16  1  0
  6 17  1  0
  6 18  1  0
  8 19  1  0
  8 20  1  0
  9 21  1  0
  9 22  1  0
 10 23  1  0
 11 24  1  0
 12 25  1  0
 13 26  1  0
M  END
> <Uni-Dock RESULT> 
ENERGY=   -3.750  LOWER_BOUND=    9.602  UPPER_BOUND=   10.435
INTER + INTRA:          -3.750
INTER:                  -3.750
INTRA:                   0.000
UNBOUND:                 0.000

$$$$

     RDKit          3D

 26 27  0  0  0  0  0  0  0  0999 V2000
   44.2976    6.0655   12.1989 N   0  0  0  0  0  0  0  0  0  0  0  0
   43.1955    5.2886   11.9831 C   0  0  0  0  0  0  0  0  0  0  0  0
   45.5465    5.4687   12.6893 C   0  0  0  0  0  0  0  0  0  0  0  0
   46.5428    6.4881   13.2061 C   0  0  0  0  0  0  0  0  0  0  0  0
   43.1145    4.0054   11.9961 N   0  0  0  0  0  0  0  0  0  0  0  0
   44.5132    7.2928   11.4157 C   0  0  0  0  0  0  0  0  0  0  0  0
   46.3637    7.8685   13.0053 C   0  0  0  0  0  0  0  0  0  0  0  0
   45.1283    8.3713   12.3058 C   0  0  0  0  0  0  0  0  0  0  0  0
   42.0465    5.9663   11.7801 N   0  0  0  0  0  0  0  0  0  0  0  0
   47.6926    6.0408   13.8768 C   0  0  0  0  0  0  0  0  0  0  0  0
   47.3090    8.7760   13.5025 C   0  0  0  0  0  0  0  0  0  0  0  0
   48.6356    6.9502   14.3567 C   0  0  0  0  0  0  0  0  0  0  0  0
   48.4423    8.3166   14.1720 C   0  0  0  0  0  0  0  0  0  0  0  0
   46.0178    4.8970   11.8803 H   0  0  0  0  0  0  0  0  0  0  0  0
   45.3161    4.7824   13.5138 H   0  0  0  0  0  0  0  0  0  0  0  0
   44.0330    3.5940   12.1497 H   0  0  0  0  0  0  0  0  0  0  0  0
   45.1743    7.0672   10.5685 H   0  0  0  0  0  0  0  0  0  0  0  0
   43.5851    7.6880   10.9883 H   0  0  0  0  0  0  0  0  0  0  0  0
   45.3722    9.2448   11.6900 H   0  0  0  0  0  0  0  0  0  0  0  0
   44.4038    8.6840   13.0679 H   0  0  0  0  0  0  0  0  0  0  0  0
   41.9178    6.7014   12.4625 H   0  0  0  0  0  0  0  0  0  0  0  0
   41.2715    5.3112   11.8086 H   0  0  0  0  0  0  0  0  0  0  0  0
   47.8576    4.9768   14.0334 H   0  0  0  0  0  0  0  0  0  0  0  0
   47.1665    9.8461   13.3700 H   0  0  0  0  0  0  0  0  0  0  0  0
   49.5196    6.5926   14.8784 H   0  0  0  0  0  0  0  0  0  0  0  0
   49.1735    9.0254   14.5517 H   0  0  0  0  0  0  0  0  0  0  0  0
  2  1  1  0
  3  1  1  0
  4  3  1  0
  5  2  2  3
  6  1  1  0
  7  8  1  0
  8  6  1  0
  9  2  1  0
 10  4  2  0
 11  7  2  0
 12 10  1  0
 13 11  1  0
  4  7  1  0
 12 13  2  0
  3 14  1  0
  3 15  1  0
  5 16  1  0
  6 17  1  0
  6 18  1  0
  8 19  1  0
  8 20  1  0
  9 21  1  0
  9 22  1  0
 10 23  1  0
 11 24  1  0
 12 25  1  0
 13 26  1  0
M  END
> <Uni-Dock RESULT> 
ENERGY=   -3.657  LOWER_BOUND=    4.949  UPPER_BOUND=    6.250
INTER + INTRA:          -3.657
INTER:                  -3.657
INTRA:                   0.000
UNBOUND:                 0.000

$$$$

     RDKit          3D

 26 27  0  0  0  0  0  0  0  0999 V2000
   45.2775    5.0658   12.7554 N   0  0  0  0  0  0  0  0  0  0  0  0
   44.6023    3.9004   12.5301 C   0  0  0  0  0  0  0  0  0  0  0  0
   44.6044    6.3609   12.5943 C   0  0  0  0  0  0  0  0  0  0  0  0
   45.5600    7.5366   12.5332 C   0  0  0  0  0  0  0  0  0  0  0  0
   43.3419    3.7390   12.3336 N   0  0  0  0  0  0  0  0  0  0  0  0
   46.3938    5.1109   13.7136 C   0  0  0  0  0  0  0  0  0  0  0  0
   46.9254    7.3997   12.8410 C   0  0  0  0  0  0  0  0  0  0  0  0
   47.4837    6.0457   13.1921 C   0  0  0  0  0  0  0  0  0  0  0  0
   45.3730    2.7951   12.4599 N   0  0  0  0  0  0  0  0  0  0  0  0
   45.0627    8.8043   12.1903 C   0  0  0  0  0  0  0  0  0  0  0  0
   47.7736    8.5132   12.7692 C   0  0  0  0  0  0  0  0  0  0  0  0
   45.9113    9.9104   12.1345 C   0  0  0  0  0  0  0  0  0  0  0  0
   47.2659    9.7640   12.4210 C   0  0  0  0  0  0  0  0  0  0  0  0
   43.9109    6.5161   13.4299 H   0  0  0  0  0  0  0  0  0  0  0  0
   44.0293    6.3520   11.6599 H   0  0  0  0  0  0  0  0  0  0  0  0
   42.8540    4.6289   12.4142 H   0  0  0  0  0  0  0  0  0  0  0  0
   46.0193    5.4580   14.6858 H   0  0  0  0  0  0  0  0  0  0  0  0
   46.8400    4.1255   13.8868 H   0  0  0  0  0  0  0  0  0  0  0  0
   48.2630    6.1454   13.9566 H   0  0  0  0  0  0  0  0  0  0  0  0
   47.9427    5.6182   12.2921 H   0  0  0  0  0  0  0  0  0  0  0  0
   46.1804    2.9365   11.8676 H   0  0  0  0  0  0  0  0  0  0  0  0
   44.8081    2.0242   12.1175 H   0  0  0  0  0  0  0  0  0  0  0  0
   44.0075    8.9359   11.9596 H   0  0  0  0  0  0  0  0  0  0  0  0
   48.8347    8.4108   12.9847 H   0  0  0  0  0  0  0  0  0  0  0  0
   45.5159   10.8859   11.8634 H   0  0  0  0  0  0  0  0  0  0  0  0
   47.9282   10.6243   12.3709 H   0  0  0  0  0  0  0  0  0  0  0  0
  2  1  1  0
  3  1  1  0
  4  3  1  0
  5  2  2  3
  6  1  1  0
  7  8  1  0
  8  6  1  0
  9  2  1  0
 10  4  2  0
 11  7  2  0
 12 10  1  0
 13 11  1  0
  4  7  1  0
 12 13  2  0
  3 14  1  0
  3 15  1  0
  5 16  1  0
  6 17  1  0
  6 18  1  0
  8 19  1  0
  8 20  1  0
  9 21  1  0
  9 22  1  0
 10 23  1  0
 11 24  1  0
 12 25  1  0
 13 26  1  0
M  END
> <Uni-Dock RESULT> 
ENERGY=   -3.520  LOWER_BOUND=    4.621  UPPER_BOUND=    6.410
INTER + INTRA:          -3.520
INTER:                  -3.520
INTRA:                   0.000
UNBOUND:                 0.000

$$$$

     RDKit          3D

 26 27  0  0  0  0  0  0  0  0999 V2000
   45.0592    4.1804   10.8275 N   0  0  0  0  0  0  0  0  0  0  0  0
   44.5428    3.6257    9.6915 C   0  0  0  0  0  0  0  0  0  0  0  0
   45.4339    5.5998   10.8607 C   0  0  0  0  0  0  0  0  0  0  0  0
   46.3021    5.9694   12.0475 C   0  0  0  0  0  0  0  0  0  0  0  0
   44.1636    4.2235    8.6182 N   0  0  0  0  0  0  0  0  0  0  0  0
   44.6985    3.6478   12.1513 C   0  0  0  0  0  0  0  0  0  0  0  0
   46.5137    5.0813   13.1173 C   0  0  0  0  0  0  0  0  0  0  0  0
   45.9127    3.7009   13.0769 C   0  0  0  0  0  0  0  0  0  0  0  0
   44.4727    2.2782    9.6916 N   0  0  0  0  0  0  0  0  0  0  0  0
   46.8864    7.2455   12.0958 C   0  0  0  0  0  0  0  0  0  0  0  0
   47.3259    5.4637   14.1935 C   0  0  0  0  0  0  0  0  0  0  0  0
   47.6826    7.6232   13.1775 C   0  0  0  0  0  0  0  0  0  0  0  0
   47.9042    6.7318   14.2238 C   0  0  0  0  0  0  0  0  0  0  0  0
   44.5256    6.2146   10.8859 H   0  0  0  0  0  0  0  0  0  0  0  0
   45.9956    5.8435    9.9501 H   0  0  0  0  0  0  0  0  0  0  0  0
   44.2505    5.2323    8.7250 H   0  0  0  0  0  0  0  0  0  0  0  0
   43.8714    4.2404   12.5641 H   0  0  0  0  0  0  0  0  0  0  0  0
   44.3456    2.6116   12.1064 H   0  0  0  0  0  0  0  0  0  0  0  0
   45.6068    3.3928   14.0835 H   0  0  0  0  0  0  0  0  0  0  0  0
   46.6806    3.0008   12.7255 H   0  0  0  0  0  0  0  0  0  0  0  0
   45.3338    1.8567   10.0135 H   0  0  0  0  0  0  0  0  0  0  0  0
   44.2483    1.9627    8.7531 H   0  0  0  0  0  0  0  0  0  0  0  0
   46.7269    7.9531   11.2848 H   0  0  0  0  0  0  0  0  0  0  0  0
   47.5117    4.7744   15.0141 H   0  0  0  0  0  0  0  0  0  0  0  0
   48.1334    8.6119   13.2018 H   0  0  0  0  0  0  0  0  0  0  0  0
   48.5299    7.0236   15.0632 H   0  0  0  0  0  0  0  0  0  0  0  0
  2  1  1  0
  3  1  1  0
  4  3  1  0
  5  2  2  3
  6  1  1  0
  7  8  1  0
  8  6  1  0
  9  2  1  0
 10  4  2  0
 11  7  2  0
 12 10  1  0
 13 11  1  0
  4  7  1  0
 12 13  2  0
  3 14  1  0
  3 15  1  0
  5 16  1  0
  6 17  1  0
  6 18  1  0
  8 19  1  0
  8 20  1  0
  9 21  1  0
  9 22  1  0
 10 23  1  0
 11 24  1  0
 12 25  1  0
 13 26  1  0
M  END
> <Uni-Dock RESULT> 
ENERGY=   -3.439  LOWER_BOUND=    3.699  UPPER_BOUND=    5.662
INTER + INTRA:          -3.439
INTER:                  -3.439
INTRA:                   0.000
UNBOUND:                 0.000

$$$$

     RDKit          3D

 26 27  0  0  0  0  0  0  0  0999 V2000
   47.2007    7.1900   12.7153 N   0  0  0  0  0  0  0  0  0  0  0  0
   48.5058    7.5840   12.7951 C   0  0  0  0  0  0  0  0  0  0  0  0
   46.8021    5.8403   13.1345 C   0  0  0  0  0  0  0  0  0  0  0  0
   45.4171    5.4437   12.6621 C   0  0  0  0  0  0  0  0  0  0  0  0
   49.4859    6.9729   13.3600 N   0  0  0  0  0  0  0  0  0  0  0  0
   46.1131    8.1748   12.8310 C   0  0  0  0  0  0  0  0  0  0  0  0
   44.5333    6.3757   12.0892 C   0  0  0  0  0  0  0  0  0  0  0  0
   44.9754    7.8006   11.8827 C   0  0  0  0  0  0  0  0  0  0  0  0
   48.7975    8.7358   12.1557 N   0  0  0  0  0  0  0  0  0  0  0  0
   44.9922    4.1157   12.8292 C   0  0  0  0  0  0  0  0  0  0  0  0
   43.2626    5.9648   11.6640 C   0  0  0  0  0  0  0  0  0  0  0  0
   43.7205    3.7179   12.4155 C   0  0  0  0  0  0  0  0  0  0  0  0
   42.8578    4.6413   11.8310 C   0  0  0  0  0  0  0  0  0  0  0  0
   46.8304    5.7770   14.2294 H   0  0  0  0  0  0  0  0  0  0  0  0
   47.5137    5.1129   12.7240 H   0  0  0  0  0  0  0  0  0  0  0  0
   49.1583    6.1237   13.8161 H   0  0  0  0  0  0  0  0  0  0  0  0
   45.7585    8.1986   13.8700 H   0  0  0  0  0  0  0  0  0  0  0  0
   46.4396    9.1928   12.5913 H   0  0  0  0  0  0  0  0  0  0  0  0
   44.1347    8.4844   12.0479 H   0  0  0  0  0  0  0  0  0  0  0  0
   45.3050    7.9119   10.8423 H   0  0  0  0  0  0  0  0  0  0  0  0
   48.4060    8.7582   11.2235 H   0  0  0  0  0  0  0  0  0  0  0  0
   49.8063    8.8450   12.1233 H   0  0  0  0  0  0  0  0  0  0  0  0
   45.6549    3.3801   13.2805 H   0  0  0  0  0  0  0  0  0  0  0  0
   42.5817    6.6751   11.2004 H   0  0  0  0  0  0  0  0  0  0  0  0
   43.4042    2.6862   12.5459 H   0  0  0  0  0  0  0  0  0  0  0  0
   41.8696    4.3300   11.5027 H   0  0  0  0  0  0  0  0  0  0  0  0
  2  1  1  0
  3  1  1  0
  4  3  1  0
  5  2  2  3
  6  1  1  0
  7  8  1  0
  8  6  1  0
  9  2  1  0
 10  4  2  0
 11  7  2  0
 12 10  1  0
 13 11  1  0
  4  7  1  0
 12 13  2  0
  3 14  1  0
  3 15  1  0
  5 16  1  0
  6 17  1  0
  6 18  1  0
  8 19  1  0
  8 20  1  0
  9 21  1  0
  9 22  1  0
 10 23  1  0
 11 24  1  0
 12 25  1  0
 13 26  1  0
M  END
> <Uni-Dock RESULT> 
ENERGY=   -3.435  LOWER_BOUND=    5.334  UPPER_BOUND=    6.377
INTER + INTRA:          -3.435
INTER:                  -3.435
INTRA:                   0.000
UNBOUND:                 0.000

$$$$
