
     RDKit          3D

 26 27  0  0  0  0  0  0  0  0999 V2000
   44.8796    4.6533    9.7775 N   0  0  0  0  0  0  0  0  0  0  0  0
   45.4352    5.0458   10.9631 C   0  0  0  0  0  0  0  0  0  0  0  0
   45.5590    4.8611    8.4899 C   0  0  0  0  0  0  0  0  0  0  0  0
   46.1590    3.5852    7.9262 C   0  0  0  0  0  0  0  0  0  0  0  0
   45.3308    4.3818   12.0611 N   0  0  0  0  0  0  0  0  0  0  0  0
   44.0136    3.4644    9.7615 C   0  0  0  0  0  0  0  0  0  0  0  0
   45.8019    2.3170    8.4251 C   0  0  0  0  0  0  0  0  0  0  0  0
   44.8576    2.2000    9.5980 C   0  0  0  0  0  0  0  0  0  0  0  0
   46.0672    6.2397   10.9315 N   0  0  0  0  0  0  0  0  0  0  0  0
   47.0540    3.6661    6.8473 C   0  0  0  0  0  0  0  0  0  0  0  0
   46.3688    1.1629    7.8671 C   0  0  0  0  0  0  0  0  0  0  0  0
   47.6030    2.5105    6.2903 C   0  0  0  0  0  0  0  0  0  0  0  0
   47.2627    1.2608    6.8018 C   0  0  0  0  0  0  0  0  0  0  0  0
   44.8221    5.2378    7.7697 H   0  0  0  0  0  0  0  0  0  0  0  0
   46.3489    5.6169    8.5653 H   0  0  0  0  0  0  0  0  0  0  0  0
   45.8363    4.8640   12.8032 H   0  0  0  0  0  0  0  0  0  0  0  0
   43.3994    3.4027   10.6678 H   0  0  0  0  0  0  0  0  0  0  0  0
   43.3069    3.5532    8.9254 H   0  0  0  0  0  0  0  0  0  0  0  0
   45.4523    2.0176   10.5008 H   0  0  0  0  0  0  0  0  0  0  0  0
   44.1885    1.3431    9.4564 H   0  0  0  0  0  0  0  0  0  0  0  0
   45.5953    6.9010   10.3270 H   0  0  0  0  0  0  0  0  0  0  0  0
   46.2377    6.6488   11.8399 H   0  0  0  0  0  0  0  0  0  0  0  0
   47.3330    4.6343    6.4375 H   0  0  0  0  0  0  0  0  0  0  0  0
   46.1174    0.1822    8.2647 H   0  0  0  0  0  0  0  0  0  0  0  0
   48.3002    2.5853    5.4600 H   0  0  0  0  0  0  0  0  0  0  0  0
   47.6968    0.3612    6.3737 H   0  0  0  0  0  0  0  0  0  0  0  0
  2  1  1  0
  3  1  1  0
  4  3  1  0
  5  2  2  3
  6  1  1  0
  7  8  1  0
  8  6  1  0
  9  2  1  0
 10  4  2  0
 11  7  2  0
 12 10  1  0
 13 11  1  0
  4  7  1  0
 12 13  2  0
  3 14  1  0
  3 15  1  0
  5 16  1  0
  6 17  1  0
  6 18  1  0
  8 19  1  0
  8 20  1  0
  9 21  1  0
  9 22  1  0
 10 23  1  0
 11 24  1  0
 12 25  1  0
 13 26  1  0
M  END
> <Uni-Dock RESULT> 
ENERGY=   -5.243  LOWER_BOUND=    0.000  UPPER_BOUND=    0.000
INTER + INTRA:          -5.243
INTER:                  -5.243
INTRA:                   0.000
UNBOUND:                 0.000

$$$$

     RDKit          3D

 26 27  0  0  0  0  0  0  0  0999 V2000
   44.1344    5.2449   11.6675 N   0  0  0  0  0  0  0  0  0  0  0  0
   44.8785    5.3954   12.8042 C   0  0  0  0  0  0  0  0  0  0  0  0
   44.6455    5.6283   10.3431 C   0  0  0  0  0  0  0  0  0  0  0  0
   45.0534    4.4338    9.4989 C   0  0  0  0  0  0  0  0  0  0  0  0
   44.8706    4.5612   13.7848 N   0  0  0  0  0  0  0  0  0  0  0  0
   43.1779    4.1300   11.5908 C   0  0  0  0  0  0  0  0  0  0  0  0
   44.6632    3.1227    9.8359 C   0  0  0  0  0  0  0  0  0  0  0  0
   43.8825    2.8638   11.1027 C   0  0  0  0  0  0  0  0  0  0  0  0
   45.5980    6.5372   12.8702 N   0  0  0  0  0  0  0  0  0  0  0  0
   45.7953    4.6440    8.3255 C   0  0  0  0  0  0  0  0  0  0  0  0
   45.0494    2.0490    9.0219 C   0  0  0  0  0  0  0  0  0  0  0  0
   46.1638    3.5697    7.5149 C   0  0  0  0  0  0  0  0  0  0  0  0
   45.7935    2.2736    7.8646 C   0  0  0  0  0  0  0  0  0  0  0  0
   43.8508    6.1658    9.8107 H   0  0  0  0  0  0  0  0  0  0  0  0
   45.4988    6.3116   10.4197 H   0  0  0  0  0  0  0  0  0  0  0  0
   45.5119    4.8786   14.5106 H   0  0  0  0  0  0  0  0  0  0  0  0
   42.6910    3.9513   12.5570 H   0  0  0  0  0  0  0  0  0  0  0  0
   42.3730    4.4022   10.8949 H   0  0  0  0  0  0  0  0  0  0  0  0
   44.5781    2.4949   11.8654 H   0  0  0  0  0  0  0  0  0  0  0  0
   43.1309    2.0853   10.9271 H   0  0  0  0  0  0  0  0  0  0  0  0
   45.1046    7.3190   12.4569 H   0  0  0  0  0  0  0  0  0  0  0  0
   45.9252    6.7744   13.7967 H   0  0  0  0  0  0  0  0  0  0  0  0
   46.0955    5.6496    8.0392 H   0  0  0  0  0  0  0  0  0  0  0  0
   44.7737    1.0316    9.2902 H   0  0  0  0  0  0  0  0  0  0  0  0
   46.7441    3.7433    6.6126 H   0  0  0  0  0  0  0  0  0  0  0  0
   46.0877    1.4360    7.2379 H   0  0  0  0  0  0  0  0  0  0  0  0
  2  1  1  0
  3  1  1  0
  4  3  1  0
  5  2  2  3
  6  1  1  0
  7  8  1  0
  8  6  1  0
  9  2  1  0
 10  4  2  0
 11  7  2  0
 12 10  1  0
 13 11  1  0
  4  7  1  0
 12 13  2  0
  3 14  1  0
  3 15  1  0
  5 16  1  0
  6 17  1  0
  6 18  1  0
  8 19  1  0
  8 20  1  0
  9 21  1  0
  9 22  1  0
 10 23  1  0
 11 24  1  0
 12 25  1  0
 13 26  1  0
M  END
> <Uni-Dock RESULT> 
ENERGY=   -4.662  LOWER_BOUND=    1.403  UPPER_BOUND=    2.048
INTER + INTRA:          -4.662
INTER:                  -4.662
INTRA:                   0.000
UNBOUND:                 0.000

$$$$

     RDKit          3D

 26 27  0  0  0  0  0  0  0  0999 V2000
   44.9239    5.4944   12.4907 N   0  0  0  0  0  0  0  0  0  0  0  0
   45.9656    5.4740   13.3754 C   0  0  0  0  0  0  0  0  0  0  0  0
   45.1070    5.8552   11.0769 C   0  0  0  0  0  0  0  0  0  0  0  0
   45.0680    4.6526   10.1506 C   0  0  0  0  0  0  0  0  0  0  0  0
   46.0918    4.6063   14.3181 N   0  0  0  0  0  0  0  0  0  0  0  0
   43.8152    4.5466   12.6815 C   0  0  0  0  0  0  0  0  0  0  0  0
   44.5777    3.4038   10.5807 C   0  0  0  0  0  0  0  0  0  0  0  0
   44.1435    3.2105   12.0144 C   0  0  0  0  0  0  0  0  0  0  0  0
   46.8510    6.4858   13.2404 N   0  0  0  0  0  0  0  0  0  0  0  0
   45.4832    4.7995    8.8174 C   0  0  0  0  0  0  0  0  0  0  0  0
   44.5460    2.3224    9.6896 C   0  0  0  0  0  0  0  0  0  0  0  0
   45.4355    3.7201    7.9345 C   0  0  0  0  0  0  0  0  0  0  0  0
   44.9701    2.4825    8.3713 C   0  0  0  0  0  0  0  0  0  0  0  0
   44.2950    6.5340   10.7878 H   0  0  0  0  0  0  0  0  0  0  0  0
   46.0477    6.3932   10.9141 H   0  0  0  0  0  0  0  0  0  0  0  0
   46.9504    4.7858   14.8372 H   0  0  0  0  0  0  0  0  0  0  0  0
   43.5899    4.4008   13.7447 H   0  0  0  0  0  0  0  0  0  0  0  0
   42.9055    4.9729   12.2376 H   0  0  0  0  0  0  0  0  0  0  0  0
   44.9523    2.7026   12.5527 H   0  0  0  0  0  0  0  0  0  0  0  0
   43.2565    2.5674   12.0537 H   0  0  0  0  0  0  0  0  0  0  0  0
   46.3968    7.3532   12.9821 H   0  0  0  0  0  0  0  0  0  0  0  0
   47.4540    6.6255   14.0395 H   0  0  0  0  0  0  0  0  0  0  0  0
   45.8524    5.7585    8.4604 H   0  0  0  0  0  0  0  0  0  0  0  0
   44.1932    1.3488   10.0224 H   0  0  0  0  0  0  0  0  0  0  0  0
   45.7661    3.8434    6.9065 H   0  0  0  0  0  0  0  0  0  0  0  0
   44.9410    1.6395    7.6860 H   0  0  0  0  0  0  0  0  0  0  0  0
  2  1  1  0
  3  1  1  0
  4  3  1  0
  5  2  2  3
  6  1  1  0
  7  8  1  0
  8  6  1  0
  9  2  1  0
 10  4  2  0
 11  7  2  0
 12 10  1  0
 13 11  1  0
  4  7  1  0
 12 13  2  0
  3 14  1  0
  3 15  1  0
  5 16  1  0
  6 17  1  0
  6 18  1  0
  8 19  1  0
  8 20  1  0
  9 21  1  0
  9 22  1  0
 10 23  1  0
 11 24  1  0
 12 25  1  0
 13 26  1  0
M  END
> <Uni-Dock RESULT> 
ENERGY=   -4.539  LOWER_BOUND=    1.820  UPPER_BOUND=    2.765
INTER + INTRA:          -4.539
INTER:                  -4.539
INTRA:                   0.000
UNBOUND:                 0.000

$$$$

     RDKit          3D

 26 27  0  0  0  0  0  0  0  0999 V2000
   45.4150    2.2830    7.9067 N   0  0  0  0  0  0  0  0  0  0  0  0
   46.6342    1.6984    7.7062 C   0  0  0  0  0  0  0  0  0  0  0  0
   44.5433    1.9057    9.0293 C   0  0  0  0  0  0  0  0  0  0  0  0
   44.5357    2.9371   10.1437 C   0  0  0  0  0  0  0  0  0  0  0  0
   47.6724    2.3285    7.2787 N   0  0  0  0  0  0  0  0  0  0  0  0
   45.2299    3.6871    7.5091 C   0  0  0  0  0  0  0  0  0  0  0  0
   45.0417    4.2377    9.9508 C   0  0  0  0  0  0  0  0  0  0  0  0
   45.6801    4.6176    8.6357 C   0  0  0  0  0  0  0  0  0  0  0  0
   46.6737    0.3662    7.9287 N   0  0  0  0  0  0  0  0  0  0  0  0
   43.9648    2.6045   11.3827 C   0  0  0  0  0  0  0  0  0  0  0  0
   45.0032    5.1642   11.0018 C   0  0  0  0  0  0  0  0  0  0  0  0
   43.9195    3.5383   12.4186 C   0  0  0  0  0  0  0  0  0  0  0  0
   44.4408    4.8156   12.2288 C   0  0  0  0  0  0  0  0  0  0  0  0
   43.5185    1.8069    8.6501 H   0  0  0  0  0  0  0  0  0  0  0  0
   44.8236    0.9344    9.4520 H   0  0  0  0  0  0  0  0  0  0  0  0
   48.4632    1.6879    7.2215 H   0  0  0  0  0  0  0  0  0  0  0  0
   45.7689    3.9164    6.5821 H   0  0  0  0  0  0  0  0  0  0  0  0
   44.1672    3.8545    7.2877 H   0  0  0  0  0  0  0  0  0  0  0  0
   46.7688    4.5728    8.7569 H   0  0  0  0  0  0  0  0  0  0  0  0
   45.4123    5.6477    8.3730 H   0  0  0  0  0  0  0  0  0  0  0  0
   45.8172   -0.0905    7.6401 H   0  0  0  0  0  0  0  0  0  0  0  0
   47.4765   -0.1023    7.5316 H   0  0  0  0  0  0  0  0  0  0  0  0
   43.5558    1.6104   11.5490 H   0  0  0  0  0  0  0  0  0  0  0  0
   45.4158    6.1617   10.8679 H   0  0  0  0  0  0  0  0  0  0  0  0
   43.4816    3.2677   13.3758 H   0  0  0  0  0  0  0  0  0  0  0  0
   44.4133    5.5401   13.0384 H   0  0  0  0  0  0  0  0  0  0  0  0
  2  1  1  0
  3  1  1  0
  4  3  1  0
  5  2  2  3
  6  1  1  0
  7  8  1  0
  8  6  1  0
  9  2  1  0
 10  4  2  0
 11  7  2  0
 12 10  1  0
 13 11  1  0
  4  7  1  0
 12 13  2  0
  3 14  1  0
  3 15  1  0
  5 16  1  0
  6 17  1  0
  6 18  1  0
  8 19  1  0
  8 20  1  0
  9 21  1  0
  9 22  1  0
 10 23  1  0
 11 24  1  0
 12 25  1  0
 13 26  1  0
M  END
> <Uni-Dock RESULT> 
ENERGY=   -4.224  LOWER_BOUND=    2.340  UPPER_BOUND=    4.875
INTER + INTRA:          -4.224
INTER:                  -4.224
INTRA:                   0.000
UNBOUND:                 0.000

$$$$

     RDKit          3D

 26 27  0  0  0  0  0  0  0  0999 V2000
   43.9898    3.7062   10.7213 N   0  0  0  0  0  0  0  0  0  0  0  0
   44.3883    3.2754    9.4868 C   0  0  0  0  0  0  0  0  0  0  0  0
   44.6065    3.2067   11.9593 C   0  0  0  0  0  0  0  0  0  0  0  0
   45.5552    4.2090   12.5927 C   0  0  0  0  0  0  0  0  0  0  0  0
   44.4560    4.0329    8.4480 N   0  0  0  0  0  0  0  0  0  0  0  0
   43.4981    5.0852   10.8645 C   0  0  0  0  0  0  0  0  0  0  0  0
   45.5639    5.5641   12.2075 C   0  0  0  0  0  0  0  0  0  0  0  0
   44.6697    6.0419   11.0879 C   0  0  0  0  0  0  0  0  0  0  0  0
   44.6552    1.9536    9.4005 N   0  0  0  0  0  0  0  0  0  0  0  0
   46.4106    3.7877   13.6234 C   0  0  0  0  0  0  0  0  0  0  0  0
   46.4461    6.4598   12.8271 C   0  0  0  0  0  0  0  0  0  0  0  0
   47.2760    4.6901   14.2430 C   0  0  0  0  0  0  0  0  0  0  0  0
   47.2954    6.0238   13.8431 C   0  0  0  0  0  0  0  0  0  0  0  0
   43.8067    2.9931   12.6794 H   0  0  0  0  0  0  0  0  0  0  0  0
   45.1473    2.2682   11.7932 H   0  0  0  0  0  0  0  0  0  0  0  0
   44.7894    3.4927    7.6505 H   0  0  0  0  0  0  0  0  0  0  0  0
   42.9097    5.3944    9.9924 H   0  0  0  0  0  0  0  0  0  0  0  0
   42.8114    5.1284   11.7206 H   0  0  0  0  0  0  0  0  0  0  0  0
   45.2744    6.1254   10.1773 H   0  0  0  0  0  0  0  0  0  0  0  0
   44.2747    7.0372   11.3226 H   0  0  0  0  0  0  0  0  0  0  0  0
   44.0263    1.4032    9.9723 H   0  0  0  0  0  0  0  0  0  0  0  0
   44.6849    1.5919    8.4572 H   0  0  0  0  0  0  0  0  0  0  0  0
   46.4105    2.7489   13.9460 H   0  0  0  0  0  0  0  0  0  0  0  0
   46.4765    7.5018   12.5165 H   0  0  0  0  0  0  0  0  0  0  0  0
   47.9388    4.3514   15.0349 H   0  0  0  0  0  0  0  0  0  0  0  0
   47.9754    6.7248   14.3197 H   0  0  0  0  0  0  0  0  0  0  0  0
  2  1  1  0
  3  1  1  0
  4  3  1  0
  5  2  2  3
  6  1  1  0
  7  8  1  0
  8  6  1  0
  9  2  1  0
 10  4  2  0
 11  7  2  0
 12 10  1  0
 13 11  1  0
  4  7  1  0
 12 13  2  0
  3 14  1  0
  3 15  1  0
  5 16  1  0
  6 17  1  0
  6 18  1  0
  8 19  1  0
  8 20  1  0
  9 21  1  0
  9 22  1  0
 10 23  1  0
 11 24  1  0
 12 25  1  0
 13 26  1  0
M  END
> <Uni-Dock RESULT> 
ENERGY=   -4.020  LOWER_BOUND=    2.786  UPPER_BOUND=    5.330
INTER + INTRA:          -4.020
INTER:                  -4.020
INTRA:                   0.000
UNBOUND:                 0.000

$$$$

     RDKit          3D

 26 27  0  0  0  0  0  0  0  0999 V2000
   44.5989    5.0926   11.7569 N   0  0  0  0  0  0  0  0  0  0  0  0
   43.3601    5.5141   12.1521 C   0  0  0  0  0  0  0  0  0  0  0  0
   45.5878    6.0124   11.1749 C   0  0  0  0  0  0  0  0  0  0  0  0
   46.6967    6.3786   12.1455 C   0  0  0  0  0  0  0  0  0  0  0  0
   42.7465    5.0677   13.1922 N   0  0  0  0  0  0  0  0  0  0  0  0
   45.2347    3.9842   12.4855 C   0  0  0  0  0  0  0  0  0  0  0  0
   46.9116    5.6494   13.3316 C   0  0  0  0  0  0  0  0  0  0  0  0
   45.9844    4.5177   13.7067 C   0  0  0  0  0  0  0  0  0  0  0  0
   42.7701    6.4082   11.3286 N   0  0  0  0  0  0  0  0  0  0  0  0
   47.5622    7.4384   11.8304 C   0  0  0  0  0  0  0  0  0  0  0  0
   47.9554    6.0120   14.1939 C   0  0  0  0  0  0  0  0  0  0  0  0
   48.6065    7.7833   12.6892 C   0  0  0  0  0  0  0  0  0  0  0  0
   48.8007    7.0725   13.8708 C   0  0  0  0  0  0  0  0  0  0  0  0
   46.0441    5.5212   10.3064 H   0  0  0  0  0  0  0  0  0  0  0  0
   45.1200    6.9347   10.8124 H   0  0  0  0  0  0  0  0  0  0  0  0
   41.8477    5.5386   13.2889 H   0  0  0  0  0  0  0  0  0  0  0  0
   44.5005    3.2270   12.7852 H   0  0  0  0  0  0  0  0  0  0  0  0
   45.9346    3.4732   11.8107 H   0  0  0  0  0  0  0  0  0  0  0  0
   45.2771    4.8879   14.4581 H   0  0  0  0  0  0  0  0  0  0  0  0
   46.5565    3.6982   14.1573 H   0  0  0  0  0  0  0  0  0  0  0  0
   42.9756    6.2182   10.3554 H   0  0  0  0  0  0  0  0  0  0  0  0
   41.7743    6.5128   11.4668 H   0  0  0  0  0  0  0  0  0  0  0  0
   47.4229    8.0061   10.9130 H   0  0  0  0  0  0  0  0  0  0  0  0
   48.1107    5.4698   15.1239 H   0  0  0  0  0  0  0  0  0  0  0  0
   49.2660    8.6100   12.4387 H   0  0  0  0  0  0  0  0  0  0  0  0
   49.6088    7.3465   14.5439 H   0  0  0  0  0  0  0  0  0  0  0  0
  2  1  1  0
  3  1  1  0
  4  3  1  0
  5  2  2  3
  6  1  1  0
  7  8  1  0
  8  6  1  0
  9  2  1  0
 10  4  2  0
 11  7  2  0
 12 10  1  0
 13 11  1  0
  4  7  1  0
 12 13  2  0
  3 14  1  0
  3 15  1  0
  5 16  1  0
  6 17  1  0
  6 18  1  0
  8 19  1  0
  8 20  1  0
  9 21  1  0
  9 22  1  0
 10 23  1  0
 11 24  1  0
 12 25  1  0
 13 26  1  0
M  END
> <Uni-Dock RESULT> 
ENERGY=   -3.564  LOWER_BOUND=    4.087  UPPER_BOUND=    5.508
INTER + INTRA:          -3.564
INTER:                  -3.564
INTRA:                   0.000
UNBOUND:                 0.000

$$$$

     RDKit          3D

 26 27  0  0  0  0  0  0  0  0999 V2000
   48.4819    5.7146   17.5663 N   0  0  0  0  0  0  0  0  0  0  0  0
   47.6671    5.9753   18.6325 C   0  0  0  0  0  0  0  0  0  0  0  0
   49.9439    5.6335   17.7022 C   0  0  0  0  0  0  0  0  0  0  0  0
   50.4624    4.2069   17.6633 C   0  0  0  0  0  0  0  0  0  0  0  0
   46.5114    5.4345   18.8036 N   0  0  0  0  0  0  0  0  0  0  0  0
   47.9775    4.8553   16.4842 C   0  0  0  0  0  0  0  0  0  0  0  0
   49.6597    3.1406   17.2124 C   0  0  0  0  0  0  0  0  0  0  0  0
   48.2210    3.3842   16.8225 C   0  0  0  0  0  0  0  0  0  0  0  0
   48.1303    6.9096   19.4917 N   0  0  0  0  0  0  0  0  0  0  0  0
   51.7909    3.9492   18.0380 C   0  0  0  0  0  0  0  0  0  0  0  0
   50.1815    1.8401   17.1793 C   0  0  0  0  0  0  0  0  0  0  0  0
   52.3050    2.6529   17.9891 C   0  0  0  0  0  0  0  0  0  0  0  0
   51.5001    1.5995   17.5629 C   0  0  0  0  0  0  0  0  0  0  0  0
   50.3973    6.1833   16.8679 H   0  0  0  0  0  0  0  0  0  0  0  0
   50.2924    6.1086   18.6261 H   0  0  0  0  0  0  0  0  0  0  0  0
   46.0993    5.7730   19.6723 H   0  0  0  0  0  0  0  0  0  0  0  0
   46.9130    5.0348   16.2918 H   0  0  0  0  0  0  0  0  0  0  0  0
   48.4989    5.1164   15.5535 H   0  0  0  0  0  0  0  0  0  0  0  0
   47.5817    3.0726   17.6568 H   0  0  0  0  0  0  0  0  0  0  0  0
   47.9601    2.7722   15.9512 H   0  0  0  0  0  0  0  0  0  0  0  0
   48.6230    7.6528   19.0118 H   0  0  0  0  0  0  0  0  0  0  0  0
   47.4310    7.2917   20.1135 H   0  0  0  0  0  0  0  0  0  0  0  0
   52.4325    4.7599   18.3763 H   0  0  0  0  0  0  0  0  0  0  0  0
   49.5591    1.0084   16.8570 H   0  0  0  0  0  0  0  0  0  0  0  0
   53.3326    2.4639   18.2881 H   0  0  0  0  0  0  0  0  0  0  0  0
   51.8978    0.5886   17.5330 H   0  0  0  0  0  0  0  0  0  0  0  0
  2  1  1  0
  3  1  1  0
  4  3  1  0
  5  2  2  3
  6  1  1  0
  7  8  1  0
  8  6  1  0
  9  2  1  0
 10  4  2  0
 11  7  2  0
 12 10  1  0
 13 11  1  0
  4  7  1  0
 12 13  2  0
  3 14  1  0
  3 15  1  0
  5 16  1  0
  6 17  1  0
  6 18  1  0
  8 19  1  0
  8 20  1  0
  9 21  1  0
  9 22  1  0
 10 23  1  0
 11 24  1  0
 12 25  1  0
 13 26  1  0
M  END
> <Uni-Dock RESULT> 
ENERGY=   -3.411  LOWER_BOUND=    8.567  UPPER_BOUND=    9.793
INTER + INTRA:          -3.411
INTER:                  -3.411
INTRA:                   0.000
UNBOUND:                 0.000

$$$$

     RDKit          3D

 26 27  0  0  0  0  0  0  0  0999 V2000
   48.6815    5.8301   20.4177 N   0  0  0  0  0  0  0  0  0  0  0  0
   48.2793    5.4460   21.6664 C   0  0  0  0  0  0  0  0  0  0  0  0
   49.7387    5.1179   19.6844 C   0  0  0  0  0  0  0  0  0  0  0  0
   49.1963    4.2403   18.5703 C   0  0  0  0  0  0  0  0  0  0  0  0
   47.0593    5.4926   22.0750 N   0  0  0  0  0  0  0  0  0  0  0  0
   47.6950    6.4408   19.5135 C   0  0  0  0  0  0  0  0  0  0  0  0
   47.8744    4.3733   18.1015 C   0  0  0  0  0  0  0  0  0  0  0  0
   46.9309    5.3544   18.7561 C   0  0  0  0  0  0  0  0  0  0  0  0
   49.2747    5.0617   22.4953 N   0  0  0  0  0  0  0  0  0  0  0  0
   50.0466    3.3067   17.9564 C   0  0  0  0  0  0  0  0  0  0  0  0
   47.4171    3.5524   17.0615 C   0  0  0  0  0  0  0  0  0  0  0  0
   49.5856    2.5032   16.9129 C   0  0  0  0  0  0  0  0  0  0  0  0
   48.2715    2.6243   16.4683 C   0  0  0  0  0  0  0  0  0  0  0  0
   50.4071    5.8633   19.2355 H   0  0  0  0  0  0  0  0  0  0  0  0
   50.3499    4.5001   20.3518 H   0  0  0  0  0  0  0  0  0  0  0  0
   47.0043    5.1447   23.0315 H   0  0  0  0  0  0  0  0  0  0  0  0
   47.0004    7.0917   20.0577 H   0  0  0  0  0  0  0  0  0  0  0  0
   48.2223    7.0918   18.8032 H   0  0  0  0  0  0  0  0  0  0  0  0
   46.2777    4.7991   19.4393 H   0  0  0  0  0  0  0  0  0  0  0  0
   46.2986    5.8296   17.9970 H   0  0  0  0  0  0  0  0  0  0  0  0
   50.1136    5.6121   22.3588 H   0  0  0  0  0  0  0  0  0  0  0  0
   49.0212    5.0385   23.4735 H   0  0  0  0  0  0  0  0  0  0  0  0
   51.0750    3.1969   18.2934 H   0  0  0  0  0  0  0  0  0  0  0  0
   46.3900    3.6319   16.7124 H   0  0  0  0  0  0  0  0  0  0  0  0
   50.2505    1.7790   16.4497 H   0  0  0  0  0  0  0  0  0  0  0  0
   47.9099    1.9925   15.6613 H   0  0  0  0  0  0  0  0  0  0  0  0
  2  1  1  0
  3  1  1  0
  4  3  1  0
  5  2  2  3
  6  1  1  0
  7  8  1  0
  8  6  1  0
  9  2  1  0
 10  4  2  0
 11  7  2  0
 12 10  1  0
 13 11  1  0
  4  7  1  0
 12 13  2  0
  3 14  1  0
  3 15  1  0
  5 16  1  0
  6 17  1  0
  6 18  1  0
  8 19  1  0
  8 20  1  0
  9 21  1  0
  9 22  1  0
 10 23  1  0
 11 24  1  0
 12 25  1  0
 13 26  1  0
M  END
> <Uni-Dock RESULT> 
ENERGY=   -3.315  LOWER_BOUND=    9.097  UPPER_BOUND=   10.821
INTER + INTRA:          -3.315
INTER:                  -3.315
INTRA:                   0.000
UNBOUND:                 0.000

$$$$

     RDKit          3D

 26 27  0  0  0  0  0  0  0  0999 V2000
   47.9001    5.9452   13.7278 N   0  0  0  0  0  0  0  0  0  0  0  0
   48.1422    6.5366   14.9361 C   0  0  0  0  0  0  0  0  0  0  0  0
   46.9754    4.8107   13.5850 C   0  0  0  0  0  0  0  0  0  0  0  0
   45.6464    5.2063   12.9661 C   0  0  0  0  0  0  0  0  0  0  0  0
   48.3203    7.8018   15.0948 N   0  0  0  0  0  0  0  0  0  0  0  0
   47.9549    6.7717   12.5122 C   0  0  0  0  0  0  0  0  0  0  0  0
   45.4750    6.4409   12.3095 C   0  0  0  0  0  0  0  0  0  0  0  0
   46.6032    7.4444   12.2709 C   0  0  0  0  0  0  0  0  0  0  0  0
   48.2503    5.6843   15.9790 N   0  0  0  0  0  0  0  0  0  0  0  0
   44.5749    4.2996   13.0038 C   0  0  0  0  0  0  0  0  0  0  0  0
   44.2354    6.7616   11.7394 C   0  0  0  0  0  0  0  0  0  0  0  0
   43.3487    4.6230   12.4219 C   0  0  0  0  0  0  0  0  0  0  0  0
   43.1787    5.8538   11.7930 C   0  0  0  0  0  0  0  0  0  0  0  0
   47.4459    4.0643   12.9328 H   0  0  0  0  0  0  0  0  0  0  0  0
   46.7830    4.3207   14.5461 H   0  0  0  0  0  0  0  0  0  0  0  0
   48.4709    8.0060   16.0821 H   0  0  0  0  0  0  0  0  0  0  0  0
   48.7527    7.5216   12.5720 H   0  0  0  0  0  0  0  0  0  0  0  0
   48.2105    6.1289   11.6591 H   0  0  0  0  0  0  0  0  0  0  0  0
   46.4123    8.2053   13.0367 H   0  0  0  0  0  0  0  0  0  0  0  0
   46.6257    7.9455   11.2961 H   0  0  0  0  0  0  0  0  0  0  0  0
   48.7077    4.8204   15.7149 H   0  0  0  0  0  0  0  0  0  0  0  0
   48.6863    6.0795   16.8008 H   0  0  0  0  0  0  0  0  0  0  0  0
   44.6895    3.3351   13.4937 H   0  0  0  0  0  0  0  0  0  0  0  0
   44.0884    7.7237   11.2538 H   0  0  0  0  0  0  0  0  0  0  0  0
   42.5240    3.9164   12.4632 H   0  0  0  0  0  0  0  0  0  0  0  0
   42.2210    6.1093   11.3472 H   0  0  0  0  0  0  0  0  0  0  0  0
  2  1  1  0
  3  1  1  0
  4  3  1  0
  5  2  2  3
  6  1  1  0
  7  8  1  0
  8  6  1  0
  9  2  1  0
 10  4  2  0
 11  7  2  0
 12 10  1  0
 13 11  1  0
  4  7  1  0
 12 13  2  0
  3 14  1  0
  3 15  1  0
  5 16  1  0
  6 17  1  0
  6 18  1  0
  8 19  1  0
  8 20  1  0
  9 21  1  0
  9 22  1  0
 10 23  1  0
 11 24  1  0
 12 25  1  0
 13 26  1  0
M  END
> <Uni-Dock RESULT> 
ENERGY=   -3.125  LOWER_BOUND=    5.102  UPPER_BOUND=    6.143
INTER + INTRA:          -3.125
INTER:                  -3.125
INTRA:                   0.000
UNBOUND:                 0.000

$$$$
