
     RDKit          3D

 26 27  0  0  0  0  0  0  0  0999 V2000
   44.4670    3.4569   10.1677 N   0  0  0  0  0  0  0  0  0  0  0  0
   43.7048    3.4552   11.3028 C   0  0  0  0  0  0  0  0  0  0  0  0
   44.8444    2.1531    9.5823 C   0  0  0  0  0  0  0  0  0  0  0  0
   45.8149    2.2507    8.4211 C   0  0  0  0  0  0  0  0  0  0  0  0
   42.6745    4.1758   11.5701 N   0  0  0  0  0  0  0  0  0  0  0  0
   44.3274    4.5277    9.1751 C   0  0  0  0  0  0  0  0  0  0  0  0
   46.1897    3.4852    7.8659 C   0  0  0  0  0  0  0  0  0  0  0  0
   45.6555    4.7601    8.4570 C   0  0  0  0  0  0  0  0  0  0  0  0
   44.1245    2.6076   12.2651 N   0  0  0  0  0  0  0  0  0  0  0  0
   46.3374    1.0696    7.8690 C   0  0  0  0  0  0  0  0  0  0  0  0
   47.0983    3.5268    6.7996 C   0  0  0  0  0  0  0  0  0  0  0  0
   47.2302    1.1178    6.7979 C   0  0  0  0  0  0  0  0  0  0  0  0
   47.6125    2.3461    6.2658 C   0  0  0  0  0  0  0  0  0  0  0  0
   45.3162    1.5226   10.3453 H   0  0  0  0  0  0  0  0  0  0  0  0
   43.9354    1.6479    9.2315 H   0  0  0  0  0  0  0  0  0  0  0  0
   42.4370    4.7570   10.7682 H   0  0  0  0  0  0  0  0  0  0  0  0
   43.5336    4.2705    8.4621 H   0  0  0  0  0  0  0  0  0  0  0  0
   44.0468    5.4726    9.6553 H   0  0  0  0  0  0  0  0  0  0  0  0
   46.3992    5.1509    9.1625 H   0  0  0  0  0  0  0  0  0  0  0  0
   45.5080    5.5099    7.6710 H   0  0  0  0  0  0  0  0  0  0  0  0
   45.1224    2.6767   12.4185 H   0  0  0  0  0  0  0  0  0  0  0  0
   43.6153    2.8049   13.1210 H   0  0  0  0  0  0  0  0  0  0  0  0
   46.0516    0.1018    8.2762 H   0  0  0  0  0  0  0  0  0  0  0  0
   47.4096    4.4805    6.3793 H   0  0  0  0  0  0  0  0  0  0  0  0
   47.6302    0.1970    6.3816 H   0  0  0  0  0  0  0  0  0  0  0  0
   48.3134    2.3849    5.4360 H   0  0  0  0  0  0  0  0  0  0  0  0
  2  1  1  0
  3  1  1  0
  4  3  1  0
  5  2  2  3
  6  1  1  0
  7  8  1  0
  8  6  1  0
  9  2  1  0
 10  4  2  0
 11  7  2  0
 12 10  1  0
 13 11  1  0
  4  7  1  0
 12 13  2  0
  3 14  1  0
  3 15  1  0
  5 16  1  0
  6 17  1  0
  6 18  1  0
  8 19  1  0
  8 20  1  0
  9 21  1  0
  9 22  1  0
 10 23  1  0
 11 24  1  0
 12 25  1  0
 13 26  1  0
M  END
> <Uni-Dock RESULT> 
ENERGY=   -6.272  LOWER_BOUND=    0.000  UPPER_BOUND=    0.000
INTER + INTRA:          -6.272
INTER:                  -6.272
INTRA:                   0.000
UNBOUND:                 0.000

$$$$

     RDKit          3D

 26 27  0  0  0  0  0  0  0  0999 V2000
   43.6167    4.5166   11.2015 N   0  0  0  0  0  0  0  0  0  0  0  0
   42.9202    5.3502   12.0318 C   0  0  0  0  0  0  0  0  0  0  0  0
   44.5321    5.1258   10.2135 C   0  0  0  0  0  0  0  0  0  0  0  0
   45.1396    4.1374    9.2369 C   0  0  0  0  0  0  0  0  0  0  0  0
   42.7392    5.2408   13.2996 N   0  0  0  0  0  0  0  0  0  0  0  0
   44.0466    3.1917   11.6612 C   0  0  0  0  0  0  0  0  0  0  0  0
   44.9587    2.7511    9.3715 C   0  0  0  0  0  0  0  0  0  0  0  0
   44.1036    2.2167   10.4866 C   0  0  0  0  0  0  0  0  0  0  0  0
   42.3268    6.3948   11.4173 N   0  0  0  0  0  0  0  0  0  0  0  0
   45.9262    4.6214    8.1787 C   0  0  0  0  0  0  0  0  0  0  0  0
   45.5310    1.8761    8.4381 C   0  0  0  0  0  0  0  0  0  0  0  0
   46.5051    3.7436    7.2616 C   0  0  0  0  0  0  0  0  0  0  0  0
   46.3047    2.3720    7.3899 C   0  0  0  0  0  0  0  0  0  0  0  0
   43.9971    5.8776    9.6212 H   0  0  0  0  0  0  0  0  0  0  0  0
   45.3477    5.6266   10.7508 H   0  0  0  0  0  0  0  0  0  0  0  0
   43.2485    4.4344   13.6569 H   0  0  0  0  0  0  0  0  0  0  0  0
   45.0232    3.2703   12.1559 H   0  0  0  0  0  0  0  0  0  0  0  0
   43.3385    2.7817   12.3910 H   0  0  0  0  0  0  0  0  0  0  0  0
   43.0939    2.0439   10.0941 H   0  0  0  0  0  0  0  0  0  0  0  0
   44.4980    1.2570   10.8403 H   0  0  0  0  0  0  0  0  0  0  0  0
   41.8315    6.1085   10.5826 H   0  0  0  0  0  0  0  0  0  0  0  0
   41.6957    6.8455   12.0725 H   0  0  0  0  0  0  0  0  0  0  0  0
   46.0889    5.6911    8.0623 H   0  0  0  0  0  0  0  0  0  0  0  0
   45.3766    0.8028    8.5239 H   0  0  0  0  0  0  0  0  0  0  0  0
   47.1089    4.1307    6.4450 H   0  0  0  0  0  0  0  0  0  0  0  0
   46.7495    1.6880    6.6718 H   0  0  0  0  0  0  0  0  0  0  0  0
  2  1  1  0
  3  1  1  0
  4  3  1  0
  5  2  2  3
  6  1  1  0
  7  8  1  0
  8  6  1  0
  9  2  1  0
 10  4  2  0
 11  7  2  0
 12 10  1  0
 13 11  1  0
  4  7  1  0
 12 13  2  0
  3 14  1  0
  3 15  1  0
  5 16  1  0
  6 17  1  0
  6 18  1  0
  8 19  1  0
  8 20  1  0
  9 21  1  0
  9 22  1  0
 10 23  1  0
 11 24  1  0
 12 25  1  0
 13 26  1  0
M  END
> <Uni-Dock RESULT> 
ENERGY=   -5.498  LOWER_BOUND=    1.292  UPPER_BOUND=    2.785
INTER + INTRA:          -5.498
INTER:                  -5.498
INTRA:                   0.000
UNBOUND:                 0.000

$$$$

     RDKit          3D

 26 27  0  0  0  0  0  0  0  0999 V2000
   44.2628    6.3534   12.4333 N   0  0  0  0  0  0  0  0  0  0  0  0
   43.1572    5.5490   12.4222 C   0  0  0  0  0  0  0  0  0  0  0  0
   45.5786    5.7227   12.6698 C   0  0  0  0  0  0  0  0  0  0  0  0
   46.7219    6.7075   12.8197 C   0  0  0  0  0  0  0  0  0  0  0  0
   42.1801    5.5515   11.5872 N   0  0  0  0  0  0  0  0  0  0  0  0
   44.3280    7.5461   11.5821 C   0  0  0  0  0  0  0  0  0  0  0  0
   46.5531    8.0838   12.5963 C   0  0  0  0  0  0  0  0  0  0  0  0
   45.1941    8.6189   12.2397 C   0  0  0  0  0  0  0  0  0  0  0  0
   43.0851    4.6720   13.4452 N   0  0  0  0  0  0  0  0  0  0  0  0
   47.9940    6.2261   13.1703 C   0  0  0  0  0  0  0  0  0  0  0  0
   47.6370    8.9578   12.7572 C   0  0  0  0  0  0  0  0  0  0  0  0
   49.0720    7.1001   13.3144 C   0  0  0  0  0  0  0  0  0  0  0  0
   48.8923    8.4656   13.1109 C   0  0  0  0  0  0  0  0  0  0  0  0
   45.5467    5.1228   13.5871 H   0  0  0  0  0  0  0  0  0  0  0  0
   45.8056    5.0549   11.8289 H   0  0  0  0  0  0  0  0  0  0  0  0
   42.3519    6.2332   10.8503 H   0  0  0  0  0  0  0  0  0  0  0  0
   44.7199    7.2745   10.5935 H   0  0  0  0  0  0  0  0  0  0  0  0
   43.3307    7.9773   11.4351 H   0  0  0  0  0  0  0  0  0  0  0  0
   44.7131    8.9774   13.1582 H   0  0  0  0  0  0  0  0  0  0  0  0
   45.2892    9.4686   11.5537 H   0  0  0  0  0  0  0  0  0  0  0  0
   43.2862    5.1127   14.3337 H   0  0  0  0  0  0  0  0  0  0  0  0
   42.1604    4.2529   13.4535 H   0  0  0  0  0  0  0  0  0  0  0  0
   48.1499    5.1621   13.3368 H   0  0  0  0  0  0  0  0  0  0  0  0
   47.5079   10.0273   12.6071 H   0  0  0  0  0  0  0  0  0  0  0  0
   50.0507    6.7158   13.5893 H   0  0  0  0  0  0  0  0  0  0  0  0
   49.7298    9.1479   13.2298 H   0  0  0  0  0  0  0  0  0  0  0  0
  2  1  1  0
  3  1  1  0
  4  3  1  0
  5  2  2  3
  6  1  1  0
  7  8  1  0
  8  6  1  0
  9  2  1  0
 10  4  2  0
 11  7  2  0
 12 10  1  0
 13 11  1  0
  4  7  1  0
 12 13  2  0
  3 14  1  0
  3 15  1  0
  5 16  1  0
  6 17  1  0
  6 18  1  0
  8 19  1  0
  8 20  1  0
  9 21  1  0
  9 22  1  0
 10 23  1  0
 11 24  1  0
 12 25  1  0
 13 26  1  0
M  END
> <Uni-Dock RESULT> 
ENERGY=   -3.716  LOWER_BOUND=    5.121  UPPER_BOUND=    6.010
INTER + INTRA:          -3.716
INTER:                  -3.716
INTRA:                   0.000
UNBOUND:                 0.000

$$$$

     RDKit          3D

 26 27  0  0  0  0  0  0  0  0999 V2000
   45.6156    8.0269   12.3209 N   0  0  0  0  0  0  0  0  0  0  0  0
   45.6858    9.3911   12.2616 C   0  0  0  0  0  0  0  0  0  0  0  0
   44.5545    7.3514   11.5445 C   0  0  0  0  0  0  0  0  0  0  0  0
   44.4567    5.8587   11.7935 C   0  0  0  0  0  0  0  0  0  0  0  0
   46.7278   10.1280   12.1088 N   0  0  0  0  0  0  0  0  0  0  0  0
   46.8317    7.2218   12.4769 C   0  0  0  0  0  0  0  0  0  0  0  0
   45.3984    5.1714   12.5767 C   0  0  0  0  0  0  0  0  0  0  0  0
   46.5187    5.9309   13.2312 C   0  0  0  0  0  0  0  0  0  0  0  0
   44.5057   10.0260   12.4203 N   0  0  0  0  0  0  0  0  0  0  0  0
   43.4054    5.1374   11.2042 C   0  0  0  0  0  0  0  0  0  0  0  0
   45.2612    3.7926   12.7879 C   0  0  0  0  0  0  0  0  0  0  0  0
   43.2834    3.7623   11.4066 C   0  0  0  0  0  0  0  0  0  0  0  0
   44.2093    3.0913   12.2007 C   0  0  0  0  0  0  0  0  0  0  0  0
   43.5775    7.7845   11.7902 H   0  0  0  0  0  0  0  0  0  0  0  0
   44.7437    7.5119   10.4754 H   0  0  0  0  0  0  0  0  0  0  0  0
   47.5521    9.5446   11.9768 H   0  0  0  0  0  0  0  0  0  0  0  0
   47.2629    7.0074   11.4906 H   0  0  0  0  0  0  0  0  0  0  0  0
   47.5880    7.7633   13.0574 H   0  0  0  0  0  0  0  0  0  0  0  0
   46.2223    6.1620   14.2619 H   0  0  0  0  0  0  0  0  0  0  0  0
   47.4237    5.3135   13.2696 H   0  0  0  0  0  0  0  0  0  0  0  0
   43.9821    9.6569   13.2036 H   0  0  0  0  0  0  0  0  0  0  0  0
   44.6810   11.0187   12.5414 H   0  0  0  0  0  0  0  0  0  0  0  0
   42.6712    5.6479   10.5842 H   0  0  0  0  0  0  0  0  0  0  0  0
   45.9746    3.2582   13.4113 H   0  0  0  0  0  0  0  0  0  0  0  0
   42.4635    3.2158   10.9480 H   0  0  0  0  0  0  0  0  0  0  0  0
   44.1109    2.0214   12.3646 H   0  0  0  0  0  0  0  0  0  0  0  0
  2  1  1  0
  3  1  1  0
  4  3  1  0
  5  2  2  3
  6  1  1  0
  7  8  1  0
  8  6  1  0
  9  2  1  0
 10  4  2  0
 11  7  2  0
 12 10  1  0
 13 11  1  0
  4  7  1  0
 12 13  2  0
  3 14  1  0
  3 15  1  0
  5 16  1  0
  6 17  1  0
  6 18  1  0
  8 19  1  0
  8 20  1  0
  9 21  1  0
  9 22  1  0
 10 23  1  0
 11 24  1  0
 12 25  1  0
 13 26  1  0
M  END
> <Uni-Dock RESULT> 
ENERGY=   -3.570  LOWER_BOUND=    4.804  UPPER_BOUND=    6.033
INTER + INTRA:          -3.570
INTER:                  -3.570
INTRA:                   0.000
UNBOUND:                 0.000

$$$$

     RDKit          3D

 26 27  0  0  0  0  0  0  0  0999 V2000
   44.7685    4.6105   12.2083 N   0  0  0  0  0  0  0  0  0  0  0  0
   43.9979    3.5691   11.7715 C   0  0  0  0  0  0  0  0  0  0  0  0
   44.2888    5.9851   11.9525 C   0  0  0  0  0  0  0  0  0  0  0  0
   45.2788    7.0695   12.3315 C   0  0  0  0  0  0  0  0  0  0  0  0
   43.6799    2.4954   12.4024 N   0  0  0  0  0  0  0  0  0  0  0  0
   45.5696    4.4863   13.4308 C   0  0  0  0  0  0  0  0  0  0  0  0
   46.4759    6.7815   13.0072 C   0  0  0  0  0  0  0  0  0  0  0  0
   46.8221    5.3553   13.3333 C   0  0  0  0  0  0  0  0  0  0  0  0
   43.5533    3.6872   10.5029 N   0  0  0  0  0  0  0  0  0  0  0  0
   44.9790    8.4053   12.0177 C   0  0  0  0  0  0  0  0  0  0  0  0
   47.3657    7.8159   13.3278 C   0  0  0  0  0  0  0  0  0  0  0  0
   45.8626    9.4317   12.3530 C   0  0  0  0  0  0  0  0  0  0  0  0
   47.0566    9.1363   13.0049 C   0  0  0  0  0  0  0  0  0  0  0  0
   44.0644    6.1109   10.8866 H   0  0  0  0  0  0  0  0  0  0  0  0
   43.3641    6.1471   12.5210 H   0  0  0  0  0  0  0  0  0  0  0  0
   44.0485    2.5256   13.3514 H   0  0  0  0  0  0  0  0  0  0  0  0
   44.9625    4.7661   14.3013 H   0  0  0  0  0  0  0  0  0  0  0  0
   45.9014    3.4517   13.5781 H   0  0  0  0  0  0  0  0  0  0  0  0
   47.4831    4.9725   12.5458 H   0  0  0  0  0  0  0  0  0  0  0  0
   47.3645    5.3048   14.2846 H   0  0  0  0  0  0  0  0  0  0  0  0
   44.2909    3.9700    9.8704 H   0  0  0  0  0  0  0  0  0  0  0  0
   43.1513    2.8013   10.2123 H   0  0  0  0  0  0  0  0  0  0  0  0
   44.0516    8.6523   11.5047 H   0  0  0  0  0  0  0  0  0  0  0  0
   48.3046    7.5972   13.8315 H   0  0  0  0  0  0  0  0  0  0  0  0
   45.6208   10.4612   12.1017 H   0  0  0  0  0  0  0  0  0  0  0  0
   47.7488    9.9345   13.2601 H   0  0  0  0  0  0  0  0  0  0  0  0
  2  1  1  0
  3  1  1  0
  4  3  1  0
  5  2  2  3
  6  1  1  0
  7  8  1  0
  8  6  1  0
  9  2  1  0
 10  4  2  0
 11  7  2  0
 12 10  1  0
 13 11  1  0
  4  7  1  0
 12 13  2  0
  3 14  1  0
  3 15  1  0
  5 16  1  0
  6 17  1  0
  6 18  1  0
  8 19  1  0
  8 20  1  0
  9 21  1  0
  9 22  1  0
 10 23  1  0
 11 24  1  0
 12 25  1  0
 13 26  1  0
M  END
> <Uni-Dock RESULT> 
ENERGY=   -3.530  LOWER_BOUND=    4.093  UPPER_BOUND=    6.106
INTER + INTRA:          -3.530
INTER:                  -3.530
INTRA:                   0.000
UNBOUND:                 0.000

$$$$

     RDKit          3D

 26 27  0  0  0  0  0  0  0  0999 V2000
   47.1319    7.3173   12.9578 N   0  0  0  0  0  0  0  0  0  0  0  0
   48.3943    7.7106   13.3054 C   0  0  0  0  0  0  0  0  0  0  0  0
   46.7093    5.9456   13.3112 C   0  0  0  0  0  0  0  0  0  0  0  0
   45.3575    5.5478   12.7507 C   0  0  0  0  0  0  0  0  0  0  0  0
   48.7626    8.8182   13.8436 N   0  0  0  0  0  0  0  0  0  0  0  0
   46.0284    8.2833   12.9324 C   0  0  0  0  0  0  0  0  0  0  0  0
   44.5268    6.4663   12.0882 C   0  0  0  0  0  0  0  0  0  0  0  0
   44.9958    7.8797   11.8816 C   0  0  0  0  0  0  0  0  0  0  0  0
   49.3661    6.8236   13.0057 N   0  0  0  0  0  0  0  0  0  0  0  0
   44.9125    4.2264   12.9192 C   0  0  0  0  0  0  0  0  0  0  0  0
   43.2897    6.0503   11.5775 C   0  0  0  0  0  0  0  0  0  0  0  0
   43.6732    3.8227   12.4211 C   0  0  0  0  0  0  0  0  0  0  0  0
   42.8641    4.7338   11.7479 C   0  0  0  0  0  0  0  0  0  0  0  0
   47.4408    5.2201   12.9356 H   0  0  0  0  0  0  0  0  0  0  0  0
   46.6690    5.8600   14.4046 H   0  0  0  0  0  0  0  0  0  0  0  0
   47.9487    9.3964   14.0449 H   0  0  0  0  0  0  0  0  0  0  0  0
   45.5718    8.3502   13.9283 H   0  0  0  0  0  0  0  0  0  0  0  0
   46.3898    9.2838   12.6668 H   0  0  0  0  0  0  0  0  0  0  0  0
   45.4336    7.9543   10.8784 H   0  0  0  0  0  0  0  0  0  0  0  0
   44.1473    8.5720   11.9329 H   0  0  0  0  0  0  0  0  0  0  0  0
   49.2721    6.4664   12.0636 H   0  0  0  0  0  0  0  0  0  0  0  0
   50.2688    7.2709   13.1316 H   0  0  0  0  0  0  0  0  0  0  0  0
   45.5350    3.5011   13.4395 H   0  0  0  0  0  0  0  0  0  0  0  0
   42.6512    6.7510   11.0442 H   0  0  0  0  0  0  0  0  0  0  0  0
   43.3415    2.7964   12.5549 H   0  0  0  0  0  0  0  0  0  0  0  0
   41.9017    4.4185   11.3533 H   0  0  0  0  0  0  0  0  0  0  0  0
  2  1  1  0
  3  1  1  0
  4  3  1  0
  5  2  2  3
  6  1  1  0
  7  8  1  0
  8  6  1  0
  9  2  1  0
 10  4  2  0
 11  7  2  0
 12 10  1  0
 13 11  1  0
  4  7  1  0
 12 13  2  0
  3 14  1  0
  3 15  1  0
  5 16  1  0
  6 17  1  0
  6 18  1  0
  8 19  1  0
  8 20  1  0
  9 21  1  0
  9 22  1  0
 10 23  1  0
 11 24  1  0
 12 25  1  0
 13 26  1  0
M  END
> <Uni-Dock RESULT> 
ENERGY=   -3.425  LOWER_BOUND=    5.316  UPPER_BOUND=    6.316
INTER + INTRA:          -3.425
INTER:                  -3.425
INTRA:                   0.000
UNBOUND:                 0.000

$$$$

     RDKit          3D

 26 27  0  0  0  0  0  0  0  0999 V2000
   46.5028    5.6567   13.5477 N   0  0  0  0  0  0  0  0  0  0  0  0
   46.9916    4.5497   14.1839 C   0  0  0  0  0  0  0  0  0  0  0  0
   47.3802    6.8418   13.4426 C   0  0  0  0  0  0  0  0  0  0  0  0
   46.7019    8.0679   12.8627 C   0  0  0  0  0  0  0  0  0  0  0  0
   46.9145    3.3210   13.8145 N   0  0  0  0  0  0  0  0  0  0  0  0
   45.5613    5.5226   12.4310 C   0  0  0  0  0  0  0  0  0  0  0  0
   45.4013    8.0193   12.3346 C   0  0  0  0  0  0  0  0  0  0  0  0
   44.6281    6.7308   12.3775 C   0  0  0  0  0  0  0  0  0  0  0  0
   47.5976    4.7965   15.3640 N   0  0  0  0  0  0  0  0  0  0  0  0
   47.4039    9.2840   12.8318 C   0  0  0  0  0  0  0  0  0  0  0  0
   44.8110    9.1811   11.8185 C   0  0  0  0  0  0  0  0  0  0  0  0
   46.8155   10.4333   12.3031 C   0  0  0  0  0  0  0  0  0  0  0  0
   45.5185   10.3820   11.7997 C   0  0  0  0  0  0  0  0  0  0  0  0
   47.7551    7.1192   14.4350 H   0  0  0  0  0  0  0  0  0  0  0  0
   48.2391    6.5892   12.8077 H   0  0  0  0  0  0  0  0  0  0  0  0
   46.4605    3.2574   12.9050 H   0  0  0  0  0  0  0  0  0  0  0  0
   46.1158    5.4109   11.4904 H   0  0  0  0  0  0  0  0  0  0  0  0
   44.9341    4.6315   12.5525 H   0  0  0  0  0  0  0  0  0  0  0  0
   43.9832    6.7453   13.2649 H   0  0  0  0  0  0  0  0  0  0  0  0
   43.9855    6.6445   11.4935 H   0  0  0  0  0  0  0  0  0  0  0  0
   47.0508    5.4189   15.9450 H   0  0  0  0  0  0  0  0  0  0  0  0
   47.7625    3.9144   15.8390 H   0  0  0  0  0  0  0  0  0  0  0  0
   48.4169    9.3416   13.2251 H   0  0  0  0  0  0  0  0  0  0  0  0
   43.7961    9.1553   11.4281 H   0  0  0  0  0  0  0  0  0  0  0  0
   47.3677   11.3693   12.2879 H   0  0  0  0  0  0  0  0  0  0  0  0
   45.0568   11.2785   11.3941 H   0  0  0  0  0  0  0  0  0  0  0  0
  2  1  1  0
  3  1  1  0
  4  3  1  0
  5  2  2  3
  6  1  1  0
  7  8  1  0
  8  6  1  0
  9  2  1  0
 10  4  2  0
 11  7  2  0
 12 10  1  0
 13 11  1  0
  4  7  1  0
 12 13  2  0
  3 14  1  0
  3 15  1  0
  5 16  1  0
  6 17  1  0
  6 18  1  0
  8 19  1  0
  8 20  1  0
  9 21  1  0
  9 22  1  0
 10 23  1  0
 11 24  1  0
 12 25  1  0
 13 26  1  0
M  END
> <Uni-Dock RESULT> 
ENERGY=   -3.404  LOWER_BOUND=    5.166  UPPER_BOUND=    6.992
INTER + INTRA:          -3.404
INTER:                  -3.404
INTRA:                   0.000
UNBOUND:                 0.000

$$$$

     RDKit          3D

 26 27  0  0  0  0  0  0  0  0999 V2000
   52.8379    1.7923   17.7967 N   0  0  0  0  0  0  0  0  0  0  0  0
   53.8299    0.8516   17.8188 C   0  0  0  0  0  0  0  0  0  0  0  0
   51.4652    1.3472   17.4763 C   0  0  0  0  0  0  0  0  0  0  0  0
   50.4655    2.4770   17.3221 C   0  0  0  0  0  0  0  0  0  0  0  0
   54.7581    0.6949   18.6940 N   0  0  0  0  0  0  0  0  0  0  0  0
   52.8847    2.9494   18.6969 C   0  0  0  0  0  0  0  0  0  0  0  0
   50.7978    3.8101   17.6139 C   0  0  0  0  0  0  0  0  0  0  0  0
   52.1953    4.1502   18.0516 C   0  0  0  0  0  0  0  0  0  0  0  0
   53.8384    0.0131   16.7616 N   0  0  0  0  0  0  0  0  0  0  0  0
   49.1607    2.1785   16.8964 C   0  0  0  0  0  0  0  0  0  0  0  0
   49.8435    4.8227   17.4462 C   0  0  0  0  0  0  0  0  0  0  0  0
   48.2114    3.1898   16.7458 C   0  0  0  0  0  0  0  0  0  0  0  0
   48.5540    4.5115   17.0177 C   0  0  0  0  0  0  0  0  0  0  0  0
   51.4642    0.7844   16.5353 H   0  0  0  0  0  0  0  0  0  0  0  0
   51.1147    0.6822   18.2760 H   0  0  0  0  0  0  0  0  0  0  0  0
   54.6395    1.3639   19.4527 H   0  0  0  0  0  0  0  0  0  0  0  0
   52.4144    2.6927   19.6547 H   0  0  0  0  0  0  0  0  0  0  0  0
   53.9207    3.2417   18.9054 H   0  0  0  0  0  0  0  0  0  0  0  0
   52.7618    4.4787   17.1714 H   0  0  0  0  0  0  0  0  0  0  0  0
   52.1767    4.9777   18.7704 H   0  0  0  0  0  0  0  0  0  0  0  0
   53.7382    0.5104   15.8860 H   0  0  0  0  0  0  0  0  0  0  0  0
   54.7014   -0.5216   16.7740 H   0  0  0  0  0  0  0  0  0  0  0  0
   48.8784    1.1510   16.6759 H   0  0  0  0  0  0  0  0  0  0  0  0
   50.1007    5.8599   17.6494 H   0  0  0  0  0  0  0  0  0  0  0  0
   47.2059    2.9466   16.4125 H   0  0  0  0  0  0  0  0  0  0  0  0
   47.8171    5.3008   16.8939 H   0  0  0  0  0  0  0  0  0  0  0  0
  2  1  1  0
  3  1  1  0
  4  3  1  0
  5  2  2  3
  6  1  1  0
  7  8  1  0
  8  6  1  0
  9  2  1  0
 10  4  2  0
 11  7  2  0
 12 10  1  0
 13 11  1  0
  4  7  1  0
 12 13  2  0
  3 14  1  0
  3 15  1  0
  5 16  1  0
  6 17  1  0
  6 18  1  0
  8 19  1  0
  8 20  1  0
  9 21  1  0
  9 22  1  0
 10 23  1  0
 11 24  1  0
 12 25  1  0
 13 26  1  0
M  END
> <Uni-Dock RESULT> 
ENERGY=   -3.385  LOWER_BOUND=   10.067  UPPER_BOUND=   11.359
INTER + INTRA:          -3.385
INTER:                  -3.385
INTRA:                   0.000
UNBOUND:                 0.000

$$$$

     RDKit          3D

 26 27  0  0  0  0  0  0  0  0999 V2000
   47.3561    4.7628   16.1082 N   0  0  0  0  0  0  0  0  0  0  0  0
   47.1780    4.1704   17.3275 C   0  0  0  0  0  0  0  0  0  0  0  0
   48.4195    5.7814   15.9793 C   0  0  0  0  0  0  0  0  0  0  0  0
   48.4401    6.4925   14.6400 C   0  0  0  0  0  0  0  0  0  0  0  0
   47.0078    2.9235   17.5887 N   0  0  0  0  0  0  0  0  0  0  0  0
   47.1049    4.0166   14.8706 C   0  0  0  0  0  0  0  0  0  0  0  0
   47.6147    6.0973   13.5746 C   0  0  0  0  0  0  0  0  0  0  0  0
   46.6444    4.9648   13.7651 C   0  0  0  0  0  0  0  0  0  0  0  0
   47.1454    5.0240   18.3721 N   0  0  0  0  0  0  0  0  0  0  0  0
   49.3280    7.5643   14.4515 C   0  0  0  0  0  0  0  0  0  0  0  0
   47.6609    6.7914   12.3578 C   0  0  0  0  0  0  0  0  0  0  0  0
   49.3792    8.2415   13.2326 C   0  0  0  0  0  0  0  0  0  0  0  0
   48.5436    7.8568   12.1877 C   0  0  0  0  0  0  0  0  0  0  0  0
   48.2969    6.5504   16.7513 H   0  0  0  0  0  0  0  0  0  0  0  0
   49.3925    5.2959   16.1279 H   0  0  0  0  0  0  0  0  0  0  0  0
   47.0739    2.3750   16.7331 H   0  0  0  0  0  0  0  0  0  0  0  0
   48.0127    3.4761   14.5735 H   0  0  0  0  0  0  0  0  0  0  0  0
   46.3109    3.2745   15.0152 H   0  0  0  0  0  0  0  0  0  0  0  0
   45.6652    5.3892   14.0196 H   0  0  0  0  0  0  0  0  0  0  0  0
   46.5356    4.3978   12.8332 H   0  0  0  0  0  0  0  0  0  0  0  0
   46.5467    5.8192   18.1898 H   0  0  0  0  0  0  0  0  0  0  0  0
   46.8332    4.5212   19.1970 H   0  0  0  0  0  0  0  0  0  0  0  0
   49.9848    7.8799   15.2598 H   0  0  0  0  0  0  0  0  0  0  0  0
   47.0087    6.5044   11.5360 H   0  0  0  0  0  0  0  0  0  0  0  0
   50.0681    9.0716   13.1002 H   0  0  0  0  0  0  0  0  0  0  0  0
   48.5778    8.3882   11.2403 H   0  0  0  0  0  0  0  0  0  0  0  0
  2  1  1  0
  3  1  1  0
  4  3  1  0
  5  2  2  3
  6  1  1  0
  7  8  1  0
  8  6  1  0
  9  2  1  0
 10  4  2  0
 11  7  2  0
 12 10  1  0
 13 11  1  0
  4  7  1  0
 12 13  2  0
  3 14  1  0
  3 15  1  0
  5 16  1  0
  6 17  1  0
  6 18  1  0
  8 19  1  0
  8 20  1  0
  9 21  1  0
  9 22  1  0
 10 23  1  0
 11 24  1  0
 12 25  1  0
 13 26  1  0
M  END
> <Uni-Dock RESULT> 
ENERGY=   -3.381  LOWER_BOUND=    6.173  UPPER_BOUND=    7.565
INTER + INTRA:          -3.381
INTER:                  -3.381
INTRA:                   0.000
UNBOUND:                 0.000

$$$$
