
     RDKit          3D

 26 27  0  0  0  0  0  0  0  0999 V2000
   44.2785    3.1915   10.0398 N   0  0  0  0  0  0  0  0  0  0  0  0
   43.7402    3.2195   11.2895 C   0  0  0  0  0  0  0  0  0  0  0  0
   44.7706    1.9490    9.4319 C   0  0  0  0  0  0  0  0  0  0  0  0
   45.8037    2.1740    8.3426 C   0  0  0  0  0  0  0  0  0  0  0  0
   43.6378    4.2481   12.0558 N   0  0  0  0  0  0  0  0  0  0  0  0
   44.1337    4.3101    9.1078 C   0  0  0  0  0  0  0  0  0  0  0  0
   46.1424    3.4630    7.8911 C   0  0  0  0  0  0  0  0  0  0  0  0
   45.4946    4.6703    8.5177 C   0  0  0  0  0  0  0  0  0  0  0  0
   43.2680    2.0500   11.7678 N   0  0  0  0  0  0  0  0  0  0  0  0
   46.4308    1.0616    7.7585 C   0  0  0  0  0  0  0  0  0  0  0  0
   47.1152    3.6223    6.8949 C   0  0  0  0  0  0  0  0  0  0  0  0
   47.3874    1.2283    6.7567 C   0  0  0  0  0  0  0  0  0  0  0  0
   47.7311    2.5076    6.3276 C   0  0  0  0  0  0  0  0  0  0  0  0
   43.9230    1.4015    9.0016 H   0  0  0  0  0  0  0  0  0  0  0  0
   45.2375    1.3219   10.2019 H   0  0  0  0  0  0  0  0  0  0  0  0
   44.0909    5.0413   11.6011 H   0  0  0  0  0  0  0  0  0  0  0  0
   43.4340    4.0229    8.3118 H   0  0  0  0  0  0  0  0  0  0  0  0
   43.7033    5.1964    9.5861 H   0  0  0  0  0  0  0  0  0  0  0  0
   46.1578    5.0534    9.3027 H   0  0  0  0  0  0  0  0  0  0  0  0
   45.3608    5.4593    7.7686 H   0  0  0  0  0  0  0  0  0  0  0  0
   42.6232    1.6019   11.1316 H   0  0  0  0  0  0  0  0  0  0  0  0
   42.8092    2.2306   12.6563 H   0  0  0  0  0  0  0  0  0  0  0  0
   46.1806    0.0554    8.0889 H   0  0  0  0  0  0  0  0  0  0  0  0
   47.3983    4.6164    6.5565 H   0  0  0  0  0  0  0  0  0  0  0  0
   47.8699    0.3598    6.3158 H   0  0  0  0  0  0  0  0  0  0  0  0
   48.4827    2.6377    5.5534 H   0  0  0  0  0  0  0  0  0  0  0  0
  2  1  1  0
  3  1  1  0
  4  3  1  0
  5  2  2  3
  6  1  1  0
  7  8  1  0
  8  6  1  0
  9  2  1  0
 10  4  2  0
 11  7  2  0
 12 10  1  0
 13 11  1  0
  4  7  1  0
 12 13  2  0
  3 14  1  0
  3 15  1  0
  5 16  1  0
  6 17  1  0
  6 18  1  0
  8 19  1  0
  8 20  1  0
  9 21  1  0
  9 22  1  0
 10 23  1  0
 11 24  1  0
 12 25  1  0
 13 26  1  0
M  END
> <Uni-Dock RESULT> 
ENERGY=   -6.322  LOWER_BOUND=    0.000  UPPER_BOUND=    0.000
INTER + INTRA:          -6.322
INTER:                  -6.322
INTRA:                   0.000
UNBOUND:                 0.000

$$$$

     RDKit          3D

 26 27  0  0  0  0  0  0  0  0999 V2000
   48.8912    3.9818   17.5313 N   0  0  0  0  0  0  0  0  0  0  0  0
   47.5634    4.2017   17.7334 C   0  0  0  0  0  0  0  0  0  0  0  0
   49.4218    2.6468   17.2281 C   0  0  0  0  0  0  0  0  0  0  0  0
   50.8880    2.4810   17.5850 C   0  0  0  0  0  0  0  0  0  0  0  0
   47.0391    5.1948   18.3618 N   0  0  0  0  0  0  0  0  0  0  0  0
   49.8329    5.0780   17.3027 C   0  0  0  0  0  0  0  0  0  0  0  0
   51.6708    3.5579   18.0406 C   0  0  0  0  0  0  0  0  0  0  0  0
   51.0449    4.9170   18.2166 C   0  0  0  0  0  0  0  0  0  0  0  0
   46.7167    3.2848   17.2218 N   0  0  0  0  0  0  0  0  0  0  0  0
   51.4846    1.2177   17.4437 C   0  0  0  0  0  0  0  0  0  0  0  0
   53.0162    3.3528   18.3747 C   0  0  0  0  0  0  0  0  0  0  0  0
   52.8287    1.0254   17.7644 C   0  0  0  0  0  0  0  0  0  0  0  0
   53.5927    2.0914   18.2321 C   0  0  0  0  0  0  0  0  0  0  0  0
   49.2986    2.4482   16.1564 H   0  0  0  0  0  0  0  0  0  0  0  0
   48.8600    1.8906   17.7909 H   0  0  0  0  0  0  0  0  0  0  0  0
   47.7882    5.7684   18.7503 H   0  0  0  0  0  0  0  0  0  0  0  0
   50.1426    5.0685   16.2492 H   0  0  0  0  0  0  0  0  0  0  0  0
   49.3788    6.0592   17.4775 H   0  0  0  0  0  0  0  0  0  0  0  0
   50.7451    5.0292   19.2655 H   0  0  0  0  0  0  0  0  0  0  0  0
   51.7737    5.7020   17.9839 H   0  0  0  0  0  0  0  0  0  0  0  0
   46.8845    3.1050   16.2416 H   0  0  0  0  0  0  0  0  0  0  0  0
   45.7663    3.6186   17.3553 H   0  0  0  0  0  0  0  0  0  0  0  0
   50.8992    0.3719   17.0885 H   0  0  0  0  0  0  0  0  0  0  0  0
   53.6218    4.1753   18.7485 H   0  0  0  0  0  0  0  0  0  0  0  0
   53.2781    0.0417   17.6560 H   0  0  0  0  0  0  0  0  0  0  0  0
   54.6375    1.9395   18.4902 H   0  0  0  0  0  0  0  0  0  0  0  0
  2  1  1  0
  3  1  1  0
  4  3  1  0
  5  2  2  3
  6  1  1  0
  7  8  1  0
  8  6  1  0
  9  2  1  0
 10  4  2  0
 11  7  2  0
 12 10  1  0
 13 11  1  0
  4  7  1  0
 12 13  2  0
  3 14  1  0
  3 15  1  0
  5 16  1  0
  6 17  1  0
  6 18  1  0
  8 19  1  0
  8 20  1  0
  9 21  1  0
  9 22  1  0
 10 23  1  0
 11 24  1  0
 12 25  1  0
 13 26  1  0
M  END
> <Uni-Dock RESULT> 
ENERGY=   -3.832  LOWER_BOUND=    9.474  UPPER_BOUND=   10.365
INTER + INTRA:          -3.832
INTER:                  -3.832
INTRA:                   0.000
UNBOUND:                 0.000

$$$$

     RDKit          3D

 26 27  0  0  0  0  0  0  0  0999 V2000
   44.8989    4.0361   10.7300 N   0  0  0  0  0  0  0  0  0  0  0  0
   44.5708    3.3933    9.5762 C   0  0  0  0  0  0  0  0  0  0  0  0
   45.3147    5.4441   10.7454 C   0  0  0  0  0  0  0  0  0  0  0  0
   46.1510    5.8167   11.9565 C   0  0  0  0  0  0  0  0  0  0  0  0
   44.5702    2.1211    9.3825 N   0  0  0  0  0  0  0  0  0  0  0  0
   44.5777    3.4813   12.0452 C   0  0  0  0  0  0  0  0  0  0  0  0
   46.3809    4.9131   13.0103 C   0  0  0  0  0  0  0  0  0  0  0  0
   45.8153    3.5185   12.9379 C   0  0  0  0  0  0  0  0  0  0  0  0
   44.2108    4.1715    8.5350 N   0  0  0  0  0  0  0  0  0  0  0  0
   46.7008    7.1065   12.0336 C   0  0  0  0  0  0  0  0  0  0  0  0
   47.1743    5.2963   14.1001 C   0  0  0  0  0  0  0  0  0  0  0  0
   47.4772    7.4850   13.1293 C   0  0  0  0  0  0  0  0  0  0  0  0
   47.7159    6.5795   14.1598 C   0  0  0  0  0  0  0  0  0  0  0  0
   44.4217    6.0808   10.7285 H   0  0  0  0  0  0  0  0  0  0  0  0
   45.9156    5.6605    9.8532 H   0  0  0  0  0  0  0  0  0  0  0  0
   44.9242    1.6621   10.2222 H   0  0  0  0  0  0  0  0  0  0  0  0
   43.7646    4.0691   12.4916 H   0  0  0  0  0  0  0  0  0  0  0  0
   44.2100    2.4514   11.9833 H   0  0  0  0  0  0  0  0  0  0  0  0
   46.5882    2.8493   12.5410 H   0  0  0  0  0  0  0  0  0  0  0  0
   45.5426    3.1685   13.9402 H   0  0  0  0  0  0  0  0  0  0  0  0
   43.4818    4.8290    8.7750 H   0  0  0  0  0  0  0  0  0  0  0  0
   43.8986    3.5686    7.7789 H   0  0  0  0  0  0  0  0  0  0  0  0
   46.5317    7.8230   11.2323 H   0  0  0  0  0  0  0  0  0  0  0  0
   47.3748    4.5960   14.9078 H   0  0  0  0  0  0  0  0  0  0  0  0
   47.9019    8.4844   13.1753 H   0  0  0  0  0  0  0  0  0  0  0  0
   48.3280    6.8717   15.0091 H   0  0  0  0  0  0  0  0  0  0  0  0
  2  1  1  0
  3  1  1  0
  4  3  1  0
  5  2  2  3
  6  1  1  0
  7  8  1  0
  8  6  1  0
  9  2  1  0
 10  4  2  0
 11  7  2  0
 12 10  1  0
 13 11  1  0
  4  7  1  0
 12 13  2  0
  3 14  1  0
  3 15  1  0
  5 16  1  0
  6 17  1  0
  6 18  1  0
  8 19  1  0
  8 20  1  0
  9 21  1  0
  9 22  1  0
 10 23  1  0
 11 24  1  0
 12 25  1  0
 13 26  1  0
M  END
> <Uni-Dock RESULT> 
ENERGY=   -3.516  LOWER_BOUND=    3.503  UPPER_BOUND=    5.550
INTER + INTRA:          -3.516
INTER:                  -3.516
INTRA:                   0.000
UNBOUND:                 0.000

$$$$

     RDKit          3D

 26 27  0  0  0  0  0  0  0  0999 V2000
   44.2693    5.5278   12.4985 N   0  0  0  0  0  0  0  0  0  0  0  0
   43.1471    5.0188   11.9207 C   0  0  0  0  0  0  0  0  0  0  0  0
   44.5891    6.9600   12.4492 C   0  0  0  0  0  0  0  0  0  0  0  0
   46.0675    7.2580   12.6232 C   0  0  0  0  0  0  0  0  0  0  0  0
   42.9555    3.7965   11.5670 N   0  0  0  0  0  0  0  0  0  0  0  0
   45.0682    4.7576   13.4520 C   0  0  0  0  0  0  0  0  0  0  0  0
   47.0003    6.2499   12.9293 C   0  0  0  0  0  0  0  0  0  0  0  0
   46.5422    4.8206   13.0606 C   0  0  0  0  0  0  0  0  0  0  0  0
   42.1380    5.8859   11.6988 N   0  0  0  0  0  0  0  0  0  0  0  0
   46.5158    8.5818   12.4876 C   0  0  0  0  0  0  0  0  0  0  0  0
   48.3580    6.5702   13.0633 C   0  0  0  0  0  0  0  0  0  0  0  0
   47.8672    8.8945   12.6374 C   0  0  0  0  0  0  0  0  0  0  0  0
   48.7874    7.8890   12.9221 C   0  0  0  0  0  0  0  0  0  0  0  0
   44.0330    7.4777   13.2404 H   0  0  0  0  0  0  0  0  0  0  0  0
   44.2836    7.3725   11.4794 H   0  0  0  0  0  0  0  0  0  0  0  0
   43.8149    3.2707   11.7283 H   0  0  0  0  0  0  0  0  0  0  0  0
   44.9202    5.1720   14.4581 H   0  0  0  0  0  0  0  0  0  0  0  0
   44.7550    3.7095   13.5055 H   0  0  0  0  0  0  0  0  0  0  0  0
   46.7006    4.3145   12.1007 H   0  0  0  0  0  0  0  0  0  0  0  0
   47.1358    4.3017   13.8221 H   0  0  0  0  0  0  0  0  0  0  0  0
   41.8854    6.4081   12.5264 H   0  0  0  0  0  0  0  0  0  0  0  0
   41.3355    5.3620   11.3611 H   0  0  0  0  0  0  0  0  0  0  0  0
   45.8111    9.3779   12.2558 H   0  0  0  0  0  0  0  0  0  0  0  0
   49.0879    5.7930   13.2779 H   0  0  0  0  0  0  0  0  0  0  0  0
   48.2032    9.9221   12.5248 H   0  0  0  0  0  0  0  0  0  0  0  0
   49.8414    8.1315   13.0301 H   0  0  0  0  0  0  0  0  0  0  0  0
  2  1  1  0
  3  1  1  0
  4  3  1  0
  5  2  2  3
  6  1  1  0
  7  8  1  0
  8  6  1  0
  9  2  1  0
 10  4  2  0
 11  7  2  0
 12 10  1  0
 13 11  1  0
  4  7  1  0
 12 13  2  0
  3 14  1  0
  3 15  1  0
  5 16  1  0
  6 17  1  0
  6 18  1  0
  8 19  1  0
  8 20  1  0
  9 21  1  0
  9 22  1  0
 10 23  1  0
 11 24  1  0
 12 25  1  0
 13 26  1  0
M  END
> <Uni-Dock RESULT> 
ENERGY=   -3.502  LOWER_BOUND=    4.808  UPPER_BOUND=    6.082
INTER + INTRA:          -3.502
INTER:                  -3.502
INTRA:                   0.000
UNBOUND:                 0.000

$$$$

     RDKit          3D

 26 27  0  0  0  0  0  0  0  0999 V2000
   45.3526    5.1605   12.9327 N   0  0  0  0  0  0  0  0  0  0  0  0
   44.7452    3.9809   12.6299 C   0  0  0  0  0  0  0  0  0  0  0  0
   44.6859    6.4533   12.7326 C   0  0  0  0  0  0  0  0  0  0  0  0
   45.6499    7.6161   12.5802 C   0  0  0  0  0  0  0  0  0  0  0  0
   45.3281    2.8575   12.3975 N   0  0  0  0  0  0  0  0  0  0  0  0
   46.5674    5.2210   13.7459 C   0  0  0  0  0  0  0  0  0  0  0  0
   47.0384    7.4604   12.7479 C   0  0  0  0  0  0  0  0  0  0  0  0
   47.6075    6.1000   13.0564 C   0  0  0  0  0  0  0  0  0  0  0  0
   43.3978    3.9960   12.5688 N   0  0  0  0  0  0  0  0  0  0  0  0
   45.1395    8.8884   12.2759 C   0  0  0  0  0  0  0  0  0  0  0  0
   47.8910    8.5598   12.5801 C   0  0  0  0  0  0  0  0  0  0  0  0
   45.9941    9.9809   12.1252 C   0  0  0  0  0  0  0  0  0  0  0  0
   47.3686    9.8157   12.2744 C   0  0  0  0  0  0  0  0  0  0  0  0
   44.0299    6.6534   13.5886 H   0  0  0  0  0  0  0  0  0  0  0  0
   44.0728    6.4147   11.8234 H   0  0  0  0  0  0  0  0  0  0  0  0
   46.3377    3.0040   12.4097 H   0  0  0  0  0  0  0  0  0  0  0  0
   46.3153    5.6279   14.7342 H   0  0  0  0  0  0  0  0  0  0  0  0
   46.9969    4.2296   13.9257 H   0  0  0  0  0  0  0  0  0  0  0  0
   47.9312    5.6366   12.1166 H   0  0  0  0  0  0  0  0  0  0  0  0
   48.4829    6.1955   13.7092 H   0  0  0  0  0  0  0  0  0  0  0  0
   42.9756    4.3910   13.3976 H   0  0  0  0  0  0  0  0  0  0  0  0
   43.0737    3.0421   12.4356 H   0  0  0  0  0  0  0  0  0  0  0  0
   44.0687    9.0326   12.1466 H   0  0  0  0  0  0  0  0  0  0  0  0
   48.9671    8.4426   12.6862 H   0  0  0  0  0  0  0  0  0  0  0  0
   45.5878   10.9598   11.8843 H   0  0  0  0  0  0  0  0  0  0  0  0
   48.0350   10.6651   12.1483 H   0  0  0  0  0  0  0  0  0  0  0  0
  2  1  1  0
  3  1  1  0
  4  3  1  0
  5  2  2  3
  6  1  1  0
  7  8  1  0
  8  6  1  0
  9  2  1  0
 10  4  2  0
 11  7  2  0
 12 10  1  0
 13 11  1  0
  4  7  1  0
 12 13  2  0
  3 14  1  0
  3 15  1  0
  5 16  1  0
  6 17  1  0
  6 18  1  0
  8 19  1  0
  8 20  1  0
  9 21  1  0
  9 22  1  0
 10 23  1  0
 11 24  1  0
 12 25  1  0
 13 26  1  0
M  END
> <Uni-Dock RESULT> 
ENERGY=   -3.489  LOWER_BOUND=    4.651  UPPER_BOUND=    6.431
INTER + INTRA:          -3.489
INTER:                  -3.489
INTRA:                   0.000
UNBOUND:                 0.000

$$$$

     RDKit          3D

 26 27  0  0  0  0  0  0  0  0999 V2000
   46.9488    7.3982   13.4018 N   0  0  0  0  0  0  0  0  0  0  0  0
   47.5773    8.4449   14.0031 C   0  0  0  0  0  0  0  0  0  0  0  0
   45.8227    7.5920   12.4798 C   0  0  0  0  0  0  0  0  0  0  0  0
   44.9209    6.3767   12.3595 C   0  0  0  0  0  0  0  0  0  0  0  0
   48.2823    8.3988   15.0787 N   0  0  0  0  0  0  0  0  0  0  0  0
   47.5244    6.0531   13.3863 C   0  0  0  0  0  0  0  0  0  0  0  0
   45.2306    5.1538   12.9829 C   0  0  0  0  0  0  0  0  0  0  0  0
   46.4739    5.0366   13.8257 C   0  0  0  0  0  0  0  0  0  0  0  0
   47.4454    9.6484   13.4085 N   0  0  0  0  0  0  0  0  0  0  0  0
   43.7488    6.4718   11.5920 C   0  0  0  0  0  0  0  0  0  0  0  0
   44.3585    4.0640   12.8577 C   0  0  0  0  0  0  0  0  0  0  0  0
   42.8934    5.3775   11.4603 C   0  0  0  0  0  0  0  0  0  0  0  0
   43.1969    4.1759   12.0950 C   0  0  0  0  0  0  0  0  0  0  0  0
   46.2137    7.8366   11.4845 H   0  0  0  0  0  0  0  0  0  0  0  0
   45.2020    8.4276   12.8270 H   0  0  0  0  0  0  0  0  0  0  0  0
   48.2423    7.4515   15.4557 H   0  0  0  0  0  0  0  0  0  0  0  0
   47.8761    5.8272   12.3709 H   0  0  0  0  0  0  0  0  0  0  0  0
   48.4009    5.9687   14.0377 H   0  0  0  0  0  0  0  0  0  0  0  0
   46.2008    5.2044   14.8745 H   0  0  0  0  0  0  0  0  0  0  0  0
   46.8955    4.0284   13.7398 H   0  0  0  0  0  0  0  0  0  0  0  0
   47.6883    9.6261   12.4278 H   0  0  0  0  0  0  0  0  0  0  0  0
   48.0387   10.3127   13.8976 H   0  0  0  0  0  0  0  0  0  0  0  0
   43.4922    7.4064   11.0973 H   0  0  0  0  0  0  0  0  0  0  0  0
   44.5799    3.1223   13.3548 H   0  0  0  0  0  0  0  0  0  0  0  0
   41.9863    5.4648   10.8679 H   0  0  0  0  0  0  0  0  0  0  0  0
   42.5259    3.3261   11.9995 H   0  0  0  0  0  0  0  0  0  0  0  0
  2  1  1  0
  3  1  1  0
  4  3  1  0
  5  2  2  3
  6  1  1  0
  7  8  1  0
  8  6  1  0
  9  2  1  0
 10  4  2  0
 11  7  2  0
 12 10  1  0
 13 11  1  0
  4  7  1  0
 12 13  2  0
  3 14  1  0
  3 15  1  0
  5 16  1  0
  6 17  1  0
  6 18  1  0
  8 19  1  0
  8 20  1  0
  9 21  1  0
  9 22  1  0
 10 23  1  0
 11 24  1  0
 12 25  1  0
 13 26  1  0
M  END
> <Uni-Dock RESULT> 
ENERGY=   -3.428  LOWER_BOUND=    5.457  UPPER_BOUND=    6.740
INTER + INTRA:          -3.428
INTER:                  -3.428
INTRA:                   0.000
UNBOUND:                 0.000

$$$$

     RDKit          3D

 26 27  0  0  0  0  0  0  0  0999 V2000
   44.5124    5.6894   12.2244 N   0  0  0  0  0  0  0  0  0  0  0  0
   43.3326    5.0150   12.1528 C   0  0  0  0  0  0  0  0  0  0  0  0
   45.6612    5.1705   12.9772 C   0  0  0  0  0  0  0  0  0  0  0  0
   46.6389    6.2477   13.4113 C   0  0  0  0  0  0  0  0  0  0  0  0
   42.1808    5.5153   11.8715 N   0  0  0  0  0  0  0  0  0  0  0  0
   44.8237    6.8047   11.3300 C   0  0  0  0  0  0  0  0  0  0  0  0
   46.4994    7.5882   13.0066 C   0  0  0  0  0  0  0  0  0  0  0  0
   45.3330    7.9921   12.1427 C   0  0  0  0  0  0  0  0  0  0  0  0
   43.3803    3.6902   12.4020 N   0  0  0  0  0  0  0  0  0  0  0  0
   47.7228    5.8934   14.2308 C   0  0  0  0  0  0  0  0  0  0  0  0
   47.4173    8.5512   13.4472 C   0  0  0  0  0  0  0  0  0  0  0  0
   48.6406    6.8557   14.6527 C   0  0  0  0  0  0  0  0  0  0  0  0
   48.4860    8.1837   14.2634 C   0  0  0  0  0  0  0  0  0  0  0  0
   46.1969    4.4429   12.3553 H   0  0  0  0  0  0  0  0  0  0  0  0
   45.3086    4.6633   13.8841 H   0  0  0  0  0  0  0  0  0  0  0  0
   42.2784    6.5263   11.7737 H   0  0  0  0  0  0  0  0  0  0  0  0
   45.5835    6.4806   10.6065 H   0  0  0  0  0  0  0  0  0  0  0  0
   43.9561    7.1188   10.7398 H   0  0  0  0  0  0  0  0  0  0  0  0
   44.5362    8.3765   12.7909 H   0  0  0  0  0  0  0  0  0  0  0  0
   45.6306    8.7930   11.4560 H   0  0  0  0  0  0  0  0  0  0  0  0
   44.0762    3.2147   11.8444 H   0  0  0  0  0  0  0  0  0  0  0  0
   42.4613    3.2976   12.2183 H   0  0  0  0  0  0  0  0  0  0  0  0
   47.8528    4.8618   14.5517 H   0  0  0  0  0  0  0  0  0  0  0  0
   47.3034    9.5931   13.1567 H   0  0  0  0  0  0  0  0  0  0  0  0
   49.4727    6.5704   15.2912 H   0  0  0  0  0  0  0  0  0  0  0  0
   49.1962    8.9348   14.5993 H   0  0  0  0  0  0  0  0  0  0  0  0
  2  1  1  0
  3  1  1  0
  4  3  1  0
  5  2  2  3
  6  1  1  0
  7  8  1  0
  8  6  1  0
  9  2  1  0
 10  4  2  0
 11  7  2  0
 12 10  1  0
 13 11  1  0
  4  7  1  0
 12 13  2  0
  3 14  1  0
  3 15  1  0
  5 16  1  0
  6 17  1  0
  6 18  1  0
  8 19  1  0
  8 20  1  0
  9 21  1  0
  9 22  1  0
 10 23  1  0
 11 24  1  0
 12 25  1  0
 13 26  1  0
M  END
> <Uni-Dock RESULT> 
ENERGY=   -3.428  LOWER_BOUND=    4.794  UPPER_BOUND=    6.161
INTER + INTRA:          -3.428
INTER:                  -3.428
INTRA:                   0.000
UNBOUND:                 0.000

$$$$
