
     RDKit          3D

 26 27  0  0  0  0  0  0  0  0999 V2000
   44.8167    4.4187    9.7081 N   0  0  0  0  0  0  0  0  0  0  0  0
   44.3877    5.4323   10.5148 C   0  0  0  0  0  0  0  0  0  0  0  0
   45.6178    4.7430    8.5167 C   0  0  0  0  0  0  0  0  0  0  0  0
   46.2300    3.5421    7.8235 C   0  0  0  0  0  0  0  0  0  0  0  0
   45.0849    6.4425   10.9020 N   0  0  0  0  0  0  0  0  0  0  0  0
   44.1109    3.1338    9.6403 C   0  0  0  0  0  0  0  0  0  0  0  0
   45.9819    2.2281    8.2533 C   0  0  0  0  0  0  0  0  0  0  0  0
   45.1087    1.9925    9.4548 C   0  0  0  0  0  0  0  0  0  0  0  0
   43.1109    5.3715   10.9446 N   0  0  0  0  0  0  0  0  0  0  0  0
   47.0627    3.7482    6.7113 C   0  0  0  0  0  0  0  0  0  0  0  0
   46.5866    1.1491    7.5946 C   0  0  0  0  0  0  0  0  0  0  0  0
   47.6491    2.6683    6.0506 C   0  0  0  0  0  0  0  0  0  0  0  0
   47.4135    1.3699    6.4942 C   0  0  0  0  0  0  0  0  0  0  0  0
   44.9752    5.2663    7.7975 H   0  0  0  0  0  0  0  0  0  0  0  0
   46.4405    5.4136    8.7893 H   0  0  0  0  0  0  0  0  0  0  0  0
   46.0434    6.3265   10.5709 H   0  0  0  0  0  0  0  0  0  0  0  0
   43.5539    2.9353   10.5638 H   0  0  0  0  0  0  0  0  0  0  0  0
   43.3849    3.1574    8.8173 H   0  0  0  0  0  0  0  0  0  0  0  0
   45.7518    1.9061   10.3392 H   0  0  0  0  0  0  0  0  0  0  0  0
   44.5565    1.0522    9.3438 H   0  0  0  0  0  0  0  0  0  0  0  0
   42.4496    5.2110   10.1980 H   0  0  0  0  0  0  0  0  0  0  0  0
   42.8915    6.2342   11.4337 H   0  0  0  0  0  0  0  0  0  0  0  0
   47.2636    4.7570    6.3562 H   0  0  0  0  0  0  0  0  0  0  0  0
   46.4163    0.1307    7.9366 H   0  0  0  0  0  0  0  0  0  0  0  0
   48.2950    2.8405    5.1935 H   0  0  0  0  0  0  0  0  0  0  0  0
   47.8768    0.5287    5.9853 H   0  0  0  0  0  0  0  0  0  0  0  0
  2  1  1  0
  3  1  1  0
  4  3  1  0
  5  2  2  3
  6  1  1  0
  7  8  1  0
  8  6  1  0
  9  2  1  0
 10  4  2  0
 11  7  2  0
 12 10  1  0
 13 11  1  0
  4  7  1  0
 12 13  2  0
  3 14  1  0
  3 15  1  0
  5 16  1  0
  6 17  1  0
  6 18  1  0
  8 19  1  0
  8 20  1  0
  9 21  1  0
  9 22  1  0
 10 23  1  0
 11 24  1  0
 12 25  1  0
 13 26  1  0
M  END
> <Uni-Dock RESULT> 
ENERGY=   -5.465  LOWER_BOUND=    0.000  UPPER_BOUND=    0.000
INTER + INTRA:          -5.465
INTER:                  -5.465
INTRA:                   0.000
UNBOUND:                 0.000

$$$$

     RDKit          3D

 26 27  0  0  0  0  0  0  0  0999 V2000
   44.5515    3.2116   10.2537 N   0  0  0  0  0  0  0  0  0  0  0  0
   43.7023    3.0530   11.3100 C   0  0  0  0  0  0  0  0  0  0  0  0
   45.2338    2.0304    9.7009 C   0  0  0  0  0  0  0  0  0  0  0  0
   45.9690    2.2797    8.3991 C   0  0  0  0  0  0  0  0  0  0  0  0
   42.8238    2.1222   11.4458 N   0  0  0  0  0  0  0  0  0  0  0  0
   45.2260    4.4880    9.9895 C   0  0  0  0  0  0  0  0  0  0  0  0
   46.0446    3.5570    7.8197 C   0  0  0  0  0  0  0  0  0  0  0  0
   45.3542    4.7158    8.4847 C   0  0  0  0  0  0  0  0  0  0  0  0
   43.7944    3.9553   12.3080 N   0  0  0  0  0  0  0  0  0  0  0  0
   46.6027    1.2031    7.7571 C   0  0  0  0  0  0  0  0  0  0  0  0
   46.7175    3.7366    6.6037 C   0  0  0  0  0  0  0  0  0  0  0  0
   47.2842    1.3920    6.5543 C   0  0  0  0  0  0  0  0  0  0  0  0
   47.3386    2.6576    5.9767 C   0  0  0  0  0  0  0  0  0  0  0  0
   45.9573    1.6683   10.4420 H   0  0  0  0  0  0  0  0  0  0  0  0
   44.5078    1.2311    9.5147 H   0  0  0  0  0  0  0  0  0  0  0  0
   42.8076    1.5590   10.5947 H   0  0  0  0  0  0  0  0  0  0  0  0
   44.6593    5.3315   10.4016 H   0  0  0  0  0  0  0  0  0  0  0  0
   46.2122    4.4880   10.4714 H   0  0  0  0  0  0  0  0  0  0  0  0
   44.3606    4.8320    8.0348 H   0  0  0  0  0  0  0  0  0  0  0  0
   45.9152    5.6415    8.3120 H   0  0  0  0  0  0  0  0  0  0  0  0
   44.7412    4.0893   12.6337 H   0  0  0  0  0  0  0  0  0  0  0  0
   43.1952    3.6569   13.0719 H   0  0  0  0  0  0  0  0  0  0  0  0
   46.5634    0.2059    8.1908 H   0  0  0  0  0  0  0  0  0  0  0  0
   46.7603    4.7190    6.1387 H   0  0  0  0  0  0  0  0  0  0  0  0
   47.7674    0.5503    6.0647 H   0  0  0  0  0  0  0  0  0  0  0  0
   47.8620    2.8038    5.0354 H   0  0  0  0  0  0  0  0  0  0  0  0
  2  1  1  0
  3  1  1  0
  4  3  1  0
  5  2  2  3
  6  1  1  0
  7  8  1  0
  8  6  1  0
  9  2  1  0
 10  4  2  0
 11  7  2  0
 12 10  1  0
 13 11  1  0
  4  7  1  0
 12 13  2  0
  3 14  1  0
  3 15  1  0
  5 16  1  0
  6 17  1  0
  6 18  1  0
  8 19  1  0
  8 20  1  0
  9 21  1  0
  9 22  1  0
 10 23  1  0
 11 24  1  0
 12 25  1  0
 13 26  1  0
M  END
> <Uni-Dock RESULT> 
ENERGY=   -5.022  LOWER_BOUND=    1.312  UPPER_BOUND=    2.495
INTER + INTRA:          -5.022
INTER:                  -5.022
INTRA:                   0.000
UNBOUND:                 0.000

$$$$

     RDKit          3D

 26 27  0  0  0  0  0  0  0  0999 V2000
   46.1526    2.5921    7.9979 N   0  0  0  0  0  0  0  0  0  0  0  0
   46.8724    1.7236    7.2300 C   0  0  0  0  0  0  0  0  0  0  0  0
   45.2093    2.0552    8.9920 C   0  0  0  0  0  0  0  0  0  0  0  0
   44.6363    3.0901    9.9395 C   0  0  0  0  0  0  0  0  0  0  0  0
   47.4621    0.6556    7.6401 N   0  0  0  0  0  0  0  0  0  0  0  0
   45.8583    3.9583    7.5498 C   0  0  0  0  0  0  0  0  0  0  0  0
   44.9349    4.4572    9.8176 C   0  0  0  0  0  0  0  0  0  0  0  0
   45.8741    4.9184    8.7375 C   0  0  0  0  0  0  0  0  0  0  0  0
   46.9729    2.0097    5.9160 N   0  0  0  0  0  0  0  0  0  0  0  0
   43.7722    2.6714   10.9648 C   0  0  0  0  0  0  0  0  0  0  0  0
   44.3986    5.3760   10.7298 C   0  0  0  0  0  0  0  0  0  0  0  0
   43.2295    3.5937   11.8601 C   0  0  0  0  0  0  0  0  0  0  0  0
   43.5453    4.9447   11.7442 C   0  0  0  0  0  0  0  0  0  0  0  0
   44.3778    1.5769    8.4594 H   0  0  0  0  0  0  0  0  0  0  0  0
   45.7041    1.2937    9.6052 H   0  0  0  0  0  0  0  0  0  0  0  0
   47.3716    0.5994    8.6552 H   0  0  0  0  0  0  0  0  0  0  0  0
   46.6075    4.3128    6.8318 H   0  0  0  0  0  0  0  0  0  0  0  0
   44.8842    3.9763    7.0441 H   0  0  0  0  0  0  0  0  0  0  0  0
   46.8846    4.9797    9.1596 H   0  0  0  0  0  0  0  0  0  0  0  0
   45.5905    5.9185    8.3897 H   0  0  0  0  0  0  0  0  0  0  0  0
   46.0807    2.2057    5.4847 H   0  0  0  0  0  0  0  0  0  0  0  0
   47.4300    1.2325    5.4484 H   0  0  0  0  0  0  0  0  0  0  0  0
   43.5212    1.6183   11.0743 H   0  0  0  0  0  0  0  0  0  0  0  0
   44.6440    6.4330   10.6542 H   0  0  0  0  0  0  0  0  0  0  0  0
   42.5653    3.2572   12.6519 H   0  0  0  0  0  0  0  0  0  0  0  0
   43.1297    5.6626   12.4465 H   0  0  0  0  0  0  0  0  0  0  0  0
  2  1  1  0
  3  1  1  0
  4  3  1  0
  5  2  2  3
  6  1  1  0
  7  8  1  0
  8  6  1  0
  9  2  1  0
 10  4  2  0
 11  7  2  0
 12 10  1  0
 13 11  1  0
  4  7  1  0
 12 13  2  0
  3 14  1  0
  3 15  1  0
  5 16  1  0
  6 17  1  0
  6 18  1  0
  8 19  1  0
  8 20  1  0
  9 21  1  0
  9 22  1  0
 10 23  1  0
 11 24  1  0
 12 25  1  0
 13 26  1  0
M  END
> <Uni-Dock RESULT> 
ENERGY=   -4.755  LOWER_BOUND=    2.357  UPPER_BOUND=    5.212
INTER + INTRA:          -4.755
INTER:                  -4.755
INTRA:                   0.000
UNBOUND:                 0.000

$$$$

     RDKit          3D

 26 27  0  0  0  0  0  0  0  0999 V2000
   46.3963    2.8036    7.2625 N   0  0  0  0  0  0  0  0  0  0  0  0
   47.0590    2.7479    6.0709 C   0  0  0  0  0  0  0  0  0  0  0  0
   46.2154    4.1080    7.9200 C   0  0  0  0  0  0  0  0  0  0  0  0
   45.2774    4.0884    9.1104 C   0  0  0  0  0  0  0  0  0  0  0  0
   46.9068    3.5529    5.0783 N   0  0  0  0  0  0  0  0  0  0  0  0
   46.3319    1.6485    8.1655 C   0  0  0  0  0  0  0  0  0  0  0  0
   44.6948    2.8995    9.5795 C   0  0  0  0  0  0  0  0  0  0  0  0
   44.9776    1.6041    8.8700 C   0  0  0  0  0  0  0  0  0  0  0  0
   47.9614    1.7571    5.9201 N   0  0  0  0  0  0  0  0  0  0  0  0
   44.9895    5.2939    9.7714 C   0  0  0  0  0  0  0  0  0  0  0  0
   43.8165    2.9323   10.6710 C   0  0  0  0  0  0  0  0  0  0  0  0
   44.1262    5.3169   10.8672 C   0  0  0  0  0  0  0  0  0  0  0  0
   43.5379    4.1371   11.3145 C   0  0  0  0  0  0  0  0  0  0  0  0
   47.1959    4.4654    8.2589 H   0  0  0  0  0  0  0  0  0  0  0  0
   45.8159    4.8360    7.2050 H   0  0  0  0  0  0  0  0  0  0  0  0
   46.1485    4.2011    5.2942 H   0  0  0  0  0  0  0  0  0  0  0  0
   46.4470    0.7061    7.6166 H   0  0  0  0  0  0  0  0  0  0  0  0
   47.1510    1.7066    8.8939 H   0  0  0  0  0  0  0  0  0  0  0  0
   44.1782    1.4268    8.1401 H   0  0  0  0  0  0  0  0  0  0  0  0
   44.9755    0.7723    9.5839 H   0  0  0  0  0  0  0  0  0  0  0  0
   48.6133    1.6957    6.6894 H   0  0  0  0  0  0  0  0  0  0  0  0
   48.4572    1.8999    5.0453 H   0  0  0  0  0  0  0  0  0  0  0  0
   45.4348    6.2262    9.4301 H   0  0  0  0  0  0  0  0  0  0  0  0
   43.3447    2.0183   11.0248 H   0  0  0  0  0  0  0  0  0  0  0  0
   43.9078    6.2565   11.3681 H   0  0  0  0  0  0  0  0  0  0  0  0
   42.8586    4.1555   12.1628 H   0  0  0  0  0  0  0  0  0  0  0  0
  2  1  1  0
  3  1  1  0
  4  3  1  0
  5  2  2  3
  6  1  1  0
  7  8  1  0
  8  6  1  0
  9  2  1  0
 10  4  2  0
 11  7  2  0
 12 10  1  0
 13 11  1  0
  4  7  1  0
 12 13  2  0
  3 14  1  0
  3 15  1  0
  5 16  1  0
  6 17  1  0
  6 18  1  0
  8 19  1  0
  8 20  1  0
  9 21  1  0
  9 22  1  0
 10 23  1  0
 11 24  1  0
 12 25  1  0
 13 26  1  0
M  END
> <Uni-Dock RESULT> 
ENERGY=   -4.411  LOWER_BOUND=    2.444  UPPER_BOUND=    4.765
INTER + INTRA:          -4.411
INTER:                  -4.411
INTRA:                   0.000
UNBOUND:                 0.000

$$$$

     RDKit          3D

 26 27  0  0  0  0  0  0  0  0999 V2000
   44.4177    5.1546   12.3261 N   0  0  0  0  0  0  0  0  0  0  0  0
   43.1582    4.8346   11.9093 C   0  0  0  0  0  0  0  0  0  0  0  0
   44.9921    6.4523   11.9358 C   0  0  0  0  0  0  0  0  0  0  0  0
   46.2916    6.8011   12.6337 C   0  0  0  0  0  0  0  0  0  0  0  0
   42.1353    5.6158   11.9123 N   0  0  0  0  0  0  0  0  0  0  0  0
   45.4064    4.1228   12.6601 C   0  0  0  0  0  0  0  0  0  0  0  0
   46.9206    5.9138   13.5225 C   0  0  0  0  0  0  0  0  0  0  0  0
   46.2810    4.5865   13.8232 C   0  0  0  0  0  0  0  0  0  0  0  0
   42.9680    3.5820   11.4476 N   0  0  0  0  0  0  0  0  0  0  0  0
   46.8908    8.0452   12.3767 C   0  0  0  0  0  0  0  0  0  0  0  0
   48.1107    6.2876   14.1613 C   0  0  0  0  0  0  0  0  0  0  0  0
   48.0839    8.4046   13.0045 C   0  0  0  0  0  0  0  0  0  0  0  0
   48.6914    7.5273   13.8985 C   0  0  0  0  0  0  0  0  0  0  0  0
   45.1737    6.4408   10.8538 H   0  0  0  0  0  0  0  0  0  0  0  0
   44.2815    7.2575   12.1535 H   0  0  0  0  0  0  0  0  0  0  0  0
   42.3974    6.4987   12.3522 H   0  0  0  0  0  0  0  0  0  0  0  0
   44.9203    3.1890   12.9674 H   0  0  0  0  0  0  0  0  0  0  0  0
   46.0166    3.8998   11.7754 H   0  0  0  0  0  0  0  0  0  0  0  0
   45.6758    4.6911   14.7319 H   0  0  0  0  0  0  0  0  0  0  0  0
   47.0502    3.8290   14.0133 H   0  0  0  0  0  0  0  0  0  0  0  0
   43.6492    3.3088   10.7535 H   0  0  0  0  0  0  0  0  0  0  0  0
   42.0282    3.5150   11.0681 H   0  0  0  0  0  0  0  0  0  0  0  0
   46.4252    8.7460   11.6866 H   0  0  0  0  0  0  0  0  0  0  0  0
   48.5907    5.6139   14.8676 H   0  0  0  0  0  0  0  0  0  0  0  0
   48.5360    9.3718   12.8007 H   0  0  0  0  0  0  0  0  0  0  0  0
   49.6163    7.8100   14.3945 H   0  0  0  0  0  0  0  0  0  0  0  0
  2  1  1  0
  3  1  1  0
  4  3  1  0
  5  2  2  3
  6  1  1  0
  7  8  1  0
  8  6  1  0
  9  2  1  0
 10  4  2  0
 11  7  2  0
 12 10  1  0
 13 11  1  0
  4  7  1  0
 12 13  2  0
  3 14  1  0
  3 15  1  0
  5 16  1  0
  6 17  1  0
  6 18  1  0
  8 19  1  0
  8 20  1  0
  9 21  1  0
  9 22  1  0
 10 23  1  0
 11 24  1  0
 12 25  1  0
 13 26  1  0
M  END
> <Uni-Dock RESULT> 
ENERGY=   -3.621  LOWER_BOUND=    4.623  UPPER_BOUND=    5.906
INTER + INTRA:          -3.621
INTER:                  -3.621
INTRA:                   0.000
UNBOUND:                 0.000

$$$$

     RDKit          3D

 26 27  0  0  0  0  0  0  0  0999 V2000
   49.0940    3.6099   17.1199 N   0  0  0  0  0  0  0  0  0  0  0  0
   47.8772    3.7964   16.5311 C   0  0  0  0  0  0  0  0  0  0  0  0
   49.7150    2.2762   17.0717 C   0  0  0  0  0  0  0  0  0  0  0  0
   51.1525    2.2334   17.5503 C   0  0  0  0  0  0  0  0  0  0  0  0
   47.5134    3.3501   15.3800 N   0  0  0  0  0  0  0  0  0  0  0  0
   49.5586    4.4623   18.2205 C   0  0  0  0  0  0  0  0  0  0  0  0
   51.8002    3.3689   18.0641 C   0  0  0  0  0  0  0  0  0  0  0  0
   51.0668    4.6806   18.1188 C   0  0  0  0  0  0  0  0  0  0  0  0
   46.9684    4.5141   17.2223 N   0  0  0  0  0  0  0  0  0  0  0  0
   51.8558    1.0191   17.4877 C   0  0  0  0  0  0  0  0  0  0  0  0
   53.1373    3.2872   18.4754 C   0  0  0  0  0  0  0  0  0  0  0  0
   53.1823    0.9414   17.9134 C   0  0  0  0  0  0  0  0  0  0  0  0
   53.8232    2.0758   18.4040 C   0  0  0  0  0  0  0  0  0  0  0  0
   49.1231    1.5944   17.6951 H   0  0  0  0  0  0  0  0  0  0  0  0
   49.7043    1.8947   16.0445 H   0  0  0  0  0  0  0  0  0  0  0  0
   48.3121    2.8946   14.9368 H   0  0  0  0  0  0  0  0  0  0  0  0
   49.0817    5.4492   18.1895 H   0  0  0  0  0  0  0  0  0  0  0  0
   49.2934    3.9993   19.1798 H   0  0  0  0  0  0  0  0  0  0  0  0
   51.3053    5.2493   17.2117 H   0  0  0  0  0  0  0  0  0  0  0  0
   51.4002    5.2659   18.9835 H   0  0  0  0  0  0  0  0  0  0  0  0
   46.8544    4.1959   18.1742 H   0  0  0  0  0  0  0  0  0  0  0  0
   46.0820    4.4782   16.7276 H   0  0  0  0  0  0  0  0  0  0  0  0
   51.3724    0.1248   17.0999 H   0  0  0  0  0  0  0  0  0  0  0  0
   53.6512    4.1684   18.8533 H   0  0  0  0  0  0  0  0  0  0  0  0
   53.7175   -0.0029   17.8564 H   0  0  0  0  0  0  0  0  0  0  0  0
   54.8592    2.0180   18.7278 H   0  0  0  0  0  0  0  0  0  0  0  0
  2  1  1  0
  3  1  1  0
  4  3  1  0
  5  2  2  3
  6  1  1  0
  7  8  1  0
  8  6  1  0
  9  2  1  0
 10  4  2  0
 11  7  2  0
 12 10  1  0
 13 11  1  0
  4  7  1  0
 12 13  2  0
  3 14  1  0
  3 15  1  0
  5 16  1  0
  6 17  1  0
  6 18  1  0
  8 19  1  0
  8 20  1  0
  9 21  1  0
  9 22  1  0
 10 23  1  0
 11 24  1  0
 12 25  1  0
 13 26  1  0
M  END
> <Uni-Dock RESULT> 
ENERGY=   -3.612  LOWER_BOUND=    9.741  UPPER_BOUND=   10.585
INTER + INTRA:          -3.612
INTER:                  -3.612
INTRA:                   0.000
UNBOUND:                 0.000

$$$$

     RDKit          3D

 26 27  0  0  0  0  0  0  0  0999 V2000
   47.2534    6.3689   13.7815 N   0  0  0  0  0  0  0  0  0  0  0  0
   48.3451    6.5634   14.5770 C   0  0  0  0  0  0  0  0  0  0  0  0
   46.7539    4.9999   13.5748 C   0  0  0  0  0  0  0  0  0  0  0  0
   45.4155    4.9181   12.8681 C   0  0  0  0  0  0  0  0  0  0  0  0
   48.5679    6.0002   15.7126 N   0  0  0  0  0  0  0  0  0  0  0  0
   46.8875    7.3203   12.7257 C   0  0  0  0  0  0  0  0  0  0  0  0
   44.7548    6.0618   12.3904 C   0  0  0  0  0  0  0  0  0  0  0  0
   45.3680    7.4178   12.6065 C   0  0  0  0  0  0  0  0  0  0  0  0
   49.2807    7.4252   14.1293 N   0  0  0  0  0  0  0  0  0  0  0  0
   44.8220    3.6596   12.6759 C   0  0  0  0  0  0  0  0  0  0  0  0
   43.5084    5.9401   11.7615 C   0  0  0  0  0  0  0  0  0  0  0  0
   43.5879    3.5444   12.0351 C   0  0  0  0  0  0  0  0  0  0  0  0
   42.9305    4.6845   11.5811 C   0  0  0  0  0  0  0  0  0  0  0  0
   47.4921    4.4464   12.9811 H   0  0  0  0  0  0  0  0  0  0  0  0
   46.6423    4.4920   14.5393 H   0  0  0  0  0  0  0  0  0  0  0  0
   47.7549    5.4371   15.9653 H   0  0  0  0  0  0  0  0  0  0  0  0
   47.2642    8.3261   12.9470 H   0  0  0  0  0  0  0  0  0  0  0  0
   47.3357    7.0033   11.7752 H   0  0  0  0  0  0  0  0  0  0  0  0
   44.9445    7.8479   13.5224 H   0  0  0  0  0  0  0  0  0  0  0  0
   45.1191    8.0841   11.7724 H   0  0  0  0  0  0  0  0  0  0  0  0
   49.5660    7.2399   13.1781 H   0  0  0  0  0  0  0  0  0  0  0  0
   50.0812    7.3885   14.7534 H   0  0  0  0  0  0  0  0  0  0  0  0
   45.3186    2.7591   13.0313 H   0  0  0  0  0  0  0  0  0  0  0  0
   42.9814    6.8242   11.4094 H   0  0  0  0  0  0  0  0  0  0  0  0
   43.1366    2.5654   11.8957 H   0  0  0  0  0  0  0  0  0  0  0  0
   41.9651    4.5962   11.0895 H   0  0  0  0  0  0  0  0  0  0  0  0
  2  1  1  0
  3  1  1  0
  4  3  1  0
  5  2  2  3
  6  1  1  0
  7  8  1  0
  8  6  1  0
  9  2  1  0
 10  4  2  0
 11  7  2  0
 12 10  1  0
 13 11  1  0
  4  7  1  0
 12 13  2  0
  3 14  1  0
  3 15  1  0
  5 16  1  0
  6 17  1  0
  6 18  1  0
  8 19  1  0
  8 20  1  0
  9 21  1  0
  9 22  1  0
 10 23  1  0
 11 24  1  0
 12 25  1  0
 13 26  1  0
M  END
> <Uni-Dock RESULT> 
ENERGY=   -3.518  LOWER_BOUND=    5.011  UPPER_BOUND=    6.267
INTER + INTRA:          -3.518
INTER:                  -3.518
INTRA:                   0.000
UNBOUND:                 0.000

$$$$

     RDKit          3D

 26 27  0  0  0  0  0  0  0  0999 V2000
   44.3001    4.5704   11.4730 N   0  0  0  0  0  0  0  0  0  0  0  0
   44.1491    3.2600   11.1233 C   0  0  0  0  0  0  0  0  0  0  0  0
   45.6012    5.0281   11.9871 C   0  0  0  0  0  0  0  0  0  0  0  0
   45.7288    6.5318   12.1281 C   0  0  0  0  0  0  0  0  0  0  0  0
   44.9894    2.5500   10.4553 N   0  0  0  0  0  0  0  0  0  0  0  0
   43.1575    5.4000   11.8730 C   0  0  0  0  0  0  0  0  0  0  0  0
   44.6575    7.3985   11.8561 C   0  0  0  0  0  0  0  0  0  0  0  0
   43.3476    6.8332   11.3806 C   0  0  0  0  0  0  0  0  0  0  0  0
   43.0128    2.6502   11.5178 N   0  0  0  0  0  0  0  0  0  0  0  0
   46.9522    7.0752   12.5534 C   0  0  0  0  0  0  0  0  0  0  0  0
   44.8277    8.7840   11.9800 C   0  0  0  0  0  0  0  0  0  0  0  0
   47.1100    8.4548   12.6895 C   0  0  0  0  0  0  0  0  0  0  0  0
   46.0491    9.3085   12.3998 C   0  0  0  0  0  0  0  0  0  0  0  0
   45.7649    4.5739   12.9724 H   0  0  0  0  0  0  0  0  0  0  0  0
   46.4053    4.6960   11.3209 H   0  0  0  0  0  0  0  0  0  0  0  0
   45.7612    3.1479   10.1576 H   0  0  0  0  0  0  0  0  0  0  0  0
   42.2220    5.0260   11.4399 H   0  0  0  0  0  0  0  0  0  0  0  0
   43.0484    5.3718   12.9648 H   0  0  0  0  0  0  0  0  0  0  0  0
   43.3360    6.8601   10.2841 H   0  0  0  0  0  0  0  0  0  0  0  0
   42.5153    7.4470   11.7438 H   0  0  0  0  0  0  0  0  0  0  0  0
   42.8161    2.7779   12.5004 H   0  0  0  0  0  0  0  0  0  0  0  0
   43.0807    1.6616   11.2950 H   0  0  0  0  0  0  0  0  0  0  0  0
   47.7939    6.4228   12.7766 H   0  0  0  0  0  0  0  0  0  0  0  0
   44.0087    9.4615   11.7491 H   0  0  0  0  0  0  0  0  0  0  0  0
   48.0629    8.8639   13.0155 H   0  0  0  0  0  0  0  0  0  0  0  0
   46.1740   10.3838   12.4973 H   0  0  0  0  0  0  0  0  0  0  0  0
  2  1  1  0
  3  1  1  0
  4  3  1  0
  5  2  2  3
  6  1  1  0
  7  8  1  0
  8  6  1  0
  9  2  1  0
 10  4  2  0
 11  7  2  0
 12 10  1  0
 13 11  1  0
  4  7  1  0
 12 13  2  0
  3 14  1  0
  3 15  1  0
  5 16  1  0
  6 17  1  0
  6 18  1  0
  8 19  1  0
  8 20  1  0
  9 21  1  0
  9 22  1  0
 10 23  1  0
 11 24  1  0
 12 25  1  0
 13 26  1  0
M  END
> <Uni-Dock RESULT> 
ENERGY=   -3.434  LOWER_BOUND=    3.775  UPPER_BOUND=    5.933
INTER + INTRA:          -3.434
INTER:                  -3.434
INTRA:                   0.000
UNBOUND:                 0.000

$$$$

     RDKit          3D

 26 27  0  0  0  0  0  0  0  0999 V2000
   47.9098    4.8753   19.0441 N   0  0  0  0  0  0  0  0  0  0  0  0
   47.8573    3.8630   18.1305 C   0  0  0  0  0  0  0  0  0  0  0  0
   47.7667    6.2650   18.5806 C   0  0  0  0  0  0  0  0  0  0  0  0
   47.6119    7.2859   19.6902 C   0  0  0  0  0  0  0  0  0  0  0  0
   47.0195    3.7585   17.1591 N   0  0  0  0  0  0  0  0  0  0  0  0
   48.6129    4.7258   20.3235 C   0  0  0  0  0  0  0  0  0  0  0  0
   47.6761    6.9267   21.0465 C   0  0  0  0  0  0  0  0  0  0  0  0
   47.8739    5.4845   21.4239 C   0  0  0  0  0  0  0  0  0  0  0  0
   48.7722    2.8801   18.2555 N   0  0  0  0  0  0  0  0  0  0  0  0
   47.4079    8.6340   19.3525 C   0  0  0  0  0  0  0  0  0  0  0  0
   47.5063    7.9017   22.0388 C   0  0  0  0  0  0  0  0  0  0  0  0
   47.2550    9.6020   20.3457 C   0  0  0  0  0  0  0  0  0  0  0  0
   47.3012    9.2350   21.6879 C   0  0  0  0  0  0  0  0  0  0  0  0
   48.6539    6.5279   17.9910 H   0  0  0  0  0  0  0  0  0  0  0  0
   46.8878    6.3554   17.9326 H   0  0  0  0  0  0  0  0  0  0  0  0
   46.3433    4.5202   17.2251 H   0  0  0  0  0  0  0  0  0  0  0  0
   48.6657    3.6740   20.6292 H   0  0  0  0  0  0  0  0  0  0  0  0
   49.6433    5.0900   20.2203 H   0  0  0  0  0  0  0  0  0  0  0  0
   46.8893    5.0333   21.5974 H   0  0  0  0  0  0  0  0  0  0  0  0
   48.4493    5.4112   22.3540 H   0  0  0  0  0  0  0  0  0  0  0  0
   49.7166    3.2278   18.3427 H   0  0  0  0  0  0  0  0  0  0  0  0
   48.6947    2.2606   17.4544 H   0  0  0  0  0  0  0  0  0  0  0  0
   47.3615    8.9368   18.3084 H   0  0  0  0  0  0  0  0  0  0  0  0
   47.5327    7.6260   23.0907 H   0  0  0  0  0  0  0  0  0  0  0  0
   47.0936   10.6415   20.0721 H   0  0  0  0  0  0  0  0  0  0  0  0
   47.1736    9.9872   22.4621 H   0  0  0  0  0  0  0  0  0  0  0  0
  2  1  1  0
  3  1  1  0
  4  3  1  0
  5  2  2  3
  6  1  1  0
  7  8  1  0
  8  6  1  0
  9  2  1  0
 10  4  2  0
 11  7  2  0
 12 10  1  0
 13 11  1  0
  4  7  1  0
 12 13  2  0
  3 14  1  0
  3 15  1  0
  5 16  1  0
  6 17  1  0
  6 18  1  0
  8 19  1  0
  8 20  1  0
  9 21  1  0
  9 22  1  0
 10 23  1  0
 11 24  1  0
 12 25  1  0
 13 26  1  0
M  END
> <Uni-Dock RESULT> 
ENERGY=   -3.334  LOWER_BOUND=   10.155  UPPER_BOUND=   12.555
INTER + INTRA:          -3.334
INTER:                  -3.334
INTRA:                   0.000
UNBOUND:                 0.000

$$$$
