
     RDKit          3D

 26 27  0  0  0  0  0  0  0  0999 V2000
   46.1703    2.2109    8.0729 N   0  0  0  0  0  0  0  0  0  0  0  0
   46.9547    1.2629    7.4808 C   0  0  0  0  0  0  0  0  0  0  0  0
   45.1457    1.8261    9.0520 C   0  0  0  0  0  0  0  0  0  0  0  0
   44.6159    2.9918    9.8642 C   0  0  0  0  0  0  0  0  0  0  0  0
   46.8295   -0.0157    7.5326 N   0  0  0  0  0  0  0  0  0  0  0  0
   45.8561    3.4667    7.3724 C   0  0  0  0  0  0  0  0  0  0  0  0
   44.9157    4.3249    9.5315 C   0  0  0  0  0  0  0  0  0  0  0  0
   45.8293    4.6220    8.3716 C   0  0  0  0  0  0  0  0  0  0  0  0
   48.0172    1.7406    6.8002 N   0  0  0  0  0  0  0  0  0  0  0  0
   43.7769    2.7353   10.9606 C   0  0  0  0  0  0  0  0  0  0  0  0
   44.4063    5.3719   10.3118 C   0  0  0  0  0  0  0  0  0  0  0  0
   43.2628    3.7842   11.7240 C   0  0  0  0  0  0  0  0  0  0  0  0
   43.5798    5.1009   11.4011 C   0  0  0  0  0  0  0  0  0  0  0  0
   44.3053    1.3516    8.5305 H   0  0  0  0  0  0  0  0  0  0  0  0
   45.5756    1.1008    9.7541 H   0  0  0  0  0  0  0  0  0  0  0  0
   45.9973   -0.2691    8.0614 H   0  0  0  0  0  0  0  0  0  0  0  0
   44.8839    3.3656    6.8720 H   0  0  0  0  0  0  0  0  0  0  0  0
   46.5845    3.7059    6.5899 H   0  0  0  0  0  0  0  0  0  0  0  0
   46.8382    4.7993    8.7640 H   0  0  0  0  0  0  0  0  0  0  0  0
   45.5006    5.5315    7.8555 H   0  0  0  0  0  0  0  0  0  0  0  0
   48.5238    2.4354    7.3326 H   0  0  0  0  0  0  0  0  0  0  0  0
   48.6240    0.9645    6.5550 H   0  0  0  0  0  0  0  0  0  0  0  0
   43.5222    1.7123   11.2293 H   0  0  0  0  0  0  0  0  0  0  0  0
   44.6514    6.4046   10.0737 H   0  0  0  0  0  0  0  0  0  0  0  0
   42.6180    3.5733   12.5733 H   0  0  0  0  0  0  0  0  0  0  0  0
   43.1849    5.9175   11.9999 H   0  0  0  0  0  0  0  0  0  0  0  0
  2  1  1  0
  3  1  1  0
  4  3  1  0
  5  2  2  3
  6  1  1  0
  7  8  1  0
  8  6  1  0
  9  2  1  0
 10  4  2  0
 11  7  2  0
 12 10  1  0
 13 11  1  0
  4  7  1  0
 12 13  2  0
  3 14  1  0
  3 15  1  0
  5 16  1  0
  6 17  1  0
  6 18  1  0
  8 19  1  0
  8 20  1  0
  9 21  1  0
  9 22  1  0
 10 23  1  0
 11 24  1  0
 12 25  1  0
 13 26  1  0
M  END
> <Uni-Dock RESULT> 
ENERGY=   -5.735  LOWER_BOUND=    0.000  UPPER_BOUND=    0.000
INTER + INTRA:          -5.735
INTER:                  -5.735
INTRA:                   0.000
UNBOUND:                 0.000

$$$$

     RDKit          3D

 26 27  0  0  0  0  0  0  0  0999 V2000
   44.4269    3.4856   10.1820 N   0  0  0  0  0  0  0  0  0  0  0  0
   43.4474    3.4638   11.1332 C   0  0  0  0  0  0  0  0  0  0  0  0
   45.0814    2.2417    9.7567 C   0  0  0  0  0  0  0  0  0  0  0  0
   45.8739    2.3831    8.4717 C   0  0  0  0  0  0  0  0  0  0  0  0
   43.0866    2.4797   11.8780 N   0  0  0  0  0  0  0  0  0  0  0  0
   45.2794    4.6733   10.0125 C   0  0  0  0  0  0  0  0  0  0  0  0
   46.1360    3.6391    7.8961 C   0  0  0  0  0  0  0  0  0  0  0  0
   45.5782    4.8865    8.5295 C   0  0  0  0  0  0  0  0  0  0  0  0
   42.7475    4.6101   11.2625 N   0  0  0  0  0  0  0  0  0  0  0  0
   46.3876    1.2306    7.8554 C   0  0  0  0  0  0  0  0  0  0  0  0
   46.8712    3.7232    6.7056 C   0  0  0  0  0  0  0  0  0  0  0  0
   47.1302    1.3242    6.6778 C   0  0  0  0  0  0  0  0  0  0  0  0
   47.3690    2.5693    6.1024 C   0  0  0  0  0  0  0  0  0  0  0  0
   45.7574    1.8979   10.5493 H   0  0  0  0  0  0  0  0  0  0  0  0
   44.3165    1.4726    9.5917 H   0  0  0  0  0  0  0  0  0  0  0  0
   43.6796    1.6701   11.7071 H   0  0  0  0  0  0  0  0  0  0  0  0
   46.2100    4.5315   10.5780 H   0  0  0  0  0  0  0  0  0  0  0  0
   44.8143    5.5847   10.4039 H   0  0  0  0  0  0  0  0  0  0  0  0
   44.6580    5.1605    7.9992 H   0  0  0  0  0  0  0  0  0  0  0  0
   46.2899    5.7136    8.4251 H   0  0  0  0  0  0  0  0  0  0  0  0
   42.4572    4.9770   10.3659 H   0  0  0  0  0  0  0  0  0  0  0  0
   41.9425    4.4361   11.8562 H   0  0  0  0  0  0  0  0  0  0  0  0
   46.2071    0.2494    8.2894 H   0  0  0  0  0  0  0  0  0  0  0  0
   47.0594    4.6893    6.2428 H   0  0  0  0  0  0  0  0  0  0  0  0
   47.5189    0.4248    6.2072 H   0  0  0  0  0  0  0  0  0  0  0  0
   47.9416    2.6417    5.1813 H   0  0  0  0  0  0  0  0  0  0  0  0
  2  1  1  0
  3  1  1  0
  4  3  1  0
  5  2  2  3
  6  1  1  0
  7  8  1  0
  8  6  1  0
  9  2  1  0
 10  4  2  0
 11  7  2  0
 12 10  1  0
 13 11  1  0
  4  7  1  0
 12 13  2  0
  3 14  1  0
  3 15  1  0
  5 16  1  0
  6 17  1  0
  6 18  1  0
  8 19  1  0
  8 20  1  0
  9 21  1  0
  9 22  1  0
 10 23  1  0
 11 24  1  0
 12 25  1  0
 13 26  1  0
M  END
> <Uni-Dock RESULT> 
ENERGY=   -5.638  LOWER_BOUND=    2.331  UPPER_BOUND=    4.712
INTER + INTRA:          -5.638
INTER:                  -5.638
INTRA:                   0.000
UNBOUND:                 0.000

$$$$

     RDKit          3D

 26 27  0  0  0  0  0  0  0  0999 V2000
   44.4889    3.8432    9.9846 N   0  0  0  0  0  0  0  0  0  0  0  0
   43.4752    4.0139   10.8834 C   0  0  0  0  0  0  0  0  0  0  0  0
   45.0195    2.5028    9.7045 C   0  0  0  0  0  0  0  0  0  0  0  0
   45.8743    2.4391    8.4537 C   0  0  0  0  0  0  0  0  0  0  0  0
   42.9784    3.1474   11.6930 N   0  0  0  0  0  0  0  0  0  0  0  0
   45.4731    4.9130    9.7541 C   0  0  0  0  0  0  0  0  0  0  0  0
   46.2960    3.6011    7.7832 C   0  0  0  0  0  0  0  0  0  0  0  0
   45.8535    4.9541    8.2751 C   0  0  0  0  0  0  0  0  0  0  0  0
   42.9009    5.2349   10.8754 N   0  0  0  0  0  0  0  0  0  0  0  0
   46.2827    1.1863    7.9683 C   0  0  0  0  0  0  0  0  0  0  0  0
   47.0837    3.4955    6.6287 C   0  0  0  0  0  0  0  0  0  0  0  0
   47.0783    1.0905    6.8260 C   0  0  0  0  0  0  0  0  0  0  0  0
   47.4758    2.2442    6.1556 C   0  0  0  0  0  0  0  0  0  0  0  0
   45.6208    2.1648   10.5574 H   0  0  0  0  0  0  0  0  0  0  0  0
   44.1820    1.8070    9.5697 H   0  0  0  0  0  0  0  0  0  0  0  0
   43.4852    2.2671   11.6245 H   0  0  0  0  0  0  0  0  0  0  0  0
   46.3587    4.7270   10.3761 H   0  0  0  0  0  0  0  0  0  0  0  0
   45.0955    5.9011   10.0394 H   0  0  0  0  0  0  0  0  0  0  0  0
   44.9913    5.2733    7.6768 H   0  0  0  0  0  0  0  0  0  0  0  0
   46.6555    5.6879    8.1340 H   0  0  0  0  0  0  0  0  0  0  0  0
   42.6894    5.5452    9.9364 H   0  0  0  0  0  0  0  0  0  0  0  0
   42.0582    5.2032   11.4407 H   0  0  0  0  0  0  0  0  0  0  0  0
   45.9780    0.2745    8.4776 H   0  0  0  0  0  0  0  0  0  0  0  0
   47.3957    4.3889    6.0924 H   0  0  0  0  0  0  0  0  0  0  0  0
   47.3846    0.1151    6.4569 H   0  0  0  0  0  0  0  0  0  0  0  0
   48.0898    2.1693    5.2619 H   0  0  0  0  0  0  0  0  0  0  0  0
  2  1  1  0
  3  1  1  0
  4  3  1  0
  5  2  2  3
  6  1  1  0
  7  8  1  0
  8  6  1  0
  9  2  1  0
 10  4  2  0
 11  7  2  0
 12 10  1  0
 13 11  1  0
  4  7  1  0
 12 13  2  0
  3 14  1  0
  3 15  1  0
  5 16  1  0
  6 17  1  0
  6 18  1  0
  8 19  1  0
  8 20  1  0
  9 21  1  0
  9 22  1  0
 10 23  1  0
 11 24  1  0
 12 25  1  0
 13 26  1  0
M  END
> <Uni-Dock RESULT> 
ENERGY=   -5.496  LOWER_BOUND=    2.340  UPPER_BOUND=    4.759
INTER + INTRA:          -5.496
INTER:                  -5.496
INTRA:                   0.000
UNBOUND:                 0.000

$$$$

     RDKit          3D

 26 27  0  0  0  0  0  0  0  0999 V2000
   44.8791    4.5723   10.0380 N   0  0  0  0  0  0  0  0  0  0  0  0
   44.5964    5.5605   10.9369 C   0  0  0  0  0  0  0  0  0  0  0  0
   45.5540    4.8862    8.7721 C   0  0  0  0  0  0  0  0  0  0  0  0
   46.1045    3.6658    8.0603 C   0  0  0  0  0  0  0  0  0  0  0  0
   44.6963    6.8322   10.7754 N   0  0  0  0  0  0  0  0  0  0  0  0
   44.0362    3.3683    9.9593 C   0  0  0  0  0  0  0  0  0  0  0  0
   45.7812    2.3597    8.4693 C   0  0  0  0  0  0  0  0  0  0  0  0
   44.9079    2.1458    9.6776 C   0  0  0  0  0  0  0  0  0  0  0  0
   44.2117    5.1330   12.1575 N   0  0  0  0  0  0  0  0  0  0  0  0
   46.9352    3.8436    6.9422 C   0  0  0  0  0  0  0  0  0  0  0  0
   46.3148    1.2598    7.7835 C   0  0  0  0  0  0  0  0  0  0  0  0
   47.4512    2.7432    6.2568 C   0  0  0  0  0  0  0  0  0  0  0  0
   47.1433    1.4528    6.6791 C   0  0  0  0  0  0  0  0  0  0  0  0
   44.8501    5.3949    8.1019 H   0  0  0  0  0  0  0  0  0  0  0  0
   46.3956    5.5611    8.9725 H   0  0  0  0  0  0  0  0  0  0  0  0
   44.9854    7.0468    9.8232 H   0  0  0  0  0  0  0  0  0  0  0  0
   43.2904    3.5029    9.1646 H   0  0  0  0  0  0  0  0  0  0  0  0
   43.4760    3.1855   10.8829 H   0  0  0  0  0  0  0  0  0  0  0  0
   45.5555    1.9427   10.5393 H   0  0  0  0  0  0  0  0  0  0  0  0
   44.2606    1.2742    9.5260 H   0  0  0  0  0  0  0  0  0  0  0  0
   44.8175    4.4034   12.5088 H   0  0  0  0  0  0  0  0  0  0  0  0
   44.1996    5.9253   12.7922 H   0  0  0  0  0  0  0  0  0  0  0  0
   47.1892    4.8450    6.6009 H   0  0  0  0  0  0  0  0  0  0  0  0
   46.0868    0.2468    8.1072 H   0  0  0  0  0  0  0  0  0  0  0  0
   48.0970    2.8932    5.3953 H   0  0  0  0  0  0  0  0  0  0  0  0
   47.5508    0.5957    6.1494 H   0  0  0  0  0  0  0  0  0  0  0  0
  2  1  1  0
  3  1  1  0
  4  3  1  0
  5  2  2  3
  6  1  1  0
  7  8  1  0
  8  6  1  0
  9  2  1  0
 10  4  2  0
 11  7  2  0
 12 10  1  0
 13 11  1  0
  4  7  1  0
 12 13  2  0
  3 14  1  0
  3 15  1  0
  5 16  1  0
  6 17  1  0
  6 18  1  0
  8 19  1  0
  8 20  1  0
  9 21  1  0
  9 22  1  0
 10 23  1  0
 11 24  1  0
 12 25  1  0
 13 26  1  0
M  END
> <Uni-Dock RESULT> 
ENERGY=   -5.082  LOWER_BOUND=    2.505  UPPER_BOUND=    5.224
INTER + INTRA:          -5.082
INTER:                  -5.082
INTRA:                   0.000
UNBOUND:                 0.000

$$$$

     RDKit          3D

 26 27  0  0  0  0  0  0  0  0999 V2000
   44.5214    5.9371   12.5848 N   0  0  0  0  0  0  0  0  0  0  0  0
   43.2816    5.3722   12.4940 C   0  0  0  0  0  0  0  0  0  0  0  0
   44.7539    7.3064   12.1078 C   0  0  0  0  0  0  0  0  0  0  0  0
   46.0610    7.9028   12.5924 C   0  0  0  0  0  0  0  0  0  0  0  0
   42.2478    5.8225   11.8761 N   0  0  0  0  0  0  0  0  0  0  0  0
   45.7307    5.0991   12.5446 C   0  0  0  0  0  0  0  0  0  0  0  0
   47.0406    7.1225   13.2321 C   0  0  0  0  0  0  0  0  0  0  0  0
   46.7812    5.6632   13.4995 C   0  0  0  0  0  0  0  0  0  0  0  0
   43.1226    4.2233   13.1835 N   0  0  0  0  0  0  0  0  0  0  0  0
   46.3147    9.2658   12.3688 C   0  0  0  0  0  0  0  0  0  0  0  0
   48.2340    7.7158   13.6661 C   0  0  0  0  0  0  0  0  0  0  0  0
   47.5112    9.8457   12.7919 C   0  0  0  0  0  0  0  0  0  0  0  0
   48.4684    9.0717   13.4424 C   0  0  0  0  0  0  0  0  0  0  0  0
   44.7505    7.3142   11.0108 H   0  0  0  0  0  0  0  0  0  0  0  0
   43.9420    7.9527   12.4644 H   0  0  0  0  0  0  0  0  0  0  0  0
   42.4760    6.6850   11.3857 H   0  0  0  0  0  0  0  0  0  0  0  0
   46.1163    5.0736   11.5167 H   0  0  0  0  0  0  0  0  0  0  0  0
   45.5320    4.0595   12.8273 H   0  0  0  0  0  0  0  0  0  0  0  0
   46.4378    5.5584   14.5360 H   0  0  0  0  0  0  0  0  0  0  0  0
   47.7081    5.0885   13.3888 H   0  0  0  0  0  0  0  0  0  0  0  0
   43.4856    4.2959   14.1246 H   0  0  0  0  0  0  0  0  0  0  0  0
   42.1359    3.9845   13.1974 H   0  0  0  0  0  0  0  0  0  0  0  0
   45.5760    9.8861   11.8656 H   0  0  0  0  0  0  0  0  0  0  0  0
   48.9870    7.1234   14.1808 H   0  0  0  0  0  0  0  0  0  0  0  0
   47.6946   10.9028   12.6174 H   0  0  0  0  0  0  0  0  0  0  0  0
   49.3975    9.5249   13.7781 H   0  0  0  0  0  0  0  0  0  0  0  0
  2  1  1  0
  3  1  1  0
  4  3  1  0
  5  2  2  3
  6  1  1  0
  7  8  1  0
  8  6  1  0
  9  2  1  0
 10  4  2  0
 11  7  2  0
 12 10  1  0
 13 11  1  0
  4  7  1  0
 12 13  2  0
  3 14  1  0
  3 15  1  0
  5 16  1  0
  6 17  1  0
  6 18  1  0
  8 19  1  0
  8 20  1  0
  9 21  1  0
  9 22  1  0
 10 23  1  0
 11 24  1  0
 12 25  1  0
 13 26  1  0
M  END
> <Uni-Dock RESULT> 
ENERGY=   -3.600  LOWER_BOUND=    4.956  UPPER_BOUND=    6.659
INTER + INTRA:          -3.600
INTER:                  -3.600
INTRA:                   0.000
UNBOUND:                 0.000

$$$$

     RDKit          3D

 26 27  0  0  0  0  0  0  0  0999 V2000
   47.1065    6.9293   13.5993 N   0  0  0  0  0  0  0  0  0  0  0  0
   48.1332    7.3767   14.3804 C   0  0  0  0  0  0  0  0  0  0  0  0
   46.9159    5.4914   13.3696 C   0  0  0  0  0  0  0  0  0  0  0  0
   45.5580    5.1454   12.7902 C   0  0  0  0  0  0  0  0  0  0  0  0
   49.1194    6.7032   14.8569 N   0  0  0  0  0  0  0  0  0  0  0  0
   46.5784    7.7629   12.5073 C   0  0  0  0  0  0  0  0  0  0  0  0
   44.6825    6.1353   12.3092 C   0  0  0  0  0  0  0  0  0  0  0  0
   45.0637    7.5887   12.4116 C   0  0  0  0  0  0  0  0  0  0  0  0
   48.0650    8.6789   14.7273 N   0  0  0  0  0  0  0  0  0  0  0  0
   45.1761    3.7969   12.7023 C   0  0  0  0  0  0  0  0  0  0  0  0
   43.4354    5.7705   11.7837 C   0  0  0  0  0  0  0  0  0  0  0  0
   43.9383    3.4415   12.1652 C   0  0  0  0  0  0  0  0  0  0  0  0
   43.0680    4.4278   11.7091 C   0  0  0  0  0  0  0  0  0  0  0  0
   47.6920    5.1270   12.6854 H   0  0  0  0  0  0  0  0  0  0  0  0
   47.0143    4.9599   14.3245 H   0  0  0  0  0  0  0  0  0  0  0  0
   49.0805    5.7394   14.5311 H   0  0  0  0  0  0  0  0  0  0  0  0
   47.0615    7.4702   11.5656 H   0  0  0  0  0  0  0  0  0  0  0  0
   46.7937    8.8277   12.6487 H   0  0  0  0  0  0  0  0  0  0  0  0
   44.5827    8.0092   13.3033 H   0  0  0  0  0  0  0  0  0  0  0  0
   44.6967    8.1378   11.5367 H   0  0  0  0  0  0  0  0  0  0  0  0
   47.1429    8.9330   15.0556 H   0  0  0  0  0  0  0  0  0  0  0  0
   48.7631    8.8639   15.4407 H   0  0  0  0  0  0  0  0  0  0  0  0
   45.8423    3.0136   13.0577 H   0  0  0  0  0  0  0  0  0  0  0  0
   42.7440    6.5318   11.4297 H   0  0  0  0  0  0  0  0  0  0  0  0
   43.6515    2.3946   12.1065 H   0  0  0  0  0  0  0  0  0  0  0  0
   42.1010    4.1513   11.2970 H   0  0  0  0  0  0  0  0  0  0  0  0
  2  1  1  0
  3  1  1  0
  4  3  1  0
  5  2  2  3
  6  1  1  0
  7  8  1  0
  8  6  1  0
  9  2  1  0
 10  4  2  0
 11  7  2  0
 12 10  1  0
 13 11  1  0
  4  7  1  0
 12 13  2  0
  3 14  1  0
  3 15  1  0
  5 16  1  0
  6 17  1  0
  6 18  1  0
  8 19  1  0
  8 20  1  0
  9 21  1  0
  9 22  1  0
 10 23  1  0
 11 24  1  0
 12 25  1  0
 13 26  1  0
M  END
> <Uni-Dock RESULT> 
ENERGY=   -3.410  LOWER_BOUND=    5.024  UPPER_BOUND=    6.186
INTER + INTRA:          -3.410
INTER:                  -3.410
INTRA:                   0.000
UNBOUND:                 0.000

$$$$

     RDKit          3D

 26 27  0  0  0  0  0  0  0  0999 V2000
   47.0609    4.8104   14.5185 N   0  0  0  0  0  0  0  0  0  0  0  0
   47.6975    4.5690   15.7021 C   0  0  0  0  0  0  0  0  0  0  0  0
   46.4291    3.7134   13.7741 C   0  0  0  0  0  0  0  0  0  0  0  0
   45.4799    4.1852   12.6898 C   0  0  0  0  0  0  0  0  0  0  0  0
   47.9844    3.4328   16.2314 N   0  0  0  0  0  0  0  0  0  0  0  0
   47.4828    5.9254   13.6554 C   0  0  0  0  0  0  0  0  0  0  0  0
   45.4116    5.5344   12.2990 C   0  0  0  0  0  0  0  0  0  0  0  0
   46.2585    6.5631   13.0010 C   0  0  0  0  0  0  0  0  0  0  0  0
   48.0158    5.6681   16.4171 N   0  0  0  0  0  0  0  0  0  0  0  0
   44.6685    3.2443   12.0352 C   0  0  0  0  0  0  0  0  0  0  0  0
   44.5175    5.9268   11.2934 C   0  0  0  0  0  0  0  0  0  0  0  0
   43.7910    3.6413   11.0256 C   0  0  0  0  0  0  0  0  0  0  0  0
   43.7140    4.9818   10.6574 C   0  0  0  0  0  0  0  0  0  0  0  0
   47.2070    3.0923   13.3130 H   0  0  0  0  0  0  0  0  0  0  0  0
   45.8535    3.0921   14.4715 H   0  0  0  0  0  0  0  0  0  0  0  0
   47.7097    2.6737   15.6112 H   0  0  0  0  0  0  0  0  0  0  0  0
   48.1760    5.5471   12.8924 H   0  0  0  0  0  0  0  0  0  0  0  0
   48.0224    6.7035   14.2064 H   0  0  0  0  0  0  0  0  0  0  0  0
   45.6419    7.0553   13.7632 H   0  0  0  0  0  0  0  0  0  0  0  0
   46.5925    7.3267   12.2890 H   0  0  0  0  0  0  0  0  0  0  0  0
   47.2404    6.3145   16.4788 H   0  0  0  0  0  0  0  0  0  0  0  0
   48.3166    5.3799   17.3429 H   0  0  0  0  0  0  0  0  0  0  0  0
   44.7132    2.1934   12.3131 H   0  0  0  0  0  0  0  0  0  0  0  0
   44.4434    6.9717   11.0008 H   0  0  0  0  0  0  0  0  0  0  0  0
   43.1645    2.9048   10.5291 H   0  0  0  0  0  0  0  0  0  0  0  0
   43.0255    5.2921    9.8756 H   0  0  0  0  0  0  0  0  0  0  0  0
  2  1  1  0
  3  1  1  0
  4  3  1  0
  5  2  2  3
  6  1  1  0
  7  8  1  0
  8  6  1  0
  9  2  1  0
 10  4  2  0
 11  7  2  0
 12 10  1  0
 13 11  1  0
  4  7  1  0
 12 13  2  0
  3 14  1  0
  3 15  1  0
  5 16  1  0
  6 17  1  0
  6 18  1  0
  8 19  1  0
  8 20  1  0
  9 21  1  0
  9 22  1  0
 10 23  1  0
 11 24  1  0
 12 25  1  0
 13 26  1  0
M  END
> <Uni-Dock RESULT> 
ENERGY=   -3.331  LOWER_BOUND=    4.831  UPPER_BOUND=    5.886
INTER + INTRA:          -3.331
INTER:                  -3.331
INTRA:                   0.000
UNBOUND:                 0.000

$$$$

     RDKit          3D

 26 27  0  0  0  0  0  0  0  0999 V2000
   47.6729    4.9131   18.6993 N   0  0  0  0  0  0  0  0  0  0  0  0
   47.3959    4.1364   17.6109 C   0  0  0  0  0  0  0  0  0  0  0  0
   47.6535    6.3777   18.5948 C   0  0  0  0  0  0  0  0  0  0  0  0
   47.6303    7.0805   19.9383 C   0  0  0  0  0  0  0  0  0  0  0  0
   47.2603    4.5054   16.3867 N   0  0  0  0  0  0  0  0  0  0  0  0
   48.5656    4.4222   19.7616 C   0  0  0  0  0  0  0  0  0  0  0  0
   47.8469    6.3869   21.1423 C   0  0  0  0  0  0  0  0  0  0  0  0
   48.0574    4.8957   21.1223 C   0  0  0  0  0  0  0  0  0  0  0  0
   47.1942    2.8287   17.8755 N   0  0  0  0  0  0  0  0  0  0  0  0
   47.4177    8.4680   19.9800 C   0  0  0  0  0  0  0  0  0  0  0  0
   47.8142    7.0763   22.3622 C   0  0  0  0  0  0  0  0  0  0  0  0
   47.4003    9.1489   21.1978 C   0  0  0  0  0  0  0  0  0  0  0  0
   47.5957    8.4528   22.3876 C   0  0  0  0  0  0  0  0  0  0  0  0
   48.5375    6.7137   18.0388 H   0  0  0  0  0  0  0  0  0  0  0  0
   46.7561    6.6858   18.0438 H   0  0  0  0  0  0  0  0  0  0  0  0
   47.4389    5.5035   16.2957 H   0  0  0  0  0  0  0  0  0  0  0  0
   49.5821    4.7946   19.5775 H   0  0  0  0  0  0  0  0  0  0  0  0
   48.6345    3.3290   19.7818 H   0  0  0  0  0  0  0  0  0  0  0  0
   47.1016    4.4095   21.3533 H   0  0  0  0  0  0  0  0  0  0  0  0
   48.7810    4.6062   21.8930 H   0  0  0  0  0  0  0  0  0  0  0  0
   46.5693    2.6954   18.6594 H   0  0  0  0  0  0  0  0  0  0  0  0
   46.8254    2.3801   17.0428 H   0  0  0  0  0  0  0  0  0  0  0  0
   47.2594    9.0268   19.0601 H   0  0  0  0  0  0  0  0  0  0  0  0
   47.9593    6.5431   23.2991 H   0  0  0  0  0  0  0  0  0  0  0  0
   47.2303   10.2223   21.2182 H   0  0  0  0  0  0  0  0  0  0  0  0
   47.5753    8.9821   23.3367 H   0  0  0  0  0  0  0  0  0  0  0  0
  2  1  1  0
  3  1  1  0
  4  3  1  0
  5  2  2  3
  6  1  1  0
  7  8  1  0
  8  6  1  0
  9  2  1  0
 10  4  2  0
 11  7  2  0
 12 10  1  0
 13 11  1  0
  4  7  1  0
 12 13  2  0
  3 14  1  0
  3 15  1  0
  5 16  1  0
  6 17  1  0
  6 18  1  0
  8 19  1  0
  8 20  1  0
  9 21  1  0
  9 22  1  0
 10 23  1  0
 11 24  1  0
 12 25  1  0
 13 26  1  0
M  END
> <Uni-Dock RESULT> 
ENERGY=   -3.290  LOWER_BOUND=   10.182  UPPER_BOUND=   11.604
INTER + INTRA:          -3.290
INTER:                  -3.290
INTRA:                   0.000
UNBOUND:                 0.000

$$$$

     RDKit          3D

 26 27  0  0  0  0  0  0  0  0999 V2000
   49.4364   13.7896   22.4160 N   0  0  0  0  0  0  0  0  0  0  0  0
   50.1376   14.5732   23.2872 C   0  0  0  0  0  0  0  0  0  0  0  0
   49.3758   12.3345   22.6045 C   0  0  0  0  0  0  0  0  0  0  0  0
   48.2928   11.6621   21.7833 C   0  0  0  0  0  0  0  0  0  0  0  0
   50.9346   14.2002   24.2248 N   0  0  0  0  0  0  0  0  0  0  0  0
   49.2681   14.1970   21.0118 C   0  0  0  0  0  0  0  0  0  0  0  0
   47.5921   12.3484   20.7755 C   0  0  0  0  0  0  0  0  0  0  0  0
   47.8738   13.8065   20.5249 C   0  0  0  0  0  0  0  0  0  0  0  0
   49.9197   15.8995   23.1692 N   0  0  0  0  0  0  0  0  0  0  0  0
   48.0023   10.3077   22.0137 C   0  0  0  0  0  0  0  0  0  0  0  0
   46.5966   11.6881   20.0421 C   0  0  0  0  0  0  0  0  0  0  0  0
   47.0193    9.6542   21.2698 C   0  0  0  0  0  0  0  0  0  0  0  0
   46.3155   10.3449   20.2870 C   0  0  0  0  0  0  0  0  0  0  0  0
   50.3436   11.8931   22.3365 H   0  0  0  0  0  0  0  0  0  0  0  0
   49.1735   12.1182   23.6609 H   0  0  0  0  0  0  0  0  0  0  0  0
   51.0340   13.1870   24.2230 H   0  0  0  0  0  0  0  0  0  0  0  0
   50.0410   13.7113   20.4014 H   0  0  0  0  0  0  0  0  0  0  0  0
   49.3925   15.2761   20.8687 H   0  0  0  0  0  0  0  0  0  0  0  0
   47.1153   14.3995   21.0507 H   0  0  0  0  0  0  0  0  0  0  0  0
   47.7957   14.0275   19.4541 H   0  0  0  0  0  0  0  0  0  0  0  0
   48.9335   16.1148   23.1075 H   0  0  0  0  0  0  0  0  0  0  0  0
   50.3406   16.3717   23.9633 H   0  0  0  0  0  0  0  0  0  0  0  0
   48.5400    9.7538   22.7805 H   0  0  0  0  0  0  0  0  0  0  0  0
   46.0354   12.2182   19.2759 H   0  0  0  0  0  0  0  0  0  0  0  0
   46.7999    8.6067   21.4601 H   0  0  0  0  0  0  0  0  0  0  0  0
   45.5449    9.8377   19.7122 H   0  0  0  0  0  0  0  0  0  0  0  0
  2  1  1  0
  3  1  1  0
  4  3  1  0
  5  2  2  3
  6  1  1  0
  7  8  1  0
  8  6  1  0
  9  2  1  0
 10  4  2  0
 11  7  2  0
 12 10  1  0
 13 11  1  0
  4  7  1  0
 12 13  2  0
  3 14  1  0
  3 15  1  0
  5 16  1  0
  6 17  1  0
  6 18  1  0
  8 19  1  0
  8 20  1  0
  9 21  1  0
  9 22  1  0
 10 23  1  0
 11 24  1  0
 12 25  1  0
 13 26  1  0
M  END
> <Uni-Dock RESULT> 
ENERGY=   -3.197  LOWER_BOUND=   15.032  UPPER_BOUND=   16.727
INTER + INTRA:          -3.197
INTER:                  -3.197
INTRA:                   0.000
UNBOUND:                 0.000

$$$$
