
     RDKit          3D

 26 27  0  0  0  0  0  0  0  0999 V2000
   46.1698    2.2120    8.0736 N   0  0  0  0  0  0  0  0  0  0  0  0
   46.9543    1.2641    7.4813 C   0  0  0  0  0  0  0  0  0  0  0  0
   45.1453    1.8269    9.0526 C   0  0  0  0  0  0  0  0  0  0  0  0
   44.6155    2.9924    9.8650 C   0  0  0  0  0  0  0  0  0  0  0  0
   46.8292   -0.0146    7.5328 N   0  0  0  0  0  0  0  0  0  0  0  0
   45.8556    3.4678    7.3734 C   0  0  0  0  0  0  0  0  0  0  0  0
   44.9152    4.3256    9.5328 C   0  0  0  0  0  0  0  0  0  0  0  0
   45.8288    4.6229    8.3730 C   0  0  0  0  0  0  0  0  0  0  0  0
   48.0168    1.7421    6.8008 N   0  0  0  0  0  0  0  0  0  0  0  0
   43.7764    2.7357   10.9615 C   0  0  0  0  0  0  0  0  0  0  0  0
   44.4058    5.3724   10.3132 C   0  0  0  0  0  0  0  0  0  0  0  0
   43.2623    3.7841   11.7250 C   0  0  0  0  0  0  0  0  0  0  0  0
   43.5792    5.1010   11.4026 C   0  0  0  0  0  0  0  0  0  0  0  0
   44.3049    1.3525    8.5310 H   0  0  0  0  0  0  0  0  0  0  0  0
   45.5752    1.1014    9.7546 H   0  0  0  0  0  0  0  0  0  0  0  0
   45.9969   -0.2680    8.0616 H   0  0  0  0  0  0  0  0  0  0  0  0
   44.8834    3.3669    6.8730 H   0  0  0  0  0  0  0  0  0  0  0  0
   46.5840    3.7072    6.5909 H   0  0  0  0  0  0  0  0  0  0  0  0
   46.8376    4.8002    8.7654 H   0  0  0  0  0  0  0  0  0  0  0  0
   45.5001    5.5325    7.8570 H   0  0  0  0  0  0  0  0  0  0  0  0
   48.6235    0.9660    6.5554 H   0  0  0  0  0  0  0  0  0  0  0  0
   48.5233    2.4367    7.3334 H   0  0  0  0  0  0  0  0  0  0  0  0
   43.5217    1.7124   11.2299 H   0  0  0  0  0  0  0  0  0  0  0  0
   44.6508    6.4051   10.0753 H   0  0  0  0  0  0  0  0  0  0  0  0
   42.6175    3.5732   12.5743 H   0  0  0  0  0  0  0  0  0  0  0  0
   43.1843    5.9176   12.0014 H   0  0  0  0  0  0  0  0  0  0  0  0
  2  1  1  0
  3  1  1  0
  4  3  1  0
  5  2  2  3
  6  1  1  0
  7  8  1  0
  8  6  1  0
  9  2  1  0
 10  4  2  0
 11  7  2  0
 12 10  1  0
 13 11  1  0
  4  7  1  0
 12 13  2  0
  3 14  1  0
  3 15  1  0
  5 16  1  0
  6 17  1  0
  6 18  1  0
  8 19  1  0
  8 20  1  0
  9 21  1  0
  9 22  1  0
 10 23  1  0
 11 24  1  0
 12 25  1  0
 13 26  1  0
M  END
> <Uni-Dock RESULT> 
ENERGY=   -5.735  LOWER_BOUND=    0.000  UPPER_BOUND=    0.000
INTER + INTRA:          -5.735
INTER:                  -5.735
INTRA:                   0.000
UNBOUND:                 0.000

$$$$

     RDKit          3D

 26 27  0  0  0  0  0  0  0  0999 V2000
   44.4239    3.4680   10.1935 N   0  0  0  0  0  0  0  0  0  0  0  0
   43.4473    3.4368   11.1475 C   0  0  0  0  0  0  0  0  0  0  0  0
   45.0838    2.2295    9.7608 C   0  0  0  0  0  0  0  0  0  0  0  0
   45.8717    2.3807    8.4742 C   0  0  0  0  0  0  0  0  0  0  0  0
   43.0940    2.4476   11.8891 N   0  0  0  0  0  0  0  0  0  0  0  0
   45.2695    4.6609   10.0266 C   0  0  0  0  0  0  0  0  0  0  0  0
   46.1254    3.6406    7.9031 C   0  0  0  0  0  0  0  0  0  0  0  0
   45.5627    4.8820    8.5436 C   0  0  0  0  0  0  0  0  0  0  0  0
   42.7417    4.5787   11.2838 N   0  0  0  0  0  0  0  0  0  0  0  0
   46.3898    1.2336    7.8513 C   0  0  0  0  0  0  0  0  0  0  0  0
   46.8564    3.7337    6.7110 C   0  0  0  0  0  0  0  0  0  0  0  0
   47.1283    1.3362    6.6720 C   0  0  0  0  0  0  0  0  0  0  0  0
   47.3587    2.5850    6.1012 C   0  0  0  0  0  0  0  0  0  0  0  0
   45.7640    1.8859   10.5500 H   0  0  0  0  0  0  0  0  0  0  0  0
   44.3225    1.4570    9.5948 H   0  0  0  0  0  0  0  0  0  0  0  0
   43.6910    1.6419   11.7129 H   0  0  0  0  0  0  0  0  0  0  0  0
   46.2025    4.5217   10.5887 H   0  0  0  0  0  0  0  0  0  0  0  0
   44.8007    5.5681   10.4233 H   0  0  0  0  0  0  0  0  0  0  0  0
   44.6394    5.1534    8.0172 H   0  0  0  0  0  0  0  0  0  0  0  0
   46.2696    5.7135    8.4407 H   0  0  0  0  0  0  0  0  0  0  0  0
   41.9395    4.3979   11.8791 H   0  0  0  0  0  0  0  0  0  0  0  0
   42.4468    4.9478   10.3896 H   0  0  0  0  0  0  0  0  0  0  0  0
   46.2158    0.2495    8.2817 H   0  0  0  0  0  0  0  0  0  0  0  0
   47.0382    4.7028    6.2518 H   0  0  0  0  0  0  0  0  0  0  0  0
   47.5204    0.4410    6.1963 H   0  0  0  0  0  0  0  0  0  0  0  0
   47.9282    2.6645    5.1788 H   0  0  0  0  0  0  0  0  0  0  0  0
  2  1  1  0
  3  1  1  0
  4  3  1  0
  5  2  2  3
  6  1  1  0
  7  8  1  0
  8  6  1  0
  9  2  1  0
 10  4  2  0
 11  7  2  0
 12 10  1  0
 13 11  1  0
  4  7  1  0
 12 13  2  0
  3 14  1  0
  3 15  1  0
  5 16  1  0
  6 17  1  0
  6 18  1  0
  8 19  1  0
  8 20  1  0
  9 21  1  0
  9 22  1  0
 10 23  1  0
 11 24  1  0
 12 25  1  0
 13 26  1  0
M  END
> <Uni-Dock RESULT> 
ENERGY=   -5.643  LOWER_BOUND=    2.332  UPPER_BOUND=    4.709
INTER + INTRA:          -5.643
INTER:                  -5.643
INTRA:                   0.000
UNBOUND:                 0.000

$$$$

     RDKit          3D

 26 27  0  0  0  0  0  0  0  0999 V2000
   44.5647    5.8020   12.6978 N   0  0  0  0  0  0  0  0  0  0  0  0
   43.3145    5.2603   12.6075 C   0  0  0  0  0  0  0  0  0  0  0  0
   44.8239    7.1648   12.2158 C   0  0  0  0  0  0  0  0  0  0  0  0
   46.1415    7.7380   12.7000 C   0  0  0  0  0  0  0  0  0  0  0  0
   42.2903    5.7278   11.9863 N   0  0  0  0  0  0  0  0  0  0  0  0
   45.7578    4.9410   12.6625 C   0  0  0  0  0  0  0  0  0  0  0  0
   47.1052    6.9417   13.3441 C   0  0  0  0  0  0  0  0  0  0  0  0
   46.8177    5.4888   13.6168 C   0  0  0  0  0  0  0  0  0  0  0  0
   43.1328    4.1175   13.3012 N   0  0  0  0  0  0  0  0  0  0  0  0
   46.4214    9.0950   12.4714 C   0  0  0  0  0  0  0  0  0  0  0  0
   48.3089    7.5140   13.7775 C   0  0  0  0  0  0  0  0  0  0  0  0
   47.6280    9.6538   12.8938 C   0  0  0  0  0  0  0  0  0  0  0  0
   48.5694    8.8643   13.5488 C   0  0  0  0  0  0  0  0  0  0  0  0
   44.8222    7.1682   11.1188 H   0  0  0  0  0  0  0  0  0  0  0  0
   44.0239    7.8277   12.5687 H   0  0  0  0  0  0  0  0  0  0  0  0
   42.5357    6.5839   11.4928 H   0  0  0  0  0  0  0  0  0  0  0  0
   46.1444    4.9041   11.6354 H   0  0  0  0  0  0  0  0  0  0  0  0
   45.5391    3.9064   12.9491 H   0  0  0  0  0  0  0  0  0  0  0  0
   46.4709    5.3946   14.6532 H   0  0  0  0  0  0  0  0  0  0  0  0
   47.7336    4.8961   13.5098 H   0  0  0  0  0  0  0  0  0  0  0  0
   42.1418    3.8975   13.3146 H   0  0  0  0  0  0  0  0  0  0  0  0
   43.4958    4.1869   14.2426 H   0  0  0  0  0  0  0  0  0  0  0  0
   45.6952    9.7274   11.9646 H   0  0  0  0  0  0  0  0  0  0  0  0
   49.0499    6.9094   14.2955 H   0  0  0  0  0  0  0  0  0  0  0  0
   47.8317   10.7065   12.7155 H   0  0  0  0  0  0  0  0  0  0  0  0
   49.5066    9.3011   13.8840 H   0  0  0  0  0  0  0  0  0  0  0  0
  2  1  1  0
  3  1  1  0
  4  3  1  0
  5  2  2  3
  6  1  1  0
  7  8  1  0
  8  6  1  0
  9  2  1  0
 10  4  2  0
 11  7  2  0
 12 10  1  0
 13 11  1  0
  4  7  1  0
 12 13  2  0
  3 14  1  0
  3 15  1  0
  5 16  1  0
  6 17  1  0
  6 18  1  0
  8 19  1  0
  8 20  1  0
  9 21  1  0
  9 22  1  0
 10 23  1  0
 11 24  1  0
 12 25  1  0
 13 26  1  0
M  END
> <Uni-Dock RESULT> 
ENERGY=   -3.618  LOWER_BOUND=    4.974  UPPER_BOUND=    6.648
INTER + INTRA:          -3.618
INTER:                  -3.618
INTRA:                   0.000
UNBOUND:                 0.000

$$$$

     RDKit          3D

 26 27  0  0  0  0  0  0  0  0999 V2000
   45.3169    5.1449   12.6984 N   0  0  0  0  0  0  0  0  0  0  0  0
   45.8506    3.9160   12.9628 C   0  0  0  0  0  0  0  0  0  0  0  0
   46.0012    6.3663   13.1417 C   0  0  0  0  0  0  0  0  0  0  0  0
   45.4813    7.6265   12.4779 C   0  0  0  0  0  0  0  0  0  0  0  0
   46.8477    3.6309   13.7230 N   0  0  0  0  0  0  0  0  0  0  0  0
   43.8614    5.3156   12.5636 C   0  0  0  0  0  0  0  0  0  0  0  0
   44.3078    7.6271   11.7029 C   0  0  0  0  0  0  0  0  0  0  0  0
   43.5612    6.3399   11.4706 C   0  0  0  0  0  0  0  0  0  0  0  0
   45.2811    2.8884   12.2994 N   0  0  0  0  0  0  0  0  0  0  0  0
   46.1731    8.8338   12.6674 C   0  0  0  0  0  0  0  0  0  0  0  0
   43.8648    8.8149   11.1055 C   0  0  0  0  0  0  0  0  0  0  0  0
   45.7177   10.0147   12.0803 C   0  0  0  0  0  0  0  0  0  0  0  0
   44.5661   10.0043   11.2978 C   0  0  0  0  0  0  0  0  0  0  0  0
   45.8897    6.4708   14.2280 H   0  0  0  0  0  0  0  0  0  0  0  0
   47.0697    6.2839   12.9063 H   0  0  0  0  0  0  0  0  0  0  0  0
   47.1974    4.4716   14.1786 H   0  0  0  0  0  0  0  0  0  0  0  0
   43.4472    5.6445   13.5260 H   0  0  0  0  0  0  0  0  0  0  0  0
   43.3496    4.3810   12.3087 H   0  0  0  0  0  0  0  0  0  0  0  0
   43.8585    5.9405   10.4932 H   0  0  0  0  0  0  0  0  0  0  0  0
   42.4816    6.5287   11.4465 H   0  0  0  0  0  0  0  0  0  0  0  0
   45.8548    2.0603   12.4253 H   0  0  0  0  0  0  0  0  0  0  0  0
   45.1627    3.0946   11.3164 H   0  0  0  0  0  0  0  0  0  0  0  0
   47.0770    8.8593   13.2727 H   0  0  0  0  0  0  0  0  0  0  0  0
   42.9700    8.8188   10.4870 H   0  0  0  0  0  0  0  0  0  0  0  0
   46.2640   10.9424   12.2301 H   0  0  0  0  0  0  0  0  0  0  0  0
   44.2151   10.9228   10.8348 H   0  0  0  0  0  0  0  0  0  0  0  0
  2  1  1  0
  3  1  1  0
  4  3  1  0
  5  2  2  3
  6  1  1  0
  7  8  1  0
  8  6  1  0
  9  2  1  0
 10  4  2  0
 11  7  2  0
 12 10  1  0
 13 11  1  0
  4  7  1  0
 12 13  2  0
  3 14  1  0
  3 15  1  0
  5 16  1  0
  6 17  1  0
  6 18  1  0
  8 19  1  0
  8 20  1  0
  9 21  1  0
  9 22  1  0
 10 23  1  0
 11 24  1  0
 12 25  1  0
 13 26  1  0
M  END
> <Uni-Dock RESULT> 
ENERGY=   -3.482  LOWER_BOUND=    4.268  UPPER_BOUND=    5.707
INTER + INTRA:          -3.482
INTER:                  -3.482
INTRA:                   0.000
UNBOUND:                 0.000

$$$$

     RDKit          3D

 26 27  0  0  0  0  0  0  0  0999 V2000
   47.1065    6.9352   13.5970 N   0  0  0  0  0  0  0  0  0  0  0  0
   48.1333    7.3841   14.3773 C   0  0  0  0  0  0  0  0  0  0  0  0
   46.9165    5.4970   13.3689 C   0  0  0  0  0  0  0  0  0  0  0  0
   45.5586    5.1498   12.7903 C   0  0  0  0  0  0  0  0  0  0  0  0
   49.1201    6.7115   14.8541 N   0  0  0  0  0  0  0  0  0  0  0  0
   46.5776    7.7674   12.5044 C   0  0  0  0  0  0  0  0  0  0  0  0
   44.6824    6.1387   12.3086 C   0  0  0  0  0  0  0  0  0  0  0  0
   45.0629    7.5924   12.4094 C   0  0  0  0  0  0  0  0  0  0  0  0
   48.0645    8.6865   14.7228 N   0  0  0  0  0  0  0  0  0  0  0  0
   45.1773    3.8010   12.7039 C   0  0  0  0  0  0  0  0  0  0  0  0
   43.4354    5.7728   11.7840 C   0  0  0  0  0  0  0  0  0  0  0  0
   43.9397    3.4443   12.1677 C   0  0  0  0  0  0  0  0  0  0  0  0
   43.0686    4.4297   11.7109 C   0  0  0  0  0  0  0  0  0  0  0  0
   47.6926    5.1324   12.6847 H   0  0  0  0  0  0  0  0  0  0  0  0
   47.0156    4.9666   14.3243 H   0  0  0  0  0  0  0  0  0  0  0  0
   49.0814    5.7474   14.5292 H   0  0  0  0  0  0  0  0  0  0  0  0
   47.0605    7.4740   11.5628 H   0  0  0  0  0  0  0  0  0  0  0  0
   46.7924    8.8325   12.6445 H   0  0  0  0  0  0  0  0  0  0  0  0
   44.5821    8.0135   13.3009 H   0  0  0  0  0  0  0  0  0  0  0  0
   44.6954    8.1404   11.5341 H   0  0  0  0  0  0  0  0  0  0  0  0
   48.7628    8.8727   15.4358 H   0  0  0  0  0  0  0  0  0  0  0  0
   47.1424    8.9405   15.0513 H   0  0  0  0  0  0  0  0  0  0  0  0
   45.8442    3.0183   13.0599 H   0  0  0  0  0  0  0  0  0  0  0  0
   42.7435    6.5334   11.4294 H   0  0  0  0  0  0  0  0  0  0  0  0
   43.6533    2.3973   12.1101 H   0  0  0  0  0  0  0  0  0  0  0  0
   42.1016    4.1524   11.2994 H   0  0  0  0  0  0  0  0  0  0  0  0
  2  1  1  0
  3  1  1  0
  4  3  1  0
  5  2  2  3
  6  1  1  0
  7  8  1  0
  8  6  1  0
  9  2  1  0
 10  4  2  0
 11  7  2  0
 12 10  1  0
 13 11  1  0
  4  7  1  0
 12 13  2  0
  3 14  1  0
  3 15  1  0
  5 16  1  0
  6 17  1  0
  6 18  1  0
  8 19  1  0
  8 20  1  0
  9 21  1  0
  9 22  1  0
 10 23  1  0
 11 24  1  0
 12 25  1  0
 13 26  1  0
M  END
> <Uni-Dock RESULT> 
ENERGY=   -3.407  LOWER_BOUND=    5.025  UPPER_BOUND=    6.187
INTER + INTRA:          -3.407
INTER:                  -3.407
INTRA:                   0.000
UNBOUND:                 0.000

$$$$

     RDKit          3D

 26 27  0  0  0  0  0  0  0  0999 V2000
   47.0625    4.8247   14.5205 N   0  0  0  0  0  0  0  0  0  0  0  0
   47.7066    4.5852   15.7005 C   0  0  0  0  0  0  0  0  0  0  0  0
   46.4207    3.7276   13.7849 C   0  0  0  0  0  0  0  0  0  0  0  0
   45.4657    4.1992   12.7057 C   0  0  0  0  0  0  0  0  0  0  0  0
   47.9927    3.4498   16.2321 N   0  0  0  0  0  0  0  0  0  0  0  0
   47.4828    5.9346   13.6501 C   0  0  0  0  0  0  0  0  0  0  0  0
   45.4001    5.5472   12.3102 C   0  0  0  0  0  0  0  0  0  0  0  0
   46.2563    6.5749   13.0022 C   0  0  0  0  0  0  0  0  0  0  0  0
   48.0347    5.6857   16.4088 N   0  0  0  0  0  0  0  0  0  0  0  0
   44.6456    3.2593   12.0606 C   0  0  0  0  0  0  0  0  0  0  0  0
   44.5005    5.9395   11.3097 C   0  0  0  0  0  0  0  0  0  0  0  0
   43.7626    3.6559   11.0559 C   0  0  0  0  0  0  0  0  0  0  0  0
   43.6883    4.9954   10.6831 C   0  0  0  0  0  0  0  0  0  0  0  0
   47.1926    3.1015   13.3206 H   0  0  0  0  0  0  0  0  0  0  0  0
   45.8476    3.1113   14.4889 H   0  0  0  0  0  0  0  0  0  0  0  0
   47.7103    2.6895   15.6166 H   0  0  0  0  0  0  0  0  0  0  0  0
   48.1688    5.5505   12.8835 H   0  0  0  0  0  0  0  0  0  0  0  0
   48.0296    6.7125   14.1942 H   0  0  0  0  0  0  0  0  0  0  0  0
   45.6474    7.0725   13.7669 H   0  0  0  0  0  0  0  0  0  0  0  0
   46.5884    7.3344   12.2849 H   0  0  0  0  0  0  0  0  0  0  0  0
   48.3410    5.3997   17.3335 H   0  0  0  0  0  0  0  0  0  0  0  0
   47.2624    6.3354   16.4737 H   0  0  0  0  0  0  0  0  0  0  0  0
   44.6880    2.2090   12.3422 H   0  0  0  0  0  0  0  0  0  0  0  0
   44.4286    6.9836   11.0136 H   0  0  0  0  0  0  0  0  0  0  0  0
   43.1293    2.9203   10.5668 H   0  0  0  0  0  0  0  0  0  0  0  0
   42.9956    5.3056    9.9051 H   0  0  0  0  0  0  0  0  0  0  0  0
  2  1  1  0
  3  1  1  0
  4  3  1  0
  5  2  2  3
  6  1  1  0
  7  8  1  0
  8  6  1  0
  9  2  1  0
 10  4  2  0
 11  7  2  0
 12 10  1  0
 13 11  1  0
  4  7  1  0
 12 13  2  0
  3 14  1  0
  3 15  1  0
  5 16  1  0
  6 17  1  0
  6 18  1  0
  8 19  1  0
  8 20  1  0
  9 21  1  0
  9 22  1  0
 10 23  1  0
 11 24  1  0
 12 25  1  0
 13 26  1  0
M  END
> <Uni-Dock RESULT> 
ENERGY=   -3.334  LOWER_BOUND=    4.832  UPPER_BOUND=    5.890
INTER + INTRA:          -3.334
INTER:                  -3.334
INTRA:                   0.000
UNBOUND:                 0.000

$$$$

     RDKit          3D

 26 27  0  0  0  0  0  0  0  0999 V2000
   47.6780    4.9298   18.7236 N   0  0  0  0  0  0  0  0  0  0  0  0
   47.4048    4.1574   17.6311 C   0  0  0  0  0  0  0  0  0  0  0  0
   47.6527    6.3949   18.6265 C   0  0  0  0  0  0  0  0  0  0  0  0
   47.6259    7.0907   19.9735 C   0  0  0  0  0  0  0  0  0  0  0  0
   47.2684    4.5321   16.4087 N   0  0  0  0  0  0  0  0  0  0  0  0
   48.5721    4.4373   19.7838 C   0  0  0  0  0  0  0  0  0  0  0  0
   47.8447    6.3920   21.1742 C   0  0  0  0  0  0  0  0  0  0  0  0
   48.0612    4.9018   21.1466 C   0  0  0  0  0  0  0  0  0  0  0  0
   47.2083    2.8477   17.8890 N   0  0  0  0  0  0  0  0  0  0  0  0
   47.4076    8.4771   20.0221 C   0  0  0  0  0  0  0  0  0  0  0  0
   47.8085    7.0750   22.3974 C   0  0  0  0  0  0  0  0  0  0  0  0
   47.3868    9.1519   21.2431 C   0  0  0  0  0  0  0  0  0  0  0  0
   47.5843    8.4506   22.4297 C   0  0  0  0  0  0  0  0  0  0  0  0
   48.5356    6.7373   18.0727 H   0  0  0  0  0  0  0  0  0  0  0  0
   46.7543    6.7020   18.0765 H   0  0  0  0  0  0  0  0  0  0  0  0
   47.4430    5.5314   16.3230 H   0  0  0  0  0  0  0  0  0  0  0  0
   49.5872    4.8148   19.6023 H   0  0  0  0  0  0  0  0  0  0  0  0
   48.6455    3.3443   19.7986 H   0  0  0  0  0  0  0  0  0  0  0  0
   47.1073    4.4106   21.3746 H   0  0  0  0  0  0  0  0  0  0  0  0
   48.7856    4.6113   21.9163 H   0  0  0  0  0  0  0  0  0  0  0  0
   46.8418    2.4018   17.0539 H   0  0  0  0  0  0  0  0  0  0  0  0
   46.5835    2.7080   18.6719 H   0  0  0  0  0  0  0  0  0  0  0  0
   47.2475    9.0401   19.1048 H   0  0  0  0  0  0  0  0  0  0  0  0
   47.9553    6.5378   23.3316 H   0  0  0  0  0  0  0  0  0  0  0  0
   47.2123   10.2244   21.2689 H   0  0  0  0  0  0  0  0  0  0  0  0
   47.5613    8.9750   23.3814 H   0  0  0  0  0  0  0  0  0  0  0  0
  2  1  1  0
  3  1  1  0
  4  3  1  0
  5  2  2  3
  6  1  1  0
  7  8  1  0
  8  6  1  0
  9  2  1  0
 10  4  2  0
 11  7  2  0
 12 10  1  0
 13 11  1  0
  4  7  1  0
 12 13  2  0
  3 14  1  0
  3 15  1  0
  5 16  1  0
  6 17  1  0
  6 18  1  0
  8 19  1  0
  8 20  1  0
  9 21  1  0
  9 22  1  0
 10 23  1  0
 11 24  1  0
 12 25  1  0
 13 26  1  0
M  END
> <Uni-Dock RESULT> 
ENERGY=   -3.292  LOWER_BOUND=   10.209  UPPER_BOUND=   11.632
INTER + INTRA:          -3.292
INTER:                  -3.292
INTRA:                   0.000
UNBOUND:                 0.000

$$$$

     RDKit          3D

 26 27  0  0  0  0  0  0  0  0999 V2000
   44.4700    4.7400   12.4641 N   0  0  0  0  0  0  0  0  0  0  0  0
   43.7572    3.6278   12.1180 C   0  0  0  0  0  0  0  0  0  0  0  0
   45.6485    4.6302   13.3334 C   0  0  0  0  0  0  0  0  0  0  0  0
   46.5182    5.8722   13.3342 C   0  0  0  0  0  0  0  0  0  0  0  0
   43.8699    2.4357   12.5867 N   0  0  0  0  0  0  0  0  0  0  0  0
   43.8131    6.0545   12.5460 C   0  0  0  0  0  0  0  0  0  0  0  0
   46.0936    7.0759   12.7438 C   0  0  0  0  0  0  0  0  0  0  0  0
   44.7634    7.1385   12.0402 C   0  0  0  0  0  0  0  0  0  0  0  0
   42.8605    3.8066   11.1260 N   0  0  0  0  0  0  0  0  0  0  0  0
   47.7700    5.8295   13.9694 C   0  0  0  0  0  0  0  0  0  0  0  0
   46.9313    8.1993   12.7656 C   0  0  0  0  0  0  0  0  0  0  0  0
   48.5921    6.9563   13.9986 C   0  0  0  0  0  0  0  0  0  0  0  0
   48.1740    8.1391   13.3947 C   0  0  0  0  0  0  0  0  0  0  0  0
   45.3235    4.4293   14.3617 H   0  0  0  0  0  0  0  0  0  0  0  0
   46.2683    3.7914   12.9925 H   0  0  0  0  0  0  0  0  0  0  0  0
   44.5648    2.4118   13.3305 H   0  0  0  0  0  0  0  0  0  0  0  0
   43.5251    6.2482   13.5879 H   0  0  0  0  0  0  0  0  0  0  0  0
   42.8917    6.1022   11.9553 H   0  0  0  0  0  0  0  0  0  0  0  0
   44.9361    7.0110   10.9645 H   0  0  0  0  0  0  0  0  0  0  0  0
   44.2997    8.1194   12.1961 H   0  0  0  0  0  0  0  0  0  0  0  0
   42.5186    2.8986   10.8271 H   0  0  0  0  0  0  0  0  0  0  0  0
   43.2582    4.3128   10.3460 H   0  0  0  0  0  0  0  0  0  0  0  0
   48.1141    4.9122   14.4429 H   0  0  0  0  0  0  0  0  0  0  0  0
   46.6188    9.1274   12.2923 H   0  0  0  0  0  0  0  0  0  0  0  0
   49.5609    6.9101   14.4892 H   0  0  0  0  0  0  0  0  0  0  0  0
   48.8172    9.0151   13.4115 H   0  0  0  0  0  0  0  0  0  0  0  0
  2  1  1  0
  3  1  1  0
  4  3  1  0
  5  2  2  3
  6  1  1  0
  7  8  1  0
  8  6  1  0
  9  2  1  0
 10  4  2  0
 11  7  2  0
 12 10  1  0
 13 11  1  0
  4  7  1  0
 12 13  2  0
  3 14  1  0
  3 15  1  0
  5 16  1  0
  6 17  1  0
  6 18  1  0
  8 19  1  0
  8 20  1  0
  9 21  1  0
  9 22  1  0
 10 23  1  0
 11 24  1  0
 12 25  1  0
 13 26  1  0
M  END
> <Uni-Dock RESULT> 
ENERGY=   -3.164  LOWER_BOUND=    4.262  UPPER_BOUND=    5.662
INTER + INTRA:          -3.164
INTER:                  -3.164
INTRA:                   0.000
UNBOUND:                 0.000

$$$$

     RDKit          3D

 26 27  0  0  0  0  0  0  0  0999 V2000
   47.7820    6.8189   21.4223 N   0  0  0  0  0  0  0  0  0  0  0  0
   47.8075    5.4831   21.7048 C   0  0  0  0  0  0  0  0  0  0  0  0
   48.2372    7.3141   20.1169 C   0  0  0  0  0  0  0  0  0  0  0  0
   47.8222    8.7447   19.8336 C   0  0  0  0  0  0  0  0  0  0  0  0
   48.3459    4.5374   21.0197 N   0  0  0  0  0  0  0  0  0  0  0  0
   47.9216    7.8141   22.4975 C   0  0  0  0  0  0  0  0  0  0  0  0
   47.2673    9.5675   20.8300 C   0  0  0  0  0  0  0  0  0  0  0  0
   47.0217    9.0146   22.2092 C   0  0  0  0  0  0  0  0  0  0  0  0
   47.1393    5.1194   22.8190 N   0  0  0  0  0  0  0  0  0  0  0  0
   48.0263    9.2737   18.5489 C   0  0  0  0  0  0  0  0  0  0  0  0
   46.8956   10.8835   20.5233 C   0  0  0  0  0  0  0  0  0  0  0  0
   47.6661   10.5893   18.2555 C   0  0  0  0  0  0  0  0  0  0  0  0
   47.0987   11.3923   19.2413 C   0  0  0  0  0  0  0  0  0  0  0  0
   49.3311    7.2498   20.0657 H   0  0  0  0  0  0  0  0  0  0  0  0
   47.8126    6.6827   19.3263 H   0  0  0  0  0  0  0  0  0  0  0  0
   48.8274    4.9184   20.2076 H   0  0  0  0  0  0  0  0  0  0  0  0
   48.9723    8.1259   22.5647 H   0  0  0  0  0  0  0  0  0  0  0  0
   47.6536    7.4120   23.4807 H   0  0  0  0  0  0  0  0  0  0  0  0
   45.9683    8.7164   22.2785 H   0  0  0  0  0  0  0  0  0  0  0  0
   47.2065    9.7875   22.9642 H   0  0  0  0  0  0  0  0  0  0  0  0
   47.0683    4.1069   22.8415 H   0  0  0  0  0  0  0  0  0  0  0  0
   46.2218    5.5427   22.8626 H   0  0  0  0  0  0  0  0  0  0  0  0
   48.4649    8.6589   17.7654 H   0  0  0  0  0  0  0  0  0  0  0  0
   46.4459   11.5190   21.2829 H   0  0  0  0  0  0  0  0  0  0  0  0
   47.8245   10.9866   17.2562 H   0  0  0  0  0  0  0  0  0  0  0  0
   46.8117   12.4150   19.0110 H   0  0  0  0  0  0  0  0  0  0  0  0
  2  1  1  0
  3  1  1  0
  4  3  1  0
  5  2  2  3
  6  1  1  0
  7  8  1  0
  8  6  1  0
  9  2  1  0
 10  4  2  0
 11  7  2  0
 12 10  1  0
 13 11  1  0
  4  7  1  0
 12 13  2  0
  3 14  1  0
  3 15  1  0
  5 16  1  0
  6 17  1  0
  6 18  1  0
  8 19  1  0
  8 20  1  0
  9 21  1  0
  9 22  1  0
 10 23  1  0
 11 24  1  0
 12 25  1  0
 13 26  1  0
M  END
> <Uni-Dock RESULT> 
ENERGY=   -3.160  LOWER_BOUND=   12.000  UPPER_BOUND=   13.321
INTER + INTRA:          -3.160
INTER:                  -3.160
INTRA:                   0.000
UNBOUND:                 0.000

$$$$
