
     RDKit          3D

 98103  0  0  0  0  0  0  0  0999 V2000
   47.9738    8.0227   15.1577 N   0  0  0  0  0  0  0  0  0  0  0  0
   47.6640    8.1554   13.7128 C   0  0  1  0  0  0  0  0  0  0  0  0
   49.3470    8.4591   17.7440 N   0  0  0  0  0  0  0  0  0  0  0  0
   48.8616    8.5083   12.8200 C   0  0  0  0  0  0  0  0  0  0  0  0
   49.2572    7.3712   15.4777 C   0  0  0  0  0  0  0  0  0  0  0  0
   47.8813    9.3009   15.8825 C   0  0  0  0  0  0  0  0  0  0  0  0
   46.8134    6.9956   13.1629 C   0  0  0  0  0  0  0  0  0  0  0  0
   49.2206    9.8539   12.6255 C   0  0  0  0  0  0  0  0  0  0  0  0
   49.6363    7.5122   12.1955 C   0  0  0  0  0  0  0  0  0  0  0  0
   49.4408    7.1823   17.0033 C   0  0  0  0  0  0  0  0  0  0  0  0
   48.0650    9.1117   17.4059 C   0  0  0  0  0  0  0  0  0  0  0  0
   51.0675    9.1903   11.2188 C   0  0  0  0  0  0  0  0  0  0  0  0
   50.7296    7.8520   11.3952 C   0  0  0  0  0  0  0  0  0  0  0  0
   50.3198   10.1925   11.8320 C   0  0  0  0  0  0  0  0  0  0  0  0
   52.4170    9.6106   10.2378 Cl  0  0  0  0  0  0  0  0  0  0  0  0
   49.4482    8.2643   19.1995 C   0  0  0  0  0  0  0  0  0  0  0  0
   52.0301    7.0533   23.5263 O   0  0  0  0  0  0  0  0  0  0  0  0
   50.9477    7.8993   21.1059 O   0  0  0  0  0  0  0  0  0  0  0  0
   46.2025    7.1385   11.8994 C   0  0  0  0  0  0  0  0  0  0  0  0
   46.6025    5.7969   13.8626 C   0  0  0  0  0  0  0  0  0  0  0  0
   50.6623    6.7997   23.2079 C   0  0  0  0  0  0  0  0  0  0  0  0
   50.8636    7.8938   19.6754 C   0  0  0  0  0  0  0  0  0  0  0  0
   50.5035    6.6703   21.6959 C   0  0  0  0  0  0  0  0  0  0  0  0
   45.8242    4.7732   13.3145 C   0  0  0  0  0  0  0  0  0  0  0  0
   45.4250    6.1163   11.3524 C   0  0  0  0  0  0  0  0  0  0  0  0
   45.2375    4.9323   12.0611 C   0  0  0  0  0  0  0  0  0  0  0  0
   49.2801    8.9590   18.7983 C   0  0  0  0  0  0  0  0  0  0  0  0
   47.2294    6.0761   13.7827 C   0  0  0  0  0  0  0  0  0  0  0  0
   49.0716    7.5372   14.4883 C   0  0  0  0  0  0  0  0  0  0  0  0
   50.1438    7.7450   16.8444 C   0  0  0  0  0  0  0  0  0  0  0  0
   49.5247    8.8781   17.4212 C   0  0  0  0  0  0  0  0  0  0  0  0
   48.4129    6.2863   14.5040 C   0  0  0  0  0  0  0  0  0  0  0  0
   50.3432    7.7080   15.3256 C   0  0  0  0  0  0  0  0  0  0  0  0
   49.6835    7.9065   19.6223 C   0  0  0  0  0  0  0  0  0  0  0  0
   46.6994    7.1149   13.0152 C   0  0  0  0  0  0  0  0  0  0  0  0
   48.6204   10.1114   19.4640 C   0  0  0  0  0  0  0  0  0  0  0  0
   46.5556    4.7580   13.8355 C   0  0  0  0  0  0  0  0  0  0  0  0
   48.5403    8.5905   13.6686 C   0  0  0  0  0  0  0  0  0  0  0  0
   50.5791    6.6817   17.7032 C   0  0  0  0  0  0  0  0  0  0  0  0
   50.3336    6.7826   19.0993 C   0  0  0  0  0  0  0  0  0  0  0  0
   47.3413    8.3570   12.9410 C   0  0  0  0  0  0  0  0  0  0  0  0
   48.4339   10.2427   20.6597 O   0  0  0  0  0  0  0  0  0  0  0  0
   46.9392    3.8117   14.5038 O   0  0  0  0  0  0  0  0  0  0  0  0
   49.1994    9.9105   16.5789 O   0  0  0  0  0  0  0  0  0  0  0  0
   48.9908    5.2716   15.2273 O   0  0  0  0  0  0  0  0  0  0  0  0
   48.2039   11.0609   18.5981 O   0  0  0  0  0  0  0  0  0  0  0  0
   45.4601    4.6730   13.0632 O   0  0  0  0  0  0  0  0  0  0  0  0
   51.2572    5.5147   17.2687 C   0  0  0  0  0  0  0  0  0  0  0  0
   49.1263    9.8733   13.5134 C   0  0  0  0  0  0  0  0  0  0  0  0
   50.7387    5.7596   19.9748 C   0  0  0  0  0  0  0  0  0  0  0  0
   46.7847    9.3642   12.1327 C   0  0  0  0  0  0  0  0  0  0  0  0
   48.5601   10.8692   12.7096 C   0  0  0  0  0  0  0  0  0  0  0  0
   51.6584    4.5056   18.1493 C   0  0  0  0  0  0  0  0  0  0  0  0
   47.3877   10.6131   12.0182 C   0  0  0  0  0  0  0  0  0  0  0  0
   51.3947    4.6261   19.5033 C   0  0  0  0  0  0  0  0  0  0  0  0
   46.9604    8.9981   13.6214 H   0  0  0  0  0  0  0  0  0  0  0  0
   50.1060    7.9621   15.1082 H   0  0  0  0  0  0  0  0  0  0  0  0
   49.3127    6.3823   15.0086 H   0  0  0  0  0  0  0  0  0  0  0  0
   46.8930    9.7483   15.7221 H   0  0  0  0  0  0  0  0  0  0  0  0
   48.6324   10.0125   15.5169 H   0  0  0  0  0  0  0  0  0  0  0  0
   48.6483   10.6483   13.0984 H   0  0  0  0  0  0  0  0  0  0  0  0
   49.3906    6.4592   12.3278 H   0  0  0  0  0  0  0  0  0  0  0  0
   48.6876    6.4691   17.3672 H   0  0  0  0  0  0  0  0  0  0  0  0
   50.4262    6.7288   17.1632 H   0  0  0  0  0  0  0  0  0  0  0  0
   48.0232   10.1028   17.8750 H   0  0  0  0  0  0  0  0  0  0  0  0
   47.2208    8.5275   17.7982 H   0  0  0  0  0  0  0  0  0  0  0  0
   51.3099    7.0691   10.9148 H   0  0  0  0  0  0  0  0  0  0  0  0
   50.5865   11.2370   11.7009 H   0  0  0  0  0  0  0  0  0  0  0  0
   48.7193    7.5207   19.5458 H   0  0  0  0  0  0  0  0  0  0  0  0
   49.1811    9.1997   19.7107 H   0  0  0  0  0  0  0  0  0  0  0  0
   52.3087    7.7579   22.9097 H   0  0  0  0  0  0  0  0  0  0  0  0
   46.3386    8.0567   11.3291 H   0  0  0  0  0  0  0  0  0  0  0  0
   47.0365    5.6456   14.8465 H   0  0  0  0  0  0  0  0  0  0  0  0
   50.0746    7.6372   23.5953 H   0  0  0  0  0  0  0  0  0  0  0  0
   50.3531    5.8817   23.7169 H   0  0  0  0  0  0  0  0  0  0  0  0
   51.5691    8.6537   19.3228 H   0  0  0  0  0  0  0  0  0  0  0  0
   51.2004    6.9274   19.2828 H   0  0  0  0  0  0  0  0  0  0  0  0
   51.1338    5.8537   21.3271 H   0  0  0  0  0  0  0  0  0  0  0  0
   49.4560    6.4767   21.4454 H   0  0  0  0  0  0  0  0  0  0  0  0
   45.6749    3.8498   13.8696 H   0  0  0  0  0  0  0  0  0  0  0  0
   44.9647    6.2465   10.3770 H   0  0  0  0  0  0  0  0  0  0  0  0
   44.6284    4.1389   11.6380 H   0  0  0  0  0  0  0  0  0  0  0  0
   50.8997    8.6100   15.0510 H   0  0  0  0  0  0  0  0  0  0  0  0
   51.0378    6.9197   15.0189 H   0  0  0  0  0  0  0  0  0  0  0  0
   49.4989    7.9719   20.6941 H   0  0  0  0  0  0  0  0  0  0  0  0
   45.7793    6.9538   12.4559 H   0  0  0  0  0  0  0  0  0  0  0  0
   48.6882   10.5739   17.0873 H   0  0  0  0  0  0  0  0  0  0  0  0
   48.3960    4.4900   15.2390 H   0  0  0  0  0  0  0  0  0  0  0  0
   47.7933   11.7295   19.1914 H   0  0  0  0  0  0  0  0  0  0  0  0
   45.1352    3.7582   13.1995 H   0  0  0  0  0  0  0  0  0  0  0  0
   51.4775    5.3527   16.2178 H   0  0  0  0  0  0  0  0  0  0  0  0
   50.0396   10.1380   14.0389 H   0  0  0  0  0  0  0  0  0  0  0  0
   50.5435    5.8372   21.0434 H   0  0  0  0  0  0  0  0  0  0  0  0
   45.8657    9.1825   11.5779 H   0  0  0  0  0  0  0  0  0  0  0  0
   49.0445   11.8387   12.6287 H   0  0  0  0  0  0  0  0  0  0  0  0
   52.1695    3.6258   17.7672 H   0  0  0  0  0  0  0  0  0  0  0  0
   46.9426   11.3787   11.3894 H   0  0  0  0  0  0  0  0  0  0  0  0
   51.6989    3.8440   20.1932 H   0  0  0  0  0  0  0  0  0  0  0  0
  2  1  1  0
  3 10  1  0
  4  2  1  0
  5  1  1  0
  6  1  1  0
  7  2  1  0
  8  4  2  0
  9  4  1  0
 10  5  1  0
 11  6  1  0
 12 14  2  0
 13  9  2  0
 14  8  1  0
 15 12  1  0
 16  3  1  0
 17 21  1  0
 18 22  1  0
 19  7  2  0
 20  7  1  0
 21 23  1  0
 22 16  1  0
 23 18  1  0
 24 20  2  0
 25 19  1  0
 26 25  2  0
 11  3  1  0
 13 12  1  0
 24 26  1  0
 28 32  2  0
 29 33  1  0
 30 31  1  0
 31 27  2  0
 32 29  1  0
 33 30  1  0
 34 27  1  0
 35 28  1  0
 36 27  1  0
 37 28  1  0
 38 29  2  0
 39 40  1  0
 40 34  2  0
 41 38  1  0
 42 36  2  0
 43 37  2  0
 44 31  1  0
 45 32  1  0
 46 36  1  0
 47 37  1  0
 48 39  1  0
 49 38  1  0
 50 40  1  0
 51 41  1  0
 52 49  2  0
 53 48  2  0
 54 52  1  0
 55 50  2  0
 30 39  2  0
 53 55  1  0
 35 41  2  0
 51 54  2  0
  2 56  1  6
  5 57  1  0
  5 58  1  0
  6 59  1  0
  6 60  1  0
  8 61  1  0
  9 62  1  0
 10 63  1  0
 10 64  1  0
 11 65  1  0
 11 66  1  0
 13 67  1  0
 14 68  1  0
 16 69  1  0
 16 70  1  0
 17 71  1  0
 19 72  1  0
 20 73  1  0
 21 74  1  0
 21 75  1  0
 22 76  1  0
 22 77  1  0
 23 78  1  0
 23 79  1  0
 24 80  1  0
 25 81  1  0
 26 82  1  0
 33 83  1  0
 33 84  1  0
 34 85  1  0
 35 86  1  0
 44 87  1  0
 45 88  1  0
 46 89  1  0
 47 90  1  0
 48 91  1  0
 49 92  1  0
 50 93  1  0
 51 94  1  0
 52 95  1  0
 53 96  1  0
 54 97  1  0
 55 98  1  0
M  END
> <Uni-Dock RESULT> 
ENERGY=   -5.878  LOWER_BOUND=    0.000  UPPER_BOUND=    0.000
INTER + INTRA:          -5.878
INTER:                  -5.878
INTRA:                   0.000
UNBOUND:                 0.000

$$$$

     RDKit          3D

 98103  0  0  0  0  0  0  0  0999 V2000
   49.4206    8.7872   13.1689 N   0  0  0  0  0  0  0  0  0  0  0  0
   49.3903    8.0130   14.4342 C   0  0  1  0  0  0  0  0  0  0  0  0
   49.9097   11.0466   11.3192 N   0  0  0  0  0  0  0  0  0  0  0  0
   49.2773    8.8570   15.7113 C   0  0  0  0  0  0  0  0  0  0  0  0
   48.5260    9.9580   13.1158 C   0  0  0  0  0  0  0  0  0  0  0  0
   50.7809    9.1946   12.7798 C   0  0  0  0  0  0  0  0  0  0  0  0
   48.4107    6.8255   14.3987 C   0  0  0  0  0  0  0  0  0  0  0  0
   50.4375    9.3630   16.3239 C   0  0  0  0  0  0  0  0  0  0  0  0
   48.0293    9.1621   16.2870 C   0  0  0  0  0  0  0  0  0  0  0  0
   48.5479   10.6350   11.7237 C   0  0  0  0  0  0  0  0  0  0  0  0
   50.8022    9.8708   11.3896 C   0  0  0  0  0  0  0  0  0  0  0  0
   49.1069   10.4328   18.0313 C   0  0  0  0  0  0  0  0  0  0  0  0
   47.9454    9.9412   17.4435 C   0  0  0  0  0  0  0  0  0  0  0  0
   50.3521   10.1495   17.4757 C   0  0  0  0  0  0  0  0  0  0  0  0
   49.0053   11.3970   19.4527 Cl  0  0  0  0  0  0  0  0  0  0  0  0
   49.9355   11.6221    9.9646 C   0  0  0  0  0  0  0  0  0  0  0  0
   48.8308   15.3073    6.4930 O   0  0  0  0  0  0  0  0  0  0  0  0
   49.5177   13.6082    8.5875 O   0  0  0  0  0  0  0  0  0  0  0  0
   48.4961    5.8418   15.4062 C   0  0  0  0  0  0  0  0  0  0  0  0
   47.4354    6.6620   13.4022 C   0  0  0  0  0  0  0  0  0  0  0  0
   48.8843   13.8942    6.3015 C   0  0  0  0  0  0  0  0  0  0  0  0
   49.3007   13.0207    9.8763 C   0  0  0  0  0  0  0  0  0  0  0  0
   48.5548   13.1864    7.6125 C   0  0  0  0  0  0  0  0  0  0  0  0
   46.5676    5.5663   13.4200 C   0  0  0  0  0  0  0  0  0  0  0  0
   47.6297    4.7475   15.4237 C   0  0  0  0  0  0  0  0  0  0  0  0
   46.6639    4.6114   14.4297 C   0  0  0  0  0  0  0  0  0  0  0  0
   50.5751   11.4523   10.4482 C   0  0  0  0  0  0  0  0  0  0  0  0
   47.5295    7.2592   13.7368 C   0  0  0  0  0  0  0  0  0  0  0  0
   48.5701    9.4659   14.0085 C   0  0  0  0  0  0  0  0  0  0  0  0
   48.8801   11.3256   12.2226 C   0  0  0  0  0  0  0  0  0  0  0  0
   50.2115   11.1711   11.7717 C   0  0  0  0  0  0  0  0  0  0  0  0
   47.5471    8.6390   13.4901 C   0  0  0  0  0  0  0  0  0  0  0  0
   48.5467   10.9606   13.6729 C   0  0  0  0  0  0  0  0  0  0  0  0
   49.6036   11.9227    9.5627 C   0  0  0  0  0  0  0  0  0  0  0  0
   48.5294    6.6903   14.5278 C   0  0  0  0  0  0  0  0  0  0  0  0
   51.9498   11.2957    9.9076 C   0  0  0  0  0  0  0  0  0  0  0  0
   46.4523    6.4193   13.1635 C   0  0  0  0  0  0  0  0  0  0  0  0
   49.5756    8.8799   14.8506 C   0  0  0  0  0  0  0  0  0  0  0  0
   47.8959   11.8357   11.3123 C   0  0  0  0  0  0  0  0  0  0  0  0
   48.2818   12.1264    9.9759 C   0  0  0  0  0  0  0  0  0  0  0  0
   49.5387    7.4793   15.0927 C   0  0  0  0  0  0  0  0  0  0  0  0
   52.3172   11.5748    8.7812 O   0  0  0  0  0  0  0  0  0  0  0  0
   45.5617    6.8356   12.4406 O   0  0  0  0  0  0  0  0  0  0  0  0
   51.1411   10.7620   12.6934 O   0  0  0  0  0  0  0  0  0  0  0  0
   46.5509    9.2405   12.7603 O   0  0  0  0  0  0  0  0  0  0  0  0
   52.8197   10.7795   10.8029 O   0  0  0  0  0  0  0  0  0  0  0  0
   46.5235    5.1248   13.5144 O   0  0  0  0  0  0  0  0  0  0  0  0
   46.5403   12.0887   11.6424 C   0  0  0  0  0  0  0  0  0  0  0  0
   50.6247    9.5963   15.4825 C   0  0  0  0  0  0  0  0  0  0  0  0
   47.3463   12.6223    9.0506 C   0  0  0  0  0  0  0  0  0  0  0  0
   50.5084    6.8657   15.9054 C   0  0  0  0  0  0  0  0  0  0  0  0
   51.5869    8.9735   16.2854 C   0  0  0  0  0  0  0  0  0  0  0  0
   45.6198   12.5853   10.7145 C   0  0  0  0  0  0  0  0  0  0  0  0
   51.5275    7.6061   16.4970 C   0  0  0  0  0  0  0  0  0  0  0  0
   46.0223   12.8480    9.4159 C   0  0  0  0  0  0  0  0  0  0  0  0
   50.3574    7.4900   14.5023 H   0  0  0  0  0  0  0  0  0  0  0  0
   48.8137   10.7123   13.8604 H   0  0  0  0  0  0  0  0  0  0  0  0
   47.4925    9.6608   13.3276 H   0  0  0  0  0  0  0  0  0  0  0  0
   51.4322    8.3137   12.7284 H   0  0  0  0  0  0  0  0  0  0  0  0
   51.2092    9.8828   13.5194 H   0  0  0  0  0  0  0  0  0  0  0  0
   51.4172    9.1524   15.9020 H   0  0  0  0  0  0  0  0  0  0  0  0
   47.1092    8.7915   15.8367 H   0  0  0  0  0  0  0  0  0  0  0  0
   48.1183    9.9440   10.9846 H   0  0  0  0  0  0  0  0  0  0  0  0
   47.8915   11.5119   11.7731 H   0  0  0  0  0  0  0  0  0  0  0  0
   51.8342   10.1810   11.1826 H   0  0  0  0  0  0  0  0  0  0  0  0
   50.5234    9.1301   10.6271 H   0  0  0  0  0  0  0  0  0  0  0  0
   46.9734   10.1586   17.8776 H   0  0  0  0  0  0  0  0  0  0  0  0
   51.2589   10.5384   17.9293 H   0  0  0  0  0  0  0  0  0  0  0  0
   49.4680   10.9414    9.2420 H   0  0  0  0  0  0  0  0  0  0  0  0
   50.9785   11.7306    9.6358 H   0  0  0  0  0  0  0  0  0  0  0  0
   49.3315   15.4720    7.3155 H   0  0  0  0  0  0  0  0  0  0  0  0
   49.2441    5.9314   16.1933 H   0  0  0  0  0  0  0  0  0  0  0  0
   47.3414    7.3825   12.5951 H   0  0  0  0  0  0  0  0  0  0  0  0
   49.8951   13.6469    5.9637 H   0  0  0  0  0  0  0  0  0  0  0  0
   48.1705   13.6241    5.5173 H   0  0  0  0  0  0  0  0  0  0  0  0
   49.7887   13.6807   10.6015 H   0  0  0  0  0  0  0  0  0  0  0  0
   48.2298   13.0126   10.1103 H   0  0  0  0  0  0  0  0  0  0  0  0
   47.5562   13.4831    7.9513 H   0  0  0  0  0  0  0  0  0  0  0  0
   48.5952   12.1020    7.4721 H   0  0  0  0  0  0  0  0  0  0  0  0
   45.8155    5.4582   12.6416 H   0  0  0  0  0  0  0  0  0  0  0  0
   47.7116    4.0021   16.2098 H   0  0  0  0  0  0  0  0  0  0  0  0
   45.9930    3.7573   14.4401 H   0  0  0  0  0  0  0  0  0  0  0  0
   49.2207   11.5378   14.3142 H   0  0  0  0  0  0  0  0  0  0  0  0
   47.5688   11.3436   13.9813 H   0  0  0  0  0  0  0  0  0  0  0  0
   49.8875   12.1473    8.5351 H   0  0  0  0  0  0  0  0  0  0  0  0
   48.5181    5.6184   14.7188 H   0  0  0  0  0  0  0  0  0  0  0  0
   51.9862   10.5960   12.2263 H   0  0  0  0  0  0  0  0  0  0  0  0
   45.9585    8.5565   12.3780 H   0  0  0  0  0  0  0  0  0  0  0  0
   53.6580   10.7369   10.2901 H   0  0  0  0  0  0  0  0  0  0  0  0
   45.7559    4.7083   13.0691 H   0  0  0  0  0  0  0  0  0  0  0  0
   46.1586   11.8867   12.6387 H   0  0  0  0  0  0  0  0  0  0  0  0
   50.7309   10.6689   15.3453 H   0  0  0  0  0  0  0  0  0  0  0  0
   47.6440   12.8382    8.0255 H   0  0  0  0  0  0  0  0  0  0  0  0
   50.4780    5.7927   16.0877 H   0  0  0  0  0  0  0  0  0  0  0  0
   52.3751    9.5660   16.7423 H   0  0  0  0  0  0  0  0  0  0  0  0
   44.5891   12.7565   11.0135 H   0  0  0  0  0  0  0  0  0  0  0  0
   52.2680    7.1144   17.1212 H   0  0  0  0  0  0  0  0  0  0  0  0
   45.3118   13.2294    8.6878 H   0  0  0  0  0  0  0  0  0  0  0  0
  2  1  1  0
  3 10  1  0
  4  2  1  0
  5  1  1  0
  6  1  1  0
  7  2  1  0
  8  4  2  0
  9  4  1  0
 10  5  1  0
 11  6  1  0
 12 14  2  0
 13  9  2  0
 14  8  1  0
 15 12  1  0
 16  3  1  0
 17 21  1  0
 18 22  1  0
 19  7  2  0
 20  7  1  0
 21 23  1  0
 22 16  1  0
 23 18  1  0
 24 20  2  0
 25 19  1  0
 26 25  2  0
 11  3  1  0
 13 12  1  0
 24 26  1  0
 28 32  2  0
 29 33  1  0
 30 31  1  0
 31 27  2  0
 32 29  1  0
 33 30  1  0
 34 27  1  0
 35 28  1  0
 36 27  1  0
 37 28  1  0
 38 29  2  0
 39 40  1  0
 40 34  2  0
 41 38  1  0
 42 36  2  0
 43 37  2  0
 44 31  1  0
 45 32  1  0
 46 36  1  0
 47 37  1  0
 48 39  1  0
 49 38  1  0
 50 40  1  0
 51 41  1  0
 52 49  2  0
 53 48  2  0
 54 52  1  0
 55 50  2  0
 30 39  2  0
 53 55  1  0
 35 41  2  0
 51 54  2  0
  2 56  1  6
  5 57  1  0
  5 58  1  0
  6 59  1  0
  6 60  1  0
  8 61  1  0
  9 62  1  0
 10 63  1  0
 10 64  1  0
 11 65  1  0
 11 66  1  0
 13 67  1  0
 14 68  1  0
 16 69  1  0
 16 70  1  0
 17 71  1  0
 19 72  1  0
 20 73  1  0
 21 74  1  0
 21 75  1  0
 22 76  1  0
 22 77  1  0
 23 78  1  0
 23 79  1  0
 24 80  1  0
 25 81  1  0
 26 82  1  0
 33 83  1  0
 33 84  1  0
 34 85  1  0
 35 86  1  0
 44 87  1  0
 45 88  1  0
 46 89  1  0
 47 90  1  0
 48 91  1  0
 49 92  1  0
 50 93  1  0
 51 94  1  0
 52 95  1  0
 53 96  1  0
 54 97  1  0
 55 98  1  0
M  END
> <Uni-Dock RESULT> 
ENERGY=   -5.652  LOWER_BOUND=    3.590  UPPER_BOUND=    8.018
INTER + INTRA:          -5.652
INTER:                  -5.652
INTRA:                   0.000
UNBOUND:                 0.000

$$$$

     RDKit          3D

 98103  0  0  0  0  0  0  0  0999 V2000
   49.4448    8.9953   14.8807 N   0  0  0  0  0  0  0  0  0  0  0  0
   49.2449    8.6295   13.4568 C   0  0  1  0  0  0  0  0  0  0  0  0
   48.8384   10.0667   17.5732 N   0  0  0  0  0  0  0  0  0  0  0  0
   48.2492    9.5123   12.6916 C   0  0  0  0  0  0  0  0  0  0  0  0
   49.4785   10.4407   15.1694 C   0  0  0  0  0  0  0  0  0  0  0  0
   48.4809    8.3402   15.7805 C   0  0  0  0  0  0  0  0  0  0  0  0
   50.5635    8.3965   12.6965 C   0  0  0  0  0  0  0  0  0  0  0  0
   46.8765    9.2082   12.7178 C   0  0  0  0  0  0  0  0  0  0  0  0
   48.6699   10.6452   11.9693 C   0  0  0  0  0  0  0  0  0  0  0  0
   49.7980   10.7218   16.6579 C   0  0  0  0  0  0  0  0  0  0  0  0
   48.8003    8.6215   17.2668 C   0  0  0  0  0  0  0  0  0  0  0  0
   46.3939   11.1241   11.3298 C   0  0  0  0  0  0  0  0  0  0  0  0
   47.7477   11.4432   11.2880 C   0  0  0  0  0  0  0  0  0  0  0  0
   45.9538   10.0120   12.0433 C   0  0  0  0  0  0  0  0  0  0  0  0
   45.2559   12.1088   10.4957 Cl  0  0  0  0  0  0  0  0  0  0  0  0
   49.1898   10.2760   18.9872 C   0  0  0  0  0  0  0  0  0  0  0  0
   49.7448   13.2136   23.2199 O   0  0  0  0  0  0  0  0  0  0  0  0
   49.1213   11.8140   20.8965 O   0  0  0  0  0  0  0  0  0  0  0  0
   50.5206    7.7625   11.4370 C   0  0  0  0  0  0  0  0  0  0  0  0
   51.8187    8.7748   13.1989 C   0  0  0  0  0  0  0  0  0  0  0  0
   50.5424   12.1094   22.7944 C   0  0  0  0  0  0  0  0  0  0  0  0
   48.9414   11.7126   19.4785 C   0  0  0  0  0  0  0  0  0  0  0  0
   50.4925   11.9969   21.2735 C   0  0  0  0  0  0  0  0  0  0  0  0
   52.9853    8.5433   12.4645 C   0  0  0  0  0  0  0  0  0  0  0  0
   51.6857    7.5311   10.7038 C   0  0  0  0  0  0  0  0  0  0  0  0
   52.9187    7.9236   11.2186 C   0  0  0  0  0  0  0  0  0  0  0  0
   48.5957    9.7991   18.6846 C   0  0  0  0  0  0  0  0  0  0  0  0
   51.2751    9.2013   13.1950 C   0  0  0  0  0  0  0  0  0  0  0  0
   49.2637   10.1793   14.2069 C   0  0  0  0  0  0  0  0  0  0  0  0
   48.9591   11.0839   16.6220 C   0  0  0  0  0  0  0  0  0  0  0  0
   48.3399   10.0252   17.3259 C   0  0  0  0  0  0  0  0  0  0  0  0
   50.6626   10.1701   14.0021 C   0  0  0  0  0  0  0  0  0  0  0  0
   48.6634   11.2469   15.1274 C   0  0  0  0  0  0  0  0  0  0  0  0
   49.4614   10.6580   19.3645 C   0  0  0  0  0  0  0  0  0  0  0  0
   50.4881    8.2374   12.5622 C   0  0  0  0  0  0  0  0  0  0  0  0
   47.9921    8.6971   19.4769 C   0  0  0  0  0  0  0  0  0  0  0  0
   52.7456    9.2103   13.0160 C   0  0  0  0  0  0  0  0  0  0  0  0
   48.4564    9.2066   13.5245 C   0  0  0  0  0  0  0  0  0  0  0  0
   49.8251   11.9769   17.3364 C   0  0  0  0  0  0  0  0  0  0  0  0
   50.0668   11.7412   18.7168 C   0  0  0  0  0  0  0  0  0  0  0  0
   49.0955    8.2346   12.7071 C   0  0  0  0  0  0  0  0  0  0  0  0
   48.1488    8.4957   20.6671 O   0  0  0  0  0  0  0  0  0  0  0  0
   53.5030    9.9997   13.5567 O   0  0  0  0  0  0  0  0  0  0  0  0
   47.4533    9.2444   16.6292 O   0  0  0  0  0  0  0  0  0  0  0  0
   51.3997   11.1646   14.5974 O   0  0  0  0  0  0  0  0  0  0  0  0
   47.2160    7.8730   18.7398 O   0  0  0  0  0  0  0  0  0  0  0  0
   53.2003    8.2610   12.1819 O   0  0  0  0  0  0  0  0  0  0  0  0
   50.4692   13.1066   16.7712 C   0  0  0  0  0  0  0  0  0  0  0  0
   47.0411    9.1337   13.5924 C   0  0  0  0  0  0  0  0  0  0  0  0
   50.9139   12.5892   19.4519 C   0  0  0  0  0  0  0  0  0  0  0  0
   48.3420    7.2607   12.0277 C   0  0  0  0  0  0  0  0  0  0  0  0
   46.3025    8.1567   12.9154 C   0  0  0  0  0  0  0  0  0  0  0  0
   51.3068   13.9449   17.5132 C   0  0  0  0  0  0  0  0  0  0  0  0
   46.9549    7.2195   12.1317 C   0  0  0  0  0  0  0  0  0  0  0  0
   51.5330   13.6831   18.8540 C   0  0  0  0  0  0  0  0  0  0  0  0
   48.8144    7.6156   13.4533 H   0  0  0  0  0  0  0  0  0  0  0  0
   48.5155   10.9150   14.9375 H   0  0  0  0  0  0  0  0  0  0  0  0
   50.2459   10.9351   14.5629 H   0  0  0  0  0  0  0  0  0  0  0  0
   48.5160    7.2538   15.6351 H   0  0  0  0  0  0  0  0  0  0  0  0
   47.4575    8.6723   15.5650 H   0  0  0  0  0  0  0  0  0  0  0  0
   46.5163    8.3445   13.2715 H   0  0  0  0  0  0  0  0  0  0  0  0
   49.7248   10.9140   11.9311 H   0  0  0  0  0  0  0  0  0  0  0  0
   50.8236   10.3887   16.8714 H   0  0  0  0  0  0  0  0  0  0  0  0
   49.7696   11.8085   16.8018 H   0  0  0  0  0  0  0  0  0  0  0  0
   48.0248    8.1383   17.8743 H   0  0  0  0  0  0  0  0  0  0  0  0
   49.7589    8.1488   17.5225 H   0  0  0  0  0  0  0  0  0  0  0  0
   48.0930   12.3085   10.7291 H   0  0  0  0  0  0  0  0  0  0  0  0
   44.8968    9.7658   12.0826 H   0  0  0  0  0  0  0  0  0  0  0  0
   50.2280    9.9779   19.1801 H   0  0  0  0  0  0  0  0  0  0  0  0
   48.5725    9.6191   19.6159 H   0  0  0  0  0  0  0  0  0  0  0  0
   48.9042   13.1243   22.7302 H   0  0  0  0  0  0  0  0  0  0  0  0
   49.5654    7.4494   11.0168 H   0  0  0  0  0  0  0  0  0  0  0  0
   51.9062    9.2498   14.1715 H   0  0  0  0  0  0  0  0  0  0  0  0
   50.1381   11.2104   23.2693 H   0  0  0  0  0  0  0  0  0  0  0  0
   51.5669   12.2674   23.1448 H   0  0  0  0  0  0  0  0  0  0  0  0
   47.8984   11.9823   19.2806 H   0  0  0  0  0  0  0  0  0  0  0  0
   49.5723   12.4479   18.9660 H   0  0  0  0  0  0  0  0  0  0  0  0
   50.8618   12.9243   20.8225 H   0  0  0  0  0  0  0  0  0  0  0  0
   51.1017   11.1509   20.9412 H   0  0  0  0  0  0  0  0  0  0  0  0
   53.9487    8.8467   12.8681 H   0  0  0  0  0  0  0  0  0  0  0  0
   51.6300    7.0426    9.7351 H   0  0  0  0  0  0  0  0  0  0  0  0
   53.8259    7.7390   10.6507 H   0  0  0  0  0  0  0  0  0  0  0  0
   47.5764   11.3205   15.0195 H   0  0  0  0  0  0  0  0  0  0  0  0
   48.9883   12.2197   14.7453 H   0  0  0  0  0  0  0  0  0  0  0  0
   49.6557   10.4860   20.4227 H   0  0  0  0  0  0  0  0  0  0  0  0
   50.9626    7.4831   11.9365 H   0  0  0  0  0  0  0  0  0  0  0  0
   47.1854    8.4959   17.2018 H   0  0  0  0  0  0  0  0  0  0  0  0
   52.3578   10.9961   14.4614 H   0  0  0  0  0  0  0  0  0  0  0  0
   46.9108    7.2132   19.4025 H   0  0  0  0  0  0  0  0  0  0  0  0
   54.1711    8.3960   12.1638 H   0  0  0  0  0  0  0  0  0  0  0  0
   50.3465   13.3552   15.7212 H   0  0  0  0  0  0  0  0  0  0  0  0
   46.4738    9.8336   14.1997 H   0  0  0  0  0  0  0  0  0  0  0  0
   51.1018   12.4021   20.5082 H   0  0  0  0  0  0  0  0  0  0  0  0
   48.8347    6.5170   11.4036 H   0  0  0  0  0  0  0  0  0  0  0  0
   45.2195    8.1393   13.0049 H   0  0  0  0  0  0  0  0  0  0  0  0
   51.7839   14.7953   17.0333 H   0  0  0  0  0  0  0  0  0  0  0  0
   46.3899    6.4593   11.6001 H   0  0  0  0  0  0  0  0  0  0  0  0
   52.1864   14.3270   19.4361 H   0  0  0  0  0  0  0  0  0  0  0  0
  2  1  1  0
  3 10  1  0
  4  2  1  0
  5  1  1  0
  6  1  1  0
  7  2  1  0
  8  4  2  0
  9  4  1  0
 10  5  1  0
 11  6  1  0
 12 14  2  0
 13  9  2  0
 14  8  1  0
 15 12  1  0
 16  3  1  0
 17 21  1  0
 18 22  1  0
 19  7  2  0
 20  7  1  0
 21 23  1  0
 22 16  1  0
 23 18  1  0
 24 20  2  0
 25 19  1  0
 26 25  2  0
 11  3  1  0
 13 12  1  0
 24 26  1  0
 28 32  2  0
 29 33  1  0
 30 31  1  0
 31 27  2  0
 32 29  1  0
 33 30  1  0
 34 27  1  0
 35 28  1  0
 36 27  1  0
 37 28  1  0
 38 29  2  0
 39 40  1  0
 40 34  2  0
 41 38  1  0
 42 36  2  0
 43 37  2  0
 44 31  1  0
 45 32  1  0
 46 36  1  0
 47 37  1  0
 48 39  1  0
 49 38  1  0
 50 40  1  0
 51 41  1  0
 52 49  2  0
 53 48  2  0
 54 52  1  0
 55 50  2  0
 30 39  2  0
 53 55  1  0
 35 41  2  0
 51 54  2  0
  2 56  1  6
  5 57  1  0
  5 58  1  0
  6 59  1  0
  6 60  1  0
  8 61  1  0
  9 62  1  0
 10 63  1  0
 10 64  1  0
 11 65  1  0
 11 66  1  0
 13 67  1  0
 14 68  1  0
 16 69  1  0
 16 70  1  0
 17 71  1  0
 19 72  1  0
 20 73  1  0
 21 74  1  0
 21 75  1  0
 22 76  1  0
 22 77  1  0
 23 78  1  0
 23 79  1  0
 24 80  1  0
 25 81  1  0
 26 82  1  0
 33 83  1  0
 33 84  1  0
 34 85  1  0
 35 86  1  0
 44 87  1  0
 45 88  1  0
 46 89  1  0
 47 90  1  0
 48 91  1  0
 49 92  1  0
 50 93  1  0
 51 94  1  0
 52 95  1  0
 53 96  1  0
 54 97  1  0
 55 98  1  0
M  END
> <Uni-Dock RESULT> 
ENERGY=   -5.281  LOWER_BOUND=    2.823  UPPER_BOUND=    4.901
INTER + INTRA:          -5.281
INTER:                  -5.281
INTRA:                   0.000
UNBOUND:                 0.000

$$$$

     RDKit          3D

 98103  0  0  0  0  0  0  0  0999 V2000
   52.9704    7.0219   10.8216 N   0  0  0  0  0  0  0  0  0  0  0  0
   53.7460    6.6566    9.6107 C   0  0  1  0  0  0  0  0  0  0  0  0
   51.4146    8.6857   12.7129 N   0  0  0  0  0  0  0  0  0  0  0  0
   54.5175    7.8124    8.9586 C   0  0  0  0  0  0  0  0  0  0  0  0
   53.6212    7.9838   11.7300 C   0  0  0  0  0  0  0  0  0  0  0  0
   51.6094    7.4890   10.5100 C   0  0  0  0  0  0  0  0  0  0  0  0
   54.5920    5.3826    9.7902 C   0  0  0  0  0  0  0  0  0  0  0  0
   53.8810    8.6375    8.0145 C   0  0  0  0  0  0  0  0  0  0  0  0
   55.8562    8.0896    9.2948 C   0  0  0  0  0  0  0  0  0  0  0  0
   52.7858    8.2188   13.0121 C   0  0  0  0  0  0  0  0  0  0  0  0
   50.7756    7.7238   11.7907 C   0  0  0  0  0  0  0  0  0  0  0  0
   55.8880    9.9572    7.7686 C   0  0  0  0  0  0  0  0  0  0  0  0
   56.5388    9.1528    8.6990 C   0  0  0  0  0  0  0  0  0  0  0  0
   54.5618    9.7062    7.4254 C   0  0  0  0  0  0  0  0  0  0  0  0
   56.7254   11.2705    7.0376 Cl  0  0  0  0  0  0  0  0  0  0  0  0
   50.6021    8.8362   13.9310 C   0  0  0  0  0  0  0  0  0  0  0  0
   49.3774   11.1423   18.4071 O   0  0  0  0  0  0  0  0  0  0  0  0
   50.0739   10.2495   15.8648 O   0  0  0  0  0  0  0  0  0  0  0  0
   55.1373    4.7605    8.6475 C   0  0  0  0  0  0  0  0  0  0  0  0
   54.8430    4.7954   11.0405 C   0  0  0  0  0  0  0  0  0  0  0  0
   49.2945    9.7584   18.0694 C   0  0  0  0  0  0  0  0  0  0  0  0
   51.0077   10.0407   14.7981 C   0  0  0  0  0  0  0  0  0  0  0  0
   50.3395    9.4262   17.0082 C   0  0  0  0  0  0  0  0  0  0  0  0
   55.6224    3.6399   11.1473 C   0  0  0  0  0  0  0  0  0  0  0  0
   55.9152    3.6065    8.7543 C   0  0  0  0  0  0  0  0  0  0  0  0
   56.1584    3.0472   10.0062 C   0  0  0  0  0  0  0  0  0  0  0  0
   50.3553    8.9097   13.1529 C   0  0  0  0  0  0  0  0  0  0  0  0
   54.9248    5.4714   10.9233 C   0  0  0  0  0  0  0  0  0  0  0  0
   54.1118    7.7868   10.8573 C   0  0  0  0  0  0  0  0  0  0  0  0
   52.7591    9.0657   12.6681 C   0  0  0  0  0  0  0  0  0  0  0  0
   51.4146    8.9795   12.2385 C   0  0  0  0  0  0  0  0  0  0  0  0
   54.7038    6.7058   11.5500 C   0  0  0  0  0  0  0  0  0  0  0  0
   53.8689    9.0978   11.6122 C   0  0  0  0  0  0  0  0  0  0  0  0
   50.6348    8.9547   14.5201 C   0  0  0  0  0  0  0  0  0  0  0  0
   54.5735    5.3098    9.5819 C   0  0  0  0  0  0  0  0  0  0  0  0
   48.9247    8.8016   12.7683 C   0  0  0  0  0  0  0  0  0  0  0  0
   55.5313    4.3542   11.6839 C   0  0  0  0  0  0  0  0  0  0  0  0
   53.7855    7.6248    9.4678 C   0  0  0  0  0  0  0  0  0  0  0  0
   53.0331    9.1390   14.0742 C   0  0  0  0  0  0  0  0  0  0  0  0
   51.9478    9.0778   14.9894 C   0  0  0  0  0  0  0  0  0  0  0  0
   54.0207    6.3667    8.8486 C   0  0  0  0  0  0  0  0  0  0  0  0
   47.9734    8.7881   13.5277 O   0  0  0  0  0  0  0  0  0  0  0  0
   55.8383    4.4074   12.8637 O   0  0  0  0  0  0  0  0  0  0  0  0
   51.1870    8.9971   10.8861 O   0  0  0  0  0  0  0  0  0  0  0  0
   55.0850    6.9167   12.8527 O   0  0  0  0  0  0  0  0  0  0  0  0
   48.7368    8.7016   11.4343 O   0  0  0  0  0  0  0  0  0  0  0  0
   55.7335    3.2439   10.9558 O   0  0  0  0  0  0  0  0  0  0  0  0
   54.3248    9.2794   14.6421 C   0  0  0  0  0  0  0  0  0  0  0  0
   53.2412    8.6384    8.6375 C   0  0  0  0  0  0  0  0  0  0  0  0
   52.1739    9.1403   16.3758 C   0  0  0  0  0  0  0  0  0  0  0  0
   53.7087    6.1648    7.4923 C   0  0  0  0  0  0  0  0  0  0  0  0
   52.9303    8.4239    7.2900 C   0  0  0  0  0  0  0  0  0  0  0  0
   54.5370    9.3441   16.0225 C   0  0  0  0  0  0  0  0  0  0  0  0
   53.1653    7.1850    6.7173 C   0  0  0  0  0  0  0  0  0  0  0  0
   53.4607    9.2697   16.8905 C   0  0  0  0  0  0  0  0  0  0  0  0
   53.0124    6.3218    8.8604 H   0  0  0  0  0  0  0  0  0  0  0  0
   53.7665    8.9565   11.2411 H   0  0  0  0  0  0  0  0  0  0  0  0
   54.6074    7.6160   12.0354 H   0  0  0  0  0  0  0  0  0  0  0  0
   51.0863    6.7354    9.9091 H   0  0  0  0  0  0  0  0  0  0  0  0
   51.6392    8.4181    9.9269 H   0  0  0  0  0  0  0  0  0  0  0  0
   52.8455    8.4561    7.7367 H   0  0  0  0  0  0  0  0  0  0  0  0
   56.3795    7.4746   10.0259 H   0  0  0  0  0  0  0  0  0  0  0  0
   52.7575    7.2871   13.5947 H   0  0  0  0  0  0  0  0  0  0  0  0
   53.3122    8.9674   13.6160 H   0  0  0  0  0  0  0  0  0  0  0  0
   49.7927    8.1050   11.4865 H   0  0  0  0  0  0  0  0  0  0  0  0
   50.6123    6.7600   12.2929 H   0  0  0  0  0  0  0  0  0  0  0  0
   57.5744    9.3453    8.9653 H   0  0  0  0  0  0  0  0  0  0  0  0
   54.0504   10.3375    6.7048 H   0  0  0  0  0  0  0  0  0  0  0  0
   50.6139    7.9137   14.5250 H   0  0  0  0  0  0  0  0  0  0  0  0
   49.5514    8.9928   13.6498 H   0  0  0  0  0  0  0  0  0  0  0  0
   49.4199   11.6113   17.5512 H   0  0  0  0  0  0  0  0  0  0  0  0
   54.9593    5.1838    7.6595 H   0  0  0  0  0  0  0  0  0  0  0  0
   54.4307    5.2262   11.9480 H   0  0  0  0  0  0  0  0  0  0  0  0
   48.2826    9.5714   17.6977 H   0  0  0  0  0  0  0  0  0  0  0  0
   49.4547    9.1703   18.9782 H   0  0  0  0  0  0  0  0  0  0  0  0
   50.9814   10.9474   14.1842 H   0  0  0  0  0  0  0  0  0  0  0  0
   52.0231    9.9472   15.2003 H   0  0  0  0  0  0  0  0  0  0  0  0
   51.3394    9.6619   17.3883 H   0  0  0  0  0  0  0  0  0  0  0  0
   50.2800    8.3659   16.7443 H   0  0  0  0  0  0  0  0  0  0  0  0
   55.8095    3.2010   12.1248 H   0  0  0  0  0  0  0  0  0  0  0  0
   56.3268    3.1442    7.8615 H   0  0  0  0  0  0  0  0  0  0  0  0
   56.7594    2.1463   10.0891 H   0  0  0  0  0  0  0  0  0  0  0  0
   53.6461    9.9284   10.9347 H   0  0  0  0  0  0  0  0  0  0  0  0
   54.8305    9.4091   12.0323 H   0  0  0  0  0  0  0  0  0  0  0  0
   49.8108    8.9067   15.2312 H   0  0  0  0  0  0  0  0  0  0  0  0
   54.7428    4.3511    9.0943 H   0  0  0  0  0  0  0  0  0  0  0  0
   50.2350    8.8252   10.7312 H   0  0  0  0  0  0  0  0  0  0  0  0
   55.3916    6.0727   13.2510 H   0  0  0  0  0  0  0  0  0  0  0  0
   47.7585    8.6319   11.3584 H   0  0  0  0  0  0  0  0  0  0  0  0
   56.1361    2.6090   11.5850 H   0  0  0  0  0  0  0  0  0  0  0  0
   55.2108    9.3255   14.0159 H   0  0  0  0  0  0  0  0  0  0  0  0
   53.0239    9.6272    9.0318 H   0  0  0  0  0  0  0  0  0  0  0  0
   51.3403    9.0868   17.0746 H   0  0  0  0  0  0  0  0  0  0  0  0
   53.8889    5.1998    7.0216 H   0  0  0  0  0  0  0  0  0  0  0  0
   52.5086    9.2315    6.6974 H   0  0  0  0  0  0  0  0  0  0  0  0
   55.5472    9.4449   16.4105 H   0  0  0  0  0  0  0  0  0  0  0  0
   52.9302    7.0100    5.6715 H   0  0  0  0  0  0  0  0  0  0  0  0
   53.6178    9.3143   17.9645 H   0  0  0  0  0  0  0  0  0  0  0  0
  2  1  1  0
  3 10  1  0
  4  2  1  0
  5  1  1  0
  6  1  1  0
  7  2  1  0
  8  4  2  0
  9  4  1  0
 10  5  1  0
 11  6  1  0
 12 14  2  0
 13  9  2  0
 14  8  1  0
 15 12  1  0
 16  3  1  0
 17 21  1  0
 18 22  1  0
 19  7  2  0
 20  7  1  0
 21 23  1  0
 22 16  1  0
 23 18  1  0
 24 20  2  0
 25 19  1  0
 26 25  2  0
 11  3  1  0
 13 12  1  0
 24 26  1  0
 28 32  2  0
 29 33  1  0
 30 31  1  0
 31 27  2  0
 32 29  1  0
 33 30  1  0
 34 27  1  0
 35 28  1  0
 36 27  1  0
 37 28  1  0
 38 29  2  0
 39 40  1  0
 40 34  2  0
 41 38  1  0
 42 36  2  0
 43 37  2  0
 44 31  1  0
 45 32  1  0
 46 36  1  0
 47 37  1  0
 48 39  1  0
 49 38  1  0
 50 40  1  0
 51 41  1  0
 52 49  2  0
 53 48  2  0
 54 52  1  0
 55 50  2  0
 30 39  2  0
 53 55  1  0
 35 41  2  0
 51 54  2  0
  2 56  1  6
  5 57  1  0
  5 58  1  0
  6 59  1  0
  6 60  1  0
  8 61  1  0
  9 62  1  0
 10 63  1  0
 10 64  1  0
 11 65  1  0
 11 66  1  0
 13 67  1  0
 14 68  1  0
 16 69  1  0
 16 70  1  0
 17 71  1  0
 19 72  1  0
 20 73  1  0
 21 74  1  0
 21 75  1  0
 22 76  1  0
 22 77  1  0
 23 78  1  0
 23 79  1  0
 24 80  1  0
 25 81  1  0
 26 82  1  0
 33 83  1  0
 33 84  1  0
 34 85  1  0
 35 86  1  0
 44 87  1  0
 45 88  1  0
 46 89  1  0
 47 90  1  0
 48 91  1  0
 49 92  1  0
 50 93  1  0
 51 94  1  0
 52 95  1  0
 53 96  1  0
 54 97  1  0
 55 98  1  0
M  END
> <Uni-Dock RESULT> 
ENERGY=   -5.275  LOWER_BOUND=    4.480  UPPER_BOUND=    7.144
INTER + INTRA:          -5.275
INTER:                  -5.275
INTRA:                   0.000
UNBOUND:                 0.000

$$$$

     RDKit          3D

 98103  0  0  0  0  0  0  0  0999 V2000
   48.8699    8.7782   16.6532 N   0  0  0  0  0  0  0  0  0  0  0  0
   48.3845    8.4853   18.0242 C   0  0  1  0  0  0  0  0  0  0  0  0
   50.3944    8.4718   14.1337 N   0  0  0  0  0  0  0  0  0  0  0  0
   49.3787    7.7333   18.9199 C   0  0  0  0  0  0  0  0  0  0  0  0
   50.2877    9.1693   16.5483 C   0  0  0  0  0  0  0  0  0  0  0  0
   48.5928    7.6882   15.7030 C   0  0  0  0  0  0  0  0  0  0  0  0
   47.7392    9.7008   18.7150 C   0  0  0  0  0  0  0  0  0  0  0  0
   49.4269    6.3282   18.8908 C   0  0  0  0  0  0  0  0  0  0  0  0
   50.2712    8.4159   19.7683 C   0  0  0  0  0  0  0  0  0  0  0  0
   50.6707    9.5576   15.0994 C   0  0  0  0  0  0  0  0  0  0  0  0
   48.9758    8.0764   14.2562 C   0  0  0  0  0  0  0  0  0  0  0  0
   51.2077    6.3244   20.5213 C   0  0  0  0  0  0  0  0  0  0  0  0
   51.1767    7.7148   20.5682 C   0  0  0  0  0  0  0  0  0  0  0  0
   50.3390    5.6281   19.6848 C   0  0  0  0  0  0  0  0  0  0  0  0
   52.3260    5.4593   21.5018 Cl  0  0  0  0  0  0  0  0  0  0  0  0
   50.6910    8.8728   12.7489 C   0  0  0  0  0  0  0  0  0  0  0  0
   53.9216   10.1620    8.9077 O   0  0  0  0  0  0  0  0  0  0  0  0
   52.4312    9.1979   11.0512 O   0  0  0  0  0  0  0  0  0  0  0  0
   46.9787    9.4949   19.8851 C   0  0  0  0  0  0  0  0  0  0  0  0
   47.8592   11.0136   18.2322 C   0  0  0  0  0  0  0  0  0  0  0  0
   52.6102   10.6599    9.1699 C   0  0  0  0  0  0  0  0  0  0  0  0
   52.1955    8.9896   12.4492 C   0  0  0  0  0  0  0  0  0  0  0  0
   52.3188   10.5742   10.6652 C   0  0  0  0  0  0  0  0  0  0  0  0
   47.2561   12.0824   18.9014 C   0  0  0  0  0  0  0  0  0  0  0  0
   46.3762   10.5622   20.5531 C   0  0  0  0  0  0  0  0  0  0  0  0
   46.5168   11.8571   20.0604 C   0  0  0  0  0  0  0  0  0  0  0  0
   50.3397    8.1776   13.0040 C   0  0  0  0  0  0  0  0  0  0  0  0
   48.4020   10.5921   18.3038 C   0  0  0  0  0  0  0  0  0  0  0  0
   49.9655    8.8905   17.4754 C   0  0  0  0  0  0  0  0  0  0  0  0
   51.2199    8.8337   15.2022 C   0  0  0  0  0  0  0  0  0  0  0  0
   50.4451    7.9770   14.3866 C   0  0  0  0  0  0  0  0  0  0  0  0
   49.5870   10.2426   17.6414 C   0  0  0  0  0  0  0  0  0  0  0  0
   51.2569    8.5780   16.7125 C   0  0  0  0  0  0  0  0  0  0  0  0
   51.0399    9.2327   12.4160 C   0  0  0  0  0  0  0  0  0  0  0  0
   47.5876    9.5876   18.8300 C   0  0  0  0  0  0  0  0  0  0  0  0
   49.5309    7.3258   12.0948 C   0  0  0  0  0  0  0  0  0  0  0  0
   48.0267   12.0182   18.4447 C   0  0  0  0  0  0  0  0  0  0  0  0
   49.1412    7.8640   18.0500 C   0  0  0  0  0  0  0  0  0  0  0  0
   51.9572    9.8977   14.5842 C   0  0  0  0  0  0  0  0  0  0  0  0
   51.8489   10.0825   13.1794 C   0  0  0  0  0  0  0  0  0  0  0  0
   47.9453    8.2383   18.7217 C   0  0  0  0  0  0  0  0  0  0  0  0
   49.4519    7.4354   10.8851 O   0  0  0  0  0  0  0  0  0  0  0  0
   48.6688   12.9503   17.9887 O   0  0  0  0  0  0  0  0  0  0  0  0
   49.8229    6.9207   15.0017 O   0  0  0  0  0  0  0  0  0  0  0  0
   50.4381   11.2060   17.1575 O   0  0  0  0  0  0  0  0  0  0  0  0
   48.8348    6.3657   12.7417 O   0  0  0  0  0  0  0  0  0  0  0  0
   46.8957   12.2193   19.1405 O   0  0  0  0  0  0  0  0  0  0  0  0
   52.8120   10.7971   15.2707 C   0  0  0  0  0  0  0  0  0  0  0  0
   49.4274    6.4748   18.0099 C   0  0  0  0  0  0  0  0  0  0  0  0
   52.5503   11.1172   12.5355 C   0  0  0  0  0  0  0  0  0  0  0  0
   47.1072    7.2636   19.2919 C   0  0  0  0  0  0  0  0  0  0  0  0
   48.5828    5.5138   18.5769 C   0  0  0  0  0  0  0  0  0  0  0  0
   53.5072   11.8202   14.6190 C   0  0  0  0  0  0  0  0  0  0  0  0
   47.4214    5.9099   19.2192 C   0  0  0  0  0  0  0  0  0  0  0  0
   53.3726   11.9833   13.2506 C   0  0  0  0  0  0  0  0  0  0  0  0
   47.5155    7.8179   17.9109 H   0  0  0  0  0  0  0  0  0  0  0  0
   50.9499    8.3516   16.8628 H   0  0  0  0  0  0  0  0  0  0  0  0
   50.4964   10.0310   17.1924 H   0  0  0  0  0  0  0  0  0  0  0  0
   47.5216    7.4532   15.7092 H   0  0  0  0  0  0  0  0  0  0  0  0
   49.1354    6.7770   15.9848 H   0  0  0  0  0  0  0  0  0  0  0  0
   48.7566    5.7696   18.2420 H   0  0  0  0  0  0  0  0  0  0  0  0
   50.2656    9.5043   19.8130 H   0  0  0  0  0  0  0  0  0  0  0  0
   50.1263   10.4706   14.8193 H   0  0  0  0  0  0  0  0  0  0  0  0
   51.7403    9.7990   15.0945 H   0  0  0  0  0  0  0  0  0  0  0  0
   48.7799    7.2095   13.6127 H   0  0  0  0  0  0  0  0  0  0  0  0
   48.3191    8.8903   13.9185 H   0  0  0  0  0  0  0  0  0  0  0  0
   51.8515    8.2593   21.2228 H   0  0  0  0  0  0  0  0  0  0  0  0
   50.3669    4.5433   19.6418 H   0  0  0  0  0  0  0  0  0  0  0  0
   50.1746    9.8067   12.4934 H   0  0  0  0  0  0  0  0  0  0  0  0
   50.2923    8.1166   12.0584 H   0  0  0  0  0  0  0  0  0  0  0  0
   53.9791    9.3224    9.4036 H   0  0  0  0  0  0  0  0  0  0  0  0
   46.8583    8.4893   20.2868 H   0  0  0  0  0  0  0  0  0  0  0  0
   48.4192   11.2217   17.3254 H   0  0  0  0  0  0  0  0  0  0  0  0
   51.9066   10.0494    8.5960 H   0  0  0  0  0  0  0  0  0  0  0  0
   52.5555   11.6939    8.8161 H   0  0  0  0  0  0  0  0  0  0  0  0
   52.6852    8.0442   12.7063 H   0  0  0  0  0  0  0  0  0  0  0  0
   52.6814    9.7792   13.0340 H   0  0  0  0  0  0  0  0  0  0  0  0
   53.0613   11.1581   11.2200 H   0  0  0  0  0  0  0  0  0  0  0  0
   51.3137   10.9538   10.8724 H   0  0  0  0  0  0  0  0  0  0  0  0
   47.3631   13.0935   18.5147 H   0  0  0  0  0  0  0  0  0  0  0  0
   45.7959   10.3817   21.4536 H   0  0  0  0  0  0  0  0  0  0  0  0
   46.0438   12.6872   20.5771 H   0  0  0  0  0  0  0  0  0  0  0  0
   51.5806    7.5421   16.8567 H   0  0  0  0  0  0  0  0  0  0  0  0
   52.0628    9.1304   17.2058 H   0  0  0  0  0  0  0  0  0  0  0  0
   50.9630    9.3852   11.3399 H   0  0  0  0  0  0  0  0  0  0  0  0
   46.6660    9.8574   19.3432 H   0  0  0  0  0  0  0  0  0  0  0  0
   49.2431    6.4800   14.3463 H   0  0  0  0  0  0  0  0  0  0  0  0
   50.0236   12.0921   17.2465 H   0  0  0  0  0  0  0  0  0  0  0  0
   48.3609    5.9114   12.0092 H   0  0  0  0  0  0  0  0  0  0  0  0
   46.7849   13.1933   19.1506 H   0  0  0  0  0  0  0  0  0  0  0  0
   52.9459   10.7328   16.3464 H   0  0  0  0  0  0  0  0  0  0  0  0
   50.3171    6.1016   17.5105 H   0  0  0  0  0  0  0  0  0  0  0  0
   52.4602   11.2598   11.4597 H   0  0  0  0  0  0  0  0  0  0  0  0
   46.1915    7.5536   19.8044 H   0  0  0  0  0  0  0  0  0  0  0  0
   48.8434    4.4606   18.5138 H   0  0  0  0  0  0  0  0  0  0  0  0
   54.1455   12.4893   15.1900 H   0  0  0  0  0  0  0  0  0  0  0  0
   46.7614    5.1715   19.6650 H   0  0  0  0  0  0  0  0  0  0  0  0
   53.9057   12.7790   12.7378 H   0  0  0  0  0  0  0  0  0  0  0  0
  2  1  1  0
  3 10  1  0
  4  2  1  0
  5  1  1  0
  6  1  1  0
  7  2  1  0
  8  4  2  0
  9  4  1  0
 10  5  1  0
 11  6  1  0
 12 14  2  0
 13  9  2  0
 14  8  1  0
 15 12  1  0
 16  3  1  0
 17 21  1  0
 18 22  1  0
 19  7  2  0
 20  7  1  0
 21 23  1  0
 22 16  1  0
 23 18  1  0
 24 20  2  0
 25 19  1  0
 26 25  2  0
 11  3  1  0
 13 12  1  0
 24 26  1  0
 28 32  2  0
 29 33  1  0
 30 31  1  0
 31 27  2  0
 32 29  1  0
 33 30  1  0
 34 27  1  0
 35 28  1  0
 36 27  1  0
 37 28  1  0
 38 29  2  0
 39 40  1  0
 40 34  2  0
 41 38  1  0
 42 36  2  0
 43 37  2  0
 44 31  1  0
 45 32  1  0
 46 36  1  0
 47 37  1  0
 48 39  1  0
 49 38  1  0
 50 40  1  0
 51 41  1  0
 52 49  2  0
 53 48  2  0
 54 52  1  0
 55 50  2  0
 30 39  2  0
 53 55  1  0
 35 41  2  0
 51 54  2  0
  2 56  1  6
  5 57  1  0
  5 58  1  0
  6 59  1  0
  6 60  1  0
  8 61  1  0
  9 62  1  0
 10 63  1  0
 10 64  1  0
 11 65  1  0
 11 66  1  0
 13 67  1  0
 14 68  1  0
 16 69  1  0
 16 70  1  0
 17 71  1  0
 19 72  1  0
 20 73  1  0
 21 74  1  0
 21 75  1  0
 22 76  1  0
 22 77  1  0
 23 78  1  0
 23 79  1  0
 24 80  1  0
 25 81  1  0
 26 82  1  0
 33 83  1  0
 33 84  1  0
 34 85  1  0
 35 86  1  0
 44 87  1  0
 45 88  1  0
 46 89  1  0
 47 90  1  0
 48 91  1  0
 49 92  1  0
 50 93  1  0
 51 94  1  0
 52 95  1  0
 53 96  1  0
 54 97  1  0
 55 98  1  0
M  END
> <Uni-Dock RESULT> 
ENERGY=   -4.924  LOWER_BOUND=    3.032  UPPER_BOUND=    7.731
INTER + INTRA:          -4.924
INTER:                  -4.924
INTRA:                   0.000
UNBOUND:                 0.000

$$$$

     RDKit          3D

 98103  0  0  0  0  0  0  0  0999 V2000
   52.4789    5.9757   17.1625 N   0  0  0  0  0  0  0  0  0  0  0  0
   51.9347    4.7410   17.7794 C   0  0  1  0  0  0  0  0  0  0  0  0
   54.3094    8.2521   16.6798 N   0  0  0  0  0  0  0  0  0  0  0  0
   52.3017    4.5346   19.2555 C   0  0  0  0  0  0  0  0  0  0  0  0
   52.4761    7.1733   18.0226 C   0  0  0  0  0  0  0  0  0  0  0  0
   53.8237    5.7865   16.5938 C   0  0  0  0  0  0  0  0  0  0  0  0
   50.4392    4.5210   17.4857 C   0  0  0  0  0  0  0  0  0  0  0  0
   53.5053    3.8928   19.5971 C   0  0  0  0  0  0  0  0  0  0  0  0
   51.4688    4.9916   20.2946 C   0  0  0  0  0  0  0  0  0  0  0  0
   52.9601    8.4301   17.2590 C   0  0  0  0  0  0  0  0  0  0  0  0
   54.3067    7.0419   15.8316 C   0  0  0  0  0  0  0  0  0  0  0  0
   53.0217    4.1684   21.9466 C   0  0  0  0  0  0  0  0  0  0  0  0
   51.8247    4.8045   21.6324 C   0  0  0  0  0  0  0  0  0  0  0  0
   53.8647    3.7139   20.9355 C   0  0  0  0  0  0  0  0  0  0  0  0
   53.4643    3.9419   23.5938 Cl  0  0  0  0  0  0  0  0  0  0  0  0
   54.7336    9.4215   15.8930 C   0  0  0  0  0  0  0  0  0  0  0  0
   56.2240   14.3602   15.4012 O   0  0  0  0  0  0  0  0  0  0  0  0
   55.6577   11.6926   15.9571 O   0  0  0  0  0  0  0  0  0  0  0  0
   49.8713    3.2576   17.7529 C   0  0  0  0  0  0  0  0  0  0  0  0
   49.6055    5.5161   16.9511 C   0  0  0  0  0  0  0  0  0  0  0  0
   55.4210   13.5824   14.5143 C   0  0  0  0  0  0  0  0  0  0  0  0
   55.0767   10.6512   16.7516 C   0  0  0  0  0  0  0  0  0  0  0  0
   54.6769   12.5096   15.3041 C   0  0  0  0  0  0  0  0  0  0  0  0
   48.2523    5.2642   16.7077 C   0  0  0  0  0  0  0  0  0  0  0  0
   48.5200    3.0062   17.5094 C   0  0  0  0  0  0  0  0  0  0  0  0
   47.7104    4.0118   16.9874 C   0  0  0  0  0  0  0  0  0  0  0  0
   55.1201    8.7027   15.9688 C   0  0  0  0  0  0  0  0  0  0  0  0
   50.0272    5.6314   17.4862 C   0  0  0  0  0  0  0  0  0  0  0  0
   52.1770    6.3028   18.4628 C   0  0  0  0  0  0  0  0  0  0  0  0
   53.6210    8.3837   17.8893 C   0  0  0  0  0  0  0  0  0  0  0  0
   54.6060    7.9014   16.9967 C   0  0  0  0  0  0  0  0  0  0  0  0
   50.8849    6.6215   17.9856 C   0  0  0  0  0  0  0  0  0  0  0  0
   53.0751    7.4382   18.9644 C   0  0  0  0  0  0  0  0  0  0  0  0
   54.6677   10.0175   15.8424 C   0  0  0  0  0  0  0  0  0  0  0  0
   50.4467    4.2998   17.4783 C   0  0  0  0  0  0  0  0  0  0  0  0
   56.1420    8.2525   14.9893 C   0  0  0  0  0  0  0  0  0  0  0  0
   48.6864    6.0026   16.9777 C   0  0  0  0  0  0  0  0  0  0  0  0
   52.5885    4.9267   18.4847 C   0  0  0  0  0  0  0  0  0  0  0  0
   53.1834    9.7444   17.7678 C   0  0  0  0  0  0  0  0  0  0  0  0
   53.7216   10.5483   16.7269 C   0  0  0  0  0  0  0  0  0  0  0  0
   51.7032    3.9364   17.9777 C   0  0  0  0  0  0  0  0  0  0  0  0
   56.6497    8.9301   14.1147 O   0  0  0  0  0  0  0  0  0  0  0  0
   48.2589    7.1444   16.9244 O   0  0  0  0  0  0  0  0  0  0  0  0
   55.0607    6.6230   17.1972 O   0  0  0  0  0  0  0  0  0  0  0  0
   50.4855    7.9337   18.0572 O   0  0  0  0  0  0  0  0  0  0  0  0
   56.4855    6.9542   15.1352 O   0  0  0  0  0  0  0  0  0  0  0  0
   47.9466    4.9571   16.5733 O   0  0  0  0  0  0  0  0  0  0  0  0
   52.2437   10.3731   18.6234 C   0  0  0  0  0  0  0  0  0  0  0  0
   53.8300    4.4577   18.9865 C   0  0  0  0  0  0  0  0  0  0  0  0
   53.3148   11.8851   16.5696 C   0  0  0  0  0  0  0  0  0  0  0  0
   52.0707    2.5790   17.9746 C   0  0  0  0  0  0  0  0  0  0  0  0
   54.1864    3.1045   18.9735 C   0  0  0  0  0  0  0  0  0  0  0  0
   51.8495   11.7045   18.4592 C   0  0  0  0  0  0  0  0  0  0  0  0
   53.3045    2.1644   18.4670 C   0  0  0  0  0  0  0  0  0  0  0  0
   52.3822   12.4599   17.4283 C   0  0  0  0  0  0  0  0  0  0  0  0
   52.3857    3.8962   17.2350 H   0  0  0  0  0  0  0  0  0  0  0  0
   53.1298    7.0379   18.8946 H   0  0  0  0  0  0  0  0  0  0  0  0
   51.4653    7.3759   18.3947 H   0  0  0  0  0  0  0  0  0  0  0  0
   53.8121    4.9522   15.8821 H   0  0  0  0  0  0  0  0  0  0  0  0
   54.5496    5.5436   17.3800 H   0  0  0  0  0  0  0  0  0  0  0  0
   54.1753    3.5335   18.8198 H   0  0  0  0  0  0  0  0  0  0  0  0
   50.5312    5.4976   20.0674 H   0  0  0  0  0  0  0  0  0  0  0  0
   52.2314    8.6716   16.4722 H   0  0  0  0  0  0  0  0  0  0  0  0
   52.9653    9.2656   17.9690 H   0  0  0  0  0  0  0  0  0  0  0  0
   55.3239    6.8451   15.4704 H   0  0  0  0  0  0  0  0  0  0  0  0
   53.6689    7.1922   14.9493 H   0  0  0  0  0  0  0  0  0  0  0  0
   51.1643    5.1567   22.4201 H   0  0  0  0  0  0  0  0  0  0  0  0
   54.8025    3.2236   21.1792 H   0  0  0  0  0  0  0  0  0  0  0  0
   53.9803    9.6783   15.1376 H   0  0  0  0  0  0  0  0  0  0  0  0
   55.6429    9.1698   15.3295 H   0  0  0  0  0  0  0  0  0  0  0  0
   56.6879   13.7088   15.9623 H   0  0  0  0  0  0  0  0  0  0  0  0
   50.4882    2.4586   18.1628 H   0  0  0  0  0  0  0  0  0  0  0  0
   49.9993    6.4994   16.7116 H   0  0  0  0  0  0  0  0  0  0  0  0
   56.0901   13.1336   13.7742 H   0  0  0  0  0  0  0  0  0  0  0  0
   54.7222   14.2518   14.0034 H   0  0  0  0  0  0  0  0  0  0  0  0
   55.8338   10.3700   17.4915 H   0  0  0  0  0  0  0  0  0  0  0  0
   54.2099   11.0365   17.3008 H   0  0  0  0  0  0  0  0  0  0  0  0
   54.0474   12.9820   16.0659 H   0  0  0  0  0  0  0  0  0  0  0  0
   54.0599   11.9090   14.6288 H   0  0  0  0  0  0  0  0  0  0  0  0
   47.6206    6.0486   16.2967 H   0  0  0  0  0  0  0  0  0  0  0  0
   48.1025    2.0264   17.7239 H   0  0  0  0  0  0  0  0  0  0  0  0
   46.6601    3.8147   16.7930 H   0  0  0  0  0  0  0  0  0  0  0  0
   53.9336    7.0648   19.5320 H   0  0  0  0  0  0  0  0  0  0  0  0
   52.5154    7.9719   19.7389 H   0  0  0  0  0  0  0  0  0  0  0  0
   55.0718   10.6428   15.0469 H   0  0  0  0  0  0  0  0  0  0  0  0
   49.7824    3.5300   17.0890 H   0  0  0  0  0  0  0  0  0  0  0  0
   55.6524    6.3858   16.4533 H   0  0  0  0  0  0  0  0  0  0  0  0
   49.6168    8.0425   17.6118 H   0  0  0  0  0  0  0  0  0  0  0  0
   57.1483    6.8242   14.4201 H   0  0  0  0  0  0  0  0  0  0  0  0
   47.1025    5.3560   16.2742 H   0  0  0  0  0  0  0  0  0  0  0  0
   51.7766    9.8295   19.4393 H   0  0  0  0  0  0  0  0  0  0  0  0
   54.5681    5.1478   19.3859 H   0  0  0  0  0  0  0  0  0  0  0  0
   53.7247   12.4966   15.7670 H   0  0  0  0  0  0  0  0  0  0  0  0
   51.3909    1.8234   17.5844 H   0  0  0  0  0  0  0  0  0  0  0  0
   55.1528    2.7964   19.3639 H   0  0  0  0  0  0  0  0  0  0  0  0
   51.1201   12.1402   19.1370 H   0  0  0  0  0  0  0  0  0  0  0  0
   53.5710    1.1115   18.4557 H   0  0  0  0  0  0  0  0  0  0  0  0
   52.0773   13.4935   17.2912 H   0  0  0  0  0  0  0  0  0  0  0  0
  2  1  1  0
  3 10  1  0
  4  2  1  0
  5  1  1  0
  6  1  1  0
  7  2  1  0
  8  4  2  0
  9  4  1  0
 10  5  1  0
 11  6  1  0
 12 14  2  0
 13  9  2  0
 14  8  1  0
 15 12  1  0
 16  3  1  0
 17 21  1  0
 18 22  1  0
 19  7  2  0
 20  7  1  0
 21 23  1  0
 22 16  1  0
 23 18  1  0
 24 20  2  0
 25 19  1  0
 26 25  2  0
 11  3  1  0
 13 12  1  0
 24 26  1  0
 28 32  2  0
 29 33  1  0
 30 31  1  0
 31 27  2  0
 32 29  1  0
 33 30  1  0
 34 27  1  0
 35 28  1  0
 36 27  1  0
 37 28  1  0
 38 29  2  0
 39 40  1  0
 40 34  2  0
 41 38  1  0
 42 36  2  0
 43 37  2  0
 44 31  1  0
 45 32  1  0
 46 36  1  0
 47 37  1  0
 48 39  1  0
 49 38  1  0
 50 40  1  0
 51 41  1  0
 52 49  2  0
 53 48  2  0
 54 52  1  0
 55 50  2  0
 30 39  2  0
 53 55  1  0
 35 41  2  0
 51 54  2  0
  2 56  1  6
  5 57  1  0
  5 58  1  0
  6 59  1  0
  6 60  1  0
  8 61  1  0
  9 62  1  0
 10 63  1  0
 10 64  1  0
 11 65  1  0
 11 66  1  0
 13 67  1  0
 14 68  1  0
 16 69  1  0
 16 70  1  0
 17 71  1  0
 19 72  1  0
 20 73  1  0
 21 74  1  0
 21 75  1  0
 22 76  1  0
 22 77  1  0
 23 78  1  0
 23 79  1  0
 24 80  1  0
 25 81  1  0
 26 82  1  0
 33 83  1  0
 33 84  1  0
 34 85  1  0
 35 86  1  0
 44 87  1  0
 45 88  1  0
 46 89  1  0
 47 90  1  0
 48 91  1  0
 49 92  1  0
 50 93  1  0
 51 94  1  0
 52 95  1  0
 53 96  1  0
 54 97  1  0
 55 98  1  0
M  END
> <Uni-Dock RESULT> 
ENERGY=   -4.914  LOWER_BOUND=    4.407  UPPER_BOUND=    7.761
INTER + INTRA:          -4.914
INTER:                  -4.914
INTRA:                   0.000
UNBOUND:                 0.000

$$$$

     RDKit          3D

 98103  0  0  0  0  0  0  0  0999 V2000
   48.8237   10.1242   11.9493 N   0  0  0  0  0  0  0  0  0  0  0  0
   48.5716   11.2986   11.0784 C   0  0  1  0  0  0  0  0  0  0  0  0
   48.4573    8.1911   14.1616 N   0  0  0  0  0  0  0  0  0  0  0  0
   47.8760   12.4816   11.7661 C   0  0  0  0  0  0  0  0  0  0  0  0
   49.2421   10.4315   13.3293 C   0  0  0  0  0  0  0  0  0  0  0  0
   47.6930    9.1818   11.9806 C   0  0  0  0  0  0  0  0  0  0  0  0
   49.7974   11.7126   10.2435 C   0  0  0  0  0  0  0  0  0  0  0  0
   46.4723   12.5278   11.8349 C   0  0  0  0  0  0  0  0  0  0  0  0
   48.6097   13.5282   12.3564 C   0  0  0  0  0  0  0  0  0  0  0  0
   49.5844    9.1483   14.1249 C   0  0  0  0  0  0  0  0  0  0  0  0
   48.0352    7.9006   12.7755 C   0  0  0  0  0  0  0  0  0  0  0  0
   46.5693   14.6147   13.0454 C   0  0  0  0  0  0  0  0  0  0  0  0
   47.9594   14.5912   12.9877 C   0  0  0  0  0  0  0  0  0  0  0  0
   45.8229   13.5871   12.4743 C   0  0  0  0  0  0  0  0  0  0  0  0
   45.7667   15.9205   13.8272 Cl  0  0  0  0  0  0  0  0  0  0  0  0
   48.8127    6.9426   14.8554 C   0  0  0  0  0  0  0  0  0  0  0  0
   50.0291    4.1917   19.0753 O   0  0  0  0  0  0  0  0  0  0  0  0
   49.1128    5.8305   17.0209 O   0  0  0  0  0  0  0  0  0  0  0  0
   49.6185   12.6096    9.1695 C   0  0  0  0  0  0  0  0  0  0  0  0
   51.0936   11.2326   10.4894 C   0  0  0  0  0  0  0  0  0  0  0  0
   50.5070    4.0285   17.7406 C   0  0  0  0  0  0  0  0  0  0  0  0
   48.9518    7.1017   16.3794 C   0  0  0  0  0  0  0  0  0  0  0  0
   50.4708    5.3706   17.0155 C   0  0  0  0  0  0  0  0  0  0  0  0
   52.1729   11.6449    9.7027 C   0  0  0  0  0  0  0  0  0  0  0  0
   50.6964   13.0209    8.3837 C   0  0  0  0  0  0  0  0  0  0  0  0
   51.9748   12.5384    8.6525 C   0  0  0  0  0  0  0  0  0  0  0  0
   48.1199    7.1102   14.4509 C   0  0  0  0  0  0  0  0  0  0  0  0
   50.6872   11.4811   10.9900 C   0  0  0  0  0  0  0  0  0  0  0  0
   48.9912   11.2308   12.7470 C   0  0  0  0  0  0  0  0  0  0  0  0
   48.8773    9.4412   14.6254 C   0  0  0  0  0  0  0  0  0  0  0  0
   47.9736    8.4683   14.1392 C   0  0  0  0  0  0  0  0  0  0  0  0
   50.3397   11.2186   12.3225 C   0  0  0  0  0  0  0  0  0  0  0  0
   48.6792   10.9029   14.2107 C   0  0  0  0  0  0  0  0  0  0  0  0
   49.1676    6.7142   15.2844 C   0  0  0  0  0  0  0  0  0  0  0  0
   49.6852   11.7818   10.0656 C   0  0  0  0  0  0  0  0  0  0  0  0
   47.2168    6.0378   13.9603 C   0  0  0  0  0  0  0  0  0  0  0  0
   52.1089   11.4427   10.5754 C   0  0  0  0  0  0  0  0  0  0  0  0
   47.9687   11.5758   11.7988 C   0  0  0  0  0  0  0  0  0  0  0  0
   49.9337    9.0273   15.5032 C   0  0  0  0  0  0  0  0  0  0  0  0
   50.0632    7.6478   15.8188 C   0  0  0  0  0  0  0  0  0  0  0  0
   48.3411   11.8427   10.4529 C   0  0  0  0  0  0  0  0  0  0  0  0
   47.2793    4.8563   14.2462 O   0  0  0  0  0  0  0  0  0  0  0  0
   53.0374   11.1603   11.3151 O   0  0  0  0  0  0  0  0  0  0  0  0
   46.9274    8.9135   13.3720 O   0  0  0  0  0  0  0  0  0  0  0  0
   51.3031   10.9708   13.2697 O   0  0  0  0  0  0  0  0  0  0  0  0
   46.2663    6.4872   13.1120 O   0  0  0  0  0  0  0  0  0  0  0  0
   52.3106   11.7594    9.2859 O   0  0  0  0  0  0  0  0  0  0  0  0
   50.8769    9.8991   16.1038 C   0  0  0  0  0  0  0  0  0  0  0  0
   46.5858   11.6819   12.0978 C   0  0  0  0  0  0  0  0  0  0  0  0
   51.0886    7.1998   16.6705 C   0  0  0  0  0  0  0  0  0  0  0  0
   47.3700   12.1770    9.4924 C   0  0  0  0  0  0  0  0  0  0  0  0
   45.6280   12.0108   11.1319 C   0  0  0  0  0  0  0  0  0  0  0  0
   51.8902    9.4423   16.9520 C   0  0  0  0  0  0  0  0  0  0  0  0
   46.0218   12.2590    9.8276 C   0  0  0  0  0  0  0  0  0  0  0  0
   51.9989    8.0906   17.2319 C   0  0  0  0  0  0  0  0  0  0  0  0
   47.8812   10.9590   10.2900 H   0  0  0  0  0  0  0  0  0  0  0  0
   48.4518   10.9640   13.8751 H   0  0  0  0  0  0  0  0  0  0  0  0
   50.1319   11.0714   13.3268 H   0  0  0  0  0  0  0  0  0  0  0  0
   47.4345    8.8774   10.9592 H   0  0  0  0  0  0  0  0  0  0  0  0
   46.8053    9.6512   12.4230 H   0  0  0  0  0  0  0  0  0  0  0  0
   45.8749   11.7326   11.3955 H   0  0  0  0  0  0  0  0  0  0  0  0
   49.6986   13.5231   12.3267 H   0  0  0  0  0  0  0  0  0  0  0  0
   50.4739    8.6798   13.6802 H   0  0  0  0  0  0  0  0  0  0  0  0
   49.8493    9.4531   15.1443 H   0  0  0  0  0  0  0  0  0  0  0  0
   47.1407    7.2653   12.7902 H   0  0  0  0  0  0  0  0  0  0  0  0
   48.8211    7.3478   12.2420 H   0  0  0  0  0  0  0  0  0  0  0  0
   48.5430   15.3939   13.4299 H   0  0  0  0  0  0  0  0  0  0  0  0
   44.7382   13.6005   12.5247 H   0  0  0  0  0  0  0  0  0  0  0  0
   49.7246    6.5050   14.4299 H   0  0  0  0  0  0  0  0  0  0  0  0
   48.0225    6.1971   14.6895 H   0  0  0  0  0  0  0  0  0  0  0  0
   49.2101    4.7173   18.9901 H   0  0  0  0  0  0  0  0  0  0  0  0
   48.6263   12.9991    8.9444 H   0  0  0  0  0  0  0  0  0  0  0  0
   51.2800   10.5267   11.2932 H   0  0  0  0  0  0  0  0  0  0  0  0
   49.8598    3.2970   17.2475 H   0  0  0  0  0  0  0  0  0  0  0  0
   51.5256    3.6310   17.7840 H   0  0  0  0  0  0  0  0  0  0  0  0
   48.0279    7.5333   16.7790 H   0  0  0  0  0  0  0  0  0  0  0  0
   49.7734    7.7710   16.6596 H   0  0  0  0  0  0  0  0  0  0  0  0
   51.0915    6.0967   17.5517 H   0  0  0  0  0  0  0  0  0  0  0  0
   50.8354    5.2515   15.9906 H   0  0  0  0  0  0  0  0  0  0  0  0
   53.1709   11.2654    9.9104 H   0  0  0  0  0  0  0  0  0  0  0  0
   50.5367   13.7136    7.5622 H   0  0  0  0  0  0  0  0  0  0  0  0
   52.8128   12.8544    8.0380 H   0  0  0  0  0  0  0  0  0  0  0  0
   47.6569   11.1810   14.4868 H   0  0  0  0  0  0  0  0  0  0  0  0
   49.2676   11.5906   14.8262 H   0  0  0  0  0  0  0  0  0  0  0  0
   49.2780    5.6589   15.5319 H   0  0  0  0  0  0  0  0  0  0  0  0
   49.9534   11.9841    9.0299 H   0  0  0  0  0  0  0  0  0  0  0  0
   46.4497    8.1341   13.0197 H   0  0  0  0  0  0  0  0  0  0  0  0
   52.1824   10.8942   12.8387 H   0  0  0  0  0  0  0  0  0  0  0  0
   45.7744    5.6664   12.8840 H   0  0  0  0  0  0  0  0  0  0  0  0
   53.2816   11.6945    9.1673 H   0  0  0  0  0  0  0  0  0  0  0  0
   50.8560   10.9674   15.9100 H   0  0  0  0  0  0  0  0  0  0  0  0
   46.2140   11.4877   13.1001 H   0  0  0  0  0  0  0  0  0  0  0  0
   51.1887    6.1412   16.9054 H   0  0  0  0  0  0  0  0  0  0  0  0
   47.6585   12.3796    8.4622 H   0  0  0  0  0  0  0  0  0  0  0  0
   44.5793   12.0731   11.4101 H   0  0  0  0  0  0  0  0  0  0  0  0
   52.5943   10.1491   17.3832 H   0  0  0  0  0  0  0  0  0  0  0  0
   45.2861   12.5181    9.0717 H   0  0  0  0  0  0  0  0  0  0  0  0
   52.7865    7.7274   17.8861 H   0  0  0  0  0  0  0  0  0  0  0  0
  2  1  1  0
  3 10  1  0
  4  2  1  0
  5  1  1  0
  6  1  1  0
  7  2  1  0
  8  4  2  0
  9  4  1  0
 10  5  1  0
 11  6  1  0
 12 14  2  0
 13  9  2  0
 14  8  1  0
 15 12  1  0
 16  3  1  0
 17 21  1  0
 18 22  1  0
 19  7  2  0
 20  7  1  0
 21 23  1  0
 22 16  1  0
 23 18  1  0
 24 20  2  0
 25 19  1  0
 26 25  2  0
 11  3  1  0
 13 12  1  0
 24 26  1  0
 28 32  2  0
 29 33  1  0
 30 31  1  0
 31 27  2  0
 32 29  1  0
 33 30  1  0
 34 27  1  0
 35 28  1  0
 36 27  1  0
 37 28  1  0
 38 29  2  0
 39 40  1  0
 40 34  2  0
 41 38  1  0
 42 36  2  0
 43 37  2  0
 44 31  1  0
 45 32  1  0
 46 36  1  0
 47 37  1  0
 48 39  1  0
 49 38  1  0
 50 40  1  0
 51 41  1  0
 52 49  2  0
 53 48  2  0
 54 52  1  0
 55 50  2  0
 30 39  2  0
 53 55  1  0
 35 41  2  0
 51 54  2  0
  2 56  1  6
  5 57  1  0
  5 58  1  0
  6 59  1  0
  6 60  1  0
  8 61  1  0
  9 62  1  0
 10 63  1  0
 10 64  1  0
 11 65  1  0
 11 66  1  0
 13 67  1  0
 14 68  1  0
 16 69  1  0
 16 70  1  0
 17 71  1  0
 19 72  1  0
 20 73  1  0
 21 74  1  0
 21 75  1  0
 22 76  1  0
 22 77  1  0
 23 78  1  0
 23 79  1  0
 24 80  1  0
 25 81  1  0
 26 82  1  0
 33 83  1  0
 33 84  1  0
 34 85  1  0
 35 86  1  0
 44 87  1  0
 45 88  1  0
 46 89  1  0
 47 90  1  0
 48 91  1  0
 49 92  1  0
 50 93  1  0
 51 94  1  0
 52 95  1  0
 53 96  1  0
 54 97  1  0
 55 98  1  0
M  END
> <Uni-Dock RESULT> 
ENERGY=   -4.868  LOWER_BOUND=    2.992  UPPER_BOUND=    5.960
INTER + INTRA:          -4.868
INTER:                  -4.868
INTRA:                   0.000
UNBOUND:                 0.000

$$$$

     RDKit          3D

 98103  0  0  0  0  0  0  0  0999 V2000
   50.2686    9.1348   15.4526 N   0  0  0  0  0  0  0  0  0  0  0  0
   49.6870    9.7174   14.2183 C   0  0  1  0  0  0  0  0  0  0  0  0
   51.1842    7.0786   17.3759 N   0  0  0  0  0  0  0  0  0  0  0  0
   48.6383    8.8429   13.5172 C   0  0  0  0  0  0  0  0  0  0  0  0
   49.3256    8.4034   16.3185 C   0  0  0  0  0  0  0  0  0  0  0  0
   51.4440    8.2887   15.1873 C   0  0  0  0  0  0  0  0  0  0  0  0
   49.2464   11.1834   14.3853 C   0  0  0  0  0  0  0  0  0  0  0  0
   49.0435    7.8709   12.5853 C   0  0  0  0  0  0  0  0  0  0  0  0
   47.2642    8.9711   13.7957 C   0  0  0  0  0  0  0  0  0  0  0  0
   49.9995    7.9274   17.6285 C   0  0  0  0  0  0  0  0  0  0  0  0
   52.1165    7.8134   16.4958 C   0  0  0  0  0  0  0  0  0  0  0  0
   46.7494    7.2021   12.2387 C   0  0  0  0  0  0  0  0  0  0  0  0
   46.3250    8.1587   13.1558 C   0  0  0  0  0  0  0  0  0  0  0  0
   48.1041    7.0528   11.9523 C   0  0  0  0  0  0  0  0  0  0  0  0
   45.5947    6.1969   11.4535 Cl  0  0  0  0  0  0  0  0  0  0  0  0
   51.8638    6.6902   18.6225 C   0  0  0  0  0  0  0  0  0  0  0  0
   52.1642    4.1068   23.1046 O   0  0  0  0  0  0  0  0  0  0  0  0
   51.8701    5.1759   20.5520 O   0  0  0  0  0  0  0  0  0  0  0  0
   48.9574   11.9433   13.2324 C   0  0  0  0  0  0  0  0  0  0  0  0
   49.1262   11.8132   15.6342 C   0  0  0  0  0  0  0  0  0  0  0  0
   52.6649    5.4064   22.7934 C   0  0  0  0  0  0  0  0  0  0  0  0
   51.0854    5.6550   19.4529 C   0  0  0  0  0  0  0  0  0  0  0  0
   51.8100    6.0361   21.6975 C   0  0  0  0  0  0  0  0  0  0  0  0
   48.7175   13.1466   15.7293 C   0  0  0  0  0  0  0  0  0  0  0  0
   48.5496   13.2748   13.3275 C   0  0  0  0  0  0  0  0  0  0  0  0
   48.4286   13.8756   14.5780 C   0  0  0  0  0  0  0  0  0  0  0  0
   52.1109    6.5505   17.8536 C   0  0  0  0  0  0  0  0  0  0  0  0
   48.8543   11.1917   15.5028 C   0  0  0  0  0  0  0  0  0  0  0  0
   48.9523    8.7399   15.4306 C   0  0  0  0  0  0  0  0  0  0  0  0
   49.7906    7.1117   17.2718 C   0  0  0  0  0  0  0  0  0  0  0  0
   51.1180    6.7997   16.8972 C   0  0  0  0  0  0  0  0  0  0  0  0
   48.6755    9.9445   16.1172 C   0  0  0  0  0  0  0  0  0  0  0  0
   48.7664    7.4124   16.1726 C   0  0  0  0  0  0  0  0  0  0  0  0
   51.7727    6.5841   19.2078 C   0  0  0  0  0  0  0  0  0  0  0  0
   49.2944   11.2483   14.1791 C   0  0  0  0  0  0  0  0  0  0  0  0
   53.5251    6.2340   17.5276 C   0  0  0  0  0  0  0  0  0  0  0  0
   48.5715   12.4348   16.2573 C   0  0  0  0  0  0  0  0  0  0  0  0
   49.3706    8.8045   14.0579 C   0  0  0  0  0  0  0  0  0  0  0  0
   49.4475    7.1164   18.6647 C   0  0  0  0  0  0  0  0  0  0  0  0
   50.4629    6.8513   19.6228 C   0  0  0  0  0  0  0  0  0  0  0  0
   49.5425   10.0786   13.4508 C   0  0  0  0  0  0  0  0  0  0  0  0
   54.4050    5.9635   18.3241 O   0  0  0  0  0  0  0  0  0  0  0  0
   48.2125   12.4695   17.4230 O   0  0  0  0  0  0  0  0  0  0  0  0
   51.3876    6.7217   15.5546 O   0  0  0  0  0  0  0  0  0  0  0  0
   48.1941    9.8497   17.4002 O   0  0  0  0  0  0  0  0  0  0  0  0
   53.7908    6.2799   16.2039 O   0  0  0  0  0  0  0  0  0  0  0  0
   48.7360   13.5585   15.5402 O   0  0  0  0  0  0  0  0  0  0  0  0
   48.1487    7.3604   19.1788 C   0  0  0  0  0  0  0  0  0  0  0  0
   49.6276    7.6790   13.2330 C   0  0  0  0  0  0  0  0  0  0  0  0
   50.1696    6.8524   20.9981 C   0  0  0  0  0  0  0  0  0  0  0  0
   49.9575   10.1853   12.1114 C   0  0  0  0  0  0  0  0  0  0  0  0
   50.0448    7.7981   11.9026 C   0  0  0  0  0  0  0  0  0  0  0  0
   47.8683    7.3553   20.5485 C   0  0  0  0  0  0  0  0  0  0  0  0
   50.2093    9.0537   11.3417 C   0  0  0  0  0  0  0  0  0  0  0  0
   48.8809    7.1056   21.4594 C   0  0  0  0  0  0  0  0  0  0  0  0
   50.5180    9.8245   13.5031 H   0  0  0  0  0  0  0  0  0  0  0  0
   48.9216    7.5188   15.8083 H   0  0  0  0  0  0  0  0  0  0  0  0
   48.4792    9.0442   16.5909 H   0  0  0  0  0  0  0  0  0  0  0  0
   52.1907    8.8574   14.6200 H   0  0  0  0  0  0  0  0  0  0  0  0
   51.1671    7.4122   14.5881 H   0  0  0  0  0  0  0  0  0  0  0  0
   50.0973    7.7405   12.3517 H   0  0  0  0  0  0  0  0  0  0  0  0
   46.9143    9.7099   14.5157 H   0  0  0  0  0  0  0  0  0  0  0  0
   50.2758    8.8070   18.2271 H   0  0  0  0  0  0  0  0  0  0  0  0
   49.2510    7.3645   18.1988 H   0  0  0  0  0  0  0  0  0  0  0  0
   52.9558    7.1608   16.2243 H   0  0  0  0  0  0  0  0  0  0  0  0
   52.5346    8.6842   17.0199 H   0  0  0  0  0  0  0  0  0  0  0  0
   45.2683    8.2787   13.3779 H   0  0  0  0  0  0  0  0  0  0  0  0
   48.4374    6.3019   11.2420 H   0  0  0  0  0  0  0  0  0  0  0  0
   52.0986    7.5728   19.2308 H   0  0  0  0  0  0  0  0  0  0  0  0
   52.8330    6.2322   18.3804 H   0  0  0  0  0  0  0  0  0  0  0  0
   52.0222    3.6748   22.2401 H   0  0  0  0  0  0  0  0  0  0  0  0
   49.0449   11.4905   12.2453 H   0  0  0  0  0  0  0  0  0  0  0  0
   49.3546   11.2763   16.5501 H   0  0  0  0  0  0  0  0  0  0  0  0
   53.7019    5.2885   22.4651 H   0  0  0  0  0  0  0  0  0  0  0  0
   52.6463    6.0117   23.7048 H   0  0  0  0  0  0  0  0  0  0  0  0
   50.8698    4.7834   18.8256 H   0  0  0  0  0  0  0  0  0  0  0  0
   50.1262    6.0418   19.8161 H   0  0  0  0  0  0  0  0  0  0  0  0
   50.7698    6.1038   22.0339 H   0  0  0  0  0  0  0  0  0  0  0  0
   52.1899    7.0329   21.4537 H   0  0  0  0  0  0  0  0  0  0  0  0
   48.6263   13.6169   16.7059 H   0  0  0  0  0  0  0  0  0  0  0  0
   48.3305   13.8416   12.4270 H   0  0  0  0  0  0  0  0  0  0  0  0
   48.1163   14.9133   14.6520 H   0  0  0  0  0  0  0  0  0  0  0  0
   48.7637    6.5558   15.4908 H   0  0  0  0  0  0  0  0  0  0  0  0
   47.7388    7.3964   16.5492 H   0  0  0  0  0  0  0  0  0  0  0  0
   52.5433    6.3843   19.9516 H   0  0  0  0  0  0  0  0  0  0  0  0
   49.4355   12.2165   13.7012 H   0  0  0  0  0  0  0  0  0  0  0  0
   52.3538    6.6061   15.4403 H   0  0  0  0  0  0  0  0  0  0  0  0
   48.1326   10.7448   17.8000 H   0  0  0  0  0  0  0  0  0  0  0  0
   54.7485    6.0586   16.1678 H   0  0  0  0  0  0  0  0  0  0  0  0
   48.5116   14.2812   16.1635 H   0  0  0  0  0  0  0  0  0  0  0  0
   47.3159    7.5800   18.5174 H   0  0  0  0  0  0  0  0  0  0  0  0
   49.5274    6.6684   13.6192 H   0  0  0  0  0  0  0  0  0  0  0  0
   50.9514    6.6549   21.7300 H   0  0  0  0  0  0  0  0  0  0  0  0
   50.0894   11.1626   11.6500 H   0  0  0  0  0  0  0  0  0  0  0  0
   50.2352    6.9046   11.3138 H   0  0  0  0  0  0  0  0  0  0  0  0
   46.8576    7.5549   20.8945 H   0  0  0  0  0  0  0  0  0  0  0  0
   50.5298    9.1560   10.3089 H   0  0  0  0  0  0  0  0  0  0  0  0
   48.6720    7.1048   22.5255 H   0  0  0  0  0  0  0  0  0  0  0  0
  2  1  1  0
  3 10  1  0
  4  2  1  0
  5  1  1  0
  6  1  1  0
  7  2  1  0
  8  4  2  0
  9  4  1  0
 10  5  1  0
 11  6  1  0
 12 14  2  0
 13  9  2  0
 14  8  1  0
 15 12  1  0
 16  3  1  0
 17 21  1  0
 18 22  1  0
 19  7  2  0
 20  7  1  0
 21 23  1  0
 22 16  1  0
 23 18  1  0
 24 20  2  0
 25 19  1  0
 26 25  2  0
 11  3  1  0
 13 12  1  0
 24 26  1  0
 28 32  2  0
 29 33  1  0
 30 31  1  0
 31 27  2  0
 32 29  1  0
 33 30  1  0
 34 27  1  0
 35 28  1  0
 36 27  1  0
 37 28  1  0
 38 29  2  0
 39 40  1  0
 40 34  2  0
 41 38  1  0
 42 36  2  0
 43 37  2  0
 44 31  1  0
 45 32  1  0
 46 36  1  0
 47 37  1  0
 48 39  1  0
 49 38  1  0
 50 40  1  0
 51 41  1  0
 52 49  2  0
 53 48  2  0
 54 52  1  0
 55 50  2  0
 30 39  2  0
 53 55  1  0
 35 41  2  0
 51 54  2  0
  2 56  1  6
  5 57  1  0
  5 58  1  0
  6 59  1  0
  6 60  1  0
  8 61  1  0
  9 62  1  0
 10 63  1  0
 10 64  1  0
 11 65  1  0
 11 66  1  0
 13 67  1  0
 14 68  1  0
 16 69  1  0
 16 70  1  0
 17 71  1  0
 19 72  1  0
 20 73  1  0
 21 74  1  0
 21 75  1  0
 22 76  1  0
 22 77  1  0
 23 78  1  0
 23 79  1  0
 24 80  1  0
 25 81  1  0
 26 82  1  0
 33 83  1  0
 33 84  1  0
 34 85  1  0
 35 86  1  0
 44 87  1  0
 45 88  1  0
 46 89  1  0
 47 90  1  0
 48 91  1  0
 49 92  1  0
 50 93  1  0
 51 94  1  0
 52 95  1  0
 53 96  1  0
 54 97  1  0
 55 98  1  0
M  END
> <Uni-Dock RESULT> 
ENERGY=   -4.840  LOWER_BOUND=    2.270  UPPER_BOUND=    4.777
INTER + INTRA:          -4.840
INTER:                  -4.840
INTRA:                   0.000
UNBOUND:                 0.000

$$$$

     RDKit          3D

 98103  0  0  0  0  0  0  0  0999 V2000
   50.0449    8.9889   15.3481 N   0  0  0  0  0  0  0  0  0  0  0  0
   49.6574    9.4390   13.9886 C   0  0  1  0  0  0  0  0  0  0  0  0
   50.3519    7.2004   17.6875 N   0  0  0  0  0  0  0  0  0  0  0  0
   48.4237    8.7415   13.3989 C   0  0  0  0  0  0  0  0  0  0  0  0
   48.9288    8.7171   16.2724 C   0  0  0  0  0  0  0  0  0  0  0  0
   50.9561    7.8326   15.3300 C   0  0  0  0  0  0  0  0  0  0  0  0
   49.6209   10.9714   13.8412 C   0  0  0  0  0  0  0  0  0  0  0  0
   48.5686    7.5298   12.7003 C   0  0  0  0  0  0  0  0  0  0  0  0
   47.1295    9.2737   13.5542 C   0  0  0  0  0  0  0  0  0  0  0  0
   49.4327    8.3592   17.6919 C   0  0  0  0  0  0  0  0  0  0  0  0
   51.4588    7.4754   16.7477 C   0  0  0  0  0  0  0  0  0  0  0  0
   46.1845    7.4199   12.3342 C   0  0  0  0  0  0  0  0  0  0  0  0
   46.0172    8.6190   13.0200 C   0  0  0  0  0  0  0  0  0  0  0  0
   47.4543    6.8711   12.1739 C   0  0  0  0  0  0  0  0  0  0  0  0
   44.8150    6.6092   11.6801 Cl  0  0  0  0  0  0  0  0  0  0  0  0
   50.8855    6.9110   19.0284 C   0  0  0  0  0  0  0  0  0  0  0  0
   50.4226    5.3023   23.9326 O   0  0  0  0  0  0  0  0  0  0  0  0
   50.4605    5.8703   21.2083 O   0  0  0  0  0  0  0  0  0  0  0  0
   49.5614   11.5299   12.5471 C   0  0  0  0  0  0  0  0  0  0  0  0
   49.6550   11.8506   14.9351 C   0  0  0  0  0  0  0  0  0  0  0  0
   51.2558    6.3375   23.4125 C   0  0  0  0  0  0  0  0  0  0  0  0
   49.8477    6.3025   19.9873 C   0  0  0  0  0  0  0  0  0  0  0  0
   50.6154    6.9307   22.1609 C   0  0  0  0  0  0  0  0  0  0  0  0
   49.6150   13.2349   14.7449 C   0  0  0  0  0  0  0  0  0  0  0  0
   49.5217   12.9123   12.3574 C   0  0  0  0  0  0  0  0  0  0  0  0
   49.5473   13.7646   13.4583 C   0  0  0  0  0  0  0  0  0  0  0  0
   51.0975    6.5593   18.3190 C   0  0  0  0  0  0  0  0  0  0  0  0
   49.2292   11.3071   14.9073 C   0  0  0  0  0  0  0  0  0  0  0  0
   48.6715    8.9513   15.3133 C   0  0  0  0  0  0  0  0  0  0  0  0
   49.0192    7.5703   17.4850 C   0  0  0  0  0  0  0  0  0  0  0  0
   50.2207    6.8570   17.2677 C   0  0  0  0  0  0  0  0  0  0  0  0
   48.7158   10.2997   15.7359 C   0  0  0  0  0  0  0  0  0  0  0  0
   48.1280    7.8958   16.2818 C   0  0  0  0  0  0  0  0  0  0  0  0
   50.7611    6.9530   19.6156 C   0  0  0  0  0  0  0  0  0  0  0  0
   49.6874   10.9785   13.6301 C   0  0  0  0  0  0  0  0  0  0  0  0
   52.3808    5.8292   18.1561 C   0  0  0  0  0  0  0  0  0  0  0  0
   49.2771   12.7074   15.3884 C   0  0  0  0  0  0  0  0  0  0  0  0
   49.1115    8.6258   13.9852 C   0  0  0  0  0  0  0  0  0  0  0  0
   48.6698    7.9458   18.8247 C   0  0  0  0  0  0  0  0  0  0  0  0
   49.5640    7.6277   19.8822 C   0  0  0  0  0  0  0  0  0  0  0  0
   49.6253    9.6619   13.1581 C   0  0  0  0  0  0  0  0  0  0  0  0
   53.1453    5.5081   19.0472 O   0  0  0  0  0  0  0  0  0  0  0  0
   48.9236   13.0692   16.4990 O   0  0  0  0  0  0  0  0  0  0  0  0
   50.4790    6.4414   15.9864 O   0  0  0  0  0  0  0  0  0  0  0  0
   48.2082   10.5948   16.9777 O   0  0  0  0  0  0  0  0  0  0  0  0
   52.6680    5.5355   16.8692 O   0  0  0  0  0  0  0  0  0  0  0  0
   49.7452   13.5809   14.4820 O   0  0  0  0  0  0  0  0  0  0  0  0
   47.4757    8.6158   19.1935 C   0  0  0  0  0  0  0  0  0  0  0  0
   49.0711    7.3291   13.4107 C   0  0  0  0  0  0  0  0  0  0  0  0
   49.2619    7.9833   21.2087 C   0  0  0  0  0  0  0  0  0  0  0  0
   50.0729    9.3839   11.8542 C   0  0  0  0  0  0  0  0  0  0  0  0
   49.5240    7.0641   12.1134 C   0  0  0  0  0  0  0  0  0  0  0  0
   47.1845    8.9611   20.5166 C   0  0  0  0  0  0  0  0  0  0  0  0
   50.0251    8.0938   11.3346 C   0  0  0  0  0  0  0  0  0  0  0  0
   48.0808    8.6486   21.5247 C   0  0  0  0  0  0  0  0  0  0  0  0
   50.4970    9.1806   13.3239 H   0  0  0  0  0  0  0  0  0  0  0  0
   48.3111    7.8824   15.9152 H   0  0  0  0  0  0  0  0  0  0  0  0
   48.2799    9.5961   16.3590 H   0  0  0  0  0  0  0  0  0  0  0  0
   51.8354    8.0619   14.7160 H   0  0  0  0  0  0  0  0  0  0  0  0
   50.4643    6.9545   14.8927 H   0  0  0  0  0  0  0  0  0  0  0  0
   49.5528    7.0872   12.5678 H   0  0  0  0  0  0  0  0  0  0  0  0
   46.9788   10.2079   14.0938 H   0  0  0  0  0  0  0  0  0  0  0  0
   49.9248    9.2401   18.1280 H   0  0  0  0  0  0  0  0  0  0  0  0
   48.5533    8.1364   18.3076 H   0  0  0  0  0  0  0  0  0  0  0  0
   52.0977    6.5873   16.6638 H   0  0  0  0  0  0  0  0  0  0  0  0
   52.0863    8.2963   17.1222 H   0  0  0  0  0  0  0  0  0  0  0  0
   45.0275    9.0501   13.1430 H   0  0  0  0  0  0  0  0  0  0  0  0
   47.5856    5.9317   11.6450 H   0  0  0  0  0  0  0  0  0  0  0  0
   51.3383    7.8074   19.4706 H   0  0  0  0  0  0  0  0  0  0  0  0
   51.7011    6.1791   18.9447 H   0  0  0  0  0  0  0  0  0  0  0  0
   50.1830    4.7555   23.1593 H   0  0  0  0  0  0  0  0  0  0  0  0
   49.5392   10.8795   11.6734 H   0  0  0  0  0  0  0  0  0  0  0  0
   49.7189   11.4703   15.9503 H   0  0  0  0  0  0  0  0  0  0  0  0
   52.2285    5.8919   23.1837 H   0  0  0  0  0  0  0  0  0  0  0  0
   51.3861    7.0989   24.1875 H   0  0  0  0  0  0  0  0  0  0  0  0
   49.4167    5.4076   19.5257 H   0  0  0  0  0  0  0  0  0  0  0  0
   49.0211    6.9891   20.2040 H   0  0  0  0  0  0  0  0  0  0  0  0
   49.6261    7.3314   22.4070 H   0  0  0  0  0  0  0  0  0  0  0  0
   51.2506    7.7248   21.7568 H   0  0  0  0  0  0  0  0  0  0  0  0
   49.6384   13.9008   15.6047 H   0  0  0  0  0  0  0  0  0  0  0  0
   49.4745   13.3215   11.3521 H   0  0  0  0  0  0  0  0  0  0  0  0
   49.5217   14.8404   13.3107 H   0  0  0  0  0  0  0  0  0  0  0  0
   47.9069    6.9491   15.7783 H   0  0  0  0  0  0  0  0  0  0  0  0
   47.1280    8.2223   16.5842 H   0  0  0  0  0  0  0  0  0  0  0  0
   51.4399    6.7162   20.4343 H   0  0  0  0  0  0  0  0  0  0  0  0
   50.0882   11.7597   12.9860 H   0  0  0  0  0  0  0  0  0  0  0  0
   51.3810    6.0596   15.9619 H   0  0  0  0  0  0  0  0  0  0  0  0
   48.3817   11.5372   17.1934 H   0  0  0  0  0  0  0  0  0  0  0  0
   53.5326    5.0719   16.9410 H   0  0  0  0  0  0  0  0  0  0  0  0
   49.7126   14.4479   14.9385 H   0  0  0  0  0  0  0  0  0  0  0  0
   46.7411    8.9041   18.4475 H   0  0  0  0  0  0  0  0  0  0  0  0
   48.6998    6.4787   13.9759 H   0  0  0  0  0  0  0  0  0  0  0  0
   49.9523    7.7434   22.0161 H   0  0  0  0  0  0  0  0  0  0  0  0
   50.4670   10.1794   11.2240 H   0  0  0  0  0  0  0  0  0  0  0  0
   49.4778    6.0515   11.7212 H   0  0  0  0  0  0  0  0  0  0  0  0
   46.2587    9.4808   20.7488 H   0  0  0  0  0  0  0  0  0  0  0  0
   50.3760    7.8984   10.3255 H   0  0  0  0  0  0  0  0  0  0  0  0
   47.8640    8.9180   22.5546 H   0  0  0  0  0  0  0  0  0  0  0  0
  2  1  1  0
  3 10  1  0
  4  2  1  0
  5  1  1  0
  6  1  1  0
  7  2  1  0
  8  4  2  0
  9  4  1  0
 10  5  1  0
 11  6  1  0
 12 14  2  0
 13  9  2  0
 14  8  1  0
 15 12  1  0
 16  3  1  0
 17 21  1  0
 18 22  1  0
 19  7  2  0
 20  7  1  0
 21 23  1  0
 22 16  1  0
 23 18  1  0
 24 20  2  0
 25 19  1  0
 26 25  2  0
 11  3  1  0
 13 12  1  0
 24 26  1  0
 28 32  2  0
 29 33  1  0
 30 31  1  0
 31 27  2  0
 32 29  1  0
 33 30  1  0
 34 27  1  0
 35 28  1  0
 36 27  1  0
 37 28  1  0
 38 29  2  0
 39 40  1  0
 40 34  2  0
 41 38  1  0
 42 36  2  0
 43 37  2  0
 44 31  1  0
 45 32  1  0
 46 36  1  0
 47 37  1  0
 48 39  1  0
 49 38  1  0
 50 40  1  0
 51 41  1  0
 52 49  2  0
 53 48  2  0
 54 52  1  0
 55 50  2  0
 30 39  2  0
 53 55  1  0
 35 41  2  0
 51 54  2  0
  2 56  1  6
  5 57  1  0
  5 58  1  0
  6 59  1  0
  6 60  1  0
  8 61  1  0
  9 62  1  0
 10 63  1  0
 10 64  1  0
 11 65  1  0
 11 66  1  0
 13 67  1  0
 14 68  1  0
 16 69  1  0
 16 70  1  0
 17 71  1  0
 19 72  1  0
 20 73  1  0
 21 74  1  0
 21 75  1  0
 22 76  1  0
 22 77  1  0
 23 78  1  0
 23 79  1  0
 24 80  1  0
 25 81  1  0
 26 82  1  0
 33 83  1  0
 33 84  1  0
 34 85  1  0
 35 86  1  0
 44 87  1  0
 45 88  1  0
 46 89  1  0
 47 90  1  0
 48 91  1  0
 49 92  1  0
 50 93  1  0
 51 94  1  0
 52 95  1  0
 53 96  1  0
 54 97  1  0
 55 98  1  0
M  END
> <Uni-Dock RESULT> 
ENERGY=   -4.683  LOWER_BOUND=    2.128  UPPER_BOUND=    4.861
INTER + INTRA:          -4.683
INTER:                  -4.683
INTRA:                   0.000
UNBOUND:                 0.000

$$$$
