
     RDKit          3D

 98103  0  0  0  0  0  0  0  0999 V2000
   50.9660    4.8806   18.7178 N   0  0  0  0  0  0  0  0  0  0  0  0
   49.8809    5.8386   18.3696 C   0  0  1  0  0  0  0  0  0  0  0  0
   53.3664    3.5029   19.3368 N   0  0  0  0  0  0  0  0  0  0  0  0
   49.0197    5.3863   17.1810 C   0  0  0  0  0  0  0  0  0  0  0  0
   51.8685    4.5945   17.5875 C   0  0  0  0  0  0  0  0  0  0  0  0
   51.7748    5.3575   19.8707 C   0  0  0  0  0  0  0  0  0  0  0  0
   48.9673    6.1876   19.5530 C   0  0  0  0  0  0  0  0  0  0  0  0
   48.6843    6.3019   16.1687 C   0  0  0  0  0  0  0  0  0  0  0  0
   48.5224    4.0736   17.0886 C   0  0  0  0  0  0  0  0  0  0  0  0
   52.9201    3.5033   17.9348 C   0  0  0  0  0  0  0  0  0  0  0  0
   53.2351    4.8275   19.9375 C   0  0  0  0  0  0  0  0  0  0  0  0
   47.4115    4.6033   15.0151 C   0  0  0  0  0  0  0  0  0  0  0  0
   47.7282    3.6817   16.0086 C   0  0  0  0  0  0  0  0  0  0  0  0
   47.8846    5.9113   15.0912 C   0  0  0  0  0  0  0  0  0  0  0  0
   46.4284    4.1246   13.6866 Cl  0  0  0  0  0  0  0  0  0  0  0  0
   54.6603    2.8524   19.5484 C   0  0  0  0  0  0  0  0  0  0  0  0
   57.9245    0.9932   22.2852 O   0  0  0  0  0  0  0  0  0  0  0  0
   57.0968    2.7963   19.1839 O   0  0  0  0  0  0  0  0  0  0  0  0
   48.6089    7.5252   19.7930 C   0  0  0  0  0  0  0  0  0  0  0  0
   48.4371    5.1936   20.3937 C   0  0  0  0  0  0  0  0  0  0  0  0
   57.4773    1.1708   20.9442 C   0  0  0  0  0  0  0  0  0  0  0  0
   55.9200    3.6037   19.0758 C   0  0  0  0  0  0  0  0  0  0  0  0
   57.5735    2.6347   20.5185 C   0  0  0  0  0  0  0  0  0  0  0  0
   47.5846    5.5270   21.4472 C   0  0  0  0  0  0  0  0  0  0  0  0
   47.7590    7.8569   20.8505 C   0  0  0  0  0  0  0  0  0  0  0  0
   47.2469    6.8583   21.6759 C   0  0  0  0  0  0  0  0  0  0  0  0
   48.7987    4.2490   17.7551 C   0  0  0  0  0  0  0  0  0  0  0  0
   53.7363    4.3549   21.3915 C   0  0  0  0  0  0  0  0  0  0  0  0
   53.1622    4.3538   19.0052 C   0  0  0  0  0  0  0  0  0  0  0  0
   51.0216    5.2836   17.8685 C   0  0  0  0  0  0  0  0  0  0  0  0
   50.1947    4.1499   17.6928 C   0  0  0  0  0  0  0  0  0  0  0  0
   53.2042    4.9943   20.2638 C   0  0  0  0  0  0  0  0  0  0  0  0
   52.5410    5.0993   17.8204 C   0  0  0  0  0  0  0  0  0  0  0  0
   48.2121    5.4992   17.9646 C   0  0  0  0  0  0  0  0  0  0  0  0
   54.2574    3.0668   21.2648 C   0  0  0  0  0  0  0  0  0  0  0  0
   47.8710    3.1008   17.5982 C   0  0  0  0  0  0  0  0  0  0  0  0
   53.7517    5.0519   22.6987 C   0  0  0  0  0  0  0  0  0  0  0  0
   53.7292    3.0418   18.8758 C   0  0  0  0  0  0  0  0  0  0  0  0
   50.4086    6.5677   18.0582 C   0  0  0  0  0  0  0  0  0  0  0  0
   48.9915    6.6523   18.1046 C   0  0  0  0  0  0  0  0  0  0  0  0
   54.2697    2.4107   20.0286 C   0  0  0  0  0  0  0  0  0  0  0  0
   46.6552    3.1540   17.5948 O   0  0  0  0  0  0  0  0  0  0  0  0
   53.3054    6.1719   22.8887 O   0  0  0  0  0  0  0  0  0  0  0  0
   50.8139    2.9553   17.4273 O   0  0  0  0  0  0  0  0  0  0  0  0
   52.7355    6.2834   20.3314 O   0  0  0  0  0  0  0  0  0  0  0  0
   48.5040    1.9182   17.4534 O   0  0  0  0  0  0  0  0  0  0  0  0
   54.3135    4.3408   23.6909 O   0  0  0  0  0  0  0  0  0  0  0  0
   51.1131    7.7894   18.1973 C   0  0  0  0  0  0  0  0  0  0  0  0
   53.8025    2.3041   17.6669 C   0  0  0  0  0  0  0  0  0  0  0  0
   48.3501    7.8893   18.2881 C   0  0  0  0  0  0  0  0  0  0  0  0
   54.8284    1.1226   19.9487 C   0  0  0  0  0  0  0  0  0  0  0  0
   54.3588    1.0219   17.6003 C   0  0  0  0  0  0  0  0  0  0  0  0
   50.4644    9.0143   18.3808 C   0  0  0  0  0  0  0  0  0  0  0  0
   54.8713    0.4293   18.7431 C   0  0  0  0  0  0  0  0  0  0  0  0
   49.0812    9.0646   18.4280 C   0  0  0  0  0  0  0  0  0  0  0  0
   50.3854    6.7667   18.0626 H   0  0  0  0  0  0  0  0  0  0  0  0
   52.3912    5.5134   17.2865 H   0  0  0  0  0  0  0  0  0  0  0  0
   51.3239    4.2394   16.7066 H   0  0  0  0  0  0  0  0  0  0  0  0
   51.2657    5.0427   20.7890 H   0  0  0  0  0  0  0  0  0  0  0  0
   51.8363    6.4537   19.8846 H   0  0  0  0  0  0  0  0  0  0  0  0
   49.0336    7.3308   16.2186 H   0  0  0  0  0  0  0  0  0  0  0  0
   48.7659    3.3456   17.8599 H   0  0  0  0  0  0  0  0  0  0  0  0
   52.4805    2.5198   17.7304 H   0  0  0  0  0  0  0  0  0  0  0  0
   53.7582    3.6283   17.2401 H   0  0  0  0  0  0  0  0  0  0  0  0
   53.8902    5.5406   19.4207 H   0  0  0  0  0  0  0  0  0  0  0  0
   53.5451    4.8057   20.9895 H   0  0  0  0  0  0  0  0  0  0  0  0
   47.3549    2.6624   15.9568 H   0  0  0  0  0  0  0  0  0  0  0  0
   47.6330    6.6310   14.3174 H   0  0  0  0  0  0  0  0  0  0  0  0
   54.7609    2.6482   20.6218 H   0  0  0  0  0  0  0  0  0  0  0  0
   54.6459    1.8555   19.0870 H   0  0  0  0  0  0  0  0  0  0  0  0
   57.3102    1.4722   22.8694 H   0  0  0  0  0  0  0  0  0  0  0  0
   48.9872    8.3203   19.1548 H   0  0  0  0  0  0  0  0  0  0  0  0
   48.6936    4.1495   20.2287 H   0  0  0  0  0  0  0  0  0  0  0  0
   58.0951    0.5458   20.2887 H   0  0  0  0  0  0  0  0  0  0  0  0
   56.4495    0.8003   20.8648 H   0  0  0  0  0  0  0  0  0  0  0  0
   56.0672    4.5430   19.6220 H   0  0  0  0  0  0  0  0  0  0  0  0
   55.8256    3.8587   18.0162 H   0  0  0  0  0  0  0  0  0  0  0  0
   57.0509    3.2848   21.2311 H   0  0  0  0  0  0  0  0  0  0  0  0
   58.6251    2.9442   20.5351 H   0  0  0  0  0  0  0  0  0  0  0  0
   47.1858    4.7461   22.0892 H   0  0  0  0  0  0  0  0  0  0  0  0
   47.4873    8.8949   21.0237 H   0  0  0  0  0  0  0  0  0  0  0  0
   46.5796    7.1171   22.4935 H   0  0  0  0  0  0  0  0  0  0  0  0
   53.0691    6.0528   17.7280 H   0  0  0  0  0  0  0  0  0  0  0  0
   52.7778    4.6229   16.8639 H   0  0  0  0  0  0  0  0  0  0  0  0
   47.1261    5.5740   18.0133 H   0  0  0  0  0  0  0  0  0  0  0  0
   54.6720    2.5689   22.1387 H   0  0  0  0  0  0  0  0  0  0  0  0
   50.1344    2.2485   17.4263 H   0  0  0  0  0  0  0  0  0  0  0  0
   52.7482    6.5967   21.2610 H   0  0  0  0  0  0  0  0  0  0  0  0
   47.7578    1.2815   17.3761 H   0  0  0  0  0  0  0  0  0  0  0  0
   54.2536    4.9236   24.4764 H   0  0  0  0  0  0  0  0  0  0  0  0
   52.1989    7.8142   18.1833 H   0  0  0  0  0  0  0  0  0  0  0  0
   53.4032    2.7069   16.7400 H   0  0  0  0  0  0  0  0  0  0  0  0
   47.2637    7.9471   18.3255 H   0  0  0  0  0  0  0  0  0  0  0  0
   55.2381    0.6438   20.8365 H   0  0  0  0  0  0  0  0  0  0  0  0
   54.3785    0.4888   16.6523 H   0  0  0  0  0  0  0  0  0  0  0  0
   51.0491    9.9227   18.4936 H   0  0  0  0  0  0  0  0  0  0  0  0
   55.3003   -0.5677   18.7012 H   0  0  0  0  0  0  0  0  0  0  0  0
   48.5720   10.0124   18.5759 H   0  0  0  0  0  0  0  0  0  0  0  0
  2  1  1  0
  3 10  1  0
  4  2  1  0
  5  1  1  0
  6  1  1  0
  7  2  1  0
  8  4  2  0
  9  4  1  0
 10  5  1  0
 11  6  1  0
 12 14  2  0
 13  9  2  0
 14  8  1  0
 15 12  1  0
 16  3  1  0
 17 21  1  0
 18 22  1  0
 19  7  2  0
 20  7  1  0
 21 23  1  0
 22 16  1  0
 23 18  1  0
 24 20  2  0
 25 19  1  0
 26 25  2  0
 11  3  1  0
 13 12  1  0
 24 26  1  0
 28 32  2  0
 29 33  1  0
 30 31  1  0
 31 27  2  0
 32 29  1  0
 33 30  1  0
 34 27  1  0
 35 28  1  0
 36 27  1  0
 37 28  1  0
 38 29  2  0
 39 40  1  0
 40 34  2  0
 41 38  1  0
 42 36  2  0
 43 37  2  0
 44 31  1  0
 45 32  1  0
 46 36  1  0
 47 37  1  0
 48 39  1  0
 49 38  1  0
 50 40  1  0
 51 41  1  0
 52 49  2  0
 53 48  2  0
 54 52  1  0
 55 50  2  0
 30 39  2  0
 53 55  1  0
 35 41  2  0
 51 54  2  0
  2 56  1  1
  5 57  1  0
  5 58  1  0
  6 59  1  0
  6 60  1  0
  8 61  1  0
  9 62  1  0
 10 63  1  0
 10 64  1  0
 11 65  1  0
 11 66  1  0
 13 67  1  0
 14 68  1  0
 16 69  1  0
 16 70  1  0
 17 71  1  0
 19 72  1  0
 20 73  1  0
 21 74  1  0
 21 75  1  0
 22 76  1  0
 22 77  1  0
 23 78  1  0
 23 79  1  0
 24 80  1  0
 25 81  1  0
 26 82  1  0
 33 83  1  0
 33 84  1  0
 34 85  1  0
 35 86  1  0
 44 87  1  0
 45 88  1  0
 46 89  1  0
 47 90  1  0
 48 91  1  0
 49 92  1  0
 50 93  1  0
 51 94  1  0
 52 95  1  0
 53 96  1  0
 54 97  1  0
 55 98  1  0
M  END
> <Uni-Dock RESULT> 
ENERGY=   -5.976  LOWER_BOUND=    0.000  UPPER_BOUND=    0.000
INTER + INTRA:          -5.976
INTER:                  -5.976
INTRA:                   0.000
UNBOUND:                 0.000

$$$$

     RDKit          3D

 98103  0  0  0  0  0  0  0  0999 V2000
   50.9769    4.9002   18.6926 N   0  0  0  0  0  0  0  0  0  0  0  0
   49.8948    5.8583   18.3350 C   0  0  1  0  0  0  0  0  0  0  0  0
   53.3729    3.5207   19.3242 N   0  0  0  0  0  0  0  0  0  0  0  0
   49.0307    5.3962   17.1524 C   0  0  0  0  0  0  0  0  0  0  0  0
   51.8771    4.5986   17.5646 C   0  0  0  0  0  0  0  0  0  0  0  0
   51.7885    5.3868   19.8394 C   0  0  0  0  0  0  0  0  0  0  0  0
   48.9837    6.2236   19.5155 C   0  0  0  0  0  0  0  0  0  0  0  0
   48.6977    6.3019   16.1304 C   0  0  0  0  0  0  0  0  0  0  0  0
   48.5286    4.0844   17.0749 C   0  0  0  0  0  0  0  0  0  0  0  0
   52.9251    3.5074   17.9228 C   0  0  0  0  0  0  0  0  0  0  0  0
   53.2470    4.8523   19.9105 C   0  0  0  0  0  0  0  0  0  0  0  0
   47.4175    4.5953   14.9967 C   0  0  0  0  0  0  0  0  0  0  0  0
   47.7318    3.6835   16.0000 C   0  0  0  0  0  0  0  0  0  0  0  0
   47.8953    5.9024   15.0581 C   0  0  0  0  0  0  0  0  0  0  0  0
   46.4312    4.1057   13.6745 Cl  0  0  0  0  0  0  0  0  0  0  0  0
   54.6646    2.8678   19.5416 C   0  0  0  0  0  0  0  0  0  0  0  0
   57.9250    1.0268   22.2953 O   0  0  0  0  0  0  0  0  0  0  0  0
   57.1005    2.7989   19.1753 O   0  0  0  0  0  0  0  0  0  0  0  0
   48.6305    7.5650   19.7411 C   0  0  0  0  0  0  0  0  0  0  0  0
   48.4508    5.2408   20.3676 C   0  0  0  0  0  0  0  0  0  0  0  0
   57.4770    1.1914   20.9529 C   0  0  0  0  0  0  0  0  0  0  0  0
   55.9266    3.6093   19.0596 C   0  0  0  0  0  0  0  0  0  0  0  0
   57.5781    2.6502   20.5111 C   0  0  0  0  0  0  0  0  0  0  0  0
   47.6007    5.5888   21.4182 C   0  0  0  0  0  0  0  0  0  0  0  0
   47.7829    7.9113   20.7958 C   0  0  0  0  0  0  0  0  0  0  0  0
   47.2680    6.9237   21.6326 C   0  0  0  0  0  0  0  0  0  0  0  0
   48.8062    4.2661   17.7391 C   0  0  0  0  0  0  0  0  0  0  0  0
   53.7481    4.3938   21.3691 C   0  0  0  0  0  0  0  0  0  0  0  0
   53.1714    4.3686   18.9835 C   0  0  0  0  0  0  0  0  0  0  0  0
   51.0330    5.2937   17.8389 C   0  0  0  0  0  0  0  0  0  0  0  0
   50.2018    4.1611   17.6764 C   0  0  0  0  0  0  0  0  0  0  0  0
   53.2171    5.0228   20.2350 C   0  0  0  0  0  0  0  0  0  0  0  0
   52.5516    5.1034   17.7912 C   0  0  0  0  0  0  0  0  0  0  0  0
   48.2244    5.5206   17.9355 C   0  0  0  0  0  0  0  0  0  0  0  0
   54.2643    3.1025   21.2559 C   0  0  0  0  0  0  0  0  0  0  0  0
   47.8743    3.1196   17.5957 C   0  0  0  0  0  0  0  0  0  0  0  0
   53.7673    5.1050   22.6685 C   0  0  0  0  0  0  0  0  0  0  0  0
   53.7335    3.0532   18.8679 C   0  0  0  0  0  0  0  0  0  0  0  0
   50.4249    6.5820   18.0151 C   0  0  0  0  0  0  0  0  0  0  0  0
   49.0081    6.6722   18.0621 C   0  0  0  0  0  0  0  0  0  0  0  0
   54.2729    2.4329   20.0270 C   0  0  0  0  0  0  0  0  0  0  0  0
   46.6586    3.1772   17.5930 O   0  0  0  0  0  0  0  0  0  0  0  0
   53.3253    6.2287   22.8467 O   0  0  0  0  0  0  0  0  0  0  0  0
   50.8164    2.9615   17.4234 O   0  0  0  0  0  0  0  0  0  0  0  0
   52.7531    6.3142   20.2889 O   0  0  0  0  0  0  0  0  0  0  0  0
   48.5028    1.9331   17.4633 O   0  0  0  0  0  0  0  0  0  0  0  0
   54.3276    4.4028   23.6679 O   0  0  0  0  0  0  0  0  0  0  0  0
   51.1339    7.8026   18.1401 C   0  0  0  0  0  0  0  0  0  0  0  0
   53.8028    2.3021   17.6671 C   0  0  0  0  0  0  0  0  0  0  0  0
   48.3714    7.9136   18.2326 C   0  0  0  0  0  0  0  0  0  0  0  0
   54.8269    1.1420   19.9606 C   0  0  0  0  0  0  0  0  0  0  0  0
   54.3544    1.0172   17.6140 C   0  0  0  0  0  0  0  0  0  0  0  0
   50.4899    9.0318   18.3109 C   0  0  0  0  0  0  0  0  0  0  0  0
   54.8660    0.4353   18.7627 C   0  0  0  0  0  0  0  0  0  0  0  0
   49.1069    9.0876   18.3589 C   0  0  0  0  0  0  0  0  0  0  0  0
   50.4024    6.7812   18.0174 H   0  0  0  0  0  0  0  0  0  0  0  0
   52.4028    5.5122   17.2530 H   0  0  0  0  0  0  0  0  0  0  0  0
   51.3303    4.2358   16.6882 H   0  0  0  0  0  0  0  0  0  0  0  0
   51.2793    5.0839   20.7616 H   0  0  0  0  0  0  0  0  0  0  0  0
   51.8541    6.4829   19.8413 H   0  0  0  0  0  0  0  0  0  0  0  0
   49.0507    7.3300   16.1686 H   0  0  0  0  0  0  0  0  0  0  0  0
   48.7702    3.3639   17.8538 H   0  0  0  0  0  0  0  0  0  0  0  0
   52.4817    2.5233   17.7296 H   0  0  0  0  0  0  0  0  0  0  0  0
   53.7629    3.6217   17.2259 H   0  0  0  0  0  0  0  0  0  0  0  0
   53.9041    5.5573   19.3853 H   0  0  0  0  0  0  0  0  0  0  0  0
   53.5580    4.8409   20.9624 H   0  0  0  0  0  0  0  0  0  0  0  0
   47.3548    2.6650   15.9597 H   0  0  0  0  0  0  0  0  0  0  0  0
   47.6455    6.6145   14.2767 H   0  0  0  0  0  0  0  0  0  0  0  0
   54.7656    2.6751   20.6171 H   0  0  0  0  0  0  0  0  0  0  0  0
   54.6461    1.8660   19.0912 H   0  0  0  0  0  0  0  0  0  0  0  0
   57.3130    1.5145   22.8749 H   0  0  0  0  0  0  0  0  0  0  0  0
   49.0110    8.3517   19.0939 H   0  0  0  0  0  0  0  0  0  0  0  0
   48.7034    4.1940   20.2137 H   0  0  0  0  0  0  0  0  0  0  0  0
   58.0919    0.5571   20.3037 H   0  0  0  0  0  0  0  0  0  0  0  0
   56.4478    0.8238   20.8786 H   0  0  0  0  0  0  0  0  0  0  0  0
   56.0777    4.5540   19.5953 H   0  0  0  0  0  0  0  0  0  0  0  0
   55.8320    3.8531   17.9973 H   0  0  0  0  0  0  0  0  0  0  0  0
   57.0586    3.3100   21.2170 H   0  0  0  0  0  0  0  0  0  0  0  0
   58.6307    2.9561   20.5233 H   0  0  0  0  0  0  0  0  0  0  0  0
   47.1997    4.8164   22.0691 H   0  0  0  0  0  0  0  0  0  0  0  0
   47.5152    8.9521   20.9579 H   0  0  0  0  0  0  0  0  0  0  0  0
   46.6025    7.1938   22.4481 H   0  0  0  0  0  0  0  0  0  0  0  0
   53.0831    6.0539   17.6879 H   0  0  0  0  0  0  0  0  0  0  0  0
   52.7857    4.6157   16.8398 H   0  0  0  0  0  0  0  0  0  0  0  0
   47.1387    5.5999   17.9844 H   0  0  0  0  0  0  0  0  0  0  0  0
   54.6780    2.6127   22.1348 H   0  0  0  0  0  0  0  0  0  0  0  0
   50.1343    2.2572   17.4308 H   0  0  0  0  0  0  0  0  0  0  0  0
   52.7679    6.6376   21.2151 H   0  0  0  0  0  0  0  0  0  0  0  0
   47.7542    1.2983   17.3937 H   0  0  0  0  0  0  0  0  0  0  0  0
   54.2706    4.9944   24.4471 H   0  0  0  0  0  0  0  0  0  0  0  0
   52.2198    7.8233   18.1248 H   0  0  0  0  0  0  0  0  0  0  0  0
   53.4041    2.6962   16.7363 H   0  0  0  0  0  0  0  0  0  0  0  0
   47.2853    7.9757   18.2705 H   0  0  0  0  0  0  0  0  0  0  0  0
   55.2358    0.6714   20.8532 H   0  0  0  0  0  0  0  0  0  0  0  0
   54.3712    0.4737   16.6719 H   0  0  0  0  0  0  0  0  0  0  0  0
   51.0780    9.9392   18.4131 H   0  0  0  0  0  0  0  0  0  0  0  0
   55.2913   -0.5636   18.7313 H   0  0  0  0  0  0  0  0  0  0  0  0
   48.6013   10.0388   18.4969 H   0  0  0  0  0  0  0  0  0  0  0  0
  2  1  1  0
  3 10  1  0
  4  2  1  0
  5  1  1  0
  6  1  1  0
  7  2  1  0
  8  4  2  0
  9  4  1  0
 10  5  1  0
 11  6  1  0
 12 14  2  0
 13  9  2  0
 14  8  1  0
 15 12  1  0
 16  3  1  0
 17 21  1  0
 18 22  1  0
 19  7  2  0
 20  7  1  0
 21 23  1  0
 22 16  1  0
 23 18  1  0
 24 20  2  0
 25 19  1  0
 26 25  2  0
 11  3  1  0
 13 12  1  0
 24 26  1  0
 28 32  2  0
 29 33  1  0
 30 31  1  0
 31 27  2  0
 32 29  1  0
 33 30  1  0
 34 27  1  0
 35 28  1  0
 36 27  1  0
 37 28  1  0
 38 29  2  0
 39 40  1  0
 40 34  2  0
 41 38  1  0
 42 36  2  0
 43 37  2  0
 44 31  1  0
 45 32  1  0
 46 36  1  0
 47 37  1  0
 48 39  1  0
 49 38  1  0
 50 40  1  0
 51 41  1  0
 52 49  2  0
 53 48  2  0
 54 52  1  0
 55 50  2  0
 30 39  2  0
 53 55  1  0
 35 41  2  0
 51 54  2  0
  2 56  1  1
  5 57  1  0
  5 58  1  0
  6 59  1  0
  6 60  1  0
  8 61  1  0
  9 62  1  0
 10 63  1  0
 10 64  1  0
 11 65  1  0
 11 66  1  0
 13 67  1  0
 14 68  1  0
 16 69  1  0
 16 70  1  0
 17 71  1  0
 19 72  1  0
 20 73  1  0
 21 74  1  0
 21 75  1  0
 22 76  1  0
 22 77  1  0
 23 78  1  0
 23 79  1  0
 24 80  1  0
 25 81  1  0
 26 82  1  0
 33 83  1  0
 33 84  1  0
 34 85  1  0
 35 86  1  0
 44 87  1  0
 45 88  1  0
 46 89  1  0
 47 90  1  0
 48 91  1  0
 49 92  1  0
 50 93  1  0
 51 94  1  0
 52 95  1  0
 53 96  1  0
 54 97  1  0
 55 98  1  0
M  END
> <Uni-Dock RESULT> 
ENERGY=   -5.960  LOWER_BOUND=    0.043  UPPER_BOUND=    0.043
INTER + INTRA:          -5.960
INTER:                  -5.960
INTRA:                   0.000
UNBOUND:                 0.000

$$$$

     RDKit          3D

 98103  0  0  0  0  0  0  0  0999 V2000
   47.4032   12.3882    9.1969 N   0  0  0  0  0  0  0  0  0  0  0  0
   46.7565   13.4454    8.3718 C   0  0  1  0  0  0  0  0  0  0  0  0
   48.4733   10.6907   11.2008 N   0  0  0  0  0  0  0  0  0  0  0  0
   47.6734   14.0224    7.2832 C   0  0  0  0  0  0  0  0  0  0  0  0
   48.6467   12.8423    9.8460 C   0  0  0  0  0  0  0  0  0  0  0  0
   46.4824   11.8594   10.2376 C   0  0  0  0  0  0  0  0  0  0  0  0
   45.4315   13.0023    7.7353 C   0  0  0  0  0  0  0  0  0  0  0  0
   47.7366   15.4122    7.0829 C   0  0  0  0  0  0  0  0  0  0  0  0
   48.4390   13.1895    6.4471 C   0  0  0  0  0  0  0  0  0  0  0  0
   49.3695   11.6929   10.6034 C   0  0  0  0  0  0  0  0  0  0  0  0
   47.1626   11.2603   11.5010 C   0  0  0  0  0  0  0  0  0  0  0  0
   49.3079   15.1082    5.2732 C   0  0  0  0  0  0  0  0  0  0  0  0
   49.2571   13.7290    5.4517 C   0  0  0  0  0  0  0  0  0  0  0  0
   48.5504   15.9515    6.0830 C   0  0  0  0  0  0  0  0  0  0  0  0
   50.3102   15.7751    4.0439 Cl  0  0  0  0  0  0  0  0  0  0  0  0
   49.0803    9.9252   12.2907 C   0  0  0  0  0  0  0  0  0  0  0  0
   49.1526    6.3424   15.2505 O   0  0  0  0  0  0  0  0  0  0  0  0
   50.0352    9.8495   14.5611 O   0  0  0  0  0  0  0  0  0  0  0  0
   44.3130   13.8522    7.7779 C   0  0  0  0  0  0  0  0  0  0  0  0
   45.3096   11.7721    7.0662 C   0  0  0  0  0  0  0  0  0  0  0  0
   49.8920    7.4321   14.7068 C   0  0  0  0  0  0  0  0  0  0  0  0
   49.2852   10.6451   13.6376 C   0  0  0  0  0  0  0  0  0  0  0  0
   49.2983    8.7723   15.1366 C   0  0  0  0  0  0  0  0  0  0  0  0
   44.1052   11.3987    6.4681 C   0  0  0  0  0  0  0  0  0  0  0  0
   43.1075   13.4746    7.1823 C   0  0  0  0  0  0  0  0  0  0  0  0
   43.0046   12.2493    6.5274 C   0  0  0  0  0  0  0  0  0  0  0  0
   47.9189   12.8331    6.8391 C   0  0  0  0  0  0  0  0  0  0  0  0
   46.5429    9.8736   12.0317 C   0  0  0  0  0  0  0  0  0  0  0  0
   48.1193   11.5568   11.1916 C   0  0  0  0  0  0  0  0  0  0  0  0
   47.7784   13.2501    9.2539 C   0  0  0  0  0  0  0  0  0  0  0  0
   48.4023   12.6418    8.1399 C   0  0  0  0  0  0  0  0  0  0  0  0
   46.8120   11.1638   11.5556 C   0  0  0  0  0  0  0  0  0  0  0  0
   48.3386   12.9731   10.6517 C   0  0  0  0  0  0  0  0  0  0  0  0
   46.8165   13.6667    6.6365 C   0  0  0  0  0  0  0  0  0  0  0  0
   47.5916    8.9640   12.1716 C   0  0  0  0  0  0  0  0  0  0  0  0
   48.5113   12.2132    5.6274 C   0  0  0  0  0  0  0  0  0  0  0  0
   45.1573    9.4918   12.3911 C   0  0  0  0  0  0  0  0  0  0  0  0
   49.1975   10.6263   11.3689 C   0  0  0  0  0  0  0  0  0  0  0  0
   46.6618   14.1248    9.0326 C   0  0  0  0  0  0  0  0  0  0  0  0
   46.1935   14.3187    7.7057 C   0  0  0  0  0  0  0  0  0  0  0  0
   48.9072    9.3243   11.8581 C   0  0  0  0  0  0  0  0  0  0  0  0
   48.1531   12.3949    4.4785 O   0  0  0  0  0  0  0  0  0  0  0  0
   44.1894   10.2277   12.2856 O   0  0  0  0  0  0  0  0  0  0  0  0
   49.5187   11.8829    8.3818 O   0  0  0  0  0  0  0  0  0  0  0  0
   45.8196   12.1081   11.4588 O   0  0  0  0  0  0  0  0  0  0  0  0
   49.5363   11.3795    5.9002 O   0  0  0  0  0  0  0  0  0  0  0  0
   45.0399    8.2379   12.8599 O   0  0  0  0  0  0  0  0  0  0  0  0
   45.9757   14.8359   10.0483 C   0  0  0  0  0  0  0  0  0  0  0  0
   50.5614   10.9018   11.0953 C   0  0  0  0  0  0  0  0  0  0  0  0
   45.1036   15.1667    7.4440 C   0  0  0  0  0  0  0  0  0  0  0  0
   49.9321    8.3785   12.0398 C   0  0  0  0  0  0  0  0  0  0  0  0
   51.5723    9.9516   11.2778 C   0  0  0  0  0  0  0  0  0  0  0  0
   44.8916   15.6759    9.7765 C   0  0  0  0  0  0  0  0  0  0  0  0
   51.2573    8.6874   11.7494 C   0  0  0  0  0  0  0  0  0  0  0  0
   44.4536   15.8405    8.4729 C   0  0  0  0  0  0  0  0  0  0  0  0
   46.5261   14.2689    9.0639 H   0  0  0  0  0  0  0  0  0  0  0  0
   48.4228   13.6530   10.5537 H   0  0  0  0  0  0  0  0  0  0  0  0
   49.3641   13.2447    9.1234 H   0  0  0  0  0  0  0  0  0  0  0  0
   45.8793   11.0673    9.7789 H   0  0  0  0  0  0  0  0  0  0  0  0
   45.7937   12.6387   10.5899 H   0  0  0  0  0  0  0  0  0  0  0  0
   47.1420   16.0850    7.6969 H   0  0  0  0  0  0  0  0  0  0  0  0
   48.4070   12.1100    6.5800 H   0  0  0  0  0  0  0  0  0  0  0  0
   50.0232   11.1683    9.8964 H   0  0  0  0  0  0  0  0  0  0  0  0
   50.0193   12.1576   11.3535 H   0  0  0  0  0  0  0  0  0  0  0  0
   47.2613   12.0526   12.2542 H   0  0  0  0  0  0  0  0  0  0  0  0
   46.4970   10.4955   11.9198 H   0  0  0  0  0  0  0  0  0  0  0  0
   49.8406   13.0673    4.8171 H   0  0  0  0  0  0  0  0  0  0  0  0
   48.5875   17.0277    5.9397 H   0  0  0  0  0  0  0  0  0  0  0  0
   48.4586    9.0377   12.4633 H   0  0  0  0  0  0  0  0  0  0  0  0
   50.0431    9.5159   11.9554 H   0  0  0  0  0  0  0  0  0  0  0  0
   48.2601    6.3652   14.8617 H   0  0  0  0  0  0  0  0  0  0  0  0
   44.3733   14.8183    8.2735 H   0  0  0  0  0  0  0  0  0  0  0  0
   46.1604   11.0963    7.0135 H   0  0  0  0  0  0  0  0  0  0  0  0
   50.9296    7.3512   15.0514 H   0  0  0  0  0  0  0  0  0  0  0  0
   49.9081    7.3359   13.6157 H   0  0  0  0  0  0  0  0  0  0  0  0
   48.3332   10.9399   14.0949 H   0  0  0  0  0  0  0  0  0  0  0  0
   49.8664   11.5596   13.4862 H   0  0  0  0  0  0  0  0  0  0  0  0
   48.2289    8.8218   14.8967 H   0  0  0  0  0  0  0  0  0  0  0  0
   49.3727    8.8641   16.2265 H   0  0  0  0  0  0  0  0  0  0  0  0
   44.0278   10.4427    5.9571 H   0  0  0  0  0  0  0  0  0  0  0  0
   42.2507   14.1422    7.2199 H   0  0  0  0  0  0  0  0  0  0  0  0
   42.0682   11.9602    6.0578 H   0  0  0  0  0  0  0  0  0  0  0  0
   47.9430   13.6669   11.3992 H   0  0  0  0  0  0  0  0  0  0  0  0
   49.3978   13.2482   10.6349 H   0  0  0  0  0  0  0  0  0  0  0  0
   46.4419   13.8137    5.6239 H   0  0  0  0  0  0  0  0  0  0  0  0
   47.3852    7.9622   12.5420 H   0  0  0  0  0  0  0  0  0  0  0  0
   49.7849   11.4490    7.5438 H   0  0  0  0  0  0  0  0  0  0  0  0
   44.9503   11.7039   11.6676 H   0  0  0  0  0  0  0  0  0  0  0  0
   49.7955   11.0560    5.0078 H   0  0  0  0  0  0  0  0  0  0  0  0
   44.0847    8.1354   13.0534 H   0  0  0  0  0  0  0  0  0  0  0  0
   46.2620   14.7377   11.0914 H   0  0  0  0  0  0  0  0  0  0  0  0
   50.8707   11.8687   10.7078 H   0  0  0  0  0  0  0  0  0  0  0  0
   44.7478   15.3090    6.4252 H   0  0  0  0  0  0  0  0  0  0  0  0
   49.7021    7.3817   12.4123 H   0  0  0  0  0  0  0  0  0  0  0  0
   52.6029   10.2049   11.0393 H   0  0  0  0  0  0  0  0  0  0  0  0
   44.3910   16.1912   10.5911 H   0  0  0  0  0  0  0  0  0  0  0  0
   52.0352    7.9423   11.8892 H   0  0  0  0  0  0  0  0  0  0  0  0
   43.6085   16.4873    8.2564 H   0  0  0  0  0  0  0  0  0  0  0  0
  2  1  1  0
  3 10  1  0
  4  2  1  0
  5  1  1  0
  6  1  1  0
  7  2  1  0
  8  4  2  0
  9  4  1  0
 10  5  1  0
 11  6  1  0
 12 14  2  0
 13  9  2  0
 14  8  1  0
 15 12  1  0
 16  3  1  0
 17 21  1  0
 18 22  1  0
 19  7  2  0
 20  7  1  0
 21 23  1  0
 22 16  1  0
 23 18  1  0
 24 20  2  0
 25 19  1  0
 26 25  2  0
 11  3  1  0
 13 12  1  0
 24 26  1  0
 28 32  2  0
 29 33  1  0
 30 31  1  0
 31 27  2  0
 32 29  1  0
 33 30  1  0
 34 27  1  0
 35 28  1  0
 36 27  1  0
 37 28  1  0
 38 29  2  0
 39 40  1  0
 40 34  2  0
 41 38  1  0
 42 36  2  0
 43 37  2  0
 44 31  1  0
 45 32  1  0
 46 36  1  0
 47 37  1  0
 48 39  1  0
 49 38  1  0
 50 40  1  0
 51 41  1  0
 52 49  2  0
 53 48  2  0
 54 52  1  0
 55 50  2  0
 30 39  2  0
 53 55  1  0
 35 41  2  0
 51 54  2  0
  2 56  1  1
  5 57  1  0
  5 58  1  0
  6 59  1  0
  6 60  1  0
  8 61  1  0
  9 62  1  0
 10 63  1  0
 10 64  1  0
 11 65  1  0
 11 66  1  0
 13 67  1  0
 14 68  1  0
 16 69  1  0
 16 70  1  0
 17 71  1  0
 19 72  1  0
 20 73  1  0
 21 74  1  0
 21 75  1  0
 22 76  1  0
 22 77  1  0
 23 78  1  0
 23 79  1  0
 24 80  1  0
 25 81  1  0
 26 82  1  0
 33 83  1  0
 33 84  1  0
 34 85  1  0
 35 86  1  0
 44 87  1  0
 45 88  1  0
 46 89  1  0
 47 90  1  0
 48 91  1  0
 49 92  1  0
 50 93  1  0
 51 94  1  0
 52 95  1  0
 53 96  1  0
 54 97  1  0
 55 98  1  0
M  END
> <Uni-Dock RESULT> 
ENERGY=   -5.767  LOWER_BOUND=    9.821  UPPER_BOUND=   13.183
INTER + INTRA:          -5.767
INTER:                  -5.767
INTRA:                   0.000
UNBOUND:                 0.000

$$$$

     RDKit          3D

 98103  0  0  0  0  0  0  0  0999 V2000
   51.2347    6.4127   17.7605 N   0  0  0  0  0  0  0  0  0  0  0  0
   50.4846    5.1919   18.1651 C   0  0  1  0  0  0  0  0  0  0  0  0
   52.2244    8.8296   16.6553 N   0  0  0  0  0  0  0  0  0  0  0  0
   51.3032    3.8982   18.0414 C   0  0  0  0  0  0  0  0  0  0  0  0
   51.7594    6.3385   16.3846 C   0  0  0  0  0  0  0  0  0  0  0  0
   50.4058    7.6397   17.8940 C   0  0  0  0  0  0  0  0  0  0  0  0
   49.8857    5.2791   19.5760 C   0  0  0  0  0  0  0  0  0  0  0  0
   50.7260    2.7553   17.4616 C   0  0  0  0  0  0  0  0  0  0  0  0
   52.6210    3.8109   18.5260 C   0  0  0  0  0  0  0  0  0  0  0  0
   52.6397    7.5679   16.0228 C   0  0  0  0  0  0  0  0  0  0  0  0
   50.7977    8.8246   16.9665 C   0  0  0  0  0  0  0  0  0  0  0  0
   52.7581    1.5040   17.8379 C   0  0  0  0  0  0  0  0  0  0  0  0
   53.3473    2.6227   18.4192 C   0  0  0  0  0  0  0  0  0  0  0  0
   51.4508    1.5646   17.3604 C   0  0  0  0  0  0  0  0  0  0  0  0
   53.6486    0.0373   17.7105 Cl  0  0  0  0  0  0  0  0  0  0  0  0
   52.7032   10.0271   15.9632 C   0  0  0  0  0  0  0  0  0  0  0  0
   53.5142   14.5985   15.7468 O   0  0  0  0  0  0  0  0  0  0  0  0
   52.6936   11.4790   13.9722 O   0  0  0  0  0  0  0  0  0  0  0  0
   48.5609    4.8686   19.8032 C   0  0  0  0  0  0  0  0  0  0  0  0
   50.6432    5.7256   20.6726 C   0  0  0  0  0  0  0  0  0  0  0  0
   53.7428   13.3344   15.1308 C   0  0  0  0  0  0  0  0  0  0  0  0
   52.0281   10.3947   14.6277 C   0  0  0  0  0  0  0  0  0  0  0  0
   52.4495   12.7553   14.5603 C   0  0  0  0  0  0  0  0  0  0  0  0
   50.0910    5.7706   21.9535 C   0  0  0  0  0  0  0  0  0  0  0  0
   48.0089    4.9185   21.0852 C   0  0  0  0  0  0  0  0  0  0  0  0
   48.7740    5.3683   22.1591 C   0  0  0  0  0  0  0  0  0  0  0  0
   52.2508    4.4124   18.7552 C   0  0  0  0  0  0  0  0  0  0  0  0
   50.8172   10.2747   17.6632 C   0  0  0  0  0  0  0  0  0  0  0  0
   51.5134    8.2558   16.4535 C   0  0  0  0  0  0  0  0  0  0  0  0
   51.0781    5.7758   17.0847 C   0  0  0  0  0  0  0  0  0  0  0  0
   52.2693    5.3601   17.7237 C   0  0  0  0  0  0  0  0  0  0  0  0
   50.5500    8.9844   17.1864 C   0  0  0  0  0  0  0  0  0  0  0  0
   51.1660    6.8392   15.9865 C   0  0  0  0  0  0  0  0  0  0  0  0
   51.0336    3.8445   19.1384 C   0  0  0  0  0  0  0  0  0  0  0  0
   52.0525   10.8627   17.3889 C   0  0  0  0  0  0  0  0  0  0  0  0
   53.4575    3.9433   19.4815 C   0  0  0  0  0  0  0  0  0  0  0  0
   49.7881   11.0041   18.4401 C   0  0  0  0  0  0  0  0  0  0  0  0
   52.7692    8.8796   16.1478 C   0  0  0  0  0  0  0  0  0  0  0  0
   49.8355    5.1679   17.4685 C   0  0  0  0  0  0  0  0  0  0  0  0
   49.8369    4.1983   18.5065 C   0  0  0  0  0  0  0  0  0  0  0  0
   53.0209   10.1907   16.6344 C   0  0  0  0  0  0  0  0  0  0  0  0
   53.4891    3.0868   20.3454 O   0  0  0  0  0  0  0  0  0  0  0  0
   48.6916   10.5518   18.7281 O   0  0  0  0  0  0  0  0  0  0  0  0
   53.4464    5.8989   17.2709 O   0  0  0  0  0  0  0  0  0  0  0  0
   49.3266    8.3922   17.3827 O   0  0  0  0  0  0  0  0  0  0  0  0
   54.5891    4.5708   19.0992 O   0  0  0  0  0  0  0  0  0  0  0  0
   50.1594   12.2403   18.8139 O   0  0  0  0  0  0  0  0  0  0  0  0
   48.5783    5.4525   16.8799 C   0  0  0  0  0  0  0  0  0  0  0  0
   53.8043    8.2882   15.3799 C   0  0  0  0  0  0  0  0  0  0  0  0
   48.6430    3.5780   18.9133 C   0  0  0  0  0  0  0  0  0  0  0  0
   54.2408   10.8365   16.3649 C   0  0  0  0  0  0  0  0  0  0  0  0
   55.0150    8.9400   15.1202 C   0  0  0  0  0  0  0  0  0  0  0  0
   47.3966    4.8303   17.2937 C   0  0  0  0  0  0  0  0  0  0  0  0
   55.2345   10.2156   15.6147 C   0  0  0  0  0  0  0  0  0  0  0  0
   47.4283    3.8929   18.3128 C   0  0  0  0  0  0  0  0  0  0  0  0
   49.6450    5.1064   17.4594 H   0  0  0  0  0  0  0  0  0  0  0  0
   50.9258    6.2719   15.6713 H   0  0  0  0  0  0  0  0  0  0  0  0
   52.3789    5.4493   16.2284 H   0  0  0  0  0  0  0  0  0  0  0  0
   50.4893    7.9882   18.9300 H   0  0  0  0  0  0  0  0  0  0  0  0
   49.3465    7.4249   17.7007 H   0  0  0  0  0  0  0  0  0  0  0  0
   49.7021    2.7804   17.0955 H   0  0  0  0  0  0  0  0  0  0  0  0
   53.0907    4.6808   18.9808 H   0  0  0  0  0  0  0  0  0  0  0  0
   53.6687    7.3641   16.3421 H   0  0  0  0  0  0  0  0  0  0  0  0
   52.6547    7.6452   14.9298 H   0  0  0  0  0  0  0  0  0  0  0  0
   50.2119    8.7530   16.0410 H   0  0  0  0  0  0  0  0  0  0  0  0
   50.5083    9.7594   17.4621 H   0  0  0  0  0  0  0  0  0  0  0  0
   54.3643    2.5773   18.7998 H   0  0  0  0  0  0  0  0  0  0  0  0
   50.9904    0.6894   16.9109 H   0  0  0  0  0  0  0  0  0  0  0  0
   52.5970   10.8760   16.6504 H   0  0  0  0  0  0  0  0  0  0  0  0
   53.7872    9.9462   15.8041 H   0  0  0  0  0  0  0  0  0  0  0  0
   52.9353   14.4539   16.5164 H   0  0  0  0  0  0  0  0  0  0  0  0
   47.9485    4.5031   18.9823 H   0  0  0  0  0  0  0  0  0  0  0  0
   51.6728    6.0451   20.5271 H   0  0  0  0  0  0  0  0  0  0  0  0
   54.4810   13.4685   14.3314 H   0  0  0  0  0  0  0  0  0  0  0  0
   54.1890   12.6594   15.8692 H   0  0  0  0  0  0  0  0  0  0  0  0
   50.9671   10.6391   14.7574 H   0  0  0  0  0  0  0  0  0  0  0  0
   52.0813    9.5471   13.9381 H   0  0  0  0  0  0  0  0  0  0  0  0
   51.6650   12.7197   15.3264 H   0  0  0  0  0  0  0  0  0  0  0  0
   52.0774   13.4188   13.7710 H   0  0  0  0  0  0  0  0  0  0  0  0
   50.6901    6.1211   22.7897 H   0  0  0  0  0  0  0  0  0  0  0  0
   46.9840    4.5956   21.2481 H   0  0  0  0  0  0  0  0  0  0  0  0
   48.3457    5.3993   23.1573 H   0  0  0  0  0  0  0  0  0  0  0  0
   50.2415    6.9097   15.4061 H   0  0  0  0  0  0  0  0  0  0  0  0
   51.8701    6.4689   15.2348 H   0  0  0  0  0  0  0  0  0  0  0  0
   51.0214    3.1079   19.9413 H   0  0  0  0  0  0  0  0  0  0  0  0
   52.2617   11.8647   17.7572 H   0  0  0  0  0  0  0  0  0  0  0  0
   54.1702    5.6001   17.8609 H   0  0  0  0  0  0  0  0  0  0  0  0
   48.7695    8.9566   17.9604 H   0  0  0  0  0  0  0  0  0  0  0  0
   55.2711    4.1569   19.6751 H   0  0  0  0  0  0  0  0  0  0  0  0
   49.3884   12.5909   19.3068 H   0  0  0  0  0  0  0  0  0  0  0  0
   48.4854    6.1883   16.0864 H   0  0  0  0  0  0  0  0  0  0  0  0
   53.6998    7.2839   14.9783 H   0  0  0  0  0  0  0  0  0  0  0  0
   48.6503    2.8377   19.7113 H   0  0  0  0  0  0  0  0  0  0  0  0
   54.4282   11.8400   16.7434 H   0  0  0  0  0  0  0  0  0  0  0  0
   55.7857    8.4391   14.5386 H   0  0  0  0  0  0  0  0  0  0  0  0
   46.4551    5.0904   16.8187 H   0  0  0  0  0  0  0  0  0  0  0  0
   56.1734   10.7267   15.4220 H   0  0  0  0  0  0  0  0  0  0  0  0
   46.5128    3.4104   18.6422 H   0  0  0  0  0  0  0  0  0  0  0  0
  2  1  1  0
  3 10  1  0
  4  2  1  0
  5  1  1  0
  6  1  1  0
  7  2  1  0
  8  4  2  0
  9  4  1  0
 10  5  1  0
 11  6  1  0
 12 14  2  0
 13  9  2  0
 14  8  1  0
 15 12  1  0
 16  3  1  0
 17 21  1  0
 18 22  1  0
 19  7  2  0
 20  7  1  0
 21 23  1  0
 22 16  1  0
 23 18  1  0
 24 20  2  0
 25 19  1  0
 26 25  2  0
 11  3  1  0
 13 12  1  0
 24 26  1  0
 28 32  2  0
 29 33  1  0
 30 31  1  0
 31 27  2  0
 32 29  1  0
 33 30  1  0
 34 27  1  0
 35 28  1  0
 36 27  1  0
 37 28  1  0
 38 29  2  0
 39 40  1  0
 40 34  2  0
 41 38  1  0
 42 36  2  0
 43 37  2  0
 44 31  1  0
 45 32  1  0
 46 36  1  0
 47 37  1  0
 48 39  1  0
 49 38  1  0
 50 40  1  0
 51 41  1  0
 52 49  2  0
 53 48  2  0
 54 52  1  0
 55 50  2  0
 30 39  2  0
 53 55  1  0
 35 41  2  0
 51 54  2  0
  2 56  1  1
  5 57  1  0
  5 58  1  0
  6 59  1  0
  6 60  1  0
  8 61  1  0
  9 62  1  0
 10 63  1  0
 10 64  1  0
 11 65  1  0
 11 66  1  0
 13 67  1  0
 14 68  1  0
 16 69  1  0
 16 70  1  0
 17 71  1  0
 19 72  1  0
 20 73  1  0
 21 74  1  0
 21 75  1  0
 22 76  1  0
 22 77  1  0
 23 78  1  0
 23 79  1  0
 24 80  1  0
 25 81  1  0
 26 82  1  0
 33 83  1  0
 33 84  1  0
 34 85  1  0
 35 86  1  0
 44 87  1  0
 45 88  1  0
 46 89  1  0
 47 90  1  0
 48 91  1  0
 49 92  1  0
 50 93  1  0
 51 94  1  0
 52 95  1  0
 53 96  1  0
 54 97  1  0
 55 98  1  0
M  END
> <Uni-Dock RESULT> 
ENERGY=   -5.588  LOWER_BOUND=    3.546  UPPER_BOUND=    6.679
INTER + INTRA:          -5.588
INTER:                  -5.588
INTRA:                   0.000
UNBOUND:                 0.000

$$$$

     RDKit          3D

 98103  0  0  0  0  0  0  0  0999 V2000
   50.9572    9.7851   11.1000 N   0  0  0  0  0  0  0  0  0  0  0  0
   50.3192    9.7992   12.4452 C   0  0  1  0  0  0  0  0  0  0  0  0
   52.6459    9.6746    8.8243 N   0  0  0  0  0  0  0  0  0  0  0  0
   49.4600   11.0454   12.7050 C   0  0  0  0  0  0  0  0  0  0  0  0
   51.7930   10.9727   10.8449 C   0  0  0  0  0  0  0  0  0  0  0  0
   51.7795    8.5641   10.8916 C   0  0  0  0  0  0  0  0  0  0  0  0
   49.4909    8.5417   12.7447 C   0  0  0  0  0  0  0  0  0  0  0  0
   49.5621   11.7251   13.9310 C   0  0  0  0  0  0  0  0  0  0  0  0
   48.5377   11.5161   11.7527 C   0  0  0  0  0  0  0  0  0  0  0  0
   52.3524   10.9988    9.3945 C   0  0  0  0  0  0  0  0  0  0  0  0
   52.9435    8.6991    9.8695 C   0  0  0  0  0  0  0  0  0  0  0  0
   47.8728   13.3031   13.2289 C   0  0  0  0  0  0  0  0  0  0  0  0
   47.7528   12.6426   12.0099 C   0  0  0  0  0  0  0  0  0  0  0  0
   48.7723   12.8485   14.1906 C   0  0  0  0  0  0  0  0  0  0  0  0
   46.9029   14.6874   13.5505 Cl  0  0  0  0  0  0  0  0  0  0  0  0
   53.5995    9.7036    7.7144 C   0  0  0  0  0  0  0  0  0  0  0  0
   55.7365    7.7430    4.0824 O   0  0  0  0  0  0  0  0  0  0  0  0
   55.8779   10.1327    6.8794 O   0  0  0  0  0  0  0  0  0  0  0  0
   49.6133    7.9000   13.9890 C   0  0  0  0  0  0  0  0  0  0  0  0
   48.5706    8.0261   11.8157 C   0  0  0  0  0  0  0  0  0  0  0  0
   55.5001    8.9555    4.7920 C   0  0  0  0  0  0  0  0  0  0  0  0
   55.0801    9.9609    8.0551 C   0  0  0  0  0  0  0  0  0  0  0  0
   56.1481    8.9223    6.1750 C   0  0  0  0  0  0  0  0  0  0  0  0
   47.8049    6.8988   12.1167 C   0  0  0  0  0  0  0  0  0  0  0  0
   48.8490    6.7695   14.2864 C   0  0  0  0  0  0  0  0  0  0  0  0
   47.9451    6.2704   13.3511 C   0  0  0  0  0  0  0  0  0  0  0  0
   48.7994   10.8354   11.6135 C   0  0  0  0  0  0  0  0  0  0  0  0
   53.1153    7.4693    8.8464 C   0  0  0  0  0  0  0  0  0  0  0  0
   52.7878    9.7286    9.7477 C   0  0  0  0  0  0  0  0  0  0  0  0
   51.2262   10.4745   11.6825 C   0  0  0  0  0  0  0  0  0  0  0  0
   50.0682   10.9619   11.0333 C   0  0  0  0  0  0  0  0  0  0  0  0
   52.9459    8.3370    9.9336 C   0  0  0  0  0  0  0  0  0  0  0  0
   52.5783   10.6164   10.9778 C   0  0  0  0  0  0  0  0  0  0  0  0
   48.6809   10.2431   12.8729 C   0  0  0  0  0  0  0  0  0  0  0  0
   53.1521    7.9924    7.5534 C   0  0  0  0  0  0  0  0  0  0  0  0
   47.5409   11.3065   10.9828 C   0  0  0  0  0  0  0  0  0  0  0  0
   53.2646    6.0136    9.0780 C   0  0  0  0  0  0  0  0  0  0  0  0
   52.8591   10.2627    8.4175 C   0  0  0  0  0  0  0  0  0  0  0  0
   51.0970    9.8901   12.9873 C   0  0  0  0  0  0  0  0  0  0  0  0
   49.8046    9.7826   13.5669 C   0  0  0  0  0  0  0  0  0  0  0  0
   53.0371    9.3688    7.3274 C   0  0  0  0  0  0  0  0  0  0  0  0
   46.4290   11.2614   11.4755 O   0  0  0  0  0  0  0  0  0  0  0  0
   53.2319    5.4828   10.1766 O   0  0  0  0  0  0  0  0  0  0  0  0
   50.2418   11.5917    9.8274 O   0  0  0  0  0  0  0  0  0  0  0  0
   52.9633    7.8713   11.2254 O   0  0  0  0  0  0  0  0  0  0  0  0
   47.7209   11.8181    9.7474 O   0  0  0  0  0  0  0  0  0  0  0  0
   53.4477    5.2974    7.9558 O   0  0  0  0  0  0  0  0  0  0  0  0
   52.1755    9.4078   13.7697 C   0  0  0  0  0  0  0  0  0  0  0  0
   52.7693   11.6393    8.0891 C   0  0  0  0  0  0  0  0  0  0  0  0
   49.6328    9.2176   14.8423 C   0  0  0  0  0  0  0  0  0  0  0  0
   53.1049    9.8483    6.0071 C   0  0  0  0  0  0  0  0  0  0  0  0
   52.8358   12.1043    6.7709 C   0  0  0  0  0  0  0  0  0  0  0  0
   51.9926    8.8462   15.0370 C   0  0  0  0  0  0  0  0  0  0  0  0
   53.0023   11.2075    5.7279 C   0  0  0  0  0  0  0  0  0  0  0  0
   50.7195    8.7493   15.5736 C   0  0  0  0  0  0  0  0  0  0  0  0
   51.1459    9.8252   13.1705 H   0  0  0  0  0  0  0  0  0  0  0  0
   52.6327   10.9963   11.5537 H   0  0  0  0  0  0  0  0  0  0  0  0
   51.2362   11.9049   10.9856 H   0  0  0  0  0  0  0  0  0  0  0  0
   51.1141    7.7702   10.5330 H   0  0  0  0  0  0  0  0  0  0  0  0
   52.2261    8.2218   11.8345 H   0  0  0  0  0  0  0  0  0  0  0  0
   50.2493   11.3766   14.6987 H   0  0  0  0  0  0  0  0  0  0  0  0
   48.4379   11.0072   10.7961 H   0  0  0  0  0  0  0  0  0  0  0  0
   51.6107   11.4785    8.7448 H   0  0  0  0  0  0  0  0  0  0  0  0
   53.2370   11.6455    9.4001 H   0  0  0  0  0  0  0  0  0  0  0  0
   53.8519    8.9940   10.4104 H   0  0  0  0  0  0  0  0  0  0  0  0
   53.1329    7.7113    9.4317 H   0  0  0  0  0  0  0  0  0  0  0  0
   47.0468   12.9895   11.2600 H   0  0  0  0  0  0  0  0  0  0  0  0
   48.8618   13.3623   15.1436 H   0  0  0  0  0  0  0  0  0  0  0  0
   53.5272    8.7449    7.1856 H   0  0  0  0  0  0  0  0  0  0  0  0
   53.2710   10.4436    6.9719 H   0  0  0  0  0  0  0  0  0  0  0  0
   55.2849    7.0253    4.5613 H   0  0  0  0  0  0  0  0  0  0  0  0
   50.3039    8.2785   14.7389 H   0  0  0  0  0  0  0  0  0  0  0  0
   48.4516    8.5052   10.8463 H   0  0  0  0  0  0  0  0  0  0  0  0
   55.9091    9.7851    4.2036 H   0  0  0  0  0  0  0  0  0  0  0  0
   54.4187    9.1155    4.8634 H   0  0  0  0  0  0  0  0  0  0  0  0
   55.5043    9.1610    8.6736 H   0  0  0  0  0  0  0  0  0  0  0  0
   55.1751   10.8914    8.6226 H   0  0  0  0  0  0  0  0  0  0  0  0
   55.8317    8.0331    6.7344 H   0  0  0  0  0  0  0  0  0  0  0  0
   57.2352    8.8410    6.0594 H   0  0  0  0  0  0  0  0  0  0  0  0
   47.0999    6.5119   11.3856 H   0  0  0  0  0  0  0  0  0  0  0  0
   48.9510    6.2841   15.2535 H   0  0  0  0  0  0  0  0  0  0  0  0
   47.3456    5.3953   13.5869 H   0  0  0  0  0  0  0  0  0  0  0  0
   53.4173   10.4309   11.6548 H   0  0  0  0  0  0  0  0  0  0  0  0
   52.7118   11.6780   10.7474 H   0  0  0  0  0  0  0  0  0  0  0  0
   47.6930   10.1452   13.3221 H   0  0  0  0  0  0  0  0  0  0  0  0
   53.2846    7.3207    6.7080 H   0  0  0  0  0  0  0  0  0  0  0  0
   49.3578   11.7878    9.4512 H   0  0  0  0  0  0  0  0  0  0  0  0
   53.0060    6.8911   11.2282 H   0  0  0  0  0  0  0  0  0  0  0  0
   46.8066   12.0640    9.4797 H   0  0  0  0  0  0  0  0  0  0  0  0
   53.5315    4.3714    8.2653 H   0  0  0  0  0  0  0  0  0  0  0  0
   53.1958    9.4425   13.3986 H   0  0  0  0  0  0  0  0  0  0  0  0
   52.6218   12.3905    8.8601 H   0  0  0  0  0  0  0  0  0  0  0  0
   48.6394    9.1355   15.2798 H   0  0  0  0  0  0  0  0  0  0  0  0
   53.2384    9.1575    5.1763 H   0  0  0  0  0  0  0  0  0  0  0  0
   52.7464   13.1691    6.5673 H   0  0  0  0  0  0  0  0  0  0  0  0
   52.8504    8.4803   15.5937 H   0  0  0  0  0  0  0  0  0  0  0  0
   53.0499   11.5596    4.7015 H   0  0  0  0  0  0  0  0  0  0  0  0
   50.5707    8.3089   16.5551 H   0  0  0  0  0  0  0  0  0  0  0  0
  2  1  1  0
  3 10  1  0
  4  2  1  0
  5  1  1  0
  6  1  1  0
  7  2  1  0
  8  4  2  0
  9  4  1  0
 10  5  1  0
 11  6  1  0
 12 14  2  0
 13  9  2  0
 14  8  1  0
 15 12  1  0
 16  3  1  0
 17 21  1  0
 18 22  1  0
 19  7  2  0
 20  7  1  0
 21 23  1  0
 22 16  1  0
 23 18  1  0
 24 20  2  0
 25 19  1  0
 26 25  2  0
 11  3  1  0
 13 12  1  0
 24 26  1  0
 28 32  2  0
 29 33  1  0
 30 31  1  0
 31 27  2  0
 32 29  1  0
 33 30  1  0
 34 27  1  0
 35 28  1  0
 36 27  1  0
 37 28  1  0
 38 29  2  0
 39 40  1  0
 40 34  2  0
 41 38  1  0
 42 36  2  0
 43 37  2  0
 44 31  1  0
 45 32  1  0
 46 36  1  0
 47 37  1  0
 48 39  1  0
 49 38  1  0
 50 40  1  0
 51 41  1  0
 52 49  2  0
 53 48  2  0
 54 52  1  0
 55 50  2  0
 30 39  2  0
 53 55  1  0
 35 41  2  0
 51 54  2  0
  2 56  1  1
  5 57  1  0
  5 58  1  0
  6 59  1  0
  6 60  1  0
  8 61  1  0
  9 62  1  0
 10 63  1  0
 10 64  1  0
 11 65  1  0
 11 66  1  0
 13 67  1  0
 14 68  1  0
 16 69  1  0
 16 70  1  0
 17 71  1  0
 19 72  1  0
 20 73  1  0
 21 74  1  0
 21 75  1  0
 22 76  1  0
 22 77  1  0
 23 78  1  0
 23 79  1  0
 24 80  1  0
 25 81  1  0
 26 82  1  0
 33 83  1  0
 33 84  1  0
 34 85  1  0
 35 86  1  0
 44 87  1  0
 45 88  1  0
 46 89  1  0
 47 90  1  0
 48 91  1  0
 49 92  1  0
 50 93  1  0
 51 94  1  0
 52 95  1  0
 53 96  1  0
 54 97  1  0
 55 98  1  0
M  END
> <Uni-Dock RESULT> 
ENERGY=   -5.168  LOWER_BOUND=    8.366  UPPER_BOUND=   11.081
INTER + INTRA:          -5.168
INTER:                  -5.168
INTRA:                   0.000
UNBOUND:                 0.000

$$$$

     RDKit          3D

 98103  0  0  0  0  0  0  0  0999 V2000
   48.2784   14.9519   15.6687 N   0  0  0  0  0  0  0  0  0  0  0  0
   48.3371   15.3132   14.2255 C   0  0  1  0  0  0  0  0  0  0  0  0
   48.6616   14.0222   18.3203 N   0  0  0  0  0  0  0  0  0  0  0  0
   47.0919   14.8869   13.4339 C   0  0  0  0  0  0  0  0  0  0  0  0
   48.0695   13.5101   15.8949 C   0  0  0  0  0  0  0  0  0  0  0  0
   49.5023   15.3809   16.3956 C   0  0  0  0  0  0  0  0  0  0  0  0
   48.6097   16.8034   13.9766 C   0  0  0  0  0  0  0  0  0  0  0  0
   47.2353   14.2674   12.1805 C   0  0  0  0  0  0  0  0  0  0  0  0
   45.7931   15.1292   13.9169 C   0  0  0  0  0  0  0  0  0  0  0  0
   47.8907   13.1700   17.4015 C   0  0  0  0  0  0  0  0  0  0  0  0
   49.8524   14.5637   17.6713 C   0  0  0  0  0  0  0  0  0  0  0  0
   44.8351   14.1328   11.9412 C   0  0  0  0  0  0  0  0  0  0  0  0
   44.6704   14.7486   13.1783 C   0  0  0  0  0  0  0  0  0  0  0  0
   46.1118   13.8921   11.4387 C   0  0  0  0  0  0  0  0  0  0  0  0
   43.4537   13.6682   11.0265 Cl  0  0  0  0  0  0  0  0  0  0  0  0
   48.8916   13.4222   19.6354 C   0  0  0  0  0  0  0  0  0  0  0  0
   50.1632   13.6720   24.0989 O   0  0  0  0  0  0  0  0  0  0  0  0
   49.9292   11.6674   21.0197 O   0  0  0  0  0  0  0  0  0  0  0  0
   49.5559   17.1929   13.0131 C   0  0  0  0  0  0  0  0  0  0  0  0
   47.9045   17.8070   14.6631 C   0  0  0  0  0  0  0  0  0  0  0  0
   49.5525   12.8668   23.0947 C   0  0  0  0  0  0  0  0  0  0  0  0
   49.9194   12.2776   19.7252 C   0  0  0  0  0  0  0  0  0  0  0  0
   50.5645   12.4495   22.0293 C   0  0  0  0  0  0  0  0  0  0  0  0
   48.1450   19.1568   14.4027 C   0  0  0  0  0  0  0  0  0  0  0  0
   49.7979   18.5445   12.7572 C   0  0  0  0  0  0  0  0  0  0  0  0
   49.0922   19.5250   13.4509 C   0  0  0  0  0  0  0  0  0  0  0  0
   46.3273   15.4935   14.2820 C   0  0  0  0  0  0  0  0  0  0  0  0
   50.3067   15.4306   18.9483 C   0  0  0  0  0  0  0  0  0  0  0  0
   49.0863   13.8687   17.5008 C   0  0  0  0  0  0  0  0  0  0  0  0
   48.2859   14.2345   15.0587 C   0  0  0  0  0  0  0  0  0  0  0  0
   46.9271   14.6060   15.1847 C   0  0  0  0  0  0  0  0  0  0  0  0
   50.0930   14.8408   17.6953 C   0  0  0  0  0  0  0  0  0  0  0  0
   48.8876   13.2853   16.0988 C   0  0  0  0  0  0  0  0  0  0  0  0
   47.0795   15.9970   13.2182 C   0  0  0  0  0  0  0  0  0  0  0  0
   49.5246   15.0331   20.0333 C   0  0  0  0  0  0  0  0  0  0  0  0
   44.9141   15.9407   14.3632 C   0  0  0  0  0  0  0  0  0  0  0  0
   51.3625   16.4568   19.1125 C   0  0  0  0  0  0  0  0  0  0  0  0
   48.3079   13.4418   18.6284 C   0  0  0  0  0  0  0  0  0  0  0  0
   49.0433   14.7376   13.9479 C   0  0  0  0  0  0  0  0  0  0  0  0
   48.4153   15.6253   13.0340 C   0  0  0  0  0  0  0  0  0  0  0  0
   48.5420   14.0465   19.8927 C   0  0  0  0  0  0  0  0  0  0  0  0
   44.3435   16.6680   13.5716 O   0  0  0  0  0  0  0  0  0  0  0  0
   52.0771   16.8621   18.2099 O   0  0  0  0  0  0  0  0  0  0  0  0
   46.2124   14.0374   16.2078 O   0  0  0  0  0  0  0  0  0  0  0  0
   50.8790   15.1595   16.6152 O   0  0  0  0  0  0  0  0  0  0  0  0
   44.2626   15.4602   15.4425 O   0  0  0  0  0  0  0  0  0  0  0  0
   51.4828   16.9215   20.3677 O   0  0  0  0  0  0  0  0  0  0  0  0
   50.3941   14.4093   13.6730 C   0  0  0  0  0  0  0  0  0  0  0  0
   47.3036   12.4414   18.5901 C   0  0  0  0  0  0  0  0  0  0  0  0
   49.1197   16.1410   11.9325 C   0  0  0  0  0  0  0  0  0  0  0  0
   47.7971   13.6638   21.0226 C   0  0  0  0  0  0  0  0  0  0  0  0
   46.5671   12.0707   19.7207 C   0  0  0  0  0  0  0  0  0  0  0  0
   51.0856   14.9296   12.5748 C   0  0  0  0  0  0  0  0  0  0  0  0
   46.8130   12.6838   20.9387 C   0  0  0  0  0  0  0  0  0  0  0  0
   50.4484   15.7980   11.7041 C   0  0  0  0  0  0  0  0  0  0  0  0
   49.1870   14.7525   13.8090 H   0  0  0  0  0  0  0  0  0  0  0  0
   48.9237   12.9433   15.4983 H   0  0  0  0  0  0  0  0  0  0  0  0
   47.1783   13.1380   15.3792 H   0  0  0  0  0  0  0  0  0  0  0  0
   49.3622   16.4249   16.6990 H   0  0  0  0  0  0  0  0  0  0  0  0
   50.3848   15.3406   15.7434 H   0  0  0  0  0  0  0  0  0  0  0  0
   48.2242   14.0837   11.7664 H   0  0  0  0  0  0  0  0  0  0  0  0
   45.6543   15.6088   14.8838 H   0  0  0  0  0  0  0  0  0  0  0  0
   46.8312   13.2838   17.6598 H   0  0  0  0  0  0  0  0  0  0  0  0
   48.1368   12.1095   17.5256 H   0  0  0  0  0  0  0  0  0  0  0  0
   50.5300   13.7476   17.3891 H   0  0  0  0  0  0  0  0  0  0  0  0
   50.4018   15.2183   18.3590 H   0  0  0  0  0  0  0  0  0  0  0  0
   43.6760   14.9450   13.5703 H   0  0  0  0  0  0  0  0  0  0  0  0
   46.2390   13.4155   10.4708 H   0  0  0  0  0  0  0  0  0  0  0  0
   49.2034   14.2222   20.3186 H   0  0  0  0  0  0  0  0  0  0  0  0
   47.9349   13.0752   20.0492 H   0  0  0  0  0  0  0  0  0  0  0  0
   50.4525   14.5018   23.6794 H   0  0  0  0  0  0  0  0  0  0  0  0
   50.1104   16.4451   12.4512 H   0  0  0  0  0  0  0  0  0  0  0  0
   47.1630   17.5347   15.4109 H   0  0  0  0  0  0  0  0  0  0  0  0
   49.1245   11.9799   23.5765 H   0  0  0  0  0  0  0  0  0  0  0  0
   48.7196   13.4260   22.6546 H   0  0  0  0  0  0  0  0  0  0  0  0
   50.9314   12.6132   19.4693 H   0  0  0  0  0  0  0  0  0  0  0  0
   49.6553   11.4841   19.0198 H   0  0  0  0  0  0  0  0  0  0  0  0
   51.0820   13.3245   21.6167 H   0  0  0  0  0  0  0  0  0  0  0  0
   51.3378   11.8267   22.4941 H   0  0  0  0  0  0  0  0  0  0  0  0
   47.5925   19.9198   14.9446 H   0  0  0  0  0  0  0  0  0  0  0  0
   50.5303   18.8325   12.0076 H   0  0  0  0  0  0  0  0  0  0  0  0
   49.2760   20.5761   13.2453 H   0  0  0  0  0  0  0  0  0  0  0  0
   49.8526   12.8816   15.7788 H   0  0  0  0  0  0  0  0  0  0  0  0
   48.2655   12.3849   16.1115 H   0  0  0  0  0  0  0  0  0  0  0  0
   46.6110   16.6875   12.5175 H   0  0  0  0  0  0  0  0  0  0  0  0
   49.6895   15.4889   21.0072 H   0  0  0  0  0  0  0  0  0  0  0  0
   45.3253   14.4543   16.2341 H   0  0  0  0  0  0  0  0  0  0  0  0
   51.4900   15.8907   16.8490 H   0  0  0  0  0  0  0  0  0  0  0  0
   43.3664   15.8552   15.3478 H   0  0  0  0  0  0  0  0  0  0  0  0
   52.2091   17.5776   20.3191 H   0  0  0  0  0  0  0  0  0  0  0  0
   50.9529   13.7452   14.3262 H   0  0  0  0  0  0  0  0  0  0  0  0
   47.0523   11.9353   17.6619 H   0  0  0  0  0  0  0  0  0  0  0  0
   48.6336   16.8231   11.2373 H   0  0  0  0  0  0  0  0  0  0  0  0
   47.9797   14.1334   21.9877 H   0  0  0  0  0  0  0  0  0  0  0  0
   45.7957   11.3083   19.6384 H   0  0  0  0  0  0  0  0  0  0  0  0
   52.1242   14.6564   12.4126 H   0  0  0  0  0  0  0  0  0  0  0  0
   46.2425   12.4056   21.8202 H   0  0  0  0  0  0  0  0  0  0  0  0
   50.9821   16.2097   10.8526 H   0  0  0  0  0  0  0  0  0  0  0  0
  2  1  1  0
  3 10  1  0
  4  2  1  0
  5  1  1  0
  6  1  1  0
  7  2  1  0
  8  4  2  0
  9  4  1  0
 10  5  1  0
 11  6  1  0
 12 14  2  0
 13  9  2  0
 14  8  1  0
 15 12  1  0
 16  3  1  0
 17 21  1  0
 18 22  1  0
 19  7  2  0
 20  7  1  0
 21 23  1  0
 22 16  1  0
 23 18  1  0
 24 20  2  0
 25 19  1  0
 26 25  2  0
 11  3  1  0
 13 12  1  0
 24 26  1  0
 28 32  2  0
 29 33  1  0
 30 31  1  0
 31 27  2  0
 32 29  1  0
 33 30  1  0
 34 27  1  0
 35 28  1  0
 36 27  1  0
 37 28  1  0
 38 29  2  0
 39 40  1  0
 40 34  2  0
 41 38  1  0
 42 36  2  0
 43 37  2  0
 44 31  1  0
 45 32  1  0
 46 36  1  0
 47 37  1  0
 48 39  1  0
 49 38  1  0
 50 40  1  0
 51 41  1  0
 52 49  2  0
 53 48  2  0
 54 52  1  0
 55 50  2  0
 30 39  2  0
 53 55  1  0
 35 41  2  0
 51 54  2  0
  2 56  1  1
  5 57  1  0
  5 58  1  0
  6 59  1  0
  6 60  1  0
  8 61  1  0
  9 62  1  0
 10 63  1  0
 10 64  1  0
 11 65  1  0
 11 66  1  0
 13 67  1  0
 14 68  1  0
 16 69  1  0
 16 70  1  0
 17 71  1  0
 19 72  1  0
 20 73  1  0
 21 74  1  0
 21 75  1  0
 22 76  1  0
 22 77  1  0
 23 78  1  0
 23 79  1  0
 24 80  1  0
 25 81  1  0
 26 82  1  0
 33 83  1  0
 33 84  1  0
 34 85  1  0
 35 86  1  0
 44 87  1  0
 45 88  1  0
 46 89  1  0
 47 90  1  0
 48 91  1  0
 49 92  1  0
 50 93  1  0
 51 94  1  0
 52 95  1  0
 53 96  1  0
 54 97  1  0
 55 98  1  0
M  END
> <Uni-Dock RESULT> 
ENERGY=   -5.159  LOWER_BOUND=    8.821  UPPER_BOUND=   11.809
INTER + INTRA:          -5.159
INTER:                  -5.159
INTRA:                   0.000
UNBOUND:                 0.000

$$$$

     RDKit          3D

 98103  0  0  0  0  0  0  0  0999 V2000
   49.5250    9.1104   16.0132 N   0  0  0  0  0  0  0  0  0  0  0  0
   49.7062    9.4128   14.5667 C   0  0  1  0  0  0  0  0  0  0  0  0
   48.9484    8.0597   18.5835 N   0  0  0  0  0  0  0  0  0  0  0  0
   49.1343   10.7751   14.1472 C   0  0  0  0  0  0  0  0  0  0  0  0
   48.1151    9.1609   16.4415 C   0  0  0  0  0  0  0  0  0  0  0  0
   50.0907    7.7839   16.3752 C   0  0  0  0  0  0  0  0  0  0  0  0
   51.1638    9.3090   14.0960 C   0  0  0  0  0  0  0  0  0  0  0  0
   48.3702   10.8837   12.9725 C   0  0  0  0  0  0  0  0  0  0  0  0
   49.3813   11.9401   14.8959 C   0  0  0  0  0  0  0  0  0  0  0  0
   47.9578    8.9617   17.9754 C   0  0  0  0  0  0  0  0  0  0  0  0
   49.4534    7.0921   17.6133 C   0  0  0  0  0  0  0  0  0  0  0  0
   48.1087   13.2588   13.3287 C   0  0  0  0  0  0  0  0  0  0  0  0
   48.8662   13.1744   14.4931 C   0  0  0  0  0  0  0  0  0  0  0  0
   47.8600   12.1198   12.5663 C   0  0  0  0  0  0  0  0  0  0  0  0
   47.4780   14.7791   12.8272 Cl  0  0  0  0  0  0  0  0  0  0  0  0
   48.5264    7.4902   19.8641 C   0  0  0  0  0  0  0  0  0  0  0  0
   49.3808    5.2391   23.8395 O   0  0  0  0  0  0  0  0  0  0  0  0
   47.0012    6.0413   21.1473 O   0  0  0  0  0  0  0  0  0  0  0  0
   51.4690    8.6412   12.8977 C   0  0  0  0  0  0  0  0  0  0  0  0
   52.2153    9.9035   14.8150 C   0  0  0  0  0  0  0  0  0  0  0  0
   48.4328    6.0088   23.1057 C   0  0  0  0  0  0  0  0  0  0  0  0
   47.4449    6.3930   19.8329 C   0  0  0  0  0  0  0  0  0  0  0  0
   47.9280    5.2449   21.8829 C   0  0  0  0  0  0  0  0  0  0  0  0
   53.5310    9.8238   14.3564 C   0  0  0  0  0  0  0  0  0  0  0  0
   52.7870    8.5590   12.4429 C   0  0  0  0  0  0  0  0  0  0  0  0
   53.8164    9.1508   13.1715 C   0  0  0  0  0  0  0  0  0  0  0  0
   49.8097   11.3624   15.0803 C   0  0  0  0  0  0  0  0  0  0  0  0
   50.4901    6.4152   18.6408 C   0  0  0  0  0  0  0  0  0  0  0  0
   48.7118    7.8269   17.7086 C   0  0  0  0  0  0  0  0  0  0  0  0
   48.7382    9.1949   15.5026 C   0  0  0  0  0  0  0  0  0  0  0  0
   49.0666   10.5097   15.9068 C   0  0  0  0  0  0  0  0  0  0  0  0
   49.7409    6.8722   17.5483 C   0  0  0  0  0  0  0  0  0  0  0  0
   47.9511    8.3044   16.4681 C   0  0  0  0  0  0  0  0  0  0  0  0
   50.2075   10.9139   13.8187 C   0  0  0  0  0  0  0  0  0  0  0  0
   50.1989    6.8952   19.9181 C   0  0  0  0  0  0  0  0  0  0  0  0
   50.2054   12.7456   15.4458 C   0  0  0  0  0  0  0  0  0  0  0  0
   51.5711    5.4236   18.4335 C   0  0  0  0  0  0  0  0  0  0  0  0
   48.3968    8.2914   19.0295 C   0  0  0  0  0  0  0  0  0  0  0  0
   49.1299    8.7522   14.1945 C   0  0  0  0  0  0  0  0  0  0  0  0
   49.8707    9.6347   13.3638 C   0  0  0  0  0  0  0  0  0  0  0  0
   49.1630    7.8130   20.1263 C   0  0  0  0  0  0  0  0  0  0  0  0
   50.8047   13.5330   14.7373 O   0  0  0  0  0  0  0  0  0  0  0  0
   51.8900    4.9675   17.3472 O   0  0  0  0  0  0  0  0  0  0  0  0
   48.6008   10.9268   17.1275 O   0  0  0  0  0  0  0  0  0  0  0  0
   49.9548    6.3819   16.2835 O   0  0  0  0  0  0  0  0  0  0  0  0
   49.8364   13.0945   16.6958 O   0  0  0  0  0  0  0  0  0  0  0  0
   52.1927    5.0480   19.5641 O   0  0  0  0  0  0  0  0  0  0  0  0
   48.8256    7.4825   13.6438 C   0  0  0  0  0  0  0  0  0  0  0  0
   47.3592    9.2056   19.3431 C   0  0  0  0  0  0  0  0  0  0  0  0
   50.2740    9.2421   12.0759 C   0  0  0  0  0  0  0  0  0  0  0  0
   48.8936    8.2474   21.4365 C   0  0  0  0  0  0  0  0  0  0  0  0
   47.1020    9.6325   20.6506 C   0  0  0  0  0  0  0  0  0  0  0  0
   49.2333    7.1021   12.3616 C   0  0  0  0  0  0  0  0  0  0  0  0
   47.8713    9.1540   21.6990 C   0  0  0  0  0  0  0  0  0  0  0  0
   49.9599    7.9821   11.5770 C   0  0  0  0  0  0  0  0  0  0  0  0
   49.1333    8.6460   14.0245 H   0  0  0  0  0  0  0  0  0  0  0  0
   47.5388    8.3849   15.9181 H   0  0  0  0  0  0  0  0  0  0  0  0
   47.6457   10.1196   16.1977 H   0  0  0  0  0  0  0  0  0  0  0  0
   51.1577    7.9217   16.5853 H   0  0  0  0  0  0  0  0  0  0  0  0
   50.0058    7.0761   15.5401 H   0  0  0  0  0  0  0  0  0  0  0  0
   48.1771   10.0074   12.3577 H   0  0  0  0  0  0  0  0  0  0  0  0
   49.9713   11.8838   15.8085 H   0  0  0  0  0  0  0  0  0  0  0  0
   48.0594    9.9378   18.4646 H   0  0  0  0  0  0  0  0  0  0  0  0
   46.9319    8.6209   18.1543 H   0  0  0  0  0  0  0  0  0  0  0  0
   48.6369    6.4436   17.2702 H   0  0  0  0  0  0  0  0  0  0  0  0
   50.2103    6.4449   18.0731 H   0  0  0  0  0  0  0  0  0  0  0  0
   49.0690   14.0619   15.0866 H   0  0  0  0  0  0  0  0  0  0  0  0
   47.2723   12.1877   11.6552 H   0  0  0  0  0  0  0  0  0  0  0  0
   49.4172    7.0847   20.3600 H   0  0  0  0  0  0  0  0  0  0  0  0
   48.1947    8.2987   20.5299 H   0  0  0  0  0  0  0  0  0  0  0  0
   50.1632    5.1129   23.2737 H   0  0  0  0  0  0  0  0  0  0  0  0
   50.6804    8.1817   12.3064 H   0  0  0  0  0  0  0  0  0  0  0  0
   52.0078   10.4309   15.7435 H   0  0  0  0  0  0  0  0  0  0  0  0
   47.5958    6.2511   23.7711 H   0  0  0  0  0  0  0  0  0  0  0  0
   48.8983    6.9576   22.8176 H   0  0  0  0  0  0  0  0  0  0  0  0
   47.7873    5.4936   19.3075 H   0  0  0  0  0  0  0  0  0  0  0  0
   46.5598    6.7579   19.3034 H   0  0  0  0  0  0  0  0  0  0  0  0
   48.7654    4.8988   21.2644 H   0  0  0  0  0  0  0  0  0  0  0  0
   47.4000    4.3438   22.2162 H   0  0  0  0  0  0  0  0  0  0  0  0
   54.3321   10.2870   14.9263 H   0  0  0  0  0  0  0  0  0  0  0  0
   53.0094    8.0420   11.5131 H   0  0  0  0  0  0  0  0  0  0  0  0
   54.8404    9.0927   12.8125 H   0  0  0  0  0  0  0  0  0  0  0  0
   47.5505    7.4143   15.9743 H   0  0  0  0  0  0  0  0  0  0  0  0
   47.0345    8.8428   16.7287 H   0  0  0  0  0  0  0  0  0  0  0  0
   50.7858   11.5785   13.1776 H   0  0  0  0  0  0  0  0  0  0  0  0
   50.7785    6.5409   20.7678 H   0  0  0  0  0  0  0  0  0  0  0  0
   48.9810   11.8103   17.3179 H   0  0  0  0  0  0  0  0  0  0  0  0
   50.7338    5.7854   16.2821 H   0  0  0  0  0  0  0  0  0  0  0  0
   50.1796   14.0133   16.7741 H   0  0  0  0  0  0  0  0  0  0  0  0
   52.8668    4.3999   19.2712 H   0  0  0  0  0  0  0  0  0  0  0  0
   48.2713    6.7430   14.2145 H   0  0  0  0  0  0  0  0  0  0  0  0
   46.7318    9.6296   18.5637 H   0  0  0  0  0  0  0  0  0  0  0  0
   50.8439    9.9221   11.4453 H   0  0  0  0  0  0  0  0  0  0  0  0
   49.4865    7.8790   22.2719 H   0  0  0  0  0  0  0  0  0  0  0  0
   46.3044   10.3475   20.8398 H   0  0  0  0  0  0  0  0  0  0  0  0
   48.9848    6.1130   11.9878 H   0  0  0  0  0  0  0  0  0  0  0  0
   47.6816    9.4840   22.7164 H   0  0  0  0  0  0  0  0  0  0  0  0
   50.2841    7.6902   10.5824 H   0  0  0  0  0  0  0  0  0  0  0  0
  2  1  1  0
  3 10  1  0
  4  2  1  0
  5  1  1  0
  6  1  1  0
  7  2  1  0
  8  4  2  0
  9  4  1  0
 10  5  1  0
 11  6  1  0
 12 14  2  0
 13  9  2  0
 14  8  1  0
 15 12  1  0
 16  3  1  0
 17 21  1  0
 18 22  1  0
 19  7  2  0
 20  7  1  0
 21 23  1  0
 22 16  1  0
 23 18  1  0
 24 20  2  0
 25 19  1  0
 26 25  2  0
 11  3  1  0
 13 12  1  0
 24 26  1  0
 28 32  2  0
 29 33  1  0
 30 31  1  0
 31 27  2  0
 32 29  1  0
 33 30  1  0
 34 27  1  0
 35 28  1  0
 36 27  1  0
 37 28  1  0
 38 29  2  0
 39 40  1  0
 40 34  2  0
 41 38  1  0
 42 36  2  0
 43 37  2  0
 44 31  1  0
 45 32  1  0
 46 36  1  0
 47 37  1  0
 48 39  1  0
 49 38  1  0
 50 40  1  0
 51 41  1  0
 52 49  2  0
 53 48  2  0
 54 52  1  0
 55 50  2  0
 30 39  2  0
 53 55  1  0
 35 41  2  0
 51 54  2  0
  2 56  1  1
  5 57  1  0
  5 58  1  0
  6 59  1  0
  6 60  1  0
  8 61  1  0
  9 62  1  0
 10 63  1  0
 10 64  1  0
 11 65  1  0
 11 66  1  0
 13 67  1  0
 14 68  1  0
 16 69  1  0
 16 70  1  0
 17 71  1  0
 19 72  1  0
 20 73  1  0
 21 74  1  0
 21 75  1  0
 22 76  1  0
 22 77  1  0
 23 78  1  0
 23 79  1  0
 24 80  1  0
 25 81  1  0
 26 82  1  0
 33 83  1  0
 33 84  1  0
 34 85  1  0
 35 86  1  0
 44 87  1  0
 45 88  1  0
 46 89  1  0
 47 90  1  0
 48 91  1  0
 49 92  1  0
 50 93  1  0
 51 94  1  0
 52 95  1  0
 53 96  1  0
 54 97  1  0
 55 98  1  0
M  END
> <Uni-Dock RESULT> 
ENERGY=   -5.133  LOWER_BOUND=    4.254  UPPER_BOUND=    7.849
INTER + INTRA:          -5.133
INTER:                  -5.133
INTRA:                   0.000
UNBOUND:                 0.000

$$$$

     RDKit          3D

 98103  0  0  0  0  0  0  0  0999 V2000
   50.6815   10.4871   10.8291 N   0  0  0  0  0  0  0  0  0  0  0  0
   51.5470    9.8113   11.8345 C   0  0  1  0  0  0  0  0  0  0  0  0
   49.3801   12.2067    8.9874 N   0  0  0  0  0  0  0  0  0  0  0  0
   50.7681    9.2258   13.0217 C   0  0  0  0  0  0  0  0  0  0  0  0
   49.8587   11.5654   11.4071 C   0  0  0  0  0  0  0  0  0  0  0  0
   51.4750   11.0398    9.6997 C   0  0  0  0  0  0  0  0  0  0  0  0
   52.4496    8.7236   11.2352 C   0  0  0  0  0  0  0  0  0  0  0  0
   51.2372    9.4187   14.3325 C   0  0  0  0  0  0  0  0  0  0  0  0
   49.6002    8.4645   12.8333 C   0  0  0  0  0  0  0  0  0  0  0  0
   48.8759   12.1773   10.3692 C   0  0  0  0  0  0  0  0  0  0  0  0
   50.8395   12.2472    8.9540 C   0  0  0  0  0  0  0  0  0  0  0  0
   49.3909    8.1329   15.2125 C   0  0  0  0  0  0  0  0  0  0  0  0
   48.9112    7.9263   13.9226 C   0  0  0  0  0  0  0  0  0  0  0  0
   50.5511    8.8750   15.4219 C   0  0  0  0  0  0  0  0  0  0  0  0
   48.5473    7.4660   16.5557 Cl  0  0  0  0  0  0  0  0  0  0  0  0
   48.7136   13.1901    8.1324 C   0  0  0  0  0  0  0  0  0  0  0  0
   47.7134   15.0115    3.9750 O   0  0  0  0  0  0  0  0  0  0  0  0
   48.2157   15.5402    7.5837 O   0  0  0  0  0  0  0  0  0  0  0  0
   53.8049    8.6555   11.6009 C   0  0  0  0  0  0  0  0  0  0  0  0
   51.9479    7.7542   10.3495 C   0  0  0  0  0  0  0  0  0  0  0  0
   47.3947   15.0083    5.3635 C   0  0  0  0  0  0  0  0  0  0  0  0
   49.0515   14.6761    8.3602 C   0  0  0  0  0  0  0  0  0  0  0  0
   48.5427   15.5766    6.1958 C   0  0  0  0  0  0  0  0  0  0  0  0
   52.7769    6.7551    9.8373 C   0  0  0  0  0  0  0  0  0  0  0  0
   54.6336    7.6572   11.0837 C   0  0  0  0  0  0  0  0  0  0  0  0
   54.1193    6.7077   10.2035 C   0  0  0  0  0  0  0  0  0  0  0  0
   49.9915    8.5815   12.2132 C   0  0  0  0  0  0  0  0  0  0  0  0
   50.9287   12.1967    7.3484 C   0  0  0  0  0  0  0  0  0  0  0  0
   50.0460   12.3185    9.6353 C   0  0  0  0  0  0  0  0  0  0  0  0
   50.7016   10.8717   11.6885 C   0  0  0  0  0  0  0  0  0  0  0  0
   49.7038    9.8712   11.7481 C   0  0  0  0  0  0  0  0  0  0  0  0
   51.1252   12.1702    8.7356 C   0  0  0  0  0  0  0  0  0  0  0  0
   50.3270   12.2511   11.1393 C   0  0  0  0  0  0  0  0  0  0  0  0
   51.2835    8.2880   12.6556 C   0  0  0  0  0  0  0  0  0  0  0  0
   49.6434   12.3972    6.8436 C   0  0  0  0  0  0  0  0  0  0  0  0
   49.0005    7.4787   12.2866 C   0  0  0  0  0  0  0  0  0  0  0  0
   52.0819   12.0243    6.4346 C   0  0  0  0  0  0  0  0  0  0  0  0
   48.7322   12.5565    9.1088 C   0  0  0  0  0  0  0  0  0  0  0  0
   52.0197   10.5675   12.1688 C   0  0  0  0  0  0  0  0  0  0  0  0
   52.2904    9.2589   12.6503 C   0  0  0  0  0  0  0  0  0  0  0  0
   48.5524   12.5859    7.6996 C   0  0  0  0  0  0  0  0  0  0  0  0
   49.1979    6.3631   12.7310 O   0  0  0  0  0  0  0  0  0  0  0  0
   53.2305   11.8343    6.8012 O   0  0  0  0  0  0  0  0  0  0  0  0
   48.4360   10.2242   11.3621 O   0  0  0  0  0  0  0  0  0  0  0  0
   52.3812   12.0349    9.2742 O   0  0  0  0  0  0  0  0  0  0  0  0
   47.7900    7.8142   11.7942 O   0  0  0  0  0  0  0  0  0  0  0  0
   51.7626   12.0978    5.1313 O   0  0  0  0  0  0  0  0  0  0  0  0
   53.0979   11.4860   12.2135 C   0  0  0  0  0  0  0  0  0  0  0  0
   47.5704   12.7742    9.8921 C   0  0  0  0  0  0  0  0  0  0  0  0
   53.5668    8.9184   13.1301 C   0  0  0  0  0  0  0  0  0  0  0  0
   47.2812   12.8085    7.1408 C   0  0  0  0  0  0  0  0  0  0  0  0
   46.3101   12.9924    9.3245 C   0  0  0  0  0  0  0  0  0  0  0  0
   54.3642   11.1358   12.6917 C   0  0  0  0  0  0  0  0  0  0  0  0
   46.1647   13.0081    7.9467 C   0  0  0  0  0  0  0  0  0  0  0  0
   54.5999    9.8500   13.1492 C   0  0  0  0  0  0  0  0  0  0  0  0
   52.2052   10.5940   12.2401 H   0  0  0  0  0  0  0  0  0  0  0  0
   50.5086   12.3610   11.7980 H   0  0  0  0  0  0  0  0  0  0  0  0
   49.2517   11.2136   12.2476 H   0  0  0  0  0  0  0  0  0  0  0  0
   51.6186   10.2366    8.9677 H   0  0  0  0  0  0  0  0  0  0  0  0
   52.4688   11.3642   10.0355 H   0  0  0  0  0  0  0  0  0  0  0  0
   52.1486    9.9840   14.5140 H   0  0  0  0  0  0  0  0  0  0  0  0
   49.2166    8.2988   11.8286 H   0  0  0  0  0  0  0  0  0  0  0  0
   47.9552   11.5818   10.3697 H   0  0  0  0  0  0  0  0  0  0  0  0
   48.6084   13.1778   10.7271 H   0  0  0  0  0  0  0  0  0  0  0  0
   51.2000   13.1743    9.4183 H   0  0  0  0  0  0  0  0  0  0  0  0
   51.2014   12.2409    7.9186 H   0  0  0  0  0  0  0  0  0  0  0  0
   48.0107    7.3416   13.7544 H   0  0  0  0  0  0  0  0  0  0  0  0
   50.9271    9.0317   16.4290 H   0  0  0  0  0  0  0  0  0  0  0  0
   48.9442   12.9382    7.0896 H   0  0  0  0  0  0  0  0  0  0  0  0
   47.6255   13.0569    8.2050 H   0  0  0  0  0  0  0  0  0  0  0  0
   48.4579   14.3987    3.8393 H   0  0  0  0  0  0  0  0  0  0  0  0
   54.2255    9.3789   12.2953 H   0  0  0  0  0  0  0  0  0  0  0  0
   50.9017    7.7798   10.0527 H   0  0  0  0  0  0  0  0  0  0  0  0
   46.4888   15.6079    5.5111 H   0  0  0  0  0  0  0  0  0  0  0  0
   47.1536   13.9835    5.6661 H   0  0  0  0  0  0  0  0  0  0  0  0
   50.1047   14.8951    8.1477 H   0  0  0  0  0  0  0  0  0  0  0  0
   48.8718   14.9426    9.4059 H   0  0  0  0  0  0  0  0  0  0  0  0
   49.4825   15.0560    5.9736 H   0  0  0  0  0  0  0  0  0  0  0  0
   48.7005   16.6257    5.9193 H   0  0  0  0  0  0  0  0  0  0  0  0
   52.3730    6.0151    9.1514 H   0  0  0  0  0  0  0  0  0  0  0  0
   55.6793    7.6139   11.3766 H   0  0  0  0  0  0  0  0  0  0  0  0
   54.7634    5.9270    9.8080 H   0  0  0  0  0  0  0  0  0  0  0  0
   51.0910   13.0030   11.3575 H   0  0  0  0  0  0  0  0  0  0  0  0
   49.4830   12.6161   11.7329 H   0  0  0  0  0  0  0  0  0  0  0  0
   51.5052    7.2841   13.0165 H   0  0  0  0  0  0  0  0  0  0  0  0
   49.4888   12.4192    5.7671 H   0  0  0  0  0  0  0  0  0  0  0  0
   47.8776    9.4183   11.3615 H   0  0  0  0  0  0  0  0  0  0  0  0
   53.0354   11.8687    8.5622 H   0  0  0  0  0  0  0  0  0  0  0  0
   47.2731    6.9847   11.9072 H   0  0  0  0  0  0  0  0  0  0  0  0
   52.6131   11.9705    4.6615 H   0  0  0  0  0  0  0  0  0  0  0  0
   52.9806   12.5049   11.8559 H   0  0  0  0  0  0  0  0  0  0  0  0
   47.6156   12.7575   10.9777 H   0  0  0  0  0  0  0  0  0  0  0  0
   53.7686    7.9130   13.4952 H   0  0  0  0  0  0  0  0  0  0  0  0
   47.1500   12.8269    6.0601 H   0  0  0  0  0  0  0  0  0  0  0  0
   45.4449   13.1393    9.9672 H   0  0  0  0  0  0  0  0  0  0  0  0
   55.1621   11.8727   12.6955 H   0  0  0  0  0  0  0  0  0  0  0  0
   45.1892   13.1717    7.4979 H   0  0  0  0  0  0  0  0  0  0  0  0
   55.5829    9.5706   13.5166 H   0  0  0  0  0  0  0  0  0  0  0  0
  2  1  1  0
  3 10  1  0
  4  2  1  0
  5  1  1  0
  6  1  1  0
  7  2  1  0
  8  4  2  0
  9  4  1  0
 10  5  1  0
 11  6  1  0
 12 14  2  0
 13  9  2  0
 14  8  1  0
 15 12  1  0
 16  3  1  0
 17 21  1  0
 18 22  1  0
 19  7  2  0
 20  7  1  0
 21 23  1  0
 22 16  1  0
 23 18  1  0
 24 20  2  0
 25 19  1  0
 26 25  2  0
 11  3  1  0
 13 12  1  0
 24 26  1  0
 28 32  2  0
 29 33  1  0
 30 31  1  0
 31 27  2  0
 32 29  1  0
 33 30  1  0
 34 27  1  0
 35 28  1  0
 36 27  1  0
 37 28  1  0
 38 29  2  0
 39 40  1  0
 40 34  2  0
 41 38  1  0
 42 36  2  0
 43 37  2  0
 44 31  1  0
 45 32  1  0
 46 36  1  0
 47 37  1  0
 48 39  1  0
 49 38  1  0
 50 40  1  0
 51 41  1  0
 52 49  2  0
 53 48  2  0
 54 52  1  0
 55 50  2  0
 30 39  2  0
 53 55  1  0
 35 41  2  0
 51 54  2  0
  2 56  1  1
  5 57  1  0
  5 58  1  0
  6 59  1  0
  6 60  1  0
  8 61  1  0
  9 62  1  0
 10 63  1  0
 10 64  1  0
 11 65  1  0
 11 66  1  0
 13 67  1  0
 14 68  1  0
 16 69  1  0
 16 70  1  0
 17 71  1  0
 19 72  1  0
 20 73  1  0
 21 74  1  0
 21 75  1  0
 22 76  1  0
 22 77  1  0
 23 78  1  0
 23 79  1  0
 24 80  1  0
 25 81  1  0
 26 82  1  0
 33 83  1  0
 33 84  1  0
 34 85  1  0
 35 86  1  0
 44 87  1  0
 45 88  1  0
 46 89  1  0
 47 90  1  0
 48 91  1  0
 49 92  1  0
 50 93  1  0
 51 94  1  0
 52 95  1  0
 53 96  1  0
 54 97  1  0
 55 98  1  0
M  END
> <Uni-Dock RESULT> 
ENERGY=   -4.952  LOWER_BOUND=    8.951  UPPER_BOUND=   12.888
INTER + INTRA:          -4.952
INTER:                  -4.952
INTRA:                   0.000
UNBOUND:                 0.000

$$$$
