
     RDKit          3D

 98103  0  0  0  0  0  0  0  0999 V2000
   48.3236    7.6700   16.6648 N   0  0  0  0  0  0  0  0  0  0  0  0
   49.2320    7.0256   17.6593 C   0  0  1  0  0  0  0  0  0  0  0  0
   48.8909    9.3717   14.1713 N   0  0  0  0  0  0  0  0  0  0  0  0
   48.9560    7.4676   19.1055 C   0  0  0  0  0  0  0  0  0  0  0  0
   48.4495    9.1498   16.6536 C   0  0  0  0  0  0  0  0  0  0  0  0
   48.5339    7.1321   15.2964 C   0  0  0  0  0  0  0  0  0  0  0  0
   49.2262    5.4887   17.5967 C   0  0  0  0  0  0  0  0  0  0  0  0
   47.6484    7.6025   19.6029 C   0  0  0  0  0  0  0  0  0  0  0  0
   50.0318    7.7124   19.9761 C   0  0  0  0  0  0  0  0  0  0  0  0
   49.3604    9.7054   15.5347 C   0  0  0  0  0  0  0  0  0  0  0  0
   48.1101    8.1152   14.1833 C   0  0  0  0  0  0  0  0  0  0  0  0
   48.5014    8.2319   21.7679 C   0  0  0  0  0  0  0  0  0  0  0  0
   49.8046    8.0955   21.2998 C   0  0  0  0  0  0  0  0  0  0  0  0
   47.4226    7.9863   20.9256 C   0  0  0  0  0  0  0  0  0  0  0  0
   48.2187    8.6832   23.4045 Cl  0  0  0  0  0  0  0  0  0  0  0  0
   50.0027    9.3079   13.2064 C   0  0  0  0  0  0  0  0  0  0  0  0
   51.1274   12.0551    8.8054 O   0  0  0  0  0  0  0  0  0  0  0  0
   51.8202   10.5105   12.0834 O   0  0  0  0  0  0  0  0  0  0  0  0
   50.4389    4.7811   17.5475 C   0  0  0  0  0  0  0  0  0  0  0  0
   48.0294    4.7525   17.6085 C   0  0  0  0  0  0  0  0  0  0  0  0
   51.3506   12.0167   10.2109 C   0  0  0  0  0  0  0  0  0  0  0  0
   50.7222   10.6512   12.9903 C   0  0  0  0  0  0  0  0  0  0  0  0
   51.4626   10.5735   10.7029 C   0  0  0  0  0  0  0  0  0  0  0  0
   48.0426    3.3571   17.5570 C   0  0  0  0  0  0  0  0  0  0  0  0
   50.4507    3.3856   17.4946 C   0  0  0  0  0  0  0  0  0  0  0  0
   49.2538    2.6759   17.4971 C   0  0  0  0  0  0  0  0  0  0  0  0
   52.1555    8.5372   14.2919 C   0  0  0  0  0  0  0  0  0  0  0  0
   47.9954    8.8227   18.4421 C   0  0  0  0  0  0  0  0  0  0  0  0
   48.5049    7.2564   16.6258 C   0  0  0  0  0  0  0  0  0  0  0  0
   49.7957    7.8957   14.4561 C   0  0  0  0  0  0  0  0  0  0  0  0
   51.1403    7.7649   14.8698 C   0  0  0  0  0  0  0  0  0  0  0  0
   48.1944    8.5572   17.0835 C   0  0  0  0  0  0  0  0  0  0  0  0
   48.7361    7.0284   15.1344 C   0  0  0  0  0  0  0  0  0  0  0  0
   51.8371    9.4206   13.2563 C   0  0  0  0  0  0  0  0  0  0  0  0
   48.0615    7.7722   19.3573 C   0  0  0  0  0  0  0  0  0  0  0  0
   53.5845    8.4720   14.6937 C   0  0  0  0  0  0  0  0  0  0  0  0
   47.7005   10.1645   19.0032 C   0  0  0  0  0  0  0  0  0  0  0  0
   48.5442    6.1774   17.5697 C   0  0  0  0  0  0  0  0  0  0  0  0
   49.4734    8.8053   13.3962 C   0  0  0  0  0  0  0  0  0  0  0  0
   50.5208    9.5568   12.7987 C   0  0  0  0  0  0  0  0  0  0  0  0
   48.3203    6.4616   18.9430 C   0  0  0  0  0  0  0  0  0  0  0  0
   54.5152    9.0424   14.1489 O   0  0  0  0  0  0  0  0  0  0  0  0
   47.4565   10.4169   20.1672 O   0  0  0  0  0  0  0  0  0  0  0  0
   51.4091    6.8308   15.8414 O   0  0  0  0  0  0  0  0  0  0  0  0
   48.0569    9.5453   16.1399 O   0  0  0  0  0  0  0  0  0  0  0  0
   53.7958    7.6955   15.7772 O   0  0  0  0  0  0  0  0  0  0  0  0
   47.7455   11.1487   18.0857 O   0  0  0  0  0  0  0  0  0  0  0  0
   48.1673    9.0237   12.8882 C   0  0  0  0  0  0  0  0  0  0  0  0
   48.7936    4.8208   17.2433 C   0  0  0  0  0  0  0  0  0  0  0  0
   50.2488   10.4502   11.7465 C   0  0  0  0  0  0  0  0  0  0  0  0
   48.3466    5.4363   19.9054 C   0  0  0  0  0  0  0  0  0  0  0  0
   48.8073    3.8112   18.2123 C   0  0  0  0  0  0  0  0  0  0  0  0
   47.9111    9.9118   11.8390 C   0  0  0  0  0  0  0  0  0  0  0  0
   48.5790    4.1157   19.5426 C   0  0  0  0  0  0  0  0  0  0  0  0
   48.9549   10.6215   11.2648 C   0  0  0  0  0  0  0  0  0  0  0  0
   50.2519    7.3556   17.4065 H   0  0  0  0  0  0  0  0  0  0  0  0
   48.7924    9.5491   17.6135 H   0  0  0  0  0  0  0  0  0  0  0  0
   47.4413    9.5648   16.5227 H   0  0  0  0  0  0  0  0  0  0  0  0
   47.9419    6.2182   15.1752 H   0  0  0  0  0  0  0  0  0  0  0  0
   49.5885    6.8719   15.1308 H   0  0  0  0  0  0  0  0  0  0  0  0
   46.7950    7.4140   18.9556 H   0  0  0  0  0  0  0  0  0  0  0  0
   51.0563    7.6042   19.6291 H   0  0  0  0  0  0  0  0  0  0  0  0
   50.3760    9.3226   15.7100 H   0  0  0  0  0  0  0  0  0  0  0  0
   49.4033   10.7969   15.6321 H   0  0  0  0  0  0  0  0  0  0  0  0
   47.0534    8.3775   14.3317 H   0  0  0  0  0  0  0  0  0  0  0  0
   48.1479    7.6127   13.2084 H   0  0  0  0  0  0  0  0  0  0  0  0
   50.6493    8.2778   21.9586 H   0  0  0  0  0  0  0  0  0  0  0  0
   46.4058    8.0832   21.2884 H   0  0  0  0  0  0  0  0  0  0  0  0
   49.6117    8.9856   12.2338 H   0  0  0  0  0  0  0  0  0  0  0  0
   50.7346    8.5438   13.4989 H   0  0  0  0  0  0  0  0  0  0  0  0
   51.9524   11.7711    8.3708 H   0  0  0  0  0  0  0  0  0  0  0  0
   51.3892    5.3107   17.5559 H   0  0  0  0  0  0  0  0  0  0  0  0
   47.0733    5.2678   17.6407 H   0  0  0  0  0  0  0  0  0  0  0  0
   52.2548   12.5869   10.4409 H   0  0  0  0  0  0  0  0  0  0  0  0
   50.5178   12.5322   10.6992 H   0  0  0  0  0  0  0  0  0  0  0  0
   51.1570   10.9953   13.9344 H   0  0  0  0  0  0  0  0  0  0  0  0
   50.0234   11.4240   12.6506 H   0  0  0  0  0  0  0  0  0  0  0  0
   50.5427   10.0154   10.4895 H   0  0  0  0  0  0  0  0  0  0  0  0
   52.2559   10.0679   10.1408 H   0  0  0  0  0  0  0  0  0  0  0  0
   47.1043    2.8070   17.5611 H   0  0  0  0  0  0  0  0  0  0  0  0
   51.3924    2.8506   17.4618 H   0  0  0  0  0  0  0  0  0  0  0  0
   49.2616    1.5918   17.4544 H   0  0  0  0  0  0  0  0  0  0  0  0
   49.0496    6.0017   14.9180 H   0  0  0  0  0  0  0  0  0  0  0  0
   47.7540    7.1003   14.6525 H   0  0  0  0  0  0  0  0  0  0  0  0
   52.6267   10.0168   12.8031 H   0  0  0  0  0  0  0  0  0  0  0  0
   47.9007    7.9809   20.4137 H   0  0  0  0  0  0  0  0  0  0  0  0
   52.3172    6.9902   16.1693 H   0  0  0  0  0  0  0  0  0  0  0  0
   47.9407   10.4029   16.5990 H   0  0  0  0  0  0  0  0  0  0  0  0
   54.7710    7.7581   15.8965 H   0  0  0  0  0  0  0  0  0  0  0  0
   47.5658   11.9564   18.6202 H   0  0  0  0  0  0  0  0  0  0  0  0
   47.3081    8.5191   13.3198 H   0  0  0  0  0  0  0  0  0  0  0  0
   48.9795    4.5061   16.2203 H   0  0  0  0  0  0  0  0  0  0  0  0
   51.0488   11.0263   11.2866 H   0  0  0  0  0  0  0  0  0  0  0  0
   48.1757    5.6665   20.9548 H   0  0  0  0  0  0  0  0  0  0  0  0
   49.0013    2.7843   17.9151 H   0  0  0  0  0  0  0  0  0  0  0  0
   46.8957   10.0472   11.4758 H   0  0  0  0  0  0  0  0  0  0  0  0
   48.5880    3.3315   20.2954 H   0  0  0  0  0  0  0  0  0  0  0  0
   48.7635   11.3086   10.4442 H   0  0  0  0  0  0  0  0  0  0  0  0
  2  1  1  0
  3 10  1  0
  4  2  1  0
  5  1  1  0
  6  1  1  0
  7  2  1  0
  8  4  2  0
  9  4  1  0
 10  5  1  0
 11  6  1  0
 12 14  2  0
 13  9  2  0
 14  8  1  0
 15 12  1  0
 16  3  1  0
 17 21  1  0
 18 22  1  0
 19  7  2  0
 20  7  1  0
 21 23  1  0
 22 16  1  0
 23 18  1  0
 24 20  2  0
 25 19  1  0
 26 25  2  0
 11  3  1  0
 13 12  1  0
 24 26  1  0
 28 32  2  0
 29 33  1  0
 30 31  1  0
 31 27  2  0
 32 29  1  0
 33 30  1  0
 34 27  1  0
 35 28  1  0
 36 27  1  0
 37 28  1  0
 38 29  2  0
 39 40  1  0
 40 34  2  0
 41 38  1  0
 42 36  2  0
 43 37  2  0
 44 31  1  0
 45 32  1  0
 46 36  1  0
 47 37  1  0
 48 39  1  0
 49 38  1  0
 50 40  1  0
 51 41  1  0
 52 49  2  0
 53 48  2  0
 54 52  1  0
 55 50  2  0
 30 39  2  0
 53 55  1  0
 35 41  2  0
 51 54  2  0
  2 56  1  1
  5 57  1  0
  5 58  1  0
  6 59  1  0
  6 60  1  0
  8 61  1  0
  9 62  1  0
 10 63  1  0
 10 64  1  0
 11 65  1  0
 11 66  1  0
 13 67  1  0
 14 68  1  0
 16 69  1  0
 16 70  1  0
 17 71  1  0
 19 72  1  0
 20 73  1  0
 21 74  1  0
 21 75  1  0
 22 76  1  0
 22 77  1  0
 23 78  1  0
 23 79  1  0
 24 80  1  0
 25 81  1  0
 26 82  1  0
 33 83  1  0
 33 84  1  0
 34 85  1  0
 35 86  1  0
 44 87  1  0
 45 88  1  0
 46 89  1  0
 47 90  1  0
 48 91  1  0
 49 92  1  0
 50 93  1  0
 51 94  1  0
 52 95  1  0
 53 96  1  0
 54 97  1  0
 55 98  1  0
M  END
> <Uni-Dock RESULT> 
ENERGY=   -6.694  LOWER_BOUND=    0.000  UPPER_BOUND=    0.000
INTER + INTRA:          -6.694
INTER:                  -6.694
INTRA:                   0.000
UNBOUND:                 0.000

$$$$

     RDKit          3D

 98103  0  0  0  0  0  0  0  0999 V2000
   50.4078    7.1075   15.7095 N   0  0  0  0  0  0  0  0  0  0  0  0
   50.2417    8.4305   15.0377 C   0  0  1  0  0  0  0  0  0  0  0  0
   49.6718    6.1326   18.5279 N   0  0  0  0  0  0  0  0  0  0  0  0
   51.5649    9.0146   14.5172 C   0  0  0  0  0  0  0  0  0  0  0  0
   51.2987    7.1789   16.8957 C   0  0  0  0  0  0  0  0  0  0  0  0
   49.1004    6.5150   16.0914 C   0  0  0  0  0  0  0  0  0  0  0  0
   49.2160    8.4172   13.8915 C   0  0  0  0  0  0  0  0  0  0  0  0
   52.5239    8.2166   13.8697 C   0  0  0  0  0  0  0  0  0  0  0  0
   51.8206   10.3898   14.6536 C   0  0  0  0  0  0  0  0  0  0  0  0
   50.5561    7.2858   18.2475 C   0  0  0  0  0  0  0  0  0  0  0  0
   49.2030    5.5181   17.2665 C   0  0  0  0  0  0  0  0  0  0  0  0
   53.9464   10.1347   13.5409 C   0  0  0  0  0  0  0  0  0  0  0  0
   53.0071   10.9457   14.1703 C   0  0  0  0  0  0  0  0  0  0  0  0
   53.7096    8.7730   13.3879 C   0  0  0  0  0  0  0  0  0  0  0  0
   55.3998   10.8209   12.9255 Cl  0  0  0  0  0  0  0  0  0  0  0  0
   48.5437    6.5032   19.4004 C   0  0  0  0  0  0  0  0  0  0  0  0
   47.0275    4.8887   24.2250 O   0  0  0  0  0  0  0  0  0  0  0  0
   47.8296    7.3434   21.5901 O   0  0  0  0  0  0  0  0  0  0  0  0
   48.2149    9.4009   13.8307 C   0  0  0  0  0  0  0  0  0  0  0  0
   49.2582    7.4507   12.8724 C   0  0  0  0  0  0  0  0  0  0  0  0
   47.8040    5.8695   23.5452 C   0  0  0  0  0  0  0  0  0  0  0  0
   48.9643    6.9500   20.8119 C   0  0  0  0  0  0  0  0  0  0  0  0
   47.1420    6.2657   22.2252 C   0  0  0  0  0  0  0  0  0  0  0  0
   48.3225    7.4569   11.8358 C   0  0  0  0  0  0  0  0  0  0  0  0
   47.2788    9.4052   12.7943 C   0  0  0  0  0  0  0  0  0  0  0  0
   47.3321    8.4329   11.8002 C   0  0  0  0  0  0  0  0  0  0  0  0
   47.8261    8.9053   19.0516 C   0  0  0  0  0  0  0  0  0  0  0  0
   52.4212    7.8236   15.5406 C   0  0  0  0  0  0  0  0  0  0  0  0
   50.0401    7.2420   15.4813 C   0  0  0  0  0  0  0  0  0  0  0  0
   48.5201    7.0653   17.5887 C   0  0  0  0  0  0  0  0  0  0  0  0
   48.1289    8.4097   17.7772 C   0  0  0  0  0  0  0  0  0  0  0  0
   51.3000    7.2226   16.1216 C   0  0  0  0  0  0  0  0  0  0  0  0
   48.8446    6.5917   16.1726 C   0  0  0  0  0  0  0  0  0  0  0  0
   47.8693    8.0409   20.1493 C   0  0  0  0  0  0  0  0  0  0  0  0
   52.3011    8.4149   14.2830 C   0  0  0  0  0  0  0  0  0  0  0  0
   47.4337   10.3114   19.3281 C   0  0  0  0  0  0  0  0  0  0  0  0
   53.7669    7.8749   16.1641 C   0  0  0  0  0  0  0  0  0  0  0  0
   49.9312    7.8279   14.1769 C   0  0  0  0  0  0  0  0  0  0  0  0
   48.5663    6.1833   18.7178 C   0  0  0  0  0  0  0  0  0  0  0  0
   48.2240    6.6947   19.9985 C   0  0  0  0  0  0  0  0  0  0  0  0
   51.0844    8.4164   13.5931 C   0  0  0  0  0  0  0  0  0  0  0  0
   47.0581   10.7596   20.3989 O   0  0  0  0  0  0  0  0  0  0  0  0
   54.7747    8.3288   15.6577 O   0  0  0  0  0  0  0  0  0  0  0  0
   48.0335    9.1979   16.6554 O   0  0  0  0  0  0  0  0  0  0  0  0
   51.3924    6.5575   17.3194 O   0  0  0  0  0  0  0  0  0  0  0  0
   47.5353   11.1128   18.2470 O   0  0  0  0  0  0  0  0  0  0  0  0
   53.7958    7.3750   17.4138 O   0  0  0  0  0  0  0  0  0  0  0  0
   48.9374    4.8156   18.6600 C   0  0  0  0  0  0  0  0  0  0  0  0
   48.7450    7.8723   13.4023 C   0  0  0  0  0  0  0  0  0  0  0  0
   48.2433    5.8589   21.1300 C   0  0  0  0  0  0  0  0  0  0  0  0
   51.0273    9.0012   12.3153 C   0  0  0  0  0  0  0  0  0  0  0  0
   48.7076    8.4502   12.1283 C   0  0  0  0  0  0  0  0  0  0  0  0
   48.9484    3.9947   19.7919 C   0  0  0  0  0  0  0  0  0  0  0  0
   49.8483    9.0103   11.5808 C   0  0  0  0  0  0  0  0  0  0  0  0
   48.5956    4.5170   21.0270 C   0  0  0  0  0  0  0  0  0  0  0  0
   49.8598    9.1219   15.8053 H   0  0  0  0  0  0  0  0  0  0  0  0
   52.0217    7.9981   16.8287 H   0  0  0  0  0  0  0  0  0  0  0  0
   51.9102    6.2668   16.9033 H   0  0  0  0  0  0  0  0  0  0  0  0
   48.6868    5.9746   15.2327 H   0  0  0  0  0  0  0  0  0  0  0  0
   48.3798    7.2947   16.3746 H   0  0  0  0  0  0  0  0  0  0  0  0
   52.3524    7.1501   13.7431 H   0  0  0  0  0  0  0  0  0  0  0  0
   51.0948   11.0392   15.1367 H   0  0  0  0  0  0  0  0  0  0  0  0
   49.9906    8.2287   18.2441 H   0  0  0  0  0  0  0  0  0  0  0  0
   51.3018    7.3572   19.0484 H   0  0  0  0  0  0  0  0  0  0  0  0
   49.9149    4.7269   16.9931 H   0  0  0  0  0  0  0  0  0  0  0  0
   48.2424    5.0058   17.4051 H   0  0  0  0  0  0  0  0  0  0  0  0
   53.1857   12.0116   14.2828 H   0  0  0  0  0  0  0  0  0  0  0  0
   54.4348    8.1391   12.8908 H   0  0  0  0  0  0  0  0  0  0  0  0
   47.8826    5.6357   19.5149 H   0  0  0  0  0  0  0  0  0  0  0  0
   47.9281    7.2853   18.9374 H   0  0  0  0  0  0  0  0  0  0  0  0
   46.2176    5.3273   24.5442 H   0  0  0  0  0  0  0  0  0  0  0  0
   48.1573   10.1794   14.5885 H   0  0  0  0  0  0  0  0  0  0  0  0
   50.0161    6.6722   12.8911 H   0  0  0  0  0  0  0  0  0  0  0  0
   47.9333    6.7347   24.2010 H   0  0  0  0  0  0  0  0  0  0  0  0
   48.8002    5.4508   23.3721 H   0  0  0  0  0  0  0  0  0  0  0  0
   49.6028    7.8370   20.7455 H   0  0  0  0  0  0  0  0  0  0  0  0
   49.5414    6.1683   21.3187 H   0  0  0  0  0  0  0  0  0  0  0  0
   47.0376    5.3967   21.5640 H   0  0  0  0  0  0  0  0  0  0  0  0
   46.1218    6.6098   22.4295 H   0  0  0  0  0  0  0  0  0  0  0  0
   48.3698    6.6958   11.0602 H   0  0  0  0  0  0  0  0  0  0  0  0
   46.5141   10.1718   12.7553 H   0  0  0  0  0  0  0  0  0  0  0  0
   46.6045    8.4341   10.9955 H   0  0  0  0  0  0  0  0  0  0  0  0
   47.9134    6.7454   15.6172 H   0  0  0  0  0  0  0  0  0  0  0  0
   49.0007    5.5083   16.1106 H   0  0  0  0  0  0  0  0  0  0  0  0
   47.6285    8.4242   21.1390 H   0  0  0  0  0  0  0  0  0  0  0  0
   53.1769    8.8770   13.8306 H   0  0  0  0  0  0  0  0  0  0  0  0
   47.9595   10.1291   16.9471 H   0  0  0  0  0  0  0  0  0  0  0  0
   52.2858    6.7067   17.6926 H   0  0  0  0  0  0  0  0  0  0  0  0
   47.2375   11.9828   18.5987 H   0  0  0  0  0  0  0  0  0  0  0  0
   54.7321    7.5156   17.6856 H   0  0  0  0  0  0  0  0  0  0  0  0
   49.2528    4.3611   17.7257 H   0  0  0  0  0  0  0  0  0  0  0  0
   47.8116    7.4516   13.7655 H   0  0  0  0  0  0  0  0  0  0  0  0
   47.9809    6.2474   22.1117 H   0  0  0  0  0  0  0  0  0  0  0  0
   51.9169    9.4508   11.8792 H   0  0  0  0  0  0  0  0  0  0  0  0
   47.7755    8.4597   11.5701 H   0  0  0  0  0  0  0  0  0  0  0  0
   49.2350    2.9500   19.7041 H   0  0  0  0  0  0  0  0  0  0  0  0
   49.8200    9.4579   10.5906 H   0  0  0  0  0  0  0  0  0  0  0  0
   48.5957    3.8825   21.9099 H   0  0  0  0  0  0  0  0  0  0  0  0
  2  1  1  0
  3 10  1  0
  4  2  1  0
  5  1  1  0
  6  1  1  0
  7  2  1  0
  8  4  2  0
  9  4  1  0
 10  5  1  0
 11  6  1  0
 12 14  2  0
 13  9  2  0
 14  8  1  0
 15 12  1  0
 16  3  1  0
 17 21  1  0
 18 22  1  0
 19  7  2  0
 20  7  1  0
 21 23  1  0
 22 16  1  0
 23 18  1  0
 24 20  2  0
 25 19  1  0
 26 25  2  0
 11  3  1  0
 13 12  1  0
 24 26  1  0
 28 32  2  0
 29 33  1  0
 30 31  1  0
 31 27  2  0
 32 29  1  0
 33 30  1  0
 34 27  1  0
 35 28  1  0
 36 27  1  0
 37 28  1  0
 38 29  2  0
 39 40  1  0
 40 34  2  0
 41 38  1  0
 42 36  2  0
 43 37  2  0
 44 31  1  0
 45 32  1  0
 46 36  1  0
 47 37  1  0
 48 39  1  0
 49 38  1  0
 50 40  1  0
 51 41  1  0
 52 49  2  0
 53 48  2  0
 54 52  1  0
 55 50  2  0
 30 39  2  0
 53 55  1  0
 35 41  2  0
 51 54  2  0
  2 56  1  1
  5 57  1  0
  5 58  1  0
  6 59  1  0
  6 60  1  0
  8 61  1  0
  9 62  1  0
 10 63  1  0
 10 64  1  0
 11 65  1  0
 11 66  1  0
 13 67  1  0
 14 68  1  0
 16 69  1  0
 16 70  1  0
 17 71  1  0
 19 72  1  0
 20 73  1  0
 21 74  1  0
 21 75  1  0
 22 76  1  0
 22 77  1  0
 23 78  1  0
 23 79  1  0
 24 80  1  0
 25 81  1  0
 26 82  1  0
 33 83  1  0
 33 84  1  0
 34 85  1  0
 35 86  1  0
 44 87  1  0
 45 88  1  0
 46 89  1  0
 47 90  1  0
 48 91  1  0
 49 92  1  0
 50 93  1  0
 51 94  1  0
 52 95  1  0
 53 96  1  0
 54 97  1  0
 55 98  1  0
M  END
> <Uni-Dock RESULT> 
ENERGY=   -6.504  LOWER_BOUND=    2.603  UPPER_BOUND=    7.798
INTER + INTRA:          -6.504
INTER:                  -6.504
INTRA:                   0.000
UNBOUND:                 0.000

$$$$

     RDKit          3D

 98103  0  0  0  0  0  0  0  0999 V2000
   48.1918    9.2532   17.0660 N   0  0  0  0  0  0  0  0  0  0  0  0
   48.9399    8.7504   18.2563 C   0  0  1  0  0  0  0  0  0  0  0  0
   49.1295   10.1281   14.2748 N   0  0  0  0  0  0  0  0  0  0  0  0
   48.7030    9.5937   19.5196 C   0  0  0  0  0  0  0  0  0  0  0  0
   48.5798   10.6373   16.6923 C   0  0  0  0  0  0  0  0  0  0  0  0
   48.3447    8.3499   15.8968 C   0  0  0  0  0  0  0  0  0  0  0  0
   48.6621    7.2731   18.5822 C   0  0  0  0  0  0  0  0  0  0  0  0
   47.4257   10.0666   19.8667 C   0  0  0  0  0  0  0  0  0  0  0  0
   49.7779    9.8771   20.3795 C   0  0  0  0  0  0  0  0  0  0  0  0
   49.6089   10.7242   15.5418 C   0  0  0  0  0  0  0  0  0  0  0  0
   48.1372    9.0642   14.5434 C   0  0  0  0  0  0  0  0  0  0  0  0
   48.3105   11.0902   21.8618 C   0  0  0  0  0  0  0  0  0  0  0  0
   49.5823   10.6242   21.5431 C   0  0  0  0  0  0  0  0  0  0  0  0
   47.2315   10.8140   21.0292 C   0  0  0  0  0  0  0  0  0  0  0  0
   48.0628   11.9930   23.3059 Cl  0  0  0  0  0  0  0  0  0  0  0  0
   50.2411    9.6329   13.4440 C   0  0  0  0  0  0  0  0  0  0  0  0
   51.9718   10.9131    8.5914 O   0  0  0  0  0  0  0  0  0  0  0  0
   52.2775   10.1853   12.1953 O   0  0  0  0  0  0  0  0  0  0  0  0
   49.7302    6.3880   18.8046 C   0  0  0  0  0  0  0  0  0  0  0  0
   47.3534    6.7724   18.6883 C   0  0  0  0  0  0  0  0  0  0  0  0
   52.1415   11.2066    9.9741 C   0  0  0  0  0  0  0  0  0  0  0  0
   51.1948   10.7362   12.9519 C   0  0  0  0  0  0  0  0  0  0  0  0
   51.9793    9.9437   10.8205 C   0  0  0  0  0  0  0  0  0  0  0  0
   47.1193    5.4295   18.9907 C   0  0  0  0  0  0  0  0  0  0  0  0
   49.4947    5.0447   19.1055 C   0  0  0  0  0  0  0  0  0  0  0  0
   48.1909    4.5668   19.1960 C   0  0  0  0  0  0  0  0  0  0  0  0
   52.1878    8.8294   14.8481 C   0  0  0  0  0  0  0  0  0  0  0  0
   48.0201   10.8675   18.4659 C   0  0  0  0  0  0  0  0  0  0  0  0
   48.2976    8.8198   17.1461 C   0  0  0  0  0  0  0  0  0  0  0  0
   49.7476    8.6497   14.9895 C   0  0  0  0  0  0  0  0  0  0  0  0
   51.0339    8.4123   15.5232 C   0  0  0  0  0  0  0  0  0  0  0  0
   48.2101   10.2276   17.2369 C   0  0  0  0  0  0  0  0  0  0  0  0
   48.5300    8.1757   15.7819 C   0  0  0  0  0  0  0  0  0  0  0  0
   52.0639    9.4518   13.6025 C   0  0  0  0  0  0  0  0  0  0  0  0
   47.8698   10.0961   19.6183 C   0  0  0  0  0  0  0  0  0  0  0  0
   53.5692    8.6374   15.3603 C   0  0  0  0  0  0  0  0  0  0  0  0
   47.9520   12.3387   18.6474 C   0  0  0  0  0  0  0  0  0  0  0  0
   48.1150    8.0332   18.3313 C   0  0  0  0  0  0  0  0  0  0  0  0
   49.6251    9.2913   13.7135 C   0  0  0  0  0  0  0  0  0  0  0  0
   50.8075    9.6782   13.0271 C   0  0  0  0  0  0  0  0  0  0  0  0
   47.9034    8.6987   19.5679 C   0  0  0  0  0  0  0  0  0  0  0  0
   54.6030    8.8850   14.7616 O   0  0  0  0  0  0  0  0  0  0  0  0
   47.7214   12.9226   19.6885 O   0  0  0  0  0  0  0  0  0  0  0  0
   51.1020    7.7331   16.7161 O   0  0  0  0  0  0  0  0  0  0  0  0
   48.2798   10.9440   16.0674 O   0  0  0  0  0  0  0  0  0  0  0  0
   53.6054    8.1468   16.6171 O   0  0  0  0  0  0  0  0  0  0  0  0
   48.1998   13.0281   17.5179 O   0  0  0  0  0  0  0  0  0  0  0  0
   48.3951    9.5811   13.0695 C   0  0  0  0  0  0  0  0  0  0  0  0
   48.1284    6.6166   18.3766 C   0  0  0  0  0  0  0  0  0  0  0  0
   50.7315   10.2982   11.7666 C   0  0  0  0  0  0  0  0  0  0  0  0
   47.7170    7.9702   20.7564 C   0  0  0  0  0  0  0  0  0  0  0  0
   47.9322    5.9068   19.5665 C   0  0  0  0  0  0  0  0  0  0  0  0
   48.3335   10.1942   11.8144 C   0  0  0  0  0  0  0  0  0  0  0  0
   47.7212    6.5811   20.7562 C   0  0  0  0  0  0  0  0  0  0  0  0
   49.5042   10.5480   11.1607 C   0  0  0  0  0  0  0  0  0  0  0  0
   50.0095    8.8309   18.0066 H   0  0  0  0  0  0  0  0  0  0  0  0
   48.9588   11.2112   17.5439 H   0  0  0  0  0  0  0  0  0  0  0  0
   47.6662   11.1635   16.3853 H   0  0  0  0  0  0  0  0  0  0  0  0
   47.6032    7.5461   15.9651 H   0  0  0  0  0  0  0  0  0  0  0  0
   49.3406    7.8859   15.8823 H   0  0  0  0  0  0  0  0  0  0  0  0
   46.5726    9.8586   19.2250 H   0  0  0  0  0  0  0  0  0  0  0  0
   50.7769    9.5152   20.1493 H   0  0  0  0  0  0  0  0  0  0  0  0
   50.5342   10.2390   15.8842 H   0  0  0  0  0  0  0  0  0  0  0  0
   49.8427   11.7808   15.3644 H   0  0  0  0  0  0  0  0  0  0  0  0
   47.1401    9.5261   14.5407 H   0  0  0  0  0  0  0  0  0  0  0  0
   48.1147    8.3256   13.7321 H   0  0  0  0  0  0  0  0  0  0  0  0
   50.4253   10.8307   22.1968 H   0  0  0  0  0  0  0  0  0  0  0  0
   46.2377   11.1679   21.2780 H   0  0  0  0  0  0  0  0  0  0  0  0
   49.8289    9.1368   12.5570 H   0  0  0  0  0  0  0  0  0  0  0  0
   50.8158    8.8621   13.9738 H   0  0  0  0  0  0  0  0  0  0  0  0
   52.7459   10.3939    8.3060 H   0  0  0  0  0  0  0  0  0  0  0  0
   50.7590    6.7377   18.7513 H   0  0  0  0  0  0  0  0  0  0  0  0
   46.5040    7.4282   18.5174 H   0  0  0  0  0  0  0  0  0  0  0  0
   53.1253   11.6605   10.1210 H   0  0  0  0  0  0  0  0  0  0  0  0
   51.3993   11.9612   10.2525 H   0  0  0  0  0  0  0  0  0  0  0  0
   51.6549   11.2385   13.8091 H   0  0  0  0  0  0  0  0  0  0  0  0
   50.6558   11.4975   12.3768 H   0  0  0  0  0  0  0  0  0  0  0  0
   50.9816    9.5082   10.6853 H   0  0  0  0  0  0  0  0  0  0  0  0
   52.6866    9.1857   10.4653 H   0  0  0  0  0  0  0  0  0  0  0  0
   46.0983    5.0614   19.0621 H   0  0  0  0  0  0  0  0  0  0  0  0
   50.3265    4.3725   19.2797 H   0  0  0  0  0  0  0  0  0  0  0  0
   48.0067    3.5232   19.4281 H   0  0  0  0  0  0  0  0  0  0  0  0
   48.6619    7.0911   15.8552 H   0  0  0  0  0  0  0  0  0  0  0  0
   47.5917    8.2798   15.2246 H   0  0  0  0  0  0  0  0  0  0  0  0
   52.9606    9.7710   13.0749 H   0  0  0  0  0  0  0  0  0  0  0  0
   47.7164   10.5967   20.5729 H   0  0  0  0  0  0  0  0  0  0  0  0
   52.0135    7.8212   17.0610 H   0  0  0  0  0  0  0  0  0  0  0  0
   48.3044   11.8987   16.2858 H   0  0  0  0  0  0  0  0  0  0  0  0
   54.5721    8.0772   16.7902 H   0  0  0  0  0  0  0  0  0  0  0  0
   48.1508   13.9655   17.8167 H   0  0  0  0  0  0  0  0  0  0  0  0
   47.4469    9.3549   13.5479 H   0  0  0  0  0  0  0  0  0  0  0  0
   48.2865    6.0197   17.4828 H   0  0  0  0  0  0  0  0  0  0  0  0
   51.6351   10.5948   11.2384 H   0  0  0  0  0  0  0  0  0  0  0  0
   47.5578    8.4911   21.6981 H   0  0  0  0  0  0  0  0  0  0  0  0
   47.9491    4.8205   19.5529 H   0  0  0  0  0  0  0  0  0  0  0  0
   47.3702   10.3950   11.3530 H   0  0  0  0  0  0  0  0  0  0  0  0
   47.5673    6.0301   21.6807 H   0  0  0  0  0  0  0  0  0  0  0  0
   49.4636   11.0190   10.1817 H   0  0  0  0  0  0  0  0  0  0  0  0
  2  1  1  0
  3 10  1  0
  4  2  1  0
  5  1  1  0
  6  1  1  0
  7  2  1  0
  8  4  2  0
  9  4  1  0
 10  5  1  0
 11  6  1  0
 12 14  2  0
 13  9  2  0
 14  8  1  0
 15 12  1  0
 16  3  1  0
 17 21  1  0
 18 22  1  0
 19  7  2  0
 20  7  1  0
 21 23  1  0
 22 16  1  0
 23 18  1  0
 24 20  2  0
 25 19  1  0
 26 25  2  0
 11  3  1  0
 13 12  1  0
 24 26  1  0
 28 32  2  0
 29 33  1  0
 30 31  1  0
 31 27  2  0
 32 29  1  0
 33 30  1  0
 34 27  1  0
 35 28  1  0
 36 27  1  0
 37 28  1  0
 38 29  2  0
 39 40  1  0
 40 34  2  0
 41 38  1  0
 42 36  2  0
 43 37  2  0
 44 31  1  0
 45 32  1  0
 46 36  1  0
 47 37  1  0
 48 39  1  0
 49 38  1  0
 50 40  1  0
 51 41  1  0
 52 49  2  0
 53 48  2  0
 54 52  1  0
 55 50  2  0
 30 39  2  0
 53 55  1  0
 35 41  2  0
 51 54  2  0
  2 56  1  1
  5 57  1  0
  5 58  1  0
  6 59  1  0
  6 60  1  0
  8 61  1  0
  9 62  1  0
 10 63  1  0
 10 64  1  0
 11 65  1  0
 11 66  1  0
 13 67  1  0
 14 68  1  0
 16 69  1  0
 16 70  1  0
 17 71  1  0
 19 72  1  0
 20 73  1  0
 21 74  1  0
 21 75  1  0
 22 76  1  0
 22 77  1  0
 23 78  1  0
 23 79  1  0
 24 80  1  0
 25 81  1  0
 26 82  1  0
 33 83  1  0
 33 84  1  0
 34 85  1  0
 35 86  1  0
 44 87  1  0
 45 88  1  0
 46 89  1  0
 47 90  1  0
 48 91  1  0
 49 92  1  0
 50 93  1  0
 51 94  1  0
 52 95  1  0
 53 96  1  0
 54 97  1  0
 55 98  1  0
M  END
> <Uni-Dock RESULT> 
ENERGY=   -6.082  LOWER_BOUND=    1.317  UPPER_BOUND=    1.824
INTER + INTRA:          -6.082
INTER:                  -6.082
INTRA:                   0.000
UNBOUND:                 0.000

$$$$

     RDKit          3D

 98103  0  0  0  0  0  0  0  0999 V2000
   49.1471    9.1988   11.8368 N   0  0  0  0  0  0  0  0  0  0  0  0
   49.5698   10.5839   12.2004 C   0  0  1  0  0  0  0  0  0  0  0  0
   48.6106    6.7039   13.5464 N   0  0  0  0  0  0  0  0  0  0  0  0
   50.8599   11.0278   11.4921 C   0  0  0  0  0  0  0  0  0  0  0  0
   50.1644    8.1792   12.1993 C   0  0  0  0  0  0  0  0  0  0  0  0
   47.8368    8.8458   12.4408 C   0  0  0  0  0  0  0  0  0  0  0  0
   48.4806   11.6442   11.9655 C   0  0  0  0  0  0  0  0  0  0  0  0
   51.0938   10.7496   10.1344 C   0  0  0  0  0  0  0  0  0  0  0  0
   51.8251   11.7640   12.2003 C   0  0  0  0  0  0  0  0  0  0  0  0
   49.8897    7.4483   13.5337 C   0  0  0  0  0  0  0  0  0  0  0  0
   47.6384    7.3247   12.6202 C   0  0  0  0  0  0  0  0  0  0  0  0
   53.2101   11.8999   10.2290 C   0  0  0  0  0  0  0  0  0  0  0  0
   52.9955   12.1950   11.5718 C   0  0  0  0  0  0  0  0  0  0  0  0
   52.2642   11.1799    9.5076 C   0  0  0  0  0  0  0  0  0  0  0  0
   54.6416   12.4481    9.4467 Cl  0  0  0  0  0  0  0  0  0  0  0  0
   48.0584    6.5813   14.9070 C   0  0  0  0  0  0  0  0  0  0  0  0
   46.9577    2.4062   17.9955 O   0  0  0  0  0  0  0  0  0  0  0  0
   48.3683    5.7163   17.1801 O   0  0  0  0  0  0  0  0  0  0  0  0
   48.1631   12.5644   12.9785 C   0  0  0  0  0  0  0  0  0  0  0  0
   47.7935   11.7407   10.7436 C   0  0  0  0  0  0  0  0  0  0  0  0
   47.9741    3.3521   17.6807 C   0  0  0  0  0  0  0  0  0  0  0  0
   48.9335    5.7544   15.8658 C   0  0  0  0  0  0  0  0  0  0  0  0
   47.3646    4.7187   17.3666 C   0  0  0  0  0  0  0  0  0  0  0  0
   46.8113   12.7133   10.5453 C   0  0  0  0  0  0  0  0  0  0  0  0
   47.1796   13.5357   12.7796 C   0  0  0  0  0  0  0  0  0  0  0  0
   46.5039   13.6077   11.5652 C   0  0  0  0  0  0  0  0  0  0  0  0
   48.6639    8.5657   16.3570 C   0  0  0  0  0  0  0  0  0  0  0  0
   51.1482    9.3121   11.0766 C   0  0  0  0  0  0  0  0  0  0  0  0
   48.8680    9.5377   11.9492 C   0  0  0  0  0  0  0  0  0  0  0  0
   47.9602    8.2602   14.0292 C   0  0  0  0  0  0  0  0  0  0  0  0
   48.3871    9.0914   15.0888 C   0  0  0  0  0  0  0  0  0  0  0  0
   50.0280    8.7660   11.7113 C   0  0  0  0  0  0  0  0  0  0  0  0
   47.6835    8.8974   12.6682 C   0  0  0  0  0  0  0  0  0  0  0  0
   48.4705    7.2007   16.5884 C   0  0  0  0  0  0  0  0  0  0  0  0
   51.1008   10.6329   10.6305 C   0  0  0  0  0  0  0  0  0  0  0  0
   49.1408    9.3738   17.5091 C   0  0  0  0  0  0  0  0  0  0  0  0
   52.4127    8.5784   10.8218 C   0  0  0  0  0  0  0  0  0  0  0  0
   48.8173   10.8862   11.4635 C   0  0  0  0  0  0  0  0  0  0  0  0
   47.7665    6.8605   14.2701 C   0  0  0  0  0  0  0  0  0  0  0  0
   48.0203    6.3497   15.5715 C   0  0  0  0  0  0  0  0  0  0  0  0
   49.9567   11.4186   10.8036 C   0  0  0  0  0  0  0  0  0  0  0  0
   49.2903    8.9813   18.6546 O   0  0  0  0  0  0  0  0  0  0  0  0
   53.3772    9.0016   10.2147 O   0  0  0  0  0  0  0  0  0  0  0  0
   48.4923   10.4365   14.8271 O   0  0  0  0  0  0  0  0  0  0  0  0
   50.0012    7.4469   12.0920 O   0  0  0  0  0  0  0  0  0  0  0  0
   49.4235   10.6517   17.1796 O   0  0  0  0  0  0  0  0  0  0  0  0
   52.4316    7.3443   11.3596 O   0  0  0  0  0  0  0  0  0  0  0  0
   47.3377    5.9245   13.2946 C   0  0  0  0  0  0  0  0  0  0  0  0
   47.7034   11.7536   11.5884 C   0  0  0  0  0  0  0  0  0  0  0  0
   47.8294    4.9847   15.8531 C   0  0  0  0  0  0  0  0  0  0  0  0
   49.9536   12.7348   10.3081 C   0  0  0  0  0  0  0  0  0  0  0  0
   47.7137   13.0579   11.0814 C   0  0  0  0  0  0  0  0  0  0  0  0
   47.1479    4.5707   13.5887 C   0  0  0  0  0  0  0  0  0  0  0  0
   48.8352   13.5487   10.4366 C   0  0  0  0  0  0  0  0  0  0  0  0
   47.3894    4.1025   14.8714 C   0  0  0  0  0  0  0  0  0  0  0  0
   49.7797   10.5699   13.2815 H   0  0  0  0  0  0  0  0  0  0  0  0
   51.1786    8.5903   12.2287 H   0  0  0  0  0  0  0  0  0  0  0  0
   50.1877    7.4359   11.3913 H   0  0  0  0  0  0  0  0  0  0  0  0
   47.0328    9.2113   11.7924 H   0  0  0  0  0  0  0  0  0  0  0  0
   47.7140    9.3187   13.4249 H   0  0  0  0  0  0  0  0  0  0  0  0
   50.3630   10.1873    9.5577 H   0  0  0  0  0  0  0  0  0  0  0  0
   51.6707   12.0092   13.2481 H   0  0  0  0  0  0  0  0  0  0  0  0
   49.9214    8.1978   14.3376 H   0  0  0  0  0  0  0  0  0  0  0  0
   50.7076    6.7410   13.7167 H   0  0  0  0  0  0  0  0  0  0  0  0
   47.7501    6.8392   11.6407 H   0  0  0  0  0  0  0  0  0  0  0  0
   46.6057    7.1177   12.9282 H   0  0  0  0  0  0  0  0  0  0  0  0
   53.7288   12.7655   12.1352 H   0  0  0  0  0  0  0  0  0  0  0  0
   52.4234   10.9551    8.4593 H   0  0  0  0  0  0  0  0  0  0  0  0
   47.0796    6.0900   14.8508 H   0  0  0  0  0  0  0  0  0  0  0  0
   47.8685    7.5696   15.3455 H   0  0  0  0  0  0  0  0  0  0  0  0
   46.5886    2.6523   18.8635 H   0  0  0  0  0  0  0  0  0  0  0  0
   48.6840   12.5377   13.9333 H   0  0  0  0  0  0  0  0  0  0  0  0
   48.0102   11.0418    9.9402 H   0  0  0  0  0  0  0  0  0  0  0  0
   48.6736    3.4115   18.5189 H   0  0  0  0  0  0  0  0  0  0  0  0
   48.5374    2.9697   16.8239 H   0  0  0  0  0  0  0  0  0  0  0  0
   49.9139    6.2291   15.9762 H   0  0  0  0  0  0  0  0  0  0  0  0
   49.1009    4.7438   15.4764 H   0  0  0  0  0  0  0  0  0  0  0  0
   46.6825    4.6548   16.5100 H   0  0  0  0  0  0  0  0  0  0  0  0
   46.7486    5.0357   18.2158 H   0  0  0  0  0  0  0  0  0  0  0  0
   46.2874   12.7665    9.5936 H   0  0  0  0  0  0  0  0  0  0  0  0
   46.9468   14.2431   13.5666 H   0  0  0  0  0  0  0  0  0  0  0  0
   45.7385   14.3608   11.4100 H   0  0  0  0  0  0  0  0  0  0  0  0
   46.8828    9.6178   12.8658 H   0  0  0  0  0  0  0  0  0  0  0  0
   47.2270    8.2002   11.9559 H   0  0  0  0  0  0  0  0  0  0  0  0
   48.6800    6.7927   17.5753 H   0  0  0  0  0  0  0  0  0  0  0  0
   51.9722   11.0537   10.1317 H   0  0  0  0  0  0  0  0  0  0  0  0
   48.9837   10.8495   15.5657 H   0  0  0  0  0  0  0  0  0  0  0  0
   50.8931    7.0641   11.9587 H   0  0  0  0  0  0  0  0  0  0  0  0
   49.7108   11.0343   18.0401 H   0  0  0  0  0  0  0  0  0  0  0  0
   53.3332    7.0189   11.1325 H   0  0  0  0  0  0  0  0  0  0  0  0
   47.1636    6.2286   12.2669 H   0  0  0  0  0  0  0  0  0  0  0  0
   46.7879   11.4377   12.0806 H   0  0  0  0  0  0  0  0  0  0  0  0
   48.0221    4.5909   16.8487 H   0  0  0  0  0  0  0  0  0  0  0  0
   50.8331   13.1325    9.8061 H   0  0  0  0  0  0  0  0  0  0  0  0
   46.8354   13.6867   11.1990 H   0  0  0  0  0  0  0  0  0  0  0  0
   46.8139    3.8866   12.8131 H   0  0  0  0  0  0  0  0  0  0  0  0
   48.8430   14.5614   10.0412 H   0  0  0  0  0  0  0  0  0  0  0  0
   47.2374    3.0523   15.1084 H   0  0  0  0  0  0  0  0  0  0  0  0
  2  1  1  0
  3 10  1  0
  4  2  1  0
  5  1  1  0
  6  1  1  0
  7  2  1  0
  8  4  2  0
  9  4  1  0
 10  5  1  0
 11  6  1  0
 12 14  2  0
 13  9  2  0
 14  8  1  0
 15 12  1  0
 16  3  1  0
 17 21  1  0
 18 22  1  0
 19  7  2  0
 20  7  1  0
 21 23  1  0
 22 16  1  0
 23 18  1  0
 24 20  2  0
 25 19  1  0
 26 25  2  0
 11  3  1  0
 13 12  1  0
 24 26  1  0
 28 32  2  0
 29 33  1  0
 30 31  1  0
 31 27  2  0
 32 29  1  0
 33 30  1  0
 34 27  1  0
 35 28  1  0
 36 27  1  0
 37 28  1  0
 38 29  2  0
 39 40  1  0
 40 34  2  0
 41 38  1  0
 42 36  2  0
 43 37  2  0
 44 31  1  0
 45 32  1  0
 46 36  1  0
 47 37  1  0
 48 39  1  0
 49 38  1  0
 50 40  1  0
 51 41  1  0
 52 49  2  0
 53 48  2  0
 54 52  1  0
 55 50  2  0
 30 39  2  0
 53 55  1  0
 35 41  2  0
 51 54  2  0
  2 56  1  1
  5 57  1  0
  5 58  1  0
  6 59  1  0
  6 60  1  0
  8 61  1  0
  9 62  1  0
 10 63  1  0
 10 64  1  0
 11 65  1  0
 11 66  1  0
 13 67  1  0
 14 68  1  0
 16 69  1  0
 16 70  1  0
 17 71  1  0
 19 72  1  0
 20 73  1  0
 21 74  1  0
 21 75  1  0
 22 76  1  0
 22 77  1  0
 23 78  1  0
 23 79  1  0
 24 80  1  0
 25 81  1  0
 26 82  1  0
 33 83  1  0
 33 84  1  0
 34 85  1  0
 35 86  1  0
 44 87  1  0
 45 88  1  0
 46 89  1  0
 47 90  1  0
 48 91  1  0
 49 92  1  0
 50 93  1  0
 51 94  1  0
 52 95  1  0
 53 96  1  0
 54 97  1  0
 55 98  1  0
M  END
> <Uni-Dock RESULT> 
ENERGY=   -5.710  LOWER_BOUND=    3.133  UPPER_BOUND=    8.476
INTER + INTRA:          -5.710
INTER:                  -5.710
INTRA:                   0.000
UNBOUND:                 0.000

$$$$

     RDKit          3D

 98103  0  0  0  0  0  0  0  0999 V2000
   48.9325    7.9829   19.2803 N   0  0  0  0  0  0  0  0  0  0  0  0
   49.6652    6.8261   18.6852 C   0  0  1  0  0  0  0  0  0  0  0  0
   48.8005   10.9494   18.4945 N   0  0  0  0  0  0  0  0  0  0  0  0
   50.5919    6.1177   19.6866 C   0  0  0  0  0  0  0  0  0  0  0  0
   49.8476    9.0392   19.7829 C   0  0  0  0  0  0  0  0  0  0  0  0
   47.9574    8.5684   18.3249 C   0  0  0  0  0  0  0  0  0  0  0  0
   48.7447    5.7817   18.0311 C   0  0  0  0  0  0  0  0  0  0  0  0
   50.1948    5.8598   21.0100 C   0  0  0  0  0  0  0  0  0  0  0  0
   51.8605    5.6783   19.2709 C   0  0  0  0  0  0  0  0  0  0  0  0
   50.0512   10.2242   18.8110 C   0  0  0  0  0  0  0  0  0  0  0  0
   47.6325   10.0497   18.6167 C   0  0  0  0  0  0  0  0  0  0  0  0
   52.3005    4.7787   21.4662 C   0  0  0  0  0  0  0  0  0  0  0  0
   52.7111    5.0148   20.1578 C   0  0  0  0  0  0  0  0  0  0  0  0
   51.0461    5.1975   21.8957 C   0  0  0  0  0  0  0  0  0  0  0  0
   53.3384    3.9425   22.5550 Cl  0  0  0  0  0  0  0  0  0  0  0  0
   48.8548   11.5874   17.1673 C   0  0  0  0  0  0  0  0  0  0  0  0
   48.5468   16.6420   15.5744 O   0  0  0  0  0  0  0  0  0  0  0  0
   49.9547   13.2351   15.7230 O   0  0  0  0  0  0  0  0  0  0  0  0
   49.0167    5.3174   16.7334 C   0  0  0  0  0  0  0  0  0  0  0  0
   47.6327    5.2499   18.7058 C   0  0  0  0  0  0  0  0  0  0  0  0
   49.4652   15.6229   15.9552 C   0  0  0  0  0  0  0  0  0  0  0  0
   49.9191   12.6926   17.0469 C   0  0  0  0  0  0  0  0  0  0  0  0
   48.9867   14.2536   15.4720 C   0  0  0  0  0  0  0  0  0  0  0  0
   46.8108    4.2979   18.0991 C   0  0  0  0  0  0  0  0  0  0  0  0
   48.1930    4.3664   16.1271 C   0  0  0  0  0  0  0  0  0  0  0  0
   47.0908    3.8598   16.8090 C   0  0  0  0  0  0  0  0  0  0  0  0
   50.2920   10.2790   15.5459 C   0  0  0  0  0  0  0  0  0  0  0  0
   50.4271    7.5441   20.7530 C   0  0  0  0  0  0  0  0  0  0  0  0
   48.7784    7.7179   18.9465 C   0  0  0  0  0  0  0  0  0  0  0  0
   48.6453    9.7046   17.2679 C   0  0  0  0  0  0  0  0  0  0  0  0
   49.5915    9.3222   16.2909 C   0  0  0  0  0  0  0  0  0  0  0  0
   49.6073    8.3155   19.9230 C   0  0  0  0  0  0  0  0  0  0  0  0
   47.9223    8.6096   18.0511 C   0  0  0  0  0  0  0  0  0  0  0  0
   50.0160   11.6352   15.7427 C   0  0  0  0  0  0  0  0  0  0  0  0
   50.3910    6.1541   20.6430 C   0  0  0  0  0  0  0  0  0  0  0  0
   51.3182    9.9516   14.5224 C   0  0  0  0  0  0  0  0  0  0  0  0
   51.3481    8.0978   21.7764 C   0  0  0  0  0  0  0  0  0  0  0  0
   48.7269    6.2873   18.8582 C   0  0  0  0  0  0  0  0  0  0  0  0
   48.3679   11.0965   17.4688 C   0  0  0  0  0  0  0  0  0  0  0  0
   49.0639   12.0524   16.6810 C   0  0  0  0  0  0  0  0  0  0  0  0
   49.5514    5.5188   19.7222 C   0  0  0  0  0  0  0  0  0  0  0  0
   51.8729   10.7418   13.7765 O   0  0  0  0  0  0  0  0  0  0  0  0
   52.0219    7.4544   22.5575 O   0  0  0  0  0  0  0  0  0  0  0  0
   49.7727    7.9752   16.0871 O   0  0  0  0  0  0  0  0  0  0  0  0
   49.5496    9.6813   20.0539 O   0  0  0  0  0  0  0  0  0  0  0  0
   51.6208    8.6371   14.4763 O   0  0  0  0  0  0  0  0  0  0  0  0
   51.4095    9.4427   21.7678 O   0  0  0  0  0  0  0  0  0  0  0  0
   47.4399   11.6075   18.4118 C   0  0  0  0  0  0  0  0  0  0  0  0
   47.9062    5.5574   17.9624 C   0  0  0  0  0  0  0  0  0  0  0  0
   48.8111   13.4274   16.8374 C   0  0  0  0  0  0  0  0  0  0  0  0
   49.5339    4.1132   19.6743 C   0  0  0  0  0  0  0  0  0  0  0  0
   47.8941    4.1583   17.9339 C   0  0  0  0  0  0  0  0  0  0  0  0
   47.1949   12.9768   18.5544 C   0  0  0  0  0  0  0  0  0  0  0  0
   48.7028    3.4344   18.7921 C   0  0  0  0  0  0  0  0  0  0  0  0
   47.8783   13.8866   17.7619 C   0  0  0  0  0  0  0  0  0  0  0  0
   50.3024    7.2400   17.8880 H   0  0  0  0  0  0  0  0  0  0  0  0
   50.8296    8.6449   20.0634 H   0  0  0  0  0  0  0  0  0  0  0  0
   49.4231    9.4237   20.7198 H   0  0  0  0  0  0  0  0  0  0  0  0
   47.0190    8.0056   18.3800 H   0  0  0  0  0  0  0  0  0  0  0  0
   48.3267    8.5028   17.2921 H   0  0  0  0  0  0  0  0  0  0  0  0
   49.2167    6.1818   21.3600 H   0  0  0  0  0  0  0  0  0  0  0  0
   52.1947    5.8485   18.2504 H   0  0  0  0  0  0  0  0  0  0  0  0
   50.5242    9.8310   17.8996 H   0  0  0  0  0  0  0  0  0  0  0  0
   50.7581   10.9285   19.2658 H   0  0  0  0  0  0  0  0  0  0  0  0
   47.2534   10.1289   19.6450 H   0  0  0  0  0  0  0  0  0  0  0  0
   46.8044   10.3820   17.9780 H   0  0  0  0  0  0  0  0  0  0  0  0
   53.6872    4.6803   19.8171 H   0  0  0  0  0  0  0  0  0  0  0  0
   50.7189    5.0082   22.9116 H   0  0  0  0  0  0  0  0  0  0  0  0
   47.8816   12.0450   16.9525 H   0  0  0  0  0  0  0  0  0  0  0  0
   49.0114   10.8410   16.3777 H   0  0  0  0  0  0  0  0  0  0  0  0
   48.6137   16.7490   14.6079 H   0  0  0  0  0  0  0  0  0  0  0  0
   49.8783    5.6882   16.1823 H   0  0  0  0  0  0  0  0  0  0  0  0
   47.3902    5.5904   19.7088 H   0  0  0  0  0  0  0  0  0  0  0  0
   50.4510   15.8659   15.5495 H   0  0  0  0  0  0  0  0  0  0  0  0
   49.5574   15.6418   17.0456 H   0  0  0  0  0  0  0  0  0  0  0  0
   50.9139   12.2706   17.2234 H   0  0  0  0  0  0  0  0  0  0  0  0
   49.7595   13.4785   17.7936 H   0  0  0  0  0  0  0  0  0  0  0  0
   48.0081   14.0074   15.9022 H   0  0  0  0  0  0  0  0  0  0  0  0
   48.8345   14.2937   14.3874 H   0  0  0  0  0  0  0  0  0  0  0  0
   45.9516    3.9038   18.6371 H   0  0  0  0  0  0  0  0  0  0  0  0
   48.4155    4.0123   15.1275 H   0  0  0  0  0  0  0  0  0  0  0  0
   46.4492    3.1223   16.3385 H   0  0  0  0  0  0  0  0  0  0  0  0
   47.3915    8.0357   17.2843 H   0  0  0  0  0  0  0  0  0  0  0  0
   47.1140    8.9990   18.6812 H   0  0  0  0  0  0  0  0  0  0  0  0
   50.5561   12.3788   15.1599 H   0  0  0  0  0  0  0  0  0  0  0  0
   51.0261    5.5559   21.2942 H   0  0  0  0  0  0  0  0  0  0  0  0
   50.5818    7.8582   15.5493 H   0  0  0  0  0  0  0  0  0  0  0  0
   50.2384    9.9643   20.6905 H   0  0  0  0  0  0  0  0  0  0  0  0
   52.2931    8.5989   13.7582 H   0  0  0  0  0  0  0  0  0  0  0  0
   52.0762    9.6372   22.4665 H   0  0  0  0  0  0  0  0  0  0  0  0
   46.8994   10.9440   19.0800 H   0  0  0  0  0  0  0  0  0  0  0  0
   47.2442    6.0570   17.2608 H   0  0  0  0  0  0  0  0  0  0  0  0
   49.3419   14.1616   16.2351 H   0  0  0  0  0  0  0  0  0  0  0  0
   50.1714    3.5351   20.3398 H   0  0  0  0  0  0  0  0  0  0  0  0
   47.2469    3.6411   17.2309 H   0  0  0  0  0  0  0  0  0  0  0  0
   46.4721   13.3273   19.2864 H   0  0  0  0  0  0  0  0  0  0  0  0
   48.6926    2.3475   18.7713 H   0  0  0  0  0  0  0  0  0  0  0  0
   47.6877   14.9522   17.8631 H   0  0  0  0  0  0  0  0  0  0  0  0
  2  1  1  0
  3 10  1  0
  4  2  1  0
  5  1  1  0
  6  1  1  0
  7  2  1  0
  8  4  2  0
  9  4  1  0
 10  5  1  0
 11  6  1  0
 12 14  2  0
 13  9  2  0
 14  8  1  0
 15 12  1  0
 16  3  1  0
 17 21  1  0
 18 22  1  0
 19  7  2  0
 20  7  1  0
 21 23  1  0
 22 16  1  0
 23 18  1  0
 24 20  2  0
 25 19  1  0
 26 25  2  0
 11  3  1  0
 13 12  1  0
 24 26  1  0
 28 32  2  0
 29 33  1  0
 30 31  1  0
 31 27  2  0
 32 29  1  0
 33 30  1  0
 34 27  1  0
 35 28  1  0
 36 27  1  0
 37 28  1  0
 38 29  2  0
 39 40  1  0
 40 34  2  0
 41 38  1  0
 42 36  2  0
 43 37  2  0
 44 31  1  0
 45 32  1  0
 46 36  1  0
 47 37  1  0
 48 39  1  0
 49 38  1  0
 50 40  1  0
 51 41  1  0
 52 49  2  0
 53 48  2  0
 54 52  1  0
 55 50  2  0
 30 39  2  0
 53 55  1  0
 35 41  2  0
 51 54  2  0
  2 56  1  1
  5 57  1  0
  5 58  1  0
  6 59  1  0
  6 60  1  0
  8 61  1  0
  9 62  1  0
 10 63  1  0
 10 64  1  0
 11 65  1  0
 11 66  1  0
 13 67  1  0
 14 68  1  0
 16 69  1  0
 16 70  1  0
 17 71  1  0
 19 72  1  0
 20 73  1  0
 21 74  1  0
 21 75  1  0
 22 76  1  0
 22 77  1  0
 23 78  1  0
 23 79  1  0
 24 80  1  0
 25 81  1  0
 26 82  1  0
 33 83  1  0
 33 84  1  0
 34 85  1  0
 35 86  1  0
 44 87  1  0
 45 88  1  0
 46 89  1  0
 47 90  1  0
 48 91  1  0
 49 92  1  0
 50 93  1  0
 51 94  1  0
 52 95  1  0
 53 96  1  0
 54 97  1  0
 55 98  1  0
M  END
> <Uni-Dock RESULT> 
ENERGY=   -5.350  LOWER_BOUND=    2.731  UPPER_BOUND=    4.168
INTER + INTRA:          -5.350
INTER:                  -5.350
INTRA:                   0.000
UNBOUND:                 0.000

$$$$

     RDKit          3D

 98103  0  0  0  0  0  0  0  0999 V2000
   48.5721   14.4179   17.7266 N   0  0  0  0  0  0  0  0  0  0  0  0
   49.1577   13.3429   18.5814 C   0  0  1  0  0  0  0  0  0  0  0  0
   48.8098   15.0045   14.7208 N   0  0  0  0  0  0  0  0  0  0  0  0
   49.9874   13.8885   19.7550 C   0  0  0  0  0  0  0  0  0  0  0  0
   49.6096   15.2808   17.1061 C   0  0  0  0  0  0  0  0  0  0  0  0
   47.6793   13.8630   16.6773 C   0  0  0  0  0  0  0  0  0  0  0  0
   48.1168   12.3493   19.1245 C   0  0  0  0  0  0  0  0  0  0  0  0
   49.5582   14.9877   20.5187 C   0  0  0  0  0  0  0  0  0  0  0  0
   51.1929   13.2582   20.1080 C   0  0  0  0  0  0  0  0  0  0  0  0
   49.9605   14.9099   15.6467 C   0  0  0  0  0  0  0  0  0  0  0  0
   47.5392   14.7847   15.4461 C   0  0  0  0  0  0  0  0  0  0  0  0
   51.5130   14.8200   21.9192 C   0  0  0  0  0  0  0  0  0  0  0  0
   51.9528   13.7242   21.1830 C   0  0  0  0  0  0  0  0  0  0  0  0
   50.3190   15.4531   21.5922 C   0  0  0  0  0  0  0  0  0  0  0  0
   52.4369   15.3830   23.2576 Cl  0  0  0  0  0  0  0  0  0  0  0  0
   48.9457   14.0846   13.5778 C   0  0  0  0  0  0  0  0  0  0  0  0
   49.2687   14.8599    8.3361 O   0  0  0  0  0  0  0  0  0  0  0  0
   50.2443   13.4430   11.5998 O   0  0  0  0  0  0  0  0  0  0  0  0
   48.3325   10.9664   19.0026 C   0  0  0  0  0  0  0  0  0  0  0  0
   46.9460   12.7831   19.7691 C   0  0  0  0  0  0  0  0  0  0  0  0
   50.0531   14.7129    9.5150 C   0  0  0  0  0  0  0  0  0  0  0  0
   50.1387   14.4004   12.6582 C   0  0  0  0  0  0  0  0  0  0  0  0
   49.4102   13.7091   10.4724 C   0  0  0  0  0  0  0  0  0  0  0  0
   46.0142   11.8670   20.2614 C   0  0  0  0  0  0  0  0  0  0  0  0
   47.3991   10.0512   19.4941 C   0  0  0  0  0  0  0  0  0  0  0  0
   46.2410   10.5020   20.1204 C   0  0  0  0  0  0  0  0  0  0  0  0
   50.2142   11.9840   14.1987 C   0  0  0  0  0  0  0  0  0  0  0  0
   49.9975   15.4750   18.9292 C   0  0  0  0  0  0  0  0  0  0  0  0
   48.3873   14.0107   17.8000 C   0  0  0  0  0  0  0  0  0  0  0  0
   48.5049   13.3693   15.2787 C   0  0  0  0  0  0  0  0  0  0  0  0
   49.3989   12.2755   15.2994 C   0  0  0  0  0  0  0  0  0  0  0  0
   49.2813   15.1054   17.7862 C   0  0  0  0  0  0  0  0  0  0  0  0
   47.6502   13.6364   16.5169 C   0  0  0  0  0  0  0  0  0  0  0  0
   50.1074   12.7636   13.0432 C   0  0  0  0  0  0  0  0  0  0  0  0
   49.7902   14.7750   20.1177 C   0  0  0  0  0  0  0  0  0  0  0  0
   51.1944   10.8682   14.1590 C   0  0  0  0  0  0  0  0  0  0  0  0
   50.9774   16.5880   18.9854 C   0  0  0  0  0  0  0  0  0  0  0  0
   48.1597   13.3135   19.0325 C   0  0  0  0  0  0  0  0  0  0  0  0
   48.4012   14.1680   14.0929 C   0  0  0  0  0  0  0  0  0  0  0  0
   49.2119   13.8379   12.9738 C   0  0  0  0  0  0  0  0  0  0  0  0
   48.8807   13.7147   20.1884 C   0  0  0  0  0  0  0  0  0  0  0  0
   51.8444   10.5112   13.1901 O   0  0  0  0  0  0  0  0  0  0  0  0
   51.5646   16.9767   19.9765 O   0  0  0  0  0  0  0  0  0  0  0  0
   49.4128   11.4986   16.4330 O   0  0  0  0  0  0  0  0  0  0  0  0
   49.3926   15.8184   16.6179 O   0  0  0  0  0  0  0  0  0  0  0  0
   51.3324   10.2409   15.3460 O   0  0  0  0  0  0  0  0  0  0  0  0
   51.2046   17.1604   17.7882 O   0  0  0  0  0  0  0  0  0  0  0  0
   47.5411   15.2860   13.9446 C   0  0  0  0  0  0  0  0  0  0  0  0
   47.2572   12.2336   19.2006 C   0  0  0  0  0  0  0  0  0  0  0  0
   49.1306   14.5881   11.7865 C   0  0  0  0  0  0  0  0  0  0  0  0
   48.6897   13.0628   21.4199 C   0  0  0  0  0  0  0  0  0  0  0  0
   47.0723   11.6018   20.4355 C   0  0  0  0  0  0  0  0  0  0  0  0
   47.4669   16.0209   12.7573 C   0  0  0  0  0  0  0  0  0  0  0  0
   47.7833   12.0179   21.5472 C   0  0  0  0  0  0  0  0  0  0  0  0
   48.2594   15.6672   11.6758 C   0  0  0  0  0  0  0  0  0  0  0  0
   49.8432   12.7723   17.9352 H   0  0  0  0  0  0  0  0  0  0  0  0
   50.5347   15.3112   17.6907 H   0  0  0  0  0  0  0  0  0  0  0  0
   49.2336   16.3124   17.1244 H   0  0  0  0  0  0  0  0  0  0  0  0
   46.6784   13.7170   17.0983 H   0  0  0  0  0  0  0  0  0  0  0  0
   48.0402   12.8863   16.3261 H   0  0  0  0  0  0  0  0  0  0  0  0
   48.6266   15.4928   20.2745 H   0  0  0  0  0  0  0  0  0  0  0  0
   51.5481   12.3968   19.5479 H   0  0  0  0  0  0  0  0  0  0  0  0
   50.3834   13.8950   15.6526 H   0  0  0  0  0  0  0  0  0  0  0  0
   50.7479   15.5879   15.2961 H   0  0  0  0  0  0  0  0  0  0  0  0
   47.1703   15.7638   15.7820 H   0  0  0  0  0  0  0  0  0  0  0  0
   46.7601   14.3972   14.7776 H   0  0  0  0  0  0  0  0  0  0  0  0
   52.8809   13.2221   21.4423 H   0  0  0  0  0  0  0  0  0  0  0  0
   49.9684   16.3017   22.1682 H   0  0  0  0  0  0  0  0  0  0  0  0
   48.0370   14.1402   12.9663 H   0  0  0  0  0  0  0  0  0  0  0  0
   49.0108   13.0424   13.9167 H   0  0  0  0  0  0  0  0  0  0  0  0
   49.3506   14.0334    7.8259 H   0  0  0  0  0  0  0  0  0  0  0  0
   49.2346   10.5868   18.5276 H   0  0  0  0  0  0  0  0  0  0  0  0
   46.7450   13.8456   19.8760 H   0  0  0  0  0  0  0  0  0  0  0  0
   51.0624   14.4022    9.2315 H   0  0  0  0  0  0  0  0  0  0  0  0
   50.1443   15.6971    9.9847 H   0  0  0  0  0  0  0  0  0  0  0  0
   51.0733   14.3246   13.2236 H   0  0  0  0  0  0  0  0  0  0  0  0
   50.0757   15.4213   12.2650 H   0  0  0  0  0  0  0  0  0  0  0  0
   48.4077   14.0400   10.7702 H   0  0  0  0  0  0  0  0  0  0  0  0
   49.2668   12.7587    9.9458 H   0  0  0  0  0  0  0  0  0  0  0  0
   45.1115   12.2246   20.7518 H   0  0  0  0  0  0  0  0  0  0  0  0
   47.5785    8.9869   19.3986 H   0  0  0  0  0  0  0  0  0  0  0  0
   45.5144    9.7921   20.5012 H   0  0  0  0  0  0  0  0  0  0  0  0
   47.0544   12.7252   16.6346 H   0  0  0  0  0  0  0  0  0  0  0  0
   46.8947   14.4139   16.3538 H   0  0  0  0  0  0  0  0  0  0  0  0
   50.7367   12.5339   12.1856 H   0  0  0  0  0  0  0  0  0  0  0  0
   50.3449   15.0684   21.0074 H   0  0  0  0  0  0  0  0  0  0  0  0
   50.2026   10.9222   16.3933 H   0  0  0  0  0  0  0  0  0  0  0  0
   50.1095   16.4782   16.7206 H   0  0  0  0  0  0  0  0  0  0  0  0
   51.9966    9.5436   15.1419 H   0  0  0  0  0  0  0  0  0  0  0  0
   51.8885   17.8387   17.9946 H   0  0  0  0  0  0  0  0  0  0  0  0
   46.9211   15.6274   14.7680 H   0  0  0  0  0  0  0  0  0  0  0  0
   46.6637   11.8534   18.3739 H   0  0  0  0  0  0  0  0  0  0  0  0
   49.7495   14.3372   10.9277 H   0  0  0  0  0  0  0  0  0  0  0  0
   49.2493   13.3777   22.2981 H   0  0  0  0  0  0  0  0  0  0  0  0
   46.3679   10.7786   20.5174 H   0  0  0  0  0  0  0  0  0  0  0  0
   46.7911   16.8688   12.6830 H   0  0  0  0  0  0  0  0  0  0  0  0
   47.6389   11.5284   22.5071 H   0  0  0  0  0  0  0  0  0  0  0  0
   48.2017   16.2303   10.7475 H   0  0  0  0  0  0  0  0  0  0  0  0
  2  1  1  0
  3 10  1  0
  4  2  1  0
  5  1  1  0
  6  1  1  0
  7  2  1  0
  8  4  2  0
  9  4  1  0
 10  5  1  0
 11  6  1  0
 12 14  2  0
 13  9  2  0
 14  8  1  0
 15 12  1  0
 16  3  1  0
 17 21  1  0
 18 22  1  0
 19  7  2  0
 20  7  1  0
 21 23  1  0
 22 16  1  0
 23 18  1  0
 24 20  2  0
 25 19  1  0
 26 25  2  0
 11  3  1  0
 13 12  1  0
 24 26  1  0
 28 32  2  0
 29 33  1  0
 30 31  1  0
 31 27  2  0
 32 29  1  0
 33 30  1  0
 34 27  1  0
 35 28  1  0
 36 27  1  0
 37 28  1  0
 38 29  2  0
 39 40  1  0
 40 34  2  0
 41 38  1  0
 42 36  2  0
 43 37  2  0
 44 31  1  0
 45 32  1  0
 46 36  1  0
 47 37  1  0
 48 39  1  0
 49 38  1  0
 50 40  1  0
 51 41  1  0
 52 49  2  0
 53 48  2  0
 54 52  1  0
 55 50  2  0
 30 39  2  0
 53 55  1  0
 35 41  2  0
 51 54  2  0
  2 56  1  1
  5 57  1  0
  5 58  1  0
  6 59  1  0
  6 60  1  0
  8 61  1  0
  9 62  1  0
 10 63  1  0
 10 64  1  0
 11 65  1  0
 11 66  1  0
 13 67  1  0
 14 68  1  0
 16 69  1  0
 16 70  1  0
 17 71  1  0
 19 72  1  0
 20 73  1  0
 21 74  1  0
 21 75  1  0
 22 76  1  0
 22 77  1  0
 23 78  1  0
 23 79  1  0
 24 80  1  0
 25 81  1  0
 26 82  1  0
 33 83  1  0
 33 84  1  0
 34 85  1  0
 35 86  1  0
 44 87  1  0
 45 88  1  0
 46 89  1  0
 47 90  1  0
 48 91  1  0
 49 92  1  0
 50 93  1  0
 51 94  1  0
 52 95  1  0
 53 96  1  0
 54 97  1  0
 55 98  1  0
M  END
> <Uni-Dock RESULT> 
ENERGY=   -5.131  LOWER_BOUND=    4.440  UPPER_BOUND=    6.363
INTER + INTRA:          -5.131
INTER:                  -5.131
INTRA:                   0.000
UNBOUND:                 0.000

$$$$

     RDKit          3D

 98103  0  0  0  0  0  0  0  0999 V2000
   48.5180    9.5363   17.2114 N   0  0  0  0  0  0  0  0  0  0  0  0
   49.2251   10.7156   17.7933 C   0  0  1  0  0  0  0  0  0  0  0  0
   49.2893    6.5686   17.0284 N   0  0  0  0  0  0  0  0  0  0  0  0
   49.4447   11.8496   16.7790 C   0  0  0  0  0  0  0  0  0  0  0  0
   49.2691    8.9186   16.0888 C   0  0  0  0  0  0  0  0  0  0  0  0
   48.2134    8.5119   18.2430 C   0  0  0  0  0  0  0  0  0  0  0  0
   48.5412   11.2904   19.0453 C   0  0  0  0  0  0  0  0  0  0  0  0
   48.4442   12.2362   15.8707 C   0  0  0  0  0  0  0  0  0  0  0  0
   50.6621   12.5520   16.7724 C   0  0  0  0  0  0  0  0  0  0  0  0
   50.1033    7.6782   16.4836 C   0  0  0  0  0  0  0  0  0  0  0  0
   48.0581    7.0893   17.6621 C   0  0  0  0  0  0  0  0  0  0  0  0
   49.8746   13.9583   14.9767 C   0  0  0  0  0  0  0  0  0  0  0  0
   50.8762   13.5990   15.8734 C   0  0  0  0  0  0  0  0  0  0  0  0
   48.6596   13.2821   14.9720 C   0  0  0  0  0  0  0  0  0  0  0  0
   50.1281   15.2620   13.8822 Cl  0  0  0  0  0  0  0  0  0  0  0  0
   50.0605    5.7250   17.9583 C   0  0  0  0  0  0  0  0  0  0  0  0
   51.4195    0.5936   17.8990 O   0  0  0  0  0  0  0  0  0  0  0  0
   51.9737    4.2227   18.2645 O   0  0  0  0  0  0  0  0  0  0  0  0
   49.2935   11.5471   20.2037 C   0  0  0  0  0  0  0  0  0  0  0  0
   47.1692   11.5934   19.0655 C   0  0  0  0  0  0  0  0  0  0  0  0
   51.8628    1.8925   17.5207 C   0  0  0  0  0  0  0  0  0  0  0  0
   51.2371    4.9820   17.3007 C   0  0  0  0  0  0  0  0  0  0  0  0
   51.4273    2.9354   18.5503 C   0  0  0  0  0  0  0  0  0  0  0  0
   46.5656   12.1204   20.2091 C   0  0  0  0  0  0  0  0  0  0  0  0
   48.6883   12.0727   21.3474 C   0  0  0  0  0  0  0  0  0  0  0  0
   47.3260   12.3564   21.3496 C   0  0  0  0  0  0  0  0  0  0  0  0
   51.8265    7.0501   19.1962 C   0  0  0  0  0  0  0  0  0  0  0  0
   49.0621   10.6794   15.4816 C   0  0  0  0  0  0  0  0  0  0  0  0
   48.4909    9.6723   17.6428 C   0  0  0  0  0  0  0  0  0  0  0  0
   49.4994    7.4430   18.5349 C   0  0  0  0  0  0  0  0  0  0  0  0
   50.7049    7.8856   19.1239 C   0  0  0  0  0  0  0  0  0  0  0  0
   48.8677    9.5519   16.2859 C   0  0  0  0  0  0  0  0  0  0  0  0
   48.3163    8.4086   18.4810 C   0  0  0  0  0  0  0  0  0  0  0  0
   51.7353    5.7401   18.7167 C   0  0  0  0  0  0  0  0  0  0  0  0
   48.8359   11.9462   16.0198 C   0  0  0  0  0  0  0  0  0  0  0  0
   53.1326    7.4557   19.7768 C   0  0  0  0  0  0  0  0  0  0  0  0
   49.4897   10.6366   14.0612 C   0  0  0  0  0  0  0  0  0  0  0  0
   48.2341   10.9767   18.1808 C   0  0  0  0  0  0  0  0  0  0  0  0
   49.4115    6.1000   18.0414 C   0  0  0  0  0  0  0  0  0  0  0  0
   50.5487    5.2555   18.1529 C   0  0  0  0  0  0  0  0  0  0  0  0
   48.4175   12.1097   17.3444 C   0  0  0  0  0  0  0  0  0  0  0  0
   54.0983    6.7326   19.9589 O   0  0  0  0  0  0  0  0  0  0  0  0
   49.6023   11.5917   13.3174 O   0  0  0  0  0  0  0  0  0  0  0  0
   50.7184    9.1576   19.6439 O   0  0  0  0  0  0  0  0  0  0  0  0
   48.9986    8.2843   15.7742 O   0  0  0  0  0  0  0  0  0  0  0  0
   53.1848    8.7644   20.1024 O   0  0  0  0  0  0  0  0  0  0  0  0
   49.7847    9.3960   13.6294 O   0  0  0  0  0  0  0  0  0  0  0  0
   48.2602    5.5358   17.4350 C   0  0  0  0  0  0  0  0  0  0  0  0
   47.8039   11.2391   19.5056 C   0  0  0  0  0  0  0  0  0  0  0  0
   50.4997    3.9268   17.6934 C   0  0  0  0  0  0  0  0  0  0  0  0
   48.1760   13.4087   17.8264 C   0  0  0  0  0  0  0  0  0  0  0  0
   47.5593   12.5376   19.9666 C   0  0  0  0  0  0  0  0  0  0  0  0
   48.2233    4.2120   16.9862 C   0  0  0  0  0  0  0  0  0  0  0  0
   47.7395   13.6230   19.1276 C   0  0  0  0  0  0  0  0  0  0  0  0
   49.3436    3.4059   17.1209 C   0  0  0  0  0  0  0  0  0  0  0  0
   50.2197   10.3584   18.1033 H   0  0  0  0  0  0  0  0  0  0  0  0
   49.9245    9.6324   15.5794 H   0  0  0  0  0  0  0  0  0  0  0  0
   48.5363    8.6199   15.3276 H   0  0  0  0  0  0  0  0  0  0  0  0
   47.2724    8.7721   18.7401 H   0  0  0  0  0  0  0  0  0  0  0  0
   48.9988    8.4771   19.0107 H   0  0  0  0  0  0  0  0  0  0  0  0
   47.4891   11.7163   15.8554 H   0  0  0  0  0  0  0  0  0  0  0  0
   51.4529   12.2891   17.4705 H   0  0  0  0  0  0  0  0  0  0  0  0
   50.8650    8.0043   17.2063 H   0  0  0  0  0  0  0  0  0  0  0  0
   50.6331    7.3186   15.5933 H   0  0  0  0  0  0  0  0  0  0  0  0
   47.2686    7.1076   16.8980 H   0  0  0  0  0  0  0  0  0  0  0  0
   47.6907    6.4077   18.4397 H   0  0  0  0  0  0  0  0  0  0  0  0
   51.8230   14.1320   15.8853 H   0  0  0  0  0  0  0  0  0  0  0  0
   47.8737   13.5641   14.2810 H   0  0  0  0  0  0  0  0  0  0  0  0
   49.3939    4.9676   18.3878 H   0  0  0  0  0  0  0  0  0  0  0  0
   50.4287    6.3121   18.8096 H   0  0  0  0  0  0  0  0  0  0  0  0
   51.9417    0.3215   18.6757 H   0  0  0  0  0  0  0  0  0  0  0  0
   50.3623   11.3453   20.2254 H   0  0  0  0  0  0  0  0  0  0  0  0
   46.5564   11.4026   18.1887 H   0  0  0  0  0  0  0  0  0  0  0  0
   52.9502    1.8756   17.4068 H   0  0  0  0  0  0  0  0  0  0  0  0
   51.4442    2.1184   16.5351 H   0  0  0  0  0  0  0  0  0  0  0  0
   51.9465    5.7048   16.8847 H   0  0  0  0  0  0  0  0  0  0  0  0
   50.8932    4.3485   16.4752 H   0  0  0  0  0  0  0  0  0  0  0  0
   50.3344    2.9623   18.6411 H   0  0  0  0  0  0  0  0  0  0  0  0
   51.8016    2.6378   19.5364 H   0  0  0  0  0  0  0  0  0  0  0  0
   45.5007   12.3421   20.2051 H   0  0  0  0  0  0  0  0  0  0  0  0
   49.2797   12.2710   22.2333 H   0  0  0  0  0  0  0  0  0  0  0  0
   46.8544   12.7633   22.2379 H   0  0  0  0  0  0  0  0  0  0  0  0
   48.1064    8.6363   19.5313 H   0  0  0  0  0  0  0  0  0  0  0  0
   47.3918    7.9313   18.1355 H   0  0  0  0  0  0  0  0  0  0  0  0
   52.6049    5.0887   18.7779 H   0  0  0  0  0  0  0  0  0  0  0  0
   48.9826   12.8219   15.3898 H   0  0  0  0  0  0  0  0  0  0  0  0
   51.6493    9.3989   19.8253 H   0  0  0  0  0  0  0  0  0  0  0  0
   49.3544    8.3492   14.8638 H   0  0  0  0  0  0  0  0  0  0  0  0
   54.0937    8.8559   20.4696 H   0  0  0  0  0  0  0  0  0  0  0  0
   50.0771    9.5495   12.7014 H   0  0  0  0  0  0  0  0  0  0  0  0
   47.3650    6.1292   17.2754 H   0  0  0  0  0  0  0  0  0  0  0  0
   47.6395   10.4377   20.2203 H   0  0  0  0  0  0  0  0  0  0  0  0
   51.3685    3.2776   17.7781 H   0  0  0  0  0  0  0  0  0  0  0  0
   48.3218   14.2691   17.1768 H   0  0  0  0  0  0  0  0  0  0  0  0
   47.2288   12.6907   20.9903 H   0  0  0  0  0  0  0  0  0  0  0  0
   47.3193    3.8164   16.5307 H   0  0  0  0  0  0  0  0  0  0  0  0
   47.5482   14.6318   19.4849 H   0  0  0  0  0  0  0  0  0  0  0  0
   49.3194    2.3738   16.7800 H   0  0  0  0  0  0  0  0  0  0  0  0
  2  1  1  0
  3 10  1  0
  4  2  1  0
  5  1  1  0
  6  1  1  0
  7  2  1  0
  8  4  2  0
  9  4  1  0
 10  5  1  0
 11  6  1  0
 12 14  2  0
 13  9  2  0
 14  8  1  0
 15 12  1  0
 16  3  1  0
 17 21  1  0
 18 22  1  0
 19  7  2  0
 20  7  1  0
 21 23  1  0
 22 16  1  0
 23 18  1  0
 24 20  2  0
 25 19  1  0
 26 25  2  0
 11  3  1  0
 13 12  1  0
 24 26  1  0
 28 32  2  0
 29 33  1  0
 30 31  1  0
 31 27  2  0
 32 29  1  0
 33 30  1  0
 34 27  1  0
 35 28  1  0
 36 27  1  0
 37 28  1  0
 38 29  2  0
 39 40  1  0
 40 34  2  0
 41 38  1  0
 42 36  2  0
 43 37  2  0
 44 31  1  0
 45 32  1  0
 46 36  1  0
 47 37  1  0
 48 39  1  0
 49 38  1  0
 50 40  1  0
 51 41  1  0
 52 49  2  0
 53 48  2  0
 54 52  1  0
 55 50  2  0
 30 39  2  0
 53 55  1  0
 35 41  2  0
 51 54  2  0
  2 56  1  1
  5 57  1  0
  5 58  1  0
  6 59  1  0
  6 60  1  0
  8 61  1  0
  9 62  1  0
 10 63  1  0
 10 64  1  0
 11 65  1  0
 11 66  1  0
 13 67  1  0
 14 68  1  0
 16 69  1  0
 16 70  1  0
 17 71  1  0
 19 72  1  0
 20 73  1  0
 21 74  1  0
 21 75  1  0
 22 76  1  0
 22 77  1  0
 23 78  1  0
 23 79  1  0
 24 80  1  0
 25 81  1  0
 26 82  1  0
 33 83  1  0
 33 84  1  0
 34 85  1  0
 35 86  1  0
 44 87  1  0
 45 88  1  0
 46 89  1  0
 47 90  1  0
 48 91  1  0
 49 92  1  0
 50 93  1  0
 51 94  1  0
 52 95  1  0
 53 96  1  0
 54 97  1  0
 55 98  1  0
M  END
> <Uni-Dock RESULT> 
ENERGY=   -5.094  LOWER_BOUND=    2.922  UPPER_BOUND=    6.947
INTER + INTRA:          -5.094
INTER:                  -5.094
INTRA:                   0.000
UNBOUND:                 0.000

$$$$

     RDKit          3D

 98103  0  0  0  0  0  0  0  0999 V2000
   48.0616   10.9398   11.3124 N   0  0  0  0  0  0  0  0  0  0  0  0
   49.0017   10.4489   12.3633 C   0  0  1  0  0  0  0  0  0  0  0  0
   46.4386   13.5359   11.0644 N   0  0  0  0  0  0  0  0  0  0  0  0
   48.5923    9.0898   12.9535 C   0  0  0  0  0  0  0  0  0  0  0  0
   46.6826   11.1353   11.8281 C   0  0  0  0  0  0  0  0  0  0  0  0
   48.5486   12.1915   10.6781 C   0  0  0  0  0  0  0  0  0  0  0  0
   50.4650   10.3705   11.8959 C   0  0  0  0  0  0  0  0  0  0  0  0
   48.1200    8.0420   12.1444 C   0  0  0  0  0  0  0  0  0  0  0  0
   48.7227    8.8624   14.3343 C   0  0  0  0  0  0  0  0  0  0  0  0
   46.3415   12.5958   12.2034 C   0  0  0  0  0  0  0  0  0  0  0  0
   47.4163   13.0462   10.0679 C   0  0  0  0  0  0  0  0  0  0  0  0
   47.9015    6.6089   14.0704 C   0  0  0  0  0  0  0  0  0  0  0  0
   48.3759    7.6288   14.8895 C   0  0  0  0  0  0  0  0  0  0  0  0
   47.7728    6.8100   12.7005 C   0  0  0  0  0  0  0  0  0  0  0  0
   47.4935    5.0809   14.7491 Cl  0  0  0  0  0  0  0  0  0  0  0  0
   46.7570   14.9051   11.5062 C   0  0  0  0  0  0  0  0  0  0  0  0
   44.1729   19.5244   11.0989 O   0  0  0  0  0  0  0  0  0  0  0  0
   46.0574   16.8568   12.8147 O   0  0  0  0  0  0  0  0  0  0  0  0
   51.4862   10.9322   12.6803 C   0  0  0  0  0  0  0  0  0  0  0  0
   50.8260    9.7265   10.7002 C   0  0  0  0  0  0  0  0  0  0  0  0
   44.3634   18.3983   11.9489 C   0  0  0  0  0  0  0  0  0  0  0  0
   45.6658   15.5514   12.3781 C   0  0  0  0  0  0  0  0  0  0  0  0
   45.8064   17.8989   11.8721 C   0  0  0  0  0  0  0  0  0  0  0  0
   52.1602    9.6594   10.2937 C   0  0  0  0  0  0  0  0  0  0  0  0
   52.8200   10.8658   12.2719 C   0  0  0  0  0  0  0  0  0  0  0  0
   53.1551   10.2321   11.0792 C   0  0  0  0  0  0  0  0  0  0  0  0
   48.1808   14.9178   13.5990 C   0  0  0  0  0  0  0  0  0  0  0  0
   46.9791    9.3265   12.2183 C   0  0  0  0  0  0  0  0  0  0  0  0
   48.5064   11.0254   11.3278 C   0  0  0  0  0  0  0  0  0  0  0  0
   48.1272   13.5934   11.5374 C   0  0  0  0  0  0  0  0  0  0  0  0
   48.6646   13.8622   12.8160 C   0  0  0  0  0  0  0  0  0  0  0  0
   47.2033   10.5873   11.6560 C   0  0  0  0  0  0  0  0  0  0  0  0
   48.6955   12.4209   10.7390 C   0  0  0  0  0  0  0  0  0  0  0  0
   47.1789   15.7465   13.0856 C   0  0  0  0  0  0  0  0  0  0  0  0
   48.0606    8.4684   12.4173 C   0  0  0  0  0  0  0  0  0  0  0  0
   48.6789   15.2427   14.9606 C   0  0  0  0  0  0  0  0  0  0  0  0
   45.6479    8.8088   12.6207 C   0  0  0  0  0  0  0  0  0  0  0  0
   49.6093   10.1270   11.5103 C   0  0  0  0  0  0  0  0  0  0  0  0
   47.0976   14.4438   11.0163 C   0  0  0  0  0  0  0  0  0  0  0  0
   46.6417   15.5301   11.8107 C   0  0  0  0  0  0  0  0  0  0  0  0
   49.3611    8.8431   12.0643 C   0  0  0  0  0  0  0  0  0  0  0  0
   48.3660   16.2119   15.6324 O   0  0  0  0  0  0  0  0  0  0  0  0
   45.4109    7.6957   13.0484 O   0  0  0  0  0  0  0  0  0  0  0  0
   49.6965   13.0614   13.2433 O   0  0  0  0  0  0  0  0  0  0  0  0
   46.1590   11.4308   11.3665 O   0  0  0  0  0  0  0  0  0  0  0  0
   49.5509   14.3300   15.4381 O   0  0  0  0  0  0  0  0  0  0  0  0
   44.6615    9.7163   12.4942 O   0  0  0  0  0  0  0  0  0  0  0  0
   46.4816   14.2834    9.7488 C   0  0  0  0  0  0  0  0  0  0  0  0
   50.9566   10.4164   11.1787 C   0  0  0  0  0  0  0  0  0  0  0  0
   45.6426   16.3963   11.3307 C   0  0  0  0  0  0  0  0  0  0  0  0
   50.4101    7.9269   12.2600 C   0  0  0  0  0  0  0  0  0  0  0  0
   51.9874    9.4898   11.3715 C   0  0  0  0  0  0  0  0  0  0  0  0
   45.4922   15.1541    9.2819 C   0  0  0  0  0  0  0  0  0  0  0  0
   51.7159    8.2431   11.9068 C   0  0  0  0  0  0  0  0  0  0  0  0
   45.0768   16.2147   10.0727 C   0  0  0  0  0  0  0  0  0  0  0  0
   48.9628   11.1847   13.1819 H   0  0  0  0  0  0  0  0  0  0  0  0
   46.4607   10.4933   12.6866 H   0  0  0  0  0  0  0  0  0  0  0  0
   45.9883   10.8038   11.0446 H   0  0  0  0  0  0  0  0  0  0  0  0
   49.2445   11.9374    9.8709 H   0  0  0  0  0  0  0  0  0  0  0  0
   49.0894   12.8176   11.4012 H   0  0  0  0  0  0  0  0  0  0  0  0
   48.0139    8.1849   11.0715 H   0  0  0  0  0  0  0  0  0  0  0  0
   49.0980    9.6458   14.9880 H   0  0  0  0  0  0  0  0  0  0  0  0
   47.0100   12.8947   13.0235 H   0  0  0  0  0  0  0  0  0  0  0  0
   45.3167   12.6237   12.5931 H   0  0  0  0  0  0  0  0  0  0  0  0
   46.8717   12.4343    9.3354 H   0  0  0  0  0  0  0  0  0  0  0  0
   47.8452   13.8742    9.4895 H   0  0  0  0  0  0  0  0  0  0  0  0
   48.4861    7.4711   15.9589 H   0  0  0  0  0  0  0  0  0  0  0  0
   47.4116    6.0156   12.0576 H   0  0  0  0  0  0  0  0  0  0  0  0
   46.8907   15.5418   10.6234 H   0  0  0  0  0  0  0  0  0  0  0  0
   47.7161   14.9338   12.0396 H   0  0  0  0  0  0  0  0  0  0  0  0
   44.6534   20.2741   11.4954 H   0  0  0  0  0  0  0  0  0  0  0  0
   51.2533   11.4233   13.6227 H   0  0  0  0  0  0  0  0  0  0  0  0
   50.0611    9.2857   10.0667 H   0  0  0  0  0  0  0  0  0  0  0  0
   44.0926   18.6770   12.9709 H   0  0  0  0  0  0  0  0  0  0  0  0
   43.6629   17.6174   11.6369 H   0  0  0  0  0  0  0  0  0  0  0  0
   45.5219   14.9624   13.2898 H   0  0  0  0  0  0  0  0  0  0  0  0
   44.7049   15.5807   11.8521 H   0  0  0  0  0  0  0  0  0  0  0  0
   46.0622   17.5993   10.8484 H   0  0  0  0  0  0  0  0  0  0  0  0
   46.4814   18.7263   12.1186 H   0  0  0  0  0  0  0  0  0  0  0  0
   52.4170    9.1613    9.3615 H   0  0  0  0  0  0  0  0  0  0  0  0
   53.5995   11.2985   12.8876 H   0  0  0  0  0  0  0  0  0  0  0  0
   54.1907   10.1812   10.7600 H   0  0  0  0  0  0  0  0  0  0  0  0
   49.7529   12.6726   10.6064 H   0  0  0  0  0  0  0  0  0  0  0  0
   48.3141   12.3797    9.7120 H   0  0  0  0  0  0  0  0  0  0  0  0
   46.8067   16.5704   13.6914 H   0  0  0  0  0  0  0  0  0  0  0  0
   47.8825    7.4854   12.8500 H   0  0  0  0  0  0  0  0  0  0  0  0
   49.8257   13.2216   14.2000 H   0  0  0  0  0  0  0  0  0  0  0  0
   45.3353   11.0465   11.7320 H   0  0  0  0  0  0  0  0  0  0  0  0
   49.7786   14.6965   16.3231 H   0  0  0  0  0  0  0  0  0  0  0  0
   43.8720    9.2317   12.8292 H   0  0  0  0  0  0  0  0  0  0  0  0
   46.7449   13.4530    9.1006 H   0  0  0  0  0  0  0  0  0  0  0  0
   51.2455   11.3732   10.7530 H   0  0  0  0  0  0  0  0  0  0  0  0
   45.2921   17.2293   11.9363 H   0  0  0  0  0  0  0  0  0  0  0  0
   50.2081    6.9470   12.6870 H   0  0  0  0  0  0  0  0  0  0  0  0
   53.0057    9.7551   11.1008 H   0  0  0  0  0  0  0  0  0  0  0  0
   45.0482   14.9987    8.3021 H   0  0  0  0  0  0  0  0  0  0  0  0
   52.5161    7.5224   12.0554 H   0  0  0  0  0  0  0  0  0  0  0  0
   44.3127   16.8994    9.7129 H   0  0  0  0  0  0  0  0  0  0  0  0
  2  1  1  0
  3 10  1  0
  4  2  1  0
  5  1  1  0
  6  1  1  0
  7  2  1  0
  8  4  2  0
  9  4  1  0
 10  5  1  0
 11  6  1  0
 12 14  2  0
 13  9  2  0
 14  8  1  0
 15 12  1  0
 16  3  1  0
 17 21  1  0
 18 22  1  0
 19  7  2  0
 20  7  1  0
 21 23  1  0
 22 16  1  0
 23 18  1  0
 24 20  2  0
 25 19  1  0
 26 25  2  0
 11  3  1  0
 13 12  1  0
 24 26  1  0
 28 32  2  0
 29 33  1  0
 30 31  1  0
 31 27  2  0
 32 29  1  0
 33 30  1  0
 34 27  1  0
 35 28  1  0
 36 27  1  0
 37 28  1  0
 38 29  2  0
 39 40  1  0
 40 34  2  0
 41 38  1  0
 42 36  2  0
 43 37  2  0
 44 31  1  0
 45 32  1  0
 46 36  1  0
 47 37  1  0
 48 39  1  0
 49 38  1  0
 50 40  1  0
 51 41  1  0
 52 49  2  0
 53 48  2  0
 54 52  1  0
 55 50  2  0
 30 39  2  0
 53 55  1  0
 35 41  2  0
 51 54  2  0
  2 56  1  1
  5 57  1  0
  5 58  1  0
  6 59  1  0
  6 60  1  0
  8 61  1  0
  9 62  1  0
 10 63  1  0
 10 64  1  0
 11 65  1  0
 11 66  1  0
 13 67  1  0
 14 68  1  0
 16 69  1  0
 16 70  1  0
 17 71  1  0
 19 72  1  0
 20 73  1  0
 21 74  1  0
 21 75  1  0
 22 76  1  0
 22 77  1  0
 23 78  1  0
 23 79  1  0
 24 80  1  0
 25 81  1  0
 26 82  1  0
 33 83  1  0
 33 84  1  0
 34 85  1  0
 35 86  1  0
 44 87  1  0
 45 88  1  0
 46 89  1  0
 47 90  1  0
 48 91  1  0
 49 92  1  0
 50 93  1  0
 51 94  1  0
 52 95  1  0
 53 96  1  0
 54 97  1  0
 55 98  1  0
M  END
> <Uni-Dock RESULT> 
ENERGY=   -4.994  LOWER_BOUND=    4.323  UPPER_BOUND=    7.634
INTER + INTRA:          -4.994
INTER:                  -4.994
INTRA:                   0.000
UNBOUND:                 0.000

$$$$

     RDKit          3D

 98103  0  0  0  0  0  0  0  0999 V2000
   50.9578    7.4086   17.3779 N   0  0  0  0  0  0  0  0  0  0  0  0
   50.3156    6.0912   17.6628 C   0  0  1  0  0  0  0  0  0  0  0  0
   50.8563    9.2501   14.9214 N   0  0  0  0  0  0  0  0  0  0  0  0
   51.3272    4.9906   18.0215 C   0  0  0  0  0  0  0  0  0  0  0  0
   51.8960    7.3481   16.2280 C   0  0  0  0  0  0  0  0  0  0  0  0
   49.9499    8.4767   17.1551 C   0  0  0  0  0  0  0  0  0  0  0  0
   49.2361    6.1536   18.7567 C   0  0  0  0  0  0  0  0  0  0  0  0
   52.4182    5.2352   18.8733 C   0  0  0  0  0  0  0  0  0  0  0  0
   51.1484    3.6901   17.5197 C   0  0  0  0  0  0  0  0  0  0  0  0
   51.2985    7.8380   14.8889 C   0  0  0  0  0  0  0  0  0  0  0  0
   50.4802    9.6457   16.2964 C   0  0  0  0  0  0  0  0  0  0  0  0
   53.1219    2.9372   18.6862 C   0  0  0  0  0  0  0  0  0  0  0  0
   52.0434    2.6697   17.8486 C   0  0  0  0  0  0  0  0  0  0  0  0
   53.3126    4.2150   19.2004 C   0  0  0  0  0  0  0  0  0  0  0  0
   54.2143    1.6767   19.1100 Cl  0  0  0  0  0  0  0  0  0  0  0  0
   49.7634    9.5070   13.9671 C   0  0  0  0  0  0  0  0  0  0  0  0
   49.3307   12.6947    9.7442 O   0  0  0  0  0  0  0  0  0  0  0  0
   49.0462    9.5322   11.6228 O   0  0  0  0  0  0  0  0  0  0  0  0
   47.9750    5.5753   18.5356 C   0  0  0  0  0  0  0  0  0  0  0  0
   49.4777    6.7611   20.0005 C   0  0  0  0  0  0  0  0  0  0  0  0
   49.6850   11.3743   10.1416 C   0  0  0  0  0  0  0  0  0  0  0  0
   50.1622    9.3177   12.4927 C   0  0  0  0  0  0  0  0  0  0  0  0
   48.8018   10.9000   11.2959 C   0  0  0  0  0  0  0  0  0  0  0  0
   48.4879    6.8036   20.9847 C   0  0  0  0  0  0  0  0  0  0  0  0
   46.9855    5.6198   19.5201 C   0  0  0  0  0  0  0  0  0  0  0  0
   47.2420    6.2352   20.7415 C   0  0  0  0  0  0  0  0  0  0  0  0
   48.2932    7.4725   13.6413 C   0  0  0  0  0  0  0  0  0  0  0  0
   52.6145    6.0482   17.3708 C   0  0  0  0  0  0  0  0  0  0  0  0
   50.5454    7.3505   17.5563 C   0  0  0  0  0  0  0  0  0  0  0  0
   49.3804    8.5464   15.5575 C   0  0  0  0  0  0  0  0  0  0  0  0
   48.6061    7.5012   15.0060 C   0  0  0  0  0  0  0  0  0  0  0  0
   51.8050    7.1126   16.9610 C   0  0  0  0  0  0  0  0  0  0  0  0
   49.6926    8.5121   17.0530 C   0  0  0  0  0  0  0  0  0  0  0  0
   48.7177    8.5212   12.8203 C   0  0  0  0  0  0  0  0  0  0  0  0
   52.1872    5.2330   18.4189 C   0  0  0  0  0  0  0  0  0  0  0  0
   47.5072    6.3939   12.9883 C   0  0  0  0  0  0  0  0  0  0  0  0
   53.9311    5.7134   16.7736 C   0  0  0  0  0  0  0  0  0  0  0  0
   50.1257    6.5246   18.6511 C   0  0  0  0  0  0  0  0  0  0  0  0
   49.8165    9.6180   14.7112 C   0  0  0  0  0  0  0  0  0  0  0  0
   49.4619    9.5897   13.3356 C   0  0  0  0  0  0  0  0  0  0  0  0
   50.9689    5.4603   19.0673 C   0  0  0  0  0  0  0  0  0  0  0  0
   47.1198    6.3810   11.8314 O   0  0  0  0  0  0  0  0  0  0  0  0
   54.6875    4.8392   17.1501 O   0  0  0  0  0  0  0  0  0  0  0  0
   48.1538    6.5330   15.8702 O   0  0  0  0  0  0  0  0  0  0  0  0
   52.2233    7.9891   15.9903 O   0  0  0  0  0  0  0  0  0  0  0  0
   47.2408    5.3586   13.8122 O   0  0  0  0  0  0  0  0  0  0  0  0
   54.2426    6.4738   15.7072 O   0  0  0  0  0  0  0  0  0  0  0  0
   50.5923   10.7240   15.1429 C   0  0  0  0  0  0  0  0  0  0  0  0
   48.9140    6.6815   19.3696 C   0  0  0  0  0  0  0  0  0  0  0  0
   49.8583   10.6287   12.4740 C   0  0  0  0  0  0  0  0  0  0  0  0
   50.6012    4.6250   20.1374 C   0  0  0  0  0  0  0  0  0  0  0  0
   48.5675    5.8469   20.4382 C   0  0  0  0  0  0  0  0  0  0  0  0
   50.9763   11.7525   14.2769 C   0  0  0  0  0  0  0  0  0  0  0  0
   49.4115    4.8218   20.8270 C   0  0  0  0  0  0  0  0  0  0  0  0
   50.6037   11.7062   12.9420 C   0  0  0  0  0  0  0  0  0  0  0  0
   49.8150    5.7828   16.7316 H   0  0  0  0  0  0  0  0  0  0  0  0
   52.3129    6.3470   16.0789 H   0  0  0  0  0  0  0  0  0  0  0  0
   52.7614    7.9769   16.4761 H   0  0  0  0  0  0  0  0  0  0  0  0
   49.6433    8.8881   18.1231 H   0  0  0  0  0  0  0  0  0  0  0  0
   49.0527    8.0778   16.6618 H   0  0  0  0  0  0  0  0  0  0  0  0
   52.5800    6.2296   19.2827 H   0  0  0  0  0  0  0  0  0  0  0  0
   50.3076    3.4618   16.8694 H   0  0  0  0  0  0  0  0  0  0  0  0
   50.4670    7.1672   14.6290 H   0  0  0  0  0  0  0  0  0  0  0  0
   52.0606    7.7284   14.1081 H   0  0  0  0  0  0  0  0  0  0  0  0
   51.3738   10.0603   16.7833 H   0  0  0  0  0  0  0  0  0  0  0  0
   49.7496   10.4644   16.2902 H   0  0  0  0  0  0  0  0  0  0  0  0
   51.8870    1.6699   17.4529 H   0  0  0  0  0  0  0  0  0  0  0  0
   54.1465    4.4258   19.8600 H   0  0  0  0  0  0  0  0  0  0  0  0
   49.4249   10.5435   14.0844 H   0  0  0  0  0  0  0  0  0  0  0  0
   48.8889    8.8829   14.1925 H   0  0  0  0  0  0  0  0  0  0  0  0
   48.4605   12.6446    9.3078 H   0  0  0  0  0  0  0  0  0  0  0  0
   47.7518    5.0779   17.5941 H   0  0  0  0  0  0  0  0  0  0  0  0
   50.4402    7.2227   20.2034 H   0  0  0  0  0  0  0  0  0  0  0  0
   49.6005   10.7103    9.2770 H   0  0  0  0  0  0  0  0  0  0  0  0
   50.7396   11.3813   10.4342 H   0  0  0  0  0  0  0  0  0  0  0  0
   50.4780    8.2831   12.3235 H   0  0  0  0  0  0  0  0  0  0  0  0
   51.0046    9.9653   12.2244 H   0  0  0  0  0  0  0  0  0  0  0  0
   48.9105   11.5578   12.1669 H   0  0  0  0  0  0  0  0  0  0  0  0
   47.7514   10.9765   10.9931 H   0  0  0  0  0  0  0  0  0  0  0  0
   48.6941    7.2842   21.9384 H   0  0  0  0  0  0  0  0  0  0  0  0
   46.0182    5.1662   19.3398 H   0  0  0  0  0  0  0  0  0  0  0  0
   46.4736    6.2719   21.5065 H   0  0  0  0  0  0  0  0  0  0  0  0
   48.7093    8.5405   17.5341 H   0  0  0  0  0  0  0  0  0  0  0  0
   50.1754    9.4298   17.4088 H   0  0  0  0  0  0  0  0  0  0  0  0
   48.4698    8.5022   11.7608 H   0  0  0  0  0  0  0  0  0  0  0  0
   52.8219    4.4086   18.7396 H   0  0  0  0  0  0  0  0  0  0  0  0
   47.8198    5.7845   15.3356 H   0  0  0  0  0  0  0  0  0  0  0  0
   53.0569    7.6517   15.6017 H   0  0  0  0  0  0  0  0  0  0  0  0
   46.7210    4.7550   13.2337 H   0  0  0  0  0  0  0  0  0  0  0  0
   55.1092    6.1045   15.4190 H   0  0  0  0  0  0  0  0  0  0  0  0
   50.9387   10.7970   16.1694 H   0  0  0  0  0  0  0  0  0  0  0  0
   48.2029    7.4648   19.1229 H   0  0  0  0  0  0  0  0  0  0  0  0
   49.5876   10.6102   11.4205 H   0  0  0  0  0  0  0  0  0  0  0  0
   51.2545    3.8116   20.4459 H   0  0  0  0  0  0  0  0  0  0  0  0
   47.6285    6.0060   20.9612 H   0  0  0  0  0  0  0  0  0  0  0  0
   51.5675   12.5852   14.6488 H   0  0  0  0  0  0  0  0  0  0  0  0
   49.1434    4.1741   21.6580 H   0  0  0  0  0  0  0  0  0  0  0  0
   50.8934   12.5059   12.2649 H   0  0  0  0  0  0  0  0  0  0  0  0
  2  1  1  0
  3 10  1  0
  4  2  1  0
  5  1  1  0
  6  1  1  0
  7  2  1  0
  8  4  2  0
  9  4  1  0
 10  5  1  0
 11  6  1  0
 12 14  2  0
 13  9  2  0
 14  8  1  0
 15 12  1  0
 16  3  1  0
 17 21  1  0
 18 22  1  0
 19  7  2  0
 20  7  1  0
 21 23  1  0
 22 16  1  0
 23 18  1  0
 24 20  2  0
 25 19  1  0
 26 25  2  0
 11  3  1  0
 13 12  1  0
 24 26  1  0
 28 32  2  0
 29 33  1  0
 30 31  1  0
 31 27  2  0
 32 29  1  0
 33 30  1  0
 34 27  1  0
 35 28  1  0
 36 27  1  0
 37 28  1  0
 38 29  2  0
 39 40  1  0
 40 34  2  0
 41 38  1  0
 42 36  2  0
 43 37  2  0
 44 31  1  0
 45 32  1  0
 46 36  1  0
 47 37  1  0
 48 39  1  0
 49 38  1  0
 50 40  1  0
 51 41  1  0
 52 49  2  0
 53 48  2  0
 54 52  1  0
 55 50  2  0
 30 39  2  0
 53 55  1  0
 35 41  2  0
 51 54  2  0
  2 56  1  1
  5 57  1  0
  5 58  1  0
  6 59  1  0
  6 60  1  0
  8 61  1  0
  9 62  1  0
 10 63  1  0
 10 64  1  0
 11 65  1  0
 11 66  1  0
 13 67  1  0
 14 68  1  0
 16 69  1  0
 16 70  1  0
 17 71  1  0
 19 72  1  0
 20 73  1  0
 21 74  1  0
 21 75  1  0
 22 76  1  0
 22 77  1  0
 23 78  1  0
 23 79  1  0
 24 80  1  0
 25 81  1  0
 26 82  1  0
 33 83  1  0
 33 84  1  0
 34 85  1  0
 35 86  1  0
 44 87  1  0
 45 88  1  0
 46 89  1  0
 47 90  1  0
 48 91  1  0
 49 92  1  0
 50 93  1  0
 51 94  1  0
 52 95  1  0
 53 96  1  0
 54 97  1  0
 55 98  1  0
M  END
> <Uni-Dock RESULT> 
ENERGY=   -4.982  LOWER_BOUND=    2.413  UPPER_BOUND=    4.516
INTER + INTRA:          -4.982
INTER:                  -4.982
INTRA:                   0.000
UNBOUND:                 0.000

$$$$
