
     RDKit          3D

 98103  0  0  0  0  0  0  0  0999 V2000
   50.0859    7.1800   17.5976 N   0  0  0  0  0  0  0  0  0  0  0  0
   49.4234    5.9673   18.1611 C   0  0  1  0  0  0  0  0  0  0  0  0
   48.9082    9.1909   15.6105 N   0  0  0  0  0  0  0  0  0  0  0  0
   50.2285    4.6755   17.9408 C   0  0  0  0  0  0  0  0  0  0  0  0
   50.2738    7.0962   16.1286 C   0  0  0  0  0  0  0  0  0  0  0  0
   49.3378    8.4162   17.9411 C   0  0  0  0  0  0  0  0  0  0  0  0
   49.0762    6.0885   19.6524 C   0  0  0  0  0  0  0  0  0  0  0  0
   51.6296    4.6443   18.0643 C   0  0  0  0  0  0  0  0  0  0  0  0
   49.5540    3.4760   17.6503 C   0  0  0  0  0  0  0  0  0  0  0  0
   49.1755    7.7773   15.2753 C   0  0  0  0  0  0  0  0  0  0  0  0
   49.5115    9.5497   16.9092 C   0  0  0  0  0  0  0  0  0  0  0  0
   51.6500    2.2793   17.5899 C   0  0  0  0  0  0  0  0  0  0  0  0
   50.2616    2.2845   17.4730 C   0  0  0  0  0  0  0  0  0  0  0  0
   52.3374    3.4533   17.8860 C   0  0  0  0  0  0  0  0  0  0  0  0
   52.5201    0.8113   17.3718 Cl  0  0  0  0  0  0  0  0  0  0  0  0
   49.3407   10.1265   14.5634 C   0  0  0  0  0  0  0  0  0  0  0  0
   49.9209   11.7962    9.8757 O   0  0  0  0  0  0  0  0  0  0  0  0
   48.9047   11.0894   12.3951 O   0  0  0  0  0  0  0  0  0  0  0  0
   50.0425    6.4506   20.6069 C   0  0  0  0  0  0  0  0  0  0  0  0
   47.7708    5.8138   20.0942 C   0  0  0  0  0  0  0  0  0  0  0  0
   48.6305   12.2246   10.3062 C   0  0  0  0  0  0  0  0  0  0  0  0
   48.4195   10.1231   13.3342 C   0  0  0  0  0  0  0  0  0  0  0  0
   48.0365   11.1922   11.2581 C   0  0  0  0  0  0  0  0  0  0  0  0
   47.4420    5.9099   21.4474 C   0  0  0  0  0  0  0  0  0  0  0  0
   49.7122    6.5459   21.9598 C   0  0  0  0  0  0  0  0  0  0  0  0
   48.4115    6.2770   22.3784 C   0  0  0  0  0  0  0  0  0  0  0  0
   48.9222   11.2008   15.9405 C   0  0  0  0  0  0  0  0  0  0  0  0
   51.3626    6.0316   18.3005 C   0  0  0  0  0  0  0  0  0  0  0  0
   49.0756    6.6435   17.6541 C   0  0  0  0  0  0  0  0  0  0  0  0
   48.4667    8.8269   16.3536 C   0  0  0  0  0  0  0  0  0  0  0  0
   48.4919   10.1720   16.7887 C   0  0  0  0  0  0  0  0  0  0  0  0
   50.3866    7.0047   18.0421 C   0  0  0  0  0  0  0  0  0  0  0  0
   48.0488    7.7378   17.3441 C   0  0  0  0  0  0  0  0  0  0  0  0
   49.3031   10.8902   14.6313 C   0  0  0  0  0  0  0  0  0  0  0  0
   51.0282    4.6801   18.2022 C   0  0  0  0  0  0  0  0  0  0  0  0
   49.0020   12.6313   16.3326 C   0  0  0  0  0  0  0  0  0  0  0  0
   52.7353    6.4425   18.6785 C   0  0  0  0  0  0  0  0  0  0  0  0
   48.7227    5.2517   17.6119 C   0  0  0  0  0  0  0  0  0  0  0  0
   48.8155    8.5244   14.9992 C   0  0  0  0  0  0  0  0  0  0  0  0
   49.2448    9.5768   14.1499 C   0  0  0  0  0  0  0  0  0  0  0  0
   49.7269    4.2820   17.8765 C   0  0  0  0  0  0  0  0  0  0  0  0
   49.3454   13.5537   15.6164 O   0  0  0  0  0  0  0  0  0  0  0  0
   53.0997    7.5997   18.8066 O   0  0  0  0  0  0  0  0  0  0  0  0
   48.0655   10.4290   18.0691 O   0  0  0  0  0  0  0  0  0  0  0  0
   50.6684    8.3422   18.1800 O   0  0  0  0  0  0  0  0  0  0  0  0
   48.6512   12.8558   17.6156 O   0  0  0  0  0  0  0  0  0  0  0  0
   53.5806    5.4166   18.8722 O   0  0  0  0  0  0  0  0  0  0  0  0
   48.7524    7.2309   14.4278 C   0  0  0  0  0  0  0  0  0  0  0  0
   47.4265    4.7516   17.3239 C   0  0  0  0  0  0  0  0  0  0  0  0
   49.6099    9.3132   12.8189 C   0  0  0  0  0  0  0  0  0  0  0  0
   49.4299    2.9096   17.8231 C   0  0  0  0  0  0  0  0  0  0  0  0
   47.1438    3.3826   17.2773 C   0  0  0  0  0  0  0  0  0  0  0  0
   49.1176    6.9815   13.1020 C   0  0  0  0  0  0  0  0  0  0  0  0
   48.1476    2.4605   17.5238 C   0  0  0  0  0  0  0  0  0  0  0  0
   49.5516    8.0234   12.2980 C   0  0  0  0  0  0  0  0  0  0  0  0
   48.4772    5.8516   17.6117 H   0  0  0  0  0  0  0  0  0  0  0  0
   51.2315    7.5833   15.9002 H   0  0  0  0  0  0  0  0  0  0  0  0
   50.3956    6.0653   15.7795 H   0  0  0  0  0  0  0  0  0  0  0  0
   48.2612    8.2163   18.0326 H   0  0  0  0  0  0  0  0  0  0  0  0
   49.6869    8.7829   18.9126 H   0  0  0  0  0  0  0  0  0  0  0  0
   52.1757    5.5560   18.2978 H   0  0  0  0  0  0  0  0  0  0  0  0
   48.4689    3.4616   17.5689 H   0  0  0  0  0  0  0  0  0  0  0  0
   49.4351    7.6514   14.2172 H   0  0  0  0  0  0  0  0  0  0  0  0
   48.2374    7.2262   15.4196 H   0  0  0  0  0  0  0  0  0  0  0  0
   50.5797    9.7832   16.8038 H   0  0  0  0  0  0  0  0  0  0  0  0
   49.0186   10.4518   17.2910 H   0  0  0  0  0  0  0  0  0  0  0  0
   49.7246    1.3660   17.2506 H   0  0  0  0  0  0  0  0  0  0  0  0
   53.4193    3.4505   17.9851 H   0  0  0  0  0  0  0  0  0  0  0  0
   49.3352   11.1521   14.9574 H   0  0  0  0  0  0  0  0  0  0  0  0
   50.3792    9.9376   14.2610 H   0  0  0  0  0  0  0  0  0  0  0  0
   50.3838   11.5265   10.6925 H   0  0  0  0  0  0  0  0  0  0  0  0
   51.0601    6.6700   20.2939 H   0  0  0  0  0  0  0  0  0  0  0  0
   46.9991    5.5238   19.3850 H   0  0  0  0  0  0  0  0  0  0  0  0
   48.7546   13.1908   10.8036 H   0  0  0  0  0  0  0  0  0  0  0  0
   47.9976   12.3553    9.4249 H   0  0  0  0  0  0  0  0  0  0  0  0
   48.4056    9.1399   12.8525 H   0  0  0  0  0  0  0  0  0  0  0  0
   47.3975   10.3873   13.6325 H   0  0  0  0  0  0  0  0  0  0  0  0
   47.9798   10.2150   10.7646 H   0  0  0  0  0  0  0  0  0  0  0  0
   47.0379   11.5064   11.5802 H   0  0  0  0  0  0  0  0  0  0  0  0
   46.4286    5.6956   21.7764 H   0  0  0  0  0  0  0  0  0  0  0  0
   50.4711    6.8291   22.6847 H   0  0  0  0  0  0  0  0  0  0  0  0
   48.1540    6.3503   23.4316 H   0  0  0  0  0  0  0  0  0  0  0  0
   47.7530    8.1558   18.3135 H   0  0  0  0  0  0  0  0  0  0  0  0
   47.1222    7.3306   16.9328 H   0  0  0  0  0  0  0  0  0  0  0  0
   49.6396   11.6905   13.9727 H   0  0  0  0  0  0  0  0  0  0  0  0
   51.7861    3.9239   18.3990 H   0  0  0  0  0  0  0  0  0  0  0  0
   48.2197   11.3781   18.2569 H   0  0  0  0  0  0  0  0  0  0  0  0
   51.6098    8.4628   18.4263 H   0  0  0  0  0  0  0  0  0  0  0  0
   48.7692   13.8283   17.7065 H   0  0  0  0  0  0  0  0  0  0  0  0
   54.4320    5.8414   19.1080 H   0  0  0  0  0  0  0  0  0  0  0  0
   48.4080    6.3814   15.0088 H   0  0  0  0  0  0  0  0  0  0  0  0
   46.5917    5.4208   17.1354 H   0  0  0  0  0  0  0  0  0  0  0  0
   49.9455   10.1190   12.1691 H   0  0  0  0  0  0  0  0  0  0  0  0
   50.2037    2.1695   18.0209 H   0  0  0  0  0  0  0  0  0  0  0  0
   46.1355    3.0457   17.0506 H   0  0  0  0  0  0  0  0  0  0  0  0
   49.0587    5.9717   12.7046 H   0  0  0  0  0  0  0  0  0  0  0  0
   47.9342    1.3956   17.4900 H   0  0  0  0  0  0  0  0  0  0  0  0
   49.8367    7.8368   11.2665 H   0  0  0  0  0  0  0  0  0  0  0  0
  2  1  1  0
  3 10  1  0
  4  2  1  0
  5  1  1  0
  6  1  1  0
  7  2  1  0
  8  4  2  0
  9  4  1  0
 10  5  1  0
 11  6  1  0
 12 14  2  0
 13  9  2  0
 14  8  1  0
 15 12  1  0
 16  3  1  0
 17 21  1  0
 18 22  1  0
 19  7  2  0
 20  7  1  0
 21 23  1  0
 22 16  1  0
 23 18  1  0
 24 20  2  0
 25 19  1  0
 26 25  2  0
 11  3  1  0
 13 12  1  0
 24 26  1  0
 28 32  2  0
 29 33  1  0
 30 31  1  0
 31 27  2  0
 32 29  1  0
 33 30  1  0
 34 27  1  0
 35 28  1  0
 36 27  1  0
 37 28  1  0
 38 29  2  0
 39 40  1  0
 40 34  2  0
 41 38  1  0
 42 36  2  0
 43 37  2  0
 44 31  1  0
 45 32  1  0
 46 36  1  0
 47 37  1  0
 48 39  1  0
 49 38  1  0
 50 40  1  0
 51 41  1  0
 52 49  2  0
 53 48  2  0
 54 52  1  0
 55 50  2  0
 30 39  2  0
 53 55  1  0
 35 41  2  0
 51 54  2  0
  2 56  1  6
  5 57  1  0
  5 58  1  0
  6 59  1  0
  6 60  1  0
  8 61  1  0
  9 62  1  0
 10 63  1  0
 10 64  1  0
 11 65  1  0
 11 66  1  0
 13 67  1  0
 14 68  1  0
 16 69  1  0
 16 70  1  0
 17 71  1  0
 19 72  1  0
 20 73  1  0
 21 74  1  0
 21 75  1  0
 22 76  1  0
 22 77  1  0
 23 78  1  0
 23 79  1  0
 24 80  1  0
 25 81  1  0
 26 82  1  0
 33 83  1  0
 33 84  1  0
 34 85  1  0
 35 86  1  0
 44 87  1  0
 45 88  1  0
 46 89  1  0
 47 90  1  0
 48 91  1  0
 49 92  1  0
 50 93  1  0
 51 94  1  0
 52 95  1  0
 53 96  1  0
 54 97  1  0
 55 98  1  0
M  END
> <Uni-Dock RESULT> 
ENERGY=   -7.276  LOWER_BOUND=    0.000  UPPER_BOUND=    0.000
INTER + INTRA:          -7.276
INTER:                  -7.276
INTRA:                   0.000
UNBOUND:                 0.000

$$$$

     RDKit          3D

 98103  0  0  0  0  0  0  0  0999 V2000
   51.0407    6.3556   17.7633 N   0  0  0  0  0  0  0  0  0  0  0  0
   51.3631    5.4279   18.8868 C   0  0  1  0  0  0  0  0  0  0  0  0
   52.7794    8.6255   16.6661 N   0  0  0  0  0  0  0  0  0  0  0  0
   50.2921    5.4126   19.9905 C   0  0  0  0  0  0  0  0  0  0  0  0
   50.9300    7.7677   18.2039 C   0  0  0  0  0  0  0  0  0  0  0  0
   52.0357    6.2458   16.6661 C   0  0  0  0  0  0  0  0  0  0  0  0
   51.6356    3.9843   18.4384 C   0  0  0  0  0  0  0  0  0  0  0  0
   48.9181    5.4579   19.6917 C   0  0  0  0  0  0  0  0  0  0  0  0
   50.6824    5.3063   21.3376 C   0  0  0  0  0  0  0  0  0  0  0  0
   52.2086    8.6238   18.0285 C   0  0  0  0  0  0  0  0  0  0  0  0
   52.1979    7.5433   15.8477 C   0  0  0  0  0  0  0  0  0  0  0  0
   48.3716    5.3198   22.0371 C   0  0  0  0  0  0  0  0  0  0  0  0
   49.7268    5.2630   22.3559 C   0  0  0  0  0  0  0  0  0  0  0  0
   47.9625    5.4157   20.7098 C   0  0  0  0  0  0  0  0  0  0  0  0
   47.1960    5.2659   23.2920 Cl  0  0  0  0  0  0  0  0  0  0  0  0
   52.6450    9.9195   15.9832 C   0  0  0  0  0  0  0  0  0  0  0  0
   52.7664   14.9113   15.5750 O   0  0  0  0  0  0  0  0  0  0  0  0
   53.4292   12.1901   15.7635 O   0  0  0  0  0  0  0  0  0  0  0  0
   50.7242    3.2778   17.6347 C   0  0  0  0  0  0  0  0  0  0  0  0
   52.8097    3.3310   18.8498 C   0  0  0  0  0  0  0  0  0  0  0  0
   54.0921   14.4477   15.3263 C   0  0  0  0  0  0  0  0  0  0  0  0
   53.6143   10.9856   16.5158 C   0  0  0  0  0  0  0  0  0  0  0  0
   54.3663   13.2009   16.1601 C   0  0  0  0  0  0  0  0  0  0  0  0
   53.0671    2.0159   18.4588 C   0  0  0  0  0  0  0  0  0  0  0  0
   50.9828    1.9628   17.2448 C   0  0  0  0  0  0  0  0  0  0  0  0
   52.1552    1.3336   17.6561 C   0  0  0  0  0  0  0  0  0  0  0  0
   53.2180    8.8170   14.6863 C   0  0  0  0  0  0  0  0  0  0  0  0
   49.4886    5.5481   18.3810 C   0  0  0  0  0  0  0  0  0  0  0  0
   51.8910    6.0424   18.4636 C   0  0  0  0  0  0  0  0  0  0  0  0
   53.0760    7.7663   16.8974 C   0  0  0  0  0  0  0  0  0  0  0  0
   53.3407    7.6908   15.5106 C   0  0  0  0  0  0  0  0  0  0  0  0
   50.6802    5.9217   17.7432 C   0  0  0  0  0  0  0  0  0  0  0  0
   53.1636    6.4897   17.7369 C   0  0  0  0  0  0  0  0  0  0  0  0
   52.8570   10.0422   15.2555 C   0  0  0  0  0  0  0  0  0  0  0  0
   49.5013    5.2608   19.7467 C   0  0  0  0  0  0  0  0  0  0  0  0
   53.4527    8.8109   13.2195 C   0  0  0  0  0  0  0  0  0  0  0  0
   48.2303    5.4572   17.6036 C   0  0  0  0  0  0  0  0  0  0  0  0
   51.9086    5.6888   19.8558 C   0  0  0  0  0  0  0  0  0  0  0  0
   52.7507    9.0330   17.4782 C   0  0  0  0  0  0  0  0  0  0  0  0
   52.6346   10.1661   16.6323 C   0  0  0  0  0  0  0  0  0  0  0  0
   50.6901    5.3135   20.4828 C   0  0  0  0  0  0  0  0  0  0  0  0
   53.3810    9.7731   12.4772 O   0  0  0  0  0  0  0  0  0  0  0  0
   48.1409    5.6705   16.4058 O   0  0  0  0  0  0  0  0  0  0  0  0
   53.7352    6.4741   15.0089 O   0  0  0  0  0  0  0  0  0  0  0  0
   50.7128    6.1609   16.3908 O   0  0  0  0  0  0  0  0  0  0  0  0
   53.7659    7.5929   12.7318 O   0  0  0  0  0  0  0  0  0  0  0  0
   47.1570    5.1163   18.3362 O   0  0  0  0  0  0  0  0  0  0  0  0
   52.5432    9.2478   18.8619 C   0  0  0  0  0  0  0  0  0  0  0  0
   53.0662    5.6802   20.6763 C   0  0  0  0  0  0  0  0  0  0  0  0
   52.3012   11.4221   17.1668 C   0  0  0  0  0  0  0  0  0  0  0  0
   50.6588    4.9826   21.8481 C   0  0  0  0  0  0  0  0  0  0  0  0
   53.0214    5.3453   22.0335 C   0  0  0  0  0  0  0  0  0  0  0  0
   52.2128   10.5023   19.3816 C   0  0  0  0  0  0  0  0  0  0  0  0
   51.8155    4.9994   22.6209 C   0  0  0  0  0  0  0  0  0  0  0  0
   52.0868   11.5899   18.5322 C   0  0  0  0  0  0  0  0  0  0  0  0
   52.2878    5.8100   19.3444 H   0  0  0  0  0  0  0  0  0  0  0  0
   50.1299    8.2272   17.6080 H   0  0  0  0  0  0  0  0  0  0  0  0
   50.5912    7.8579   19.2415 H   0  0  0  0  0  0  0  0  0  0  0  0
   53.0272    5.9755   17.0549 H   0  0  0  0  0  0  0  0  0  0  0  0
   51.7229    5.4485   15.9830 H   0  0  0  0  0  0  0  0  0  0  0  0
   48.5882    5.5305   18.6574 H   0  0  0  0  0  0  0  0  0  0  0  0
   51.7365    5.2478   21.6013 H   0  0  0  0  0  0  0  0  0  0  0  0
   51.9930    9.6396   18.3814 H   0  0  0  0  0  0  0  0  0  0  0  0
   52.9800    8.2313   18.7035 H   0  0  0  0  0  0  0  0  0  0  0  0
   51.2232    7.8343   15.4328 H   0  0  0  0  0  0  0  0  0  0  0  0
   52.8644    7.3437   15.0000 H   0  0  0  0  0  0  0  0  0  0  0  0
   50.0455    5.1791   23.3917 H   0  0  0  0  0  0  0  0  0  0  0  0
   46.9063    5.4526   20.4580 H   0  0  0  0  0  0  0  0  0  0  0  0
   52.8671    9.7991   14.9139 H   0  0  0  0  0  0  0  0  0  0  0  0
   51.6121   10.2895   16.0250 H   0  0  0  0  0  0  0  0  0  0  0  0
   52.2032   14.1160   15.5078 H   0  0  0  0  0  0  0  0  0  0  0  0
   49.8082    3.7584   17.3005 H   0  0  0  0  0  0  0  0  0  0  0  0
   53.5341    3.8440   19.4779 H   0  0  0  0  0  0  0  0  0  0  0  0
   54.1680   14.2290   14.2573 H   0  0  0  0  0  0  0  0  0  0  0  0
   54.7914   15.2490   15.5774 H   0  0  0  0  0  0  0  0  0  0  0  0
   53.4264   11.1985   17.5733 H   0  0  0  0  0  0  0  0  0  0  0  0
   54.6491   10.6405   16.4009 H   0  0  0  0  0  0  0  0  0  0  0  0
   54.2221   13.4214   17.2241 H   0  0  0  0  0  0  0  0  0  0  0  0
   55.3887   12.8484   15.9869 H   0  0  0  0  0  0  0  0  0  0  0  0
   53.9793    1.5217   18.7829 H   0  0  0  0  0  0  0  0  0  0  0  0
   50.2682    1.4313   16.6215 H   0  0  0  0  0  0  0  0  0  0  0  0
   52.3567    0.3095   17.3536 H   0  0  0  0  0  0  0  0  0  0  0  0
   53.4885    5.6283   17.1417 H   0  0  0  0  0  0  0  0  0  0  0  0
   53.9922    6.6683   18.4261 H   0  0  0  0  0  0  0  0  0  0  0  0
   52.7597   10.9174   14.6136 H   0  0  0  0  0  0  0  0  0  0  0  0
   48.5760    4.9743   20.2437 H   0  0  0  0  0  0  0  0  0  0  0  0
   53.7971    6.5520   14.0343 H   0  0  0  0  0  0  0  0  0  0  0  0
   49.8127    6.0704   16.0125 H   0  0  0  0  0  0  0  0  0  0  0  0
   53.8745    7.7653   11.7693 H   0  0  0  0  0  0  0  0  0  0  0  0
   46.4165    5.1015   17.6941 H   0  0  0  0  0  0  0  0  0  0  0  0
   52.6414    8.4337   19.5730 H   0  0  0  0  0  0  0  0  0  0  0  0
   54.0450    5.9275   20.2750 H   0  0  0  0  0  0  0  0  0  0  0  0
   52.2055   12.2901   16.5175 H   0  0  0  0  0  0  0  0  0  0  0  0
   49.7219    4.7010   22.3263 H   0  0  0  0  0  0  0  0  0  0  0  0
   53.9342    5.3544   22.6236 H   0  0  0  0  0  0  0  0  0  0  0  0
   52.0571   10.6221   20.4505 H   0  0  0  0  0  0  0  0  0  0  0  0
   51.7742    4.7372   23.6745 H   0  0  0  0  0  0  0  0  0  0  0  0
   51.8306   12.5681   18.9293 H   0  0  0  0  0  0  0  0  0  0  0  0
  2  1  1  0
  3 10  1  0
  4  2  1  0
  5  1  1  0
  6  1  1  0
  7  2  1  0
  8  4  2  0
  9  4  1  0
 10  5  1  0
 11  6  1  0
 12 14  2  0
 13  9  2  0
 14  8  1  0
 15 12  1  0
 16  3  1  0
 17 21  1  0
 18 22  1  0
 19  7  2  0
 20  7  1  0
 21 23  1  0
 22 16  1  0
 23 18  1  0
 24 20  2  0
 25 19  1  0
 26 25  2  0
 11  3  1  0
 13 12  1  0
 24 26  1  0
 28 32  2  0
 29 33  1  0
 30 31  1  0
 31 27  2  0
 32 29  1  0
 33 30  1  0
 34 27  1  0
 35 28  1  0
 36 27  1  0
 37 28  1  0
 38 29  2  0
 39 40  1  0
 40 34  2  0
 41 38  1  0
 42 36  2  0
 43 37  2  0
 44 31  1  0
 45 32  1  0
 46 36  1  0
 47 37  1  0
 48 39  1  0
 49 38  1  0
 50 40  1  0
 51 41  1  0
 52 49  2  0
 53 48  2  0
 54 52  1  0
 55 50  2  0
 30 39  2  0
 53 55  1  0
 35 41  2  0
 51 54  2  0
  2 56  1  6
  5 57  1  0
  5 58  1  0
  6 59  1  0
  6 60  1  0
  8 61  1  0
  9 62  1  0
 10 63  1  0
 10 64  1  0
 11 65  1  0
 11 66  1  0
 13 67  1  0
 14 68  1  0
 16 69  1  0
 16 70  1  0
 17 71  1  0
 19 72  1  0
 20 73  1  0
 21 74  1  0
 21 75  1  0
 22 76  1  0
 22 77  1  0
 23 78  1  0
 23 79  1  0
 24 80  1  0
 25 81  1  0
 26 82  1  0
 33 83  1  0
 33 84  1  0
 34 85  1  0
 35 86  1  0
 44 87  1  0
 45 88  1  0
 46 89  1  0
 47 90  1  0
 48 91  1  0
 49 92  1  0
 50 93  1  0
 51 94  1  0
 52 95  1  0
 53 96  1  0
 54 97  1  0
 55 98  1  0
M  END
> <Uni-Dock RESULT> 
ENERGY=   -5.975  LOWER_BOUND=    3.258  UPPER_BOUND=    5.512
INTER + INTRA:          -5.975
INTER:                  -5.975
INTRA:                   0.000
UNBOUND:                 0.000

$$$$

     RDKit          3D

 98103  0  0  0  0  0  0  0  0999 V2000
   43.1410   12.8786   10.6755 N   0  0  0  0  0  0  0  0  0  0  0  0
   44.5441   12.5310   10.3047 C   0  0  1  0  0  0  0  0  0  0  0  0
   42.0727   15.6065   11.5682 N   0  0  0  0  0  0  0  0  0  0  0  0
   45.1124   11.3506   11.1103 C   0  0  0  0  0  0  0  0  0  0  0  0
   43.0118   13.2909   12.0945 C   0  0  0  0  0  0  0  0  0  0  0  0
   42.5921   13.9374    9.7903 C   0  0  0  0  0  0  0  0  0  0  0  0
   44.7366   12.2493    8.8071 C   0  0  0  0  0  0  0  0  0  0  0  0
   44.3317   10.2236   11.4262 C   0  0  0  0  0  0  0  0  0  0  0  0
   46.4606   11.3661   11.5107 C   0  0  0  0  0  0  0  0  0  0  0  0
   43.0453   14.8177   12.3518 C   0  0  0  0  0  0  0  0  0  0  0  0
   41.5090   14.8051   10.4640 C   0  0  0  0  0  0  0  0  0  0  0  0
   46.2117    9.1919   12.5305 C   0  0  0  0  0  0  0  0  0  0  0  0
   47.0066   10.2932   12.2197 C   0  0  0  0  0  0  0  0  0  0  0  0
   44.8771    9.1512   12.1360 C   0  0  0  0  0  0  0  0  0  0  0  0
   46.8855    7.8712   13.4032 Cl  0  0  0  0  0  0  0  0  0  0  0  0
   40.9992   16.1832   12.3889 C   0  0  0  0  0  0  0  0  0  0  0  0
   39.0255   18.5040   16.3661 O   0  0  0  0  0  0  0  0  0  0  0  0
   40.3405   17.8874   13.9640 O   0  0  0  0  0  0  0  0  0  0  0  0
   43.9388   11.3148    8.1245 C   0  0  0  0  0  0  0  0  0  0  0  0
   45.7440   12.9176    8.0907 C   0  0  0  0  0  0  0  0  0  0  0  0
   39.4526   19.5250   15.4665 C   0  0  0  0  0  0  0  0  0  0  0  0
   41.4631   17.3788   13.2345 C   0  0  0  0  0  0  0  0  0  0  0  0
   40.6929   19.0597   14.7114 C   0  0  0  0  0  0  0  0  0  0  0  0
   45.9380   12.6654    6.7315 C   0  0  0  0  0  0  0  0  0  0  0  0
   44.1342   11.0635    6.7654 C   0  0  0  0  0  0  0  0  0  0  0  0
   45.1329   11.7405    6.0699 C   0  0  0  0  0  0  0  0  0  0  0  0
   40.4524   16.4894   10.7058 C   0  0  0  0  0  0  0  0  0  0  0  0
   43.3743   11.0390   10.7405 C   0  0  0  0  0  0  0  0  0  0  0  0
   44.1665   13.3463   10.4724 C   0  0  0  0  0  0  0  0  0  0  0  0
   42.6692   15.4525   10.8609 C   0  0  0  0  0  0  0  0  0  0  0  0
   41.5884   15.9442   10.0933 C   0  0  0  0  0  0  0  0  0  0  0  0
   43.1354   12.3806   10.4097 C   0  0  0  0  0  0  0  0  0  0  0  0
   43.8556   14.8092   10.1393 C   0  0  0  0  0  0  0  0  0  0  0  0
   40.4049   16.5746   12.1008 C   0  0  0  0  0  0  0  0  0  0  0  0
   44.6600   10.6412   11.1102 C   0  0  0  0  0  0  0  0  0  0  0  0
   39.2680   17.0010    9.9696 C   0  0  0  0  0  0  0  0  0  0  0  0
   42.2664   10.0562   10.6913 C   0  0  0  0  0  0  0  0  0  0  0  0
   45.4990   12.9189   10.7969 C   0  0  0  0  0  0  0  0  0  0  0  0
   42.6311   15.5846   12.2853 C   0  0  0  0  0  0  0  0  0  0  0  0
   41.4764   16.1430   12.8919 C   0  0  0  0  0  0  0  0  0  0  0  0
   45.7192   11.5553   11.1294 C   0  0  0  0  0  0  0  0  0  0  0  0
   38.2766   17.5039   10.4657 O   0  0  0  0  0  0  0  0  0  0  0  0
   41.1229   10.3198   10.3580 O   0  0  0  0  0  0  0  0  0  0  0  0
   41.7040   15.8778    8.7259 O   0  0  0  0  0  0  0  0  0  0  0  0
   41.8940   12.7950    9.9919 O   0  0  0  0  0  0  0  0  0  0  0  0
   39.3663   16.8596    8.6317 O   0  0  0  0  0  0  0  0  0  0  0  0
   42.6203    8.8128   11.0568 O   0  0  0  0  0  0  0  0  0  0  0  0
   43.6838   15.2033   13.1514 C   0  0  0  0  0  0  0  0  0  0  0  0
   46.6404   13.7617   10.8119 C   0  0  0  0  0  0  0  0  0  0  0  0
   41.3987   16.2730   14.2888 C   0  0  0  0  0  0  0  0  0  0  0  0
   47.0028   11.1001   11.4755 C   0  0  0  0  0  0  0  0  0  0  0  0
   47.9133   13.2947   11.1551 C   0  0  0  0  0  0  0  0  0  0  0  0
   43.5948   15.3384   14.5396 C   0  0  0  0  0  0  0  0  0  0  0  0
   48.0941   11.9630   11.4906 C   0  0  0  0  0  0  0  0  0  0  0  0
   42.4486   15.8694   15.1092 C   0  0  0  0  0  0  0  0  0  0  0  0
   45.1545   13.4116   10.5547 H   0  0  0  0  0  0  0  0  0  0  0  0
   42.0466   12.9077   12.4526 H   0  0  0  0  0  0  0  0  0  0  0  0
   43.7573   12.8135   12.7394 H   0  0  0  0  0  0  0  0  0  0  0  0
   43.3849   14.6131    9.4406 H   0  0  0  0  0  0  0  0  0  0  0  0
   42.1499   13.4656    8.9060 H   0  0  0  0  0  0  0  0  0  0  0  0
   43.2883   10.1813   11.1203 H   0  0  0  0  0  0  0  0  0  0  0  0
   47.0973   12.2133   11.2639 H   0  0  0  0  0  0  0  0  0  0  0  0
   42.9334   14.9870   13.4295 H   0  0  0  0  0  0  0  0  0  0  0  0
   44.0461   15.1875   12.0942 H   0  0  0  0  0  0  0  0  0  0  0  0
   40.6929   14.1586   10.8143 H   0  0  0  0  0  0  0  0  0  0  0  0
   41.0855   15.4843    9.7144 H   0  0  0  0  0  0  0  0  0  0  0  0
   48.0508   10.3205   12.5201 H   0  0  0  0  0  0  0  0  0  0  0  0
   44.2572    8.2904   12.3706 H   0  0  0  0  0  0  0  0  0  0  0  0
   40.1932   16.5516   11.7394 H   0  0  0  0  0  0  0  0  0  0  0  0
   40.5315   15.4234   13.0289 H   0  0  0  0  0  0  0  0  0  0  0  0
   39.0248   17.6835   15.8361 H   0  0  0  0  0  0  0  0  0  0  0  0
   43.1511   10.7839    8.6529 H   0  0  0  0  0  0  0  0  0  0  0  0
   46.3850   13.6419    8.5876 H   0  0  0  0  0  0  0  0  0  0  0  0
   38.6259   19.7228   14.7783 H   0  0  0  0  0  0  0  0  0  0  0  0
   39.6611   20.4293   16.0435 H   0  0  0  0  0  0  0  0  0  0  0  0
   42.2406   17.0825   13.9462 H   0  0  0  0  0  0  0  0  0  0  0  0
   41.8598   18.1664   12.5820 H   0  0  0  0  0  0  0  0  0  0  0  0
   41.4897   18.8037   15.4193 H   0  0  0  0  0  0  0  0  0  0  0  0
   41.0368   19.8454   14.0302 H   0  0  0  0  0  0  0  0  0  0  0  0
   46.7201   13.1893    6.1883 H   0  0  0  0  0  0  0  0  0  0  0  0
   43.5072   10.3389    6.2522 H   0  0  0  0  0  0  0  0  0  0  0  0
   45.2860   11.5446    5.0120 H   0  0  0  0  0  0  0  0  0  0  0  0
   43.7459   14.8527    9.0494 H   0  0  0  0  0  0  0  0  0  0  0  0
   44.6994   15.4698   10.3513 H   0  0  0  0  0  0  0  0  0  0  0  0
   39.5202   16.9969   12.5767 H   0  0  0  0  0  0  0  0  0  0  0  0
   44.8458    9.6006   11.3708 H   0  0  0  0  0  0  0  0  0  0  0  0
   40.8551   16.1699    8.3337 H   0  0  0  0  0  0  0  0  0  0  0  0
   41.2643   12.0438   10.0155 H   0  0  0  0  0  0  0  0  0  0  0  0
   38.5135   17.2305    8.3105 H   0  0  0  0  0  0  0  0  0  0  0  0
   41.7952    8.2896   10.9772 H   0  0  0  0  0  0  0  0  0  0  0  0
   44.6084   14.7934   12.7577 H   0  0  0  0  0  0  0  0  0  0  0  0
   46.5704   14.8125   10.5454 H   0  0  0  0  0  0  0  0  0  0  0  0
   40.5106   16.6951   14.7549 H   0  0  0  0  0  0  0  0  0  0  0  0
   47.1665   10.0554   11.7353 H   0  0  0  0  0  0  0  0  0  0  0  0
   48.7587   13.9780   11.1546 H   0  0  0  0  0  0  0  0  0  0  0  0
   44.4251   15.0283   15.1684 H   0  0  0  0  0  0  0  0  0  0  0  0
   49.0806   11.5938   11.7572 H   0  0  0  0  0  0  0  0  0  0  0  0
   42.3728   15.9778   16.1875 H   0  0  0  0  0  0  0  0  0  0  0  0
  2  1  1  0
  3 10  1  0
  4  2  1  0
  5  1  1  0
  6  1  1  0
  7  2  1  0
  8  4  2  0
  9  4  1  0
 10  5  1  0
 11  6  1  0
 12 14  2  0
 13  9  2  0
 14  8  1  0
 15 12  1  0
 16  3  1  0
 17 21  1  0
 18 22  1  0
 19  7  2  0
 20  7  1  0
 21 23  1  0
 22 16  1  0
 23 18  1  0
 24 20  2  0
 25 19  1  0
 26 25  2  0
 11  3  1  0
 13 12  1  0
 24 26  1  0
 28 32  2  0
 29 33  1  0
 30 31  1  0
 31 27  2  0
 32 29  1  0
 33 30  1  0
 34 27  1  0
 35 28  1  0
 36 27  1  0
 37 28  1  0
 38 29  2  0
 39 40  1  0
 40 34  2  0
 41 38  1  0
 42 36  2  0
 43 37  2  0
 44 31  1  0
 45 32  1  0
 46 36  1  0
 47 37  1  0
 48 39  1  0
 49 38  1  0
 50 40  1  0
 51 41  1  0
 52 49  2  0
 53 48  2  0
 54 52  1  0
 55 50  2  0
 30 39  2  0
 53 55  1  0
 35 41  2  0
 51 54  2  0
  2 56  1  6
  5 57  1  0
  5 58  1  0
  6 59  1  0
  6 60  1  0
  8 61  1  0
  9 62  1  0
 10 63  1  0
 10 64  1  0
 11 65  1  0
 11 66  1  0
 13 67  1  0
 14 68  1  0
 16 69  1  0
 16 70  1  0
 17 71  1  0
 19 72  1  0
 20 73  1  0
 21 74  1  0
 21 75  1  0
 22 76  1  0
 22 77  1  0
 23 78  1  0
 23 79  1  0
 24 80  1  0
 25 81  1  0
 26 82  1  0
 33 83  1  0
 33 84  1  0
 34 85  1  0
 35 86  1  0
 44 87  1  0
 45 88  1  0
 46 89  1  0
 47 90  1  0
 48 91  1  0
 49 92  1  0
 50 93  1  0
 51 94  1  0
 52 95  1  0
 53 96  1  0
 54 97  1  0
 55 98  1  0
M  END
> <Uni-Dock RESULT> 
ENERGY=   -5.922  LOWER_BOUND=    7.716  UPPER_BOUND=   11.918
INTER + INTRA:          -5.922
INTER:                  -5.922
INTRA:                   0.000
UNBOUND:                 0.000

$$$$

     RDKit          3D

 98103  0  0  0  0  0  0  0  0999 V2000
   48.0357   13.2229   12.3689 N   0  0  0  0  0  0  0  0  0  0  0  0
   48.6251   12.0889   11.5983 C   0  0  1  0  0  0  0  0  0  0  0  0
   49.5069   15.2082   14.1782 N   0  0  0  0  0  0  0  0  0  0  0  0
   47.9630   10.7350   11.9047 C   0  0  0  0  0  0  0  0  0  0  0  0
   48.1815   13.0525   13.8352 C   0  0  0  0  0  0  0  0  0  0  0  0
   48.6183   14.5237   11.9514 C   0  0  0  0  0  0  0  0  0  0  0  0
   48.6273   12.3087   10.0782 C   0  0  0  0  0  0  0  0  0  0  0  0
   46.5732   10.6130   12.0863 C   0  0  0  0  0  0  0  0  0  0  0  0
   48.7518    9.5721   11.9641 C   0  0  0  0  0  0  0  0  0  0  0  0
   49.4007   13.7644   14.4719 C   0  0  0  0  0  0  0  0  0  0  0  0
   48.6127   15.5891   13.0671 C   0  0  0  0  0  0  0  0  0  0  0  0
   46.7920    8.2314   12.4009 C   0  0  0  0  0  0  0  0  0  0  0  0
   48.1693    8.3269   12.2139 C   0  0  0  0  0  0  0  0  0  0  0  0
   45.9908    9.3683   12.3371 C   0  0  0  0  0  0  0  0  0  0  0  0
   46.0760    6.6975   12.7078 Cl  0  0  0  0  0  0  0  0  0  0  0  0
   49.2638   16.0577   15.3520 C   0  0  0  0  0  0  0  0  0  0  0  0
   49.6386   17.4454   20.1513 O   0  0  0  0  0  0  0  0  0  0  0  0
   50.1122   16.9383   17.4314 O   0  0  0  0  0  0  0  0  0  0  0  0
   47.4553   12.6505    9.3814 C   0  0  0  0  0  0  0  0  0  0  0  0
   49.8164   12.1478    9.3470 C   0  0  0  0  0  0  0  0  0  0  0  0
   50.7759   17.9833   19.4796 C   0  0  0  0  0  0  0  0  0  0  0  0
   50.4322   16.0564   16.3493 C   0  0  0  0  0  0  0  0  0  0  0  0
   51.2027   17.0437   18.3571 C   0  0  0  0  0  0  0  0  0  0  0  0
   49.8326   12.3344    7.9637 C   0  0  0  0  0  0  0  0  0  0  0  0
   47.4730   12.8364    7.9981 C   0  0  0  0  0  0  0  0  0  0  0  0
   48.6624   12.6797    7.2908 C   0  0  0  0  0  0  0  0  0  0  0  0
   49.3067   17.2263   13.9889 C   0  0  0  0  0  0  0  0  0  0  0  0
   46.7025   12.0256   11.8875 C   0  0  0  0  0  0  0  0  0  0  0  0
   49.0373   12.7613   12.0602 C   0  0  0  0  0  0  0  0  0  0  0  0
   49.7935   14.9135   13.3351 C   0  0  0  0  0  0  0  0  0  0  0  0
   49.5968   16.2738   13.0033 C   0  0  0  0  0  0  0  0  0  0  0  0
   47.6548   13.0498   11.9899 C   0  0  0  0  0  0  0  0  0  0  0  0
   50.0436   13.9072   12.2096 C   0  0  0  0  0  0  0  0  0  0  0  0
   49.2423   16.8247   15.3268 C   0  0  0  0  0  0  0  0  0  0  0  0
   47.1263   10.6973   11.8238 C   0  0  0  0  0  0  0  0  0  0  0  0
   49.0615   18.6658   13.7162 C   0  0  0  0  0  0  0  0  0  0  0  0
   45.2593   12.3588   11.8435 C   0  0  0  0  0  0  0  0  0  0  0  0
   49.4691   11.3970   11.9353 C   0  0  0  0  0  0  0  0  0  0  0  0
   49.7698   14.5199   14.7107 C   0  0  0  0  0  0  0  0  0  0  0  0
   49.4796   15.4959   15.6987 C   0  0  0  0  0  0  0  0  0  0  0  0
   48.4878   10.3745   11.8331 C   0  0  0  0  0  0  0  0  0  0  0  0
   48.8329   19.5250   14.5477 O   0  0  0  0  0  0  0  0  0  0  0  0
   44.8106   13.4929   11.8722 O   0  0  0  0  0  0  0  0  0  0  0  0
   49.7149   16.6238   11.6800 O   0  0  0  0  0  0  0  0  0  0  0  0
   47.2742   14.3697   12.0026 O   0  0  0  0  0  0  0  0  0  0  0  0
   49.1072   18.9783   12.4048 O   0  0  0  0  0  0  0  0  0  0  0  0
   44.4515   11.2877   11.7723 O   0  0  0  0  0  0  0  0  0  0  0  0
   50.0306   13.2067   15.1705 C   0  0  0  0  0  0  0  0  0  0  0  0
   50.8231   10.9741   11.9024 C   0  0  0  0  0  0  0  0  0  0  0  0
   49.4327   15.1410   17.0575 C   0  0  0  0  0  0  0  0  0  0  0  0
   48.8666    9.0251   11.7326 C   0  0  0  0  0  0  0  0  0  0  0  0
   51.1862    9.6274   11.7986 C   0  0  0  0  0  0  0  0  0  0  0  0
   49.9816   12.8663   16.5251 C   0  0  0  0  0  0  0  0  0  0  0  0
   50.2066    8.6514   11.7170 C   0  0  0  0  0  0  0  0  0  0  0  0
   49.6774   13.8338   17.4693 C   0  0  0  0  0  0  0  0  0  0  0  0
   49.6742   12.0116   11.9208 H   0  0  0  0  0  0  0  0  0  0  0  0
   47.2718   13.4599   14.2968 H   0  0  0  0  0  0  0  0  0  0  0  0
   48.1984   11.9994   14.1354 H   0  0  0  0  0  0  0  0  0  0  0  0
   49.6577   14.4038   11.6159 H   0  0  0  0  0  0  0  0  0  0  0  0
   48.0433   14.9137   11.1045 H   0  0  0  0  0  0  0  0  0  0  0  0
   45.9383   11.4952   12.0359 H   0  0  0  0  0  0  0  0  0  0  0  0
   49.8271    9.6289   11.8071 H   0  0  0  0  0  0  0  0  0  0  0  0
   49.3885   13.5677   15.5507 H   0  0  0  0  0  0  0  0  0  0  0  0
   50.3136   13.2876   14.0923 H   0  0  0  0  0  0  0  0  0  0  0  0
   47.5825   15.7424   13.4165 H   0  0  0  0  0  0  0  0  0  0  0  0
   48.9573   16.5413   12.6463 H   0  0  0  0  0  0  0  0  0  0  0  0
   48.7933    7.4379   12.2549 H   0  0  0  0  0  0  0  0  0  0  0  0
   44.9156    9.2955   12.4751 H   0  0  0  0  0  0  0  0  0  0  0  0
   49.1242   17.0997   15.0330 H   0  0  0  0  0  0  0  0  0  0  0  0
   48.3301   15.7823   15.8598 H   0  0  0  0  0  0  0  0  0  0  0  0
   49.0229   17.1856   19.4388 H   0  0  0  0  0  0  0  0  0  0  0  0
   46.5212   12.7828    9.9212 H   0  0  0  0  0  0  0  0  0  0  0  0
   50.7407   11.8767    9.8517 H   0  0  0  0  0  0  0  0  0  0  0  0
   50.4906   18.9624   19.0841 H   0  0  0  0  0  0  0  0  0  0  0  0
   51.5791   18.1131   20.2091 H   0  0  0  0  0  0  0  0  0  0  0  0
   50.6077   15.0535   16.7523 H   0  0  0  0  0  0  0  0  0  0  0  0
   51.3466   16.4055   15.8539 H   0  0  0  0  0  0  0  0  0  0  0  0
   51.4221   16.0493   18.7627 H   0  0  0  0  0  0  0  0  0  0  0  0
   52.0861   17.4422   17.8469 H   0  0  0  0  0  0  0  0  0  0  0  0
   50.7590   12.2077    7.4096 H   0  0  0  0  0  0  0  0  0  0  0  0
   46.5581   13.1023    7.4748 H   0  0  0  0  0  0  0  0  0  0  0  0
   48.6766   12.8235    6.2137 H   0  0  0  0  0  0  0  0  0  0  0  0
   50.0940   14.3929   11.2281 H   0  0  0  0  0  0  0  0  0  0  0  0
   51.0596   13.5451   12.3831 H   0  0  0  0  0  0  0  0  0  0  0  0
   49.0146   17.5656   16.0928 H   0  0  0  0  0  0  0  0  0  0  0  0
   46.3878    9.9012   11.7480 H   0  0  0  0  0  0  0  0  0  0  0  0
   49.4696   17.5682   11.5915 H   0  0  0  0  0  0  0  0  0  0  0  0
   46.2963   14.4370   11.9748 H   0  0  0  0  0  0  0  0  0  0  0  0
   48.9172   19.9435   12.4044 H   0  0  0  0  0  0  0  0  0  0  0  0
   43.5464   11.6639   11.7547 H   0  0  0  0  0  0  0  0  0  0  0  0
   50.2859   12.4134   14.4752 H   0  0  0  0  0  0  0  0  0  0  0  0
   51.6396   11.6892   11.9480 H   0  0  0  0  0  0  0  0  0  0  0  0
   49.2036   15.8879   17.8150 H   0  0  0  0  0  0  0  0  0  0  0  0
   48.1114    8.2439   11.6602 H   0  0  0  0  0  0  0  0  0  0  0  0
   52.2371    9.3502   11.7790 H   0  0  0  0  0  0  0  0  0  0  0  0
   50.1838   11.8443   16.8345 H   0  0  0  0  0  0  0  0  0  0  0  0
   50.4821    7.6036   11.6352 H   0  0  0  0  0  0  0  0  0  0  0  0
   49.6380   13.5763   18.5240 H   0  0  0  0  0  0  0  0  0  0  0  0
  2  1  1  0
  3 10  1  0
  4  2  1  0
  5  1  1  0
  6  1  1  0
  7  2  1  0
  8  4  2  0
  9  4  1  0
 10  5  1  0
 11  6  1  0
 12 14  2  0
 13  9  2  0
 14  8  1  0
 15 12  1  0
 16  3  1  0
 17 21  1  0
 18 22  1  0
 19  7  2  0
 20  7  1  0
 21 23  1  0
 22 16  1  0
 23 18  1  0
 24 20  2  0
 25 19  1  0
 26 25  2  0
 11  3  1  0
 13 12  1  0
 24 26  1  0
 28 32  2  0
 29 33  1  0
 30 31  1  0
 31 27  2  0
 32 29  1  0
 33 30  1  0
 34 27  1  0
 35 28  1  0
 36 27  1  0
 37 28  1  0
 38 29  2  0
 39 40  1  0
 40 34  2  0
 41 38  1  0
 42 36  2  0
 43 37  2  0
 44 31  1  0
 45 32  1  0
 46 36  1  0
 47 37  1  0
 48 39  1  0
 49 38  1  0
 50 40  1  0
 51 41  1  0
 52 49  2  0
 53 48  2  0
 54 52  1  0
 55 50  2  0
 30 39  2  0
 53 55  1  0
 35 41  2  0
 51 54  2  0
  2 56  1  6
  5 57  1  0
  5 58  1  0
  6 59  1  0
  6 60  1  0
  8 61  1  0
  9 62  1  0
 10 63  1  0
 10 64  1  0
 11 65  1  0
 11 66  1  0
 13 67  1  0
 14 68  1  0
 16 69  1  0
 16 70  1  0
 17 71  1  0
 19 72  1  0
 20 73  1  0
 21 74  1  0
 21 75  1  0
 22 76  1  0
 22 77  1  0
 23 78  1  0
 23 79  1  0
 24 80  1  0
 25 81  1  0
 26 82  1  0
 33 83  1  0
 33 84  1  0
 34 85  1  0
 35 86  1  0
 44 87  1  0
 45 88  1  0
 46 89  1  0
 47 90  1  0
 48 91  1  0
 49 92  1  0
 50 93  1  0
 51 94  1  0
 52 95  1  0
 53 96  1  0
 54 97  1  0
 55 98  1  0
M  END
> <Uni-Dock RESULT> 
ENERGY=   -5.199  LOWER_BOUND=    6.257  UPPER_BOUND=    9.329
INTER + INTRA:          -5.199
INTER:                  -5.199
INTRA:                   0.000
UNBOUND:                 0.000

$$$$

     RDKit          3D

 98103  0  0  0  0  0  0  0  0999 V2000
   50.2855    8.3207   14.1260 N   0  0  0  0  0  0  0  0  0  0  0  0
   49.2416    9.3824   14.0262 C   0  0  1  0  0  0  0  0  0  0  0  0
   53.1730    8.4479   13.1131 N   0  0  0  0  0  0  0  0  0  0  0  0
   47.9480    8.9027   13.3467 C   0  0  0  0  0  0  0  0  0  0  0  0
   50.7179    7.8198   12.7984 C   0  0  0  0  0  0  0  0  0  0  0  0
   51.4650    8.7900   14.8970 C   0  0  0  0  0  0  0  0  0  0  0  0
   48.8854   10.0285   15.3734 C   0  0  0  0  0  0  0  0  0  0  0  0
   47.4116    7.6252   13.5905 C   0  0  0  0  0  0  0  0  0  0  0  0
   47.2486    9.7713   12.4896 C   0  0  0  0  0  0  0  0  0  0  0  0
   51.9959    8.4767   12.2209 C   0  0  0  0  0  0  0  0  0  0  0  0
   52.7825    8.0967   14.4927 C   0  0  0  0  0  0  0  0  0  0  0  0
   45.5497    8.0939   12.1302 C   0  0  0  0  0  0  0  0  0  0  0  0
   46.0569    9.3677   11.8822 C   0  0  0  0  0  0  0  0  0  0  0  0
   46.2206    7.2210   12.9825 C   0  0  0  0  0  0  0  0  0  0  0  0
   44.0820    7.5984   11.3820 Cl  0  0  0  0  0  0  0  0  0  0  0  0
   54.2404    7.5584   12.6355 C   0  0  0  0  0  0  0  0  0  0  0  0
   57.2957    5.4871    9.2482 O   0  0  0  0  0  0  0  0  0  0  0  0
   56.0501    7.2129   11.0784 O   0  0  0  0  0  0  0  0  0  0  0  0
   48.5109    9.2549   16.4856 C   0  0  0  0  0  0  0  0  0  0  0  0
   48.9087   11.4269   15.5096 C   0  0  0  0  0  0  0  0  0  0  0  0
   57.9243    6.6906    9.6848 C   0  0  0  0  0  0  0  0  0  0  0  0
   55.0152    8.1342   11.4406 C   0  0  0  0  0  0  0  0  0  0  0  0
   56.8633    7.7338   10.0179 C   0  0  0  0  0  0  0  0  0  0  0  0
   48.5781   12.0296   16.7245 C   0  0  0  0  0  0  0  0  0  0  0  0
   48.1803    9.8590   17.6997 C   0  0  0  0  0  0  0  0  0  0  0  0
   48.2158   11.2462   17.8182 C   0  0  0  0  0  0  0  0  0  0  0  0
   54.7732    8.0029   14.2920 C   0  0  0  0  0  0  0  0  0  0  0  0
   48.6040    7.5795   14.3826 C   0  0  0  0  0  0  0  0  0  0  0  0
   50.1346    9.4179   13.8345 C   0  0  0  0  0  0  0  0  0  0  0  0
   52.7183    9.1295   13.5697 C   0  0  0  0  0  0  0  0  0  0  0  0
   53.7014    8.8672   14.5515 C   0  0  0  0  0  0  0  0  0  0  0  0
   49.8640    8.1877   14.4771 C   0  0  0  0  0  0  0  0  0  0  0  0
   51.5355   10.0309   13.9308 C   0  0  0  0  0  0  0  0  0  0  0  0
   54.8848    7.4161   13.0277 C   0  0  0  0  0  0  0  0  0  0  0  0
   47.5875    8.2128   13.6660 C   0  0  0  0  0  0  0  0  0  0  0  0
   55.8284    7.6577   15.2789 C   0  0  0  0  0  0  0  0  0  0  0  0
   48.3599    6.2764   15.0447 C   0  0  0  0  0  0  0  0  0  0  0  0
   49.0677   10.0919   13.1482 C   0  0  0  0  0  0  0  0  0  0  0  0
   52.8649    8.5600   12.2651 C   0  0  0  0  0  0  0  0  0  0  0  0
   53.9578    7.6904   12.0150 C   0  0  0  0  0  0  0  0  0  0  0  0
   47.7990    9.4579   13.0637 C   0  0  0  0  0  0  0  0  0  0  0  0
   56.7864    6.9330   15.0813 O   0  0  0  0  0  0  0  0  0  0  0  0
   49.1876    5.6712   15.7058 O   0  0  0  0  0  0  0  0  0  0  0  0
   53.5697    9.5035   15.7619 O   0  0  0  0  0  0  0  0  0  0  0  0
   50.8705    7.6167   15.2175 O   0  0  0  0  0  0  0  0  0  0  0  0
   55.6428    8.2319   16.4852 O   0  0  0  0  0  0  0  0  0  0  0  0
   47.1224    5.7890   14.8556 O   0  0  0  0  0  0  0  0  0  0  0  0
   51.9913    8.8126   11.1803 C   0  0  0  0  0  0  0  0  0  0  0  0
   49.1750   11.3671   12.5352 C   0  0  0  0  0  0  0  0  0  0  0  0
   54.1235    7.1014   10.7501 C   0  0  0  0  0  0  0  0  0  0  0  0
   46.7348   10.0720   12.3818 C   0  0  0  0  0  0  0  0  0  0  0  0
   48.1065   11.9684   11.8624 C   0  0  0  0  0  0  0  0  0  0  0  0
   52.1673    8.2211    9.9264 C   0  0  0  0  0  0  0  0  0  0  0  0
   46.8858   11.3185   11.7827 C   0  0  0  0  0  0  0  0  0  0  0  0
   53.2321    7.3604    9.7126 C   0  0  0  0  0  0  0  0  0  0  0  0
   49.6656   10.1702   13.3858 H   0  0  0  0  0  0  0  0  0  0  0  0
   50.9100    6.7439   12.9093 H   0  0  0  0  0  0  0  0  0  0  0  0
   49.9239    7.8847   12.0468 H   0  0  0  0  0  0  0  0  0  0  0  0
   51.6124    9.8723   14.7776 H   0  0  0  0  0  0  0  0  0  0  0  0
   51.2914    8.5982   15.9615 H   0  0  0  0  0  0  0  0  0  0  0  0
   47.9272    6.9366   14.2568 H   0  0  0  0  0  0  0  0  0  0  0  0
   47.6253   10.7738   12.2966 H   0  0  0  0  0  0  0  0  0  0  0  0
   52.2098    8.0159   11.2490 H   0  0  0  0  0  0  0  0  0  0  0  0
   51.7746    9.5306   12.0090 H   0  0  0  0  0  0  0  0  0  0  0  0
   52.6723    7.0104   14.6136 H   0  0  0  0  0  0  0  0  0  0  0  0
   53.5752    8.4203   15.1779 H   0  0  0  0  0  0  0  0  0  0  0  0
   45.5281   10.0521   11.2238 H   0  0  0  0  0  0  0  0  0  0  0  0
   45.8234    6.2299   13.1834 H   0  0  0  0  0  0  0  0  0  0  0  0
   54.9742    7.3963   13.4370 H   0  0  0  0  0  0  0  0  0  0  0  0
   53.8519    6.5608   12.3919 H   0  0  0  0  0  0  0  0  0  0  0  0
   56.5957    5.3135    9.9070 H   0  0  0  0  0  0  0  0  0  0  0  0
   48.4852    8.1708   16.4097 H   0  0  0  0  0  0  0  0  0  0  0  0
   49.1866   12.0575   14.6684 H   0  0  0  0  0  0  0  0  0  0  0  0
   58.5242    6.4463   10.5662 H   0  0  0  0  0  0  0  0  0  0  0  0
   58.5853    7.0437    8.8895 H   0  0  0  0  0  0  0  0  0  0  0  0
   54.3582    8.2831   10.5774 H   0  0  0  0  0  0  0  0  0  0  0  0
   55.4647    9.0963   11.7154 H   0  0  0  0  0  0  0  0  0  0  0  0
   56.2302    7.9185    9.1424 H   0  0  0  0  0  0  0  0  0  0  0  0
   57.3390    8.6668   10.3384 H   0  0  0  0  0  0  0  0  0  0  0  0
   48.6006   13.1123   16.8173 H   0  0  0  0  0  0  0  0  0  0  0  0
   47.8945    9.2459   18.5506 H   0  0  0  0  0  0  0  0  0  0  0  0
   47.9577   11.7171   18.7630 H   0  0  0  0  0  0  0  0  0  0  0  0
   51.6195   10.4306   14.9482 H   0  0  0  0  0  0  0  0  0  0  0  0
   51.6487   10.9066   13.2876 H   0  0  0  0  0  0  0  0  0  0  0  0
   55.7175    6.7424   12.8272 H   0  0  0  0  0  0  0  0  0  0  0  0
   46.6101    7.7397   13.5889 H   0  0  0  0  0  0  0  0  0  0  0  0
   54.2643    9.1624   16.3627 H   0  0  0  0  0  0  0  0  0  0  0  0
   50.5691    6.7607   15.5891 H   0  0  0  0  0  0  0  0  0  0  0  0
   56.4069    7.8960   17.0060 H   0  0  0  0  0  0  0  0  0  0  0  0
   47.1170    4.9380   15.3421 H   0  0  0  0  0  0  0  0  0  0  0  0
   51.1488    9.4880   11.2892 H   0  0  0  0  0  0  0  0  0  0  0  0
   50.0996   11.9363   12.5733 H   0  0  0  0  0  0  0  0  0  0  0  0
   54.9579    6.4292   10.5598 H   0  0  0  0  0  0  0  0  0  0  0  0
   45.7656    9.5802   12.3144 H   0  0  0  0  0  0  0  0  0  0  0  0
   48.2359   12.9465   11.4061 H   0  0  0  0  0  0  0  0  0  0  0  0
   51.4697    8.4388    9.1220 H   0  0  0  0  0  0  0  0  0  0  0  0
   46.0516   11.7807   11.2622 H   0  0  0  0  0  0  0  0  0  0  0  0
   53.3751    6.8974    8.7403 H   0  0  0  0  0  0  0  0  0  0  0  0
  2  1  1  0
  3 10  1  0
  4  2  1  0
  5  1  1  0
  6  1  1  0
  7  2  1  0
  8  4  2  0
  9  4  1  0
 10  5  1  0
 11  6  1  0
 12 14  2  0
 13  9  2  0
 14  8  1  0
 15 12  1  0
 16  3  1  0
 17 21  1  0
 18 22  1  0
 19  7  2  0
 20  7  1  0
 21 23  1  0
 22 16  1  0
 23 18  1  0
 24 20  2  0
 25 19  1  0
 26 25  2  0
 11  3  1  0
 13 12  1  0
 24 26  1  0
 28 32  2  0
 29 33  1  0
 30 31  1  0
 31 27  2  0
 32 29  1  0
 33 30  1  0
 34 27  1  0
 35 28  1  0
 36 27  1  0
 37 28  1  0
 38 29  2  0
 39 40  1  0
 40 34  2  0
 41 38  1  0
 42 36  2  0
 43 37  2  0
 44 31  1  0
 45 32  1  0
 46 36  1  0
 47 37  1  0
 48 39  1  0
 49 38  1  0
 50 40  1  0
 51 41  1  0
 52 49  2  0
 53 48  2  0
 54 52  1  0
 55 50  2  0
 30 39  2  0
 53 55  1  0
 35 41  2  0
 51 54  2  0
  2 56  1  6
  5 57  1  0
  5 58  1  0
  6 59  1  0
  6 60  1  0
  8 61  1  0
  9 62  1  0
 10 63  1  0
 10 64  1  0
 11 65  1  0
 11 66  1  0
 13 67  1  0
 14 68  1  0
 16 69  1  0
 16 70  1  0
 17 71  1  0
 19 72  1  0
 20 73  1  0
 21 74  1  0
 21 75  1  0
 22 76  1  0
 22 77  1  0
 23 78  1  0
 23 79  1  0
 24 80  1  0
 25 81  1  0
 26 82  1  0
 33 83  1  0
 33 84  1  0
 34 85  1  0
 35 86  1  0
 44 87  1  0
 45 88  1  0
 46 89  1  0
 47 90  1  0
 48 91  1  0
 49 92  1  0
 50 93  1  0
 51 94  1  0
 52 95  1  0
 53 96  1  0
 54 97  1  0
 55 98  1  0
M  END
> <Uni-Dock RESULT> 
ENERGY=   -5.174  LOWER_BOUND=    4.097  UPPER_BOUND=    7.070
INTER + INTRA:          -5.174
INTER:                  -5.174
INTRA:                   0.000
UNBOUND:                 0.000

$$$$

     RDKit          3D

 98103  0  0  0  0  0  0  0  0999 V2000
   49.3591   10.4395   14.5371 N   0  0  0  0  0  0  0  0  0  0  0  0
   49.0850    9.3154   13.5946 C   0  0  1  0  0  0  0  0  0  0  0  0
   50.2848   10.2432   17.4498 N   0  0  0  0  0  0  0  0  0  0  0  0
   47.6767    9.3666   12.9786 C   0  0  0  0  0  0  0  0  0  0  0  0
   48.4370   10.4469   15.6990 C   0  0  0  0  0  0  0  0  0  0  0  0
   50.7668   10.4203   15.0100 C   0  0  0  0  0  0  0  0  0  0  0  0
   50.1176    9.1896   12.4645 C   0  0  0  0  0  0  0  0  0  0  0  0
   47.0868   10.5785   12.5755 C   0  0  0  0  0  0  0  0  0  0  0  0
   46.9658    8.1716   12.7667 C   0  0  0  0  0  0  0  0  0  0  0  0
   48.9711    9.7584   16.9793 C   0  0  0  0  0  0  0  0  0  0  0  0
   50.9570   11.0443   16.4080 C   0  0  0  0  0  0  0  0  0  0  0  0
   45.1274    9.4036   11.8017 C   0  0  0  0  0  0  0  0  0  0  0  0
   45.6963    8.1904   12.1837 C   0  0  0  0  0  0  0  0  0  0  0  0
   45.8170   10.5977   11.9935 C   0  0  0  0  0  0  0  0  0  0  0  0
   43.5643    9.4253   11.0834 Cl  0  0  0  0  0  0  0  0  0  0  0  0
   50.2078   10.9942   18.7102 C   0  0  0  0  0  0  0  0  0  0  0  0
   48.6661   11.9473   23.3808 O   0  0  0  0  0  0  0  0  0  0  0  0
   49.9498   10.9161   21.1074 O   0  0  0  0  0  0  0  0  0  0  0  0
   50.4463   10.2809   11.6418 C   0  0  0  0  0  0  0  0  0  0  0  0
   50.7435    7.9556   12.2193 C   0  0  0  0  0  0  0  0  0  0  0  0
   49.7845   11.0689   23.4900 C   0  0  0  0  0  0  0  0  0  0  0  0
   49.9714   10.0958   19.9336 C   0  0  0  0  0  0  0  0  0  0  0  0
   49.8144   10.1228   22.2946 C   0  0  0  0  0  0  0  0  0  0  0  0
   51.6768    7.8228   11.1897 C   0  0  0  0  0  0  0  0  0  0  0  0
   51.3795   10.1464   10.6126 C   0  0  0  0  0  0  0  0  0  0  0  0
   51.9951    8.9175   10.3887 C   0  0  0  0  0  0  0  0  0  0  0  0
   51.8971   11.2632   18.1630 C   0  0  0  0  0  0  0  0  0  0  0  0
   48.3291   11.0429   13.1166 C   0  0  0  0  0  0  0  0  0  0  0  0
   49.4598    9.3039   14.4281 C   0  0  0  0  0  0  0  0  0  0  0  0
   50.6158    9.7398   16.7309 C   0  0  0  0  0  0  0  0  0  0  0  0
   51.8009   10.4530   17.0240 C   0  0  0  0  0  0  0  0  0  0  0  0
   49.3324   10.6499   14.0139 C   0  0  0  0  0  0  0  0  0  0  0  0
   50.5458    8.9220   15.4393 C   0  0  0  0  0  0  0  0  0  0  0  0
   50.8095   11.3400   19.0386 C   0  0  0  0  0  0  0  0  0  0  0  0
   47.4571   10.0842   12.5983 C   0  0  0  0  0  0  0  0  0  0  0  0
   53.0964   12.0622   18.5235 C   0  0  0  0  0  0  0  0  0  0  0  0
   48.2043   12.4660   12.7230 C   0  0  0  0  0  0  0  0  0  0  0  0
   48.5968    8.3139   13.8462 C   0  0  0  0  0  0  0  0  0  0  0  0
   49.5245    9.7891   17.6553 C   0  0  0  0  0  0  0  0  0  0  0  0
   49.6375   10.6099   18.8070 C   0  0  0  0  0  0  0  0  0  0  0  0
   47.5865    8.7334   12.9396 C   0  0  0  0  0  0  0  0  0  0  0  0
   53.2252   12.7553   19.5159 O   0  0  0  0  0  0  0  0  0  0  0  0
   48.9389   13.3582   13.1138 O   0  0  0  0  0  0  0  0  0  0  0  0
   52.8554   10.3082   16.1553 O   0  0  0  0  0  0  0  0  0  0  0  0
   50.2391   11.5591   14.5024 O   0  0  0  0  0  0  0  0  0  0  0  0
   54.0947   11.9675   17.6213 O   0  0  0  0  0  0  0  0  0  0  0  0
   47.1878   12.7145   11.8805 O   0  0  0  0  0  0  0  0  0  0  0  0
   48.3213    9.0575   17.5106 C   0  0  0  0  0  0  0  0  0  0  0  0
   48.6706    6.9206   14.1041 C   0  0  0  0  0  0  0  0  0  0  0  0
   48.5792   10.6941   19.7275 C   0  0  0  0  0  0  0  0  0  0  0  0
   46.7063    7.8006   12.3655 C   0  0  0  0  0  0  0  0  0  0  0  0
   47.7899    6.0024   13.5231 C   0  0  0  0  0  0  0  0  0  0  0  0
   47.2760    9.1493   18.4337 C   0  0  0  0  0  0  0  0  0  0  0  0
   46.8044    6.4434   12.6553 C   0  0  0  0  0  0  0  0  0  0  0  0
   47.4033    9.9725   19.5410 C   0  0  0  0  0  0  0  0  0  0  0  0
   49.1386    8.3936   14.1929 H   0  0  0  0  0  0  0  0  0  0  0  0
   48.2336   11.4992   15.9395 H   0  0  0  0  0  0  0  0  0  0  0  0
   47.4566   10.0217   15.4591 H   0  0  0  0  0  0  0  0  0  0  0  0
   51.1578    9.3943   15.0514 H   0  0  0  0  0  0  0  0  0  0  0  0
   51.3865   10.9789   14.3000 H   0  0  0  0  0  0  0  0  0  0  0  0
   47.6187   11.5168   12.7190 H   0  0  0  0  0  0  0  0  0  0  0  0
   47.4025    7.2153   13.0478 H   0  0  0  0  0  0  0  0  0  0  0  0
   48.2037    9.8397   17.7586 H   0  0  0  0  0  0  0  0  0  0  0  0
   49.0752    8.6853   16.7743 H   0  0  0  0  0  0  0  0  0  0  0  0
   50.5866   12.0785   16.3966 H   0  0  0  0  0  0  0  0  0  0  0  0
   52.0297   11.0867   16.6315 H   0  0  0  0  0  0  0  0  0  0  0  0
   45.1613    7.2576   12.0256 H   0  0  0  0  0  0  0  0  0  0  0  0
   45.3788   11.5443   11.6897 H   0  0  0  0  0  0  0  0  0  0  0  0
   51.1556   11.5213   18.8861 H   0  0  0  0  0  0  0  0  0  0  0  0
   49.4431   11.7806   18.6624 H   0  0  0  0  0  0  0  0  0  0  0  0
   48.6953   12.2817   22.4634 H   0  0  0  0  0  0  0  0  0  0  0  0
   49.9787   11.2479   11.8092 H   0  0  0  0  0  0  0  0  0  0  0  0
   50.5086    7.0878   12.8310 H   0  0  0  0  0  0  0  0  0  0  0  0
   50.6857   11.6878   23.5228 H   0  0  0  0  0  0  0  0  0  0  0  0
   49.6981   10.5139   24.4273 H   0  0  0  0  0  0  0  0  0  0  0  0
   49.0164    9.5656   19.8568 H   0  0  0  0  0  0  0  0  0  0  0  0
   50.7806    9.3601   20.0190 H   0  0  0  0  0  0  0  0  0  0  0  0
   48.8769    9.5575   22.2395 H   0  0  0  0  0  0  0  0  0  0  0  0
   50.6615    9.4338   22.3799 H   0  0  0  0  0  0  0  0  0  0  0  0
   52.1546    6.8632   11.0106 H   0  0  0  0  0  0  0  0  0  0  0  0
   51.6236   11.0010    9.9866 H   0  0  0  0  0  0  0  0  0  0  0  0
   52.7211    8.8120    9.5869 H   0  0  0  0  0  0  0  0  0  0  0  0
   51.4925    8.9451   14.8869 H   0  0  0  0  0  0  0  0  0  0  0  0
   50.4542    7.8857   15.7727 H   0  0  0  0  0  0  0  0  0  0  0  0
   50.8842   11.9719   19.9232 H   0  0  0  0  0  0  0  0  0  0  0  0
   46.6755   10.3887   11.9044 H   0  0  0  0  0  0  0  0  0  0  0  0
   53.5671   10.9207   16.4352 H   0  0  0  0  0  0  0  0  0  0  0  0
   50.0308   12.4554   14.1636 H   0  0  0  0  0  0  0  0  0  0  0  0
   54.7882   12.5523   18.0021 H   0  0  0  0  0  0  0  0  0  0  0  0
   47.2333   13.6804   11.7194 H   0  0  0  0  0  0  0  0  0  0  0  0
   48.1738    8.3886   16.6688 H   0  0  0  0  0  0  0  0  0  0  0  0
   49.4287    6.5074   14.7635 H   0  0  0  0  0  0  0  0  0  0  0  0
   48.6629   11.3287   20.6076 H   0  0  0  0  0  0  0  0  0  0  0  0
   45.9296    8.1268   11.6755 H   0  0  0  0  0  0  0  0  0  0  0  0
   47.8833    4.9438   13.7518 H   0  0  0  0  0  0  0  0  0  0  0  0
   46.3668    8.5735   18.2816 H   0  0  0  0  0  0  0  0  0  0  0  0
   46.1178    5.7350   12.2000 H   0  0  0  0  0  0  0  0  0  0  0  0
   46.5949   10.0483   20.2628 H   0  0  0  0  0  0  0  0  0  0  0  0
  2  1  1  0
  3 10  1  0
  4  2  1  0
  5  1  1  0
  6  1  1  0
  7  2  1  0
  8  4  2  0
  9  4  1  0
 10  5  1  0
 11  6  1  0
 12 14  2  0
 13  9  2  0
 14  8  1  0
 15 12  1  0
 16  3  1  0
 17 21  1  0
 18 22  1  0
 19  7  2  0
 20  7  1  0
 21 23  1  0
 22 16  1  0
 23 18  1  0
 24 20  2  0
 25 19  1  0
 26 25  2  0
 11  3  1  0
 13 12  1  0
 24 26  1  0
 28 32  2  0
 29 33  1  0
 30 31  1  0
 31 27  2  0
 32 29  1  0
 33 30  1  0
 34 27  1  0
 35 28  1  0
 36 27  1  0
 37 28  1  0
 38 29  2  0
 39 40  1  0
 40 34  2  0
 41 38  1  0
 42 36  2  0
 43 37  2  0
 44 31  1  0
 45 32  1  0
 46 36  1  0
 47 37  1  0
 48 39  1  0
 49 38  1  0
 50 40  1  0
 51 41  1  0
 52 49  2  0
 53 48  2  0
 54 52  1  0
 55 50  2  0
 30 39  2  0
 53 55  1  0
 35 41  2  0
 51 54  2  0
  2 56  1  6
  5 57  1  0
  5 58  1  0
  6 59  1  0
  6 60  1  0
  8 61  1  0
  9 62  1  0
 10 63  1  0
 10 64  1  0
 11 65  1  0
 11 66  1  0
 13 67  1  0
 14 68  1  0
 16 69  1  0
 16 70  1  0
 17 71  1  0
 19 72  1  0
 20 73  1  0
 21 74  1  0
 21 75  1  0
 22 76  1  0
 22 77  1  0
 23 78  1  0
 23 79  1  0
 24 80  1  0
 25 81  1  0
 26 82  1  0
 33 83  1  0
 33 84  1  0
 34 85  1  0
 35 86  1  0
 44 87  1  0
 45 88  1  0
 46 89  1  0
 47 90  1  0
 48 91  1  0
 49 92  1  0
 50 93  1  0
 51 94  1  0
 52 95  1  0
 53 96  1  0
 54 97  1  0
 55 98  1  0
M  END
> <Uni-Dock RESULT> 
ENERGY=   -5.160  LOWER_BOUND=    3.940  UPPER_BOUND=    7.658
INTER + INTRA:          -5.160
INTER:                  -5.160
INTRA:                   0.000
UNBOUND:                 0.000

$$$$

     RDKit          3D

 98103  0  0  0  0  0  0  0  0999 V2000
   48.2288   12.3308   12.0106 N   0  0  0  0  0  0  0  0  0  0  0  0
   49.1059   12.8613   10.9260 C   0  0  1  0  0  0  0  0  0  0  0  0
   48.9283   10.1993   14.0954 N   0  0  0  0  0  0  0  0  0  0  0  0
   48.4812   12.7445    9.5255 C   0  0  0  0  0  0  0  0  0  0  0  0
   47.9306   10.8869   11.8475 C   0  0  0  0  0  0  0  0  0  0  0  0
   48.8159   12.5766   13.3525 C   0  0  0  0  0  0  0  0  0  0  0  0
   49.5576   14.3122   11.1495 C   0  0  0  0  0  0  0  0  0  0  0  0
   47.1152   12.9937    9.2993 C   0  0  0  0  0  0  0  0  0  0  0  0
   49.2956   12.4233    8.4247 C   0  0  0  0  0  0  0  0  0  0  0  0
   48.8416    9.9228   12.6469 C   0  0  0  0  0  0  0  0  0  0  0  0
   48.3922   11.5379   14.4114 C   0  0  0  0  0  0  0  0  0  0  0  0
   47.3981   12.5790    6.9399 C   0  0  0  0  0  0  0  0  0  0  0  0
   48.7560   12.3382    7.1388 C   0  0  0  0  0  0  0  0  0  0  0  0
   46.5752   12.9076    8.0139 C   0  0  0  0  0  0  0  0  0  0  0  0
   46.7351   12.4745    5.3559 Cl  0  0  0  0  0  0  0  0  0  0  0  0
   48.2769    9.1733   14.9211 C   0  0  0  0  0  0  0  0  0  0  0  0
   47.0632    4.5182   16.3197 O   0  0  0  0  0  0  0  0  0  0  0  0
   48.3822    6.9525   15.8570 O   0  0  0  0  0  0  0  0  0  0  0  0
   48.6339   15.3406   11.4046 C   0  0  0  0  0  0  0  0  0  0  0  0
   50.9219   14.6417   11.0800 C   0  0  0  0  0  0  0  0  0  0  0  0
   48.3097    4.8212   16.9431 C   0  0  0  0  0  0  0  0  0  0  0  0
   49.0808    7.8670   15.0045 C   0  0  0  0  0  0  0  0  0  0  0  0
   49.1262    5.7402   16.0412 C   0  0  0  0  0  0  0  0  0  0  0  0
   51.3473   15.9574   11.2711 C   0  0  0  0  0  0  0  0  0  0  0  0
   49.0608   16.6558   11.5951 C   0  0  0  0  0  0  0  0  0  0  0  0
   50.4177   16.9625   11.5297 C   0  0  0  0  0  0  0  0  0  0  0  0
   48.6508   10.4815   16.0934 C   0  0  0  0  0  0  0  0  0  0  0  0
   47.1970   13.1721   10.7181 C   0  0  0  0  0  0  0  0  0  0  0  0
   49.3074   12.3093   11.6261 C   0  0  0  0  0  0  0  0  0  0  0  0
   49.4798   10.9083   13.8253 C   0  0  0  0  0  0  0  0  0  0  0  0
   49.2966   11.3119   15.1680 C   0  0  0  0  0  0  0  0  0  0  0  0
   47.9957   12.8045   11.8105 C   0  0  0  0  0  0  0  0  0  0  0  0
   50.1343   11.8829   12.8436 C   0  0  0  0  0  0  0  0  0  0  0  0
   48.2089    9.2195   15.6844 C   0  0  0  0  0  0  0  0  0  0  0  0
   47.7145   13.0763    9.4255 C   0  0  0  0  0  0  0  0  0  0  0  0
   48.3978   10.8454   17.5112 C   0  0  0  0  0  0  0  0  0  0  0  0
   45.8164   13.6617   10.9426 C   0  0  0  0  0  0  0  0  0  0  0  0
   49.8538   12.2686   10.2982 C   0  0  0  0  0  0  0  0  0  0  0  0
   49.0645    9.5980   13.4272 C   0  0  0  0  0  0  0  0  0  0  0  0
   48.4161    8.7660   14.3761 C   0  0  0  0  0  0  0  0  0  0  0  0
   49.0273   12.6449    9.2055 C   0  0  0  0  0  0  0  0  0  0  0  0
   47.8643   10.1411   18.3486 O   0  0  0  0  0  0  0  0  0  0  0  0
   45.3000   13.7945   12.0398 O   0  0  0  0  0  0  0  0  0  0  0  0
   49.7887   12.5426   15.5295 O   0  0  0  0  0  0  0  0  0  0  0  0
   47.5355   12.9354   13.0982 O   0  0  0  0  0  0  0  0  0  0  0  0
   48.8202   12.0861   17.8298 O   0  0  0  0  0  0  0  0  0  0  0  0
   45.1487   13.9545    9.8143 O   0  0  0  0  0  0  0  0  0  0  0  0
   49.2658    9.0540   12.1360 C   0  0  0  0  0  0  0  0  0  0  0  0
   51.1796   11.8776    9.9779 C   0  0  0  0  0  0  0  0  0  0  0  0
   47.9811    7.4796   14.0149 C   0  0  0  0  0  0  0  0  0  0  0  0
   49.5148   12.5975    7.8884 C   0  0  0  0  0  0  0  0  0  0  0  0
   51.6531   11.8382    8.6624 C   0  0  0  0  0  0  0  0  0  0  0  0
   48.8291    7.7725   11.7892 C   0  0  0  0  0  0  0  0  0  0  0  0
   50.8186   12.1954    7.6161 C   0  0  0  0  0  0  0  0  0  0  0  0
   48.1815    6.9862   12.7286 C   0  0  0  0  0  0  0  0  0  0  0  0
   50.0087   12.2322   10.9265 H   0  0  0  0  0  0  0  0  0  0  0  0
   46.8964   10.7337   12.1845 H   0  0  0  0  0  0  0  0  0  0  0  0
   47.9305   10.5746   10.7978 H   0  0  0  0  0  0  0  0  0  0  0  0
   49.9140   12.5761   13.3116 H   0  0  0  0  0  0  0  0  0  0  0  0
   48.5013   13.5665   13.7007 H   0  0  0  0  0  0  0  0  0  0  0  0
   46.4643   13.2535   10.1317 H   0  0  0  0  0  0  0  0  0  0  0  0
   50.3603   12.2454    8.5622 H   0  0  0  0  0  0  0  0  0  0  0  0
   48.5139    8.8955   12.4469 H   0  0  0  0  0  0  0  0  0  0  0  0
   49.8587    9.9956   12.2408 H   0  0  0  0  0  0  0  0  0  0  0  0
   47.2963   11.5231   14.4862 H   0  0  0  0  0  0  0  0  0  0  0  0
   48.7795   11.8526   15.3878 H   0  0  0  0  0  0  0  0  0  0  0  0
   49.3997   12.0904    6.2988 H   0  0  0  0  0  0  0  0  0  0  0  0
   45.5176   13.1032    7.8604 H   0  0  0  0  0  0  0  0  0  0  0  0
   48.1670    9.5408   15.9506 H   0  0  0  0  0  0  0  0  0  0  0  0
   47.2549    8.9696   14.5752 H   0  0  0  0  0  0  0  0  0  0  0  0
   46.7157    5.3793   16.0166 H   0  0  0  0  0  0  0  0  0  0  0  0
   47.5723   15.1148   11.4651 H   0  0  0  0  0  0  0  0  0  0  0  0
   51.6643   13.8733   10.8775 H   0  0  0  0  0  0  0  0  0  0  0  0
   48.0894    5.3047   17.8992 H   0  0  0  0  0  0  0  0  0  0  0  0
   48.8394    3.8840   17.1306 H   0  0  0  0  0  0  0  0  0  0  0  0
   49.1962    7.4093   14.0165 H   0  0  0  0  0  0  0  0  0  0  0  0
   50.0752    8.0662   15.4224 H   0  0  0  0  0  0  0  0  0  0  0  0
   49.2820    5.2669   15.0648 H   0  0  0  0  0  0  0  0  0  0  0  0
   50.0924    5.9641   16.5060 H   0  0  0  0  0  0  0  0  0  0  0  0
   52.4055   16.1993   11.2156 H   0  0  0  0  0  0  0  0  0  0  0  0
   48.3334   17.4389   11.7932 H   0  0  0  0  0  0  0  0  0  0  0  0
   50.7506   17.9864   11.6771 H   0  0  0  0  0  0  0  0  0  0  0  0
   50.4476   12.8117   13.3344 H   0  0  0  0  0  0  0  0  0  0  0  0
   51.0717   11.4000   12.5581 H   0  0  0  0  0  0  0  0  0  0  0  0
   47.7049    8.5749   16.4041 H   0  0  0  0  0  0  0  0  0  0  0  0
   47.0940   13.3579    8.5765 H   0  0  0  0  0  0  0  0  0  0  0  0
   49.5148   12.7210   16.4531 H   0  0  0  0  0  0  0  0  0  0  0  0
   46.6109   13.2621   13.0922 H   0  0  0  0  0  0  0  0  0  0  0  0
   48.5704   12.1642   18.7782 H   0  0  0  0  0  0  0  0  0  0  0  0
   44.2678   14.2555   10.1217 H   0  0  0  0  0  0  0  0  0  0  0  0
   49.7783    9.6217   11.3659 H   0  0  0  0  0  0  0  0  0  0  0  0
   51.8892   11.5993   10.7520 H   0  0  0  0  0  0  0  0  0  0  0  0
   47.4779    6.8436   14.7405 H   0  0  0  0  0  0  0  0  0  0  0  0
   48.8765   12.8813    7.0532 H   0  0  0  0  0  0  0  0  0  0  0  0
   52.6766   11.5302    8.4647 H   0  0  0  0  0  0  0  0  0  0  0  0
   49.0000    7.3954   10.7843 H   0  0  0  0  0  0  0  0  0  0  0  0
   51.1807   12.1678    6.5921 H   0  0  0  0  0  0  0  0  0  0  0  0
   47.8398    5.9890   12.4660 H   0  0  0  0  0  0  0  0  0  0  0  0
  2  1  1  0
  3 10  1  0
  4  2  1  0
  5  1  1  0
  6  1  1  0
  7  2  1  0
  8  4  2  0
  9  4  1  0
 10  5  1  0
 11  6  1  0
 12 14  2  0
 13  9  2  0
 14  8  1  0
 15 12  1  0
 16  3  1  0
 17 21  1  0
 18 22  1  0
 19  7  2  0
 20  7  1  0
 21 23  1  0
 22 16  1  0
 23 18  1  0
 24 20  2  0
 25 19  1  0
 26 25  2  0
 11  3  1  0
 13 12  1  0
 24 26  1  0
 28 32  2  0
 29 33  1  0
 30 31  1  0
 31 27  2  0
 32 29  1  0
 33 30  1  0
 34 27  1  0
 35 28  1  0
 36 27  1  0
 37 28  1  0
 38 29  2  0
 39 40  1  0
 40 34  2  0
 41 38  1  0
 42 36  2  0
 43 37  2  0
 44 31  1  0
 45 32  1  0
 46 36  1  0
 47 37  1  0
 48 39  1  0
 49 38  1  0
 50 40  1  0
 51 41  1  0
 52 49  2  0
 53 48  2  0
 54 52  1  0
 55 50  2  0
 30 39  2  0
 53 55  1  0
 35 41  2  0
 51 54  2  0
  2 56  1  6
  5 57  1  0
  5 58  1  0
  6 59  1  0
  6 60  1  0
  8 61  1  0
  9 62  1  0
 10 63  1  0
 10 64  1  0
 11 65  1  0
 11 66  1  0
 13 67  1  0
 14 68  1  0
 16 69  1  0
 16 70  1  0
 17 71  1  0
 19 72  1  0
 20 73  1  0
 21 74  1  0
 21 75  1  0
 22 76  1  0
 22 77  1  0
 23 78  1  0
 23 79  1  0
 24 80  1  0
 25 81  1  0
 26 82  1  0
 33 83  1  0
 33 84  1  0
 34 85  1  0
 35 86  1  0
 44 87  1  0
 45 88  1  0
 46 89  1  0
 47 90  1  0
 48 91  1  0
 49 92  1  0
 50 93  1  0
 51 94  1  0
 52 95  1  0
 53 96  1  0
 54 97  1  0
 55 98  1  0
M  END
> <Uni-Dock RESULT> 
ENERGY=   -4.975  LOWER_BOUND=    3.674  UPPER_BOUND=    9.752
INTER + INTRA:          -4.975
INTER:                  -4.975
INTRA:                   0.000
UNBOUND:                 0.000

$$$$

     RDKit          3D

 98103  0  0  0  0  0  0  0  0999 V2000
   49.9963    9.9057   13.7038 N   0  0  0  0  0  0  0  0  0  0  0  0
   51.3019   10.2874   13.0899 C   0  0  1  0  0  0  0  0  0  0  0  0
   47.3842    9.2305   12.2545 N   0  0  0  0  0  0  0  0  0  0  0  0
   51.8549   11.6227   13.6155 C   0  0  0  0  0  0  0  0  0  0  0  0
   48.9257   10.8945   13.4275 C   0  0  0  0  0  0  0  0  0  0  0  0
   49.5628    8.5556   13.2618 C   0  0  0  0  0  0  0  0  0  0  0  0
   52.3886    9.2106   13.2272 C   0  0  0  0  0  0  0  0  0  0  0  0
   51.7588   11.9830   14.9720 C   0  0  0  0  0  0  0  0  0  0  0  0
   52.5160   12.4973   12.7344 C   0  0  0  0  0  0  0  0  0  0  0  0
   48.0105   10.5680   12.2216 C   0  0  0  0  0  0  0  0  0  0  0  0
   48.0316    8.3680   13.2626 C   0  0  0  0  0  0  0  0  0  0  0  0
   52.9346   14.0445   14.5400 C   0  0  0  0  0  0  0  0  0  0  0  0
   53.0507   13.7035   13.1941 C   0  0  0  0  0  0  0  0  0  0  0  0
   52.2924   13.1895   15.4316 C   0  0  0  0  0  0  0  0  0  0  0  0
   53.5939   15.5298   15.1048 Cl  0  0  0  0  0  0  0  0  0  0  0  0
   45.9315    9.2761   12.4694 C   0  0  0  0  0  0  0  0  0  0  0  0
   41.2622   10.9727   11.8219 O   0  0  0  0  0  0  0  0  0  0  0  0
   43.7530    9.7117   11.5294 O   0  0  0  0  0  0  0  0  0  0  0  0
   52.7228    8.6559   14.4748 C   0  0  0  0  0  0  0  0  0  0  0  0
   53.0908    8.7726   12.0916 C   0  0  0  0  0  0  0  0  0  0  0  0
   41.4980   10.0183   10.7886 C   0  0  0  0  0  0  0  0  0  0  0  0
   45.1529    9.7377   11.2282 C   0  0  0  0  0  0  0  0  0  0  0  0
   42.9666   10.0545   10.3800 C   0  0  0  0  0  0  0  0  0  0  0  0
   54.0880    7.8019   12.2015 C   0  0  0  0  0  0  0  0  0  0  0  0
   53.7203    7.6856   14.5831 C   0  0  0  0  0  0  0  0  0  0  0  0
   54.4009    7.2584   13.4457 C   0  0  0  0  0  0  0  0  0  0  0  0
   46.3256    7.5312   12.6291 C   0  0  0  0  0  0  0  0  0  0  0  0
   51.0756   10.7242   14.9719 C   0  0  0  0  0  0  0  0  0  0  0  0
   50.5366    9.9789   12.6966 C   0  0  0  0  0  0  0  0  0  0  0  0
   48.2408    8.9337   12.0140 C   0  0  0  0  0  0  0  0  0  0  0  0
   47.6899    7.6741   12.3443 C   0  0  0  0  0  0  0  0  0  0  0  0
   50.3971    9.8617   14.0989 C   0  0  0  0  0  0  0  0  0  0  0  0
   49.7487    9.0411   11.7759 C   0  0  0  0  0  0  0  0  0  0  0  0
   45.4926    8.6519   12.5538 C   0  0  0  0  0  0  0  0  0  0  0  0
   51.9281   11.6984   14.4502 C   0  0  0  0  0  0  0  0  0  0  0  0
   45.6792    6.2489   13.0092 C   0  0  0  0  0  0  0  0  0  0  0  0
   50.8871   10.5936   16.4359 C   0  0  0  0  0  0  0  0  0  0  0  0
   51.4599   10.9447   12.1692 C   0  0  0  0  0  0  0  0  0  0  0  0
   47.3735   10.0658   11.8958 C   0  0  0  0  0  0  0  0  0  0  0  0
   45.9933    9.9055   12.1824 C   0  0  0  0  0  0  0  0  0  0  0  0
   52.1367   11.8092   13.0710 C   0  0  0  0  0  0  0  0  0  0  0  0
   44.4952    6.0821   13.2379 O   0  0  0  0  0  0  0  0  0  0  0  0
   50.1784    9.7563   16.9696 O   0  0  0  0  0  0  0  0  0  0  0  0
   48.5430    6.5973   12.3610 O   0  0  0  0  0  0  0  0  0  0  0  0
   49.5911    8.8590   14.5810 O   0  0  0  0  0  0  0  0  0  0  0  0
   46.5439    5.2171   13.0939 O   0  0  0  0  0  0  0  0  0  0  0  0
   51.5710   11.4959   17.1590 O   0  0  0  0  0  0  0  0  0  0  0  0
   47.7948   11.3565   11.4954 C   0  0  0  0  0  0  0  0  0  0  0  0
   51.7621   11.1112   10.7929 C   0  0  0  0  0  0  0  0  0  0  0  0
   45.1159   10.9993   12.0917 C   0  0  0  0  0  0  0  0  0  0  0  0
   53.0306   12.7835   12.5955 C   0  0  0  0  0  0  0  0  0  0  0  0
   52.6567   12.0830   10.3333 C   0  0  0  0  0  0  0  0  0  0  0  0
   46.9121   12.4365   11.4082 C   0  0  0  0  0  0  0  0  0  0  0  0
   53.2892   12.9225   11.2356 C   0  0  0  0  0  0  0  0  0  0  0  0
   45.5718   12.2587   11.7115 C   0  0  0  0  0  0  0  0  0  0  0  0
   51.1075   10.4229   12.0154 H   0  0  0  0  0  0  0  0  0  0  0  0
   48.2968   10.9449   14.3267 H   0  0  0  0  0  0  0  0  0  0  0  0
   49.3152   11.9105   13.3030 H   0  0  0  0  0  0  0  0  0  0  0  0
   49.9210    8.3362   12.2465 H   0  0  0  0  0  0  0  0  0  0  0  0
   49.9985    7.8067   13.9322 H   0  0  0  0  0  0  0  0  0  0  0  0
   51.2609   11.3206   15.6771 H   0  0  0  0  0  0  0  0  0  0  0  0
   52.6261   12.2388   11.6832 H   0  0  0  0  0  0  0  0  0  0  0  0
   47.2634   11.3658   12.1315 H   0  0  0  0  0  0  0  0  0  0  0  0
   48.6152   10.6212   11.3072 H   0  0  0  0  0  0  0  0  0  0  0  0
   47.6425    8.5680   14.2702 H   0  0  0  0  0  0  0  0  0  0  0  0
   47.8052    7.3206   13.0297 H   0  0  0  0  0  0  0  0  0  0  0  0
   53.5600   14.3672   12.5002 H   0  0  0  0  0  0  0  0  0  0  0  0
   52.2071   13.4495   16.4830 H   0  0  0  0  0  0  0  0  0  0  0  0
   45.5616    8.2715   12.7166 H   0  0  0  0  0  0  0  0  0  0  0  0
   45.6735    9.9011   13.3344 H   0  0  0  0  0  0  0  0  0  0  0  0
   41.9781   10.8262   12.4702 H   0  0  0  0  0  0  0  0  0  0  0  0
   52.1953    8.9748   15.3702 H   0  0  0  0  0  0  0  0  0  0  0  0
   52.8641    9.1848   11.1111 H   0  0  0  0  0  0  0  0  0  0  0  0
   41.2246    9.0349   11.1817 H   0  0  0  0  0  0  0  0  0  0  0  0
   40.8495   10.2575    9.9423 H   0  0  0  0  0  0  0  0  0  0  0  0
   45.4326   10.7569   10.9418 H   0  0  0  0  0  0  0  0  0  0  0  0
   45.3565    9.0635   10.3873 H   0  0  0  0  0  0  0  0  0  0  0  0
   43.2400   11.0635   10.0503 H   0  0  0  0  0  0  0  0  0  0  0  0
   43.1521    9.3355    9.5748 H   0  0  0  0  0  0  0  0  0  0  0  0
   54.6234    7.4709   11.3155 H   0  0  0  0  0  0  0  0  0  0  0  0
   53.9652    7.2655   15.5553 H   0  0  0  0  0  0  0  0  0  0  0  0
   55.1782    6.5036   13.5295 H   0  0  0  0  0  0  0  0  0  0  0  0
   50.2456    8.0663   11.8433 H   0  0  0  0  0  0  0  0  0  0  0  0
   49.8434    9.3192   10.7237 H   0  0  0  0  0  0  0  0  0  0  0  0
   44.4319    8.5405   12.7774 H   0  0  0  0  0  0  0  0  0  0  0  0
   52.4524   12.3709   15.1268 H   0  0  0  0  0  0  0  0  0  0  0  0
   48.0450    5.8191   12.6870 H   0  0  0  0  0  0  0  0  0  0  0  0
   49.5567    8.8981   15.5602 H   0  0  0  0  0  0  0  0  0  0  0  0
   45.9638    4.4683   13.3595 H   0  0  0  0  0  0  0  0  0  0  0  0
   51.3449   11.2866   18.0896 H   0  0  0  0  0  0  0  0  0  0  0  0
   48.8306   11.5485   11.2344 H   0  0  0  0  0  0  0  0  0  0  0  0
   51.3117   10.4766   10.0348 H   0  0  0  0  0  0  0  0  0  0  0  0
   44.0584   10.8783   12.3179 H   0  0  0  0  0  0  0  0  0  0  0  0
   53.5430   13.4480   13.2895 H   0  0  0  0  0  0  0  0  0  0  0  0
   52.8560   12.1750    9.2687 H   0  0  0  0  0  0  0  0  0  0  0  0
   47.2788   13.4125   11.1011 H   0  0  0  0  0  0  0  0  0  0  0  0
   53.9860   13.6789   10.8851 H   0  0  0  0  0  0  0  0  0  0  0  0
   44.8800   13.0937   11.6455 H   0  0  0  0  0  0  0  0  0  0  0  0
  2  1  1  0
  3 10  1  0
  4  2  1  0
  5  1  1  0
  6  1  1  0
  7  2  1  0
  8  4  2  0
  9  4  1  0
 10  5  1  0
 11  6  1  0
 12 14  2  0
 13  9  2  0
 14  8  1  0
 15 12  1  0
 16  3  1  0
 17 21  1  0
 18 22  1  0
 19  7  2  0
 20  7  1  0
 21 23  1  0
 22 16  1  0
 23 18  1  0
 24 20  2  0
 25 19  1  0
 26 25  2  0
 11  3  1  0
 13 12  1  0
 24 26  1  0
 28 32  2  0
 29 33  1  0
 30 31  1  0
 31 27  2  0
 32 29  1  0
 33 30  1  0
 34 27  1  0
 35 28  1  0
 36 27  1  0
 37 28  1  0
 38 29  2  0
 39 40  1  0
 40 34  2  0
 41 38  1  0
 42 36  2  0
 43 37  2  0
 44 31  1  0
 45 32  1  0
 46 36  1  0
 47 37  1  0
 48 39  1  0
 49 38  1  0
 50 40  1  0
 51 41  1  0
 52 49  2  0
 53 48  2  0
 54 52  1  0
 55 50  2  0
 30 39  2  0
 53 55  1  0
 35 41  2  0
 51 54  2  0
  2 56  1  6
  5 57  1  0
  5 58  1  0
  6 59  1  0
  6 60  1  0
  8 61  1  0
  9 62  1  0
 10 63  1  0
 10 64  1  0
 11 65  1  0
 11 66  1  0
 13 67  1  0
 14 68  1  0
 16 69  1  0
 16 70  1  0
 17 71  1  0
 19 72  1  0
 20 73  1  0
 21 74  1  0
 21 75  1  0
 22 76  1  0
 22 77  1  0
 23 78  1  0
 23 79  1  0
 24 80  1  0
 25 81  1  0
 26 82  1  0
 33 83  1  0
 33 84  1  0
 34 85  1  0
 35 86  1  0
 44 87  1  0
 45 88  1  0
 46 89  1  0
 47 90  1  0
 48 91  1  0
 49 92  1  0
 50 93  1  0
 51 94  1  0
 52 95  1  0
 53 96  1  0
 54 97  1  0
 55 98  1  0
M  END
> <Uni-Dock RESULT> 
ENERGY=   -4.834  LOWER_BOUND=    4.893  UPPER_BOUND=    7.804
INTER + INTRA:          -4.834
INTER:                  -4.834
INTRA:                   0.000
UNBOUND:                 0.000

$$$$

     RDKit          3D

 98103  0  0  0  0  0  0  0  0999 V2000
   47.0565   12.7394   11.3969 N   0  0  0  0  0  0  0  0  0  0  0  0
   47.3661   13.2700   10.0369 C   0  0  1  0  0  0  0  0  0  0  0  0
   48.9747   11.3368   13.3291 N   0  0  0  0  0  0  0  0  0  0  0  0
   46.4424   12.7126    8.9408 C   0  0  0  0  0  0  0  0  0  0  0  0
   47.2116   11.2667   11.4831 C   0  0  0  0  0  0  0  0  0  0  0  0
   47.8877   13.3962   12.4379 C   0  0  0  0  0  0  0  0  0  0  0  0
   47.3644   14.8038    9.9560 C   0  0  0  0  0  0  0  0  0  0  0  0
   45.0653   12.5230    9.1568 C   0  0  0  0  0  0  0  0  0  0  0  0
   46.9682   12.4217    7.6691 C   0  0  0  0  0  0  0  0  0  0  0  0
   48.5744   10.7695   12.0252 C   0  0  0  0  0  0  0  0  0  0  0  0
   48.1452   12.5085   13.6731 C   0  0  0  0  0  0  0  0  0  0  0  0
   44.7842   11.7503    6.8890 C   0  0  0  0  0  0  0  0  0  0  0  0
   46.1435   11.9402    6.6493 C   0  0  0  0  0  0  0  0  0  0  0  0
   44.2407   12.0406    8.1376 C   0  0  0  0  0  0  0  0  0  0  0  0
   43.7698   11.1579    5.6322 Cl  0  0  0  0  0  0  0  0  0  0  0  0
   48.9564   10.3523   14.4195 C   0  0  0  0  0  0  0  0  0  0  0  0
   49.7761    5.9104   16.5868 O   0  0  0  0  0  0  0  0  0  0  0  0
   50.0408    8.4760   15.4789 O   0  0  0  0  0  0  0  0  0  0  0  0
   46.2692   15.5640   10.4014 C   0  0  0  0  0  0  0  0  0  0  0  0
   48.4674   15.4794    9.4068 C   0  0  0  0  0  0  0  0  0  0  0  0
   50.9787    6.6638   16.7295 C   0  0  0  0  0  0  0  0  0  0  0  0
   50.1304    9.3636   14.3585 C   0  0  0  0  0  0  0  0  0  0  0  0
   51.1590    7.5788   15.5231 C   0  0  0  0  0  0  0  0  0  0  0  0
   48.4769   16.8724    9.3173 C   0  0  0  0  0  0  0  0  0  0  0  0
   46.2799   16.9569   10.3109 C   0  0  0  0  0  0  0  0  0  0  0  0
   47.3849   17.6098    9.7703 C   0  0  0  0  0  0  0  0  0  0  0  0
   49.2009   11.9158   15.2687 C   0  0  0  0  0  0  0  0  0  0  0  0
   45.4845   12.9910   10.4439 C   0  0  0  0  0  0  0  0  0  0  0  0
   47.9267   12.9438   10.6809 C   0  0  0  0  0  0  0  0  0  0  0  0
   49.1641   12.1041   12.8240 C   0  0  0  0  0  0  0  0  0  0  0  0
   49.2495   12.6954   14.1055 C   0  0  0  0  0  0  0  0  0  0  0  0
   46.6352   13.0808   11.2402 C   0  0  0  0  0  0  0  0  0  0  0  0
   49.1575   13.0107   11.5911 C   0  0  0  0  0  0  0  0  0  0  0  0
   49.0972   10.5261   15.1539 C   0  0  0  0  0  0  0  0  0  0  0  0
   45.6146   12.7920    9.0687 C   0  0  0  0  0  0  0  0  0  0  0  0
   49.2576   12.4649   16.6478 C   0  0  0  0  0  0  0  0  0  0  0  0
   44.1442   13.1115   11.0643 C   0  0  0  0  0  0  0  0  0  0  0  0
   48.0549   12.7978    9.2576 C   0  0  0  0  0  0  0  0  0  0  0  0
   49.1031   10.6786   12.7153 C   0  0  0  0  0  0  0  0  0  0  0  0
   49.0595    9.9014   13.9015 C   0  0  0  0  0  0  0  0  0  0  0  0
   46.8762   12.7082    8.4692 C   0  0  0  0  0  0  0  0  0  0  0  0
   49.2442   11.8180   17.6789 O   0  0  0  0  0  0  0  0  0  0  0  0
   43.9474   13.3074   12.2522 O   0  0  0  0  0  0  0  0  0  0  0  0
   49.3951   14.0603   14.1622 O   0  0  0  0  0  0  0  0  0  0  0  0
   46.5439   13.3279   12.5885 O   0  0  0  0  0  0  0  0  0  0  0  0
   49.3251   13.8116   16.6863 O   0  0  0  0  0  0  0  0  0  0  0  0
   43.1257   12.9806   10.1981 O   0  0  0  0  0  0  0  0  0  0  0  0
   49.0945    9.9705   11.4897 C   0  0  0  0  0  0  0  0  0  0  0  0
   49.2865   12.7360    8.5558 C   0  0  0  0  0  0  0  0  0  0  0  0
   48.9835    8.5000   13.8317 C   0  0  0  0  0  0  0  0  0  0  0  0
   46.9565   12.5417    7.0763 C   0  0  0  0  0  0  0  0  0  0  0  0
   49.3520   12.5734    7.1682 C   0  0  0  0  0  0  0  0  0  0  0  0
   49.0195    8.5761   11.4334 C   0  0  0  0  0  0  0  0  0  0  0  0
   48.1856   12.4727    6.4280 C   0  0  0  0  0  0  0  0  0  0  0  0
   48.9589    7.8402   12.6060 C   0  0  0  0  0  0  0  0  0  0  0  0
   48.3851   12.9295    9.7995 H   0  0  0  0  0  0  0  0  0  0  0  0
   46.4248   10.9009   12.1568 H   0  0  0  0  0  0  0  0  0  0  0  0
   47.0146   10.7676   10.5283 H   0  0  0  0  0  0  0  0  0  0  0  0
   48.8663   13.6929   12.0359 H   0  0  0  0  0  0  0  0  0  0  0  0
   47.3807   14.3077   12.7727 H   0  0  0  0  0  0  0  0  0  0  0  0
   44.6306   12.7492   10.1283 H   0  0  0  0  0  0  0  0  0  0  0  0
   48.0252   12.5773    7.4628 H   0  0  0  0  0  0  0  0  0  0  0  0
   48.5566    9.6732   12.0459 H   0  0  0  0  0  0  0  0  0  0  0  0
   49.3523   11.0413   11.3001 H   0  0  0  0  0  0  0  0  0  0  0  0
   47.1832   12.2046   14.1078 H   0  0  0  0  0  0  0  0  0  0  0  0
   48.6697   13.1031   14.4306 H   0  0  0  0  0  0  0  0  0  0  0  0
   46.5657   11.7219    5.6718 H   0  0  0  0  0  0  0  0  0  0  0  0
   43.1797   11.9005    8.3249 H   0  0  0  0  0  0  0  0  0  0  0  0
   49.0304   10.8687   15.3865 H   0  0  0  0  0  0  0  0  0  0  0  0
   48.0028    9.8090   14.4532 H   0  0  0  0  0  0  0  0  0  0  0  0
   49.0960    6.5644   16.3336 H   0  0  0  0  0  0  0  0  0  0  0  0
   45.4027   15.0684   10.8318 H   0  0  0  0  0  0  0  0  0  0  0  0
   49.3294   14.9235    9.0455 H   0  0  0  0  0  0  0  0  0  0  0  0
   50.8946    7.2443   17.6527 H   0  0  0  0  0  0  0  0  0  0  0  0
   51.8149    5.9663   16.8211 H   0  0  0  0  0  0  0  0  0  0  0  0
   50.1024    8.7721   13.4375 H   0  0  0  0  0  0  0  0  0  0  0  0
   51.0810    9.9092   14.4019 H   0  0  0  0  0  0  0  0  0  0  0  0
   51.1758    6.9860   14.6013 H   0  0  0  0  0  0  0  0  0  0  0  0
   52.0894    8.1489   15.6177 H   0  0  0  0  0  0  0  0  0  0  0  0
   49.3364   17.3833    8.8912 H   0  0  0  0  0  0  0  0  0  0  0  0
   45.4254   17.5298   10.6617 H   0  0  0  0  0  0  0  0  0  0  0  0
   47.3935   18.6941    9.6988 H   0  0  0  0  0  0  0  0  0  0  0  0
   49.2772   14.0673   11.8576 H   0  0  0  0  0  0  0  0  0  0  0  0
   50.0788   12.7614   11.0595 H   0  0  0  0  0  0  0  0  0  0  0  0
   49.0574    9.9205   16.0590 H   0  0  0  0  0  0  0  0  0  0  0  0
   44.7219   12.7183    8.4500 H   0  0  0  0  0  0  0  0  0  0  0  0
   49.3529   14.3325   15.1024 H   0  0  0  0  0  0  0  0  0  0  0  0
   45.6022   13.3768   12.8574 H   0  0  0  0  0  0  0  0  0  0  0  0
   49.3442   14.0009   17.6515 H   0  0  0  0  0  0  0  0  0  0  0  0
   42.3209   13.0788   10.7491 H   0  0  0  0  0  0  0  0  0  0  0  0
   49.1526   10.4963   10.5420 H   0  0  0  0  0  0  0  0  0  0  0  0
   50.2372   12.8229    9.0743 H   0  0  0  0  0  0  0  0  0  0  0  0
   48.9433    7.9039   14.7412 H   0  0  0  0  0  0  0  0  0  0  0  0
   46.0509   12.4677    6.4762 H   0  0  0  0  0  0  0  0  0  0  0  0
   50.3190   12.5296    6.6735 H   0  0  0  0  0  0  0  0  0  0  0  0
   49.0105    8.0724   10.4703 H   0  0  0  0  0  0  0  0  0  0  0  0
   48.2297   12.3472    5.3496 H   0  0  0  0  0  0  0  0  0  0  0  0
   48.9008    6.7560   12.5697 H   0  0  0  0  0  0  0  0  0  0  0  0
  2  1  1  0
  3 10  1  0
  4  2  1  0
  5  1  1  0
  6  1  1  0
  7  2  1  0
  8  4  2  0
  9  4  1  0
 10  5  1  0
 11  6  1  0
 12 14  2  0
 13  9  2  0
 14  8  1  0
 15 12  1  0
 16  3  1  0
 17 21  1  0
 18 22  1  0
 19  7  2  0
 20  7  1  0
 21 23  1  0
 22 16  1  0
 23 18  1  0
 24 20  2  0
 25 19  1  0
 26 25  2  0
 11  3  1  0
 13 12  1  0
 24 26  1  0
 28 32  2  0
 29 33  1  0
 30 31  1  0
 31 27  2  0
 32 29  1  0
 33 30  1  0
 34 27  1  0
 35 28  1  0
 36 27  1  0
 37 28  1  0
 38 29  2  0
 39 40  1  0
 40 34  2  0
 41 38  1  0
 42 36  2  0
 43 37  2  0
 44 31  1  0
 45 32  1  0
 46 36  1  0
 47 37  1  0
 48 39  1  0
 49 38  1  0
 50 40  1  0
 51 41  1  0
 52 49  2  0
 53 48  2  0
 54 52  1  0
 55 50  2  0
 30 39  2  0
 53 55  1  0
 35 41  2  0
 51 54  2  0
  2 56  1  6
  5 57  1  0
  5 58  1  0
  6 59  1  0
  6 60  1  0
  8 61  1  0
  9 62  1  0
 10 63  1  0
 10 64  1  0
 11 65  1  0
 11 66  1  0
 13 67  1  0
 14 68  1  0
 16 69  1  0
 16 70  1  0
 17 71  1  0
 19 72  1  0
 20 73  1  0
 21 74  1  0
 21 75  1  0
 22 76  1  0
 22 77  1  0
 23 78  1  0
 23 79  1  0
 24 80  1  0
 25 81  1  0
 26 82  1  0
 33 83  1  0
 33 84  1  0
 34 85  1  0
 35 86  1  0
 44 87  1  0
 45 88  1  0
 46 89  1  0
 47 90  1  0
 48 91  1  0
 49 92  1  0
 50 93  1  0
 51 94  1  0
 52 95  1  0
 53 96  1  0
 54 97  1  0
 55 98  1  0
M  END
> <Uni-Dock RESULT> 
ENERGY=   -4.792  LOWER_BOUND=    3.956  UPPER_BOUND=   10.396
INTER + INTRA:          -4.792
INTER:                  -4.792
INTRA:                   0.000
UNBOUND:                 0.000

$$$$
