
     RDKit          3D

 98103  0  0  0  0  0  0  0  0999 V2000
   48.4358    7.9363   19.3180 N   0  0  0  0  0  0  0  0  0  0  0  0
   47.7970    6.6938   19.8028 C   0  0  1  0  0  0  0  0  0  0  0  0
   49.6406   10.2541   18.1900 N   0  0  0  0  0  0  0  0  0  0  0  0
   48.2884    5.4255   19.0816 C   0  0  0  0  0  0  0  0  0  0  0  0
   49.8939    8.0087   19.3965 C   0  0  0  0  0  0  0  0  0  0  0  0
   47.9455    8.4056   18.0122 C   0  0  0  0  0  0  0  0  0  0  0  0
   47.7585    6.5689   21.3413 C   0  0  0  0  0  0  0  0  0  0  0  0
   49.4937    4.7887   19.4366 C   0  0  0  0  0  0  0  0  0  0  0  0
   47.5247    4.8710   18.0387 C   0  0  0  0  0  0  0  0  0  0  0  0
   50.4142    9.4543   19.1604 C   0  0  0  0  0  0  0  0  0  0  0  0
   48.8981    9.3846   17.2712 C   0  0  0  0  0  0  0  0  0  0  0  0
   49.1590    3.1216   17.7244 C   0  0  0  0  0  0  0  0  0  0  0  0
   47.9612    3.7305   17.3585 C   0  0  0  0  0  0  0  0  0  0  0  0
   49.9250    3.6412   18.7652 C   0  0  0  0  0  0  0  0  0  0  0  0
   49.6980    1.7190   16.8859 Cl  0  0  0  0  0  0  0  0  0  0  0  0
   50.4683   11.2339   17.4684 C   0  0  0  0  0  0  0  0  0  0  0  0
   47.1490   14.4012   17.6218 O   0  0  0  0  0  0  0  0  0  0  0  0
   50.2228   13.0930   19.1273 O   0  0  0  0  0  0  0  0  0  0  0  0
   48.0014    7.6729   22.1798 C   0  0  0  0  0  0  0  0  0  0  0  0
   47.3848    5.3569   21.9545 C   0  0  0  0  0  0  0  0  0  0  0  0
   47.9439   13.5995   18.4913 C   0  0  0  0  0  0  0  0  0  0  0  0
   51.1398   12.3019   18.3613 C   0  0  0  0  0  0  0  0  0  0  0  0
   49.4153   13.9651   18.3364 C   0  0  0  0  0  0  0  0  0  0  0  0
   47.3173    5.2388   23.3462 C   0  0  0  0  0  0  0  0  0  0  0  0
   47.9438    7.5533   23.5707 C   0  0  0  0  0  0  0  0  0  0  0  0
   47.6076    6.3339   24.1534 C   0  0  0  0  0  0  0  0  0  0  0  0
   48.0832   12.0175   19.6090 C   0  0  0  0  0  0  0  0  0  0  0  0
   48.7152    4.8522   18.6513 C   0  0  0  0  0  0  0  0  0  0  0  0
   47.9069    7.1281   19.1081 C   0  0  0  0  0  0  0  0  0  0  0  0
   48.0269    9.7249   18.7216 C   0  0  0  0  0  0  0  0  0  0  0  0
   47.4182   10.7978   19.4191 C   0  0  0  0  0  0  0  0  0  0  0  0
   48.1129    6.0437   18.2231 C   0  0  0  0  0  0  0  0  0  0  0  0
   47.2552    8.4084   18.5704 C   0  0  0  0  0  0  0  0  0  0  0  0
   49.3676   12.1806   19.0825 C   0  0  0  0  0  0  0  0  0  0  0  0
   49.1038    4.7279   19.9877 C   0  0  0  0  0  0  0  0  0  0  0  0
   47.5139   13.1815   20.3352 C   0  0  0  0  0  0  0  0  0  0  0  0
   48.9767    3.6824   17.7721 C   0  0  0  0  0  0  0  0  0  0  0  0
   48.2493    6.9615   20.4881 C   0  0  0  0  0  0  0  0  0  0  0  0
   49.3159    9.9294   18.1332 C   0  0  0  0  0  0  0  0  0  0  0  0
   49.9834   11.1659   18.3432 C   0  0  0  0  0  0  0  0  0  0  0  0
   48.8728    5.7560   20.9090 C   0  0  0  0  0  0  0  0  0  0  0  0
   48.0632   14.2528   20.5190 O   0  0  0  0  0  0  0  0  0  0  0  0
   49.5018    2.6355   18.1010 O   0  0  0  0  0  0  0  0  0  0  0  0
   46.1483   10.5949   19.9055 O   0  0  0  0  0  0  0  0  0  0  0  0
   47.7036    6.2071   16.9219 O   0  0  0  0  0  0  0  0  0  0  0  0
   46.2679   12.9617   20.8007 O   0  0  0  0  0  0  0  0  0  0  0  0
   48.5560    3.8650   16.5016 O   0  0  0  0  0  0  0  0  0  0  0  0
   49.9830    8.9876   17.3149 C   0  0  0  0  0  0  0  0  0  0  0  0
   47.9929    7.9183   21.4969 C   0  0  0  0  0  0  0  0  0  0  0  0
   51.2574   11.3961   17.7968 C   0  0  0  0  0  0  0  0  0  0  0  0
   49.2435    5.5697   22.2530 C   0  0  0  0  0  0  0  0  0  0  0  0
   48.3561    7.7196   22.8334 C   0  0  0  0  0  0  0  0  0  0  0  0
   51.2484    9.2280   16.7683 C   0  0  0  0  0  0  0  0  0  0  0  0
   48.9881    6.5464   23.2110 C   0  0  0  0  0  0  0  0  0  0  0  0
   51.8895   10.4302   17.0183 C   0  0  0  0  0  0  0  0  0  0  0  0
   46.7269    6.7925   19.5641 H   0  0  0  0  0  0  0  0  0  0  0  0
   50.3482    7.3548   18.6414 H   0  0  0  0  0  0  0  0  0  0  0  0
   50.2659    7.6787   20.3723 H   0  0  0  0  0  0  0  0  0  0  0  0
   46.9907    8.9159   18.1850 H   0  0  0  0  0  0  0  0  0  0  0  0
   47.7503    7.5726   17.3266 H   0  0  0  0  0  0  0  0  0  0  0  0
   50.1011    5.1795   20.2518 H   0  0  0  0  0  0  0  0  0  0  0  0
   46.5833    5.3302   17.7439 H   0  0  0  0  0  0  0  0  0  0  0  0
   50.3987    9.9924   20.1157 H   0  0  0  0  0  0  0  0  0  0  0  0
   51.4634    9.3711   18.8530 H   0  0  0  0  0  0  0  0  0  0  0  0
   49.6004    8.8023   16.6605 H   0  0  0  0  0  0  0  0  0  0  0  0
   48.2965    9.9861   16.5798 H   0  0  0  0  0  0  0  0  0  0  0  0
   47.3604    3.3214   16.5506 H   0  0  0  0  0  0  0  0  0  0  0  0
   50.8573    3.1648   19.0553 H   0  0  0  0  0  0  0  0  0  0  0  0
   49.8340   11.7551   16.7394 H   0  0  0  0  0  0  0  0  0  0  0  0
   51.2469   10.7148   16.8925 H   0  0  0  0  0  0  0  0  0  0  0  0
   46.2229   14.1538   17.7943 H   0  0  0  0  0  0  0  0  0  0  0  0
   48.2388    8.6469   21.7558 H   0  0  0  0  0  0  0  0  0  0  0  0
   47.1391    4.4849   21.3527 H   0  0  0  0  0  0  0  0  0  0  0  0
   47.7745   12.5430   18.2551 H   0  0  0  0  0  0  0  0  0  0  0  0
   47.6186   13.7674   19.5266 H   0  0  0  0  0  0  0  0  0  0  0  0
   51.7559   12.9663   17.7420 H   0  0  0  0  0  0  0  0  0  0  0  0
   51.8255   11.8263   19.0737 H   0  0  0  0  0  0  0  0  0  0  0  0
   49.7151   13.9758   17.2805 H   0  0  0  0  0  0  0  0  0  0  0  0
   49.5751   14.9876   18.7039 H   0  0  0  0  0  0  0  0  0  0  0  0
   47.0405    4.2893   23.7971 H   0  0  0  0  0  0  0  0  0  0  0  0
   48.1490    8.4163   24.1961 H   0  0  0  0  0  0  0  0  0  0  0  0
   47.5566    6.2431   25.2356 H   0  0  0  0  0  0  0  0  0  0  0  0
   46.2686    8.4608   19.0479 H   0  0  0  0  0  0  0  0  0  0  0  0
   47.0229    8.3288   17.5017 H   0  0  0  0  0  0  0  0  0  0  0  0
   49.8831   13.1298   19.2274 H   0  0  0  0  0  0  0  0  0  0  0  0
   49.5710    3.8002   20.3182 H   0  0  0  0  0  0  0  0  0  0  0  0
   45.8557   11.4204   20.3483 H   0  0  0  0  0  0  0  0  0  0  0  0
   47.8866    5.3756   16.4326 H   0  0  0  0  0  0  0  0  0  0  0  0
   46.0368   13.8236   21.2205 H   0  0  0  0  0  0  0  0  0  0  0  0
   48.7898    3.0115   16.0676 H   0  0  0  0  0  0  0  0  0  0  0  0
   49.5170    8.0429   17.0631 H   0  0  0  0  0  0  0  0  0  0  0  0
   47.4802    8.8448   21.2671 H   0  0  0  0  0  0  0  0  0  0  0  0
   51.7714   12.3402   17.9706 H   0  0  0  0  0  0  0  0  0  0  0  0
   49.7314    4.6492   22.5688 H   0  0  0  0  0  0  0  0  0  0  0  0
   48.1340    8.4831   23.5738 H   0  0  0  0  0  0  0  0  0  0  0  0
   51.7217    8.4759   16.1432 H   0  0  0  0  0  0  0  0  0  0  0  0
   49.2713    6.3852   24.2477 H   0  0  0  0  0  0  0  0  0  0  0  0
   52.8740   10.6244   16.6016 H   0  0  0  0  0  0  0  0  0  0  0  0
  2  1  1  0
  3 10  1  0
  4  2  1  0
  5  1  1  0
  6  1  1  0
  7  2  1  0
  8  4  2  0
  9  4  1  0
 10  5  1  0
 11  6  1  0
 12 14  2  0
 13  9  2  0
 14  8  1  0
 15 12  1  0
 16  3  1  0
 17 21  1  0
 18 22  1  0
 19  7  2  0
 20  7  1  0
 21 23  1  0
 22 16  1  0
 23 18  1  0
 24 20  2  0
 25 19  1  0
 26 25  2  0
 11  3  1  0
 13 12  1  0
 24 26  1  0
 28 32  2  0
 29 33  1  0
 30 31  1  0
 31 27  2  0
 32 29  1  0
 33 30  1  0
 34 27  1  0
 35 28  1  0
 36 27  1  0
 37 28  1  0
 38 29  2  0
 39 40  1  0
 40 34  2  0
 41 38  1  0
 42 36  2  0
 43 37  2  0
 44 31  1  0
 45 32  1  0
 46 36  1  0
 47 37  1  0
 48 39  1  0
 49 38  1  0
 50 40  1  0
 51 41  1  0
 52 49  2  0
 53 48  2  0
 54 52  1  0
 55 50  2  0
 30 39  2  0
 53 55  1  0
 35 41  2  0
 51 54  2  0
  2 56  1  1
  5 57  1  0
  5 58  1  0
  6 59  1  0
  6 60  1  0
  8 61  1  0
  9 62  1  0
 10 63  1  0
 10 64  1  0
 11 65  1  0
 11 66  1  0
 13 67  1  0
 14 68  1  0
 16 69  1  0
 16 70  1  0
 17 71  1  0
 19 72  1  0
 20 73  1  0
 21 74  1  0
 21 75  1  0
 22 76  1  0
 22 77  1  0
 23 78  1  0
 23 79  1  0
 24 80  1  0
 25 81  1  0
 26 82  1  0
 33 83  1  0
 33 84  1  0
 34 85  1  0
 35 86  1  0
 44 87  1  0
 45 88  1  0
 46 89  1  0
 47 90  1  0
 48 91  1  0
 49 92  1  0
 50 93  1  0
 51 94  1  0
 52 95  1  0
 53 96  1  0
 54 97  1  0
 55 98  1  0
M  END
> <Uni-Dock RESULT> 
ENERGY=   -7.049  LOWER_BOUND=    0.000  UPPER_BOUND=    0.000
INTER + INTRA:          -7.049
INTER:                  -7.049
INTRA:                   0.000
UNBOUND:                 0.000

$$$$

     RDKit          3D

 98103  0  0  0  0  0  0  0  0999 V2000
   48.9527    8.1672   17.9011 N   0  0  0  0  0  0  0  0  0  0  0  0
   47.8039    8.3427   18.8158 C   0  0  1  0  0  0  0  0  0  0  0  0
   51.1532    7.6237   16.1812 N   0  0  0  0  0  0  0  0  0  0  0  0
   47.9120    7.5129   20.1081 C   0  0  0  0  0  0  0  0  0  0  0  0
   50.2787    8.4807   18.4312 C   0  0  0  0  0  0  0  0  0  0  0  0
   48.9574    6.8933   17.1644 C   0  0  0  0  0  0  0  0  0  0  0  0
   47.4059    9.8169   19.0450 C   0  0  0  0  0  0  0  0  0  0  0  0
   48.6832    7.9436   21.2053 C   0  0  0  0  0  0  0  0  0  0  0  0
   47.2264    6.2896   20.2156 C   0  0  0  0  0  0  0  0  0  0  0  0
   51.3469    8.5618   17.3048 C   0  0  0  0  0  0  0  0  0  0  0  0
   50.3413    6.4744   16.5948 C   0  0  0  0  0  0  0  0  0  0  0  0
   48.0979    5.9563   22.4426 C   0  0  0  0  0  0  0  0  0  0  0  0
   47.3251    5.5117   21.3728 C   0  0  0  0  0  0  0  0  0  0  0  0
   48.7727    7.1724   22.3675 C   0  0  0  0  0  0  0  0  0  0  0  0
   48.2217    4.9980   23.8665 Cl  0  0  0  0  0  0  0  0  0  0  0  0
   52.4208    7.2046   15.5619 C   0  0  0  0  0  0  0  0  0  0  0  0
   50.6032    7.3471   11.3489 O   0  0  0  0  0  0  0  0  0  0  0  0
   52.5671    9.0810   13.9108 O   0  0  0  0  0  0  0  0  0  0  0  0
   47.8732   10.8482   18.2091 C   0  0  0  0  0  0  0  0  0  0  0  0
   46.4814   10.1634   20.0499 C   0  0  0  0  0  0  0  0  0  0  0  0
   50.8360    8.1897   12.4743 C   0  0  0  0  0  0  0  0  0  0  0  0
   53.2496    8.3496   14.9366 C   0  0  0  0  0  0  0  0  0  0  0  0
   52.3335    8.3244   12.7229 C   0  0  0  0  0  0  0  0  0  0  0  0
   46.0899   11.4910   20.2487 C   0  0  0  0  0  0  0  0  0  0  0  0
   47.4903   12.1763   18.4131 C   0  0  0  0  0  0  0  0  0  0  0  0
   46.6030   12.4977   19.4374 C   0  0  0  0  0  0  0  0  0  0  0  0
   50.1295    9.0483   14.0666 C   0  0  0  0  0  0  0  0  0  0  0  0
   48.1667    7.0677   20.7661 C   0  0  0  0  0  0  0  0  0  0  0  0
   48.2111    7.7517   18.4056 C   0  0  0  0  0  0  0  0  0  0  0  0
   49.3877    7.8082   16.0562 C   0  0  0  0  0  0  0  0  0  0  0  0
   49.1044    8.5656   14.8925 C   0  0  0  0  0  0  0  0  0  0  0  0
   48.1654    6.7475   19.4011 C   0  0  0  0  0  0  0  0  0  0  0  0
   48.2216    7.3313   16.9304 C   0  0  0  0  0  0  0  0  0  0  0  0
   51.4577    8.7595   14.3923 C   0  0  0  0  0  0  0  0  0  0  0  0
   48.1954    8.4110   21.1501 C   0  0  0  0  0  0  0  0  0  0  0  0
   49.9106    9.8543   12.8382 C   0  0  0  0  0  0  0  0  0  0  0  0
   48.1374    6.0642   21.8623 C   0  0  0  0  0  0  0  0  0  0  0  0
   48.1730    9.1235   18.8132 C   0  0  0  0  0  0  0  0  0  0  0  0
   50.7485    7.4663   16.3408 C   0  0  0  0  0  0  0  0  0  0  0  0
   51.7781    7.9717   15.5024 C   0  0  0  0  0  0  0  0  0  0  0  0
   48.1896    9.4378   20.1988 C   0  0  0  0  0  0  0  0  0  0  0  0
   50.7761   10.2894   12.1002 O   0  0  0  0  0  0  0  0  0  0  0  0
   48.1445    6.2988   23.0560 O   0  0  0  0  0  0  0  0  0  0  0  0
   47.7824    8.8111   14.6054 O   0  0  0  0  0  0  0  0  0  0  0  0
   48.1258    5.4417   18.9760 O   0  0  0  0  0  0  0  0  0  0  0  0
   48.6080   10.0804   12.5745 O   0  0  0  0  0  0  0  0  0  0  0  0
   48.0885    4.7896   21.4178 O   0  0  0  0  0  0  0  0  0  0  0  0
   51.1592    6.6212   17.3985 C   0  0  0  0  0  0  0  0  0  0  0  0
   48.0993   10.2203   17.9240 C   0  0  0  0  0  0  0  0  0  0  0  0
   53.1266    7.6727   15.7611 C   0  0  0  0  0  0  0  0  0  0  0  0
   48.1769   10.7757   20.6327 C   0  0  0  0  0  0  0  0  0  0  0  0
   48.0766   11.5478   18.3655 C   0  0  0  0  0  0  0  0  0  0  0  0
   52.5038    6.3223   17.6445 C   0  0  0  0  0  0  0  0  0  0  0  0
   48.1220   11.8263   19.7216 C   0  0  0  0  0  0  0  0  0  0  0  0
   53.4883    6.8570   16.8300 C   0  0  0  0  0  0  0  0  0  0  0  0
   46.9259    7.9604   18.2731 H   0  0  0  0  0  0  0  0  0  0  0  0
   50.5942    7.7102   19.1461 H   0  0  0  0  0  0  0  0  0  0  0  0
   50.2881    9.4369   18.9651 H   0  0  0  0  0  0  0  0  0  0  0  0
   48.2556    6.9957   16.3286 H   0  0  0  0  0  0  0  0  0  0  0  0
   48.6050    6.0616   17.7858 H   0  0  0  0  0  0  0  0  0  0  0  0
   49.2123    8.8947   21.1643 H   0  0  0  0  0  0  0  0  0  0  0  0
   46.6131    5.9300   19.3919 H   0  0  0  0  0  0  0  0  0  0  0  0
   51.3417    9.5767   16.8899 H   0  0  0  0  0  0  0  0  0  0  0  0
   52.3241    8.4108   17.7785 H   0  0  0  0  0  0  0  0  0  0  0  0
   50.8781    5.8944   17.3569 H   0  0  0  0  0  0  0  0  0  0  0  0
   50.1699    5.8034   15.7450 H   0  0  0  0  0  0  0  0  0  0  0  0
   46.7935    4.5658   21.4338 H   0  0  0  0  0  0  0  0  0  0  0  0
   49.3722    7.5232   23.2030 H   0  0  0  0  0  0  0  0  0  0  0  0
   52.1971    6.4790   14.7689 H   0  0  0  0  0  0  0  0  0  0  0  0
   53.0432    6.6805   16.3003 H   0  0  0  0  0  0  0  0  0  0  0  0
   49.6386    7.3326   11.2147 H   0  0  0  0  0  0  0  0  0  0  0  0
   48.5453   10.6271   17.3819 H   0  0  0  0  0  0  0  0  0  0  0  0
   46.0514    9.3994   20.6936 H   0  0  0  0  0  0  0  0  0  0  0  0
   50.3293    7.7644   13.3479 H   0  0  0  0  0  0  0  0  0  0  0  0
   50.3941    9.1756   12.2781 H   0  0  0  0  0  0  0  0  0  0  0  0
   54.1853    7.9471   14.5278 H   0  0  0  0  0  0  0  0  0  0  0  0
   53.5405    9.0742   15.7076 H   0  0  0  0  0  0  0  0  0  0  0  0
   52.8246    7.3429   12.7444 H   0  0  0  0  0  0  0  0  0  0  0  0
   52.7916    8.8707   11.8876 H   0  0  0  0  0  0  0  0  0  0  0  0
   45.3861   11.7363   21.0399 H   0  0  0  0  0  0  0  0  0  0  0  0
   47.8755   12.9557   17.7634 H   0  0  0  0  0  0  0  0  0  0  0  0
   46.3003   13.5306   19.5916 H   0  0  0  0  0  0  0  0  0  0  0  0
   47.2540    7.6527   16.5246 H   0  0  0  0  0  0  0  0  0  0  0  0
   48.2012    6.2407   16.8180 H   0  0  0  0  0  0  0  0  0  0  0  0
   52.2542    9.1320   13.7485 H   0  0  0  0  0  0  0  0  0  0  0  0
   48.1954    8.6572   22.2120 H   0  0  0  0  0  0  0  0  0  0  0  0
   47.7422    9.3295   13.7730 H   0  0  0  0  0  0  0  0  0  0  0  0
   48.0746    4.8602   19.7657 H   0  0  0  0  0  0  0  0  0  0  0  0
   48.6418   10.5917   11.7318 H   0  0  0  0  0  0  0  0  0  0  0  0
   48.0632    4.2662   22.2526 H   0  0  0  0  0  0  0  0  0  0  0  0
   50.4309    6.1528   18.0491 H   0  0  0  0  0  0  0  0  0  0  0  0
   48.0370   10.0650   16.8534 H   0  0  0  0  0  0  0  0  0  0  0  0
   53.9139    8.0723   15.1238 H   0  0  0  0  0  0  0  0  0  0  0  0
   48.2013   11.0119   21.6951 H   0  0  0  0  0  0  0  0  0  0  0  0
   48.0152   12.3572   17.6434 H   0  0  0  0  0  0  0  0  0  0  0  0
   52.7723    5.6658   18.4674 H   0  0  0  0  0  0  0  0  0  0  0  0
   48.1031   12.8550   20.0710 H   0  0  0  0  0  0  0  0  0  0  0  0
   54.5354    6.6339   17.0155 H   0  0  0  0  0  0  0  0  0  0  0  0
  2  1  1  0
  3 10  1  0
  4  2  1  0
  5  1  1  0
  6  1  1  0
  7  2  1  0
  8  4  2  0
  9  4  1  0
 10  5  1  0
 11  6  1  0
 12 14  2  0
 13  9  2  0
 14  8  1  0
 15 12  1  0
 16  3  1  0
 17 21  1  0
 18 22  1  0
 19  7  2  0
 20  7  1  0
 21 23  1  0
 22 16  1  0
 23 18  1  0
 24 20  2  0
 25 19  1  0
 26 25  2  0
 11  3  1  0
 13 12  1  0
 24 26  1  0
 28 32  2  0
 29 33  1  0
 30 31  1  0
 31 27  2  0
 32 29  1  0
 33 30  1  0
 34 27  1  0
 35 28  1  0
 36 27  1  0
 37 28  1  0
 38 29  2  0
 39 40  1  0
 40 34  2  0
 41 38  1  0
 42 36  2  0
 43 37  2  0
 44 31  1  0
 45 32  1  0
 46 36  1  0
 47 37  1  0
 48 39  1  0
 49 38  1  0
 50 40  1  0
 51 41  1  0
 52 49  2  0
 53 48  2  0
 54 52  1  0
 55 50  2  0
 30 39  2  0
 53 55  1  0
 35 41  2  0
 51 54  2  0
  2 56  1  1
  5 57  1  0
  5 58  1  0
  6 59  1  0
  6 60  1  0
  8 61  1  0
  9 62  1  0
 10 63  1  0
 10 64  1  0
 11 65  1  0
 11 66  1  0
 13 67  1  0
 14 68  1  0
 16 69  1  0
 16 70  1  0
 17 71  1  0
 19 72  1  0
 20 73  1  0
 21 74  1  0
 21 75  1  0
 22 76  1  0
 22 77  1  0
 23 78  1  0
 23 79  1  0
 24 80  1  0
 25 81  1  0
 26 82  1  0
 33 83  1  0
 33 84  1  0
 34 85  1  0
 35 86  1  0
 44 87  1  0
 45 88  1  0
 46 89  1  0
 47 90  1  0
 48 91  1  0
 49 92  1  0
 50 93  1  0
 51 94  1  0
 52 95  1  0
 53 96  1  0
 54 97  1  0
 55 98  1  0
M  END
> <Uni-Dock RESULT> 
ENERGY=   -6.926  LOWER_BOUND=    2.972  UPPER_BOUND=    5.311
INTER + INTRA:          -6.926
INTER:                  -6.926
INTRA:                   0.000
UNBOUND:                 0.000

$$$$

     RDKit          3D

 98103  0  0  0  0  0  0  0  0999 V2000
   45.1542   12.4832   10.0097 N   0  0  0  0  0  0  0  0  0  0  0  0
   44.3976   11.4873    9.2205 C   0  0  1  0  0  0  0  0  0  0  0  0
   46.5270   14.3137   11.7009 N   0  0  0  0  0  0  0  0  0  0  0  0
   42.9510   11.2847    9.7070 C   0  0  0  0  0  0  0  0  0  0  0  0
   44.5979   13.8331   10.0856 C   0  0  0  0  0  0  0  0  0  0  0  0
   45.5923   12.0089   11.3321 C   0  0  0  0  0  0  0  0  0  0  0  0
   44.5290   11.6686    7.6927 C   0  0  0  0  0  0  0  0  0  0  0  0
   41.9145   12.1664    9.3432 C   0  0  0  0  0  0  0  0  0  0  0  0
   42.6361   10.1930   10.5360 C   0  0  0  0  0  0  0  0  0  0  0  0
   45.6230   14.8488   10.6634 C   0  0  0  0  0  0  0  0  0  0  0  0
   45.9410   13.1340   12.3459 C   0  0  0  0  0  0  0  0  0  0  0  0
   40.3260   10.8887   10.6344 C   0  0  0  0  0  0  0  0  0  0  0  0
   41.3330   10.0005   11.0037 C   0  0  0  0  0  0  0  0  0  0  0  0
   40.6087   11.9679    9.8005 C   0  0  0  0  0  0  0  0  0  0  0  0
   38.7222   10.6535   11.2118 Cl  0  0  0  0  0  0  0  0  0  0  0  0
   46.9334   15.3305   12.6842 C   0  0  0  0  0  0  0  0  0  0  0  0
   51.2111   13.6758   12.8768 O   0  0  0  0  0  0  0  0  0  0  0  0
   48.9363   16.1575   11.4299 O   0  0  0  0  0  0  0  0  0  0  0  0
   45.5284   12.4826    7.1273 C   0  0  0  0  0  0  0  0  0  0  0  0
   43.7035   10.9451    6.8098 C   0  0  0  0  0  0  0  0  0  0  0  0
   50.2813   14.2117   11.9392 C   0  0  0  0  0  0  0  0  0  0  0  0
   47.7229   16.5233   12.0987 C   0  0  0  0  0  0  0  0  0  0  0  0
   49.9457   15.6527   12.3042 C   0  0  0  0  0  0  0  0  0  0  0  0
   43.8320   11.0778    5.4238 C   0  0  0  0  0  0  0  0  0  0  0  0
   45.6512   12.6234    5.7427 C   0  0  0  0  0  0  0  0  0  0  0  0
   44.7983   11.9251    4.8914 C   0  0  0  0  0  0  0  0  0  0  0  0
   48.9784   13.8843   10.5367 C   0  0  0  0  0  0  0  0  0  0  0  0
   42.1931   11.3584   10.0477 C   0  0  0  0  0  0  0  0  0  0  0  0
   44.6341   11.6427    9.9972 C   0  0  0  0  0  0  0  0  0  0  0  0
   46.8342   12.7437   10.9217 C   0  0  0  0  0  0  0  0  0  0  0  0
   48.1543   12.7573   10.4068 C   0  0  0  0  0  0  0  0  0  0  0  0
   43.4508   11.2310   10.6542 C   0  0  0  0  0  0  0  0  0  0  0  0
   45.9760   11.4882   10.7240 C   0  0  0  0  0  0  0  0  0  0  0  0
   48.4893   15.0107   11.2042 C   0  0  0  0  0  0  0  0  0  0  0  0
   42.1103   11.8877    8.7572 C   0  0  0  0  0  0  0  0  0  0  0  0
   50.3667   13.9754   10.0165 C   0  0  0  0  0  0  0  0  0  0  0  0
   40.9107   10.9626   10.6867 C   0  0  0  0  0  0  0  0  0  0  0  0
   44.5401   12.1208    8.6511 C   0  0  0  0  0  0  0  0  0  0  0  0
   46.3708   13.8803   11.6585 C   0  0  0  0  0  0  0  0  0  0  0  0
   47.2116   15.0199   11.7725 C   0  0  0  0  0  0  0  0  0  0  0  0
   43.2598   12.2603    8.0507 C   0  0  0  0  0  0  0  0  0  0  0  0
   51.1080   14.9370   10.1108 O   0  0  0  0  0  0  0  0  0  0  0  0
   39.8004   11.0627   10.1995 O   0  0  0  0  0  0  0  0  0  0  0  0
   48.5959   11.6206    9.7716 O   0  0  0  0  0  0  0  0  0  0  0  0
   43.5825   10.7053   11.9166 O   0  0  0  0  0  0  0  0  0  0  0  0
   50.7798   12.8497    9.4003 O   0  0  0  0  0  0  0  0  0  0  0  0
   41.0689   10.4398   11.9221 O   0  0  0  0  0  0  0  0  0  0  0  0
   45.1241   13.9517   12.3236 C   0  0  0  0  0  0  0  0  0  0  0  0
   45.6501   12.4568    7.8423 C   0  0  0  0  0  0  0  0  0  0  0  0
   46.7837   16.1609   12.4723 C   0  0  0  0  0  0  0  0  0  0  0  0
   43.1307   12.7496    6.7383 C   0  0  0  0  0  0  0  0  0  0  0  0
   45.5121   12.9328    6.5339 C   0  0  0  0  0  0  0  0  0  0  0  0
   44.7090   15.0891   13.0248 C   0  0  0  0  0  0  0  0  0  0  0  0
   44.2504   13.0856    5.9832 C   0  0  0  0  0  0  0  0  0  0  0  0
   45.5366   16.1979   13.0903 C   0  0  0  0  0  0  0  0  0  0  0  0
   44.9143   10.5273    9.3725 H   0  0  0  0  0  0  0  0  0  0  0  0
   43.7087   13.8422   10.7286 H   0  0  0  0  0  0  0  0  0  0  0  0
   44.2865   14.2009    9.1021 H   0  0  0  0  0  0  0  0  0  0  0  0
   46.4853   11.3916   11.1794 H   0  0  0  0  0  0  0  0  0  0  0  0
   44.8357   11.3750   11.8092 H   0  0  0  0  0  0  0  0  0  0  0  0
   42.1182   13.0117    8.6873 H   0  0  0  0  0  0  0  0  0  0  0  0
   43.4092    9.4857   10.8293 H   0  0  0  0  0  0  0  0  0  0  0  0
   46.2483   15.2203    9.8429 H   0  0  0  0  0  0  0  0  0  0  0  0
   45.0490   15.7017   11.0445 H   0  0  0  0  0  0  0  0  0  0  0  0
   45.0292   13.4197   12.8865 H   0  0  0  0  0  0  0  0  0  0  0  0
   46.6351   12.7205   13.0868 H   0  0  0  0  0  0  0  0  0  0  0  0
   41.1111    9.1549   11.6493 H   0  0  0  0  0  0  0  0  0  0  0  0
   39.8234   12.6591    9.5073 H   0  0  0  0  0  0  0  0  0  0  0  0
   47.5648   14.8485   13.4421 H   0  0  0  0  0  0  0  0  0  0  0  0
   46.0498   15.7164   13.2111 H   0  0  0  0  0  0  0  0  0  0  0  0
   51.4179   12.7748   12.5703 H   0  0  0  0  0  0  0  0  0  0  0  0
   46.2292   13.0196    7.7640 H   0  0  0  0  0  0  0  0  0  0  0  0
   42.9464   10.2645    7.1925 H   0  0  0  0  0  0  0  0  0  0  0  0
   49.3807   13.5874   11.9348 H   0  0  0  0  0  0  0  0  0  0  0  0
   50.7235   14.1682   10.9350 H   0  0  0  0  0  0  0  0  0  0  0  0
   47.9556   17.2394   12.8972 H   0  0  0  0  0  0  0  0  0  0  0  0
   47.1073   17.0672   11.3712 H   0  0  0  0  0  0  0  0  0  0  0  0
   49.6702   15.7426   13.3630 H   0  0  0  0  0  0  0  0  0  0  0  0
   50.8394   16.2772   12.1728 H   0  0  0  0  0  0  0  0  0  0  0  0
   43.1741   10.5201    4.7622 H   0  0  0  0  0  0  0  0  0  0  0  0
   46.4213   13.2681    5.3313 H   0  0  0  0  0  0  0  0  0  0  0  0
   44.8986   12.0300    3.8139 H   0  0  0  0  0  0  0  0  0  0  0  0
   46.5204   10.7082   10.1769 H   0  0  0  0  0  0  0  0  0  0  0  0
   45.8491   11.0622   11.7264 H   0  0  0  0  0  0  0  0  0  0  0  0
   49.1310   15.8853   11.3079 H   0  0  0  0  0  0  0  0  0  0  0  0
   41.1314   11.9849    8.2876 H   0  0  0  0  0  0  0  0  0  0  0  0
   49.5217   11.7724    9.4834 H   0  0  0  0  0  0  0  0  0  0  0  0
   42.6920   10.4449   12.2384 H   0  0  0  0  0  0  0  0  0  0  0  0
   51.7079   13.0674    9.1479 H   0  0  0  0  0  0  0  0  0  0  0  0
   40.1450   10.2255   12.1904 H   0  0  0  0  0  0  0  0  0  0  0  0
   44.4492   13.1046   12.3295 H   0  0  0  0  0  0  0  0  0  0  0  0
   46.6624   12.3357    8.2093 H   0  0  0  0  0  0  0  0  0  0  0  0
   47.4258   17.0372   12.5466 H   0  0  0  0  0  0  0  0  0  0  0  0
   42.1471   12.8656    6.2865 H   0  0  0  0  0  0  0  0  0  0  0  0
   46.3959   13.1740    5.9498 H   0  0  0  0  0  0  0  0  0  0  0  0
   43.7434   15.0977   13.5227 H   0  0  0  0  0  0  0  0  0  0  0  0
   44.1365   13.4534    4.9670 H   0  0  0  0  0  0  0  0  0  0  0  0
   45.2213   17.0873   13.6290 H   0  0  0  0  0  0  0  0  0  0  0  0
  2  1  1  0
  3 10  1  0
  4  2  1  0
  5  1  1  0
  6  1  1  0
  7  2  1  0
  8  4  2  0
  9  4  1  0
 10  5  1  0
 11  6  1  0
 12 14  2  0
 13  9  2  0
 14  8  1  0
 15 12  1  0
 16  3  1  0
 17 21  1  0
 18 22  1  0
 19  7  2  0
 20  7  1  0
 21 23  1  0
 22 16  1  0
 23 18  1  0
 24 20  2  0
 25 19  1  0
 26 25  2  0
 11  3  1  0
 13 12  1  0
 24 26  1  0
 28 32  2  0
 29 33  1  0
 30 31  1  0
 31 27  2  0
 32 29  1  0
 33 30  1  0
 34 27  1  0
 35 28  1  0
 36 27  1  0
 37 28  1  0
 38 29  2  0
 39 40  1  0
 40 34  2  0
 41 38  1  0
 42 36  2  0
 43 37  2  0
 44 31  1  0
 45 32  1  0
 46 36  1  0
 47 37  1  0
 48 39  1  0
 49 38  1  0
 50 40  1  0
 51 41  1  0
 52 49  2  0
 53 48  2  0
 54 52  1  0
 55 50  2  0
 30 39  2  0
 53 55  1  0
 35 41  2  0
 51 54  2  0
  2 56  1  1
  5 57  1  0
  5 58  1  0
  6 59  1  0
  6 60  1  0
  8 61  1  0
  9 62  1  0
 10 63  1  0
 10 64  1  0
 11 65  1  0
 11 66  1  0
 13 67  1  0
 14 68  1  0
 16 69  1  0
 16 70  1  0
 17 71  1  0
 19 72  1  0
 20 73  1  0
 21 74  1  0
 21 75  1  0
 22 76  1  0
 22 77  1  0
 23 78  1  0
 23 79  1  0
 24 80  1  0
 25 81  1  0
 26 82  1  0
 33 83  1  0
 33 84  1  0
 34 85  1  0
 35 86  1  0
 44 87  1  0
 45 88  1  0
 46 89  1  0
 47 90  1  0
 48 91  1  0
 49 92  1  0
 50 93  1  0
 51 94  1  0
 52 95  1  0
 53 96  1  0
 54 97  1  0
 55 98  1  0
M  END
> <Uni-Dock RESULT> 
ENERGY=   -6.144  LOWER_BOUND=    9.771  UPPER_BOUND=   12.294
INTER + INTRA:          -6.144
INTER:                  -6.144
INTRA:                   0.000
UNBOUND:                 0.000

$$$$

     RDKit          3D

 98103  0  0  0  0  0  0  0  0999 V2000
   52.8213    8.4859   10.7506 N   0  0  0  0  0  0  0  0  0  0  0  0
   54.1296    8.0571   10.2104 C   0  0  1  0  0  0  0  0  0  0  0  0
   50.3821    9.2786   11.9823 N   0  0  0  0  0  0  0  0  0  0  0  0
   54.7135    6.8205   10.9174 C   0  0  0  0  0  0  0  0  0  0  0  0
   51.7390    7.5033   10.7298 C   0  0  0  0  0  0  0  0  0  0  0  0
   52.8934    9.1765   12.0481 C   0  0  0  0  0  0  0  0  0  0  0  0
   54.1759    7.9820    8.6688 C   0  0  0  0  0  0  0  0  0  0  0  0
   54.2990    5.5140   10.5928 C   0  0  0  0  0  0  0  0  0  0  0  0
   55.6912    6.9798   11.9159 C   0  0  0  0  0  0  0  0  0  0  0  0
   50.3594    8.1572   11.0222 C   0  0  0  0  0  0  0  0  0  0  0  0
   51.5622    9.1994   12.8496 C   0  0  0  0  0  0  0  0  0  0  0  0
   55.7922    4.5903   12.2480 C   0  0  0  0  0  0  0  0  0  0  0  0
   56.2217    5.8719   12.5832 C   0  0  0  0  0  0  0  0  0  0  0  0
   54.8377    4.4048   11.2508 C   0  0  0  0  0  0  0  0  0  0  0  0
   56.4431    3.2263   13.0707 Cl  0  0  0  0  0  0  0  0  0  0  0  0
   49.1374    9.3905   12.7596 C   0  0  0  0  0  0  0  0  0  0  0  0
   49.2274   13.9758   12.5597 O   0  0  0  0  0  0  0  0  0  0  0  0
   47.9195   10.8611   11.1402 O   0  0  0  0  0  0  0  0  0  0  0  0
   53.1853    8.5814    7.8685 C   0  0  0  0  0  0  0  0  0  0  0  0
   55.2698    7.3858    8.0112 C   0  0  0  0  0  0  0  0  0  0  0  0
   49.1956   12.8388   11.7012 C   0  0  0  0  0  0  0  0  0  0  0  0
   47.8679    9.6603   11.9204 C   0  0  0  0  0  0  0  0  0  0  0  0
   47.9068   12.0559   11.9215 C   0  0  0  0  0  0  0  0  0  0  0  0
   55.3384    7.3373    6.6154 C   0  0  0  0  0  0  0  0  0  0  0  0
   53.2480    8.5250    6.4738 C   0  0  0  0  0  0  0  0  0  0  0  0
   54.3221    7.8971    5.8480 C   0  0  0  0  0  0  0  0  0  0  0  0
   50.1673   11.6133   10.5499 C   0  0  0  0  0  0  0  0  0  0  0  0
   54.8380    6.1175   11.3491 C   0  0  0  0  0  0  0  0  0  0  0  0
   53.7758    8.2921   10.9195 C   0  0  0  0  0  0  0  0  0  0  0  0
   51.8701   10.0434   11.3760 C   0  0  0  0  0  0  0  0  0  0  0  0
   51.5081   11.2253   10.6832 C   0  0  0  0  0  0  0  0  0  0  0  0
   54.4382    7.3890   11.7839 C   0  0  0  0  0  0  0  0  0  0  0  0
   53.3528    9.6623   11.4642 C   0  0  0  0  0  0  0  0  0  0  0  0
   49.1703   10.8234   11.1291 C   0  0  0  0  0  0  0  0  0  0  0  0
   54.5920    5.7422   10.0258 C   0  0  0  0  0  0  0  0  0  0  0  0
   49.7118   12.8314    9.8322 C   0  0  0  0  0  0  0  0  0  0  0  0
   55.5215    5.1148   12.2076 C   0  0  0  0  0  0  0  0  0  0  0  0
   53.5904    7.9193    9.5498 C   0  0  0  0  0  0  0  0  0  0  0  0
   50.8433    9.2800   12.0184 C   0  0  0  0  0  0  0  0  0  0  0  0
   49.4880    9.6779   11.8655 C   0  0  0  0  0  0  0  0  0  0  0  0
   53.9855    6.6229    9.1226 C   0  0  0  0  0  0  0  0  0  0  0  0
   48.5579   13.1967    9.6968 O   0  0  0  0  0  0  0  0  0  0  0  0
   55.8779    4.0009   11.8726 O   0  0  0  0  0  0  0  0  0  0  0  0
   52.5249   11.9773   10.1436 O   0  0  0  0  0  0  0  0  0  0  0  0
   54.6695    7.8063   13.0723 O   0  0  0  0  0  0  0  0  0  0  0  0
   50.7246   13.5547    9.3139 O   0  0  0  0  0  0  0  0  0  0  0  0
   55.7459    5.5534   13.4653 O   0  0  0  0  0  0  0  0  0  0  0  0
   51.0767    8.1503   12.8374 C   0  0  0  0  0  0  0  0  0  0  0  0
   53.0482    8.7669    8.5566 C   0  0  0  0  0  0  0  0  0  0  0  0
   48.4516    8.9429   12.4659 C   0  0  0  0  0  0  0  0  0  0  0  0
   53.7957    6.2165    7.7895 C   0  0  0  0  0  0  0  0  0  0  0  0
   52.8729    8.3571    7.2303 C   0  0  0  0  0  0  0  0  0  0  0  0
   50.0393    7.4285   13.4379 C   0  0  0  0  0  0  0  0  0  0  0  0
   53.2411    7.0778    6.8475 C   0  0  0  0  0  0  0  0  0  0  0  0
   48.7251    7.8206   13.2433 C   0  0  0  0  0  0  0  0  0  0  0  0
   54.8245    8.8870   10.4103 H   0  0  0  0  0  0  0  0  0  0  0  0
   51.9157    6.7270   11.4849 H   0  0  0  0  0  0  0  0  0  0  0  0
   51.6665    6.9980    9.7608 H   0  0  0  0  0  0  0  0  0  0  0  0
   53.1973   10.2114   11.8519 H   0  0  0  0  0  0  0  0  0  0  0  0
   53.6515    8.7332   12.7044 H   0  0  0  0  0  0  0  0  0  0  0  0
   53.5576    5.3520    9.8116 H   0  0  0  0  0  0  0  0  0  0  0  0
   56.0429    7.9735   12.1860 H   0  0  0  0  0  0  0  0  0  0  0  0
   49.9464    8.5391   10.0810 H   0  0  0  0  0  0  0  0  0  0  0  0
   49.6927    7.3580   11.3673 H   0  0  0  0  0  0  0  0  0  0  0  0
   51.5070    8.2966   13.4718 H   0  0  0  0  0  0  0  0  0  0  0  0
   51.5915   10.0565   13.5325 H   0  0  0  0  0  0  0  0  0  0  0  0
   56.9711    6.0163   13.3568 H   0  0  0  0  0  0  0  0  0  0  0  0
   54.5049    3.4054   10.9846 H   0  0  0  0  0  0  0  0  0  0  0  0
   49.2482   10.2143   13.4768 H   0  0  0  0  0  0  0  0  0  0  0  0
   48.9821    8.4779   13.3515 H   0  0  0  0  0  0  0  0  0  0  0  0
   50.0475   14.4556   12.3457 H   0  0  0  0  0  0  0  0  0  0  0  0
   52.3475    9.1045    8.3258 H   0  0  0  0  0  0  0  0  0  0  0  0
   56.0874    6.9499    8.5809 H   0  0  0  0  0  0  0  0  0  0  0  0
   50.0737   12.2154   11.9039 H   0  0  0  0  0  0  0  0  0  0  0  0
   49.2596   13.1782   10.6588 H   0  0  0  0  0  0  0  0  0  0  0  0
   46.9911    9.6985   12.5795 H   0  0  0  0  0  0  0  0  0  0  0  0
   47.6893    8.8323   11.2230 H   0  0  0  0  0  0  0  0  0  0  0  0
   47.7355   11.8608   12.9880 H   0  0  0  0  0  0  0  0  0  0  0  0
   47.0537   12.6609   11.5865 H   0  0  0  0  0  0  0  0  0  0  0  0
   56.1854    6.8592    6.1302 H   0  0  0  0  0  0  0  0  0  0  0  0
   52.4643    8.9829    5.8788 H   0  0  0  0  0  0  0  0  0  0  0  0
   54.3737    7.8593    4.7626 H   0  0  0  0  0  0  0  0  0  0  0  0
   53.9896   10.3938   10.9507 H   0  0  0  0  0  0  0  0  0  0  0  0
   53.6210    9.7805   12.5208 H   0  0  0  0  0  0  0  0  0  0  0  0
   48.1285   11.1268   11.0281 H   0  0  0  0  0  0  0  0  0  0  0  0
   54.9047    4.7534    9.6900 H   0  0  0  0  0  0  0  0  0  0  0  0
   52.1267   12.7631    9.7110 H   0  0  0  0  0  0  0  0  0  0  0  0
   55.1512    7.0943   13.5469 H   0  0  0  0  0  0  0  0  0  0  0  0
   50.2583   14.3228    8.9076 H   0  0  0  0  0  0  0  0  0  0  0  0
   56.2049    4.7894   13.8862 H   0  0  0  0  0  0  0  0  0  0  0  0
   52.0854    7.8160   13.0471 H   0  0  0  0  0  0  0  0  0  0  0  0
   52.7640    9.7861    8.7900 H   0  0  0  0  0  0  0  0  0  0  0  0
   47.4132    9.2435   12.3359 H   0  0  0  0  0  0  0  0  0  0  0  0
   54.0894    5.2183    7.4694 H   0  0  0  0  0  0  0  0  0  0  0  0
   52.4556    9.0464    6.5016 H   0  0  0  0  0  0  0  0  0  0  0  0
   50.2663    6.5683   14.0615 H   0  0  0  0  0  0  0  0  0  0  0  0
   53.1090    6.7540    5.8187 H   0  0  0  0  0  0  0  0  0  0  0  0
   47.9125    7.2641   13.7021 H   0  0  0  0  0  0  0  0  0  0  0  0
  2  1  1  0
  3 10  1  0
  4  2  1  0
  5  1  1  0
  6  1  1  0
  7  2  1  0
  8  4  2  0
  9  4  1  0
 10  5  1  0
 11  6  1  0
 12 14  2  0
 13  9  2  0
 14  8  1  0
 15 12  1  0
 16  3  1  0
 17 21  1  0
 18 22  1  0
 19  7  2  0
 20  7  1  0
 21 23  1  0
 22 16  1  0
 23 18  1  0
 24 20  2  0
 25 19  1  0
 26 25  2  0
 11  3  1  0
 13 12  1  0
 24 26  1  0
 28 32  2  0
 29 33  1  0
 30 31  1  0
 31 27  2  0
 32 29  1  0
 33 30  1  0
 34 27  1  0
 35 28  1  0
 36 27  1  0
 37 28  1  0
 38 29  2  0
 39 40  1  0
 40 34  2  0
 41 38  1  0
 42 36  2  0
 43 37  2  0
 44 31  1  0
 45 32  1  0
 46 36  1  0
 47 37  1  0
 48 39  1  0
 49 38  1  0
 50 40  1  0
 51 41  1  0
 52 49  2  0
 53 48  2  0
 54 52  1  0
 55 50  2  0
 30 39  2  0
 53 55  1  0
 35 41  2  0
 51 54  2  0
  2 56  1  1
  5 57  1  0
  5 58  1  0
  6 59  1  0
  6 60  1  0
  8 61  1  0
  9 62  1  0
 10 63  1  0
 10 64  1  0
 11 65  1  0
 11 66  1  0
 13 67  1  0
 14 68  1  0
 16 69  1  0
 16 70  1  0
 17 71  1  0
 19 72  1  0
 20 73  1  0
 21 74  1  0
 21 75  1  0
 22 76  1  0
 22 77  1  0
 23 78  1  0
 23 79  1  0
 24 80  1  0
 25 81  1  0
 26 82  1  0
 33 83  1  0
 33 84  1  0
 34 85  1  0
 35 86  1  0
 44 87  1  0
 45 88  1  0
 46 89  1  0
 47 90  1  0
 48 91  1  0
 49 92  1  0
 50 93  1  0
 51 94  1  0
 52 95  1  0
 53 96  1  0
 54 97  1  0
 55 98  1  0
M  END
> <Uni-Dock RESULT> 
ENERGY=   -5.922  LOWER_BOUND=    7.487  UPPER_BOUND=   10.685
INTER + INTRA:          -5.922
INTER:                  -5.922
INTRA:                   0.000
UNBOUND:                 0.000

$$$$

     RDKit          3D

 98103  0  0  0  0  0  0  0  0999 V2000
   49.5089    8.9519   16.7779 N   0  0  0  0  0  0  0  0  0  0  0  0
   50.0091   10.0165   17.6744 C   0  0  1  0  0  0  0  0  0  0  0  0
   48.7252    6.9220   14.9447 N   0  0  0  0  0  0  0  0  0  0  0  0
   50.6761   11.1872   16.9296 C   0  0  0  0  0  0  0  0  0  0  0  0
   48.5361    9.3433   15.7591 C   0  0  0  0  0  0  0  0  0  0  0  0
   50.5569    8.0863   16.2140 C   0  0  0  0  0  0  0  0  0  0  0  0
   48.9957   10.4525   18.7548 C   0  0  0  0  0  0  0  0  0  0  0  0
   49.9206   12.2199   16.3405 C   0  0  0  0  0  0  0  0  0  0  0  0
   52.0776   11.2459   16.8267 C   0  0  0  0  0  0  0  0  0  0  0  0
   47.8597    8.1080   15.1013 C   0  0  0  0  0  0  0  0  0  0  0  0
   50.1406    7.3063   14.9360 C   0  0  0  0  0  0  0  0  0  0  0  0
   51.9343   13.2971   15.5611 C   0  0  0  0  0  0  0  0  0  0  0  0
   52.7030   12.2902   16.1396 C   0  0  0  0  0  0  0  0  0  0  0  0
   50.5455   13.2711   15.6637 C   0  0  0  0  0  0  0  0  0  0  0  0
   52.7034   14.5817   14.7130 Cl  0  0  0  0  0  0  0  0  0  0  0  0
   48.3714    6.1075   13.7711 C   0  0  0  0  0  0  0  0  0  0  0  0
   49.1435    2.1949   16.0447 O   0  0  0  0  0  0  0  0  0  0  0  0
   46.6801    4.6649   14.9231 O   0  0  0  0  0  0  0  0  0  0  0  0
   47.8570    9.6818   19.0554 C   0  0  0  0  0  0  0  0  0  0  0  0
   49.2325   11.5966   19.5419 C   0  0  0  0  0  0  0  0  0  0  0  0
   48.3367    3.3674   16.1175 C   0  0  0  0  0  0  0  0  0  0  0  0
   46.9454    5.5119   13.7982 C   0  0  0  0  0  0  0  0  0  0  0  0
   47.4137    3.4402   14.9071 C   0  0  0  0  0  0  0  0  0  0  0  0
   48.3377   11.9858   20.5433 C   0  0  0  0  0  0  0  0  0  0  0  0
   46.9572   10.0752   20.0492 C   0  0  0  0  0  0  0  0  0  0  0  0
   47.1952   11.2311   20.7888 C   0  0  0  0  0  0  0  0  0  0  0  0
   48.0393    5.1192   16.9013 C   0  0  0  0  0  0  0  0  0  0  0  0
   50.9259   11.7559   16.3727 C   0  0  0  0  0  0  0  0  0  0  0  0
   50.2730    9.4969   17.0882 C   0  0  0  0  0  0  0  0  0  0  0  0
   49.5295    7.0391   16.5277 C   0  0  0  0  0  0  0  0  0  0  0  0
   49.0218    6.0092   17.3580 C   0  0  0  0  0  0  0  0  0  0  0  0
   51.1630   10.3751   16.4263 C   0  0  0  0  0  0  0  0  0  0  0  0
   50.5852    7.9950   17.0965 C   0  0  0  0  0  0  0  0  0  0  0  0
   47.5653    5.2432   15.5923 C   0  0  0  0  0  0  0  0  0  0  0  0
   49.7934   12.2771   17.0038 C   0  0  0  0  0  0  0  0  0  0  0  0
   47.4542    4.0227   17.7148 C   0  0  0  0  0  0  0  0  0  0  0  0
   51.8088   12.7316   15.6811 C   0  0  0  0  0  0  0  0  0  0  0  0
   49.1535   10.0527   17.7861 C   0  0  0  0  0  0  0  0  0  0  0  0
   49.0814    7.1128   15.1701 C   0  0  0  0  0  0  0  0  0  0  0  0
   48.0771    6.2124   14.7237 C   0  0  0  0  0  0  0  0  0  0  0  0
   48.9136   11.4513   17.7133 C   0  0  0  0  0  0  0  0  0  0  0  0
   46.6006    3.2342   17.3507 O   0  0  0  0  0  0  0  0  0  0  0  0
   51.6362   13.9334   15.6050 O   0  0  0  0  0  0  0  0  0  0  0  0
   49.5295    5.9178   18.6325 O   0  0  0  0  0  0  0  0  0  0  0  0
   52.2692    9.8189   15.8310 O   0  0  0  0  0  0  0  0  0  0  0  0
   47.9681    3.9498   18.9590 O   0  0  0  0  0  0  0  0  0  0  0  0
   52.8934   12.1607   15.1134 O   0  0  0  0  0  0  0  0  0  0  0  0
   49.5908    8.0128   14.2045 C   0  0  0  0  0  0  0  0  0  0  0  0
   48.2535    9.3042   18.5791 C   0  0  0  0  0  0  0  0  0  0  0  0
   47.5992    6.2667   13.4034 C   0  0  0  0  0  0  0  0  0  0  0  0
   47.8092   12.0263   18.3676 C   0  0  0  0  0  0  0  0  0  0  0  0
   47.1635    9.8868   19.2349 C   0  0  0  0  0  0  0  0  0  0  0  0
   49.1146    8.0550   12.8895 C   0  0  0  0  0  0  0  0  0  0  0  0
   46.9371   11.2488   19.1239 C   0  0  0  0  0  0  0  0  0  0  0  0
   48.1108    7.1870   12.4924 C   0  0  0  0  0  0  0  0  0  0  0  0
   50.7952    9.5493   18.2872 H   0  0  0  0  0  0  0  0  0  0  0  0
   49.0268    9.9251   14.9687 H   0  0  0  0  0  0  0  0  0  0  0  0
   47.7420    9.9726   16.1749 H   0  0  0  0  0  0  0  0  0  0  0  0
   50.8338    7.3607   16.9876 H   0  0  0  0  0  0  0  0  0  0  0  0
   51.4606    8.6527   15.9600 H   0  0  0  0  0  0  0  0  0  0  0  0
   48.8342   12.2168   16.4168 H   0  0  0  0  0  0  0  0  0  0  0  0
   52.6938   10.4709   17.2781 H   0  0  0  0  0  0  0  0  0  0  0  0
   47.0021    7.8097   15.7159 H   0  0  0  0  0  0  0  0  0  0  0  0
   47.4649    8.4367   14.1327 H   0  0  0  0  0  0  0  0  0  0  0  0
   50.3522    7.9278   14.0561 H   0  0  0  0  0  0  0  0  0  0  0  0
   50.7765    6.4166   14.8587 H   0  0  0  0  0  0  0  0  0  0  0  0
   53.7869   12.3139   16.0649 H   0  0  0  0  0  0  0  0  0  0  0  0
   49.9444   14.0583   15.2172 H   0  0  0  0  0  0  0  0  0  0  0  0
   49.0828    5.2744   13.6988 H   0  0  0  0  0  0  0  0  0  0  0  0
   48.4888    6.7010   12.8540 H   0  0  0  0  0  0  0  0  0  0  0  0
   49.6780    2.1814   16.8588 H   0  0  0  0  0  0  0  0  0  0  0  0
   47.6568    8.7581   18.5154 H   0  0  0  0  0  0  0  0  0  0  0  0
   50.1223   12.2019   19.3847 H   0  0  0  0  0  0  0  0  0  0  0  0
   48.9897    4.2459   16.1673 H   0  0  0  0  0  0  0  0  0  0  0  0
   47.7465    3.3362   17.0430 H   0  0  0  0  0  0  0  0  0  0  0  0
   46.7634    4.9481   12.8742 H   0  0  0  0  0  0  0  0  0  0  0  0
   46.1977    6.3146   13.8179 H   0  0  0  0  0  0  0  0  0  0  0  0
   47.9693    3.2935   13.9718 H   0  0  0  0  0  0  0  0  0  0  0  0
   46.6866    2.6187   14.9560 H   0  0  0  0  0  0  0  0  0  0  0  0
   48.5341   12.8806   21.1284 H   0  0  0  0  0  0  0  0  0  0  0  0
   46.0788    9.4711   20.2527 H   0  0  0  0  0  0  0  0  0  0  0  0
   46.4980   11.5332   21.5665 H   0  0  0  0  0  0  0  0  0  0  0  0
   50.8334    7.7505   18.1371 H   0  0  0  0  0  0  0  0  0  0  0  0
   51.5078    7.7682   16.5490 H   0  0  0  0  0  0  0  0  0  0  0  0
   46.8040    4.5494   15.2364 H   0  0  0  0  0  0  0  0  0  0  0  0
   49.6118   13.3511   16.9614 H   0  0  0  0  0  0  0  0  0  0  0  0
   49.0974    5.1582   19.0793 H   0  0  0  0  0  0  0  0  0  0  0  0
   52.8031   10.5408   15.4333 H   0  0  0  0  0  0  0  0  0  0  0  0
   47.5014    3.1701   19.3423 H   0  0  0  0  0  0  0  0  0  0  0  0
   53.3654   12.9303   14.7178 H   0  0  0  0  0  0  0  0  0  0  0  0
   50.3955    8.6944   14.4515 H   0  0  0  0  0  0  0  0  0  0  0  0
   48.3925    8.2393   18.7231 H   0  0  0  0  0  0  0  0  0  0  0  0
   46.8203    5.5834   13.0686 H   0  0  0  0  0  0  0  0  0  0  0  0
   47.6228   13.0967   18.2995 H   0  0  0  0  0  0  0  0  0  0  0  0
   46.5015    9.2704   19.8367 H   0  0  0  0  0  0  0  0  0  0  0  0
   49.5378    8.7617   12.1812 H   0  0  0  0  0  0  0  0  0  0  0  0
   46.0933   11.7076   19.6321 H   0  0  0  0  0  0  0  0  0  0  0  0
   47.7317    7.2150   11.4745 H   0  0  0  0  0  0  0  0  0  0  0  0
  2  1  1  0
  3 10  1  0
  4  2  1  0
  5  1  1  0
  6  1  1  0
  7  2  1  0
  8  4  2  0
  9  4  1  0
 10  5  1  0
 11  6  1  0
 12 14  2  0
 13  9  2  0
 14  8  1  0
 15 12  1  0
 16  3  1  0
 17 21  1  0
 18 22  1  0
 19  7  2  0
 20  7  1  0
 21 23  1  0
 22 16  1  0
 23 18  1  0
 24 20  2  0
 25 19  1  0
 26 25  2  0
 11  3  1  0
 13 12  1  0
 24 26  1  0
 28 32  2  0
 29 33  1  0
 30 31  1  0
 31 27  2  0
 32 29  1  0
 33 30  1  0
 34 27  1  0
 35 28  1  0
 36 27  1  0
 37 28  1  0
 38 29  2  0
 39 40  1  0
 40 34  2  0
 41 38  1  0
 42 36  2  0
 43 37  2  0
 44 31  1  0
 45 32  1  0
 46 36  1  0
 47 37  1  0
 48 39  1  0
 49 38  1  0
 50 40  1  0
 51 41  1  0
 52 49  2  0
 53 48  2  0
 54 52  1  0
 55 50  2  0
 30 39  2  0
 53 55  1  0
 35 41  2  0
 51 54  2  0
  2 56  1  1
  5 57  1  0
  5 58  1  0
  6 59  1  0
  6 60  1  0
  8 61  1  0
  9 62  1  0
 10 63  1  0
 10 64  1  0
 11 65  1  0
 11 66  1  0
 13 67  1  0
 14 68  1  0
 16 69  1  0
 16 70  1  0
 17 71  1  0
 19 72  1  0
 20 73  1  0
 21 74  1  0
 21 75  1  0
 22 76  1  0
 22 77  1  0
 23 78  1  0
 23 79  1  0
 24 80  1  0
 25 81  1  0
 26 82  1  0
 33 83  1  0
 33 84  1  0
 34 85  1  0
 35 86  1  0
 44 87  1  0
 45 88  1  0
 46 89  1  0
 47 90  1  0
 48 91  1  0
 49 92  1  0
 50 93  1  0
 51 94  1  0
 52 95  1  0
 53 96  1  0
 54 97  1  0
 55 98  1  0
M  END
> <Uni-Dock RESULT> 
ENERGY=   -5.746  LOWER_BOUND=    3.522  UPPER_BOUND=    7.429
INTER + INTRA:          -5.746
INTER:                  -5.746
INTRA:                   0.000
UNBOUND:                 0.000

$$$$

     RDKit          3D

 98103  0  0  0  0  0  0  0  0999 V2000
   49.4095    8.9594   17.1089 N   0  0  0  0  0  0  0  0  0  0  0  0
   49.9183    8.0038   16.1014 C   0  0  1  0  0  0  0  0  0  0  0  0
   48.5234   10.6803   19.1943 N   0  0  0  0  0  0  0  0  0  0  0  0
   49.7703    6.5295   16.5195 C   0  0  0  0  0  0  0  0  0  0  0  0
   48.0080    8.8265   17.5032 C   0  0  0  0  0  0  0  0  0  0  0  0
   50.2821    9.1327   18.2812 C   0  0  0  0  0  0  0  0  0  0  0  0
   49.4453    8.3010   14.6619 C   0  0  0  0  0  0  0  0  0  0  0  0
   48.5541    5.8341   16.3731 C   0  0  0  0  0  0  0  0  0  0  0  0
   50.8699    5.8405   17.0621 C   0  0  0  0  0  0  0  0  0  0  0  0
   47.5157   10.0598   18.3113 C   0  0  0  0  0  0  0  0  0  0  0  0
   49.5792    9.7213   19.5360 C   0  0  0  0  0  0  0  0  0  0  0  0
   49.5382    3.8422   17.3149 C   0  0  0  0  0  0  0  0  0  0  0  0
   50.7526    4.5071   17.4650 C   0  0  0  0  0  0  0  0  0  0  0  0
   48.4391    4.4973   16.7644 C   0  0  0  0  0  0  0  0  0  0  0  0
   49.3925    2.2016   17.8128 Cl  0  0  0  0  0  0  0  0  0  0  0  0
   47.9314   11.2940   20.3939 C   0  0  0  0  0  0  0  0  0  0  0  0
   50.8210   14.8559   20.2021 O   0  0  0  0  0  0  0  0  0  0  0  0
   47.4998   13.5429   19.3817 O   0  0  0  0  0  0  0  0  0  0  0  0
   48.8728    9.5381   14.3116 C   0  0  0  0  0  0  0  0  0  0  0  0
   49.6599    7.3682   13.6282 C   0  0  0  0  0  0  0  0  0  0  0  0
   49.8273   14.2034   19.4162 C   0  0  0  0  0  0  0  0  0  0  0  0
   46.9397   12.4458   20.1138 C   0  0  0  0  0  0  0  0  0  0  0  0
   48.4750   14.2853   20.1140 C   0  0  0  0  0  0  0  0  0  0  0  0
   49.2631    7.6372   12.3147 C   0  0  0  0  0  0  0  0  0  0  0  0
   48.4670    9.8039   13.0013 C   0  0  0  0  0  0  0  0  0  0  0  0
   48.6569    8.8502   12.0043 C   0  0  0  0  0  0  0  0  0  0  0  0
   49.4113   12.9746   17.9710 C   0  0  0  0  0  0  0  0  0  0  0  0
   49.5460    5.8040   16.8650 C   0  0  0  0  0  0  0  0  0  0  0  0
   50.0233    8.2151   16.8936 C   0  0  0  0  0  0  0  0  0  0  0  0
   49.8924   10.5649   18.0634 C   0  0  0  0  0  0  0  0  0  0  0  0
   50.1697   11.8648   17.5720 C   0  0  0  0  0  0  0  0  0  0  0  0
   50.1882    6.9157   17.4284 C   0  0  0  0  0  0  0  0  0  0  0  0
   50.7437    9.3896   17.5678 C   0  0  0  0  0  0  0  0  0  0  0  0
   48.3709   12.7933   18.8866 C   0  0  0  0  0  0  0  0  0  0  0  0
   48.7392    5.9827   15.7382 C   0  0  0  0  0  0  0  0  0  0  0  0
   49.6367   14.3629   17.4932 C   0  0  0  0  0  0  0  0  0  0  0  0
   49.6617    4.4165   17.3856 C   0  0  0  0  0  0  0  0  0  0  0  0
   49.2477    8.3722   15.7006 C   0  0  0  0  0  0  0  0  0  0  0  0
   48.8662   10.4058   19.0488 C   0  0  0  0  0  0  0  0  0  0  0  0
   48.0977   11.5365   19.4355 C   0  0  0  0  0  0  0  0  0  0  0  0
   48.5888    7.2420   15.1459 C   0  0  0  0  0  0  0  0  0  0  0  0
   48.9976   15.3474   17.8176 O   0  0  0  0  0  0  0  0  0  0  0  0
   49.1171    3.4277   16.9321 O   0  0  0  0  0  0  0  0  0  0  0  0
   51.2122   11.9953   16.6850 O   0  0  0  0  0  0  0  0  0  0  0  0
   51.0004    6.7868   18.5289 O   0  0  0  0  0  0  0  0  0  0  0  0
   50.6646   14.4681   16.6273 O   0  0  0  0  0  0  0  0  0  0  0  0
   50.4732    4.3158   18.4607 O   0  0  0  0  0  0  0  0  0  0  0  0
   48.5670    9.1895   19.7067 C   0  0  0  0  0  0  0  0  0  0  0  0
   49.0959    9.5909   15.0001 C   0  0  0  0  0  0  0  0  0  0  0  0
   47.0700   11.4154   20.3861 C   0  0  0  0  0  0  0  0  0  0  0  0
   47.7998    7.3665   13.9882 C   0  0  0  0  0  0  0  0  0  0  0  0
   48.3173    9.7026   13.8430 C   0  0  0  0  0  0  0  0  0  0  0  0
   47.5469    9.0793   20.6580 C   0  0  0  0  0  0  0  0  0  0  0  0
   47.6630    8.5903   13.3398 C   0  0  0  0  0  0  0  0  0  0  0  0
   46.7918   10.1921   20.9902 C   0  0  0  0  0  0  0  0  0  0  0  0
   50.9989    8.1975   16.0214 H   0  0  0  0  0  0  0  0  0  0  0  0
   47.8714    7.9335   18.1262 H   0  0  0  0  0  0  0  0  0  0  0  0
   47.3496    8.7159   16.6351 H   0  0  0  0  0  0  0  0  0  0  0  0
   51.0928    9.8102   17.9888 H   0  0  0  0  0  0  0  0  0  0  0  0
   50.7430    8.1871   18.5898 H   0  0  0  0  0  0  0  0  0  0  0  0
   47.6872    6.3306   15.9393 H   0  0  0  0  0  0  0  0  0  0  0  0
   51.8279    6.3426   17.1807 H   0  0  0  0  0  0  0  0  0  0  0  0
   47.1792   10.8289   17.6060 H   0  0  0  0  0  0  0  0  0  0  0  0
   46.6371    9.7384   18.8831 H   0  0  0  0  0  0  0  0  0  0  0  0
   49.1569    8.8971   20.1257 H   0  0  0  0  0  0  0  0  0  0  0  0
   50.3427   10.2013   20.1593 H   0  0  0  0  0  0  0  0  0  0  0  0
   51.6119    3.9941   17.8887 H   0  0  0  0  0  0  0  0  0  0  0  0
   47.4922    3.9788   16.6420 H   0  0  0  0  0  0  0  0  0  0  0  0
   48.7428   11.6924   21.0170 H   0  0  0  0  0  0  0  0  0  0  0  0
   47.4221   10.5275   20.9942 H   0  0  0  0  0  0  0  0  0  0  0  0
   51.6480   14.8078   19.6898 H   0  0  0  0  0  0  0  0  0  0  0  0
   48.7364   10.3157   15.0610 H   0  0  0  0  0  0  0  0  0  0  0  0
   50.1424    6.4154   13.8340 H   0  0  0  0  0  0  0  0  0  0  0  0
   50.1260   13.1609   19.2590 H   0  0  0  0  0  0  0  0  0  0  0  0
   49.7763   14.6888   18.4325 H   0  0  0  0  0  0  0  0  0  0  0  0
   46.5304   12.8189   21.0614 H   0  0  0  0  0  0  0  0  0  0  0  0
   46.0829   12.0784   19.5351 H   0  0  0  0  0  0  0  0  0  0  0  0
   48.5468   13.9681   21.1624 H   0  0  0  0  0  0  0  0  0  0  0  0
   48.1432   15.3319   20.1393 H   0  0  0  0  0  0  0  0  0  0  0  0
   49.4261    6.8962   11.5364 H   0  0  0  0  0  0  0  0  0  0  0  0
   48.0151   10.7605   12.7592 H   0  0  0  0  0  0  0  0  0  0  0  0
   48.3470    9.0601   10.9836 H   0  0  0  0  0  0  0  0  0  0  0  0
   51.5082    9.7174   16.8521 H   0  0  0  0  0  0  0  0  0  0  0  0
   51.3252    9.0644   18.4387 H   0  0  0  0  0  0  0  0  0  0  0  0
   47.7836   13.6565   19.1990 H   0  0  0  0  0  0  0  0  0  0  0  0
   48.2418    5.1166   15.3016 H   0  0  0  0  0  0  0  0  0  0  0  0
   51.2917   12.9437   16.4453 H   0  0  0  0  0  0  0  0  0  0  0  0
   51.0398    5.8371   18.7756 H   0  0  0  0  0  0  0  0  0  0  0  0
   50.6920   15.4355   16.4379 H   0  0  0  0  0  0  0  0  0  0  0  0
   50.4476    3.3522   18.6663 H   0  0  0  0  0  0  0  0  0  0  0  0
   49.1435    8.2945   19.5072 H   0  0  0  0  0  0  0  0  0  0  0  0
   49.6025   10.4896   15.3315 H   0  0  0  0  0  0  0  0  0  0  0  0
   46.4747   12.2816   20.6705 H   0  0  0  0  0  0  0  0  0  0  0  0
   47.2875    6.5002   13.5733 H   0  0  0  0  0  0  0  0  0  0  0  0
   48.2342   10.6605   13.3371 H   0  0  0  0  0  0  0  0  0  0  0  0
   47.3544    8.1246   21.1397 H   0  0  0  0  0  0  0  0  0  0  0  0
   47.0580    8.6701   12.4406 H   0  0  0  0  0  0  0  0  0  0  0  0
   45.9949   10.1154   21.7247 H   0  0  0  0  0  0  0  0  0  0  0  0
  2  1  1  0
  3 10  1  0
  4  2  1  0
  5  1  1  0
  6  1  1  0
  7  2  1  0
  8  4  2  0
  9  4  1  0
 10  5  1  0
 11  6  1  0
 12 14  2  0
 13  9  2  0
 14  8  1  0
 15 12  1  0
 16  3  1  0
 17 21  1  0
 18 22  1  0
 19  7  2  0
 20  7  1  0
 21 23  1  0
 22 16  1  0
 23 18  1  0
 24 20  2  0
 25 19  1  0
 26 25  2  0
 11  3  1  0
 13 12  1  0
 24 26  1  0
 28 32  2  0
 29 33  1  0
 30 31  1  0
 31 27  2  0
 32 29  1  0
 33 30  1  0
 34 27  1  0
 35 28  1  0
 36 27  1  0
 37 28  1  0
 38 29  2  0
 39 40  1  0
 40 34  2  0
 41 38  1  0
 42 36  2  0
 43 37  2  0
 44 31  1  0
 45 32  1  0
 46 36  1  0
 47 37  1  0
 48 39  1  0
 49 38  1  0
 50 40  1  0
 51 41  1  0
 52 49  2  0
 53 48  2  0
 54 52  1  0
 55 50  2  0
 30 39  2  0
 53 55  1  0
 35 41  2  0
 51 54  2  0
  2 56  1  1
  5 57  1  0
  5 58  1  0
  6 59  1  0
  6 60  1  0
  8 61  1  0
  9 62  1  0
 10 63  1  0
 10 64  1  0
 11 65  1  0
 11 66  1  0
 13 67  1  0
 14 68  1  0
 16 69  1  0
 16 70  1  0
 17 71  1  0
 19 72  1  0
 20 73  1  0
 21 74  1  0
 21 75  1  0
 22 76  1  0
 22 77  1  0
 23 78  1  0
 23 79  1  0
 24 80  1  0
 25 81  1  0
 26 82  1  0
 33 83  1  0
 33 84  1  0
 34 85  1  0
 35 86  1  0
 44 87  1  0
 45 88  1  0
 46 89  1  0
 47 90  1  0
 48 91  1  0
 49 92  1  0
 50 93  1  0
 51 94  1  0
 52 95  1  0
 53 96  1  0
 54 97  1  0
 55 98  1  0
M  END
> <Uni-Dock RESULT> 
ENERGY=   -5.711  LOWER_BOUND=    2.283  UPPER_BOUND=    5.158
INTER + INTRA:          -5.711
INTER:                  -5.711
INTRA:                   0.000
UNBOUND:                 0.000

$$$$

     RDKit          3D

 98103  0  0  0  0  0  0  0  0999 V2000
   49.7343    7.8800   15.3210 N   0  0  0  0  0  0  0  0  0  0  0  0
   49.6725    7.3225   13.9525 C   0  0  1  0  0  0  0  0  0  0  0  0
   49.7038    8.8154   18.0079 N   0  0  0  0  0  0  0  0  0  0  0  0
   48.2381    7.0737   13.4520 C   0  0  0  0  0  0  0  0  0  0  0  0
   49.0370    9.1432   15.5564 C   0  0  0  0  0  0  0  0  0  0  0  0
   49.4566    6.9071   16.3896 C   0  0  0  0  0  0  0  0  0  0  0  0
   50.5762    8.0548   12.9370 C   0  0  0  0  0  0  0  0  0  0  0  0
   47.4450    8.1112   12.9239 C   0  0  0  0  0  0  0  0  0  0  0  0
   47.6881    5.7806   13.5130 C   0  0  0  0  0  0  0  0  0  0  0  0
   49.4326    9.7761   16.9200 C   0  0  0  0  0  0  0  0  0  0  0  0
   49.0401    7.5332   17.7496 C   0  0  0  0  0  0  0  0  0  0  0  0
   45.6150    6.5791   12.5671 C   0  0  0  0  0  0  0  0  0  0  0  0
   46.3815    5.5360   13.0808 C   0  0  0  0  0  0  0  0  0  0  0  0
   46.1426    7.8653   12.4801 C   0  0  0  0  0  0  0  0  0  0  0  0
   44.0057    6.2792   12.0371 Cl  0  0  0  0  0  0  0  0  0  0  0  0
   49.3673    9.3484   19.3378 C   0  0  0  0  0  0  0  0  0  0  0  0
   53.0576    7.3903   21.2408 O   0  0  0  0  0  0  0  0  0  0  0  0
   51.5867   10.4159   19.7885 O   0  0  0  0  0  0  0  0  0  0  0  0
   51.5934    8.9349   13.3514 C   0  0  0  0  0  0  0  0  0  0  0  0
   50.4683    7.7897   11.5576 C   0  0  0  0  0  0  0  0  0  0  0  0
   52.7111    8.3162   20.2144 C   0  0  0  0  0  0  0  0  0  0  0  0
   50.1664   10.6030   19.7575 C   0  0  0  0  0  0  0  0  0  0  0  0
   52.0288    9.5359   20.8221 C   0  0  0  0  0  0  0  0  0  0  0  0
   51.3003    8.4239   10.6299 C   0  0  0  0  0  0  0  0  0  0  0  0
   52.4188    9.5765   12.4245 C   0  0  0  0  0  0  0  0  0  0  0  0
   52.2675    9.3251   11.0631 C   0  0  0  0  0  0  0  0  0  0  0  0
   52.4284    8.6524   18.3227 C   0  0  0  0  0  0  0  0  0  0  0  0
   47.4145    7.0769   13.3190 C   0  0  0  0  0  0  0  0  0  0  0  0
   49.4297    7.1531   14.7243 C   0  0  0  0  0  0  0  0  0  0  0  0
   50.6035    7.6353   17.0258 C   0  0  0  0  0  0  0  0  0  0  0  0
   51.9754    7.7311   17.3677 C   0  0  0  0  0  0  0  0  0  0  0  0
   48.1525    6.6250   14.4222 C   0  0  0  0  0  0  0  0  0  0  0  0
   50.1770    6.6239   15.9549 C   0  0  0  0  0  0  0  0  0  0  0  0
   51.5013    9.4807   18.9614 C   0  0  0  0  0  0  0  0  0  0  0  0
   47.9625    8.0587   12.4894 C   0  0  0  0  0  0  0  0  0  0  0  0
   53.8486    8.8160   18.7258 C   0  0  0  0  0  0  0  0  0  0  0  0
   46.0623    6.5785   12.9544 C   0  0  0  0  0  0  0  0  0  0  0  0
   50.0057    8.1096   13.8283 C   0  0  0  0  0  0  0  0  0  0  0  0
   49.6591    8.4447   17.7347 C   0  0  0  0  0  0  0  0  0  0  0  0
   50.1328    9.3823   18.6914 C   0  0  0  0  0  0  0  0  0  0  0  0
   49.2438    8.5722   12.7216 C   0  0  0  0  0  0  0  0  0  0  0  0
   54.2758    9.6052   19.5491 O   0  0  0  0  0  0  0  0  0  0  0  0
   45.3867    6.9478   12.0125 O   0  0  0  0  0  0  0  0  0  0  0  0
   52.8471    6.8852   16.7235 O   0  0  0  0  0  0  0  0  0  0  0  0
   47.6597    5.6530   15.2587 O   0  0  0  0  0  0  0  0  0  0  0  0
   54.6849    7.9754   18.0843 O   0  0  0  0  0  0  0  0  0  0  0  0
   45.6056    5.6172   13.7862 O   0  0  0  0  0  0  0  0  0  0  0  0
   48.2554    8.3645   17.5769 C   0  0  0  0  0  0  0  0  0  0  0  0
   51.3143    8.6312   13.9485 C   0  0  0  0  0  0  0  0  0  0  0  0
   49.2372   10.2068   19.3933 C   0  0  0  0  0  0  0  0  0  0  0  0
   49.7709    9.5292   11.8358 C   0  0  0  0  0  0  0  0  0  0  0  0
   51.8338    9.5753   13.0560 C   0  0  0  0  0  0  0  0  0  0  0  0
   47.3702    9.1841   18.2857 C   0  0  0  0  0  0  0  0  0  0  0  0
   51.0588   10.0299   12.0018 C   0  0  0  0  0  0  0  0  0  0  0  0
   47.8633   10.1126   19.1876 C   0  0  0  0  0  0  0  0  0  0  0  0
   50.1585    6.3364   14.0070 H   0  0  0  0  0  0  0  0  0  0  0  0
   47.9513    8.9838   15.5562 H   0  0  0  0  0  0  0  0  0  0  0  0
   49.2534    9.8795   14.7751 H   0  0  0  0  0  0  0  0  0  0  0  0
   50.3697    6.3203   16.5438 H   0  0  0  0  0  0  0  0  0  0  0  0
   48.6627    6.2060   16.1065 H   0  0  0  0  0  0  0  0  0  0  0  0
   47.8449    9.1210   12.8441 H   0  0  0  0  0  0  0  0  0  0  0  0
   48.2750    4.9527   13.9057 H   0  0  0  0  0  0  0  0  0  0  0  0
   50.3395   10.3756   16.7777 H   0  0  0  0  0  0  0  0  0  0  0  0
   48.6281   10.4673   17.1979 H   0  0  0  0  0  0  0  0  0  0  0  0
   47.9508    7.6695   17.7588 H   0  0  0  0  0  0  0  0  0  0  0  0
   49.2786    6.8142   18.5419 H   0  0  0  0  0  0  0  0  0  0  0  0
   45.9721    4.5313   13.1428 H   0  0  0  0  0  0  0  0  0  0  0  0
   45.5479    8.6793   12.0752 H   0  0  0  0  0  0  0  0  0  0  0  0
   49.5544    8.5649   20.0839 H   0  0  0  0  0  0  0  0  0  0  0  0
   48.2944    9.5798   19.3881 H   0  0  0  0  0  0  0  0  0  0  0  0
   53.5237    6.6574   20.8002 H   0  0  0  0  0  0  0  0  0  0  0  0
   51.7568    9.1313   14.4095 H   0  0  0  0  0  0  0  0  0  0  0  0
   49.7313    7.0812   11.1863 H   0  0  0  0  0  0  0  0  0  0  0  0
   52.0547    7.8176   19.4924 H   0  0  0  0  0  0  0  0  0  0  0  0
   53.6243    8.6176   19.6841 H   0  0  0  0  0  0  0  0  0  0  0  0
   49.8279   10.9429   20.7447 H   0  0  0  0  0  0  0  0  0  0  0  0
   49.9671   11.4307   19.0653 H   0  0  0  0  0  0  0  0  0  0  0  0
   51.2183    9.2427   21.5018 H   0  0  0  0  0  0  0  0  0  0  0  0
   52.7524   10.0864   21.4380 H   0  0  0  0  0  0  0  0  0  0  0  0
   51.1890    8.2143    9.5692 H   0  0  0  0  0  0  0  0  0  0  0  0
   53.1870   10.2617   12.7685 H   0  0  0  0  0  0  0  0  0  0  0  0
   52.9144    9.8197   10.3427 H   0  0  0  0  0  0  0  0  0  0  0  0
   51.0356    6.0651   15.5616 H   0  0  0  0  0  0  0  0  0  0  0  0
   49.5945    5.8636   16.4888 H   0  0  0  0  0  0  0  0  0  0  0  0
   51.8532   10.1945   19.7059 H   0  0  0  0  0  0  0  0  0  0  0  0
   47.3871    8.4076   11.6319 H   0  0  0  0  0  0  0  0  0  0  0  0
   53.7495    7.0560   17.0694 H   0  0  0  0  0  0  0  0  0  0  0  0
   46.7842    5.3663   14.9188 H   0  0  0  0  0  0  0  0  0  0  0  0
   55.5606    8.1934   18.4819 H   0  0  0  0  0  0  0  0  0  0  0  0
   44.7244    5.3959   13.4040 H   0  0  0  0  0  0  0  0  0  0  0  0
   47.8132    7.6376   16.9068 H   0  0  0  0  0  0  0  0  0  0  0  0
   51.9760    8.2962   14.7384 H   0  0  0  0  0  0  0  0  0  0  0  0
   49.6049   10.9331   20.1165 H   0  0  0  0  0  0  0  0  0  0  0  0
   49.1793    9.8892   10.9959 H   0  0  0  0  0  0  0  0  0  0  0  0
   52.8473    9.9438   13.1875 H   0  0  0  0  0  0  0  0  0  0  0  0
   46.2989    9.0853   18.1338 H   0  0  0  0  0  0  0  0  0  0  0  0
   51.4570   10.7619   11.3043 H   0  0  0  0  0  0  0  0  0  0  0  0
   47.1840   10.7562   19.7396 H   0  0  0  0  0  0  0  0  0  0  0  0
  2  1  1  0
  3 10  1  0
  4  2  1  0
  5  1  1  0
  6  1  1  0
  7  2  1  0
  8  4  2  0
  9  4  1  0
 10  5  1  0
 11  6  1  0
 12 14  2  0
 13  9  2  0
 14  8  1  0
 15 12  1  0
 16  3  1  0
 17 21  1  0
 18 22  1  0
 19  7  2  0
 20  7  1  0
 21 23  1  0
 22 16  1  0
 23 18  1  0
 24 20  2  0
 25 19  1  0
 26 25  2  0
 11  3  1  0
 13 12  1  0
 24 26  1  0
 28 32  2  0
 29 33  1  0
 30 31  1  0
 31 27  2  0
 32 29  1  0
 33 30  1  0
 34 27  1  0
 35 28  1  0
 36 27  1  0
 37 28  1  0
 38 29  2  0
 39 40  1  0
 40 34  2  0
 41 38  1  0
 42 36  2  0
 43 37  2  0
 44 31  1  0
 45 32  1  0
 46 36  1  0
 47 37  1  0
 48 39  1  0
 49 38  1  0
 50 40  1  0
 51 41  1  0
 52 49  2  0
 53 48  2  0
 54 52  1  0
 55 50  2  0
 30 39  2  0
 53 55  1  0
 35 41  2  0
 51 54  2  0
  2 56  1  1
  5 57  1  0
  5 58  1  0
  6 59  1  0
  6 60  1  0
  8 61  1  0
  9 62  1  0
 10 63  1  0
 10 64  1  0
 11 65  1  0
 11 66  1  0
 13 67  1  0
 14 68  1  0
 16 69  1  0
 16 70  1  0
 17 71  1  0
 19 72  1  0
 20 73  1  0
 21 74  1  0
 21 75  1  0
 22 76  1  0
 22 77  1  0
 23 78  1  0
 23 79  1  0
 24 80  1  0
 25 81  1  0
 26 82  1  0
 33 83  1  0
 33 84  1  0
 34 85  1  0
 35 86  1  0
 44 87  1  0
 45 88  1  0
 46 89  1  0
 47 90  1  0
 48 91  1  0
 49 92  1  0
 50 93  1  0
 51 94  1  0
 52 95  1  0
 53 96  1  0
 54 97  1  0
 55 98  1  0
M  END
> <Uni-Dock RESULT> 
ENERGY=   -5.500  LOWER_BOUND=    4.013  UPPER_BOUND=    7.105
INTER + INTRA:          -5.500
INTER:                  -5.500
INTRA:                   0.000
UNBOUND:                 0.000

$$$$

     RDKit          3D

 98103  0  0  0  0  0  0  0  0999 V2000
   49.3118    8.5836   15.0591 N   0  0  0  0  0  0  0  0  0  0  0  0
   49.0936    8.5182   13.5978 C   0  0  1  0  0  0  0  0  0  0  0  0
   49.6497    8.5165   17.8834 N   0  0  0  0  0  0  0  0  0  0  0  0
   47.7293    7.9236   13.2039 C   0  0  0  0  0  0  0  0  0  0  0  0
   48.3384    9.3416   15.8435 C   0  0  0  0  0  0  0  0  0  0  0  0
   49.6166    7.2891   15.6893 C   0  0  0  0  0  0  0  0  0  0  0  0
   49.4515    9.8224   12.8526 C   0  0  0  0  0  0  0  0  0  0  0  0
   46.5515    8.6962   13.2129 C   0  0  0  0  0  0  0  0  0  0  0  0
   47.6371    6.5741   12.8186 C   0  0  0  0  0  0  0  0  0  0  0  0
   48.8392    9.5998   17.2922 C   0  0  0  0  0  0  0  0  0  0  0  0
   49.3717    7.2367   17.2230 C   0  0  0  0  0  0  0  0  0  0  0  0
   45.2541    6.7921   12.4958 C   0  0  0  0  0  0  0  0  0  0  0  0
   46.4056    6.0092   12.4743 C   0  0  0  0  0  0  0  0  0  0  0  0
   45.3216    8.1356   12.8571 C   0  0  0  0  0  0  0  0  0  0  0  0
   43.7376    6.0968   12.0745 Cl  0  0  0  0  0  0  0  0  0  0  0  0
   49.4998    8.4230   19.3445 C   0  0  0  0  0  0  0  0  0  0  0  0
   53.9604    7.4981   19.9109 O   0  0  0  0  0  0  0  0  0  0  0  0
   51.3214   10.0401   19.9234 O   0  0  0  0  0  0  0  0  0  0  0  0
   50.2165   10.8357   13.4599 C   0  0  0  0  0  0  0  0  0  0  0  0
   49.0980    9.9971   11.5001 C   0  0  0  0  0  0  0  0  0  0  0  0
   53.1065    8.5030   19.3708 C   0  0  0  0  0  0  0  0  0  0  0  0
   49.9501    9.6777   20.1266 C   0  0  0  0  0  0  0  0  0  0  0  0
   52.2509    9.1087   20.4770 C   0  0  0  0  0  0  0  0  0  0  0  0
   49.4417   11.1607   10.8052 C   0  0  0  0  0  0  0  0  0  0  0  0
   50.5520   12.0031   12.7693 C   0  0  0  0  0  0  0  0  0  0  0  0
   50.1588   12.1675   11.4434 C   0  0  0  0  0  0  0  0  0  0  0  0
   52.2821    9.2994   17.8031 C   0  0  0  0  0  0  0  0  0  0  0  0
   46.9385    7.6591   13.1756 C   0  0  0  0  0  0  0  0  0  0  0  0
   49.1104    8.0304   14.2650 C   0  0  0  0  0  0  0  0  0  0  0  0
   50.6017    8.1478   16.4259 C   0  0  0  0  0  0  0  0  0  0  0  0
   51.9170    8.6373   16.6224 C   0  0  0  0  0  0  0  0  0  0  0  0
   48.0252    7.1885   13.9262 C   0  0  0  0  0  0  0  0  0  0  0  0
   50.2605    7.4549   15.1011 C   0  0  0  0  0  0  0  0  0  0  0  0
   51.3298    9.4631   18.8130 C   0  0  0  0  0  0  0  0  0  0  0  0
   46.9378    8.9859   12.7372 C   0  0  0  0  0  0  0  0  0  0  0  0
   53.6359    9.8462   18.0765 C   0  0  0  0  0  0  0  0  0  0  0  0
   45.7600    6.8349   12.7997 C   0  0  0  0  0  0  0  0  0  0  0  0
   49.1270    9.3672   13.7529 C   0  0  0  0  0  0  0  0  0  0  0  0
   49.6564    8.2661   17.4944 C   0  0  0  0  0  0  0  0  0  0  0  0
   50.0359    8.9495   18.6808 C   0  0  0  0  0  0  0  0  0  0  0  0
   48.0143    9.8393   13.0058 C   0  0  0  0  0  0  0  0  0  0  0  0
   53.9859   10.4263   19.0884 O   0  0  0  0  0  0  0  0  0  0  0  0
   44.7955    7.2053   12.1574 O   0  0  0  0  0  0  0  0  0  0  0  0
   52.8225    8.4392   15.6068 O   0  0  0  0  0  0  0  0  0  0  0  0
   48.0754    5.8887   14.3686 O   0  0  0  0  0  0  0  0  0  0  0  0
   54.5078    9.6384   17.0695 O   0  0  0  0  0  0  0  0  0  0  0  0
   45.8389    5.5596   13.2378 O   0  0  0  0  0  0  0  0  0  0  0  0
   48.3518    7.7187   17.4760 C   0  0  0  0  0  0  0  0  0  0  0  0
   50.1988   10.2741   13.9192 C   0  0  0  0  0  0  0  0  0  0  0  0
   49.1291    9.1013   19.7435 C   0  0  0  0  0  0  0  0  0  0  0  0
   47.9882   11.1548   12.5087 C   0  0  0  0  0  0  0  0  0  0  0  0
   50.1681   11.5777   13.4118 C   0  0  0  0  0  0  0  0  0  0  0  0
   47.4577    7.8679   18.5419 C   0  0  0  0  0  0  0  0  0  0  0  0
   49.0586   12.0210   12.7111 C   0  0  0  0  0  0  0  0  0  0  0  0
   47.8446    8.5686   19.6724 C   0  0  0  0  0  0  0  0  0  0  0  0
   49.8578    7.8275   13.2099 H   0  0  0  0  0  0  0  0  0  0  0  0
   47.3891    8.7944   15.9028 H   0  0  0  0  0  0  0  0  0  0  0  0
   48.1201   10.3148   15.3909 H   0  0  0  0  0  0  0  0  0  0  0  0
   50.6747    7.0738   15.5001 H   0  0  0  0  0  0  0  0  0  0  0  0
   49.0337    6.4728   15.2467 H   0  0  0  0  0  0  0  0  0  0  0  0
   46.5885    9.7495   13.4876 H   0  0  0  0  0  0  0  0  0  0  0  0
   48.5276    5.9495   12.7901 H   0  0  0  0  0  0  0  0  0  0  0  0
   49.4537   10.5078   17.2937 H   0  0  0  0  0  0  0  0  0  0  0  0
   47.9540    9.8072   17.9051 H   0  0  0  0  0  0  0  0  0  0  0  0
   48.3302    6.9417   17.4063 H   0  0  0  0  0  0  0  0  0  0  0  0
   50.0057    6.4463   17.6415 H   0  0  0  0  0  0  0  0  0  0  0  0
   46.3540    4.9626   12.1863 H   0  0  0  0  0  0  0  0  0  0  0  0
   44.4251    8.7492   12.8698 H   0  0  0  0  0  0  0  0  0  0  0  0
   50.0951    7.5723   19.7013 H   0  0  0  0  0  0  0  0  0  0  0  0
   48.4541    8.2036   19.6005 H   0  0  0  0  0  0  0  0  0  0  0  0
   54.5077    7.1796   19.1708 H   0  0  0  0  0  0  0  0  0  0  0  0
   50.5639   10.7260   14.4856 H   0  0  0  0  0  0  0  0  0  0  0  0
   48.5483    9.2243   10.9676 H   0  0  0  0  0  0  0  0  0  0  0  0
   52.4807    8.0561   18.5901 H   0  0  0  0  0  0  0  0  0  0  0  0
   53.7241    9.2798   18.9009 H   0  0  0  0  0  0  0  0  0  0  0  0
   49.7745    9.5265   21.1994 H   0  0  0  0  0  0  0  0  0  0  0  0
   49.3431   10.5448   19.8376 H   0  0  0  0  0  0  0  0  0  0  0  0
   51.7616    8.3294   21.0754 H   0  0  0  0  0  0  0  0  0  0  0  0
   52.8966    9.6603   21.1734 H   0  0  0  0  0  0  0  0  0  0  0  0
   49.1456   11.2793    9.7661 H   0  0  0  0  0  0  0  0  0  0  0  0
   51.1310   12.7762   13.2643 H   0  0  0  0  0  0  0  0  0  0  0  0
   50.4257   13.0732   10.9045 H   0  0  0  0  0  0  0  0  0  0  0  0
   51.1265    7.4201   14.4281 H   0  0  0  0  0  0  0  0  0  0  0  0
   50.0892    6.4030   15.3590 H   0  0  0  0  0  0  0  0  0  0  0  0
   51.6146    9.9750   19.7320 H   0  0  0  0  0  0  0  0  0  0  0  0
   46.0922    9.3491   12.1530 H   0  0  0  0  0  0  0  0  0  0  0  0
   53.6840    8.8157   15.8886 H   0  0  0  0  0  0  0  0  0  0  0  0
   47.2759    5.4198   14.0442 H   0  0  0  0  0  0  0  0  0  0  0  0
   55.3427   10.0291   17.4199 H   0  0  0  0  0  0  0  0  0  0  0  0
   45.0037    5.1591   12.9009 H   0  0  0  0  0  0  0  0  0  0  0  0
   48.0061    7.1374   16.6301 H   0  0  0  0  0  0  0  0  0  0  0  0
   51.1030    9.9774   14.4373 H   0  0  0  0  0  0  0  0  0  0  0  0
   49.4194    9.6369   20.6460 H   0  0  0  0  0  0  0  0  0  0  0  0
   47.1286   11.5159   11.9467 H   0  0  0  0  0  0  0  0  0  0  0  0
   51.0186   12.2369   13.5619 H   0  0  0  0  0  0  0  0  0  0  0  0
   46.4661    7.4278   18.4845 H   0  0  0  0  0  0  0  0  0  0  0  0
   49.0292   13.0318   12.3132 H   0  0  0  0  0  0  0  0  0  0  0  0
   47.1559    8.6933   20.5035 H   0  0  0  0  0  0  0  0  0  0  0  0
  2  1  1  0
  3 10  1  0
  4  2  1  0
  5  1  1  0
  6  1  1  0
  7  2  1  0
  8  4  2  0
  9  4  1  0
 10  5  1  0
 11  6  1  0
 12 14  2  0
 13  9  2  0
 14  8  1  0
 15 12  1  0
 16  3  1  0
 17 21  1  0
 18 22  1  0
 19  7  2  0
 20  7  1  0
 21 23  1  0
 22 16  1  0
 23 18  1  0
 24 20  2  0
 25 19  1  0
 26 25  2  0
 11  3  1  0
 13 12  1  0
 24 26  1  0
 28 32  2  0
 29 33  1  0
 30 31  1  0
 31 27  2  0
 32 29  1  0
 33 30  1  0
 34 27  1  0
 35 28  1  0
 36 27  1  0
 37 28  1  0
 38 29  2  0
 39 40  1  0
 40 34  2  0
 41 38  1  0
 42 36  2  0
 43 37  2  0
 44 31  1  0
 45 32  1  0
 46 36  1  0
 47 37  1  0
 48 39  1  0
 49 38  1  0
 50 40  1  0
 51 41  1  0
 52 49  2  0
 53 48  2  0
 54 52  1  0
 55 50  2  0
 30 39  2  0
 53 55  1  0
 35 41  2  0
 51 54  2  0
  2 56  1  1
  5 57  1  0
  5 58  1  0
  6 59  1  0
  6 60  1  0
  8 61  1  0
  9 62  1  0
 10 63  1  0
 10 64  1  0
 11 65  1  0
 11 66  1  0
 13 67  1  0
 14 68  1  0
 16 69  1  0
 16 70  1  0
 17 71  1  0
 19 72  1  0
 20 73  1  0
 21 74  1  0
 21 75  1  0
 22 76  1  0
 22 77  1  0
 23 78  1  0
 23 79  1  0
 24 80  1  0
 25 81  1  0
 26 82  1  0
 33 83  1  0
 33 84  1  0
 34 85  1  0
 35 86  1  0
 44 87  1  0
 45 88  1  0
 46 89  1  0
 47 90  1  0
 48 91  1  0
 49 92  1  0
 50 93  1  0
 51 94  1  0
 52 95  1  0
 53 96  1  0
 54 97  1  0
 55 98  1  0
M  END
> <Uni-Dock RESULT> 
ENERGY=   -5.401  LOWER_BOUND=    4.100  UPPER_BOUND=    7.248
INTER + INTRA:          -5.401
INTER:                  -5.401
INTRA:                   0.000
UNBOUND:                 0.000

$$$$

     RDKit          3D

 98103  0  0  0  0  0  0  0  0999 V2000
   50.0628    8.3850   15.9736 N   0  0  0  0  0  0  0  0  0  0  0  0
   48.8148    9.0303   15.5118 C   0  0  1  0  0  0  0  0  0  0  0  0
   52.4953    7.3104   16.9855 N   0  0  0  0  0  0  0  0  0  0  0  0
   48.9667   10.5361   15.2298 C   0  0  0  0  0  0  0  0  0  0  0  0
   51.2258    8.4801   15.0928 C   0  0  0  0  0  0  0  0  0  0  0  0
   50.4222    8.6803   17.3698 C   0  0  0  0  0  0  0  0  0  0  0  0
   48.0826    8.2513   14.3976 C   0  0  0  0  0  0  0  0  0  0  0  0
   49.5069   11.0148   14.0202 C   0  0  0  0  0  0  0  0  0  0  0  0
   48.5576   11.4751   16.1937 C   0  0  0  0  0  0  0  0  0  0  0  0
   52.3615    7.5125   15.5290 C   0  0  0  0  0  0  0  0  0  0  0  0
   51.9157    8.4372   17.7241 C   0  0  0  0  0  0  0  0  0  0  0  0
   49.2448   13.2954   14.7638 C   0  0  0  0  0  0  0  0  0  0  0  0
   48.7032   12.8466   15.9657 C   0  0  0  0  0  0  0  0  0  0  0  0
   49.6416   12.3861   13.7862 C   0  0  0  0  0  0  0  0  0  0  0  0
   49.4264   14.9833   14.4835 Cl  0  0  0  0  0  0  0  0  0  0  0  0
   53.8811    7.0386   17.3996 C   0  0  0  0  0  0  0  0  0  0  0  0
   52.5240    3.9305   20.4933 O   0  0  0  0  0  0  0  0  0  0  0  0
   53.7845    4.5537   17.1096 O   0  0  0  0  0  0  0  0  0  0  0  0
   48.3975    6.9119   14.1015 C   0  0  0  0  0  0  0  0  0  0  0  0
   47.0055    8.8348   13.7020 C   0  0  0  0  0  0  0  0  0  0  0  0
   52.4489    4.1944   19.0949 C   0  0  0  0  0  0  0  0  0  0  0  0
   54.5001    5.7558   16.7996 C   0  0  0  0  0  0  0  0  0  0  0  0
   53.8467    4.1862   18.4878 C   0  0  0  0  0  0  0  0  0  0  0  0
   46.3149    8.1299   12.7113 C   0  0  0  0  0  0  0  0  0  0  0  0
   47.7145    6.2100   13.1049 C   0  0  0  0  0  0  0  0  0  0  0  0
   46.6771    6.8220   12.4059 C   0  0  0  0  0  0  0  0  0  0  0  0
   51.4104    4.8610   17.5953 C   0  0  0  0  0  0  0  0  0  0  0  0
   49.2428   11.3040   15.0562 C   0  0  0  0  0  0  0  0  0  0  0  0
   49.3816    9.0881   16.1107 C   0  0  0  0  0  0  0  0  0  0  0  0
   50.7549    7.2177   17.3448 C   0  0  0  0  0  0  0  0  0  0  0  0
   50.4354    5.8679   17.6346 C   0  0  0  0  0  0  0  0  0  0  0  0
   49.4533   10.4990   16.1847 C   0  0  0  0  0  0  0  0  0  0  0  0
   49.6368    8.2666   17.3808 C   0  0  0  0  0  0  0  0  0  0  0  0
   52.7284    5.2029   17.2798 C   0  0  0  0  0  0  0  0  0  0  0  0
   48.9372   10.6976   13.8350 C   0  0  0  0  0  0  0  0  0  0  0  0
   51.1494    3.4263   17.8779 C   0  0  0  0  0  0  0  0  0  0  0  0
   49.3197   12.7885   15.0596 C   0  0  0  0  0  0  0  0  0  0  0  0
   49.0025    8.4849   14.8690 C   0  0  0  0  0  0  0  0  0  0  0  0
   52.1204    7.5619   17.0868 C   0  0  0  0  0  0  0  0  0  0  0  0
   53.0961    6.5303   17.0385 C   0  0  0  0  0  0  0  0  0  0  0  0
   48.8060    9.3082   13.7276 C   0  0  0  0  0  0  0  0  0  0  0  0
   51.9708    2.5275   17.8518 O   0  0  0  0  0  0  0  0  0  0  0  0
   49.1514   13.5222   14.1039 O   0  0  0  0  0  0  0  0  0  0  0  0
   49.1288    5.5831   17.9542 O   0  0  0  0  0  0  0  0  0  0  0  0
   49.7443   11.0509   17.4087 O   0  0  0  0  0  0  0  0  0  0  0  0
   49.8635    3.1703   18.1916 O   0  0  0  0  0  0  0  0  0  0  0  0
   49.5970   13.3057   16.2762 O   0  0  0  0  0  0  0  0  0  0  0  0
   52.5937    8.8821   16.9002 C   0  0  0  0  0  0  0  0  0  0  0  0
   48.7837    7.1001   14.6864 C   0  0  0  0  0  0  0  0  0  0  0  0
   54.4430    6.8277   16.7698 C   0  0  0  0  0  0  0  0  0  0  0  0
   48.4563    8.7453   12.4869 C   0  0  0  0  0  0  0  0  0  0  0  0
   48.4257    6.5505   13.4504 C   0  0  0  0  0  0  0  0  0  0  0  0
   53.9382    9.1701   16.6406 C   0  0  0  0  0  0  0  0  0  0  0  0
   48.2681    7.3735   12.3475 C   0  0  0  0  0  0  0  0  0  0  0  0
   54.8612    8.1400   16.5660 C   0  0  0  0  0  0  0  0  0  0  0  0
   48.1027    8.9403   16.3463 H   0  0  0  0  0  0  0  0  0  0  0  0
   51.6260    9.5018   15.1006 H   0  0  0  0  0  0  0  0  0  0  0  0
   50.9705    8.2433   14.0544 H   0  0  0  0  0  0  0  0  0  0  0  0
   49.8057    8.0382   18.0095 H   0  0  0  0  0  0  0  0  0  0  0  0
   50.1974    9.7194   17.6377 H   0  0  0  0  0  0  0  0  0  0  0  0
   49.8167   10.3168   13.2436 H   0  0  0  0  0  0  0  0  0  0  0  0
   48.1267   11.1422   17.1358 H   0  0  0  0  0  0  0  0  0  0  0  0
   52.1779    6.5306   15.0768 H   0  0  0  0  0  0  0  0  0  0  0  0
   53.2935    7.8976   15.0987 H   0  0  0  0  0  0  0  0  0  0  0  0
   52.4841    9.3525   17.5131 H   0  0  0  0  0  0  0  0  0  0  0  0
   51.9843    8.2607   18.8039 H   0  0  0  0  0  0  0  0  0  0  0  0
   48.3877   13.5561   16.7260 H   0  0  0  0  0  0  0  0  0  0  0  0
   50.0599   12.7345   12.8459 H   0  0  0  0  0  0  0  0  0  0  0  0
   53.9050    6.9442   18.4932 H   0  0  0  0  0  0  0  0  0  0  0  0
   54.5229    7.8932   17.1443 H   0  0  0  0  0  0  0  0  0  0  0  0
   51.6052    3.9071   20.8156 H   0  0  0  0  0  0  0  0  0  0  0  0
   49.1839    6.3953   14.6488 H   0  0  0  0  0  0  0  0  0  0  0  0
   46.6883    9.8510   13.9248 H   0  0  0  0  0  0  0  0  0  0  0  0
   51.9594    5.1627   18.9415 H   0  0  0  0  0  0  0  0  0  0  0  0
   51.8250    3.4252   18.6207 H   0  0  0  0  0  0  0  0  0  0  0  0
   55.5384    5.6529   17.1401 H   0  0  0  0  0  0  0  0  0  0  0  0
   54.5439    5.8297   15.7057 H   0  0  0  0  0  0  0  0  0  0  0  0
   54.5354    4.8189   19.0624 H   0  0  0  0  0  0  0  0  0  0  0  0
   54.2585    3.1695   18.5406 H   0  0  0  0  0  0  0  0  0  0  0  0
   45.4962    8.6059   12.1778 H   0  0  0  0  0  0  0  0  0  0  0  0
   47.9856    5.1822   12.8856 H   0  0  0  0  0  0  0  0  0  0  0  0
   46.1416    6.2732   11.6350 H   0  0  0  0  0  0  0  0  0  0  0  0
   48.6699    7.8183   17.6421 H   0  0  0  0  0  0  0  0  0  0  0  0
   49.8671    8.9074   18.2403 H   0  0  0  0  0  0  0  0  0  0  0  0
   53.4866    4.4206   17.2525 H   0  0  0  0  0  0  0  0  0  0  0  0
   48.7731   11.3258   12.9594 H   0  0  0  0  0  0  0  0  0  0  0  0
   49.0630    4.6217   18.1406 H   0  0  0  0  0  0  0  0  0  0  0  0
   49.7397   12.0285   17.3169 H   0  0  0  0  0  0  0  0  0  0  0  0
   49.8721    2.2009   18.3726 H   0  0  0  0  0  0  0  0  0  0  0  0
   49.6001   14.2768   16.1070 H   0  0  0  0  0  0  0  0  0  0  0  0
   51.9218    9.7282   16.9758 H   0  0  0  0  0  0  0  0  0  0  0  0
   48.8684    6.4095   15.5170 H   0  0  0  0  0  0  0  0  0  0  0  0
   55.1857    6.0330   16.7209 H   0  0  0  0  0  0  0  0  0  0  0  0
   48.3180    9.3788   11.6125 H   0  0  0  0  0  0  0  0  0  0  0  0
   48.2643    5.4799   13.3606 H   0  0  0  0  0  0  0  0  0  0  0  0
   54.2567   10.2001   16.5065 H   0  0  0  0  0  0  0  0  0  0  0  0
   47.9887    6.9531   11.3852 H   0  0  0  0  0  0  0  0  0  0  0  0
   55.9066    8.3534   16.3609 H   0  0  0  0  0  0  0  0  0  0  0  0
  2  1  1  0
  3 10  1  0
  4  2  1  0
  5  1  1  0
  6  1  1  0
  7  2  1  0
  8  4  2  0
  9  4  1  0
 10  5  1  0
 11  6  1  0
 12 14  2  0
 13  9  2  0
 14  8  1  0
 15 12  1  0
 16  3  1  0
 17 21  1  0
 18 22  1  0
 19  7  2  0
 20  7  1  0
 21 23  1  0
 22 16  1  0
 23 18  1  0
 24 20  2  0
 25 19  1  0
 26 25  2  0
 11  3  1  0
 13 12  1  0
 24 26  1  0
 28 32  2  0
 29 33  1  0
 30 31  1  0
 31 27  2  0
 32 29  1  0
 33 30  1  0
 34 27  1  0
 35 28  1  0
 36 27  1  0
 37 28  1  0
 38 29  2  0
 39 40  1  0
 40 34  2  0
 41 38  1  0
 42 36  2  0
 43 37  2  0
 44 31  1  0
 45 32  1  0
 46 36  1  0
 47 37  1  0
 48 39  1  0
 49 38  1  0
 50 40  1  0
 51 41  1  0
 52 49  2  0
 53 48  2  0
 54 52  1  0
 55 50  2  0
 30 39  2  0
 53 55  1  0
 35 41  2  0
 51 54  2  0
  2 56  1  1
  5 57  1  0
  5 58  1  0
  6 59  1  0
  6 60  1  0
  8 61  1  0
  9 62  1  0
 10 63  1  0
 10 64  1  0
 11 65  1  0
 11 66  1  0
 13 67  1  0
 14 68  1  0
 16 69  1  0
 16 70  1  0
 17 71  1  0
 19 72  1  0
 20 73  1  0
 21 74  1  0
 21 75  1  0
 22 76  1  0
 22 77  1  0
 23 78  1  0
 23 79  1  0
 24 80  1  0
 25 81  1  0
 26 82  1  0
 33 83  1  0
 33 84  1  0
 34 85  1  0
 35 86  1  0
 44 87  1  0
 45 88  1  0
 46 89  1  0
 47 90  1  0
 48 91  1  0
 49 92  1  0
 50 93  1  0
 51 94  1  0
 52 95  1  0
 53 96  1  0
 54 97  1  0
 55 98  1  0
M  END
> <Uni-Dock RESULT> 
ENERGY=   -5.307  LOWER_BOUND=    3.940  UPPER_BOUND=    8.056
INTER + INTRA:          -5.307
INTER:                  -5.307
INTRA:                   0.000
UNBOUND:                 0.000

$$$$
