
     RDKit          3D

 98103  0  0  0  0  0  0  0  0999 V2000
   50.3025    7.8863   18.1561 N   0  0  0  0  0  0  0  0  0  0  0  0
   49.1034    7.3907   17.4110 C   0  0  1  0  0  0  0  0  0  0  0  0
   48.6705    9.6429   19.6975 N   0  0  0  0  0  0  0  0  0  0  0  0
   49.0793    7.8241   15.9351 C   0  0  0  0  0  0  0  0  0  0  0  0
   50.5151    9.3433   17.9930 C   0  0  0  0  0  0  0  0  0  0  0  0
   50.1657    7.6243   19.6185 C   0  0  0  0  0  0  0  0  0  0  0  0
   48.9400    5.8611   17.4810 C   0  0  0  0  0  0  0  0  0  0  0  0
   50.1559    7.5566   15.0702 C   0  0  0  0  0  0  0  0  0  0  0  0
   47.9534    8.4905   15.4199 C   0  0  0  0  0  0  0  0  0  0  0  0
   49.4062   10.2566   18.5825 C   0  0  0  0  0  0  0  0  0  0  0  0
   49.5423    8.7616   20.4795 C   0  0  0  0  0  0  0  0  0  0  0  0
   48.9881    8.6120   13.2422 C   0  0  0  0  0  0  0  0  0  0  0  0
   47.9091    8.8842   14.0801 C   0  0  0  0  0  0  0  0  0  0  0  0
   50.1111    7.9495   13.7305 C   0  0  0  0  0  0  0  0  0  0  0  0
   48.9328    9.1005   11.5929 Cl  0  0  0  0  0  0  0  0  0  0  0  0
   47.9037   10.6041   20.5057 C   0  0  0  0  0  0  0  0  0  0  0  0
   49.4254   13.9653   23.1089 O   0  0  0  0  0  0  0  0  0  0  0  0
   49.1551   10.8789   22.5831 O   0  0  0  0  0  0  0  0  0  0  0  0
   47.6519    5.3025   17.5563 C   0  0  0  0  0  0  0  0  0  0  0  0
   50.0435    4.9910   17.4370 C   0  0  0  0  0  0  0  0  0  0  0  0
   49.4899   12.8680   24.0210 C   0  0  0  0  0  0  0  0  0  0  0  0
   48.6816   11.5698   21.4236 C   0  0  0  0  0  0  0  0  0  0  0  0
   50.0956   11.6285   23.3577 C   0  0  0  0  0  0  0  0  0  0  0  0
   49.8651    3.6072   17.4807 C   0  0  0  0  0  0  0  0  0  0  0  0
   47.4759    3.9180   17.5997 C   0  0  0  0  0  0  0  0  0  0  0  0
   48.5819    3.0715   17.5629 C   0  0  0  0  0  0  0  0  0  0  0  0
   49.2491    7.9802   15.7762 C   0  0  0  0  0  0  0  0  0  0  0  0
   49.1448   11.9984   20.4767 C   0  0  0  0  0  0  0  0  0  0  0  0
   48.6101    9.6865   19.8600 C   0  0  0  0  0  0  0  0  0  0  0  0
   48.1491    7.9421   17.9704 C   0  0  0  0  0  0  0  0  0  0  0  0
   48.7358    8.6498   16.8950 C   0  0  0  0  0  0  0  0  0  0  0  0
   48.2660   11.0565   19.9260 C   0  0  0  0  0  0  0  0  0  0  0  0
   47.6373    8.7118   19.1922 C   0  0  0  0  0  0  0  0  0  0  0  0
   49.1499    6.5884   15.7107 C   0  0  0  0  0  0  0  0  0  0  0  0
   50.3697   11.5673   20.9948 C   0  0  0  0  0  0  0  0  0  0  0  0
   49.9013    8.6515   14.6222 C   0  0  0  0  0  0  0  0  0  0  0  0
   48.8693   13.4557   20.5563 C   0  0  0  0  0  0  0  0  0  0  0  0
   49.8460    9.2484   20.4336 C   0  0  0  0  0  0  0  0  0  0  0  0
   48.0008    6.5176   17.8672 C   0  0  0  0  0  0  0  0  0  0  0  0
   48.5272    5.8558   16.7267 C   0  0  0  0  0  0  0  0  0  0  0  0
   50.7244   10.2134   20.9903 C   0  0  0  0  0  0  0  0  0  0  0  0
   50.3494    8.1033   13.6322 O   0  0  0  0  0  0  0  0  0  0  0  0
   49.5999   14.2993   21.0429 O   0  0  0  0  0  0  0  0  0  0  0  0
   48.7641   10.0189   16.9777 O   0  0  0  0  0  0  0  0  0  0  0  0
   47.0333   11.4223   19.4417 O   0  0  0  0  0  0  0  0  0  0  0  0
   49.9706    9.9927   14.7530 O   0  0  0  0  0  0  0  0  0  0  0  0
   47.6840   13.8064   20.0157 O   0  0  0  0  0  0  0  0  0  0  0  0
   47.3570    5.6963   18.8289 C   0  0  0  0  0  0  0  0  0  0  0  0
   50.2631    7.8974   20.4990 C   0  0  0  0  0  0  0  0  0  0  0  0
   48.4262    4.4602   16.5963 C   0  0  0  0  0  0  0  0  0  0  0  0
   51.9539    9.8221   21.5472 C   0  0  0  0  0  0  0  0  0  0  0  0
   51.4873    7.5198   21.0579 C   0  0  0  0  0  0  0  0  0  0  0  0
   47.2596    4.3085   18.6852 C   0  0  0  0  0  0  0  0  0  0  0  0
   52.3355    8.4839   21.5790 C   0  0  0  0  0  0  0  0  0  0  0  0
   47.7989    3.6892   17.5699 C   0  0  0  0  0  0  0  0  0  0  0  0
   48.2108    7.8162   17.8879 H   0  0  0  0  0  0  0  0  0  0  0  0
   50.6990    9.6161   16.9483 H   0  0  0  0  0  0  0  0  0  0  0  0
   51.4593    9.5864   18.5018 H   0  0  0  0  0  0  0  0  0  0  0  0
   51.1759    7.4359   20.0052 H   0  0  0  0  0  0  0  0  0  0  0  0
   49.6132    6.6981   19.8127 H   0  0  0  0  0  0  0  0  0  0  0  0
   51.0396    7.0445   15.4450 H   0  0  0  0  0  0  0  0  0  0  0  0
   47.1027    8.7073   16.0629 H   0  0  0  0  0  0  0  0  0  0  0  0
   49.8797   11.1995   18.8773 H   0  0  0  0  0  0  0  0  0  0  0  0
   48.6837   10.4929   17.7927 H   0  0  0  0  0  0  0  0  0  0  0  0
   48.9809    8.2991   21.3001 H   0  0  0  0  0  0  0  0  0  0  0  0
   50.3627    9.3388   20.9241 H   0  0  0  0  0  0  0  0  0  0  0  0
   47.0314    9.3982   13.6981 H   0  0  0  0  0  0  0  0  0  0  0  0
   50.9529    7.7346   13.0785 H   0  0  0  0  0  0  0  0  0  0  0  0
   47.2008   10.0302   21.1231 H   0  0  0  0  0  0  0  0  0  0  0  0
   47.2855   11.1999   19.8224 H   0  0  0  0  0  0  0  0  0  0  0  0
   50.3391   14.2262   22.9008 H   0  0  0  0  0  0  0  0  0  0  0  0
   46.7763    5.9473   17.5807 H   0  0  0  0  0  0  0  0  0  0  0  0
   51.0519    5.3944   17.3757 H   0  0  0  0  0  0  0  0  0  0  0  0
   50.1028   13.1852   24.8703 H   0  0  0  0  0  0  0  0  0  0  0  0
   48.4739   12.6659   24.3726 H   0  0  0  0  0  0  0  0  0  0  0  0
   47.9869   12.3518   21.7473 H   0  0  0  0  0  0  0  0  0  0  0  0
   49.5132   12.0413   20.8904 H   0  0  0  0  0  0  0  0  0  0  0  0
   50.9543   11.8881   22.7282 H   0  0  0  0  0  0  0  0  0  0  0  0
   50.4457   10.9484   24.1410 H   0  0  0  0  0  0  0  0  0  0  0  0
   50.7289    2.9488   17.4503 H   0  0  0  0  0  0  0  0  0  0  0  0
   46.4744    3.5007   17.6598 H   0  0  0  0  0  0  0  0  0  0  0  0
   48.4436    1.9942   17.5952 H   0  0  0  0  0  0  0  0  0  0  0  0
   47.3157    8.0462   19.9969 H   0  0  0  0  0  0  0  0  0  0  0  0
   46.7155    9.2098   18.8689 H   0  0  0  0  0  0  0  0  0  0  0  0
   49.5516    6.0693   14.8404 H   0  0  0  0  0  0  0  0  0  0  0  0
   51.0525   12.3011   21.4223 H   0  0  0  0  0  0  0  0  0  0  0  0
   49.2351   10.3679   16.1940 H   0  0  0  0  0  0  0  0  0  0  0  0
   46.9665   12.3984   19.4856 H   0  0  0  0  0  0  0  0  0  0  0  0
   50.4245   10.2692   13.9248 H   0  0  0  0  0  0  0  0  0  0  0  0
   47.6655   14.7816   20.1466 H   0  0  0  0  0  0  0  0  0  0  0  0
   46.9030    6.1187   19.7203 H   0  0  0  0  0  0  0  0  0  0  0  0
   49.6321    7.1008   20.1189 H   0  0  0  0  0  0  0  0  0  0  0  0
   48.8353    3.9568   15.7218 H   0  0  0  0  0  0  0  0  0  0  0  0
   52.6294   10.5641   21.9691 H   0  0  0  0  0  0  0  0  0  0  0  0
   51.7696    6.4705   21.0829 H   0  0  0  0  0  0  0  0  0  0  0  0
   46.7578    3.7184   19.4483 H   0  0  0  0  0  0  0  0  0  0  0  0
   53.2889    8.1980   22.0143 H   0  0  0  0  0  0  0  0  0  0  0  0
   47.7265    2.6115   17.4512 H   0  0  0  0  0  0  0  0  0  0  0  0
  2  1  1  0
  3 10  1  0
  4  2  1  0
  5  1  1  0
  6  1  1  0
  7  2  1  0
  8  4  2  0
  9  4  1  0
 10  5  1  0
 11  6  1  0
 12 14  2  0
 13  9  2  0
 14  8  1  0
 15 12  1  0
 16  3  1  0
 17 21  1  0
 18 22  1  0
 19  7  2  0
 20  7  1  0
 21 23  1  0
 22 16  1  0
 23 18  1  0
 24 20  2  0
 25 19  1  0
 26 25  2  0
 11  3  1  0
 13 12  1  0
 24 26  1  0
 28 32  2  0
 29 33  1  0
 30 31  1  0
 31 27  2  0
 32 29  1  0
 33 30  1  0
 34 27  1  0
 35 28  1  0
 36 27  1  0
 37 28  1  0
 38 29  2  0
 39 40  1  0
 40 34  2  0
 41 38  1  0
 42 36  2  0
 43 37  2  0
 44 31  1  0
 45 32  1  0
 46 36  1  0
 47 37  1  0
 48 39  1  0
 49 38  1  0
 50 40  1  0
 51 41  1  0
 52 49  2  0
 53 48  2  0
 54 52  1  0
 55 50  2  0
 30 39  2  0
 53 55  1  0
 35 41  2  0
 51 54  2  0
  2 56  1  1
  5 57  1  0
  5 58  1  0
  6 59  1  0
  6 60  1  0
  8 61  1  0
  9 62  1  0
 10 63  1  0
 10 64  1  0
 11 65  1  0
 11 66  1  0
 13 67  1  0
 14 68  1  0
 16 69  1  0
 16 70  1  0
 17 71  1  0
 19 72  1  0
 20 73  1  0
 21 74  1  0
 21 75  1  0
 22 76  1  0
 22 77  1  0
 23 78  1  0
 23 79  1  0
 24 80  1  0
 25 81  1  0
 26 82  1  0
 33 83  1  0
 33 84  1  0
 34 85  1  0
 35 86  1  0
 44 87  1  0
 45 88  1  0
 46 89  1  0
 47 90  1  0
 48 91  1  0
 49 92  1  0
 50 93  1  0
 51 94  1  0
 52 95  1  0
 53 96  1  0
 54 97  1  0
 55 98  1  0
M  END
> <Uni-Dock RESULT> 
ENERGY=   -5.825  LOWER_BOUND=    0.000  UPPER_BOUND=    0.000
INTER + INTRA:          -5.825
INTER:                  -5.825
INTRA:                   0.000
UNBOUND:                 0.000

$$$$

     RDKit          3D

 98103  0  0  0  0  0  0  0  0999 V2000
   48.4585    7.7701   15.9856 N   0  0  0  0  0  0  0  0  0  0  0  0
   49.0749    7.2978   17.2646 C   0  0  1  0  0  0  0  0  0  0  0  0
   51.0185    8.5188   14.9800 N   0  0  0  0  0  0  0  0  0  0  0  0
   48.7176    8.1766   18.4757 C   0  0  0  0  0  0  0  0  0  0  0  0
   48.7035    9.2086   15.7298 C   0  0  0  0  0  0  0  0  0  0  0  0
   49.0089    7.0179   14.8205 C   0  0  0  0  0  0  0  0  0  0  0  0
   48.7297    5.8340   17.5955 C   0  0  0  0  0  0  0  0  0  0  0  0
   47.3814    8.4513   18.8190 C   0  0  0  0  0  0  0  0  0  0  0  0
   49.7409    8.7121   19.2778 C   0  0  0  0  0  0  0  0  0  0  0  0
   50.1865    9.6107   15.5061 C   0  0  0  0  0  0  0  0  0  0  0  0
   50.2396    7.6426   14.1004 C   0  0  0  0  0  0  0  0  0  0  0  0
   48.1062    9.7672   20.7066 C   0  0  0  0  0  0  0  0  0  0  0  0
   49.4363    9.5051   20.3869 C   0  0  0  0  0  0  0  0  0  0  0  0
   47.0771    9.2436   19.9285 C   0  0  0  0  0  0  0  0  0  0  0  0
   47.7330   10.7469   22.0715 Cl  0  0  0  0  0  0  0  0  0  0  0  0
   52.2966    8.9678   14.4055 C   0  0  0  0  0  0  0  0  0  0  0  0
   53.0181   11.5308   10.7587 O   0  0  0  0  0  0  0  0  0  0  0  0
   52.0333    8.8099   11.9842 O   0  0  0  0  0  0  0  0  0  0  0  0
   49.6935    5.0143   18.2087 C   0  0  0  0  0  0  0  0  0  0  0  0
   47.4593    5.2908   17.3353 C   0  0  0  0  0  0  0  0  0  0  0  0
   52.9176   10.2367   10.1626 C   0  0  0  0  0  0  0  0  0  0  0  0
   52.2668    9.7227   13.0604 C   0  0  0  0  0  0  0  0  0  0  0  0
   51.7382    9.4492   10.7389 C   0  0  0  0  0  0  0  0  0  0  0  0
   47.1669    3.9663   17.6652 C   0  0  0  0  0  0  0  0  0  0  0  0
   49.3986    3.6899   18.5379 C   0  0  0  0  0  0  0  0  0  0  0  0
   48.1365    3.1664   18.2653 C   0  0  0  0  0  0  0  0  0  0  0  0
   48.5654    8.4095   18.5079 C   0  0  0  0  0  0  0  0  0  0  0  0
   51.6703   10.5296   13.5970 C   0  0  0  0  0  0  0  0  0  0  0  0
   51.1435    8.4922   14.8550 C   0  0  0  0  0  0  0  0  0  0  0  0
   50.2910    7.4112   17.0756 C   0  0  0  0  0  0  0  0  0  0  0  0
   49.6346    8.5439   17.6123 C   0  0  0  0  0  0  0  0  0  0  0  0
   51.9264    9.6534   14.6599 C   0  0  0  0  0  0  0  0  0  0  0  0
   51.4290    7.6040   16.0682 C   0  0  0  0  0  0  0  0  0  0  0  0
   48.1623    7.1309   18.9005 C   0  0  0  0  0  0  0  0  0  0  0  0
   50.6404   10.2310   12.6999 C   0  0  0  0  0  0  0  0  0  0  0  0
   47.8117    9.5488   19.0924 C   0  0  0  0  0  0  0  0  0  0  0  0
   52.4273   11.7816   13.3417 C   0  0  0  0  0  0  0  0  0  0  0  0
   50.1213    8.1713   13.9059 C   0  0  0  0  0  0  0  0  0  0  0  0
   49.9065    6.1044   17.5294 C   0  0  0  0  0  0  0  0  0  0  0  0
   48.8207    5.9872   18.4368 C   0  0  0  0  0  0  0  0  0  0  0  0
   49.8754    9.0665   12.8332 C   0  0  0  0  0  0  0  0  0  0  0  0
   46.8857    9.4693   19.8783 O   0  0  0  0  0  0  0  0  0  0  0  0
   52.2449   12.5561   12.4203 O   0  0  0  0  0  0  0  0  0  0  0  0
   50.0981    9.7803   17.2403 O   0  0  0  0  0  0  0  0  0  0  0  0
   52.9532    9.8792   15.5445 O   0  0  0  0  0  0  0  0  0  0  0  0
   48.2470   10.7528   18.6663 O   0  0  0  0  0  0  0  0  0  0  0  0
   53.3876   12.0224   14.2583 O   0  0  0  0  0  0  0  0  0  0  0  0
   50.5344    4.8924   17.1410 C   0  0  0  0  0  0  0  0  0  0  0  0
   49.3277    7.0001   13.9502 C   0  0  0  0  0  0  0  0  0  0  0  0
   48.3949    4.7262   18.8877 C   0  0  0  0  0  0  0  0  0  0  0  0
   48.8688    8.7928   11.8917 C   0  0  0  0  0  0  0  0  0  0  0  0
   48.3309    6.7371   13.0065 C   0  0  0  0  0  0  0  0  0  0  0  0
   50.1034    3.6437   17.6004 C   0  0  0  0  0  0  0  0  0  0  0  0
   48.0985    7.6367   11.9782 C   0  0  0  0  0  0  0  0  0  0  0  0
   49.0295    3.5601   18.4711 C   0  0  0  0  0  0  0  0  0  0  0  0
   50.1658    7.3363   17.1473 H   0  0  0  0  0  0  0  0  0  0  0  0
   48.2638    9.8434   16.5066 H   0  0  0  0  0  0  0  0  0  0  0  0
   48.1412    9.4709   14.8218 H   0  0  0  0  0  0  0  0  0  0  0  0
   48.2012    6.9386   14.0810 H   0  0  0  0  0  0  0  0  0  0  0  0
   49.2497    5.9824   15.0858 H   0  0  0  0  0  0  0  0  0  0  0  0
   46.5715    8.0509   18.2131 H   0  0  0  0  0  0  0  0  0  0  0  0
   50.7843    8.5132   19.0406 H   0  0  0  0  0  0  0  0  0  0  0  0
   50.1938   10.4833   14.8437 H   0  0  0  0  0  0  0  0  0  0  0  0
   50.6162    9.9297   16.4628 H   0  0  0  0  0  0  0  0  0  0  0  0
   50.8657    6.8247   13.7242 H   0  0  0  0  0  0  0  0  0  0  0  0
   49.8747    8.2058   13.2323 H   0  0  0  0  0  0  0  0  0  0  0  0
   50.2392    9.9111   20.9961 H   0  0  0  0  0  0  0  0  0  0  0  0
   46.0390    9.4451   20.1769 H   0  0  0  0  0  0  0  0  0  0  0  0
   52.9368    8.0835   14.2922 H   0  0  0  0  0  0  0  0  0  0  0  0
   52.7935    9.6047   15.1481 H   0  0  0  0  0  0  0  0  0  0  0  0
   52.2342   12.0390   10.4875 H   0  0  0  0  0  0  0  0  0  0  0  0
   50.6825    5.4069   18.4339 H   0  0  0  0  0  0  0  0  0  0  0  0
   46.6926    5.9022   16.8644 H   0  0  0  0  0  0  0  0  0  0  0  0
   52.7902   10.3825    9.0855 H   0  0  0  0  0  0  0  0  0  0  0  0
   53.8615    9.7130   10.3405 H   0  0  0  0  0  0  0  0  0  0  0  0
   53.2501   10.1824   12.9160 H   0  0  0  0  0  0  0  0  0  0  0  0
   51.5098   10.5134   13.0653 H   0  0  0  0  0  0  0  0  0  0  0  0
   50.8524   10.0828   10.8607 H   0  0  0  0  0  0  0  0  0  0  0  0
   51.4826    8.6431   10.0434 H   0  0  0  0  0  0  0  0  0  0  0  0
   46.1814    3.5606   17.4532 H   0  0  0  0  0  0  0  0  0  0  0  0
   50.1542    3.0676   19.0097 H   0  0  0  0  0  0  0  0  0  0  0  0
   47.9076    2.1361   18.5234 H   0  0  0  0  0  0  0  0  0  0  0  0
   51.7722    6.6572   15.6439 H   0  0  0  0  0  0  0  0  0  0  0  0
   52.2859    7.9661   16.6486 H   0  0  0  0  0  0  0  0  0  0  0  0
   47.3290    7.0287   19.5958 H   0  0  0  0  0  0  0  0  0  0  0  0
   50.4420   10.9137   11.8740 H   0  0  0  0  0  0  0  0  0  0  0  0
   49.5259   10.4620   17.6474 H   0  0  0  0  0  0  0  0  0  0  0  0
   53.3541   10.7467   15.3305 H   0  0  0  0  0  0  0  0  0  0  0  0
   47.6498   11.3788   19.1351 H   0  0  0  0  0  0  0  0  0  0  0  0
   53.7771   12.8710   13.9472 H   0  0  0  0  0  0  0  0  0  0  0  0
   51.3883    4.8875   16.4704 H   0  0  0  0  0  0  0  0  0  0  0  0
   49.4768    6.2555   14.7252 H   0  0  0  0  0  0  0  0  0  0  0  0
   47.5589    4.6413   19.5802 H   0  0  0  0  0  0  0  0  0  0  0  0
   48.6774    9.4832   11.0722 H   0  0  0  0  0  0  0  0  0  0  0  0
   47.7417    5.8268   13.0816 H   0  0  0  0  0  0  0  0  0  0  0  0
   50.6142    2.7406   17.2754 H   0  0  0  0  0  0  0  0  0  0  0  0
   47.3248    7.4394   11.2415 H   0  0  0  0  0  0  0  0  0  0  0  0
   48.6894    2.5935   18.8326 H   0  0  0  0  0  0  0  0  0  0  0  0
  2  1  1  0
  3 10  1  0
  4  2  1  0
  5  1  1  0
  6  1  1  0
  7  2  1  0
  8  4  2  0
  9  4  1  0
 10  5  1  0
 11  6  1  0
 12 14  2  0
 13  9  2  0
 14  8  1  0
 15 12  1  0
 16  3  1  0
 17 21  1  0
 18 22  1  0
 19  7  2  0
 20  7  1  0
 21 23  1  0
 22 16  1  0
 23 18  1  0
 24 20  2  0
 25 19  1  0
 26 25  2  0
 11  3  1  0
 13 12  1  0
 24 26  1  0
 28 32  2  0
 29 33  1  0
 30 31  1  0
 31 27  2  0
 32 29  1  0
 33 30  1  0
 34 27  1  0
 35 28  1  0
 36 27  1  0
 37 28  1  0
 38 29  2  0
 39 40  1  0
 40 34  2  0
 41 38  1  0
 42 36  2  0
 43 37  2  0
 44 31  1  0
 45 32  1  0
 46 36  1  0
 47 37  1  0
 48 39  1  0
 49 38  1  0
 50 40  1  0
 51 41  1  0
 52 49  2  0
 53 48  2  0
 54 52  1  0
 55 50  2  0
 30 39  2  0
 53 55  1  0
 35 41  2  0
 51 54  2  0
  2 56  1  1
  5 57  1  0
  5 58  1  0
  6 59  1  0
  6 60  1  0
  8 61  1  0
  9 62  1  0
 10 63  1  0
 10 64  1  0
 11 65  1  0
 11 66  1  0
 13 67  1  0
 14 68  1  0
 16 69  1  0
 16 70  1  0
 17 71  1  0
 19 72  1  0
 20 73  1  0
 21 74  1  0
 21 75  1  0
 22 76  1  0
 22 77  1  0
 23 78  1  0
 23 79  1  0
 24 80  1  0
 25 81  1  0
 26 82  1  0
 33 83  1  0
 33 84  1  0
 34 85  1  0
 35 86  1  0
 44 87  1  0
 45 88  1  0
 46 89  1  0
 47 90  1  0
 48 91  1  0
 49 92  1  0
 50 93  1  0
 51 94  1  0
 52 95  1  0
 53 96  1  0
 54 97  1  0
 55 98  1  0
M  END
> <Uni-Dock RESULT> 
ENERGY=   -5.734  LOWER_BOUND=    2.578  UPPER_BOUND=    6.591
INTER + INTRA:          -5.734
INTER:                  -5.734
INTRA:                   0.000
UNBOUND:                 0.000

$$$$

     RDKit          3D

 98103  0  0  0  0  0  0  0  0999 V2000
   49.7386    7.2585   18.9703 N   0  0  0  0  0  0  0  0  0  0  0  0
   50.1483    6.2395   17.9542 C   0  0  1  0  0  0  0  0  0  0  0  0
   49.5387    9.2565   16.9471 N   0  0  0  0  0  0  0  0  0  0  0  0
   51.6130    5.7909   18.0953 C   0  0  0  0  0  0  0  0  0  0  0  0
   50.6747    8.4046   19.0403 C   0  0  0  0  0  0  0  0  0  0  0  0
   48.3900    7.8128   18.6538 C   0  0  0  0  0  0  0  0  0  0  0  0
   49.2457    4.9918   17.9541 C   0  0  0  0  0  0  0  0  0  0  0  0
   52.1167    5.2881   19.3086 C   0  0  0  0  0  0  0  0  0  0  0  0
   52.4771    5.8646   16.9884 C   0  0  0  0  0  0  0  0  0  0  0  0
   50.7613    9.2833   17.7630 C   0  0  0  0  0  0  0  0  0  0  0  0
   48.3488    9.1069   17.7896 C   0  0  0  0  0  0  0  0  0  0  0  0
   54.2868    4.9621   18.3066 C   0  0  0  0  0  0  0  0  0  0  0  0
   53.8082    5.4537   17.0944 C   0  0  0  0  0  0  0  0  0  0  0  0
   53.4474    4.8766   19.4142 C   0  0  0  0  0  0  0  0  0  0  0  0
   55.9277    4.4594   18.4360 Cl  0  0  0  0  0  0  0  0  0  0  0  0
   49.4512   10.3525   15.9693 C   0  0  0  0  0  0  0  0  0  0  0  0
   49.0851   14.7910   16.7145 O   0  0  0  0  0  0  0  0  0  0  0  0
   47.8126   11.9218   16.8689 O   0  0  0  0  0  0  0  0  0  0  0  0
   48.9466    4.3506   16.7390 C   0  0  0  0  0  0  0  0  0  0  0  0
   48.7321    4.4435   19.1424 C   0  0  0  0  0  0  0  0  0  0  0  0
   47.7138   14.3948   16.7686 C   0  0  0  0  0  0  0  0  0  0  0  0
   49.1855   11.7788   16.4938 C   0  0  0  0  0  0  0  0  0  0  0  0
   47.5354   13.1208   17.5982 C   0  0  0  0  0  0  0  0  0  0  0  0
   47.9337    3.2988   19.1150 C   0  0  0  0  0  0  0  0  0  0  0  0
   48.1479    3.2056   16.7141 C   0  0  0  0  0  0  0  0  0  0  0  0
   47.6413    2.6810   17.9013 C   0  0  0  0  0  0  0  0  0  0  0  0
   51.8218    5.8624   18.2677 C   0  0  0  0  0  0  0  0  0  0  0  0
   50.1815   11.6976   17.0381 C   0  0  0  0  0  0  0  0  0  0  0  0
   49.4321    9.3701   16.8594 C   0  0  0  0  0  0  0  0  0  0  0  0
   50.0487    6.8312   16.8737 C   0  0  0  0  0  0  0  0  0  0  0  0
   51.2997    6.9311   17.5268 C   0  0  0  0  0  0  0  0  0  0  0  0
   50.1624   10.4725   16.3587 C   0  0  0  0  0  0  0  0  0  0  0  0
   49.4972    8.0383   16.1081 C   0  0  0  0  0  0  0  0  0  0  0  0
   51.1046    4.6656   18.3350 C   0  0  0  0  0  0  0  0  0  0  0  0
   49.4407   11.8361   18.2158 C   0  0  0  0  0  0  0  0  0  0  0  0
   53.1136    5.9011   19.0008 C   0  0  0  0  0  0  0  0  0  0  0  0
   50.9453   12.8912   16.5932 C   0  0  0  0  0  0  0  0  0  0  0  0
   48.6408    9.5348   18.0406 C   0  0  0  0  0  0  0  0  0  0  0  0
   49.3474    5.5785   16.9016 C   0  0  0  0  0  0  0  0  0  0  0  0
   49.8910    4.5068   17.6577 C   0  0  0  0  0  0  0  0  0  0  0  0
   48.6678   10.7820   18.7162 C   0  0  0  0  0  0  0  0  0  0  0  0
   53.6008    4.9908   19.6455 O   0  0  0  0  0  0  0  0  0  0  0  0
   50.9711   13.9749   17.1471 O   0  0  0  0  0  0  0  0  0  0  0  0
   51.9940    8.1064   17.3899 O   0  0  0  0  0  0  0  0  0  0  0  0
   50.8392   10.2974   15.1758 O   0  0  0  0  0  0  0  0  0  0  0  0
   53.7502    7.0866   18.9005 O   0  0  0  0  0  0  0  0  0  0  0  0
   51.6575   12.6812   15.4668 O   0  0  0  0  0  0  0  0  0  0  0  0
   48.1305    5.3137   16.2213 C   0  0  0  0  0  0  0  0  0  0  0  0
   47.8081    8.5318   18.5919 C   0  0  0  0  0  0  0  0  0  0  0  0
   49.2256    3.2713   17.7329 C   0  0  0  0  0  0  0  0  0  0  0  0
   47.9169   10.9751   19.8882 C   0  0  0  0  0  0  0  0  0  0  0  0
   47.0635    8.7363   19.7570 C   0  0  0  0  0  0  0  0  0  0  0  0
   47.4801    4.0781   16.3011 C   0  0  0  0  0  0  0  0  0  0  0  0
   47.1212    9.9583   20.4081 C   0  0  0  0  0  0  0  0  0  0  0  0
   48.0259    3.0572   17.0615 C   0  0  0  0  0  0  0  0  0  0  0  0
   50.0431    6.6937   16.9602 H   0  0  0  0  0  0  0  0  0  0  0  0
   51.6808    8.0939   19.3415 H   0  0  0  0  0  0  0  0  0  0  0  0
   50.3343    9.0437   19.8681 H   0  0  0  0  0  0  0  0  0  0  0  0
   47.9060    8.0425   19.6122 H   0  0  0  0  0  0  0  0  0  0  0  0
   47.7443    7.0612   18.1858 H   0  0  0  0  0  0  0  0  0  0  0  0
   51.4692    5.2233   20.1804 H   0  0  0  0  0  0  0  0  0  0  0  0
   52.1154    6.2445   16.0349 H   0  0  0  0  0  0  0  0  0  0  0  0
   51.0162   10.3004   18.0808 H   0  0  0  0  0  0  0  0  0  0  0  0
   51.5889    8.9242   17.1403 H   0  0  0  0  0  0  0  0  0  0  0  0
   47.4441    9.0748   17.1708 H   0  0  0  0  0  0  0  0  0  0  0  0
   48.2553    9.9646   18.4676 H   0  0  0  0  0  0  0  0  0  0  0  0
   54.4624    5.5173   16.2293 H   0  0  0  0  0  0  0  0  0  0  0  0
   53.8180    4.4918   20.3600 H   0  0  0  0  0  0  0  0  0  0  0  0
   48.6607   10.0940   15.2530 H   0  0  0  0  0  0  0  0  0  0  0  0
   50.3853   10.3646   15.3936 H   0  0  0  0  0  0  0  0  0  0  0  0
   49.3497   15.0506   17.6138 H   0  0  0  0  0  0  0  0  0  0  0  0
   49.3374    4.7425   15.8027 H   0  0  0  0  0  0  0  0  0  0  0  0
   48.9494    4.9163   20.0978 H   0  0  0  0  0  0  0  0  0  0  0  0
   47.1524   15.2224   17.2132 H   0  0  0  0  0  0  0  0  0  0  0  0
   47.3692   14.2438   15.7414 H   0  0  0  0  0  0  0  0  0  0  0  0
   49.3946   12.4772   15.6767 H   0  0  0  0  0  0  0  0  0  0  0  0
   49.8416   12.0210   17.3358 H   0  0  0  0  0  0  0  0  0  0  0  0
   48.1512   13.1413   18.5044 H   0  0  0  0  0  0  0  0  0  0  0  0
   46.4870   13.0472   17.9052 H   0  0  0  0  0  0  0  0  0  0  0  0
   47.5410    2.8904   20.0422 H   0  0  0  0  0  0  0  0  0  0  0  0
   47.9234    2.7219   15.7673 H   0  0  0  0  0  0  0  0  0  0  0  0
   47.0211    1.7890   17.8809 H   0  0  0  0  0  0  0  0  0  0  0  0
   48.4783    7.8720   15.7499 H   0  0  0  0  0  0  0  0  0  0  0  0
   50.0965    8.1128   15.1929 H   0  0  0  0  0  0  0  0  0  0  0  0
   51.5117    3.8362   18.9135 H   0  0  0  0  0  0  0  0  0  0  0  0
   49.4569   12.7894   18.7435 H   0  0  0  0  0  0  0  0  0  0  0  0
   52.8100    8.0495   17.9274 H   0  0  0  0  0  0  0  0  0  0  0  0
   51.3518   11.1121   14.9950 H   0  0  0  0  0  0  0  0  0  0  0  0
   54.5636    6.9431   19.4355 H   0  0  0  0  0  0  0  0  0  0  0  0
   52.0947   13.5507   15.3209 H   0  0  0  0  0  0  0  0  0  0  0  0
   47.6551    6.0660   15.5991 H   0  0  0  0  0  0  0  0  0  0  0  0
   47.7146    7.5616   18.1152 H   0  0  0  0  0  0  0  0  0  0  0  0
   49.6444    2.4538   18.3176 H   0  0  0  0  0  0  0  0  0  0  0  0
   47.9427   11.9308   20.4087 H   0  0  0  0  0  0  0  0  0  0  0  0
   46.4405    7.9361   20.1480 H   0  0  0  0  0  0  0  0  0  0  0  0
   46.5484    3.9201   15.7634 H   0  0  0  0  0  0  0  0  0  0  0  0
   46.5459   10.1242   21.3146 H   0  0  0  0  0  0  0  0  0  0  0  0
   47.5266    2.0944   17.1277 H   0  0  0  0  0  0  0  0  0  0  0  0
  2  1  1  0
  3 10  1  0
  4  2  1  0
  5  1  1  0
  6  1  1  0
  7  2  1  0
  8  4  2  0
  9  4  1  0
 10  5  1  0
 11  6  1  0
 12 14  2  0
 13  9  2  0
 14  8  1  0
 15 12  1  0
 16  3  1  0
 17 21  1  0
 18 22  1  0
 19  7  2  0
 20  7  1  0
 21 23  1  0
 22 16  1  0
 23 18  1  0
 24 20  2  0
 25 19  1  0
 26 25  2  0
 11  3  1  0
 13 12  1  0
 24 26  1  0
 28 32  2  0
 29 33  1  0
 30 31  1  0
 31 27  2  0
 32 29  1  0
 33 30  1  0
 34 27  1  0
 35 28  1  0
 36 27  1  0
 37 28  1  0
 38 29  2  0
 39 40  1  0
 40 34  2  0
 41 38  1  0
 42 36  2  0
 43 37  2  0
 44 31  1  0
 45 32  1  0
 46 36  1  0
 47 37  1  0
 48 39  1  0
 49 38  1  0
 50 40  1  0
 51 41  1  0
 52 49  2  0
 53 48  2  0
 54 52  1  0
 55 50  2  0
 30 39  2  0
 53 55  1  0
 35 41  2  0
 51 54  2  0
  2 56  1  1
  5 57  1  0
  5 58  1  0
  6 59  1  0
  6 60  1  0
  8 61  1  0
  9 62  1  0
 10 63  1  0
 10 64  1  0
 11 65  1  0
 11 66  1  0
 13 67  1  0
 14 68  1  0
 16 69  1  0
 16 70  1  0
 17 71  1  0
 19 72  1  0
 20 73  1  0
 21 74  1  0
 21 75  1  0
 22 76  1  0
 22 77  1  0
 23 78  1  0
 23 79  1  0
 24 80  1  0
 25 81  1  0
 26 82  1  0
 33 83  1  0
 33 84  1  0
 34 85  1  0
 35 86  1  0
 44 87  1  0
 45 88  1  0
 46 89  1  0
 47 90  1  0
 48 91  1  0
 49 92  1  0
 50 93  1  0
 51 94  1  0
 52 95  1  0
 53 96  1  0
 54 97  1  0
 55 98  1  0
M  END
> <Uni-Dock RESULT> 
ENERGY=   -5.702  LOWER_BOUND=    2.858  UPPER_BOUND=    4.536
INTER + INTRA:          -5.702
INTER:                  -5.702
INTRA:                   0.000
UNBOUND:                 0.000

$$$$

     RDKit          3D

 98103  0  0  0  0  0  0  0  0999 V2000
   51.0036    8.5044   16.7620 N   0  0  0  0  0  0  0  0  0  0  0  0
   49.5195    8.3687   16.6283 C   0  0  1  0  0  0  0  0  0  0  0  0
   51.1630    5.9602   18.0377 N   0  0  0  0  0  0  0  0  0  0  0  0
   48.7342    9.3461   17.5198 C   0  0  0  0  0  0  0  0  0  0  0  0
   51.4563    8.4689   18.1722 C   0  0  0  0  0  0  0  0  0  0  0  0
   51.7053    7.3977   16.0486 C   0  0  0  0  0  0  0  0  0  0  0  0
   49.0290    8.5189   15.1764 C   0  0  0  0  0  0  0  0  0  0  0  0
   48.9583   10.7338   17.4687 C   0  0  0  0  0  0  0  0  0  0  0  0
   47.7538    8.8560   18.4007 C   0  0  0  0  0  0  0  0  0  0  0  0
   51.2157    7.1318   18.9241 C   0  0  0  0  0  0  0  0  0  0  0  0
   52.0536    6.1328   16.8865 C   0  0  0  0  0  0  0  0  0  0  0  0
   47.2648   11.0989   19.1473 C   0  0  0  0  0  0  0  0  0  0  0  0
   47.0239    9.7285   19.2119 C   0  0  0  0  0  0  0  0  0  0  0  0
   48.2280   11.6060   18.2792 C   0  0  0  0  0  0  0  0  0  0  0  0
   46.3668   12.1718   20.1496 Cl  0  0  0  0  0  0  0  0  0  0  0  0
   51.3246    4.6761   18.7376 C   0  0  0  0  0  0  0  0  0  0  0  0
   54.9304    3.0852   20.9415 O   0  0  0  0  0  0  0  0  0  0  0  0
   53.5862    3.9151   18.2249 O   0  0  0  0  0  0  0  0  0  0  0  0
   47.9517    7.7376   14.7226 C   0  0  0  0  0  0  0  0  0  0  0  0
   49.6034    9.4445   14.2877 C   0  0  0  0  0  0  0  0  0  0  0  0
   55.2313    2.6805   19.6051 C   0  0  0  0  0  0  0  0  0  0  0  0
   52.7196    4.3164   19.2897 C   0  0  0  0  0  0  0  0  0  0  0  0
   54.9605    3.8097   18.6078 C   0  0  0  0  0  0  0  0  0  0  0  0
   49.1247    9.5748   12.9829 C   0  0  0  0  0  0  0  0  0  0  0  0
   47.4744    7.8698   13.4171 C   0  0  0  0  0  0  0  0  0  0  0  0
   48.0614    8.7871   12.5480 C   0  0  0  0  0  0  0  0  0  0  0  0
   48.8091    9.5414   17.7059 C   0  0  0  0  0  0  0  0  0  0  0  0
   52.6175    5.2248   19.9675 C   0  0  0  0  0  0  0  0  0  0  0  0
   51.2263    5.7932   18.0303 C   0  0  0  0  0  0  0  0  0  0  0  0
   49.2810    7.2271   17.0374 C   0  0  0  0  0  0  0  0  0  0  0  0
   49.2699    8.2537   18.0108 C   0  0  0  0  0  0  0  0  0  0  0  0
   51.3723    5.2452   19.3257 C   0  0  0  0  0  0  0  0  0  0  0  0
   49.8313    5.8448   17.4029 C   0  0  0  0  0  0  0  0  0  0  0  0
   48.3228    9.8049   16.4232 C   0  0  0  0  0  0  0  0  0  0  0  0
   53.7373    5.7298   19.3000 C   0  0  0  0  0  0  0  0  0  0  0  0
   48.7908   10.6756   18.6657 C   0  0  0  0  0  0  0  0  0  0  0  0
   52.8468    4.6939   21.3355 C   0  0  0  0  0  0  0  0  0  0  0  0
   52.3859    6.2662   17.3373 C   0  0  0  0  0  0  0  0  0  0  0  0
   48.7263    7.4927   15.7399 C   0  0  0  0  0  0  0  0  0  0  0  0
   48.2644    8.8032   15.4485 C   0  0  0  0  0  0  0  0  0  0  0  0
   53.6405    6.2365   17.9989 C   0  0  0  0  0  0  0  0  0  0  0  0
   48.3902   11.8022   18.4382 O   0  0  0  0  0  0  0  0  0  0  0  0
   53.9153    4.6437   21.9167 O   0  0  0  0  0  0  0  0  0  0  0  0
   49.7070    7.9360   19.2718 O   0  0  0  0  0  0  0  0  0  0  0  0
   50.2493    4.7235   19.9212 O   0  0  0  0  0  0  0  0  0  0  0  0
   49.2801   10.3552   19.8817 O   0  0  0  0  0  0  0  0  0  0  0  0
   51.7219    4.2474   21.9316 O   0  0  0  0  0  0  0  0  0  0  0  0
   48.5957    6.5349   14.7009 C   0  0  0  0  0  0  0  0  0  0  0  0
   52.3787    6.7617   16.0115 C   0  0  0  0  0  0  0  0  0  0  0  0
   47.7369    9.1137   14.1835 C   0  0  0  0  0  0  0  0  0  0  0  0
   54.7976    6.7080   17.3559 C   0  0  0  0  0  0  0  0  0  0  0  0
   53.5367    7.2256   15.3811 C   0  0  0  0  0  0  0  0  0  0  0  0
   48.0650    6.8558   13.4473 C   0  0  0  0  0  0  0  0  0  0  0  0
   54.7470    7.2024   16.0558 C   0  0  0  0  0  0  0  0  0  0  0  0
   47.6394    8.1478   13.1868 C   0  0  0  0  0  0  0  0  0  0  0  0
   49.2445    7.3528   16.9411 H   0  0  0  0  0  0  0  0  0  0  0  0
   51.0431    9.2983   18.7561 H   0  0  0  0  0  0  0  0  0  0  0  0
   52.5389    8.6624   18.1642 H   0  0  0  0  0  0  0  0  0  0  0  0
   52.6493    7.8102   15.6688 H   0  0  0  0  0  0  0  0  0  0  0  0
   51.1564    7.0822   15.1541 H   0  0  0  0  0  0  0  0  0  0  0  0
   49.7131   11.1378   16.7973 H   0  0  0  0  0  0  0  0  0  0  0  0
   47.5539    7.7879   18.4594 H   0  0  0  0  0  0  0  0  0  0  0  0
   52.0019    7.0345   19.6808 H   0  0  0  0  0  0  0  0  0  0  0  0
   50.2606    7.1919   19.4588 H   0  0  0  0  0  0  0  0  0  0  0  0
   51.9970    5.2598   16.2254 H   0  0  0  0  0  0  0  0  0  0  0  0
   53.0937    6.2253   17.2236 H   0  0  0  0  0  0  0  0  0  0  0  0
   46.2699    9.3333   19.8870 H   0  0  0  0  0  0  0  0  0  0  0  0
   48.4162   12.6745   18.2258 H   0  0  0  0  0  0  0  0  0  0  0  0
   51.0096    3.8821   18.0485 H   0  0  0  0  0  0  0  0  0  0  0  0
   50.6081    4.6538   19.5685 H   0  0  0  0  0  0  0  0  0  0  0  0
   55.5658    3.7799   21.1864 H   0  0  0  0  0  0  0  0  0  0  0  0
   47.4774    7.0199   15.3882 H   0  0  0  0  0  0  0  0  0  0  0  0
   50.4362   10.0647   14.6119 H   0  0  0  0  0  0  0  0  0  0  0  0
   56.2873    2.3941   19.5810 H   0  0  0  0  0  0  0  0  0  0  0  0
   54.6203    1.8023   19.3767 H   0  0  0  0  0  0  0  0  0  0  0  0
   52.5977    3.4698   19.9734 H   0  0  0  0  0  0  0  0  0  0  0  0
   53.1547    5.1532   19.8452 H   0  0  0  0  0  0  0  0  0  0  0  0
   55.3019    4.7772   18.9929 H   0  0  0  0  0  0  0  0  0  0  0  0
   55.5117    3.6012   17.6851 H   0  0  0  0  0  0  0  0  0  0  0  0
   49.5828   10.2919   12.3073 H   0  0  0  0  0  0  0  0  0  0  0  0
   46.6424    7.2577   13.0796 H   0  0  0  0  0  0  0  0  0  0  0  0
   47.6882    8.8902   11.5327 H   0  0  0  0  0  0  0  0  0  0  0  0
   49.8919    5.1803   16.5375 H   0  0  0  0  0  0  0  0  0  0  0  0
   49.0748    5.3811   18.0471 H   0  0  0  0  0  0  0  0  0  0  0  0
   47.9666   10.8078   16.1876 H   0  0  0  0  0  0  0  0  0  0  0  0
   54.7051    5.7138   19.8007 H   0  0  0  0  0  0  0  0  0  0  0  0
   49.6871    8.7461   19.8207 H   0  0  0  0  0  0  0  0  0  0  0  0
   50.4862    4.4515   20.8318 H   0  0  0  0  0  0  0  0  0  0  0  0
   49.2012   11.2011   20.3781 H   0  0  0  0  0  0  0  0  0  0  0  0
   52.0470    3.9433   22.8093 H   0  0  0  0  0  0  0  0  0  0  0  0
   48.8992    5.5020   14.8425 H   0  0  0  0  0  0  0  0  0  0  0  0
   51.4616    6.7893   15.4323 H   0  0  0  0  0  0  0  0  0  0  0  0
   47.3880   10.1214   13.9635 H   0  0  0  0  0  0  0  0  0  0  0  0
   55.7587    6.6898   17.8666 H   0  0  0  0  0  0  0  0  0  0  0  0
   53.4842    7.6022   14.3629 H   0  0  0  0  0  0  0  0  0  0  0  0
   47.9848    6.0894   12.6802 H   0  0  0  0  0  0  0  0  0  0  0  0
   55.6511    7.5621   15.5726 H   0  0  0  0  0  0  0  0  0  0  0  0
   47.2255    8.4045   12.2154 H   0  0  0  0  0  0  0  0  0  0  0  0
  2  1  1  0
  3 10  1  0
  4  2  1  0
  5  1  1  0
  6  1  1  0
  7  2  1  0
  8  4  2  0
  9  4  1  0
 10  5  1  0
 11  6  1  0
 12 14  2  0
 13  9  2  0
 14  8  1  0
 15 12  1  0
 16  3  1  0
 17 21  1  0
 18 22  1  0
 19  7  2  0
 20  7  1  0
 21 23  1  0
 22 16  1  0
 23 18  1  0
 24 20  2  0
 25 19  1  0
 26 25  2  0
 11  3  1  0
 13 12  1  0
 24 26  1  0
 28 32  2  0
 29 33  1  0
 30 31  1  0
 31 27  2  0
 32 29  1  0
 33 30  1  0
 34 27  1  0
 35 28  1  0
 36 27  1  0
 37 28  1  0
 38 29  2  0
 39 40  1  0
 40 34  2  0
 41 38  1  0
 42 36  2  0
 43 37  2  0
 44 31  1  0
 45 32  1  0
 46 36  1  0
 47 37  1  0
 48 39  1  0
 49 38  1  0
 50 40  1  0
 51 41  1  0
 52 49  2  0
 53 48  2  0
 54 52  1  0
 55 50  2  0
 30 39  2  0
 53 55  1  0
 35 41  2  0
 51 54  2  0
  2 56  1  1
  5 57  1  0
  5 58  1  0
  6 59  1  0
  6 60  1  0
  8 61  1  0
  9 62  1  0
 10 63  1  0
 10 64  1  0
 11 65  1  0
 11 66  1  0
 13 67  1  0
 14 68  1  0
 16 69  1  0
 16 70  1  0
 17 71  1  0
 19 72  1  0
 20 73  1  0
 21 74  1  0
 21 75  1  0
 22 76  1  0
 22 77  1  0
 23 78  1  0
 23 79  1  0
 24 80  1  0
 25 81  1  0
 26 82  1  0
 33 83  1  0
 33 84  1  0
 34 85  1  0
 35 86  1  0
 44 87  1  0
 45 88  1  0
 46 89  1  0
 47 90  1  0
 48 91  1  0
 49 92  1  0
 50 93  1  0
 51 94  1  0
 52 95  1  0
 53 96  1  0
 54 97  1  0
 55 98  1  0
M  END
> <Uni-Dock RESULT> 
ENERGY=   -5.582  LOWER_BOUND=    3.455  UPPER_BOUND=    6.270
INTER + INTRA:          -5.582
INTER:                  -5.582
INTRA:                   0.000
UNBOUND:                 0.000

$$$$

     RDKit          3D

 98103  0  0  0  0  0  0  0  0999 V2000
   50.4181    6.8547   18.3633 N   0  0  0  0  0  0  0  0  0  0  0  0
   50.0141    5.5450   18.9635 C   0  0  1  0  0  0  0  0  0  0  0  0
   53.1561    6.3296   18.9575 N   0  0  0  0  0  0  0  0  0  0  0  0
   49.2197    5.6924   20.2727 C   0  0  0  0  0  0  0  0  0  0  0  0
   51.0942    7.7449   19.3355 C   0  0  0  0  0  0  0  0  0  0  0  0
   51.3624    6.6500   17.2264 C   0  0  0  0  0  0  0  0  0  0  0  0
   49.2103    4.6598   17.9932 C   0  0  0  0  0  0  0  0  0  0  0  0
   48.0545    6.4771   20.3440 C   0  0  0  0  0  0  0  0  0  0  0  0
   49.6480    5.0190   21.4305 C   0  0  0  0  0  0  0  0  0  0  0  0
   52.4581    7.2384   19.8782 C   0  0  0  0  0  0  0  0  0  0  0  0
   52.8821    6.6842   17.5620 C   0  0  0  0  0  0  0  0  0  0  0  0
   47.7857    5.9186   22.6754 C   0  0  0  0  0  0  0  0  0  0  0  0
   48.9351    5.1333   22.6266 C   0  0  0  0  0  0  0  0  0  0  0  0
   47.3414    6.5906   21.5398 C   0  0  0  0  0  0  0  0  0  0  0  0
   46.9106    6.0605   24.1505 Cl  0  0  0  0  0  0  0  0  0  0  0  0
   54.5840    6.1515   19.2650 C   0  0  0  0  0  0  0  0  0  0  0  0
   57.9186    9.1914   19.0961 O   0  0  0  0  0  0  0  0  0  0  0  0
   55.7959    7.4377   17.5815 O   0  0  0  0  0  0  0  0  0  0  0  0
   49.3903    3.2655   18.0133 C   0  0  0  0  0  0  0  0  0  0  0  0
   48.2664    5.1983   17.1011 C   0  0  0  0  0  0  0  0  0  0  0  0
   57.8970    8.7398   17.7412 C   0  0  0  0  0  0  0  0  0  0  0  0
   55.5429    7.3272   18.9850 C   0  0  0  0  0  0  0  0  0  0  0  0
   56.4648    8.6461   17.2090 C   0  0  0  0  0  0  0  0  0  0  0  0
   47.5361    4.3701   16.2472 C   0  0  0  0  0  0  0  0  0  0  0  0
   48.6585    2.4390   17.1583 C   0  0  0  0  0  0  0  0  0  0  0  0
   47.7330    2.9914   16.2755 C   0  0  0  0  0  0  0  0  0  0  0  0
   49.1381    5.9120   20.4261 C   0  0  0  0  0  0  0  0  0  0  0  0
   54.9525    7.9129   19.7617 C   0  0  0  0  0  0  0  0  0  0  0  0
   53.3205    6.3028   18.8926 C   0  0  0  0  0  0  0  0  0  0  0  0
   51.0854    4.9965   19.2447 C   0  0  0  0  0  0  0  0  0  0  0  0
   50.5251    5.8222   20.2476 C   0  0  0  0  0  0  0  0  0  0  0  0
   54.3078    6.6712   19.8355 C   0  0  0  0  0  0  0  0  0  0  0  0
   52.6056    4.9598   19.0581 C   0  0  0  0  0  0  0  0  0  0  0  0
   48.2962    5.1460   19.6164 C   0  0  0  0  0  0  0  0  0  0  0  0
   54.6313    8.7873   18.7191 C   0  0  0  0  0  0  0  0  0  0  0  0
   48.4761    6.7749   21.4385 C   0  0  0  0  0  0  0  0  0  0  0  0
   55.9772    8.3842   20.7281 C   0  0  0  0  0  0  0  0  0  0  0  0
   53.0312    7.1851   17.8033 C   0  0  0  0  0  0  0  0  0  0  0  0
   50.2144    4.1706   18.4567 C   0  0  0  0  0  0  0  0  0  0  0  0
   48.8118    4.2750   18.6509 C   0  0  0  0  0  0  0  0  0  0  0  0
   53.6941    8.4378   17.7402 C   0  0  0  0  0  0  0  0  0  0  0  0
   47.2774    6.8706   21.6268 O   0  0  0  0  0  0  0  0  0  0  0  0
   56.5699    9.4467   20.6854 O   0  0  0  0  0  0  0  0  0  0  0  0
   51.3911    6.5158   21.0544 O   0  0  0  0  0  0  0  0  0  0  0  0
   54.6171    5.7592   20.8155 O   0  0  0  0  0  0  0  0  0  0  0  0
   49.3454    7.4922   22.1805 O   0  0  0  0  0  0  0  0  0  0  0  0
   56.2199    7.5045   21.7218 O   0  0  0  0  0  0  0  0  0  0  0  0
   50.6456    3.2365   17.4793 C   0  0  0  0  0  0  0  0  0  0  0  0
   52.1238    6.8934   16.7570 C   0  0  0  0  0  0  0  0  0  0  0  0
   47.9216    3.5036   17.8845 C   0  0  0  0  0  0  0  0  0  0  0  0
   53.4231    9.3367   16.6946 C   0  0  0  0  0  0  0  0  0  0  0  0
   51.8642    7.7943   15.7205 C   0  0  0  0  0  0  0  0  0  0  0  0
   49.7492    2.4716   16.7258 C   0  0  0  0  0  0  0  0  0  0  0  0
   52.5117    9.0193   15.6916 C   0  0  0  0  0  0  0  0  0  0  0  0
   48.3855    2.6087   16.9254 C   0  0  0  0  0  0  0  0  0  0  0  0
   50.9291    4.9867   19.2011 H   0  0  0  0  0  0  0  0  0  0  0  0
   50.4401    8.0081   20.1737 H   0  0  0  0  0  0  0  0  0  0  0  0
   51.2686    8.7023   18.8231 H   0  0  0  0  0  0  0  0  0  0  0  0
   51.1681    7.4513   16.5014 H   0  0  0  0  0  0  0  0  0  0  0  0
   51.1466    5.7223   16.6845 H   0  0  0  0  0  0  0  0  0  0  0  0
   47.7037    7.0101   19.4629 H   0  0  0  0  0  0  0  0  0  0  0  0
   50.5430    4.4004   21.4056 H   0  0  0  0  0  0  0  0  0  0  0  0
   53.0638    8.1194   20.1176 H   0  0  0  0  0  0  0  0  0  0  0  0
   52.2886    6.6999   20.8179 H   0  0  0  0  0  0  0  0  0  0  0  0
   53.3965    5.9926   16.8840 H   0  0  0  0  0  0  0  0  0  0  0  0
   53.2538    7.6943   17.3485 H   0  0  0  0  0  0  0  0  0  0  0  0
   49.2798    4.6063   23.5120 H   0  0  0  0  0  0  0  0  0  0  0  0
   46.4443    7.2021   21.5750 H   0  0  0  0  0  0  0  0  0  0  0  0
   54.9362    5.2763   18.7041 H   0  0  0  0  0  0  0  0  0  0  0  0
   54.6683    5.8820   20.3253 H   0  0  0  0  0  0  0  0  0  0  0  0
   57.5990   10.1101   19.1029 H   0  0  0  0  0  0  0  0  0  0  0  0
   50.1046    2.8157   18.6993 H   0  0  0  0  0  0  0  0  0  0  0  0
   48.1036    6.2732   17.0655 H   0  0  0  0  0  0  0  0  0  0  0  0
   58.4786    9.4539   17.1499 H   0  0  0  0  0  0  0  0  0  0  0  0
   58.3915    7.7646   17.7063 H   0  0  0  0  0  0  0  0  0  0  0  0
   56.4897    7.1108   19.4905 H   0  0  0  0  0  0  0  0  0  0  0  0
   55.1443    8.2673   19.3792 H   0  0  0  0  0  0  0  0  0  0  0  0
   55.8609    9.5040   17.5258 H   0  0  0  0  0  0  0  0  0  0  0  0
   56.4977    8.6432   16.1147 H   0  0  0  0  0  0  0  0  0  0  0  0
   46.8136    4.8028   15.5606 H   0  0  0  0  0  0  0  0  0  0  0  0
   48.8097    1.3633   17.1836 H   0  0  0  0  0  0  0  0  0  0  0  0
   47.1629    2.3472   15.6116 H   0  0  0  0  0  0  0  0  0  0  0  0
   52.9019    4.3782   18.1817 H   0  0  0  0  0  0  0  0  0  0  0  0
   52.9987    4.3881   19.9071 H   0  0  0  0  0  0  0  0  0  0  0  0
   47.2175    5.2188   19.7557 H   0  0  0  0  0  0  0  0  0  0  0  0
   55.1331    9.7530   18.6634 H   0  0  0  0  0  0  0  0  0  0  0  0
   50.8677    7.0743   21.6644 H   0  0  0  0  0  0  0  0  0  0  0  0
   55.2546    6.1774   21.4302 H   0  0  0  0  0  0  0  0  0  0  0  0
   48.7530    7.9990   22.7808 H   0  0  0  0  0  0  0  0  0  0  0  0
   56.9024    7.9669   22.2594 H   0  0  0  0  0  0  0  0  0  0  0  0
   51.7004    3.0715   17.2811 H   0  0  0  0  0  0  0  0  0  0  0  0
   51.6002    5.9437   16.7226 H   0  0  0  0  0  0  0  0  0  0  0  0
   46.8466    3.5904   18.0341 H   0  0  0  0  0  0  0  0  0  0  0  0
   53.9283   10.2999   16.6503 H   0  0  0  0  0  0  0  0  0  0  0  0
   51.1557    7.5307   14.9395 H   0  0  0  0  0  0  0  0  0  0  0  0
   50.1248    1.7683   15.9866 H   0  0  0  0  0  0  0  0  0  0  0  0
   52.3144    9.7250   14.8896 H   0  0  0  0  0  0  0  0  0  0  0  0
   47.6831    2.0175   16.3442 H   0  0  0  0  0  0  0  0  0  0  0  0
  2  1  1  0
  3 10  1  0
  4  2  1  0
  5  1  1  0
  6  1  1  0
  7  2  1  0
  8  4  2  0
  9  4  1  0
 10  5  1  0
 11  6  1  0
 12 14  2  0
 13  9  2  0
 14  8  1  0
 15 12  1  0
 16  3  1  0
 17 21  1  0
 18 22  1  0
 19  7  2  0
 20  7  1  0
 21 23  1  0
 22 16  1  0
 23 18  1  0
 24 20  2  0
 25 19  1  0
 26 25  2  0
 11  3  1  0
 13 12  1  0
 24 26  1  0
 28 32  2  0
 29 33  1  0
 30 31  1  0
 31 27  2  0
 32 29  1  0
 33 30  1  0
 34 27  1  0
 35 28  1  0
 36 27  1  0
 37 28  1  0
 38 29  2  0
 39 40  1  0
 40 34  2  0
 41 38  1  0
 42 36  2  0
 43 37  2  0
 44 31  1  0
 45 32  1  0
 46 36  1  0
 47 37  1  0
 48 39  1  0
 49 38  1  0
 50 40  1  0
 51 41  1  0
 52 49  2  0
 53 48  2  0
 54 52  1  0
 55 50  2  0
 30 39  2  0
 53 55  1  0
 35 41  2  0
 51 54  2  0
  2 56  1  1
  5 57  1  0
  5 58  1  0
  6 59  1  0
  6 60  1  0
  8 61  1  0
  9 62  1  0
 10 63  1  0
 10 64  1  0
 11 65  1  0
 11 66  1  0
 13 67  1  0
 14 68  1  0
 16 69  1  0
 16 70  1  0
 17 71  1  0
 19 72  1  0
 20 73  1  0
 21 74  1  0
 21 75  1  0
 22 76  1  0
 22 77  1  0
 23 78  1  0
 23 79  1  0
 24 80  1  0
 25 81  1  0
 26 82  1  0
 33 83  1  0
 33 84  1  0
 34 85  1  0
 35 86  1  0
 44 87  1  0
 45 88  1  0
 46 89  1  0
 47 90  1  0
 48 91  1  0
 49 92  1  0
 50 93  1  0
 51 94  1  0
 52 95  1  0
 53 96  1  0
 54 97  1  0
 55 98  1  0
M  END
> <Uni-Dock RESULT> 
ENERGY=   -5.557  LOWER_BOUND=    4.032  UPPER_BOUND=    6.443
INTER + INTRA:          -5.557
INTER:                  -5.557
INTRA:                   0.000
UNBOUND:                 0.000

$$$$

     RDKit          3D

 98103  0  0  0  0  0  0  0  0999 V2000
   50.6381    7.7144   19.7710 N   0  0  0  0  0  0  0  0  0  0  0  0
   49.5723    6.6694   19.8744 C   0  0  1  0  0  0  0  0  0  0  0  0
   48.9186    9.3736   18.2168 N   0  0  0  0  0  0  0  0  0  0  0  0
   49.8980    5.3854   19.0921 C   0  0  0  0  0  0  0  0  0  0  0  0
   51.0321    7.9926   18.3702 C   0  0  0  0  0  0  0  0  0  0  0  0
   50.1768    9.0048   20.3610 C   0  0  0  0  0  0  0  0  0  0  0  0
   49.2377    6.2918   21.3293 C   0  0  0  0  0  0  0  0  0  0  0  0
   51.0950    4.6772   19.3023 C   0  0  0  0  0  0  0  0  0  0  0  0
   48.9787    4.8867   18.1521 C   0  0  0  0  0  0  0  0  0  0  0  0
   49.9283    8.6101   17.4694 C   0  0  0  0  0  0  0  0  0  0  0  0
   49.5131   10.0232   19.3885 C   0  0  0  0  0  0  0  0  0  0  0  0
   50.4458    3.0340   17.6599 C   0  0  0  0  0  0  0  0  0  0  0  0
   49.2525    3.7174   17.4382 C   0  0  0  0  0  0  0  0  0  0  0  0
   51.3682    3.5077   18.5889 C   0  0  0  0  0  0  0  0  0  0  0  0
   50.7825    1.5954   16.7772 Cl  0  0  0  0  0  0  0  0  0  0  0  0
   48.1078   10.2697   17.3774 C   0  0  0  0  0  0  0  0  0  0  0  0
   49.4077   13.9090   15.0416 O   0  0  0  0  0  0  0  0  0  0  0  0
   48.9273   12.5254   17.8219 O   0  0  0  0  0  0  0  0  0  0  0  0
   47.9100    5.9913   21.6815 C   0  0  0  0  0  0  0  0  0  0  0  0
   50.2286    6.2016   22.3226 C   0  0  0  0  0  0  0  0  0  0  0  0
   49.1672   14.4853   16.3262 C   0  0  0  0  0  0  0  0  0  0  0  0
   48.7778   11.5344   16.8013 C   0  0  0  0  0  0  0  0  0  0  0  0
   49.7623   13.6232   17.4425 C   0  0  0  0  0  0  0  0  0  0  0  0
   49.9001    5.8362   23.6291 C   0  0  0  0  0  0  0  0  0  0  0  0
   47.5839    5.6258   22.9890 C   0  0  0  0  0  0  0  0  0  0  0  0
   48.5783    5.5493   23.9619 C   0  0  0  0  0  0  0  0  0  0  0  0
   50.1122    5.3064   18.9300 C   0  0  0  0  0  0  0  0  0  0  0  0
   49.4683   10.8333   16.2299 C   0  0  0  0  0  0  0  0  0  0  0  0
   48.8311    9.5291   18.2057 C   0  0  0  0  0  0  0  0  0  0  0  0
   48.5870    7.1864   19.3364 C   0  0  0  0  0  0  0  0  0  0  0  0
   49.4535    6.4605   18.4855 C   0  0  0  0  0  0  0  0  0  0  0  0
   48.6271    9.9056   16.8581 C   0  0  0  0  0  0  0  0  0  0  0  0
   47.9191    8.4655   18.8217 C   0  0  0  0  0  0  0  0  0  0  0  0
   49.8825    4.8488   20.2297 C   0  0  0  0  0  0  0  0  0  0  0  0
   50.5081   11.4156   16.9609 C   0  0  0  0  0  0  0  0  0  0  0  0
   51.0548    4.5074   18.1048 C   0  0  0  0  0  0  0  0  0  0  0  0
   49.3376   11.2581   14.8127 C   0  0  0  0  0  0  0  0  0  0  0  0
   49.8695   10.1640   18.9589 C   0  0  0  0  0  0  0  0  0  0  0  0
   48.3137    6.6759   20.6503 C   0  0  0  0  0  0  0  0  0  0  0  0
   48.9905    5.5055   21.0840 C   0  0  0  0  0  0  0  0  0  0  0  0
   50.7114   11.1036   18.3100 C   0  0  0  0  0  0  0  0  0  0  0  0
   51.6365    3.4971   18.4548 O   0  0  0  0  0  0  0  0  0  0  0  0
   50.0373   12.0730   14.2397 O   0  0  0  0  0  0  0  0  0  0  0  0
   49.6084    6.9162   17.2008 O   0  0  0  0  0  0  0  0  0  0  0  0
   47.5659    9.3362   16.1967 O   0  0  0  0  0  0  0  0  0  0  0  0
   51.2368    5.0079   16.8650 O   0  0  0  0  0  0  0  0  0  0  0  0
   48.3325   10.6393   14.1593 O   0  0  0  0  0  0  0  0  0  0  0  0
   47.4030    7.2534   21.5728 C   0  0  0  0  0  0  0  0  0  0  0  0
   50.1194    9.9296   20.3322 C   0  0  0  0  0  0  0  0  0  0  0  0
   48.7719    4.9851   22.3710 C   0  0  0  0  0  0  0  0  0  0  0  0
   51.7519   11.7343   19.0132 C   0  0  0  0  0  0  0  0  0  0  0  0
   51.1557   10.5650   21.0219 C   0  0  0  0  0  0  0  0  0  0  0  0
   47.1914    6.7232   22.8496 C   0  0  0  0  0  0  0  0  0  0  0  0
   51.9755   11.4655   20.3604 C   0  0  0  0  0  0  0  0  0  0  0  0
   47.8801    5.5905   23.2509 C   0  0  0  0  0  0  0  0  0  0  0  0
   48.6507    7.0846   19.4460 H   0  0  0  0  0  0  0  0  0  0  0  0
   51.4545    7.1088   17.8802 H   0  0  0  0  0  0  0  0  0  0  0  0
   51.8718    8.7017   18.4103 H   0  0  0  0  0  0  0  0  0  0  0  0
   51.0603    9.4921   20.7939 H   0  0  0  0  0  0  0  0  0  0  0  0
   49.5016    8.8425   21.2087 H   0  0  0  0  0  0  0  0  0  0  0  0
   51.8237    5.0437   20.0222 H   0  0  0  0  0  0  0  0  0  0  0  0
   48.0416    5.4096   17.9709 H   0  0  0  0  0  0  0  0  0  0  0  0
   50.4278    9.2267   16.7140 H   0  0  0  0  0  0  0  0  0  0  0  0
   49.4126    7.8032   16.9359 H   0  0  0  0  0  0  0  0  0  0  0  0
   48.7495   10.5787   19.9458 H   0  0  0  0  0  0  0  0  0  0  0  0
   50.2808   10.7413   19.0739 H   0  0  0  0  0  0  0  0  0  0  0  0
   48.5313    3.3457   16.7155 H   0  0  0  0  0  0  0  0  0  0  0  0
   52.2986    2.9754   18.7648 H   0  0  0  0  0  0  0  0  0  0  0  0
   47.2365   10.5784   17.9691 H   0  0  0  0  0  0  0  0  0  0  0  0
   47.7095    9.6792   16.5426 H   0  0  0  0  0  0  0  0  0  0  0  0
   50.3669   13.9388   14.8830 H   0  0  0  0  0  0  0  0  0  0  0  0
   47.1211    6.0405   20.9344 H   0  0  0  0  0  0  0  0  0  0  0  0
   51.2649    6.4254   22.0787 H   0  0  0  0  0  0  0  0  0  0  0  0
   49.6225   15.4805   16.3277 H   0  0  0  0  0  0  0  0  0  0  0  0
   48.0851   14.5900   16.4479 H   0  0  0  0  0  0  0  0  0  0  0  0
   48.1178   11.9352   16.0249 H   0  0  0  0  0  0  0  0  0  0  0  0
   49.7462   11.2996   16.3483 H   0  0  0  0  0  0  0  0  0  0  0  0
   50.7545   13.2443   17.1727 H   0  0  0  0  0  0  0  0  0  0  0  0
   49.8701   14.2398   18.3408 H   0  0  0  0  0  0  0  0  0  0  0  0
   50.6774    5.7756   24.3859 H   0  0  0  0  0  0  0  0  0  0  0  0
   46.5531    5.3983   23.2470 H   0  0  0  0  0  0  0  0  0  0  0  0
   48.3235    5.2633   24.9787 H   0  0  0  0  0  0  0  0  0  0  0  0
   47.3706    8.9917   19.6068 H   0  0  0  0  0  0  0  0  0  0  0  0
   47.1412    8.1376   18.1221 H   0  0  0  0  0  0  0  0  0  0  0  0
   50.3975    3.9519   20.5740 H   0  0  0  0  0  0  0  0  0  0  0  0
   51.1620   12.1366   16.4708 H   0  0  0  0  0  0  0  0  0  0  0  0
   50.2646    6.3492   16.7471 H   0  0  0  0  0  0  0  0  0  0  0  0
   47.5948    9.6319   15.2634 H   0  0  0  0  0  0  0  0  0  0  0  0
   51.8777    4.3762   16.4670 H   0  0  0  0  0  0  0  0  0  0  0  0
   48.3904   11.0254   13.2559 H   0  0  0  0  0  0  0  0  0  0  0  0
   46.8227    8.1350   21.3179 H   0  0  0  0  0  0  0  0  0  0  0  0
   49.4995    9.2453   20.9020 H   0  0  0  0  0  0  0  0  0  0  0  0
   49.2966    4.0898   22.7005 H   0  0  0  0  0  0  0  0  0  0  0  0
   52.4007   12.4509   18.5128 H   0  0  0  0  0  0  0  0  0  0  0  0
   51.3146   10.3514   22.0757 H   0  0  0  0  0  0  0  0  0  0  0  0
   46.4842    7.1997   23.5241 H   0  0  0  0  0  0  0  0  0  0  0  0
   52.7836   11.9626   20.8898 H   0  0  0  0  0  0  0  0  0  0  0  0
   47.7205    5.1726   24.2411 H   0  0  0  0  0  0  0  0  0  0  0  0
  2  1  1  0
  3 10  1  0
  4  2  1  0
  5  1  1  0
  6  1  1  0
  7  2  1  0
  8  4  2  0
  9  4  1  0
 10  5  1  0
 11  6  1  0
 12 14  2  0
 13  9  2  0
 14  8  1  0
 15 12  1  0
 16  3  1  0
 17 21  1  0
 18 22  1  0
 19  7  2  0
 20  7  1  0
 21 23  1  0
 22 16  1  0
 23 18  1  0
 24 20  2  0
 25 19  1  0
 26 25  2  0
 11  3  1  0
 13 12  1  0
 24 26  1  0
 28 32  2  0
 29 33  1  0
 30 31  1  0
 31 27  2  0
 32 29  1  0
 33 30  1  0
 34 27  1  0
 35 28  1  0
 36 27  1  0
 37 28  1  0
 38 29  2  0
 39 40  1  0
 40 34  2  0
 41 38  1  0
 42 36  2  0
 43 37  2  0
 44 31  1  0
 45 32  1  0
 46 36  1  0
 47 37  1  0
 48 39  1  0
 49 38  1  0
 50 40  1  0
 51 41  1  0
 52 49  2  0
 53 48  2  0
 54 52  1  0
 55 50  2  0
 30 39  2  0
 53 55  1  0
 35 41  2  0
 51 54  2  0
  2 56  1  1
  5 57  1  0
  5 58  1  0
  6 59  1  0
  6 60  1  0
  8 61  1  0
  9 62  1  0
 10 63  1  0
 10 64  1  0
 11 65  1  0
 11 66  1  0
 13 67  1  0
 14 68  1  0
 16 69  1  0
 16 70  1  0
 17 71  1  0
 19 72  1  0
 20 73  1  0
 21 74  1  0
 21 75  1  0
 22 76  1  0
 22 77  1  0
 23 78  1  0
 23 79  1  0
 24 80  1  0
 25 81  1  0
 26 82  1  0
 33 83  1  0
 33 84  1  0
 34 85  1  0
 35 86  1  0
 44 87  1  0
 45 88  1  0
 46 89  1  0
 47 90  1  0
 48 91  1  0
 49 92  1  0
 50 93  1  0
 51 94  1  0
 52 95  1  0
 53 96  1  0
 54 97  1  0
 55 98  1  0
M  END
> <Uni-Dock RESULT> 
ENERGY=   -5.466  LOWER_BOUND=    2.846  UPPER_BOUND=    4.787
INTER + INTRA:          -5.466
INTER:                  -5.466
INTRA:                   0.000
UNBOUND:                 0.000

$$$$

     RDKit          3D

 98103  0  0  0  0  0  0  0  0999 V2000
   48.1990    8.2930   16.7057 N   0  0  0  0  0  0  0  0  0  0  0  0
   48.8664    8.4709   18.0330 C   0  0  1  0  0  0  0  0  0  0  0  0
   50.6735    8.7226   15.3574 N   0  0  0  0  0  0  0  0  0  0  0  0
   48.4438    9.7584   18.7613 C   0  0  0  0  0  0  0  0  0  0  0  0
   48.3134    9.4919   15.8430 C   0  0  0  0  0  0  0  0  0  0  0  0
   48.8030    7.1538   15.9551 C   0  0  0  0  0  0  0  0  0  0  0  0
   48.6550    7.2743   18.9790 C   0  0  0  0  0  0  0  0  0  0  0  0
   47.0918   10.0528   19.0143 C   0  0  0  0  0  0  0  0  0  0  0  0
   49.4231   10.6647   19.2051 C   0  0  0  0  0  0  0  0  0  0  0  0
   49.7530    9.8680   15.3988 C   0  0  0  0  0  0  0  0  0  0  0  0
   49.9671    7.4952   14.9795 C   0  0  0  0  0  0  0  0  0  0  0  0
   47.7146   12.1082   20.1130 C   0  0  0  0  0  0  0  0  0  0  0  0
   49.0597   11.8349   19.8762 C   0  0  0  0  0  0  0  0  0  0  0  0
   46.7287   11.2226   19.6860 C   0  0  0  0  0  0  0  0  0  0  0  0
   47.2687   13.5519   20.9371 Cl  0  0  0  0  0  0  0  0  0  0  0  0
   51.9015    8.9730   14.5865 C   0  0  0  0  0  0  0  0  0  0  0  0
   52.3602    9.7457   10.1613 O   0  0  0  0  0  0  0  0  0  0  0  0
   51.6310    7.7604   12.4857 O   0  0  0  0  0  0  0  0  0  0  0  0
   49.6932    6.8775   19.8403 C   0  0  0  0  0  0  0  0  0  0  0  0
   47.4353    6.5775   19.0382 C   0  0  0  0  0  0  0  0  0  0  0  0
   52.3691    8.3176   10.1877 C   0  0  0  0  0  0  0  0  0  0  0  0
   51.7928    9.0646   13.0503 C   0  0  0  0  0  0  0  0  0  0  0  0
   51.2693    7.7714   11.1017 C   0  0  0  0  0  0  0  0  0  0  0  0
   47.2642    5.5095   19.9207 C   0  0  0  0  0  0  0  0  0  0  0  0
   49.5196    5.8092   20.7223 C   0  0  0  0  0  0  0  0  0  0  0  0
   48.3062    5.1254   20.7614 C   0  0  0  0  0  0  0  0  0  0  0  0
   48.2719    9.9699   18.6970 C   0  0  0  0  0  0  0  0  0  0  0  0
   51.1322    9.9767   13.2133 C   0  0  0  0  0  0  0  0  0  0  0  0
   50.7991    8.6538   15.2504 C   0  0  0  0  0  0  0  0  0  0  0  0
   50.0659    8.5827   17.7571 C   0  0  0  0  0  0  0  0  0  0  0  0
   49.3169    9.7827   17.7823 C   0  0  0  0  0  0  0  0  0  0  0  0
   51.4744    9.6709   14.5370 C   0  0  0  0  0  0  0  0  0  0  0  0
   51.1732    8.4047   16.7134 C   0  0  0  0  0  0  0  0  0  0  0  0
   47.9871    8.9620   19.6212 C   0  0  0  0  0  0  0  0  0  0  0  0
   50.1246    9.2413   12.5819 C   0  0  0  0  0  0  0  0  0  0  0  0
   47.4258   11.1893   18.7668 C   0  0  0  0  0  0  0  0  0  0  0  0
   51.7732   11.0472   12.4076 C   0  0  0  0  0  0  0  0  0  0  0  0
   49.8007    7.8764   14.5815 C   0  0  0  0  0  0  0  0  0  0  0  0
   49.8026    7.5774   18.7480 C   0  0  0  0  0  0  0  0  0  0  0  0
   48.7398    7.7838   19.6665 C   0  0  0  0  0  0  0  0  0  0  0  0
   49.4668    8.1959   13.2402 C   0  0  0  0  0  0  0  0  0  0  0  0
   46.5177   11.3889   19.5523 O   0  0  0  0  0  0  0  0  0  0  0  0
   51.5146   11.3287   11.2518 O   0  0  0  0  0  0  0  0  0  0  0  0
   49.6658   10.7663   16.8919 O   0  0  0  0  0  0  0  0  0  0  0  0
   52.4853   10.3353   15.1886 O   0  0  0  0  0  0  0  0  0  0  0  0
   47.7491   12.1182   17.8431 O   0  0  0  0  0  0  0  0  0  0  0  0
   52.7168   11.7339   13.0846 O   0  0  0  0  0  0  0  0  0  0  0  0
   50.5317    6.3684   18.8919 C   0  0  0  0  0  0  0  0  0  0  0  0
   49.1142    6.7842   15.1640 C   0  0  0  0  0  0  0  0  0  0  0  0
   48.4313    6.8153   20.6369 C   0  0  0  0  0  0  0  0  0  0  0  0
   48.4797    7.4653   12.5572 C   0  0  0  0  0  0  0  0  0  0  0  0
   48.1360    6.0630   14.4738 C   0  0  0  0  0  0  0  0  0  0  0  0
   50.2170    5.4141   19.8648 C   0  0  0  0  0  0  0  0  0  0  0  0
   47.8155    6.4067   13.1700 C   0  0  0  0  0  0  0  0  0  0  0  0
   49.1627    5.6357   20.7353 C   0  0  0  0  0  0  0  0  0  0  0  0
   49.9485    8.5371   17.8599 H   0  0  0  0  0  0  0  0  0  0  0  0
   47.8265   10.3657   16.2892 H   0  0  0  0  0  0  0  0  0  0  0  0
   47.7219    9.2907   14.9379 H   0  0  0  0  0  0  0  0  0  0  0  0
   47.9988    6.7004   15.3608 H   0  0  0  0  0  0  0  0  0  0  0  0
   49.1369    6.3575   16.6299 H   0  0  0  0  0  0  0  0  0  0  0  0
   46.3150    9.3691   18.6790 H   0  0  0  0  0  0  0  0  0  0  0  0
   50.4777   10.4623   19.0287 H   0  0  0  0  0  0  0  0  0  0  0  0
   49.6770   10.3644   14.4251 H   0  0  0  0  0  0  0  0  0  0  0  0
   50.1615   10.6022   16.1029 H   0  0  0  0  0  0  0  0  0  0  0  0
   50.6595    6.6451   14.9644 H   0  0  0  0  0  0  0  0  0  0  0  0
   49.5458    7.5964   13.9714 H   0  0  0  0  0  0  0  0  0  0  0  0
   49.8291   12.5246   20.2124 H   0  0  0  0  0  0  0  0  0  0  0  0
   45.6792   11.4327   19.8712 H   0  0  0  0  0  0  0  0  0  0  0  0
   52.6163    8.1785   14.8363 H   0  0  0  0  0  0  0  0  0  0  0  0
   52.3469    9.9047   14.9574 H   0  0  0  0  0  0  0  0  0  0  0  0
   51.5320   10.0247    9.7342 H   0  0  0  0  0  0  0  0  0  0  0  0
   50.6456    7.4027   19.8276 H   0  0  0  0  0  0  0  0  0  0  0  0
   46.6133    6.8639   18.3859 H   0  0  0  0  0  0  0  0  0  0  0  0
   52.2194    7.9714    9.1603 H   0  0  0  0  0  0  0  0  0  0  0  0
   53.3571    7.9961   10.5299 H   0  0  0  0  0  0  0  0  0  0  0  0
   52.7302    9.4891   12.6760 H   0  0  0  0  0  0  0  0  0  0  0  0
   50.9689    9.7192   12.7487 H   0  0  0  0  0  0  0  0  0  0  0  0
   50.3321    8.3260   10.9792 H   0  0  0  0  0  0  0  0  0  0  0  0
   51.0796    6.7266   10.8350 H   0  0  0  0  0  0  0  0  0  0  0  0
   46.3166    4.9787   19.9507 H   0  0  0  0  0  0  0  0  0  0  0  0
   50.3315    5.5125   21.3807 H   0  0  0  0  0  0  0  0  0  0  0  0
   48.1717    4.2951   21.4493 H   0  0  0  0  0  0  0  0  0  0  0  0
   51.5948    7.3966   16.7239 H   0  0  0  0  0  0  0  0  0  0  0  0
   51.9999    9.0466   17.0401 H   0  0  0  0  0  0  0  0  0  0  0  0
   47.1725    9.1089   20.3306 H   0  0  0  0  0  0  0  0  0  0  0  0
   49.8590    9.4807   11.5525 H   0  0  0  0  0  0  0  0  0  0  0  0
   49.0393   11.5117   16.9911 H   0  0  0  0  0  0  0  0  0  0  0  0
   52.8060   11.0515   14.6027 H   0  0  0  0  0  0  0  0  0  0  0  0
   47.1031   12.8384   18.0230 H   0  0  0  0  0  0  0  0  0  0  0  0
   53.0268   12.3901   12.4199 H   0  0  0  0  0  0  0  0  0  0  0  0
   51.3766    6.1376   18.2501 H   0  0  0  0  0  0  0  0  0  0  0  0
   49.3356    6.4634   16.1765 H   0  0  0  0  0  0  0  0  0  0  0  0
   47.6125    6.9763   21.3362 H   0  0  0  0  0  0  0  0  0  0  0  0
   48.2206    7.7149   11.5298 H   0  0  0  0  0  0  0  0  0  0  0  0
   47.6303    5.2338   14.9618 H   0  0  0  0  0  0  0  0  0  0  0  0
   50.8027    4.5010   19.9380 H   0  0  0  0  0  0  0  0  0  0  0  0
   47.0557    5.8512   12.6275 H   0  0  0  0  0  0  0  0  0  0  0  0
   48.9127    4.8991   21.4940 H   0  0  0  0  0  0  0  0  0  0  0  0
  2  1  1  0
  3 10  1  0
  4  2  1  0
  5  1  1  0
  6  1  1  0
  7  2  1  0
  8  4  2  0
  9  4  1  0
 10  5  1  0
 11  6  1  0
 12 14  2  0
 13  9  2  0
 14  8  1  0
 15 12  1  0
 16  3  1  0
 17 21  1  0
 18 22  1  0
 19  7  2  0
 20  7  1  0
 21 23  1  0
 22 16  1  0
 23 18  1  0
 24 20  2  0
 25 19  1  0
 26 25  2  0
 11  3  1  0
 13 12  1  0
 24 26  1  0
 28 32  2  0
 29 33  1  0
 30 31  1  0
 31 27  2  0
 32 29  1  0
 33 30  1  0
 34 27  1  0
 35 28  1  0
 36 27  1  0
 37 28  1  0
 38 29  2  0
 39 40  1  0
 40 34  2  0
 41 38  1  0
 42 36  2  0
 43 37  2  0
 44 31  1  0
 45 32  1  0
 46 36  1  0
 47 37  1  0
 48 39  1  0
 49 38  1  0
 50 40  1  0
 51 41  1  0
 52 49  2  0
 53 48  2  0
 54 52  1  0
 55 50  2  0
 30 39  2  0
 53 55  1  0
 35 41  2  0
 51 54  2  0
  2 56  1  1
  5 57  1  0
  5 58  1  0
  6 59  1  0
  6 60  1  0
  8 61  1  0
  9 62  1  0
 10 63  1  0
 10 64  1  0
 11 65  1  0
 11 66  1  0
 13 67  1  0
 14 68  1  0
 16 69  1  0
 16 70  1  0
 17 71  1  0
 19 72  1  0
 20 73  1  0
 21 74  1  0
 21 75  1  0
 22 76  1  0
 22 77  1  0
 23 78  1  0
 23 79  1  0
 24 80  1  0
 25 81  1  0
 26 82  1  0
 33 83  1  0
 33 84  1  0
 34 85  1  0
 35 86  1  0
 44 87  1  0
 45 88  1  0
 46 89  1  0
 47 90  1  0
 48 91  1  0
 49 92  1  0
 50 93  1  0
 51 94  1  0
 52 95  1  0
 53 96  1  0
 54 97  1  0
 55 98  1  0
M  END
> <Uni-Dock RESULT> 
ENERGY=   -5.463  LOWER_BOUND=    2.620  UPPER_BOUND=    6.748
INTER + INTRA:          -5.463
INTER:                  -5.463
INTRA:                   0.000
UNBOUND:                 0.000

$$$$

     RDKit          3D

 98103  0  0  0  0  0  0  0  0999 V2000
   48.4532    8.3262   19.7330 N   0  0  0  0  0  0  0  0  0  0  0  0
   48.9251    9.6227   19.1541 C   0  0  1  0  0  0  0  0  0  0  0  0
   51.0359    7.8291   20.8321 N   0  0  0  0  0  0  0  0  0  0  0  0
   49.0059    9.6121   17.6179 C   0  0  0  0  0  0  0  0  0  0  0  0
   49.2081    7.1609   19.2164 C   0  0  0  0  0  0  0  0  0  0  0  0
   48.6016    8.3213   21.2176 C   0  0  0  0  0  0  0  0  0  0  0  0
   48.0729   10.8263   19.5973 C   0  0  0  0  0  0  0  0  0  0  0  0
   47.8985    9.2640   16.8235 C   0  0  0  0  0  0  0  0  0  0  0  0
   50.2050    9.9726   16.9778 C   0  0  0  0  0  0  0  0  0  0  0  0
   50.7153    7.1157   19.5873 C   0  0  0  0  0  0  0  0  0  0  0  0
   49.9284    7.7402   21.7880 C   0  0  0  0  0  0  0  0  0  0  0  0
   49.1871    9.6261   14.8165 C   0  0  0  0  0  0  0  0  0  0  0  0
   50.2953    9.9777   15.5836 C   0  0  0  0  0  0  0  0  0  0  0  0
   47.9889    9.2699   15.4295 C   0  0  0  0  0  0  0  0  0  0  0  0
   49.3014    9.6299   13.0993 Cl  0  0  0  0  0  0  0  0  0  0  0  0
   52.3491    7.4805   21.3968 C   0  0  0  0  0  0  0  0  0  0  0  0
   53.7531    3.5303   23.0744 O   0  0  0  0  0  0  0  0  0  0  0  0
   51.8912    6.0499   23.3205 O   0  0  0  0  0  0  0  0  0  0  0  0
   48.6913   12.0672   19.8309 C   0  0  0  0  0  0  0  0  0  0  0  0
   46.6776   10.7374   19.7450 C   0  0  0  0  0  0  0  0  0  0  0  0
   53.1316    4.1058   24.2246 C   0  0  0  0  0  0  0  0  0  0  0  0
   52.5216    6.0875   22.0371 C   0  0  0  0  0  0  0  0  0  0  0  0
   51.7813    4.7342   23.8712 C   0  0  0  0  0  0  0  0  0  0  0  0
   45.9268   11.8503   20.1274 C   0  0  0  0  0  0  0  0  0  0  0  0
   47.9382   13.1791   20.2131 C   0  0  0  0  0  0  0  0  0  0  0  0
   46.5572   13.0700   20.3621 C   0  0  0  0  0  0  0  0  0  0  0  0
   48.9557    9.4178   17.4225 C   0  0  0  0  0  0  0  0  0  0  0  0
   52.3111    5.6555   21.0057 C   0  0  0  0  0  0  0  0  0  0  0  0
   51.1332    7.8056   20.9802 C   0  0  0  0  0  0  0  0  0  0  0  0
   50.0787    9.7437   19.5809 C   0  0  0  0  0  0  0  0  0  0  0  0
   49.9364    9.0528   18.3545 C   0  0  0  0  0  0  0  0  0  0  0  0
   52.2835    7.0264   20.7177 C   0  0  0  0  0  0  0  0  0  0  0  0
   51.1379    9.2850   20.5884 C   0  0  0  0  0  0  0  0  0  0  0  0
   48.1242   10.5055   17.6995 C   0  0  0  0  0  0  0  0  0  0  0  0
   51.1897    5.0584   21.5893 C   0  0  0  0  0  0  0  0  0  0  0  0
   48.7292    8.7253   16.1276 C   0  0  0  0  0  0  0  0  0  0  0  0
   53.4682    4.7649   20.7337 C   0  0  0  0  0  0  0  0  0  0  0  0
   50.0071    7.1955   21.6193 C   0  0  0  0  0  0  0  0  0  0  0  0
   49.2575   10.8949   19.8302 C   0  0  0  0  0  0  0  0  0  0  0  0
   48.2689   11.2499   18.8750 C   0  0  0  0  0  0  0  0  0  0  0  0
   50.0507    5.8071   21.9075 C   0  0  0  0  0  0  0  0  0  0  0  0
   47.8945    9.0202   15.2922 O   0  0  0  0  0  0  0  0  0  0  0  0
   53.5343    3.5758   20.9864 O   0  0  0  0  0  0  0  0  0  0  0  0
   50.8091    8.0250   18.1013 O   0  0  0  0  0  0  0  0  0  0  0  0
   53.3737    7.6693   20.1828 O   0  0  0  0  0  0  0  0  0  0  0  0
   49.5601    7.6813   15.9268 O   0  0  0  0  0  0  0  0  0  0  0  0
   54.5046    5.3986   20.1469 O   0  0  0  0  0  0  0  0  0  0  0  0
   49.3530   11.7281   20.9750 C   0  0  0  0  0  0  0  0  0  0  0  0
   48.8335    7.8872   22.0032 C   0  0  0  0  0  0  0  0  0  0  0  0
   47.4267   12.3542   19.0899 C   0  0  0  0  0  0  0  0  0  0  0  0
   48.9573    5.1705   22.5190 C   0  0  0  0  0  0  0  0  0  0  0  0
   47.7531    7.2439   22.6135 C   0  0  0  0  0  0  0  0  0  0  0  0
   48.5112   12.8270   21.1751 C   0  0  0  0  0  0  0  0  0  0  0  0
   47.8136    5.8829   22.8680 C   0  0  0  0  0  0  0  0  0  0  0  0
   47.5439   13.1377   20.2338 C   0  0  0  0  0  0  0  0  0  0  0  0
   49.9393    9.8104   19.5304 H   0  0  0  0  0  0  0  0  0  0  0  0
   49.0926    7.0454   18.1334 H   0  0  0  0  0  0  0  0  0  0  0  0
   48.7303    6.2620   19.6325 H   0  0  0  0  0  0  0  0  0  0  0  0
   47.7785    7.7155   21.6190 H   0  0  0  0  0  0  0  0  0  0  0  0
   48.4485    9.3200   21.6419 H   0  0  0  0  0  0  0  0  0  0  0  0
   46.9602    8.9788   17.2945 H   0  0  0  0  0  0  0  0  0  0  0  0
   51.0776   10.2517   17.5651 H   0  0  0  0  0  0  0  0  0  0  0  0
   51.0103    6.0617   19.6348 H   0  0  0  0  0  0  0  0  0  0  0  0
   51.2942    7.5754   18.7778 H   0  0  0  0  0  0  0  0  0  0  0  0
   50.1723    8.2862   22.7071 H   0  0  0  0  0  0  0  0  0  0  0  0
   49.7494    6.6932   22.0630 H   0  0  0  0  0  0  0  0  0  0  0  0
   51.2294   10.2588   15.1051 H   0  0  0  0  0  0  0  0  0  0  0  0
   47.1228    8.9971   14.8333 H   0  0  0  0  0  0  0  0  0  0  0  0
   52.5978    8.2405   22.1487 H   0  0  0  0  0  0  0  0  0  0  0  0
   53.0969    7.5899   20.6012 H   0  0  0  0  0  0  0  0  0  0  0  0
   53.2046    2.7784   22.7916 H   0  0  0  0  0  0  0  0  0  0  0  0
   49.7676   12.1729   19.7146 H   0  0  0  0  0  0  0  0  0  0  0  0
   46.1713    9.7910   19.5679 H   0  0  0  0  0  0  0  0  0  0  0  0
   53.0003    3.3053   24.9593 H   0  0  0  0  0  0  0  0  0  0  0  0
   53.8159    4.8545   24.6343 H   0  0  0  0  0  0  0  0  0  0  0  0
   53.5943    5.9159   22.1743 H   0  0  0  0  0  0  0  0  0  0  0  0
   52.1228    5.3005   21.3893 H   0  0  0  0  0  0  0  0  0  0  0  0
   51.2115    4.1017   23.1811 H   0  0  0  0  0  0  0  0  0  0  0  0
   51.1953    4.8435   24.7895 H   0  0  0  0  0  0  0  0  0  0  0  0
   44.8497   11.7635   20.2413 H   0  0  0  0  0  0  0  0  0  0  0  0
   48.4301   14.1313   20.3922 H   0  0  0  0  0  0  0  0  0  0  0  0
   45.9719   13.9364   20.6581 H   0  0  0  0  0  0  0  0  0  0  0  0
   51.0686    9.8232   21.5369 H   0  0  0  0  0  0  0  0  0  0  0  0
   52.1033    9.5955   20.1715 H   0  0  0  0  0  0  0  0  0  0  0  0
   47.3607   10.7865   16.9740 H   0  0  0  0  0  0  0  0  0  0  0  0
   51.2124    3.9920   21.8123 H   0  0  0  0  0  0  0  0  0  0  0  0
   50.5652    7.6138   17.2472 H   0  0  0  0  0  0  0  0  0  0  0  0
   54.0589    6.9969   19.9892 H   0  0  0  0  0  0  0  0  0  0  0  0
   49.2760    7.3427   15.0477 H   0  0  0  0  0  0  0  0  0  0  0  0
   55.1658    4.6780   20.0371 H   0  0  0  0  0  0  0  0  0  0  0  0
   50.0966   11.5476   21.7454 H   0  0  0  0  0  0  0  0  0  0  0  0
   48.7385    8.9557   21.8405 H   0  0  0  0  0  0  0  0  0  0  0  0
   46.6672   12.6198   18.3564 H   0  0  0  0  0  0  0  0  0  0  0  0
   48.9898    4.1041   22.7347 H   0  0  0  0  0  0  0  0  0  0  0  0
   46.8690    7.8136   22.8875 H   0  0  0  0  0  0  0  0  0  0  0  0
   48.6198   13.4375   22.0683 H   0  0  0  0  0  0  0  0  0  0  0  0
   46.9774    5.3759   23.3412 H   0  0  0  0  0  0  0  0  0  0  0  0
   46.8868   13.9902   20.3822 H   0  0  0  0  0  0  0  0  0  0  0  0
  2  1  1  0
  3 10  1  0
  4  2  1  0
  5  1  1  0
  6  1  1  0
  7  2  1  0
  8  4  2  0
  9  4  1  0
 10  5  1  0
 11  6  1  0
 12 14  2  0
 13  9  2  0
 14  8  1  0
 15 12  1  0
 16  3  1  0
 17 21  1  0
 18 22  1  0
 19  7  2  0
 20  7  1  0
 21 23  1  0
 22 16  1  0
 23 18  1  0
 24 20  2  0
 25 19  1  0
 26 25  2  0
 11  3  1  0
 13 12  1  0
 24 26  1  0
 28 32  2  0
 29 33  1  0
 30 31  1  0
 31 27  2  0
 32 29  1  0
 33 30  1  0
 34 27  1  0
 35 28  1  0
 36 27  1  0
 37 28  1  0
 38 29  2  0
 39 40  1  0
 40 34  2  0
 41 38  1  0
 42 36  2  0
 43 37  2  0
 44 31  1  0
 45 32  1  0
 46 36  1  0
 47 37  1  0
 48 39  1  0
 49 38  1  0
 50 40  1  0
 51 41  1  0
 52 49  2  0
 53 48  2  0
 54 52  1  0
 55 50  2  0
 30 39  2  0
 53 55  1  0
 35 41  2  0
 51 54  2  0
  2 56  1  1
  5 57  1  0
  5 58  1  0
  6 59  1  0
  6 60  1  0
  8 61  1  0
  9 62  1  0
 10 63  1  0
 10 64  1  0
 11 65  1  0
 11 66  1  0
 13 67  1  0
 14 68  1  0
 16 69  1  0
 16 70  1  0
 17 71  1  0
 19 72  1  0
 20 73  1  0
 21 74  1  0
 21 75  1  0
 22 76  1  0
 22 77  1  0
 23 78  1  0
 23 79  1  0
 24 80  1  0
 25 81  1  0
 26 82  1  0
 33 83  1  0
 33 84  1  0
 34 85  1  0
 35 86  1  0
 44 87  1  0
 45 88  1  0
 46 89  1  0
 47 90  1  0
 48 91  1  0
 49 92  1  0
 50 93  1  0
 51 94  1  0
 52 95  1  0
 53 96  1  0
 54 97  1  0
 55 98  1  0
M  END
> <Uni-Dock RESULT> 
ENERGY=   -5.330  LOWER_BOUND=    2.942  UPPER_BOUND=    6.006
INTER + INTRA:          -5.330
INTER:                  -5.330
INTRA:                   0.000
UNBOUND:                 0.000

$$$$

     RDKit          3D

 98103  0  0  0  0  0  0  0  0999 V2000
   50.3387   11.0384   17.7593 N   0  0  0  0  0  0  0  0  0  0  0  0
   49.0557   10.2706   17.7024 C   0  0  1  0  0  0  0  0  0  0  0  0
   48.9786   13.4436   17.0587 N   0  0  0  0  0  0  0  0  0  0  0  0
   48.9894    9.2782   16.5288 C   0  0  0  0  0  0  0  0  0  0  0  0
   50.6836   11.6721   16.4653 C   0  0  0  0  0  0  0  0  0  0  0  0
   50.2613   12.1291   18.7745 C   0  0  0  0  0  0  0  0  0  0  0  0
   48.7472    9.5151   19.0083 C   0  0  0  0  0  0  0  0  0  0  0  0
   49.9830    8.3023   16.3311 C   0  0  0  0  0  0  0  0  0  0  0  0
   47.9067    9.3256   15.6329 C   0  0  0  0  0  0  0  0  0  0  0  0
   49.7056   12.7724   15.9715 C   0  0  0  0  0  0  0  0  0  0  0  0
   49.8031   13.5279   18.2676 C   0  0  0  0  0  0  0  0  0  0  0  0
   48.8211    7.4709   14.3873 C   0  0  0  0  0  0  0  0  0  0  0  0
   47.8242    8.4271   14.5661 C   0  0  0  0  0  0  0  0  0  0  0  0
   49.8999    7.4036   15.2650 C   0  0  0  0  0  0  0  0  0  0  0  0
   48.7192    6.3671   13.0708 Cl  0  0  0  0  0  0  0  0  0  0  0  0
   48.3579   14.7174   16.6625 C   0  0  0  0  0  0  0  0  0  0  0  0
   50.3498   18.5571   15.3668 O   0  0  0  0  0  0  0  0  0  0  0  0
   49.7477   16.4705   17.6382 O   0  0  0  0  0  0  0  0  0  0  0  0
   47.4169    9.4059   19.4503 C   0  0  0  0  0  0  0  0  0  0  0  0
   49.7555    8.8933   19.7656 C   0  0  0  0  0  0  0  0  0  0  0  0
   50.3585   18.7149   16.7864 C   0  0  0  0  0  0  0  0  0  0  0  0
   49.2784   15.9275   16.4009 C   0  0  0  0  0  0  0  0  0  0  0  0
   50.8004   17.4272   17.4863 C   0  0  0  0  0  0  0  0  0  0  0  0
   49.4447    8.1966   20.9346 C   0  0  0  0  0  0  0  0  0  0  0  0
   47.1085    8.7082   20.6198 C   0  0  0  0  0  0  0  0  0  0  0  0
   48.1220    8.1051   21.3615 C   0  0  0  0  0  0  0  0  0  0  0  0
   49.1642    9.2133   16.3199 C   0  0  0  0  0  0  0  0  0  0  0  0
   49.7261   15.3238   15.5465 C   0  0  0  0  0  0  0  0  0  0  0  0
   48.9323   13.6089   17.1086 C   0  0  0  0  0  0  0  0  0  0  0  0
   48.1941   11.1336   17.5017 C   0  0  0  0  0  0  0  0  0  0  0  0
   48.7846   10.5618   16.3502 C   0  0  0  0  0  0  0  0  0  0  0  0
   48.7288   14.4429   15.9850 C   0  0  0  0  0  0  0  0  0  0  0  0
   47.8316   12.6222   17.5052 C   0  0  0  0  0  0  0  0  0  0  0  0
   48.9252    8.4130   17.4396 C   0  0  0  0  0  0  0  0  0  0  0  0
   50.9306   15.3965   16.2528 C   0  0  0  0  0  0  0  0  0  0  0  0
   49.8118    8.5494   15.1590 C   0  0  0  0  0  0  0  0  0  0  0  0
   49.6003   16.2096   14.3610 C   0  0  0  0  0  0  0  0  0  0  0  0
   50.1502   13.7230   17.8518 C   0  0  0  0  0  0  0  0  0  0  0  0
   47.9008   10.2893   18.6255 C   0  0  0  0  0  0  0  0  0  0  0  0
   48.2930    8.9256   18.5773 C   0  0  0  0  0  0  0  0  0  0  0  0
   51.1497   14.6214   17.3974 C   0  0  0  0  0  0  0  0  0  0  0  0
   50.1461    7.3808   15.0948 O   0  0  0  0  0  0  0  0  0  0  0  0
   50.4370   16.9987   13.9619 O   0  0  0  0  0  0  0  0  0  0  0  0
   48.9519   11.3713   15.2554 O   0  0  0  0  0  0  0  0  0  0  0  0
   47.5122   14.3637   15.3514 O   0  0  0  0  0  0  0  0  0  0  0  0
   50.0200    9.3796   14.1158 O   0  0  0  0  0  0  0  0  0  0  0  0
   48.4260   16.0702   13.7115 O   0  0  0  0  0  0  0  0  0  0  0  0
   47.2359   10.7106   19.8062 C   0  0  0  0  0  0  0  0  0  0  0  0
   50.4355   13.0013   19.0355 C   0  0  0  0  0  0  0  0  0  0  0  0
   48.0481    8.0694   19.6644 C   0  0  0  0  0  0  0  0  0  0  0  0
   52.3648   14.7477   18.0920 C   0  0  0  0  0  0  0  0  0  0  0  0
   51.6468   13.1372   19.7195 C   0  0  0  0  0  0  0  0  0  0  0  0
   46.9944    9.8472   20.8797 C   0  0  0  0  0  0  0  0  0  0  0  0
   52.6143   14.0086   19.2447 C   0  0  0  0  0  0  0  0  0  0  0  0
   47.4052    8.5262   20.8106 C   0  0  0  0  0  0  0  0  0  0  0  0
   48.2382   10.9903   17.5645 H   0  0  0  0  0  0  0  0  0  0  0  0
   50.8330   10.9307   15.6731 H   0  0  0  0  0  0  0  0  0  0  0  0
   51.6749   12.1318   16.5900 H   0  0  0  0  0  0  0  0  0  0  0  0
   51.2686   12.2461   19.1952 H   0  0  0  0  0  0  0  0  0  0  0  0
   49.6325   11.8444   19.6256 H   0  0  0  0  0  0  0  0  0  0  0  0
   50.8321    8.2465   17.0089 H   0  0  0  0  0  0  0  0  0  0  0  0
   47.1198   10.0661   15.7624 H   0  0  0  0  0  0  0  0  0  0  0  0
   50.2857   13.4819   15.3711 H   0  0  0  0  0  0  0  0  0  0  0  0
   48.9656   12.3161   15.3038 H   0  0  0  0  0  0  0  0  0  0  0  0
   49.2473   14.0180   19.0758 H   0  0  0  0  0  0  0  0  0  0  0  0
   50.7006   14.1282   18.0721 H   0  0  0  0  0  0  0  0  0  0  0  0
   46.9807    8.4774   13.8831 H   0  0  0  0  0  0  0  0  0  0  0  0
   50.6776    6.6576   15.1286 H   0  0  0  0  0  0  0  0  0  0  0  0
   47.6387   14.9921   17.4447 H   0  0  0  0  0  0  0  0  0  0  0  0
   47.7628   14.5345   15.7588 H   0  0  0  0  0  0  0  0  0  0  0  0
   51.2712   18.4321   15.0812 H   0  0  0  0  0  0  0  0  0  0  0  0
   46.6118    9.8657   18.8816 H   0  0  0  0  0  0  0  0  0  0  0  0
   50.7934    8.9585   19.4465 H   0  0  0  0  0  0  0  0  0  0  0  0
   51.0476   19.5325   17.0196 H   0  0  0  0  0  0  0  0  0  0  0  0
   49.3495   19.0019   17.0967 H   0  0  0  0  0  0  0  0  0  0  0  0
   48.6837   16.6929   15.8914 H   0  0  0  0  0  0  0  0  0  0  0  0
   50.1202   15.6543   15.7568 H   0  0  0  0  0  0  0  0  0  0  0  0
   51.6427   16.9559   16.9674 H   0  0  0  0  0  0  0  0  0  0  0  0
   51.1265   17.6751   18.5017 H   0  0  0  0  0  0  0  0  0  0  0  0
   50.2365    7.7256   21.5107 H   0  0  0  0  0  0  0  0  0  0  0  0
   46.0760    8.6339   20.9502 H   0  0  0  0  0  0  0  0  0  0  0  0
   47.8807    7.5611   22.2707 H   0  0  0  0  0  0  0  0  0  0  0  0
   47.4930   12.9643   18.4862 H   0  0  0  0  0  0  0  0  0  0  0  0
   46.9461   12.7172   16.8656 H   0  0  0  0  0  0  0  0  0  0  0  0
   49.2232    7.3647   17.4145 H   0  0  0  0  0  0  0  0  0  0  0  0
   51.7057   16.0817   15.9103 H   0  0  0  0  0  0  0  0  0  0  0  0
   49.4091   10.8595   14.5575 H   0  0  0  0  0  0  0  0  0  0  0  0
   47.5443   14.9371   14.5580 H   0  0  0  0  0  0  0  0  0  0  0  0
   50.4503    8.7931   13.4531 H   0  0  0  0  0  0  0  0  0  0  0  0
   48.5110   16.7108   12.9692 H   0  0  0  0  0  0  0  0  0  0  0  0
   46.8777   11.7292   19.9208 H   0  0  0  0  0  0  0  0  0  0  0  0
   49.7084   12.3164   19.4590 H   0  0  0  0  0  0  0  0  0  0  0  0
   48.3547    7.0254   19.6244 H   0  0  0  0  0  0  0  0  0  0  0  0
   53.1331   15.4333   17.7392 H   0  0  0  0  0  0  0  0  0  0  0  0
   51.8256   12.5595   20.6226 H   0  0  0  0  0  0  0  0  0  0  0  0
   46.4819   10.2139   21.7657 H   0  0  0  0  0  0  0  0  0  0  0  0
   53.5585   14.1189   19.7706 H   0  0  0  0  0  0  0  0  0  0  0  0
   47.2206    7.8495   21.6405 H   0  0  0  0  0  0  0  0  0  0  0  0
  2  1  1  0
  3 10  1  0
  4  2  1  0
  5  1  1  0
  6  1  1  0
  7  2  1  0
  8  4  2  0
  9  4  1  0
 10  5  1  0
 11  6  1  0
 12 14  2  0
 13  9  2  0
 14  8  1  0
 15 12  1  0
 16  3  1  0
 17 21  1  0
 18 22  1  0
 19  7  2  0
 20  7  1  0
 21 23  1  0
 22 16  1  0
 23 18  1  0
 24 20  2  0
 25 19  1  0
 26 25  2  0
 11  3  1  0
 13 12  1  0
 24 26  1  0
 28 32  2  0
 29 33  1  0
 30 31  1  0
 31 27  2  0
 32 29  1  0
 33 30  1  0
 34 27  1  0
 35 28  1  0
 36 27  1  0
 37 28  1  0
 38 29  2  0
 39 40  1  0
 40 34  2  0
 41 38  1  0
 42 36  2  0
 43 37  2  0
 44 31  1  0
 45 32  1  0
 46 36  1  0
 47 37  1  0
 48 39  1  0
 49 38  1  0
 50 40  1  0
 51 41  1  0
 52 49  2  0
 53 48  2  0
 54 52  1  0
 55 50  2  0
 30 39  2  0
 53 55  1  0
 35 41  2  0
 51 54  2  0
  2 56  1  1
  5 57  1  0
  5 58  1  0
  6 59  1  0
  6 60  1  0
  8 61  1  0
  9 62  1  0
 10 63  1  0
 10 64  1  0
 11 65  1  0
 11 66  1  0
 13 67  1  0
 14 68  1  0
 16 69  1  0
 16 70  1  0
 17 71  1  0
 19 72  1  0
 20 73  1  0
 21 74  1  0
 21 75  1  0
 22 76  1  0
 22 77  1  0
 23 78  1  0
 23 79  1  0
 24 80  1  0
 25 81  1  0
 26 82  1  0
 33 83  1  0
 33 84  1  0
 34 85  1  0
 35 86  1  0
 44 87  1  0
 45 88  1  0
 46 89  1  0
 47 90  1  0
 48 91  1  0
 49 92  1  0
 50 93  1  0
 51 94  1  0
 52 95  1  0
 53 96  1  0
 54 97  1  0
 55 98  1  0
M  END
> <Uni-Dock RESULT> 
ENERGY=   -4.963  LOWER_BOUND=    3.351  UPPER_BOUND=    4.956
INTER + INTRA:          -4.963
INTER:                  -4.963
INTRA:                   0.000
UNBOUND:                 0.000

$$$$
