
     RDKit          3D

 98103  0  0  0  0  0  0  0  0999 V2000
   51.0463    4.8693   20.7515 N   0  0  0  0  0  0  0  0  0  0  0  0
   50.9125    6.1668   21.4514 C   0  0  1  0  0  0  0  0  0  0  0  0
   52.8044    4.3223   18.3595 N   0  0  0  0  0  0  0  0  0  0  0  0
   51.0751    7.4267   20.5925 C   0  0  0  0  0  0  0  0  0  0  0  0
   52.3634    4.2306   20.8619 C   0  0  0  0  0  0  0  0  0  0  0  0
   50.5098    4.7678   19.3880 C   0  0  0  0  0  0  0  0  0  0  0  0
   49.6700    6.2233   22.3612 C   0  0  0  0  0  0  0  0  0  0  0  0
   49.9849    8.0218   19.9282 C   0  0  0  0  0  0  0  0  0  0  0  0
   52.3382    8.0308   20.4639 C   0  0  0  0  0  0  0  0  0  0  0  0
   53.3473    4.5379   19.7112 C   0  0  0  0  0  0  0  0  0  0  0  0
   51.5209    5.0492   18.2458 C   0  0  0  0  0  0  0  0  0  0  0  0
   51.4186    9.7439   19.0332 C   0  0  0  0  0  0  0  0  0  0  0  0
   52.5104    9.1806   19.6879 C   0  0  0  0  0  0  0  0  0  0  0  0
   50.1557    9.1714   19.1520 C   0  0  0  0  0  0  0  0  0  0  0  0
   51.6326   11.1584   18.0776 Cl  0  0  0  0  0  0  0  0  0  0  0  0
   52.6351    2.8987   17.9992 C   0  0  0  0  0  0  0  0  0  0  0  0
   57.4836    0.1308   16.3539 O   0  0  0  0  0  0  0  0  0  0  0  0
   54.7793    2.5825   16.8824 O   0  0  0  0  0  0  0  0  0  0  0  0
   49.6104    7.1989   23.3768 C   0  0  0  0  0  0  0  0  0  0  0  0
   48.5824    5.3451   22.2262 C   0  0  0  0  0  0  0  0  0  0  0  0
   56.1469    0.6192   16.3241 C   0  0  0  0  0  0  0  0  0  0  0  0
   53.9362    2.0740   17.9150 C   0  0  0  0  0  0  0  0  0  0  0  0
   56.0939    2.0313   16.9019 C   0  0  0  0  0  0  0  0  0  0  0  0
   47.4753    5.4386   23.0728 C   0  0  0  0  0  0  0  0  0  0  0  0
   48.5017    7.2918   24.2201 C   0  0  0  0  0  0  0  0  0  0  0  0
   47.4343    6.4119   24.0685 C   0  0  0  0  0  0  0  0  0  0  0  0
   54.9497    3.1098   19.3400 C   0  0  0  0  0  0  0  0  0  0  0  0
   49.2325    7.5375   19.7953 C   0  0  0  0  0  0  0  0  0  0  0  0
   51.4973    6.5805   19.7643 C   0  0  0  0  0  0  0  0  0  0  0  0
   53.2018    4.7804   18.8896 C   0  0  0  0  0  0  0  0  0  0  0  0
   54.4972    4.4362   19.3492 C   0  0  0  0  0  0  0  0  0  0  0  0
   50.4190    7.2293   19.1141 C   0  0  0  0  0  0  0  0  0  0  0  0
   52.7593    6.2482   18.9578 C   0  0  0  0  0  0  0  0  0  0  0  0
   54.1101    2.1097   18.8461 C   0  0  0  0  0  0  0  0  0  0  0  0
   49.1232    7.2161   21.1504 C   0  0  0  0  0  0  0  0  0  0  0  0
   56.2817    2.6738   19.8309 C   0  0  0  0  0  0  0  0  0  0  0  0
   48.0583    8.2012   19.1748 C   0  0  0  0  0  0  0  0  0  0  0  0
   51.3940    6.3125   21.1674 C   0  0  0  0  0  0  0  0  0  0  0  0
   52.3768    3.7544   18.3274 C   0  0  0  0  0  0  0  0  0  0  0  0
   52.8436    2.4130   18.3353 C   0  0  0  0  0  0  0  0  0  0  0  0
   50.1839    6.6217   21.8430 C   0  0  0  0  0  0  0  0  0  0  0  0
   56.7055    1.5328   19.8502 O   0  0  0  0  0  0  0  0  0  0  0  0
   47.0055    8.4653   19.7272 O   0  0  0  0  0  0  0  0  0  0  0  0
   55.2931    5.4583   19.8088 O   0  0  0  0  0  0  0  0  0  0  0  0
   50.5821    7.5433   17.7850 O   0  0  0  0  0  0  0  0  0  0  0  0
   57.0445    3.6939   20.2773 O   0  0  0  0  0  0  0  0  0  0  0  0
   48.2462    8.5126   17.8739 O   0  0  0  0  0  0  0  0  0  0  0  0
   51.1142    3.9778   17.7320 C   0  0  0  0  0  0  0  0  0  0  0  0
   52.4355    5.7745   21.9586 C   0  0  0  0  0  0  0  0  0  0  0  0
   52.0514    1.3758   17.8144 C   0  0  0  0  0  0  0  0  0  0  0  0
   50.0407    6.3506   23.2153 C   0  0  0  0  0  0  0  0  0  0  0  0
   52.2875    5.5172   23.3248 C   0  0  0  0  0  0  0  0  0  0  0  0
   50.3377    2.9379   17.2104 C   0  0  0  0  0  0  0  0  0  0  0  0
   51.0838    5.7966   23.9520 C   0  0  0  0  0  0  0  0  0  0  0  0
   50.8039    1.6340   17.2564 C   0  0  0  0  0  0  0  0  0  0  0  0
   51.7272    6.2103   22.1899 H   0  0  0  0  0  0  0  0  0  0  0  0
   52.8429    4.4544   21.8240 H   0  0  0  0  0  0  0  0  0  0  0  0
   52.1956    3.1450   20.8861 H   0  0  0  0  0  0  0  0  0  0  0  0
   49.6126    5.3816   19.2539 H   0  0  0  0  0  0  0  0  0  0  0  0
   50.1455    3.7389   19.2674 H   0  0  0  0  0  0  0  0  0  0  0  0
   48.9853    7.5965   20.0124 H   0  0  0  0  0  0  0  0  0  0  0  0
   53.2017    7.6050   20.9703 H   0  0  0  0  0  0  0  0  0  0  0  0
   54.2700    3.9673   19.8595 H   0  0  0  0  0  0  0  0  0  0  0  0
   53.6625    5.5847   19.7839 H   0  0  0  0  0  0  0  0  0  0  0  0
   51.7465    6.1205   18.2101 H   0  0  0  0  0  0  0  0  0  0  0  0
   51.0451    4.8266   17.2817 H   0  0  0  0  0  0  0  0  0  0  0  0
   53.4987    9.6253   19.5965 H   0  0  0  0  0  0  0  0  0  0  0  0
   49.3029    9.6160   18.6472 H   0  0  0  0  0  0  0  0  0  0  0  0
   52.1735    2.8598   17.0024 H   0  0  0  0  0  0  0  0  0  0  0  0
   51.9510    2.3914   18.6897 H   0  0  0  0  0  0  0  0  0  0  0  0
   57.4622   -0.7720   15.9881 H   0  0  0  0  0  0  0  0  0  0  0  0
   50.4362    7.8950   23.5115 H   0  0  0  0  0  0  0  0  0  0  0  0
   48.5855    4.5697   21.4648 H   0  0  0  0  0  0  0  0  0  0  0  0
   55.7836    0.6168   15.2912 H   0  0  0  0  0  0  0  0  0  0  0  0
   55.5187   -0.0671   16.8993 H   0  0  0  0  0  0  0  0  0  0  0  0
   53.6705    1.0404   17.6657 H   0  0  0  0  0  0  0  0  0  0  0  0
   54.4610    2.0645   18.8751 H   0  0  0  0  0  0  0  0  0  0  0  0
   56.5129    2.0637   17.9138 H   0  0  0  0  0  0  0  0  0  0  0  0
   56.7313    2.6858   16.2961 H   0  0  0  0  0  0  0  0  0  0  0  0
   46.6446    4.7481   22.9552 H   0  0  0  0  0  0  0  0  0  0  0  0
   48.4738    8.0532   24.9956 H   0  0  0  0  0  0  0  0  0  0  0  0
   46.5721    6.4823   24.7273 H   0  0  0  0  0  0  0  0  0  0  0  0
   53.5479    6.8905   19.3705 H   0  0  0  0  0  0  0  0  0  0  0  0
   52.6761    6.5844   17.9158 H   0  0  0  0  0  0  0  0  0  0  0  0
   54.4597    1.0780   18.8404 H   0  0  0  0  0  0  0  0  0  0  0  0
   48.2021    7.4561   21.6805 H   0  0  0  0  0  0  0  0  0  0  0  0
   56.1572    5.0805   20.0764 H   0  0  0  0  0  0  0  0  0  0  0  0
   49.7725    8.0035   17.4782 H   0  0  0  0  0  0  0  0  0  0  0  0
   57.8726    3.2395   20.5560 H   0  0  0  0  0  0  0  0  0  0  0  0
   47.3922    8.9373   17.6278 H   0  0  0  0  0  0  0  0  0  0  0  0
   50.7139    4.9808   17.6396 H   0  0  0  0  0  0  0  0  0  0  0  0
   53.4051    5.5614   21.5248 H   0  0  0  0  0  0  0  0  0  0  0  0
   52.4079    0.3480   17.8305 H   0  0  0  0  0  0  0  0  0  0  0  0
   49.1081    6.5764   23.7293 H   0  0  0  0  0  0  0  0  0  0  0  0
   53.1170    5.0977   23.8890 H   0  0  0  0  0  0  0  0  0  0  0  0
   49.3728    3.1590   16.7615 H   0  0  0  0  0  0  0  0  0  0  0  0
   50.9593    5.5991   25.0122 H   0  0  0  0  0  0  0  0  0  0  0  0
   50.2076    0.8211   16.8516 H   0  0  0  0  0  0  0  0  0  0  0  0
  2  1  1  0
  3 10  1  0
  4  2  1  0
  5  1  1  0
  6  1  1  0
  7  2  1  0
  8  4  2  0
  9  4  1  0
 10  5  1  0
 11  6  1  0
 12 14  2  0
 13  9  2  0
 14  8  1  0
 15 12  1  0
 16  3  1  0
 17 21  1  0
 18 22  1  0
 19  7  2  0
 20  7  1  0
 21 23  1  0
 22 16  1  0
 23 18  1  0
 24 20  2  0
 25 19  1  0
 26 25  2  0
 11  3  1  0
 13 12  1  0
 24 26  1  0
 28 32  2  0
 29 33  1  0
 30 31  1  0
 31 27  2  0
 32 29  1  0
 33 30  1  0
 34 27  1  0
 35 28  1  0
 36 27  1  0
 37 28  1  0
 38 29  2  0
 39 40  1  0
 40 34  2  0
 41 38  1  0
 42 36  2  0
 43 37  2  0
 44 31  1  0
 45 32  1  0
 46 36  1  0
 47 37  1  0
 48 39  1  0
 49 38  1  0
 50 40  1  0
 51 41  1  0
 52 49  2  0
 53 48  2  0
 54 52  1  0
 55 50  2  0
 30 39  2  0
 53 55  1  0
 35 41  2  0
 51 54  2  0
  2 56  1  1
  5 57  1  0
  5 58  1  0
  6 59  1  0
  6 60  1  0
  8 61  1  0
  9 62  1  0
 10 63  1  0
 10 64  1  0
 11 65  1  0
 11 66  1  0
 13 67  1  0
 14 68  1  0
 16 69  1  0
 16 70  1  0
 17 71  1  0
 19 72  1  0
 20 73  1  0
 21 74  1  0
 21 75  1  0
 22 76  1  0
 22 77  1  0
 23 78  1  0
 23 79  1  0
 24 80  1  0
 25 81  1  0
 26 82  1  0
 33 83  1  0
 33 84  1  0
 34 85  1  0
 35 86  1  0
 44 87  1  0
 45 88  1  0
 46 89  1  0
 47 90  1  0
 48 91  1  0
 49 92  1  0
 50 93  1  0
 51 94  1  0
 52 95  1  0
 53 96  1  0
 54 97  1  0
 55 98  1  0
M  END
> <Uni-Dock RESULT> 
ENERGY=   -5.424  LOWER_BOUND=    0.000  UPPER_BOUND=    0.000
INTER + INTRA:          -5.424
INTER:                  -5.424
INTRA:                   0.000
UNBOUND:                 0.000

$$$$

     RDKit          3D

 98103  0  0  0  0  0  0  0  0999 V2000
   49.0199    9.4384   16.6434 N   0  0  0  0  0  0  0  0  0  0  0  0
   49.7214    8.4657   15.7755 C   0  0  1  0  0  0  0  0  0  0  0  0
   49.6135    9.9599   19.5567 N   0  0  0  0  0  0  0  0  0  0  0  0
   50.2576    7.2022   16.4592 C   0  0  0  0  0  0  0  0  0  0  0  0
   49.8332   10.5725   17.0987 C   0  0  0  0  0  0  0  0  0  0  0  0
   48.1780    8.9094   17.7245 C   0  0  0  0  0  0  0  0  0  0  0  0
   48.9426    8.1573   14.4820 C   0  0  0  0  0  0  0  0  0  0  0  0
   49.4721    6.0419   16.6028 C   0  0  0  0  0  0  0  0  0  0  0  0
   51.5748    7.1747   16.9501 C   0  0  0  0  0  0  0  0  0  0  0  0
   50.5137   10.3900   18.4735 C   0  0  0  0  0  0  0  0  0  0  0  0
   48.8707    8.7631   19.1046 C   0  0  0  0  0  0  0  0  0  0  0  0
   51.2862    4.9029   17.7138 C   0  0  0  0  0  0  0  0  0  0  0  0
   52.0861    6.0337   17.5754 C   0  0  0  0  0  0  0  0  0  0  0  0
   49.9821    4.9006   17.2277 C   0  0  0  0  0  0  0  0  0  0  0  0
   51.9167    3.5000   18.4846 Cl  0  0  0  0  0  0  0  0  0  0  0  0
   48.6833   11.0116   20.0189 C   0  0  0  0  0  0  0  0  0  0  0  0
   50.9545   14.9561   23.6465 O   0  0  0  0  0  0  0  0  0  0  0  0
   50.0345   11.8624   21.8615 O   0  0  0  0  0  0  0  0  0  0  0  0
   49.6279    7.5836   13.3921 C   0  0  0  0  0  0  0  0  0  0  0  0
   47.5707    8.4190   14.3342 C   0  0  0  0  0  0  0  0  0  0  0  0
   50.0715   13.9664   23.1297 C   0  0  0  0  0  0  0  0  0  0  0  0
   49.3429   12.2432   20.6732 C   0  0  0  0  0  0  0  0  0  0  0  0
   50.8656   12.8939   22.3883 C   0  0  0  0  0  0  0  0  0  0  0  0
   46.9071    8.1173   13.1427 C   0  0  0  0  0  0  0  0  0  0  0  0
   48.9618    7.2809   12.2031 C   0  0  0  0  0  0  0  0  0  0  0  0
   47.6017    7.5476   12.0780 C   0  0  0  0  0  0  0  0  0  0  0  0
   51.0563   12.1852   19.5815 C   0  0  0  0  0  0  0  0  0  0  0  0
   48.5736    6.1054   16.5205 C   0  0  0  0  0  0  0  0  0  0  0  0
   49.9856    7.8703   17.4887 C   0  0  0  0  0  0  0  0  0  0  0  0
   50.3036    9.8843   19.1481 C   0  0  0  0  0  0  0  0  0  0  0  0
   51.3315   10.8558   19.2338 C   0  0  0  0  0  0  0  0  0  0  0  0
   49.2399    6.6727   17.6164 C   0  0  0  0  0  0  0  0  0  0  0  0
   50.6715    8.4541   18.7306 C   0  0  0  0  0  0  0  0  0  0  0  0
   49.7408   12.5528   19.8704 C   0  0  0  0  0  0  0  0  0  0  0  0
   48.6673    6.7254   15.2722 C   0  0  0  0  0  0  0  0  0  0  0  0
   52.0775   13.2602   19.6636 C   0  0  0  0  0  0  0  0  0  0  0  0
   47.7627    4.8633   16.5844 C   0  0  0  0  0  0  0  0  0  0  0  0
   50.1226    8.4607   16.1911 C   0  0  0  0  0  0  0  0  0  0  0  0
   48.9703   10.2606   19.5089 C   0  0  0  0  0  0  0  0  0  0  0  0
   48.7040   11.6138   19.8480 C   0  0  0  0  0  0  0  0  0  0  0  0
   49.4356    7.8809   15.0919 C   0  0  0  0  0  0  0  0  0  0  0  0
   51.8765   14.4261   19.9500 O   0  0  0  0  0  0  0  0  0  0  0  0
   47.1537    4.3530   15.6614 O   0  0  0  0  0  0  0  0  0  0  0  0
   52.6127   10.4411   18.9579 O   0  0  0  0  0  0  0  0  0  0  0  0
   49.1940    6.0891   18.8610 O   0  0  0  0  0  0  0  0  0  0  0  0
   53.3268   12.8295   19.3884 O   0  0  0  0  0  0  0  0  0  0  0  0
   47.7433    4.3003   17.8122 O   0  0  0  0  0  0  0  0  0  0  0  0
   47.8763    9.3679   19.5767 C   0  0  0  0  0  0  0  0  0  0  0  0
   50.9275    9.5878   15.9052 C   0  0  0  0  0  0  0  0  0  0  0  0
   47.4031   12.0255   20.1838 C   0  0  0  0  0  0  0  0  0  0  0  0
   49.5301    8.4483   13.8087 C   0  0  0  0  0  0  0  0  0  0  0  0
   51.0232   10.1396   14.6242 C   0  0  0  0  0  0  0  0  0  0  0  0
   46.5869    9.7881   19.9191 C   0  0  0  0  0  0  0  0  0  0  0  0
   50.3146    9.5743   13.5759 C   0  0  0  0  0  0  0  0  0  0  0  0
   46.3481   11.1198   20.2177 C   0  0  0  0  0  0  0  0  0  0  0  0
   50.6088    8.9819   15.3794 H   0  0  0  0  0  0  0  0  0  0  0  0
   50.5860   10.8570   16.3518 H   0  0  0  0  0  0  0  0  0  0  0  0
   49.1671   11.4440   17.1611 H   0  0  0  0  0  0  0  0  0  0  0  0
   47.6967    7.9661   17.4449 H   0  0  0  0  0  0  0  0  0  0  0  0
   47.3392    9.6083   17.8427 H   0  0  0  0  0  0  0  0  0  0  0  0
   48.4511    6.0132   16.2235 H   0  0  0  0  0  0  0  0  0  0  0  0
   52.2143    8.0488   16.8486 H   0  0  0  0  0  0  0  0  0  0  0  0
   51.0411   11.3108   18.7435 H   0  0  0  0  0  0  0  0  0  0  0  0
   51.3083    9.6414   18.3796 H   0  0  0  0  0  0  0  0  0  0  0  0
   49.5751    7.9248   19.0755 H   0  0  0  0  0  0  0  0  0  0  0  0
   48.1210    8.4786   19.8546 H   0  0  0  0  0  0  0  0  0  0  0  0
   53.1054    6.0389   17.9547 H   0  0  0  0  0  0  0  0  0  0  0  0
   49.3612    4.0151   17.3291 H   0  0  0  0  0  0  0  0  0  0  0  0
   48.0272   10.5654   20.7796 H   0  0  0  0  0  0  0  0  0  0  0  0
   48.0384   11.3600   19.2035 H   0  0  0  0  0  0  0  0  0  0  0  0
   50.4015   15.6197   24.0973 H   0  0  0  0  0  0  0  0  0  0  0  0
   50.6920    7.3691   13.4706 H   0  0  0  0  0  0  0  0  0  0  0  0
   47.0007    8.8695   15.1423 H   0  0  0  0  0  0  0  0  0  0  0  0
   49.5062   13.5197   23.9541 H   0  0  0  0  0  0  0  0  0  0  0  0
   49.3564   14.4593   22.4647 H   0  0  0  0  0  0  0  0  0  0  0  0
   48.5515   12.9505   20.9462 H   0  0  0  0  0  0  0  0  0  0  0  0
   50.0187   12.7472   19.9755 H   0  0  0  0  0  0  0  0  0  0  0  0
   51.4868   13.3322   21.5992 H   0  0  0  0  0  0  0  0  0  0  0  0
   51.5651   12.4235   23.0891 H   0  0  0  0  0  0  0  0  0  0  0  0
   45.8459    8.3298   13.0457 H   0  0  0  0  0  0  0  0  0  0  0  0
   49.5078    6.8360   11.3749 H   0  0  0  0  0  0  0  0  0  0  0  0
   47.0836    7.3146   11.1509 H   0  0  0  0  0  0  0  0  0  0  0  0
   51.7485    8.3501   18.5462 H   0  0  0  0  0  0  0  0  0  0  0  0
   50.5035    7.8306   19.6186 H   0  0  0  0  0  0  0  0  0  0  0  0
   49.5251   13.5863   20.1388 H   0  0  0  0  0  0  0  0  0  0  0  0
   48.1506    6.2847   14.4203 H   0  0  0  0  0  0  0  0  0  0  0  0
   53.2158   11.2057   19.0709 H   0  0  0  0  0  0  0  0  0  0  0  0
   48.6668    5.2652   18.7928 H   0  0  0  0  0  0  0  0  0  0  0  0
   53.8652   13.6481   19.4883 H   0  0  0  0  0  0  0  0  0  0  0  0
   47.1770    3.5059   17.6768 H   0  0  0  0  0  0  0  0  0  0  0  0
   48.0107    8.3096   19.3846 H   0  0  0  0  0  0  0  0  0  0  0  0
   51.5222   10.0533   16.6820 H   0  0  0  0  0  0  0  0  0  0  0  0
   47.2005   13.0648   20.4338 H   0  0  0  0  0  0  0  0  0  0  0  0
   48.9928    8.0104   12.9694 H   0  0  0  0  0  0  0  0  0  0  0  0
   51.6520   11.0107   14.4562 H   0  0  0  0  0  0  0  0  0  0  0  0
   45.7770    9.0643   19.9585 H   0  0  0  0  0  0  0  0  0  0  0  0
   50.3819    9.9965   12.5780 H   0  0  0  0  0  0  0  0  0  0  0  0
   45.3499   11.4538   20.4865 H   0  0  0  0  0  0  0  0  0  0  0  0
  2  1  1  0
  3 10  1  0
  4  2  1  0
  5  1  1  0
  6  1  1  0
  7  2  1  0
  8  4  2  0
  9  4  1  0
 10  5  1  0
 11  6  1  0
 12 14  2  0
 13  9  2  0
 14  8  1  0
 15 12  1  0
 16  3  1  0
 17 21  1  0
 18 22  1  0
 19  7  2  0
 20  7  1  0
 21 23  1  0
 22 16  1  0
 23 18  1  0
 24 20  2  0
 25 19  1  0
 26 25  2  0
 11  3  1  0
 13 12  1  0
 24 26  1  0
 28 32  2  0
 29 33  1  0
 30 31  1  0
 31 27  2  0
 32 29  1  0
 33 30  1  0
 34 27  1  0
 35 28  1  0
 36 27  1  0
 37 28  1  0
 38 29  2  0
 39 40  1  0
 40 34  2  0
 41 38  1  0
 42 36  2  0
 43 37  2  0
 44 31  1  0
 45 32  1  0
 46 36  1  0
 47 37  1  0
 48 39  1  0
 49 38  1  0
 50 40  1  0
 51 41  1  0
 52 49  2  0
 53 48  2  0
 54 52  1  0
 55 50  2  0
 30 39  2  0
 53 55  1  0
 35 41  2  0
 51 54  2  0
  2 56  1  1
  5 57  1  0
  5 58  1  0
  6 59  1  0
  6 60  1  0
  8 61  1  0
  9 62  1  0
 10 63  1  0
 10 64  1  0
 11 65  1  0
 11 66  1  0
 13 67  1  0
 14 68  1  0
 16 69  1  0
 16 70  1  0
 17 71  1  0
 19 72  1  0
 20 73  1  0
 21 74  1  0
 21 75  1  0
 22 76  1  0
 22 77  1  0
 23 78  1  0
 23 79  1  0
 24 80  1  0
 25 81  1  0
 26 82  1  0
 33 83  1  0
 33 84  1  0
 34 85  1  0
 35 86  1  0
 44 87  1  0
 45 88  1  0
 46 89  1  0
 47 90  1  0
 48 91  1  0
 49 92  1  0
 50 93  1  0
 51 94  1  0
 52 95  1  0
 53 96  1  0
 54 97  1  0
 55 98  1  0
M  END
> <Uni-Dock RESULT> 
ENERGY=   -5.285  LOWER_BOUND=    4.408  UPPER_BOUND=    8.598
INTER + INTRA:          -5.285
INTER:                  -5.285
INTRA:                   0.000
UNBOUND:                 0.000

$$$$

     RDKit          3D

 98103  0  0  0  0  0  0  0  0999 V2000
   50.2544    9.7013   13.8374 N   0  0  0  0  0  0  0  0  0  0  0  0
   48.9416    9.7016   14.5212 C   0  0  1  0  0  0  0  0  0  0  0  0
   50.7047   10.0395   10.8718 N   0  0  0  0  0  0  0  0  0  0  0  0
   47.7542    9.1521   13.7215 C   0  0  0  0  0  0  0  0  0  0  0  0
   50.6467   10.9804   13.2332 C   0  0  0  0  0  0  0  0  0  0  0  0
   50.5672    8.5693   12.9552 C   0  0  0  0  0  0  0  0  0  0  0  0
   49.0169    9.1231   15.9476 C   0  0  0  0  0  0  0  0  0  0  0  0
   47.4155    7.7850   13.7344 C   0  0  0  0  0  0  0  0  0  0  0  0
   46.9574   10.0242   12.9590 C   0  0  0  0  0  0  0  0  0  0  0  0
   50.2799   11.1489   11.7420 C   0  0  0  0  0  0  0  0  0  0  0  0
   50.2205    8.7699   11.4568 C   0  0  0  0  0  0  0  0  0  0  0  0
   45.5608    8.1893   12.2447 C   0  0  0  0  0  0  0  0  0  0  0  0
   45.8689    9.5466   12.2233 C   0  0  0  0  0  0  0  0  0  0  0  0
   46.3274    7.3063   12.9994 C   0  0  0  0  0  0  0  0  0  0  0  0
   44.2215    7.6031   11.3379 Cl  0  0  0  0  0  0  0  0  0  0  0  0
   52.1626    9.9857   10.6342 C   0  0  0  0  0  0  0  0  0  0  0  0
   54.1984   13.7155    6.6566 O   0  0  0  0  0  0  0  0  0  0  0  0
   52.2067   11.2600    8.5559 O   0  0  0  0  0  0  0  0  0  0  0  0
   47.9792    9.4100   16.8572 C   0  0  0  0  0  0  0  0  0  0  0  0
   50.0764    8.3142   16.3900 C   0  0  0  0  0  0  0  0  0  0  0  0
   53.9498   12.4905    7.3377 C   0  0  0  0  0  0  0  0  0  0  0  0
   52.7574   11.1866    9.8701 C   0  0  0  0  0  0  0  0  0  0  0  0
   52.5217   12.4732    7.8768 C   0  0  0  0  0  0  0  0  0  0  0  0
   50.0980    7.8089   17.6921 C   0  0  0  0  0  0  0  0  0  0  0  0
   48.0019    8.9019   18.1573 C   0  0  0  0  0  0  0  0  0  0  0  0
   49.0610    8.1016   18.5751 C   0  0  0  0  0  0  0  0  0  0  0  0
   51.4410   12.5691   10.5675 C   0  0  0  0  0  0  0  0  0  0  0  0
   48.0309    7.1814   14.0086 C   0  0  0  0  0  0  0  0  0  0  0  0
   48.5863    9.2398   12.7835 C   0  0  0  0  0  0  0  0  0  0  0  0
   50.1401   10.5569   11.1216 C   0  0  0  0  0  0  0  0  0  0  0  0
   50.2158   11.9415   10.8303 C   0  0  0  0  0  0  0  0  0  0  0  0
   48.1916    7.8795   12.8029 C   0  0  0  0  0  0  0  0  0  0  0  0
   48.7691    9.9408   11.4312 C   0  0  0  0  0  0  0  0  0  0  0  0
   52.6097   11.8055   10.5728 C   0  0  0  0  0  0  0  0  0  0  0  0
   48.2440    7.8512   15.2158 C   0  0  0  0  0  0  0  0  0  0  0  0
   51.5979   14.0181   10.2825 C   0  0  0  0  0  0  0  0  0  0  0  0
   47.6353    5.7535   14.1036 C   0  0  0  0  0  0  0  0  0  0  0  0
   48.7419    9.9290   14.0292 C   0  0  0  0  0  0  0  0  0  0  0  0
   51.3378    9.7751   11.0605 C   0  0  0  0  0  0  0  0  0  0  0  0
   52.5737   10.4264   10.8047 C   0  0  0  0  0  0  0  0  0  0  0  0
   48.5846    9.2081   15.2425 C   0  0  0  0  0  0  0  0  0  0  0  0
   52.6435   14.6010   10.0616 O   0  0  0  0  0  0  0  0  0  0  0  0
   47.5064    5.1091   15.1289 O   0  0  0  0  0  0  0  0  0  0  0  0
   49.0360   12.6467   10.8190 O   0  0  0  0  0  0  0  0  0  0  0  0
   47.9743    7.2695   11.5895 O   0  0  0  0  0  0  0  0  0  0  0  0
   50.4269   14.6893   10.2773 O   0  0  0  0  0  0  0  0  0  0  0  0
   47.4137    5.1792   12.9012 O   0  0  0  0  0  0  0  0  0  0  0  0
   51.3871    8.3710   11.2173 C   0  0  0  0  0  0  0  0  0  0  0  0
   49.0215   11.3100   14.1507 C   0  0  0  0  0  0  0  0  0  0  0  0
   53.7731    9.6955   10.7616 C   0  0  0  0  0  0  0  0  0  0  0  0
   48.7526    9.8489   16.4829 C   0  0  0  0  0  0  0  0  0  0  0  0
   49.1774   11.9409   15.3886 C   0  0  0  0  0  0  0  0  0  0  0  0
   52.5865    7.6533   11.1654 C   0  0  0  0  0  0  0  0  0  0  0  0
   49.0526   11.2061   16.5568 C   0  0  0  0  0  0  0  0  0  0  0  0
   53.7824    8.3166   10.9429 C   0  0  0  0  0  0  0  0  0  0  0  0
   48.6941   10.7544   14.7244 H   0  0  0  0  0  0  0  0  0  0  0  0
   50.2594   11.8341   13.8048 H   0  0  0  0  0  0  0  0  0  0  0  0
   51.7384   11.0612   13.3270 H   0  0  0  0  0  0  0  0  0  0  0  0
   50.1299    7.6333   13.3190 H   0  0  0  0  0  0  0  0  0  0  0  0
   51.6498    8.4006   13.0293 H   0  0  0  0  0  0  0  0  0  0  0  0
   47.9958    7.0757   14.3237 H   0  0  0  0  0  0  0  0  0  0  0  0
   47.1827   11.0881   12.9325 H   0  0  0  0  0  0  0  0  0  0  0  0
   50.6692   12.1052   11.3775 H   0  0  0  0  0  0  0  0  0  0  0  0
   49.1924   11.2485   11.6531 H   0  0  0  0  0  0  0  0  0  0  0  0
   49.1339    8.7341   11.3228 H   0  0  0  0  0  0  0  0  0  0  0  0
   50.6061    7.9179   10.8815 H   0  0  0  0  0  0  0  0  0  0  0  0
   45.2720   10.2391   11.6341 H   0  0  0  0  0  0  0  0  0  0  0  0
   46.0816    6.2485   13.0218 H   0  0  0  0  0  0  0  0  0  0  0  0
   52.3685    9.0934   10.0262 H   0  0  0  0  0  0  0  0  0  0  0  0
   52.7156    9.8683   11.5736 H   0  0  0  0  0  0  0  0  0  0  0  0
   55.1206   13.6822    6.3440 H   0  0  0  0  0  0  0  0  0  0  0  0
   47.1432   10.0352   16.5491 H   0  0  0  0  0  0  0  0  0  0  0  0
   50.9046    8.0727   15.7293 H   0  0  0  0  0  0  0  0  0  0  0  0
   54.1063   11.6547    6.6480 H   0  0  0  0  0  0  0  0  0  0  0  0
   54.6792   12.3948    8.1473 H   0  0  0  0  0  0  0  0  0  0  0  0
   53.8393   11.0347    9.7828 H   0  0  0  0  0  0  0  0  0  0  0  0
   52.5916   12.1221   10.4131 H   0  0  0  0  0  0  0  0  0  0  0  0
   52.3281   13.3390    8.5200 H   0  0  0  0  0  0  0  0  0  0  0  0
   51.8247   12.5670    7.0360 H   0  0  0  0  0  0  0  0  0  0  0  0
   50.9277    7.1873   18.0174 H   0  0  0  0  0  0  0  0  0  0  0  0
   47.1903    9.1325   18.8429 H   0  0  0  0  0  0  0  0  0  0  0  0
   49.0802    7.7083   19.5886 H   0  0  0  0  0  0  0  0  0  0  0  0
   47.9675   10.6888   11.3786 H   0  0  0  0  0  0  0  0  0  0  0  0
   48.5464    9.2691   10.5917 H   0  0  0  0  0  0  0  0  0  0  0  0
   53.5630   12.2925   10.3708 H   0  0  0  0  0  0  0  0  0  0  0  0
   48.1184    7.3097   16.1529 H   0  0  0  0  0  0  0  0  0  0  0  0
   49.2355   13.5788   10.5894 H   0  0  0  0  0  0  0  0  0  0  0  0
   47.6882    6.3469   11.7582 H   0  0  0  0  0  0  0  0  0  0  0  0
   50.7066   15.6117   10.0751 H   0  0  0  0  0  0  0  0  0  0  0  0
   47.1646    4.2578   13.1444 H   0  0  0  0  0  0  0  0  0  0  0  0
   50.4794    7.7965   11.3618 H   0  0  0  0  0  0  0  0  0  0  0  0
   49.1039   11.9365   13.2706 H   0  0  0  0  0  0  0  0  0  0  0  0
   54.7195   10.1988   10.5748 H   0  0  0  0  0  0  0  0  0  0  0  0
   48.6443    9.2922   17.4120 H   0  0  0  0  0  0  0  0  0  0  0  0
   49.3972   13.0051   15.4292 H   0  0  0  0  0  0  0  0  0  0  0  0
   52.5741    6.5737   11.2911 H   0  0  0  0  0  0  0  0  0  0  0  0
   49.1730   11.6872   17.5226 H   0  0  0  0  0  0  0  0  0  0  0  0
   54.7179    7.7661   10.8992 H   0  0  0  0  0  0  0  0  0  0  0  0
  2  1  1  0
  3 10  1  0
  4  2  1  0
  5  1  1  0
  6  1  1  0
  7  2  1  0
  8  4  2  0
  9  4  1  0
 10  5  1  0
 11  6  1  0
 12 14  2  0
 13  9  2  0
 14  8  1  0
 15 12  1  0
 16  3  1  0
 17 21  1  0
 18 22  1  0
 19  7  2  0
 20  7  1  0
 21 23  1  0
 22 16  1  0
 23 18  1  0
 24 20  2  0
 25 19  1  0
 26 25  2  0
 11  3  1  0
 13 12  1  0
 24 26  1  0
 28 32  2  0
 29 33  1  0
 30 31  1  0
 31 27  2  0
 32 29  1  0
 33 30  1  0
 34 27  1  0
 35 28  1  0
 36 27  1  0
 37 28  1  0
 38 29  2  0
 39 40  1  0
 40 34  2  0
 41 38  1  0
 42 36  2  0
 43 37  2  0
 44 31  1  0
 45 32  1  0
 46 36  1  0
 47 37  1  0
 48 39  1  0
 49 38  1  0
 50 40  1  0
 51 41  1  0
 52 49  2  0
 53 48  2  0
 54 52  1  0
 55 50  2  0
 30 39  2  0
 53 55  1  0
 35 41  2  0
 51 54  2  0
  2 56  1  1
  5 57  1  0
  5 58  1  0
  6 59  1  0
  6 60  1  0
  8 61  1  0
  9 62  1  0
 10 63  1  0
 10 64  1  0
 11 65  1  0
 11 66  1  0
 13 67  1  0
 14 68  1  0
 16 69  1  0
 16 70  1  0
 17 71  1  0
 19 72  1  0
 20 73  1  0
 21 74  1  0
 21 75  1  0
 22 76  1  0
 22 77  1  0
 23 78  1  0
 23 79  1  0
 24 80  1  0
 25 81  1  0
 26 82  1  0
 33 83  1  0
 33 84  1  0
 34 85  1  0
 35 86  1  0
 44 87  1  0
 45 88  1  0
 46 89  1  0
 47 90  1  0
 48 91  1  0
 49 92  1  0
 50 93  1  0
 51 94  1  0
 52 95  1  0
 53 96  1  0
 54 97  1  0
 55 98  1  0
M  END
> <Uni-Dock RESULT> 
ENERGY=   -5.275  LOWER_BOUND=    7.362  UPPER_BOUND=   10.011
INTER + INTRA:          -5.275
INTER:                  -5.275
INTRA:                   0.000
UNBOUND:                 0.000

$$$$

     RDKit          3D

 98103  0  0  0  0  0  0  0  0999 V2000
   49.4708    7.4080   18.7805 N   0  0  0  0  0  0  0  0  0  0  0  0
   49.3185    6.0893   19.4355 C   0  0  1  0  0  0  0  0  0  0  0  0
   50.4108    7.8801   15.9511 N   0  0  0  0  0  0  0  0  0  0  0  0
   50.2899    4.9892   18.9911 C   0  0  0  0  0  0  0  0  0  0  0  0
   48.5479    7.6656   17.6682 C   0  0  0  0  0  0  0  0  0  0  0  0
   50.8314    7.8658   18.4699 C   0  0  0  0  0  0  0  0  0  0  0  0
   49.2053    6.1993   20.9685 C   0  0  0  0  0  0  0  0  0  0  0  0
   51.5430    4.8074   19.6080 C   0  0  0  0  0  0  0  0  0  0  0  0
   49.9319    4.1151   17.9496 C   0  0  0  0  0  0  0  0  0  0  0  0
   49.0880    7.3140   16.2643 C   0  0  0  0  0  0  0  0  0  0  0  0
   51.3438    7.5306   17.0448 C   0  0  0  0  0  0  0  0  0  0  0  0
   52.0374    2.9510   18.1479 C   0  0  0  0  0  0  0  0  0  0  0  0
   50.8001    3.1037   17.5285 C   0  0  0  0  0  0  0  0  0  0  0  0
   52.4119    3.7965   19.1879 C   0  0  0  0  0  0  0  0  0  0  0  0
   53.1051    1.7064   17.6276 Cl  0  0  0  0  0  0  0  0  0  0  0  0
   50.4003    9.3395   15.7165 C   0  0  0  0  0  0  0  0  0  0  0  0
   48.5756   11.0238   10.4524 O   0  0  0  0  0  0  0  0  0  0  0  0
   50.1627    9.2832   13.2905 O   0  0  0  0  0  0  0  0  0  0  0  0
   48.6681    5.1166   21.6935 C   0  0  0  0  0  0  0  0  0  0  0  0
   49.6172    7.3340   21.6865 C   0  0  0  0  0  0  0  0  0  0  0  0
   49.4006   10.9012   11.6059 C   0  0  0  0  0  0  0  0  0  0  0  0
   49.5944    9.8106   14.4882 C   0  0  0  0  0  0  0  0  0  0  0  0
   49.3400    9.4730   12.1419 C   0  0  0  0  0  0  0  0  0  0  0  0
   49.4987    7.3849   23.0773 C   0  0  0  0  0  0  0  0  0  0  0  0
   48.5529    5.1691   23.0838 C   0  0  0  0  0  0  0  0  0  0  0  0
   48.9679    6.3029   23.7760 C   0  0  0  0  0  0  0  0  0  0  0  0
   48.2021    8.3314   14.5541 C   0  0  0  0  0  0  0  0  0  0  0  0
   51.8942    5.4812   20.0987 C   0  0  0  0  0  0  0  0  0  0  0  0
   50.5278    5.8258   18.0836 C   0  0  0  0  0  0  0  0  0  0  0  0
   49.9027    7.2553   15.9679 C   0  0  0  0  0  0  0  0  0  0  0  0
   48.7845    7.1799   15.1008 C   0  0  0  0  0  0  0  0  0  0  0  0
   51.7782    5.5875   18.7051 C   0  0  0  0  0  0  0  0  0  0  0  0
   50.4706    5.9567   16.5562 C   0  0  0  0  0  0  0  0  0  0  0  0
   48.7518    9.5787   14.8557 C   0  0  0  0  0  0  0  0  0  0  0  0
   50.7462    5.5914   20.8870 C   0  0  0  0  0  0  0  0  0  0  0  0
   47.0147    8.3291   13.6622 C   0  0  0  0  0  0  0  0  0  0  0  0
   53.1721    5.2481   20.8177 C   0  0  0  0  0  0  0  0  0  0  0  0
   49.3520    5.8757   18.8999 C   0  0  0  0  0  0  0  0  0  0  0  0
   50.4943    8.5350   16.2168 C   0  0  0  0  0  0  0  0  0  0  0  0
   49.8866    9.6943   15.6657 C   0  0  0  0  0  0  0  0  0  0  0  0
   49.4847    5.7753   20.3101 C   0  0  0  0  0  0  0  0  0  0  0  0
   46.4740    9.3064   13.1780 O   0  0  0  0  0  0  0  0  0  0  0  0
   53.3153    5.1712   22.0247 O   0  0  0  0  0  0  0  0  0  0  0  0
   48.2908    5.9283   14.8196 O   0  0  0  0  0  0  0  0  0  0  0  0
   52.8760    5.4666   17.8854 O   0  0  0  0  0  0  0  0  0  0  0  0
   46.5478    7.0899   13.4009 O   0  0  0  0  0  0  0  0  0  0  0  0
   54.2337    5.1187   19.9924 O   0  0  0  0  0  0  0  0  0  0  0  0
   51.6746    8.7397   16.9675 C   0  0  0  0  0  0  0  0  0  0  0  0
   48.0346    5.9943   18.3997 C   0  0  0  0  0  0  0  0  0  0  0  0
   50.4247   10.9694   15.9086 C   0  0  0  0  0  0  0  0  0  0  0  0
   48.3533    5.8431   21.1423 C   0  0  0  0  0  0  0  0  0  0  0  0
   46.9143    6.0513   19.2342 C   0  0  0  0  0  0  0  0  0  0  0  0
   52.2048   10.0136   17.1967 C   0  0  0  0  0  0  0  0  0  0  0  0
   47.0754    5.9858   20.6091 C   0  0  0  0  0  0  0  0  0  0  0  0
   51.5763   11.1310   16.6715 C   0  0  0  0  0  0  0  0  0  0  0  0
   48.3172    5.7199   19.1677 H   0  0  0  0  0  0  0  0  0  0  0  0
   47.5794    7.1720   17.8228 H   0  0  0  0  0  0  0  0  0  0  0  0
   48.3134    8.7388   17.6843 H   0  0  0  0  0  0  0  0  0  0  0  0
   51.5575    7.5298   19.2179 H   0  0  0  0  0  0  0  0  0  0  0  0
   50.8294    8.9587   18.5771 H   0  0  0  0  0  0  0  0  0  0  0  0
   51.8552    5.4516   20.4293 H   0  0  0  0  0  0  0  0  0  0  0  0
   48.9682    4.2189   17.4559 H   0  0  0  0  0  0  0  0  0  0  0  0
   48.3494    7.6000   15.5083 H   0  0  0  0  0  0  0  0  0  0  0  0
   49.1588    6.2243   16.1739 H   0  0  0  0  0  0  0  0  0  0  0  0
   51.5550    6.4582   16.9727 H   0  0  0  0  0  0  0  0  0  0  0  0
   52.3125    8.0225   16.8862 H   0  0  0  0  0  0  0  0  0  0  0  0
   50.5048    2.4449   16.7150 H   0  0  0  0  0  0  0  0  0  0  0  0
   53.3743    3.6718   19.6760 H   0  0  0  0  0  0  0  0  0  0  0  0
   51.4392    9.6581   15.5515 H   0  0  0  0  0  0  0  0  0  0  0  0
   50.0341    9.8821   16.5962 H   0  0  0  0  0  0  0  0  0  0  0  0
   48.6390   11.9503   10.1576 H   0  0  0  0  0  0  0  0  0  0  0  0
   48.3370    4.2219   21.1696 H   0  0  0  0  0  0  0  0  0  0  0  0
   50.0286    8.1981   21.1719 H   0  0  0  0  0  0  0  0  0  0  0  0
   50.4303   11.1661   11.3443 H   0  0  0  0  0  0  0  0  0  0  0  0
   49.0522   11.6193   12.3539 H   0  0  0  0  0  0  0  0  0  0  0  0
   49.6477   10.9043   14.4430 H   0  0  0  0  0  0  0  0  0  0  0  0
   48.5407    9.5283   14.5747 H   0  0  0  0  0  0  0  0  0  0  0  0
   48.3080    9.1689   12.3497 H   0  0  0  0  0  0  0  0  0  0  0  0
   49.7002    8.7880   11.3656 H   0  0  0  0  0  0  0  0  0  0  0  0
   49.8197    8.2726   23.6154 H   0  0  0  0  0  0  0  0  0  0  0  0
   48.1385    4.3221   23.6250 H   0  0  0  0  0  0  0  0  0  0  0  0
   48.8754    6.3450   24.8585 H   0  0  0  0  0  0  0  0  0  0  0  0
   49.9146    5.0768   16.2077 H   0  0  0  0  0  0  0  0  0  0  0  0
   51.4611    5.8295   16.0999 H   0  0  0  0  0  0  0  0  0  0  0  0
   48.2988   10.4748   14.4331 H   0  0  0  0  0  0  0  0  0  0  0  0
   50.8355    5.5079   21.9697 H   0  0  0  0  0  0  0  0  0  0  0  0
   47.5362    6.0257   14.2013 H   0  0  0  0  0  0  0  0  0  0  0  0
   53.6582    5.2834   18.4474 H   0  0  0  0  0  0  0  0  0  0  0  0
   45.7809    7.2675   12.8091 H   0  0  0  0  0  0  0  0  0  0  0  0
   54.9784    4.9705   20.6198 H   0  0  0  0  0  0  0  0  0  0  0  0
   52.2257    7.9001   17.3751 H   0  0  0  0  0  0  0  0  0  0  0  0
   47.8493    6.0239   17.3326 H   0  0  0  0  0  0  0  0  0  0  0  0
   49.9513   11.8564   15.4928 H   0  0  0  0  0  0  0  0  0  0  0  0
   48.4576    5.7788   22.2239 H   0  0  0  0  0  0  0  0  0  0  0  0
   45.9216    6.1482   18.8010 H   0  0  0  0  0  0  0  0  0  0  0  0
   53.1156   10.1210   17.7801 H   0  0  0  0  0  0  0  0  0  0  0  0
   46.2115    6.0302   21.2650 H   0  0  0  0  0  0  0  0  0  0  0  0
   51.9829   12.1237   16.8434 H   0  0  0  0  0  0  0  0  0  0  0  0
  2  1  1  0
  3 10  1  0
  4  2  1  0
  5  1  1  0
  6  1  1  0
  7  2  1  0
  8  4  2  0
  9  4  1  0
 10  5  1  0
 11  6  1  0
 12 14  2  0
 13  9  2  0
 14  8  1  0
 15 12  1  0
 16  3  1  0
 17 21  1  0
 18 22  1  0
 19  7  2  0
 20  7  1  0
 21 23  1  0
 22 16  1  0
 23 18  1  0
 24 20  2  0
 25 19  1  0
 26 25  2  0
 11  3  1  0
 13 12  1  0
 24 26  1  0
 28 32  2  0
 29 33  1  0
 30 31  1  0
 31 27  2  0
 32 29  1  0
 33 30  1  0
 34 27  1  0
 35 28  1  0
 36 27  1  0
 37 28  1  0
 38 29  2  0
 39 40  1  0
 40 34  2  0
 41 38  1  0
 42 36  2  0
 43 37  2  0
 44 31  1  0
 45 32  1  0
 46 36  1  0
 47 37  1  0
 48 39  1  0
 49 38  1  0
 50 40  1  0
 51 41  1  0
 52 49  2  0
 53 48  2  0
 54 52  1  0
 55 50  2  0
 30 39  2  0
 53 55  1  0
 35 41  2  0
 51 54  2  0
  2 56  1  1
  5 57  1  0
  5 58  1  0
  6 59  1  0
  6 60  1  0
  8 61  1  0
  9 62  1  0
 10 63  1  0
 10 64  1  0
 11 65  1  0
 11 66  1  0
 13 67  1  0
 14 68  1  0
 16 69  1  0
 16 70  1  0
 17 71  1  0
 19 72  1  0
 20 73  1  0
 21 74  1  0
 21 75  1  0
 22 76  1  0
 22 77  1  0
 23 78  1  0
 23 79  1  0
 24 80  1  0
 25 81  1  0
 26 82  1  0
 33 83  1  0
 33 84  1  0
 34 85  1  0
 35 86  1  0
 44 87  1  0
 45 88  1  0
 46 89  1  0
 47 90  1  0
 48 91  1  0
 49 92  1  0
 50 93  1  0
 51 94  1  0
 52 95  1  0
 53 96  1  0
 54 97  1  0
 55 98  1  0
M  END
> <Uni-Dock RESULT> 
ENERGY=   -5.255  LOWER_BOUND=    3.469  UPPER_BOUND=    7.082
INTER + INTRA:          -5.255
INTER:                  -5.255
INTRA:                   0.000
UNBOUND:                 0.000

$$$$

     RDKit          3D

 98103  0  0  0  0  0  0  0  0999 V2000
   48.5786   10.2362   14.4765 N   0  0  0  0  0  0  0  0  0  0  0  0
   49.9921   10.3725   14.8946 C   0  0  1  0  0  0  0  0  0  0  0  0
   47.5768    8.6370   12.1205 N   0  0  0  0  0  0  0  0  0  0  0  0
   51.0426   10.3263   13.7784 C   0  0  0  0  0  0  0  0  0  0  0  0
   48.0119    8.8889   14.6129 C   0  0  0  0  0  0  0  0  0  0  0  0
   48.1740   10.8666   13.2130 C   0  0  0  0  0  0  0  0  0  0  0  0
   50.2107   11.5462   15.8690 C   0  0  0  0  0  0  0  0  0  0  0  0
   51.4539   11.4862   13.0934 C   0  0  0  0  0  0  0  0  0  0  0  0
   51.6368    9.1025   13.4236 C   0  0  0  0  0  0  0  0  0  0  0  0
   48.0904    8.0059   13.3478 C   0  0  0  0  0  0  0  0  0  0  0  0
   48.2298    9.9547   11.9595 C   0  0  0  0  0  0  0  0  0  0  0  0
   52.9801   10.1954   11.7418 C   0  0  0  0  0  0  0  0  0  0  0  0
   52.5978    9.0360   12.4106 C   0  0  0  0  0  0  0  0  0  0  0  0
   52.4146   11.4211   12.0805 C   0  0  0  0  0  0  0  0  0  0  0  0
   54.1622   10.1116   10.4946 Cl  0  0  0  0  0  0  0  0  0  0  0  0
   46.1053    8.7725   12.0842 C   0  0  0  0  0  0  0  0  0  0  0  0
   43.1727    3.9461   10.6761 O   0  0  0  0  0  0  0  0  0  0  0  0
   45.6116    6.7046   10.8905 O   0  0  0  0  0  0  0  0  0  0  0  0
   51.3793   11.5719   16.6567 C   0  0  0  0  0  0  0  0  0  0  0  0
   49.2967   12.6030   16.0109 C   0  0  0  0  0  0  0  0  0  0  0  0
   43.6095    5.3007   10.6516 C   0  0  0  0  0  0  0  0  0  0  0  0
   45.3148    7.4477   12.0717 C   0  0  0  0  0  0  0  0  0  0  0  0
   45.1107    5.3703   10.9200 C   0  0  0  0  0  0  0  0  0  0  0  0
   49.5413   13.6479   16.9050 C   0  0  0  0  0  0  0  0  0  0  0  0
   51.6225   12.6186   17.5479 C   0  0  0  0  0  0  0  0  0  0  0  0
   50.7038   13.6565   17.6724 C   0  0  0  0  0  0  0  0  0  0  0  0
   46.6570    6.3767   13.1590 C   0  0  0  0  0  0  0  0  0  0  0  0
   50.9335   12.2254   13.1271 C   0  0  0  0  0  0  0  0  0  0  0  0
   50.0497    9.9309   13.1166 C   0  0  0  0  0  0  0  0  0  0  0  0
   48.1477    8.2213   12.5079 C   0  0  0  0  0  0  0  0  0  0  0  0
   47.9427    6.8824   12.9240 C   0  0  0  0  0  0  0  0  0  0  0  0
   50.5167   11.0802   12.4330 C   0  0  0  0  0  0  0  0  0  0  0  0
   49.5844    8.7187   12.2996 C   0  0  0  0  0  0  0  0  0  0  0  0
   45.5534    7.2076   12.9572 C   0  0  0  0  0  0  0  0  0  0  0  0
   50.9070   12.2214   14.5237 C   0  0  0  0  0  0  0  0  0  0  0  0
   46.3700    4.9952   13.6220 C   0  0  0  0  0  0  0  0  0  0  0  0
   51.4191   13.4688   12.4769 C   0  0  0  0  0  0  0  0  0  0  0  0
   50.0857    9.9196   14.5483 C   0  0  0  0  0  0  0  0  0  0  0  0
   47.0045    9.0416   12.2438 C   0  0  0  0  0  0  0  0  0  0  0  0
   45.7082    8.5198   12.4975 C   0  0  0  0  0  0  0  0  0  0  0  0
   50.5017   11.0888   15.2386 C   0  0  0  0  0  0  0  0  0  0  0  0
   45.2706    4.5236   13.8480 O   0  0  0  0  0  0  0  0  0  0  0  0
   51.7687   14.4883   13.0440 O   0  0  0  0  0  0  0  0  0  0  0  0
   49.0593    6.0984   13.0913 O   0  0  0  0  0  0  0  0  0  0  0  0
   50.5429   11.0284   11.0589 O   0  0  0  0  0  0  0  0  0  0  0  0
   47.4809    4.2451   13.7795 O   0  0  0  0  0  0  0  0  0  0  0  0
   51.4494   13.3901   11.1287 O   0  0  0  0  0  0  0  0  0  0  0  0
   47.0633   10.3527   11.7184 C   0  0  0  0  0  0  0  0  0  0  0  0
   49.7561    8.8013   15.3488 C   0  0  0  0  0  0  0  0  0  0  0  0
   44.5639    9.3039   12.2733 C   0  0  0  0  0  0  0  0  0  0  0  0
   50.5272   11.1194   16.6442 C   0  0  0  0  0  0  0  0  0  0  0  0
   49.7936    8.8378   16.7459 C   0  0  0  0  0  0  0  0  0  0  0  0
   45.9166   11.1212   11.4928 C   0  0  0  0  0  0  0  0  0  0  0  0
   50.1703   10.0029   17.3948 C   0  0  0  0  0  0  0  0  0  0  0  0
   44.6650   10.5987   11.7758 C   0  0  0  0  0  0  0  0  0  0  0  0
   50.2132    9.5083   15.5390 H   0  0  0  0  0  0  0  0  0  0  0  0
   48.4485    8.3499   15.4640 H   0  0  0  0  0  0  0  0  0  0  0  0
   46.9528    9.0089   14.8796 H   0  0  0  0  0  0  0  0  0  0  0  0
   48.7220   11.7961   13.0249 H   0  0  0  0  0  0  0  0  0  0  0  0
   47.1343   11.1953   13.3426 H   0  0  0  0  0  0  0  0  0  0  0  0
   51.0314   12.4583   13.3459 H   0  0  0  0  0  0  0  0  0  0  0  0
   51.3513    8.1870   13.9372 H   0  0  0  0  0  0  0  0  0  0  0  0
   47.5884    7.0517   13.5385 H   0  0  0  0  0  0  0  0  0  0  0  0
   49.1362    7.7303   13.1718 H   0  0  0  0  0  0  0  0  0  0  0  0
   49.2740    9.7774   11.6800 H   0  0  0  0  0  0  0  0  0  0  0  0
   47.7940   10.4902   11.1058 H   0  0  0  0  0  0  0  0  0  0  0  0
   53.0375    8.0765   12.1479 H   0  0  0  0  0  0  0  0  0  0  0  0
   52.7192   12.3266   11.5635 H   0  0  0  0  0  0  0  0  0  0  0  0
   45.8422    9.3040   11.1588 H   0  0  0  0  0  0  0  0  0  0  0  0
   45.7404    9.3823   12.9193 H   0  0  0  0  0  0  0  0  0  0  0  0
   42.2123    3.9565   10.5125 H   0  0  0  0  0  0  0  0  0  0  0  0
   52.1087   10.7683   16.5742 H   0  0  0  0  0  0  0  0  0  0  0  0
   48.3766   12.6233   15.4330 H   0  0  0  0  0  0  0  0  0  0  0  0
   43.3768    5.7384    9.6753 H   0  0  0  0  0  0  0  0  0  0  0  0
   43.0466    5.8557   11.4077 H   0  0  0  0  0  0  0  0  0  0  0  0
   44.2454    7.6875   12.0689 H   0  0  0  0  0  0  0  0  0  0  0  0
   45.5243    6.8539   12.9666 H   0  0  0  0  0  0  0  0  0  0  0  0
   45.3696    4.8799   11.8650 H   0  0  0  0  0  0  0  0  0  0  0  0
   45.6363    4.8070   10.1402 H   0  0  0  0  0  0  0  0  0  0  0  0
   48.8209   14.4554   17.0035 H   0  0  0  0  0  0  0  0  0  0  0  0
   52.5313   12.6215   18.1445 H   0  0  0  0  0  0  0  0  0  0  0  0
   50.8919   14.4702   18.3687 H   0  0  0  0  0  0  0  0  0  0  0  0
   50.3199    7.9295   12.5022 H   0  0  0  0  0  0  0  0  0  0  0  0
   49.6874    8.8921   11.2203 H   0  0  0  0  0  0  0  0  0  0  0  0
   44.5536    6.8164   13.1416 H   0  0  0  0  0  0  0  0  0  0  0  0
   51.2316   13.1104   15.0636 H   0  0  0  0  0  0  0  0  0  0  0  0
   48.7695    5.2019   13.3622 H   0  0  0  0  0  0  0  0  0  0  0  0
   50.9061   11.8769   10.7280 H   0  0  0  0  0  0  0  0  0  0  0  0
   47.1179    3.3804   14.0804 H   0  0  0  0  0  0  0  0  0  0  0  0
   51.7898   14.2768   10.8681 H   0  0  0  0  0  0  0  0  0  0  0  0
   48.0128   10.8005   11.4485 H   0  0  0  0  0  0  0  0  0  0  0  0
   49.4797    7.8580   14.8931 H   0  0  0  0  0  0  0  0  0  0  0  0
   43.5727    8.9045   12.4777 H   0  0  0  0  0  0  0  0  0  0  0  0
   50.8342   12.0204   17.1722 H   0  0  0  0  0  0  0  0  0  0  0  0
   49.5257    7.9522   17.3173 H   0  0  0  0  0  0  0  0  0  0  0  0
   46.0120   12.1248   11.0866 H   0  0  0  0  0  0  0  0  0  0  0  0
   50.2014   10.0408   18.4793 H   0  0  0  0  0  0  0  0  0  0  0  0
   43.7694   11.1885   11.6016 H   0  0  0  0  0  0  0  0  0  0  0  0
  2  1  1  0
  3 10  1  0
  4  2  1  0
  5  1  1  0
  6  1  1  0
  7  2  1  0
  8  4  2  0
  9  4  1  0
 10  5  1  0
 11  6  1  0
 12 14  2  0
 13  9  2  0
 14  8  1  0
 15 12  1  0
 16  3  1  0
 17 21  1  0
 18 22  1  0
 19  7  2  0
 20  7  1  0
 21 23  1  0
 22 16  1  0
 23 18  1  0
 24 20  2  0
 25 19  1  0
 26 25  2  0
 11  3  1  0
 13 12  1  0
 24 26  1  0
 28 32  2  0
 29 33  1  0
 30 31  1  0
 31 27  2  0
 32 29  1  0
 33 30  1  0
 34 27  1  0
 35 28  1  0
 36 27  1  0
 37 28  1  0
 38 29  2  0
 39 40  1  0
 40 34  2  0
 41 38  1  0
 42 36  2  0
 43 37  2  0
 44 31  1  0
 45 32  1  0
 46 36  1  0
 47 37  1  0
 48 39  1  0
 49 38  1  0
 50 40  1  0
 51 41  1  0
 52 49  2  0
 53 48  2  0
 54 52  1  0
 55 50  2  0
 30 39  2  0
 53 55  1  0
 35 41  2  0
 51 54  2  0
  2 56  1  1
  5 57  1  0
  5 58  1  0
  6 59  1  0
  6 60  1  0
  8 61  1  0
  9 62  1  0
 10 63  1  0
 10 64  1  0
 11 65  1  0
 11 66  1  0
 13 67  1  0
 14 68  1  0
 16 69  1  0
 16 70  1  0
 17 71  1  0
 19 72  1  0
 20 73  1  0
 21 74  1  0
 21 75  1  0
 22 76  1  0
 22 77  1  0
 23 78  1  0
 23 79  1  0
 24 80  1  0
 25 81  1  0
 26 82  1  0
 33 83  1  0
 33 84  1  0
 34 85  1  0
 35 86  1  0
 44 87  1  0
 45 88  1  0
 46 89  1  0
 47 90  1  0
 48 91  1  0
 49 92  1  0
 50 93  1  0
 51 94  1  0
 52 95  1  0
 53 96  1  0
 54 97  1  0
 55 98  1  0
M  END
> <Uni-Dock RESULT> 
ENERGY=   -5.076  LOWER_BOUND=    6.824  UPPER_BOUND=    9.701
INTER + INTRA:          -5.076
INTER:                  -5.076
INTRA:                   0.000
UNBOUND:                 0.000

$$$$

     RDKit          3D

 98103  0  0  0  0  0  0  0  0999 V2000
   50.5597    8.6516   18.1658 N   0  0  0  0  0  0  0  0  0  0  0  0
   49.0939    8.4740   18.2726 C   0  0  1  0  0  0  0  0  0  0  0  0
   52.4258    6.9835   16.4787 N   0  0  0  0  0  0  0  0  0  0  0  0
   48.5667    7.0414   18.1271 C   0  0  0  0  0  0  0  0  0  0  0  0
   51.0442    9.0855   16.8498 C   0  0  0  0  0  0  0  0  0  0  0  0
   51.4199    7.6092   18.7409 C   0  0  0  0  0  0  0  0  0  0  0  0
   48.4958    9.2074   19.4888 C   0  0  0  0  0  0  0  0  0  0  0  0
   48.4428    6.1768   19.2321 C   0  0  0  0  0  0  0  0  0  0  0  0
   48.1747    6.5623   16.8647 C   0  0  0  0  0  0  0  0  0  0  0  0
   51.4796    7.9502   15.8968 C   0  0  0  0  0  0  0  0  0  0  0  0
   51.8720    6.4954   17.7607 C   0  0  0  0  0  0  0  0  0  0  0  0
   47.5860    4.4224   17.8143 C   0  0  0  0  0  0  0  0  0  0  0  0
   47.6894    5.2607   16.7078 C   0  0  0  0  0  0  0  0  0  0  0  0
   47.9578    4.8753   19.0766 C   0  0  0  0  0  0  0  0  0  0  0  0
   46.9896    2.8205   17.6192 Cl  0  0  0  0  0  0  0  0  0  0  0  0
   53.7916    7.5169   16.6660 C   0  0  0  0  0  0  0  0  0  0  0  0
   57.1016    7.6824   11.8813 O   0  0  0  0  0  0  0  0  0  0  0  0
   54.7401    6.7474   14.5558 O   0  0  0  0  0  0  0  0  0  0  0  0
   47.1116    9.4720   19.5144 C   0  0  0  0  0  0  0  0  0  0  0  0
   49.2675    9.6269   20.5847 C   0  0  0  0  0  0  0  0  0  0  0  0
   56.6926    7.4016   13.2155 C   0  0  0  0  0  0  0  0  0  0  0  0
   54.5400    7.9000   15.3725 C   0  0  0  0  0  0  0  0  0  0  0  0
   55.2058    7.0565   13.2443 C   0  0  0  0  0  0  0  0  0  0  0  0
   48.6785   10.2847   21.6671 C   0  0  0  0  0  0  0  0  0  0  0  0
   46.5250   10.1275   20.5984 C   0  0  0  0  0  0  0  0  0  0  0  0
   47.3079   10.5341   21.6747 C   0  0  0  0  0  0  0  0  0  0  0  0
   52.8923    8.4425   14.3136 C   0  0  0  0  0  0  0  0  0  0  0  0
   48.8989    6.3635   19.9906 C   0  0  0  0  0  0  0  0  0  0  0  0
   49.7445    6.8476   17.7330 C   0  0  0  0  0  0  0  0  0  0  0  0
   51.7540    7.1429   16.0639 C   0  0  0  0  0  0  0  0  0  0  0  0
   51.7958    7.6914   14.7581 C   0  0  0  0  0  0  0  0  0  0  0  0
   49.5690    5.9631   18.8254 C   0  0  0  0  0  0  0  0  0  0  0  0
   50.5083    6.3577   16.4960 C   0  0  0  0  0  0  0  0  0  0  0  0
   53.9760    8.6352   15.1723 C   0  0  0  0  0  0  0  0  0  0  0  0
   48.3751    7.6564   20.0637 C   0  0  0  0  0  0  0  0  0  0  0  0
   52.9917    9.0690   12.9709 C   0  0  0  0  0  0  0  0  0  0  0  0
   48.6921    5.4965   21.1780 C   0  0  0  0  0  0  0  0  0  0  0  0
   49.1495    8.1487   17.7984 C   0  0  0  0  0  0  0  0  0  0  0  0
   52.8987    7.2944   16.9101 C   0  0  0  0  0  0  0  0  0  0  0  0
   53.9977    8.0679   16.4509 C   0  0  0  0  0  0  0  0  0  0  0  0
   48.4814    8.5443   18.9874 C   0  0  0  0  0  0  0  0  0  0  0  0
   53.9199    9.7368   12.5531 O   0  0  0  0  0  0  0  0  0  0  0  0
   48.1353    5.8146   22.2133 O   0  0  0  0  0  0  0  0  0  0  0  0
   50.7130    7.4590   13.9439 O   0  0  0  0  0  0  0  0  0  0  0  0
   50.0850    4.6947   18.6979 O   0  0  0  0  0  0  0  0  0  0  0  0
   51.9175    8.8277   12.1901 O   0  0  0  0  0  0  0  0  0  0  0  0
   49.1945    4.2519   21.0249 O   0  0  0  0  0  0  0  0  0  0  0  0
   53.0345    6.7044   18.1876 C   0  0  0  0  0  0  0  0  0  0  0  0
   49.1523    9.0847   16.7382 C   0  0  0  0  0  0  0  0  0  0  0  0
   55.1283    8.2590   17.2632 C   0  0  0  0  0  0  0  0  0  0  0  0
   47.9057    9.8228   19.0935 C   0  0  0  0  0  0  0  0  0  0  0  0
   48.5689   10.3503   16.8493 C   0  0  0  0  0  0  0  0  0  0  0  0
   54.1680    6.8962   18.9844 C   0  0  0  0  0  0  0  0  0  0  0  0
   47.9532   10.7236   18.0334 C   0  0  0  0  0  0  0  0  0  0  0  0
   55.2145    7.6792   18.5244 C   0  0  0  0  0  0  0  0  0  0  0  0
   48.6484    9.0349   17.4373 H   0  0  0  0  0  0  0  0  0  0  0  0
   50.3152    9.7309   16.3423 H   0  0  0  0  0  0  0  0  0  0  0  0
   51.9119    9.7367   17.0230 H   0  0  0  0  0  0  0  0  0  0  0  0
   50.9782    7.1622   19.6380 H   0  0  0  0  0  0  0  0  0  0  0  0
   52.3211    8.1135   19.1143 H   0  0  0  0  0  0  0  0  0  0  0  0
   48.7201    6.5111   20.2313 H   0  0  0  0  0  0  0  0  0  0  0  0
   48.2471    7.2046   15.9897 H   0  0  0  0  0  0  0  0  0  0  0  0
   51.8783    8.3832   14.9735 H   0  0  0  0  0  0  0  0  0  0  0  0
   50.5904    7.3975   15.5738 H   0  0  0  0  0  0  0  0  0  0  0  0
   51.0238    5.8419   17.5301 H   0  0  0  0  0  0  0  0  0  0  0  0
   52.6013    5.8475   18.2646 H   0  0  0  0  0  0  0  0  0  0  0  0
   47.4002    4.9095   15.7199 H   0  0  0  0  0  0  0  0  0  0  0  0
   47.8694    4.2231   19.9407 H   0  0  0  0  0  0  0  0  0  0  0  0
   54.3903    6.7359   17.1556 H   0  0  0  0  0  0  0  0  0  0  0  0
   53.7918    8.3869   17.3334 H   0  0  0  0  0  0  0  0  0  0  0  0
   58.0489    7.9071   11.9181 H   0  0  0  0  0  0  0  0  0  0  0  0
   46.4832    9.1628   18.6812 H   0  0  0  0  0  0  0  0  0  0  0  0
   50.3402    9.4548   20.6073 H   0  0  0  0  0  0  0  0  0  0  0  0
   57.2844    6.5681   13.6077 H   0  0  0  0  0  0  0  0  0  0  0  0
   56.9065    8.2801   13.8312 H   0  0  0  0  0  0  0  0  0  0  0  0
   55.5216    8.3002   15.6509 H   0  0  0  0  0  0  0  0  0  0  0  0
   54.0035    8.6780   14.8210 H   0  0  0  0  0  0  0  0  0  0  0  0
   54.6028    7.8546   12.7969 H   0  0  0  0  0  0  0  0  0  0  0  0
   55.0356    6.1714   12.6205 H   0  0  0  0  0  0  0  0  0  0  0  0
   49.2922   10.6046   22.5047 H   0  0  0  0  0  0  0  0  0  0  0  0
   45.4549   10.3196   20.6003 H   0  0  0  0  0  0  0  0  0  0  0  0
   46.8516   11.0472   22.5176 H   0  0  0  0  0  0  0  0  0  0  0  0
   49.7622    6.3070   15.6925 H   0  0  0  0  0  0  0  0  0  0  0  0
   50.8350    5.3152   16.6065 H   0  0  0  0  0  0  0  0  0  0  0  0
   54.8280    9.2207   14.8289 H   0  0  0  0  0  0  0  0  0  0  0  0
   47.8536    7.9678   20.9682 H   0  0  0  0  0  0  0  0  0  0  0  0
   50.8844    7.8789   13.0747 H   0  0  0  0  0  0  0  0  0  0  0  0
   49.8703    4.1941   19.5132 H   0  0  0  0  0  0  0  0  0  0  0  0
   52.1441    9.3017   11.3571 H   0  0  0  0  0  0  0  0  0  0  0  0
   48.9727    3.8223   21.8830 H   0  0  0  0  0  0  0  0  0  0  0  0
   52.2617    6.0565   18.5848 H   0  0  0  0  0  0  0  0  0  0  0  0
   49.5972    8.8353   15.7824 H   0  0  0  0  0  0  0  0  0  0  0  0
   55.9646    8.8600   16.9123 H   0  0  0  0  0  0  0  0  0  0  0  0
   47.4049   10.1295   20.0101 H   0  0  0  0  0  0  0  0  0  0  0  0
   48.6020   11.0369   16.0067 H   0  0  0  0  0  0  0  0  0  0  0  0
   54.2273    6.4211   19.9602 H   0  0  0  0  0  0  0  0  0  0  0  0
   47.4984   11.7047   18.1292 H   0  0  0  0  0  0  0  0  0  0  0  0
   56.0991    7.8313   19.1364 H   0  0  0  0  0  0  0  0  0  0  0  0
  2  1  1  0
  3 10  1  0
  4  2  1  0
  5  1  1  0
  6  1  1  0
  7  2  1  0
  8  4  2  0
  9  4  1  0
 10  5  1  0
 11  6  1  0
 12 14  2  0
 13  9  2  0
 14  8  1  0
 15 12  1  0
 16  3  1  0
 17 21  1  0
 18 22  1  0
 19  7  2  0
 20  7  1  0
 21 23  1  0
 22 16  1  0
 23 18  1  0
 24 20  2  0
 25 19  1  0
 26 25  2  0
 11  3  1  0
 13 12  1  0
 24 26  1  0
 28 32  2  0
 29 33  1  0
 30 31  1  0
 31 27  2  0
 32 29  1  0
 33 30  1  0
 34 27  1  0
 35 28  1  0
 36 27  1  0
 37 28  1  0
 38 29  2  0
 39 40  1  0
 40 34  2  0
 41 38  1  0
 42 36  2  0
 43 37  2  0
 44 31  1  0
 45 32  1  0
 46 36  1  0
 47 37  1  0
 48 39  1  0
 49 38  1  0
 50 40  1  0
 51 41  1  0
 52 49  2  0
 53 48  2  0
 54 52  1  0
 55 50  2  0
 30 39  2  0
 53 55  1  0
 35 41  2  0
 51 54  2  0
  2 56  1  1
  5 57  1  0
  5 58  1  0
  6 59  1  0
  6 60  1  0
  8 61  1  0
  9 62  1  0
 10 63  1  0
 10 64  1  0
 11 65  1  0
 11 66  1  0
 13 67  1  0
 14 68  1  0
 16 69  1  0
 16 70  1  0
 17 71  1  0
 19 72  1  0
 20 73  1  0
 21 74  1  0
 21 75  1  0
 22 76  1  0
 22 77  1  0
 23 78  1  0
 23 79  1  0
 24 80  1  0
 25 81  1  0
 26 82  1  0
 33 83  1  0
 33 84  1  0
 34 85  1  0
 35 86  1  0
 44 87  1  0
 45 88  1  0
 46 89  1  0
 47 90  1  0
 48 91  1  0
 49 92  1  0
 50 93  1  0
 51 94  1  0
 52 95  1  0
 53 96  1  0
 54 97  1  0
 55 98  1  0
M  END
> <Uni-Dock RESULT> 
ENERGY=   -4.937  LOWER_BOUND=    3.849  UPPER_BOUND=    5.926
INTER + INTRA:          -4.937
INTER:                  -4.937
INTRA:                   0.000
UNBOUND:                 0.000

$$$$

     RDKit          3D

 98103  0  0  0  0  0  0  0  0999 V2000
   50.4698    9.2494   15.9702 N   0  0  0  0  0  0  0  0  0  0  0  0
   50.7708    8.8976   14.5642 C   0  0  1  0  0  0  0  0  0  0  0  0
   48.4008    7.9222   17.7222 N   0  0  0  0  0  0  0  0  0  0  0  0
   49.5996    8.3721   13.7254 C   0  0  0  0  0  0  0  0  0  0  0  0
   50.8082    8.2196   16.9601 C   0  0  0  0  0  0  0  0  0  0  0  0
   49.1694    9.8684   16.2584 C   0  0  0  0  0  0  0  0  0  0  0  0
   51.5773    9.9927   13.8395 C   0  0  0  0  0  0  0  0  0  0  0  0
   48.7515    9.2360   13.0055 C   0  0  0  0  0  0  0  0  0  0  0  0
   49.3574    6.9893   13.6462 C   0  0  0  0  0  0  0  0  0  0  0  0
   49.6581    7.2595   17.3370 C   0  0  0  0  0  0  0  0  0  0  0  0
   48.0358    8.8910   16.6653 C   0  0  0  0  0  0  0  0  0  0  0  0
   47.4669    7.3623   12.1921 C   0  0  0  0  0  0  0  0  0  0  0  0
   48.2969    6.4868   12.8866 C   0  0  0  0  0  0  0  0  0  0  0  0
   47.6910    8.7348   12.2456 C   0  0  0  0  0  0  0  0  0  0  0  0
   46.1617    6.7422   11.2586 Cl  0  0  0  0  0  0  0  0  0  0  0  0
   48.4487    8.5812   19.0445 C   0  0  0  0  0  0  0  0  0  0  0  0
   47.8443    5.0516   23.6329 O   0  0  0  0  0  0  0  0  0  0  0  0
   47.5531    6.7380   20.3657 O   0  0  0  0  0  0  0  0  0  0  0  0
   52.2744    9.6607   12.6603 C   0  0  0  0  0  0  0  0  0  0  0  0
   51.6509   11.3182   14.2979 C   0  0  0  0  0  0  0  0  0  0  0  0
   47.6247    6.1456   22.7490 C   0  0  0  0  0  0  0  0  0  0  0  0
   48.6521    7.6404   20.2502 C   0  0  0  0  0  0  0  0  0  0  0  0
   47.7796    5.6866   21.3013 C   0  0  0  0  0  0  0  0  0  0  0  0
   52.3918   12.2774   13.6034 C   0  0  0  0  0  0  0  0  0  0  0  0
   53.0122   10.6217   11.9668 C   0  0  0  0  0  0  0  0  0  0  0  0
   53.0713   11.9299   12.4380 C   0  0  0  0  0  0  0  0  0  0  0  0
   49.7681    6.2554   19.2668 C   0  0  0  0  0  0  0  0  0  0  0  0
   48.7300   10.1138   13.2227 C   0  0  0  0  0  0  0  0  0  0  0  0
   49.0604    8.3085   14.8591 C   0  0  0  0  0  0  0  0  0  0  0  0
   48.7963    7.3633   17.2979 C   0  0  0  0  0  0  0  0  0  0  0  0
   49.3859    6.2342   17.9187 C   0  0  0  0  0  0  0  0  0  0  0  0
   48.2111    9.1425   14.0910 C   0  0  0  0  0  0  0  0  0  0  0  0
   48.4313    7.2817   15.8096 C   0  0  0  0  0  0  0  0  0  0  0  0
   49.5419    7.4099   20.0185 C   0  0  0  0  0  0  0  0  0  0  0  0
   50.1152   10.2445   13.0982 C   0  0  0  0  0  0  0  0  0  0  0  0
   50.4149    5.1210   19.9739 C   0  0  0  0  0  0  0  0  0  0  0  0
   47.9011   11.0311   12.4004 C   0  0  0  0  0  0  0  0  0  0  0  0
   50.4769    8.4128   14.6754 C   0  0  0  0  0  0  0  0  0  0  0  0
   48.5124    8.5169   18.0967 C   0  0  0  0  0  0  0  0  0  0  0  0
   48.9159    8.5286   19.4584 C   0  0  0  0  0  0  0  0  0  0  0  0
   50.9891    9.4064   13.7996 C   0  0  0  0  0  0  0  0  0  0  0  0
   50.7713    5.1050   21.1379 O   0  0  0  0  0  0  0  0  0  0  0  0
   48.3142   11.8992   11.6528 O   0  0  0  0  0  0  0  0  0  0  0  0
   49.5712    5.1154   17.1420 O   0  0  0  0  0  0  0  0  0  0  0  0
   46.8551    8.9622   14.2333 O   0  0  0  0  0  0  0  0  0  0  0  0
   50.5869    4.0346   19.1916 O   0  0  0  0  0  0  0  0  0  0  0  0
   46.5738   10.8267   12.5455 O   0  0  0  0  0  0  0  0  0  0  0  0
   47.8280    9.6637   17.6333 C   0  0  0  0  0  0  0  0  0  0  0  0
   51.4286    7.5680   15.2922 C   0  0  0  0  0  0  0  0  0  0  0  0
   48.6761    9.6526   20.2669 C   0  0  0  0  0  0  0  0  0  0  0  0
   52.3754    9.5510   13.6135 C   0  0  0  0  0  0  0  0  0  0  0  0
   52.8050    7.7128   15.0938 C   0  0  0  0  0  0  0  0  0  0  0  0
   47.5889   10.7740   18.4497 C   0  0  0  0  0  0  0  0  0  0  0  0
   53.2794    8.7133   14.2605 C   0  0  0  0  0  0  0  0  0  0  0  0
   48.0183   10.7715   19.7670 C   0  0  0  0  0  0  0  0  0  0  0  0
   51.4994    8.0736   14.5962 H   0  0  0  0  0  0  0  0  0  0  0  0
   51.6871    7.6368   16.6543 H   0  0  0  0  0  0  0  0  0  0  0  0
   51.1298    8.7408   17.8723 H   0  0  0  0  0  0  0  0  0  0  0  0
   48.8322   10.5133   15.4398 H   0  0  0  0  0  0  0  0  0  0  0  0
   49.3284   10.5638   17.0932 H   0  0  0  0  0  0  0  0  0  0  0  0
   48.9115   10.3135   13.0255 H   0  0  0  0  0  0  0  0  0  0  0  0
   49.9973    6.2909   14.1810 H   0  0  0  0  0  0  0  0  0  0  0  0
   49.9978    6.5752   18.1214 H   0  0  0  0  0  0  0  0  0  0  0  0
   49.4462    6.6070   16.4827 H   0  0  0  0  0  0  0  0  0  0  0  0
   47.7095    8.3209   15.7888 H   0  0  0  0  0  0  0  0  0  0  0  0
   47.1548    9.4700   16.9720 H   0  0  0  0  0  0  0  0  0  0  0  0
   48.1241    5.4137   12.8472 H   0  0  0  0  0  0  0  0  0  0  0  0
   47.0476    9.4168   11.6971 H   0  0  0  0  0  0  0  0  0  0  0  0
   47.4854    9.0871   19.1999 H   0  0  0  0  0  0  0  0  0  0  0  0
   49.2259    9.3539   19.0769 H   0  0  0  0  0  0  0  0  0  0  0  0
   47.7465    5.3969   24.5387 H   0  0  0  0  0  0  0  0  0  0  0  0
   52.2411    8.6426   12.2771 H   0  0  0  0  0  0  0  0  0  0  0  0
   51.1390   11.6210   15.2073 H   0  0  0  0  0  0  0  0  0  0  0  0
   46.6204    6.5490   22.9150 H   0  0  0  0  0  0  0  0  0  0  0  0
   48.3439    6.9327   22.9933 H   0  0  0  0  0  0  0  0  0  0  0  0
   48.6930    8.2524   21.1585 H   0  0  0  0  0  0  0  0  0  0  0  0
   49.5965    7.0936   20.1700 H   0  0  0  0  0  0  0  0  0  0  0  0
   48.7576    5.2220   21.1332 H   0  0  0  0  0  0  0  0  0  0  0  0
   47.0404    4.9032   21.0973 H   0  0  0  0  0  0  0  0  0  0  0  0
   52.4397   13.2973   13.9751 H   0  0  0  0  0  0  0  0  0  0  0  0
   53.5406   10.3462   11.0575 H   0  0  0  0  0  0  0  0  0  0  0  0
   53.6485   12.6777   11.8995 H   0  0  0  0  0  0  0  0  0  0  0  0
   48.6782    6.3002   15.3849 H   0  0  0  0  0  0  0  0  0  0  0  0
   47.3344    7.3086   15.7686 H   0  0  0  0  0  0  0  0  0  0  0  0
   49.8405    7.4285   21.0659 H   0  0  0  0  0  0  0  0  0  0  0  0
   50.5190   10.9983   12.4230 H   0  0  0  0  0  0  0  0  0  0  0  0
   49.9688    4.4143   17.7003 H   0  0  0  0  0  0  0  0  0  0  0  0
   46.3990    9.5866   13.6304 H   0  0  0  0  0  0  0  0  0  0  0  0
   51.0152    3.3925   19.8032 H   0  0  0  0  0  0  0  0  0  0  0  0
   46.1841   11.5012   11.9427 H   0  0  0  0  0  0  0  0  0  0  0  0
   47.4413    9.7084   16.6217 H   0  0  0  0  0  0  0  0  0  0  0  0
   51.1116    6.7539   15.9328 H   0  0  0  0  0  0  0  0  0  0  0  0
   48.9949    9.6622   21.3071 H   0  0  0  0  0  0  0  0  0  0  0  0
   52.7672   10.3213   12.9517 H   0  0  0  0  0  0  0  0  0  0  0  0
   53.4973    7.0408   15.5954 H   0  0  0  0  0  0  0  0  0  0  0  0
   47.0575   11.6332   18.0486 H   0  0  0  0  0  0  0  0  0  0  0  0
   54.3465    8.8340   14.1013 H   0  0  0  0  0  0  0  0  0  0  0  0
   47.8348   11.6291   20.4080 H   0  0  0  0  0  0  0  0  0  0  0  0
  2  1  1  0
  3 10  1  0
  4  2  1  0
  5  1  1  0
  6  1  1  0
  7  2  1  0
  8  4  2  0
  9  4  1  0
 10  5  1  0
 11  6  1  0
 12 14  2  0
 13  9  2  0
 14  8  1  0
 15 12  1  0
 16  3  1  0
 17 21  1  0
 18 22  1  0
 19  7  2  0
 20  7  1  0
 21 23  1  0
 22 16  1  0
 23 18  1  0
 24 20  2  0
 25 19  1  0
 26 25  2  0
 11  3  1  0
 13 12  1  0
 24 26  1  0
 28 32  2  0
 29 33  1  0
 30 31  1  0
 31 27  2  0
 32 29  1  0
 33 30  1  0
 34 27  1  0
 35 28  1  0
 36 27  1  0
 37 28  1  0
 38 29  2  0
 39 40  1  0
 40 34  2  0
 41 38  1  0
 42 36  2  0
 43 37  2  0
 44 31  1  0
 45 32  1  0
 46 36  1  0
 47 37  1  0
 48 39  1  0
 49 38  1  0
 50 40  1  0
 51 41  1  0
 52 49  2  0
 53 48  2  0
 54 52  1  0
 55 50  2  0
 30 39  2  0
 53 55  1  0
 35 41  2  0
 51 54  2  0
  2 56  1  1
  5 57  1  0
  5 58  1  0
  6 59  1  0
  6 60  1  0
  8 61  1  0
  9 62  1  0
 10 63  1  0
 10 64  1  0
 11 65  1  0
 11 66  1  0
 13 67  1  0
 14 68  1  0
 16 69  1  0
 16 70  1  0
 17 71  1  0
 19 72  1  0
 20 73  1  0
 21 74  1  0
 21 75  1  0
 22 76  1  0
 22 77  1  0
 23 78  1  0
 23 79  1  0
 24 80  1  0
 25 81  1  0
 26 82  1  0
 33 83  1  0
 33 84  1  0
 34 85  1  0
 35 86  1  0
 44 87  1  0
 45 88  1  0
 46 89  1  0
 47 90  1  0
 48 91  1  0
 49 92  1  0
 50 93  1  0
 51 94  1  0
 52 95  1  0
 53 96  1  0
 54 97  1  0
 55 98  1  0
M  END
> <Uni-Dock RESULT> 
ENERGY=   -4.771  LOWER_BOUND=    4.686  UPPER_BOUND=    8.278
INTER + INTRA:          -4.771
INTER:                  -4.771
INTRA:                   0.000
UNBOUND:                 0.000

$$$$

     RDKit          3D

 98103  0  0  0  0  0  0  0  0999 V2000
   50.5122    8.4438   15.0065 N   0  0  0  0  0  0  0  0  0  0  0  0
   49.1972    9.1091   14.8669 C   0  0  1  0  0  0  0  0  0  0  0  0
   51.7668    7.5300   17.5955 N   0  0  0  0  0  0  0  0  0  0  0  0
   48.7549   10.0005   16.0336 C   0  0  0  0  0  0  0  0  0  0  0  0
   50.4640    7.0503   15.4654 C   0  0  0  0  0  0  0  0  0  0  0  0
   51.5920    9.1915   15.6641 C   0  0  0  0  0  0  0  0  0  0  0  0
   49.0219    9.7922   13.4967 C   0  0  0  0  0  0  0  0  0  0  0  0
   49.0943   11.3659   16.0989 C   0  0  0  0  0  0  0  0  0  0  0  0
   47.9735    9.4625   17.0713 C   0  0  0  0  0  0  0  0  0  0  0  0
   50.6098    6.8494   16.9901 C   0  0  0  0  0  0  0  0  0  0  0  0
   51.7422    8.9524   17.1893 C   0  0  0  0  0  0  0  0  0  0  0  0
   47.9140   11.6006   18.1903 C   0  0  0  0  0  0  0  0  0  0  0  0
   47.5570   10.2559   18.1442 C   0  0  0  0  0  0  0  0  0  0  0  0
   48.6785   12.1603   17.1709 C   0  0  0  0  0  0  0  0  0  0  0  0
   47.4015   12.5754   19.5120 Cl  0  0  0  0  0  0  0  0  0  0  0  0
   53.0685    6.9123   17.2654 C   0  0  0  0  0  0  0  0  0  0  0  0
   54.4350    2.1499   20.3197 O   0  0  0  0  0  0  0  0  0  0  0  0
   53.2540    5.4664   19.2198 O   0  0  0  0  0  0  0  0  0  0  0  0
   47.7228   10.1148   13.0552 C   0  0  0  0  0  0  0  0  0  0  0  0
   50.1020   10.1150   12.6591 C   0  0  0  0  0  0  0  0  0  0  0  0
   54.5493    3.4438   19.7376 C   0  0  0  0  0  0  0  0  0  0  0  0
   53.2777    5.4779   17.7933 C   0  0  0  0  0  0  0  0  0  0  0  0
   53.1987    4.1544   19.7747 C   0  0  0  0  0  0  0  0  0  0  0  0
   49.8928   10.7387   11.4268 C   0  0  0  0  0  0  0  0  0  0  0  0
   47.5166   10.7403   11.8243 C   0  0  0  0  0  0  0  0  0  0  0  0
   48.6011   11.0521   11.0098 C   0  0  0  0  0  0  0  0  0  0  0  0
   51.3269    4.9165   17.6933 C   0  0  0  0  0  0  0  0  0  0  0  0
   49.7765   11.6749   15.5915 C   0  0  0  0  0  0  0  0  0  0  0  0
   49.7254    9.4296   16.5925 C   0  0  0  0  0  0  0  0  0  0  0  0
   50.9818    7.3496   17.5955 C   0  0  0  0  0  0  0  0  0  0  0  0
   50.5167    6.0434   17.8876 C   0  0  0  0  0  0  0  0  0  0  0  0
   50.0136   10.8142   16.6730 C   0  0  0  0  0  0  0  0  0  0  0  0
   50.0305    8.5360   17.8016 C   0  0  0  0  0  0  0  0  0  0  0  0
   52.6292    5.0901   17.2209 C   0  0  0  0  0  0  0  0  0  0  0  0
   49.2235   11.1563   14.4182 C   0  0  0  0  0  0  0  0  0  0  0  0
   50.8969    3.5187   17.9514 C   0  0  0  0  0  0  0  0  0  0  0  0
   50.0681   13.1307   15.5998 C   0  0  0  0  0  0  0  0  0  0  0  0
   49.1029    8.9240   15.4060 C   0  0  0  0  0  0  0  0  0  0  0  0
   52.3393    7.5174   17.1730 C   0  0  0  0  0  0  0  0  0  0  0  0
   53.1451    6.3658   16.9691 C   0  0  0  0  0  0  0  0  0  0  0  0
   48.8764    9.8047   14.3153 C   0  0  0  0  0  0  0  0  0  0  0  0
   51.5657    2.5154   17.7842 O   0  0  0  0  0  0  0  0  0  0  0  0
   49.8960   13.9045   14.6752 O   0  0  0  0  0  0  0  0  0  0  0  0
   49.2341    5.9257   18.3675 O   0  0  0  0  0  0  0  0  0  0  0  0
   50.5381   11.2805   17.8558 O   0  0  0  0  0  0  0  0  0  0  0  0
   49.6347    3.4284   18.4211 O   0  0  0  0  0  0  0  0  0  0  0  0
   50.5691   13.5686   16.7753 O   0  0  0  0  0  0  0  0  0  0  0  0
   52.9627    8.7678   16.9577 C   0  0  0  0  0  0  0  0  0  0  0  0
   48.6617    7.5908   15.2390 C   0  0  0  0  0  0  0  0  0  0  0  0
   54.4745    6.4901   16.5312 C   0  0  0  0  0  0  0  0  0  0  0  0
   48.2879    9.3362   13.1271 C   0  0  0  0  0  0  0  0  0  0  0  0
   48.0687    7.1360   14.0574 C   0  0  0  0  0  0  0  0  0  0  0  0
   54.2893    8.8791   16.5285 C   0  0  0  0  0  0  0  0  0  0  0  0
   47.8910    8.0086   12.9956 C   0  0  0  0  0  0  0  0  0  0  0  0
   55.0452    7.7389   16.3093 C   0  0  0  0  0  0  0  0  0  0  0  0
   48.4449    8.3080   14.8105 H   0  0  0  0  0  0  0  0  0  0  0  0
   49.5585    6.5388   15.1131 H   0  0  0  0  0  0  0  0  0  0  0  0
   51.2884    6.5181   14.9711 H   0  0  0  0  0  0  0  0  0  0  0  0
   51.5317   10.2654   15.4573 H   0  0  0  0  0  0  0  0  0  0  0  0
   52.5293    8.8827   15.1823 H   0  0  0  0  0  0  0  0  0  0  0  0
   49.6853   11.8286   15.3090 H   0  0  0  0  0  0  0  0  0  0  0  0
   47.6838    8.4142   17.0502 H   0  0  0  0  0  0  0  0  0  0  0  0
   50.6217    5.7781   17.2164 H   0  0  0  0  0  0  0  0  0  0  0  0
   49.7051    7.2198   17.4850 H   0  0  0  0  0  0  0  0  0  0  0  0
   50.9157    9.4365   17.7206 H   0  0  0  0  0  0  0  0  0  0  0  0
   52.6468    9.4624   17.5457 H   0  0  0  0  0  0  0  0  0  0  0  0
   46.9601    9.8155   18.9396 H   0  0  0  0  0  0  0  0  0  0  0  0
   48.9501   13.2115   17.2038 H   0  0  0  0  0  0  0  0  0  0  0  0
   53.8557    7.5315   17.7181 H   0  0  0  0  0  0  0  0  0  0  0  0
   53.2453    6.9092   16.1833 H   0  0  0  0  0  0  0  0  0  0  0  0
   55.3149    1.7356   20.2612 H   0  0  0  0  0  0  0  0  0  0  0  0
   46.8621    9.8775   13.6777 H   0  0  0  0  0  0  0  0  0  0  0  0
   51.1216    9.8777   12.9506 H   0  0  0  0  0  0  0  0  0  0  0  0
   55.2991    4.0227   20.2867 H   0  0  0  0  0  0  0  0  0  0  0  0
   54.9063    3.3267   18.7103 H   0  0  0  0  0  0  0  0  0  0  0  0
   54.2633    5.1317   17.4618 H   0  0  0  0  0  0  0  0  0  0  0  0
   52.5265    4.7937   17.3872 H   0  0  0  0  0  0  0  0  0  0  0  0
   52.4213    3.5584   19.2838 H   0  0  0  0  0  0  0  0  0  0  0  0
   52.8800    4.2548   20.8188 H   0  0  0  0  0  0  0  0  0  0  0  0
   50.7407   10.9779   10.7908 H   0  0  0  0  0  0  0  0  0  0  0  0
   46.5068   10.9835   11.5030 H   0  0  0  0  0  0  0  0  0  0  0  0
   48.4403   11.5365   10.0498 H   0  0  0  0  0  0  0  0  0  0  0  0
   49.0526    8.2105   18.1792 H   0  0  0  0  0  0  0  0  0  0  0  0
   50.4477    9.1122   18.6380 H   0  0  0  0  0  0  0  0  0  0  0  0
   53.2593    4.2148   17.0674 H   0  0  0  0  0  0  0  0  0  0  0  0
   49.0381   11.8246   13.5779 H   0  0  0  0  0  0  0  0  0  0  0  0
   49.0544    4.9773   18.5392 H   0  0  0  0  0  0  0  0  0  0  0  0
   50.6639   12.2494   17.7733 H   0  0  0  0  0  0  0  0  0  0  0  0
   49.5155    2.4577   18.5370 H   0  0  0  0  0  0  0  0  0  0  0  0
   50.6986   14.5309   16.6099 H   0  0  0  0  0  0  0  0  0  0  0  0
   52.4298    9.6931   17.1441 H   0  0  0  0  0  0  0  0  0  0  0  0
   48.7530    6.8736   16.0459 H   0  0  0  0  0  0  0  0  0  0  0  0
   55.0863    5.6055   16.3668 H   0  0  0  0  0  0  0  0  0  0  0  0
   48.1265   10.0094   12.2871 H   0  0  0  0  0  0  0  0  0  0  0  0
   47.7509    6.0992   13.9762 H   0  0  0  0  0  0  0  0  0  0  0  0
   54.7257    9.8630   16.3771 H   0  0  0  0  0  0  0  0  0  0  0  0
   47.4324    7.6641   12.0739 H   0  0  0  0  0  0  0  0  0  0  0  0
   56.0768    7.8170   15.9778 H   0  0  0  0  0  0  0  0  0  0  0  0
  2  1  1  0
  3 10  1  0
  4  2  1  0
  5  1  1  0
  6  1  1  0
  7  2  1  0
  8  4  2  0
  9  4  1  0
 10  5  1  0
 11  6  1  0
 12 14  2  0
 13  9  2  0
 14  8  1  0
 15 12  1  0
 16  3  1  0
 17 21  1  0
 18 22  1  0
 19  7  2  0
 20  7  1  0
 21 23  1  0
 22 16  1  0
 23 18  1  0
 24 20  2  0
 25 19  1  0
 26 25  2  0
 11  3  1  0
 13 12  1  0
 24 26  1  0
 28 32  2  0
 29 33  1  0
 30 31  1  0
 31 27  2  0
 32 29  1  0
 33 30  1  0
 34 27  1  0
 35 28  1  0
 36 27  1  0
 37 28  1  0
 38 29  2  0
 39 40  1  0
 40 34  2  0
 41 38  1  0
 42 36  2  0
 43 37  2  0
 44 31  1  0
 45 32  1  0
 46 36  1  0
 47 37  1  0
 48 39  1  0
 49 38  1  0
 50 40  1  0
 51 41  1  0
 52 49  2  0
 53 48  2  0
 54 52  1  0
 55 50  2  0
 30 39  2  0
 53 55  1  0
 35 41  2  0
 51 54  2  0
  2 56  1  1
  5 57  1  0
  5 58  1  0
  6 59  1  0
  6 60  1  0
  8 61  1  0
  9 62  1  0
 10 63  1  0
 10 64  1  0
 11 65  1  0
 11 66  1  0
 13 67  1  0
 14 68  1  0
 16 69  1  0
 16 70  1  0
 17 71  1  0
 19 72  1  0
 20 73  1  0
 21 74  1  0
 21 75  1  0
 22 76  1  0
 22 77  1  0
 23 78  1  0
 23 79  1  0
 24 80  1  0
 25 81  1  0
 26 82  1  0
 33 83  1  0
 33 84  1  0
 34 85  1  0
 35 86  1  0
 44 87  1  0
 45 88  1  0
 46 89  1  0
 47 90  1  0
 48 91  1  0
 49 92  1  0
 50 93  1  0
 51 94  1  0
 52 95  1  0
 53 96  1  0
 54 97  1  0
 55 98  1  0
M  END
> <Uni-Dock RESULT> 
ENERGY=   -4.754  LOWER_BOUND=    4.144  UPPER_BOUND=    6.922
INTER + INTRA:          -4.754
INTER:                  -4.754
INTRA:                   0.000
UNBOUND:                 0.000

$$$$

     RDKit          3D

 98103  0  0  0  0  0  0  0  0999 V2000
   50.3161    9.7693   14.8197 N   0  0  0  0  0  0  0  0  0  0  0  0
   50.3209    9.2759   13.4241 C   0  0  1  0  0  0  0  0  0  0  0  0
   49.0146    8.4019   17.1752 N   0  0  0  0  0  0  0  0  0  0  0  0
   49.0942    8.4704   12.9796 C   0  0  0  0  0  0  0  0  0  0  0  0
   51.0670    8.9483   15.7773 C   0  0  0  0  0  0  0  0  0  0  0  0
   49.0366   10.2205   15.3825 C   0  0  0  0  0  0  0  0  0  0  0  0
   50.7139   10.3689   12.4112 C   0  0  0  0  0  0  0  0  0  0  0  0
   47.9540    9.0900   12.4320 C   0  0  0  0  0  0  0  0  0  0  0  0
   49.0932    7.0695   13.0988 C   0  0  0  0  0  0  0  0  0  0  0  0
   50.2370    7.8882   16.5348 C   0  0  0  0  0  0  0  0  0  0  0  0
   48.2329    9.1500   16.1662 C   0  0  0  0  0  0  0  0  0  0  0  0
   46.8683    6.9511   12.1696 C   0  0  0  0  0  0  0  0  0  0  0  0
   47.9872    6.3140   12.6987 C   0  0  0  0  0  0  0  0  0  0  0  0
   46.8476    8.3358   12.0316 C   0  0  0  0  0  0  0  0  0  0  0  0
   45.5076    6.0199   11.6787 Cl  0  0  0  0  0  0  0  0  0  0  0  0
   49.2661    9.2367   18.3689 C   0  0  0  0  0  0  0  0  0  0  0  0
   50.4529    6.3235   23.2660 O   0  0  0  0  0  0  0  0  0  0  0  0
   49.0695    7.4803   20.0486 O   0  0  0  0  0  0  0  0  0  0  0  0
   51.1482    9.9855   11.1263 C   0  0  0  0  0  0  0  0  0  0  0  0
   50.6577   11.7409   12.7060 C   0  0  0  0  0  0  0  0  0  0  0  0
   49.8295    7.2398   22.3726 C   0  0  0  0  0  0  0  0  0  0  0  0
   49.9254    8.5124   19.5609 C   0  0  0  0  0  0  0  0  0  0  0  0
   49.7044    6.6139   20.9859 C   0  0  0  0  0  0  0  0  0  0  0  0
   51.0201   12.6950   11.7523 C   0  0  0  0  0  0  0  0  0  0  0  0
   51.5076   10.9412   10.1742 C   0  0  0  0  0  0  0  0  0  0  0  0
   51.4439   12.2958   10.4868 C   0  0  0  0  0  0  0  0  0  0  0  0
   50.9965    7.1877   18.4525 C   0  0  0  0  0  0  0  0  0  0  0  0
   47.8286    9.9762   12.5630 C   0  0  0  0  0  0  0  0  0  0  0  0
   48.8703    8.4839   14.2165 C   0  0  0  0  0  0  0  0  0  0  0  0
   49.3879    7.8554   16.7161 C   0  0  0  0  0  0  0  0  0  0  0  0
   50.3053    6.9238   17.2623 C   0  0  0  0  0  0  0  0  0  0  0  0
   47.7226    9.0673   13.6258 C   0  0  0  0  0  0  0  0  0  0  0  0
   48.6895    7.5156   15.3925 C   0  0  0  0  0  0  0  0  0  0  0  0
   50.7576    8.3880   19.1244 C   0  0  0  0  0  0  0  0  0  0  0  0
   49.0939   10.2943   12.0638 C   0  0  0  0  0  0  0  0  0  0  0  0
   51.9906    6.2714   19.0668 C   0  0  0  0  0  0  0  0  0  0  0  0
   46.6720   10.6368   11.9070 C   0  0  0  0  0  0  0  0  0  0  0  0
   50.1557    8.7727   13.6546 C   0  0  0  0  0  0  0  0  0  0  0  0
   49.1057    9.0526   17.4486 C   0  0  0  0  0  0  0  0  0  0  0  0
   49.8222    9.3123   18.6471 C   0  0  0  0  0  0  0  0  0  0  0  0
   50.2495    9.7013   12.5844 C   0  0  0  0  0  0  0  0  0  0  0  0
   52.6187    6.4697   20.0906 O   0  0  0  0  0  0  0  0  0  0  0  0
   46.7254   11.4454   10.9979 O   0  0  0  0  0  0  0  0  0  0  0  0
   50.4928    5.7490   16.5738 O   0  0  0  0  0  0  0  0  0  0  0  0
   46.4984    8.7075   14.1390 O   0  0  0  0  0  0  0  0  0  0  0  0
   52.1581    5.1256   18.3733 O   0  0  0  0  0  0  0  0  0  0  0  0
   45.4801   10.2581   12.4176 O   0  0  0  0  0  0  0  0  0  0  0  0
   48.1333   10.0090   17.0770 C   0  0  0  0  0  0  0  0  0  0  0  0
   51.3659    8.1730   14.0740 C   0  0  0  0  0  0  0  0  0  0  0  0
   49.5897   10.4884   19.3801 C   0  0  0  0  0  0  0  0  0  0  0  0
   51.4982   10.0246   12.0245 C   0  0  0  0  0  0  0  0  0  0  0  0
   52.6020    8.4935   13.5049 C   0  0  0  0  0  0  0  0  0  0  0  0
   47.9060   11.1729   17.8186 C   0  0  0  0  0  0  0  0  0  0  0  0
   52.6691    9.4291   12.4848 C   0  0  0  0  0  0  0  0  0  0  0  0
   48.6389   11.4164   18.9689 C   0  0  0  0  0  0  0  0  0  0  0  0
   51.1713    8.5827   13.3395 H   0  0  0  0  0  0  0  0  0  0  0  0
   51.9340    8.4670   15.3059 H   0  0  0  0  0  0  0  0  0  0  0  0
   51.5033    9.6326   16.5179 H   0  0  0  0  0  0  0  0  0  0  0  0
   48.3982   10.6885   14.6255 H   0  0  0  0  0  0  0  0  0  0  0  0
   49.2677   11.0403   16.0756 H   0  0  0  0  0  0  0  0  0  0  0  0
   47.9171   10.1717   12.3068 H   0  0  0  0  0  0  0  0  0  0  0  0
   49.9598    6.5552   13.5083 H   0  0  0  0  0  0  0  0  0  0  0  0
   50.8765    7.3772   17.2622 H   0  0  0  0  0  0  0  0  0  0  0  0
   49.9430    7.0998   15.8331 H   0  0  0  0  0  0  0  0  0  0  0  0
   47.8097    8.4221   15.4656 H   0  0  0  0  0  0  0  0  0  0  0  0
   47.3647    9.6274   16.6393 H   0  0  0  0  0  0  0  0  0  0  0  0
   48.0062    5.2320   12.8084 H   0  0  0  0  0  0  0  0  0  0  0  0
   45.9772    8.8315   11.6113 H   0  0  0  0  0  0  0  0  0  0  0  0
   48.2955    9.6093   18.7256 H   0  0  0  0  0  0  0  0  0  0  0  0
   49.8750   10.1141   18.1207 H   0  0  0  0  0  0  0  0  0  0  0  0
   50.5199    6.7719   24.1284 H   0  0  0  0  0  0  0  0  0  0  0  0
   51.2060    8.9309   10.8638 H   0  0  0  0  0  0  0  0  0  0  0  0
   50.3388   12.0862   13.6858 H   0  0  0  0  0  0  0  0  0  0  0  0
   48.8410    7.5074   22.7600 H   0  0  0  0  0  0  0  0  0  0  0  0
   50.4327    8.1518   22.3417 H   0  0  0  0  0  0  0  0  0  0  0  0
   50.0770    9.2430   20.3636 H   0  0  0  0  0  0  0  0  0  0  0  0
   50.9037    8.1073   19.2853 H   0  0  0  0  0  0  0  0  0  0  0  0
   50.6784    6.2822   20.6091 H   0  0  0  0  0  0  0  0  0  0  0  0
   49.0914    5.7082   21.0602 H   0  0  0  0  0  0  0  0  0  0  0  0
   50.9732   13.7520   11.9997 H   0  0  0  0  0  0  0  0  0  0  0  0
   51.8373   10.6250    9.1876 H   0  0  0  0  0  0  0  0  0  0  0  0
   51.7266   13.0400    9.7463 H   0  0  0  0  0  0  0  0  0  0  0  0
   48.9972    6.5329   15.0125 H   0  0  0  0  0  0  0  0  0  0  0  0
   47.6298    7.3720   15.6416 H   0  0  0  0  0  0  0  0  0  0  0  0
   51.2958    8.5953   20.0485 H   0  0  0  0  0  0  0  0  0  0  0  0
   49.1769   10.9996   11.2375 H   0  0  0  0  0  0  0  0  0  0  0  0
   51.1348    5.1992   17.0703 H   0  0  0  0  0  0  0  0  0  0  0  0
   45.8034    9.1674   13.6224 H   0  0  0  0  0  0  0  0  0  0  0  0
   52.8319    4.6455   18.9074 H   0  0  0  0  0  0  0  0  0  0  0  0
   44.8394   10.7770   11.8787 H   0  0  0  0  0  0  0  0  0  0  0  0
   47.5086    9.8553   16.2046 H   0  0  0  0  0  0  0  0  0  0  0  0
   51.3679    7.4169   14.8499 H   0  0  0  0  0  0  0  0  0  0  0  0
   50.1470   10.6890   20.2928 H   0  0  0  0  0  0  0  0  0  0  0  0
   51.5701   10.7462   11.2126 H   0  0  0  0  0  0  0  0  0  0  0  0
   53.5057    8.0083   13.8662 H   0  0  0  0  0  0  0  0  0  0  0  0
   47.1465   11.8792   17.4934 H   0  0  0  0  0  0  0  0  0  0  0  0
   53.6246    9.6850   12.0376 H   0  0  0  0  0  0  0  0  0  0  0  0
   48.4668   12.3170   19.5515 H   0  0  0  0  0  0  0  0  0  0  0  0
  2  1  1  0
  3 10  1  0
  4  2  1  0
  5  1  1  0
  6  1  1  0
  7  2  1  0
  8  4  2  0
  9  4  1  0
 10  5  1  0
 11  6  1  0
 12 14  2  0
 13  9  2  0
 14  8  1  0
 15 12  1  0
 16  3  1  0
 17 21  1  0
 18 22  1  0
 19  7  2  0
 20  7  1  0
 21 23  1  0
 22 16  1  0
 23 18  1  0
 24 20  2  0
 25 19  1  0
 26 25  2  0
 11  3  1  0
 13 12  1  0
 24 26  1  0
 28 32  2  0
 29 33  1  0
 30 31  1  0
 31 27  2  0
 32 29  1  0
 33 30  1  0
 34 27  1  0
 35 28  1  0
 36 27  1  0
 37 28  1  0
 38 29  2  0
 39 40  1  0
 40 34  2  0
 41 38  1  0
 42 36  2  0
 43 37  2  0
 44 31  1  0
 45 32  1  0
 46 36  1  0
 47 37  1  0
 48 39  1  0
 49 38  1  0
 50 40  1  0
 51 41  1  0
 52 49  2  0
 53 48  2  0
 54 52  1  0
 55 50  2  0
 30 39  2  0
 53 55  1  0
 35 41  2  0
 51 54  2  0
  2 56  1  1
  5 57  1  0
  5 58  1  0
  6 59  1  0
  6 60  1  0
  8 61  1  0
  9 62  1  0
 10 63  1  0
 10 64  1  0
 11 65  1  0
 11 66  1  0
 13 67  1  0
 14 68  1  0
 16 69  1  0
 16 70  1  0
 17 71  1  0
 19 72  1  0
 20 73  1  0
 21 74  1  0
 21 75  1  0
 22 76  1  0
 22 77  1  0
 23 78  1  0
 23 79  1  0
 24 80  1  0
 25 81  1  0
 26 82  1  0
 33 83  1  0
 33 84  1  0
 34 85  1  0
 35 86  1  0
 44 87  1  0
 45 88  1  0
 46 89  1  0
 47 90  1  0
 48 91  1  0
 49 92  1  0
 50 93  1  0
 51 94  1  0
 52 95  1  0
 53 96  1  0
 54 97  1  0
 55 98  1  0
M  END
> <Uni-Dock RESULT> 
ENERGY=   -4.574  LOWER_BOUND=    5.355  UPPER_BOUND=    8.743
INTER + INTRA:          -4.574
INTER:                  -4.574
INTRA:                   0.000
UNBOUND:                 0.000

$$$$
