
     RDKit          3D

 98103  0  0  0  0  0  0  0  0999 V2000
   49.2773    7.7903   19.6541 N   0  0  0  0  0  0  0  0  0  0  0  0
   48.3134    6.6927   19.9607 C   0  0  1  0  0  0  0  0  0  0  0  0
   48.8017   10.5764   18.4484 N   0  0  0  0  0  0  0  0  0  0  0  0
   48.4833    5.4588   19.0601 C   0  0  0  0  0  0  0  0  0  0  0  0
   48.9935    9.0178   20.4416 C   0  0  0  0  0  0  0  0  0  0  0  0
   49.2929    8.1137   18.2013 C   0  0  0  0  0  0  0  0  0  0  0  0
   48.3259    6.2442   21.4327 C   0  0  0  0  0  0  0  0  0  0  0  0
   47.4119    5.0176   18.2612 C   0  0  0  0  0  0  0  0  0  0  0  0
   49.6840    4.7298   19.0300 C   0  0  0  0  0  0  0  0  0  0  0  0
   48.1633   10.0755   19.6862 C   0  0  0  0  0  0  0  0  0  0  0  0
   49.7378    9.5670   17.9007 C   0  0  0  0  0  0  0  0  0  0  0  0
   48.7350    3.1680   17.4537 C   0  0  0  0  0  0  0  0  0  0  0  0
   49.8093    3.5883   18.2337 C   0  0  0  0  0  0  0  0  0  0  0  0
   47.5389    3.8808   17.4583 C   0  0  0  0  0  0  0  0  0  0  0  0
   48.8965    1.7565   16.4825 Cl  0  0  0  0  0  0  0  0  0  0  0  0
   49.4673   11.8700   18.6874 C   0  0  0  0  0  0  0  0  0  0  0  0
   50.7509   16.0360   19.4501 O   0  0  0  0  0  0  0  0  0  0  0  0
   50.5532   13.8438   17.7184 O   0  0  0  0  0  0  0  0  0  0  0  0
   49.4981    6.2477   22.2070 C   0  0  0  0  0  0  0  0  0  0  0  0
   47.1376    5.7800   22.0264 C   0  0  0  0  0  0  0  0  0  0  0  0
   50.2228   16.1783   18.1286 C   0  0  0  0  0  0  0  0  0  0  0  0
   50.0131   12.5507   17.4174 C   0  0  0  0  0  0  0  0  0  0  0  0
   49.5540   14.8734   17.7074 C   0  0  0  0  0  0  0  0  0  0  0  0
   47.1189    5.3590   23.3590 C   0  0  0  0  0  0  0  0  0  0  0  0
   49.4751    5.8373   23.5439 C   0  0  0  0  0  0  0  0  0  0  0  0
   48.2859    5.3911   24.1184 C   0  0  0  0  0  0  0  0  0  0  0  0
   50.5710   10.9557   18.1071 C   0  0  0  0  0  0  0  0  0  0  0  0
   49.1137    5.0376   18.6045 C   0  0  0  0  0  0  0  0  0  0  0  0
   48.3019    7.2779   19.1663 C   0  0  0  0  0  0  0  0  0  0  0  0
   48.4710    9.8325   18.6968 C   0  0  0  0  0  0  0  0  0  0  0  0
   49.7222    9.8380   18.0415 C   0  0  0  0  0  0  0  0  0  0  0  0
   48.5958    6.2736   18.2194 C   0  0  0  0  0  0  0  0  0  0  0  0
   47.6223    8.5654   18.6978 C   0  0  0  0  0  0  0  0  0  0  0  0
   50.1492   12.1023   18.7814 C   0  0  0  0  0  0  0  0  0  0  0  0
   49.3536    4.7822   19.9557 C   0  0  0  0  0  0  0  0  0  0  0  0
   51.9105   10.8949   17.4808 C   0  0  0  0  0  0  0  0  0  0  0  0
   49.4340    3.9538   17.6507 C   0  0  0  0  0  0  0  0  0  0  0  0
   48.5924    7.0314   20.5445 C   0  0  0  0  0  0  0  0  0  0  0  0
   48.0141   11.0403   19.3271 C   0  0  0  0  0  0  0  0  0  0  0  0
   48.8796   12.1658   19.3693 C   0  0  0  0  0  0  0  0  0  0  0  0
   49.1216    5.7662   20.9239 C   0  0  0  0  0  0  0  0  0  0  0  0
   52.3881    9.8857   16.9864 O   0  0  0  0  0  0  0  0  0  0  0  0
   49.2284    2.7688   17.8362 O   0  0  0  0  0  0  0  0  0  0  0  0
   50.0651    8.7260   17.3009 O   0  0  0  0  0  0  0  0  0  0  0  0
   48.3737    6.5317   16.8928 O   0  0  0  0  0  0  0  0  0  0  0  0
   52.5736   12.0607   17.5019 O   0  0  0  0  0  0  0  0  0  0  0  0
   50.0938    4.3949   16.5632 O   0  0  0  0  0  0  0  0  0  0  0  0
   46.7353   11.2078   19.9169 C   0  0  0  0  0  0  0  0  0  0  0  0
   48.3772    7.9702   21.5833 C   0  0  0  0  0  0  0  0  0  0  0  0
   48.4731   13.3587   19.9961 C   0  0  0  0  0  0  0  0  0  0  0  0
   49.4192    5.4930   22.2709 C   0  0  0  0  0  0  0  0  0  0  0  0
   48.6802    7.6846   22.9216 C   0  0  0  0  0  0  0  0  0  0  0  0
   46.3435   12.4054   20.5230 C   0  0  0  0  0  0  0  0  0  0  0  0
   49.2056    6.4469   23.2636 C   0  0  0  0  0  0  0  0  0  0  0  0
   47.2111   13.4813   20.5663 C   0  0  0  0  0  0  0  0  0  0  0  0
   47.3098    7.1066   19.7747 H   0  0  0  0  0  0  0  0  0  0  0  0
   49.9633    9.4599   20.7152 H   0  0  0  0  0  0  0  0  0  0  0  0
   48.4970    8.8044   21.3983 H   0  0  0  0  0  0  0  0  0  0  0  0
   48.2997    7.9685   17.7527 H   0  0  0  0  0  0  0  0  0  0  0  0
   49.9871    7.4326   17.6932 H   0  0  0  0  0  0  0  0  0  0  0  0
   46.4670    5.5554   18.2587 H   0  0  0  0  0  0  0  0  0  0  0  0
   50.5275    5.0512   19.6365 H   0  0  0  0  0  0  0  0  0  0  0  0
   47.2024    9.6282   19.4062 H   0  0  0  0  0  0  0  0  0  0  0  0
   47.9078   10.8922   20.3689 H   0  0  0  0  0  0  0  0  0  0  0  0
   49.7967    9.7017   16.8137 H   0  0  0  0  0  0  0  0  0  0  0  0
   50.7536    9.7004   18.3003 H   0  0  0  0  0  0  0  0  0  0  0  0
   50.7441    3.0337   18.2400 H   0  0  0  0  0  0  0  0  0  0  0  0
   46.7051    3.5492   16.8437 H   0  0  0  0  0  0  0  0  0  0  0  0
   50.2805   11.7659   19.4194 H   0  0  0  0  0  0  0  0  0  0  0  0
   48.7433   12.5533   19.1478 H   0  0  0  0  0  0  0  0  0  0  0  0
   51.3594   15.2738   19.3887 H   0  0  0  0  0  0  0  0  0  0  0  0
   50.4384    6.5856   21.7784 H   0  0  0  0  0  0  0  0  0  0  0  0
   46.2185    5.7332   21.4446 H   0  0  0  0  0  0  0  0  0  0  0  0
   51.0561   16.4263   17.4638 H   0  0  0  0  0  0  0  0  0  0  0  0
   49.5014   17.0005   18.1259 H   0  0  0  0  0  0  0  0  0  0  0  0
   50.8399   11.9623   17.0055 H   0  0  0  0  0  0  0  0  0  0  0  0
   49.2447   12.6248   16.6383 H   0  0  0  0  0  0  0  0  0  0  0  0
   48.7592   14.6243   18.4171 H   0  0  0  0  0  0  0  0  0  0  0  0
   49.1353   14.9723   16.6987 H   0  0  0  0  0  0  0  0  0  0  0  0
   46.1923    5.0052   23.8024 H   0  0  0  0  0  0  0  0  0  0  0  0
   50.3872    5.8581   24.1351 H   0  0  0  0  0  0  0  0  0  0  0  0
   48.2697    5.0614   25.1543 H   0  0  0  0  0  0  0  0  0  0  0  0
   46.7362    8.6637   19.3291 H   0  0  0  0  0  0  0  0  0  0  0  0
   47.2052    8.4548   17.6892 H   0  0  0  0  0  0  0  0  0  0  0  0
   50.8092   12.9665   18.8378 H   0  0  0  0  0  0  0  0  0  0  0  0
   49.7457    3.8068   20.2432 H   0  0  0  0  0  0  0  0  0  0  0  0
   51.0241    8.7825   17.0736 H   0  0  0  0  0  0  0  0  0  0  0  0
   48.8913    7.3446   16.7101 H   0  0  0  0  0  0  0  0  0  0  0  0
   53.4380   11.8743   17.0746 H   0  0  0  0  0  0  0  0  0  0  0  0
   50.2366    3.5903   16.0268 H   0  0  0  0  0  0  0  0  0  0  0  0
   45.9935   10.4120   19.8947 H   0  0  0  0  0  0  0  0  0  0  0  0
   47.9762    8.9554   21.3724 H   0  0  0  0  0  0  0  0  0  0  0  0
   49.1461   14.2158   20.0410 H   0  0  0  0  0  0  0  0  0  0  0  0
   49.8362    4.5281   22.5562 H   0  0  0  0  0  0  0  0  0  0  0  0
   48.5039    8.4338   23.6915 H   0  0  0  0  0  0  0  0  0  0  0  0
   45.3498   12.4902   20.9564 H   0  0  0  0  0  0  0  0  0  0  0  0
   49.4493    6.2252   24.3005 H   0  0  0  0  0  0  0  0  0  0  0  0
   46.9060   14.4145   21.0358 H   0  0  0  0  0  0  0  0  0  0  0  0
  2  1  1  0
  3 10  1  0
  4  2  1  0
  5  1  1  0
  6  1  1  0
  7  2  1  0
  8  4  2  0
  9  4  1  0
 10  5  1  0
 11  6  1  0
 12 14  2  0
 13  9  2  0
 14  8  1  0
 15 12  1  0
 16  3  1  0
 17 21  1  0
 18 22  1  0
 19  7  2  0
 20  7  1  0
 21 23  1  0
 22 16  1  0
 23 18  1  0
 24 20  2  0
 25 19  1  0
 26 25  2  0
 11  3  1  0
 13 12  1  0
 24 26  1  0
 28 32  2  0
 29 33  1  0
 30 31  1  0
 31 27  2  0
 32 29  1  0
 33 30  1  0
 34 27  1  0
 35 28  1  0
 36 27  1  0
 37 28  1  0
 38 29  2  0
 39 40  1  0
 40 34  2  0
 41 38  1  0
 42 36  2  0
 43 37  2  0
 44 31  1  0
 45 32  1  0
 46 36  1  0
 47 37  1  0
 48 39  1  0
 49 38  1  0
 50 40  1  0
 51 41  1  0
 52 49  2  0
 53 48  2  0
 54 52  1  0
 55 50  2  0
 30 39  2  0
 53 55  1  0
 35 41  2  0
 51 54  2  0
  2 56  1  1
  5 57  1  0
  5 58  1  0
  6 59  1  0
  6 60  1  0
  8 61  1  0
  9 62  1  0
 10 63  1  0
 10 64  1  0
 11 65  1  0
 11 66  1  0
 13 67  1  0
 14 68  1  0
 16 69  1  0
 16 70  1  0
 17 71  1  0
 19 72  1  0
 20 73  1  0
 21 74  1  0
 21 75  1  0
 22 76  1  0
 22 77  1  0
 23 78  1  0
 23 79  1  0
 24 80  1  0
 25 81  1  0
 26 82  1  0
 33 83  1  0
 33 84  1  0
 34 85  1  0
 35 86  1  0
 44 87  1  0
 45 88  1  0
 46 89  1  0
 47 90  1  0
 48 91  1  0
 49 92  1  0
 50 93  1  0
 51 94  1  0
 52 95  1  0
 53 96  1  0
 54 97  1  0
 55 98  1  0
M  END
> <Uni-Dock RESULT> 
ENERGY=   -6.407  LOWER_BOUND=    0.000  UPPER_BOUND=    0.000
INTER + INTRA:          -6.407
INTER:                  -6.407
INTRA:                   0.000
UNBOUND:                 0.000

$$$$

     RDKit          3D

 98103  0  0  0  0  0  0  0  0999 V2000
   51.2728    8.9380   10.8955 N   0  0  0  0  0  0  0  0  0  0  0  0
   50.9343   10.0718   11.8053 C   0  0  1  0  0  0  0  0  0  0  0  0
   53.9776    7.6096   10.2937 N   0  0  0  0  0  0  0  0  0  0  0  0
   50.4940   11.3432   11.0622 C   0  0  0  0  0  0  0  0  0  0  0  0
   51.8304    7.7765   11.6355 C   0  0  0  0  0  0  0  0  0  0  0  0
   52.2199    9.3590    9.8271 C   0  0  0  0  0  0  0  0  0  0  0  0
   49.8800    9.7236   12.8707 C   0  0  0  0  0  0  0  0  0  0  0  0
   51.2108   12.5422   11.2330 C   0  0  0  0  0  0  0  0  0  0  0  0
   49.3643   11.3529   10.2269 C   0  0  0  0  0  0  0  0  0  0  0  0
   53.3712    7.7105   11.6401 C   0  0  0  0  0  0  0  0  0  0  0  0
   53.0769    8.1935    9.2725 C   0  0  0  0  0  0  0  0  0  0  0  0
   49.6783   13.7027    9.7741 C   0  0  0  0  0  0  0  0  0  0  0  0
   48.9558   12.5269    9.5882 C   0  0  0  0  0  0  0  0  0  0  0  0
   50.8079   13.7148   10.5881 C   0  0  0  0  0  0  0  0  0  0  0  0
   49.1626   15.1448    8.9894 Cl  0  0  0  0  0  0  0  0  0  0  0  0
   54.3309    6.2130    9.9804 C   0  0  0  0  0  0  0  0  0  0  0  0
   55.9509    2.1163    9.5596 O   0  0  0  0  0  0  0  0  0  0  0  0
   55.5141    4.6670    8.4890 O   0  0  0  0  0  0  0  0  0  0  0  0
   48.8333    8.8202   12.6217 C   0  0  0  0  0  0  0  0  0  0  0  0
   49.9335   10.3492   14.1300 C   0  0  0  0  0  0  0  0  0  0  0  0
   57.0149    2.8648    8.9653 C   0  0  0  0  0  0  0  0  0  0  0  0
   55.1229    6.0340    8.6709 C   0  0  0  0  0  0  0  0  0  0  0  0
   56.7493    4.3558    9.1493 C   0  0  0  0  0  0  0  0  0  0  0  0
   48.9859   10.0593   15.1156 C   0  0  0  0  0  0  0  0  0  0  0  0
   47.8928    8.5222   13.6132 C   0  0  0  0  0  0  0  0  0  0  0  0
   47.9685    9.1436   14.8588 C   0  0  0  0  0  0  0  0  0  0  0  0
   53.4159    6.6626    8.8178 C   0  0  0  0  0  0  0  0  0  0  0  0
   50.1010   11.5810   10.3063 C   0  0  0  0  0  0  0  0  0  0  0  0
   51.7304   10.0025   11.2264 C   0  0  0  0  0  0  0  0  0  0  0  0
   53.5479    8.2101   10.7171 C   0  0  0  0  0  0  0  0  0  0  0  0
   53.1908    7.9307    9.3794 C   0  0  0  0  0  0  0  0  0  0  0  0
   51.3950   11.0643   10.3595 C   0  0  0  0  0  0  0  0  0  0  0  0
   53.1908    9.5602   11.3300 C   0  0  0  0  0  0  0  0  0  0  0  0
   54.0552    5.6785    9.5730 C   0  0  0  0  0  0  0  0  0  0  0  0
   49.1083   11.0375   11.1234 C   0  0  0  0  0  0  0  0  0  0  0  0
   52.9515    6.3790    7.4416 C   0  0  0  0  0  0  0  0  0  0  0  0
   49.7024   12.6939    9.4178 C   0  0  0  0  0  0  0  0  0  0  0  0
   50.7015    9.4163   12.0280 C   0  0  0  0  0  0  0  0  0  0  0  0
   54.2693    7.2163   11.4633 C   0  0  0  0  0  0  0  0  0  0  0  0
   54.5022    5.9455   10.8731 C   0  0  0  0  0  0  0  0  0  0  0  0
   49.3851    9.9526   11.9635 C   0  0  0  0  0  0  0  0  0  0  0  0
   52.2788    7.1501    6.7753 O   0  0  0  0  0  0  0  0  0  0  0  0
   48.9467   13.5992    9.7185 O   0  0  0  0  0  0  0  0  0  0  0  0
   52.6519    8.9558    8.6302 O   0  0  0  0  0  0  0  0  0  0  0  0
   52.3670   11.5861    9.5479 O   0  0  0  0  0  0  0  0  0  0  0  0
   53.3342    5.1811    6.9750 O   0  0  0  0  0  0  0  0  0  0  0  0
   50.1808   12.5589    8.1666 O   0  0  0  0  0  0  0  0  0  0  0  0
   54.7884    7.4081   12.7691 C   0  0  0  0  0  0  0  0  0  0  0  0
   50.9032    8.3251   12.9085 C   0  0  0  0  0  0  0  0  0  0  0  0
   55.1877    4.9413   11.5823 C   0  0  0  0  0  0  0  0  0  0  0  0
   48.3507    9.3978   12.7381 C   0  0  0  0  0  0  0  0  0  0  0  0
   49.8623    7.7812   13.6733 C   0  0  0  0  0  0  0  0  0  0  0  0
   55.4794    6.4031   13.4530 C   0  0  0  0  0  0  0  0  0  0  0  0
   48.5851    8.3157   13.5837 C   0  0  0  0  0  0  0  0  0  0  0  0
   55.6781    5.1683   12.8632 C   0  0  0  0  0  0  0  0  0  0  0  0
   51.8588   10.3091   12.3549 H   0  0  0  0  0  0  0  0  0  0  0  0
   51.4397    6.8670   11.1549 H   0  0  0  0  0  0  0  0  0  0  0  0
   51.4771    7.7246   12.6746 H   0  0  0  0  0  0  0  0  0  0  0  0
   52.9075   10.1358   10.1912 H   0  0  0  0  0  0  0  0  0  0  0  0
   51.6483    9.7882    8.9947 H   0  0  0  0  0  0  0  0  0  0  0  0
   52.0899   12.5737   11.8722 H   0  0  0  0  0  0  0  0  0  0  0  0
   48.7944   10.4390   10.0767 H   0  0  0  0  0  0  0  0  0  0  0  0
   53.7569    8.6228   12.1100 H   0  0  0  0  0  0  0  0  0  0  0  0
   53.6979    6.8951   12.2934 H   0  0  0  0  0  0  0  0  0  0  0  0
   53.6890    8.5677    8.4428 H   0  0  0  0  0  0  0  0  0  0  0  0
   52.3942    7.4379    8.8576 H   0  0  0  0  0  0  0  0  0  0  0  0
   48.0696   12.5108    8.9591 H   0  0  0  0  0  0  0  0  0  0  0  0
   51.3698   14.6357   10.7259 H   0  0  0  0  0  0  0  0  0  0  0  0
   53.4353    5.5767    9.9508 H   0  0  0  0  0  0  0  0  0  0  0  0
   54.9450    5.8181   10.7988 H   0  0  0  0  0  0  0  0  0  0  0  0
   55.1452    2.4396    9.1111 H   0  0  0  0  0  0  0  0  0  0  0  0
   48.7505    8.3283   11.6557 H   0  0  0  0  0  0  0  0  0  0  0  0
   50.7125   11.0791   14.3445 H   0  0  0  0  0  0  0  0  0  0  0  0
   57.0539    2.5997    7.9041 H   0  0  0  0  0  0  0  0  0  0  0  0
   57.9555    2.5781    9.4442 H   0  0  0  0  0  0  0  0  0  0  0  0
   54.4889    6.2871    7.8146 H   0  0  0  0  0  0  0  0  0  0  0  0
   55.9982    6.6940    8.6361 H   0  0  0  0  0  0  0  0  0  0  0  0
   56.6651    4.5832   10.2164 H   0  0  0  0  0  0  0  0  0  0  0  0
   57.5637    4.9417    8.7066 H   0  0  0  0  0  0  0  0  0  0  0  0
   49.0431   10.5500   16.0832 H   0  0  0  0  0  0  0  0  0  0  0  0
   47.0960    7.8108   13.4109 H   0  0  0  0  0  0  0  0  0  0  0  0
   47.2312    8.9208   15.6261 H   0  0  0  0  0  0  0  0  0  0  0  0
   53.4249    9.6035   12.3961 H   0  0  0  0  0  0  0  0  0  0  0  0
   53.8673   10.3037   10.8905 H   0  0  0  0  0  0  0  0  0  0  0  0
   54.2244    4.6937    9.1402 H   0  0  0  0  0  0  0  0  0  0  0  0
   48.1047   11.4606   11.0811 H   0  0  0  0  0  0  0  0  0  0  0  0
   52.2716    8.5747    7.8027 H   0  0  0  0  0  0  0  0  0  0  0  0
   52.7043   10.8167    9.0417 H   0  0  0  0  0  0  0  0  0  0  0  0
   52.9500    5.1201    6.0732 H   0  0  0  0  0  0  0  0  0  0  0  0
   49.8497   13.3495    7.6969 H   0  0  0  0  0  0  0  0  0  0  0  0
   54.6922    8.3632   13.2815 H   0  0  0  0  0  0  0  0  0  0  0  0
   51.8789    7.8633   13.0122 H   0  0  0  0  0  0  0  0  0  0  0  0
   55.3507    3.9612   11.1325 H   0  0  0  0  0  0  0  0  0  0  0  0
   47.3414    9.8024   12.6767 H   0  0  0  0  0  0  0  0  0  0  0  0
   50.0561    6.9398   14.3363 H   0  0  0  0  0  0  0  0  0  0  0  0
   55.8659    6.5979   14.4506 H   0  0  0  0  0  0  0  0  0  0  0  0
   47.7733    7.8905   14.1702 H   0  0  0  0  0  0  0  0  0  0  0  0
   56.2178    4.3864   13.3940 H   0  0  0  0  0  0  0  0  0  0  0  0
  2  1  1  0
  3 10  1  0
  4  2  1  0
  5  1  1  0
  6  1  1  0
  7  2  1  0
  8  4  2  0
  9  4  1  0
 10  5  1  0
 11  6  1  0
 12 14  2  0
 13  9  2  0
 14  8  1  0
 15 12  1  0
 16  3  1  0
 17 21  1  0
 18 22  1  0
 19  7  2  0
 20  7  1  0
 21 23  1  0
 22 16  1  0
 23 18  1  0
 24 20  2  0
 25 19  1  0
 26 25  2  0
 11  3  1  0
 13 12  1  0
 24 26  1  0
 28 32  2  0
 29 33  1  0
 30 31  1  0
 31 27  2  0
 32 29  1  0
 33 30  1  0
 34 27  1  0
 35 28  1  0
 36 27  1  0
 37 28  1  0
 38 29  2  0
 39 40  1  0
 40 34  2  0
 41 38  1  0
 42 36  2  0
 43 37  2  0
 44 31  1  0
 45 32  1  0
 46 36  1  0
 47 37  1  0
 48 39  1  0
 49 38  1  0
 50 40  1  0
 51 41  1  0
 52 49  2  0
 53 48  2  0
 54 52  1  0
 55 50  2  0
 30 39  2  0
 53 55  1  0
 35 41  2  0
 51 54  2  0
  2 56  1  1
  5 57  1  0
  5 58  1  0
  6 59  1  0
  6 60  1  0
  8 61  1  0
  9 62  1  0
 10 63  1  0
 10 64  1  0
 11 65  1  0
 11 66  1  0
 13 67  1  0
 14 68  1  0
 16 69  1  0
 16 70  1  0
 17 71  1  0
 19 72  1  0
 20 73  1  0
 21 74  1  0
 21 75  1  0
 22 76  1  0
 22 77  1  0
 23 78  1  0
 23 79  1  0
 24 80  1  0
 25 81  1  0
 26 82  1  0
 33 83  1  0
 33 84  1  0
 34 85  1  0
 35 86  1  0
 44 87  1  0
 45 88  1  0
 46 89  1  0
 47 90  1  0
 48 91  1  0
 49 92  1  0
 50 93  1  0
 51 94  1  0
 52 95  1  0
 53 96  1  0
 54 97  1  0
 55 98  1  0
M  END
> <Uni-Dock RESULT> 
ENERGY=   -5.602  LOWER_BOUND=    7.947  UPPER_BOUND=   11.326
INTER + INTRA:          -5.602
INTER:                  -5.602
INTRA:                   0.000
UNBOUND:                 0.000

$$$$

     RDKit          3D

 98103  0  0  0  0  0  0  0  0999 V2000
   49.2474    7.1191   18.2264 N   0  0  0  0  0  0  0  0  0  0  0  0
   50.0310    5.8559   18.3615 C   0  0  1  0  0  0  0  0  0  0  0  0
   49.9063    9.7177   16.7244 N   0  0  0  0  0  0  0  0  0  0  0  0
   50.5554    5.6096   19.7851 C   0  0  0  0  0  0  0  0  0  0  0  0
   48.8797    7.3989   16.8142 C   0  0  0  0  0  0  0  0  0  0  0  0
   49.9816    8.2811   18.7976 C   0  0  0  0  0  0  0  0  0  0  0  0
   49.2806    4.6017   17.8799 C   0  0  0  0  0  0  0  0  0  0  0  0
   51.9384    5.4848   20.0139 C   0  0  0  0  0  0  0  0  0  0  0  0
   49.6822    5.4751   20.8776 C   0  0  0  0  0  0  0  0  0  0  0  0
   49.8290    8.3798   16.0963 C   0  0  0  0  0  0  0  0  0  0  0  0
   49.5737    9.6357   18.1658 C   0  0  0  0  0  0  0  0  0  0  0  0
   51.5460    5.0911   22.3623 C   0  0  0  0  0  0  0  0  0  0  0  0
   50.1738    5.2140   22.1595 C   0  0  0  0  0  0  0  0  0  0  0  0
   52.4314    5.2319   21.2970 C   0  0  0  0  0  0  0  0  0  0  0  0
   52.1408    4.7617   23.9431 Cl  0  0  0  0  0  0  0  0  0  0  0  0
   49.0441   10.6810   16.0157 C   0  0  0  0  0  0  0  0  0  0  0  0
   46.9817   13.5285   13.3282 O   0  0  0  0  0  0  0  0  0  0  0  0
   48.3980   13.0243   15.6910 O   0  0  0  0  0  0  0  0  0  0  0  0
   47.8892    4.4628   18.0155 C   0  0  0  0  0  0  0  0  0  0  0  0
   50.0037    3.5354   17.3139 C   0  0  0  0  0  0  0  0  0  0  0  0
   48.1189   14.3144   13.6948 C   0  0  0  0  0  0  0  0  0  0  0  0
   49.1903   12.1388   16.4927 C   0  0  0  0  0  0  0  0  0  0  0  0
   49.0848   13.4586   14.5086 C   0  0  0  0  0  0  0  0  0  0  0  0
   49.3514    2.3803   16.8740 C   0  0  0  0  0  0  0  0  0  0  0  0
   47.2366    3.3111   17.5638 C   0  0  0  0  0  0  0  0  0  0  0  0
   47.9685    2.2696   16.9954 C   0  0  0  0  0  0  0  0  0  0  0  0
   48.5774   10.7377   17.4888 C   0  0  0  0  0  0  0  0  0  0  0  0
   50.3423    5.7928   20.6238 C   0  0  0  0  0  0  0  0  0  0  0  0
   50.3915    6.7742   18.3815 C   0  0  0  0  0  0  0  0  0  0  0  0
   50.1487    8.9329   16.9475 C   0  0  0  0  0  0  0  0  0  0  0  0
   49.4717    9.7328   17.8944 C   0  0  0  0  0  0  0  0  0  0  0  0
   50.8065    6.7574   19.7303 C   0  0  0  0  0  0  0  0  0  0  0  0
   51.0275    7.7797   17.4204 C   0  0  0  0  0  0  0  0  0  0  0  0
   48.3968   10.9909   16.1284 C   0  0  0  0  0  0  0  0  0  0  0  0
   49.4428    4.8209   20.1822 C   0  0  0  0  0  0  0  0  0  0  0  0
   47.8210   11.4988   18.5079 C   0  0  0  0  0  0  0  0  0  0  0  0
   50.7504    5.7321   22.0439 C   0  0  0  0  0  0  0  0  0  0  0  0
   49.4342    5.8066   17.9431 C   0  0  0  0  0  0  0  0  0  0  0  0
   50.0124    9.2469   15.5519 C   0  0  0  0  0  0  0  0  0  0  0  0
   49.1161   10.2773   15.1615 C   0  0  0  0  0  0  0  0  0  0  0  0
   48.9680    4.8285   18.8654 C   0  0  0  0  0  0  0  0  0  0  0  0
   47.8381   11.2447   19.7021 O   0  0  0  0  0  0  0  0  0  0  0  0
   50.9858    4.7130   22.6661 O   0  0  0  0  0  0  0  0  0  0  0  0
   49.7488    9.5226   19.2292 O   0  0  0  0  0  0  0  0  0  0  0  0
   51.6774    7.7207   20.1650 O   0  0  0  0  0  0  0  0  0  0  0  0
   47.0977   12.5102   18.0047 O   0  0  0  0  0  0  0  0  0  0  0  0
   50.7366    6.9381   22.6421 O   0  0  0  0  0  0  0  0  0  0  0  0
   50.7237    8.6029   14.5076 C   0  0  0  0  0  0  0  0  0  0  0  0
   48.9133    5.7421   16.6274 C   0  0  0  0  0  0  0  0  0  0  0  0
   48.9423   10.5983   13.8021 C   0  0  0  0  0  0  0  0  0  0  0  0
   48.0257    3.8641   18.4659 C   0  0  0  0  0  0  0  0  0  0  0  0
   47.9731    4.7762   16.2437 C   0  0  0  0  0  0  0  0  0  0  0  0
   50.5483    8.9448   13.1631 C   0  0  0  0  0  0  0  0  0  0  0  0
   47.5264    3.8403   17.1655 C   0  0  0  0  0  0  0  0  0  0  0  0
   49.6566    9.9401   12.8075 C   0  0  0  0  0  0  0  0  0  0  0  0
   50.9033    5.9650   17.6981 H   0  0  0  0  0  0  0  0  0  0  0  0
   47.8670    7.8293   16.8212 H   0  0  0  0  0  0  0  0  0  0  0  0
   48.7980    6.4868   16.2070 H   0  0  0  0  0  0  0  0  0  0  0  0
   51.0674    8.1656   18.6686 H   0  0  0  0  0  0  0  0  0  0  0  0
   49.7811    8.3332   19.8750 H   0  0  0  0  0  0  0  0  0  0  0  0
   52.6449    5.5821   19.1931 H   0  0  0  0  0  0  0  0  0  0  0  0
   48.6093    5.5693   20.7277 H   0  0  0  0  0  0  0  0  0  0  0  0
   50.8385    7.9524   16.1006 H   0  0  0  0  0  0  0  0  0  0  0  0
   49.5528    8.4442   15.0390 H   0  0  0  0  0  0  0  0  0  0  0  0
   50.0991   10.4434   18.6900 H   0  0  0  0  0  0  0  0  0  0  0  0
   48.4977    9.7810   18.3402 H   0  0  0  0  0  0  0  0  0  0  0  0
   49.4760    5.0995   22.9849 H   0  0  0  0  0  0  0  0  0  0  0  0
   53.5022    5.1386   21.4630 H   0  0  0  0  0  0  0  0  0  0  0  0
   47.9876   10.3847   16.0779 H   0  0  0  0  0  0  0  0  0  0  0  0
   49.2950   10.6520   14.9484 H   0  0  0  0  0  0  0  0  0  0  0  0
   46.6197   13.2118   14.1788 H   0  0  0  0  0  0  0  0  0  0  0  0
   47.2986    5.2593   18.4613 H   0  0  0  0  0  0  0  0  0  0  0  0
   51.0871    3.5970   17.2244 H   0  0  0  0  0  0  0  0  0  0  0  0
   47.7583   15.1660   14.2801 H   0  0  0  0  0  0  0  0  0  0  0  0
   48.6009   14.6804   12.7836 H   0  0  0  0  0  0  0  0  0  0  0  0
   48.8146   12.2350   17.5169 H   0  0  0  0  0  0  0  0  0  0  0  0
   50.2397   12.4575   16.4981 H   0  0  0  0  0  0  0  0  0  0  0  0
   49.3894   12.5891   13.9180 H   0  0  0  0  0  0  0  0  0  0  0  0
   49.9671   14.0469   14.7877 H   0  0  0  0  0  0  0  0  0  0  0  0
   49.9249    1.5672   16.4376 H   0  0  0  0  0  0  0  0  0  0  0  0
   46.1576    3.2230   17.6629 H   0  0  0  0  0  0  0  0  0  0  0  0
   47.4631    1.3695   16.6544 H   0  0  0  0  0  0  0  0  0  0  0  0
   51.4014    7.1786   16.5885 H   0  0  0  0  0  0  0  0  0  0  0  0
   51.9379    8.2202   17.8455 H   0  0  0  0  0  0  0  0  0  0  0  0
   47.6992   11.7654   15.8135 H   0  0  0  0  0  0  0  0  0  0  0  0
   49.0992    4.0652   20.8884 H   0  0  0  0  0  0  0  0  0  0  0  0
   49.0725    9.9971   19.7697 H   0  0  0  0  0  0  0  0  0  0  0  0
   51.2352    8.5688   19.9475 H   0  0  0  0  0  0  0  0  0  0  0  0
   46.6428   12.9120   18.7769 H   0  0  0  0  0  0  0  0  0  0  0  0
   51.0244    6.7546   23.5581 H   0  0  0  0  0  0  0  0  0  0  0  0
   51.4606    7.8303   14.7176 H   0  0  0  0  0  0  0  0  0  0  0  0
   49.2212    6.4532   15.8687 H   0  0  0  0  0  0  0  0  0  0  0  0
   48.2412   11.3790   13.5045 H   0  0  0  0  0  0  0  0  0  0  0  0
   47.6612    3.1248   19.1778 H   0  0  0  0  0  0  0  0  0  0  0  0
   47.5934    4.7612   15.2236 H   0  0  0  0  0  0  0  0  0  0  0  0
   51.1209    8.4282   12.3965 H   0  0  0  0  0  0  0  0  0  0  0  0
   46.7906    3.0942   16.8727 H   0  0  0  0  0  0  0  0  0  0  0  0
   49.5212   10.2083   11.7615 H   0  0  0  0  0  0  0  0  0  0  0  0
  2  1  1  0
  3 10  1  0
  4  2  1  0
  5  1  1  0
  6  1  1  0
  7  2  1  0
  8  4  2  0
  9  4  1  0
 10  5  1  0
 11  6  1  0
 12 14  2  0
 13  9  2  0
 14  8  1  0
 15 12  1  0
 16  3  1  0
 17 21  1  0
 18 22  1  0
 19  7  2  0
 20  7  1  0
 21 23  1  0
 22 16  1  0
 23 18  1  0
 24 20  2  0
 25 19  1  0
 26 25  2  0
 11  3  1  0
 13 12  1  0
 24 26  1  0
 28 32  2  0
 29 33  1  0
 30 31  1  0
 31 27  2  0
 32 29  1  0
 33 30  1  0
 34 27  1  0
 35 28  1  0
 36 27  1  0
 37 28  1  0
 38 29  2  0
 39 40  1  0
 40 34  2  0
 41 38  1  0
 42 36  2  0
 43 37  2  0
 44 31  1  0
 45 32  1  0
 46 36  1  0
 47 37  1  0
 48 39  1  0
 49 38  1  0
 50 40  1  0
 51 41  1  0
 52 49  2  0
 53 48  2  0
 54 52  1  0
 55 50  2  0
 30 39  2  0
 53 55  1  0
 35 41  2  0
 51 54  2  0
  2 56  1  1
  5 57  1  0
  5 58  1  0
  6 59  1  0
  6 60  1  0
  8 61  1  0
  9 62  1  0
 10 63  1  0
 10 64  1  0
 11 65  1  0
 11 66  1  0
 13 67  1  0
 14 68  1  0
 16 69  1  0
 16 70  1  0
 17 71  1  0
 19 72  1  0
 20 73  1  0
 21 74  1  0
 21 75  1  0
 22 76  1  0
 22 77  1  0
 23 78  1  0
 23 79  1  0
 24 80  1  0
 25 81  1  0
 26 82  1  0
 33 83  1  0
 33 84  1  0
 34 85  1  0
 35 86  1  0
 44 87  1  0
 45 88  1  0
 46 89  1  0
 47 90  1  0
 48 91  1  0
 49 92  1  0
 50 93  1  0
 51 94  1  0
 52 95  1  0
 53 96  1  0
 54 97  1  0
 55 98  1  0
M  END
> <Uni-Dock RESULT> 
ENERGY=   -5.538  LOWER_BOUND=    2.824  UPPER_BOUND=    4.925
INTER + INTRA:          -5.538
INTER:                  -5.538
INTRA:                   0.000
UNBOUND:                 0.000

$$$$

     RDKit          3D

 98103  0  0  0  0  0  0  0  0999 V2000
   49.8275    8.1036   14.1310 N   0  0  0  0  0  0  0  0  0  0  0  0
   48.6579    8.9574   13.7691 C   0  0  1  0  0  0  0  0  0  0  0  0
   51.1127    7.5461   16.8659 N   0  0  0  0  0  0  0  0  0  0  0  0
   49.0384   10.2044   12.9550 C   0  0  0  0  0  0  0  0  0  0  0  0
   49.4453    6.9890   15.0361 C   0  0  0  0  0  0  0  0  0  0  0  0
   50.9188    8.9054   14.7489 C   0  0  0  0  0  0  0  0  0  0  0  0
   47.5373    8.2015   13.0335 C   0  0  0  0  0  0  0  0  0  0  0  0
   48.7341   11.4869   13.4484 C   0  0  0  0  0  0  0  0  0  0  0  0
   49.6647   10.1016   11.7015 C   0  0  0  0  0  0  0  0  0  0  0  0
   49.6971    7.2738   16.5308 C   0  0  0  0  0  0  0  0  0  0  0  0
   51.8338    8.0776   15.6858 C   0  0  0  0  0  0  0  0  0  0  0  0
   49.6568   12.5034   11.4637 C   0  0  0  0  0  0  0  0  0  0  0  0
   49.9699   11.2445   10.9574 C   0  0  0  0  0  0  0  0  0  0  0  0
   49.0464   12.6308   12.7087 C   0  0  0  0  0  0  0  0  0  0  0  0
   50.0296   13.9042   10.5363 Cl  0  0  0  0  0  0  0  0  0  0  0  0
   51.7643    6.3410   17.4108 C   0  0  0  0  0  0  0  0  0  0  0  0
   53.2866    2.8527   19.6688 O   0  0  0  0  0  0  0  0  0  0  0  0
   53.7145    5.3834   18.5482 O   0  0  0  0  0  0  0  0  0  0  0  0
   47.8030    7.1413   12.1510 C   0  0  0  0  0  0  0  0  0  0  0  0
   46.1991    8.5968   13.2151 C   0  0  0  0  0  0  0  0  0  0  0  0
   53.8700    3.9134   20.4304 C   0  0  0  0  0  0  0  0  0  0  0  0
   53.1901    6.5740   17.9466 C   0  0  0  0  0  0  0  0  0  0  0  0
   53.3371    5.2511   19.9261 C   0  0  0  0  0  0  0  0  0  0  0  0
   45.1601    7.9347   12.5552 C   0  0  0  0  0  0  0  0  0  0  0  0
   46.7611    6.4720   11.5006 C   0  0  0  0  0  0  0  0  0  0  0  0
   45.4405    6.8706   11.7015 C   0  0  0  0  0  0  0  0  0  0  0  0
   52.6477    6.7648   16.2145 C   0  0  0  0  0  0  0  0  0  0  0  0
   49.6559   10.4734   12.3817 C   0  0  0  0  0  0  0  0  0  0  0  0
   49.3563    9.1708   14.4327 C   0  0  0  0  0  0  0  0  0  0  0  0
   50.5104    7.9516   16.4219 C   0  0  0  0  0  0  0  0  0  0  0  0
   51.8038    7.8330   15.8668 C   0  0  0  0  0  0  0  0  0  0  0  0
   49.9167   10.2620   13.7351 C   0  0  0  0  0  0  0  0  0  0  0  0
   49.5790    9.0596   15.9418 C   0  0  0  0  0  0  0  0  0  0  0  0
   52.2266    5.8362   17.1673 C   0  0  0  0  0  0  0  0  0  0  0  0
   48.8257    9.5870   11.6936 C   0  0  0  0  0  0  0  0  0  0  0  0
   53.9623    6.6246   15.5494 C   0  0  0  0  0  0  0  0  0  0  0  0
   50.2165   11.6031   11.6093 C   0  0  0  0  0  0  0  0  0  0  0  0
   48.5443    8.2379   13.7149 C   0  0  0  0  0  0  0  0  0  0  0  0
   50.1128    7.0338   17.4536 C   0  0  0  0  0  0  0  0  0  0  0  0
   50.9862    5.9698   17.8037 C   0  0  0  0  0  0  0  0  0  0  0  0
   48.2868    8.4651   12.3341 C   0  0  0  0  0  0  0  0  0  0  0  0
   54.3373    7.3261   14.6230 O   0  0  0  0  0  0  0  0  0  0  0  0
   49.6171   12.2481   10.7692 O   0  0  0  0  0  0  0  0  0  0  0  0
   52.2264    8.8226   15.0039 O   0  0  0  0  0  0  0  0  0  0  0  0
   50.7429   11.1219   14.4085 O   0  0  0  0  0  0  0  0  0  0  0  0
   54.7245    5.6430   16.0541 O   0  0  0  0  0  0  0  0  0  0  0  0
   51.5274   11.7971   11.8468 O   0  0  0  0  0  0  0  0  0  0  0  0
   48.8942    7.1105   18.1749 C   0  0  0  0  0  0  0  0  0  0  0  0
   47.9559    7.0860   14.2924 C   0  0  0  0  0  0  0  0  0  0  0  0
   50.6208    5.0402   18.7956 C   0  0  0  0  0  0  0  0  0  0  0  0
   47.4934    7.5657   11.5996 C   0  0  0  0  0  0  0  0  0  0  0  0
   47.1686    6.1973   13.5477 C   0  0  0  0  0  0  0  0  0  0  0  0
   48.5542    6.1859   19.1672 C   0  0  0  0  0  0  0  0  0  0  0  0
   46.9418    6.4359   12.1998 C   0  0  0  0  0  0  0  0  0  0  0  0
   49.4142    5.1485   19.4776 C   0  0  0  0  0  0  0  0  0  0  0  0
   48.2231    9.2997   14.7213 H   0  0  0  0  0  0  0  0  0  0  0  0
   50.0389    6.1112   14.7393 H   0  0  0  0  0  0  0  0  0  0  0  0
   48.3981    6.6804   14.9126 H   0  0  0  0  0  0  0  0  0  0  0  0
   50.5122    9.7433   15.3334 H   0  0  0  0  0  0  0  0  0  0  0  0
   51.5419    9.3307   13.9521 H   0  0  0  0  0  0  0  0  0  0  0  0
   48.2489   11.6062   14.4141 H   0  0  0  0  0  0  0  0  0  0  0  0
   49.9122    9.1223   11.2989 H   0  0  0  0  0  0  0  0  0  0  0  0
   49.1124    8.1549   16.8201 H   0  0  0  0  0  0  0  0  0  0  0  0
   49.2896    6.4537   17.1305 H   0  0  0  0  0  0  0  0  0  0  0  0
   52.6519    8.7177   16.0380 H   0  0  0  0  0  0  0  0  0  0  0  0
   52.2856    7.2699   15.0919 H   0  0  0  0  0  0  0  0  0  0  0  0
   50.4410   11.1367    9.9838 H   0  0  0  0  0  0  0  0  0  0  0  0
   48.8082   13.6172   13.0999 H   0  0  0  0  0  0  0  0  0  0  0  0
   51.7859    5.5333   16.6658 H   0  0  0  0  0  0  0  0  0  0  0  0
   51.1542    5.9606   18.2390 H   0  0  0  0  0  0  0  0  0  0  0  0
   53.5247    3.0573   18.7434 H   0  0  0  0  0  0  0  0  0  0  0  0
   48.8255    6.8171   11.9739 H   0  0  0  0  0  0  0  0  0  0  0  0
   45.9611    9.4360   13.8666 H   0  0  0  0  0  0  0  0  0  0  0  0
   54.9558    3.8507   20.3081 H   0  0  0  0  0  0  0  0  0  0  0  0
   53.6161    3.7692   21.4845 H   0  0  0  0  0  0  0  0  0  0  0  0
   53.8635    6.8204   17.1189 H   0  0  0  0  0  0  0  0  0  0  0  0
   53.2225    7.4109   18.6547 H   0  0  0  0  0  0  0  0  0  0  0  0
   52.2464    5.2665   20.0134 H   0  0  0  0  0  0  0  0  0  0  0  0
   53.7691    6.0734   20.5090 H   0  0  0  0  0  0  0  0  0  0  0  0
   44.1322    8.2516   12.7081 H   0  0  0  0  0  0  0  0  0  0  0  0
   46.9806    5.6444   10.8308 H   0  0  0  0  0  0  0  0  0  0  0  0
   44.6310    6.3580   11.1876 H   0  0  0  0  0  0  0  0  0  0  0  0
   48.5780    8.9707   16.3699 H   0  0  0  0  0  0  0  0  0  0  0  0
   49.9530   10.0013   16.3625 H   0  0  0  0  0  0  0  0  0  0  0  0
   52.8778    5.0048   17.4326 H   0  0  0  0  0  0  0  0  0  0  0  0
   48.6198    9.7727   10.6396 H   0  0  0  0  0  0  0  0  0  0  0  0
   53.0452    8.5135   14.5472 H   0  0  0  0  0  0  0  0  0  0  0  0
   51.4463   10.5478   14.7796 H   0  0  0  0  0  0  0  0  0  0  0  0
   55.5472    5.6527   15.5176 H   0  0  0  0  0  0  0  0  0  0  0  0
   51.7624   12.5610   11.2840 H   0  0  0  0  0  0  0  0  0  0  0  0
   48.1837    7.9162   18.0012 H   0  0  0  0  0  0  0  0  0  0  0  0
   48.1064    6.8463   15.3393 H   0  0  0  0  0  0  0  0  0  0  0  0
   51.2866    4.2149   19.0507 H   0  0  0  0  0  0  0  0  0  0  0  0
   47.3088    7.7356   10.5397 H   0  0  0  0  0  0  0  0  0  0  0  0
   46.7363    5.3204   14.0265 H   0  0  0  0  0  0  0  0  0  0  0  0
   47.6115    6.2885   19.6993 H   0  0  0  0  0  0  0  0  0  0  0  0
   46.3377    5.7435   11.6172 H   0  0  0  0  0  0  0  0  0  0  0  0
   49.1513    4.4298   20.2514 H   0  0  0  0  0  0  0  0  0  0  0  0
  2  1  1  0
  3 10  1  0
  4  2  1  0
  5  1  1  0
  6  1  1  0
  7  2  1  0
  8  4  2  0
  9  4  1  0
 10  5  1  0
 11  6  1  0
 12 14  2  0
 13  9  2  0
 14  8  1  0
 15 12  1  0
 16  3  1  0
 17 21  1  0
 18 22  1  0
 19  7  2  0
 20  7  1  0
 21 23  1  0
 22 16  1  0
 23 18  1  0
 24 20  2  0
 25 19  1  0
 26 25  2  0
 11  3  1  0
 13 12  1  0
 24 26  1  0
 28 32  2  0
 29 33  1  0
 30 31  1  0
 31 27  2  0
 32 29  1  0
 33 30  1  0
 34 27  1  0
 35 28  1  0
 36 27  1  0
 37 28  1  0
 38 29  2  0
 39 40  1  0
 40 34  2  0
 41 38  1  0
 42 36  2  0
 43 37  2  0
 44 31  1  0
 45 32  1  0
 46 36  1  0
 47 37  1  0
 48 39  1  0
 49 38  1  0
 50 40  1  0
 51 41  1  0
 52 49  2  0
 53 48  2  0
 54 52  1  0
 55 50  2  0
 30 39  2  0
 53 55  1  0
 35 41  2  0
 51 54  2  0
  2 56  1  1
  5 57  1  0
  5 58  1  0
  6 59  1  0
  6 60  1  0
  8 61  1  0
  9 62  1  0
 10 63  1  0
 10 64  1  0
 11 65  1  0
 11 66  1  0
 13 67  1  0
 14 68  1  0
 16 69  1  0
 16 70  1  0
 17 71  1  0
 19 72  1  0
 20 73  1  0
 21 74  1  0
 21 75  1  0
 22 76  1  0
 22 77  1  0
 23 78  1  0
 23 79  1  0
 24 80  1  0
 25 81  1  0
 26 82  1  0
 33 83  1  0
 33 84  1  0
 34 85  1  0
 35 86  1  0
 44 87  1  0
 45 88  1  0
 46 89  1  0
 47 90  1  0
 48 91  1  0
 49 92  1  0
 50 93  1  0
 51 94  1  0
 52 95  1  0
 53 96  1  0
 54 97  1  0
 55 98  1  0
M  END
> <Uni-Dock RESULT> 
ENERGY=   -5.437  LOWER_BOUND=    4.907  UPPER_BOUND=    8.353
INTER + INTRA:          -5.437
INTER:                  -5.437
INTRA:                   0.000
UNBOUND:                 0.000

$$$$

     RDKit          3D

 98103  0  0  0  0  0  0  0  0999 V2000
   44.6479   12.9613   10.0171 N   0  0  0  0  0  0  0  0  0  0  0  0
   44.0444   11.7810    9.3311 C   0  0  1  0  0  0  0  0  0  0  0  0
   47.1892   13.1816   11.7305 N   0  0  0  0  0  0  0  0  0  0  0  0
   42.7105   11.3300    9.9475 C   0  0  0  0  0  0  0  0  0  0  0  0
   46.0002   13.2807    9.4910 C   0  0  0  0  0  0  0  0  0  0  0  0
   44.7124   12.7625   11.4908 C   0  0  0  0  0  0  0  0  0  0  0  0
   43.8578   11.9684    7.8151 C   0  0  0  0  0  0  0  0  0  0  0  0
   42.5761   10.0249   10.4567 C   0  0  0  0  0  0  0  0  0  0  0  0
   41.5957   12.1838    9.9938 C   0  0  0  0  0  0  0  0  0  0  0  0
   47.1578   12.7027   10.3304 C   0  0  0  0  0  0  0  0  0  0  0  0
   45.8340   13.5856   12.1726 C   0  0  0  0  0  0  0  0  0  0  0  0
   40.2679   10.4486   11.0191 C   0  0  0  0  0  0  0  0  0  0  0  0
   40.3792   11.7453   10.5238 C   0  0  0  0  0  0  0  0  0  0  0  0
   41.3623    9.5881   10.9944 C   0  0  0  0  0  0  0  0  0  0  0  0
   38.7634    9.9156   11.6625 Cl  0  0  0  0  0  0  0  0  0  0  0  0
   48.1672   14.2732   11.8902 C   0  0  0  0  0  0  0  0  0  0  0  0
   51.6321   16.9981   12.2819 O   0  0  0  0  0  0  0  0  0  0  0  0
   49.4259   15.7094   13.4287 O   0  0  0  0  0  0  0  0  0  0  0  0
   43.5501   13.2157    7.2466 C   0  0  0  0  0  0  0  0  0  0  0  0
   43.9622   10.8552    6.9606 C   0  0  0  0  0  0  0  0  0  0  0  0
   51.7513   16.2695   13.5068 C   0  0  0  0  0  0  0  0  0  0  0  0
   48.3924   14.7194   13.3476 C   0  0  0  0  0  0  0  0  0  0  0  0
   50.7357   15.1310   13.5196 C   0  0  0  0  0  0  0  0  0  0  0  0
   43.7906   10.9923    5.5804 C   0  0  0  0  0  0  0  0  0  0  0  0
   43.3905   13.3533    5.8639 C   0  0  0  0  0  0  0  0  0  0  0  0
   43.5087   12.2410    5.0319 C   0  0  0  0  0  0  0  0  0  0  0  0
   46.8324   14.8553   12.4103 C   0  0  0  0  0  0  0  0  0  0  0  0
   42.0215   11.6686   10.3867 C   0  0  0  0  0  0  0  0  0  0  0  0
   44.4613   11.7892   10.2253 C   0  0  0  0  0  0  0  0  0  0  0  0
   46.6677   12.6866   11.2750 C   0  0  0  0  0  0  0  0  0  0  0  0
   46.1101   13.6920   12.0955 C   0  0  0  0  0  0  0  0  0  0  0  0
   43.2851   11.5178   10.9564 C   0  0  0  0  0  0  0  0  0  0  0  0
   45.8188   11.4886   10.8625 C   0  0  0  0  0  0  0  0  0  0  0  0
   48.1437   14.9964   11.9543 C   0  0  0  0  0  0  0  0  0  0  0  0
   41.9094   12.1019    9.0644 C   0  0  0  0  0  0  0  0  0  0  0  0
   46.1861   15.9261   13.2013 C   0  0  0  0  0  0  0  0  0  0  0  0
   40.7616   11.3936   11.1106 C   0  0  0  0  0  0  0  0  0  0  0  0
   44.3430   12.2778    8.8867 C   0  0  0  0  0  0  0  0  0  0  0  0
   48.0412   12.8061   10.8698 C   0  0  0  0  0  0  0  0  0  0  0  0
   48.7608   13.9820   11.2115 C   0  0  0  0  0  0  0  0  0  0  0  0
   43.0475   12.4281    8.3176 C   0  0  0  0  0  0  0  0  0  0  0  0
   45.0083   15.9213   13.5232 O   0  0  0  0  0  0  0  0  0  0  0  0
   39.7799   10.8534   10.6356 O   0  0  0  0  0  0  0  0  0  0  0  0
   44.8493   13.4753   12.6111 O   0  0  0  0  0  0  0  0  0  0  0  0
   43.3970   11.1071   12.2582 O   0  0  0  0  0  0  0  0  0  0  0  0
   47.0139   16.9251   13.5417 O   0  0  0  0  0  0  0  0  0  0  0  0
   40.7537   11.9053   12.3558 O   0  0  0  0  0  0  0  0  0  0  0  0
   48.7572   11.8181   10.1470 C   0  0  0  0  0  0  0  0  0  0  0  0
   45.4445   12.6200    8.0643 C   0  0  0  0  0  0  0  0  0  0  0  0
   50.1015   14.1421   10.8139 C   0  0  0  0  0  0  0  0  0  0  0  0
   42.8972   12.9075    7.0042 C   0  0  0  0  0  0  0  0  0  0  0  0
   45.2796   13.0983    6.7573 C   0  0  0  0  0  0  0  0  0  0  0  0
   50.0937   11.9886    9.7726 C   0  0  0  0  0  0  0  0  0  0  0  0
   44.0048   13.2461    6.2298 C   0  0  0  0  0  0  0  0  0  0  0  0
   50.7673   13.1504   10.1024 C   0  0  0  0  0  0  0  0  0  0  0  0
   44.7642   10.9562    9.4518 H   0  0  0  0  0  0  0  0  0  0  0  0
   46.0911   14.3772    9.4724 H   0  0  0  0  0  0  0  0  0  0  0  0
   46.1363   12.9653    8.4473 H   0  0  0  0  0  0  0  0  0  0  0  0
   44.8752   11.7043   11.7408 H   0  0  0  0  0  0  0  0  0  0  0  0
   43.7534   13.0620   11.9319 H   0  0  0  0  0  0  0  0  0  0  0  0
   43.4166    9.3354   10.4374 H   0  0  0  0  0  0  0  0  0  0  0  0
   41.6741   13.1977    9.6087 H   0  0  0  0  0  0  0  0  0  0  0  0
   47.0579   11.6113   10.3553 H   0  0  0  0  0  0  0  0  0  0  0  0
   48.1067   12.8890    9.8174 H   0  0  0  0  0  0  0  0  0  0  0  0
   45.7666   13.4447   13.2583 H   0  0  0  0  0  0  0  0  0  0  0  0
   45.6446   14.6498   11.9706 H   0  0  0  0  0  0  0  0  0  0  0  0
   39.5277   12.4208   10.5341 H   0  0  0  0  0  0  0  0  0  0  0  0
   41.2696    8.5780   11.3865 H   0  0  0  0  0  0  0  0  0  0  0  0
   47.8864   15.1461   11.2843 H   0  0  0  0  0  0  0  0  0  0  0  0
   49.1317   13.9365   11.4910 H   0  0  0  0  0  0  0  0  0  0  0  0
   50.6999   17.2905   12.2618 H   0  0  0  0  0  0  0  0  0  0  0  0
   43.4469   14.0959    7.8764 H   0  0  0  0  0  0  0  0  0  0  0  0
   44.1670    9.8682    7.3721 H   0  0  0  0  0  0  0  0  0  0  0  0
   51.5684   16.9696   14.3279 H   0  0  0  0  0  0  0  0  0  0  0  0
   52.7701   15.8791   13.5850 H   0  0  0  0  0  0  0  0  0  0  0  0
   47.4847   15.1925   13.7369 H   0  0  0  0  0  0  0  0  0  0  0  0
   48.6220   13.8673   13.9989 H   0  0  0  0  0  0  0  0  0  0  0  0
   50.9104   14.4756   12.6608 H   0  0  0  0  0  0  0  0  0  0  0  0
   50.8235   14.5573   14.4500 H   0  0  0  0  0  0  0  0  0  0  0  0
   43.8765   10.1227    4.9348 H   0  0  0  0  0  0  0  0  0  0  0  0
   43.1659   14.3273    5.4365 H   0  0  0  0  0  0  0  0  0  0  0  0
   43.3737   12.3453    3.9581 H   0  0  0  0  0  0  0  0  0  0  0  0
   46.3333   10.8472   10.1433 H   0  0  0  0  0  0  0  0  0  0  0  0
   45.7139   10.8471   11.7462 H   0  0  0  0  0  0  0  0  0  0  0  0
   48.7018   15.9005   12.1929 H   0  0  0  0  0  0  0  0  0  0  0  0
   40.9157   12.2021    8.6281 H   0  0  0  0  0  0  0  0  0  0  0  0
   44.5127   14.3239   12.9869 H   0  0  0  0  0  0  0  0  0  0  0  0
   43.9232   11.8108   12.6940 H   0  0  0  0  0  0  0  0  0  0  0  0
   46.4583   17.5624   14.0415 H   0  0  0  0  0  0  0  0  0  0  0  0
   39.8801   11.6518   12.7135 H   0  0  0  0  0  0  0  0  0  0  0  0
   48.2974   10.8691    9.8786 H   0  0  0  0  0  0  0  0  0  0  0  0
   46.4624   12.5318    8.4277 H   0  0  0  0  0  0  0  0  0  0  0  0
   50.6464   15.0533   11.0638 H   0  0  0  0  0  0  0  0  0  0  0  0
   41.9037   13.0336    6.5760 H   0  0  0  0  0  0  0  0  0  0  0  0
   46.1511   13.3542    6.1572 H   0  0  0  0  0  0  0  0  0  0  0  0
   50.6047   11.2005    9.2248 H   0  0  0  0  0  0  0  0  0  0  0  0
   43.8733   13.6247    5.2183 H   0  0  0  0  0  0  0  0  0  0  0  0
   51.8081   13.2829    9.8134 H   0  0  0  0  0  0  0  0  0  0  0  0
  2  1  1  0
  3 10  1  0
  4  2  1  0
  5  1  1  0
  6  1  1  0
  7  2  1  0
  8  4  2  0
  9  4  1  0
 10  5  1  0
 11  6  1  0
 12 14  2  0
 13  9  2  0
 14  8  1  0
 15 12  1  0
 16  3  1  0
 17 21  1  0
 18 22  1  0
 19  7  2  0
 20  7  1  0
 21 23  1  0
 22 16  1  0
 23 18  1  0
 24 20  2  0
 25 19  1  0
 26 25  2  0
 11  3  1  0
 13 12  1  0
 24 26  1  0
 28 32  2  0
 29 33  1  0
 30 31  1  0
 31 27  2  0
 32 29  1  0
 33 30  1  0
 34 27  1  0
 35 28  1  0
 36 27  1  0
 37 28  1  0
 38 29  2  0
 39 40  1  0
 40 34  2  0
 41 38  1  0
 42 36  2  0
 43 37  2  0
 44 31  1  0
 45 32  1  0
 46 36  1  0
 47 37  1  0
 48 39  1  0
 49 38  1  0
 50 40  1  0
 51 41  1  0
 52 49  2  0
 53 48  2  0
 54 52  1  0
 55 50  2  0
 30 39  2  0
 53 55  1  0
 35 41  2  0
 51 54  2  0
  2 56  1  1
  5 57  1  0
  5 58  1  0
  6 59  1  0
  6 60  1  0
  8 61  1  0
  9 62  1  0
 10 63  1  0
 10 64  1  0
 11 65  1  0
 11 66  1  0
 13 67  1  0
 14 68  1  0
 16 69  1  0
 16 70  1  0
 17 71  1  0
 19 72  1  0
 20 73  1  0
 21 74  1  0
 21 75  1  0
 22 76  1  0
 22 77  1  0
 23 78  1  0
 23 79  1  0
 24 80  1  0
 25 81  1  0
 26 82  1  0
 33 83  1  0
 33 84  1  0
 34 85  1  0
 35 86  1  0
 44 87  1  0
 45 88  1  0
 46 89  1  0
 47 90  1  0
 48 91  1  0
 49 92  1  0
 50 93  1  0
 51 94  1  0
 52 95  1  0
 53 96  1  0
 54 97  1  0
 55 98  1  0
M  END
> <Uni-Dock RESULT> 
ENERGY=   -5.364  LOWER_BOUND=    9.571  UPPER_BOUND=   12.196
INTER + INTRA:          -5.364
INTER:                  -5.364
INTRA:                   0.000
UNBOUND:                 0.000

$$$$

     RDKit          3D

 98103  0  0  0  0  0  0  0  0999 V2000
   49.8180    9.2861   13.0707 N   0  0  0  0  0  0  0  0  0  0  0  0
   49.3592    8.1851   13.9680 C   0  0  1  0  0  0  0  0  0  0  0  0
   52.4618    9.6371   11.5443 N   0  0  0  0  0  0  0  0  0  0  0  0
   49.2331    8.6072   15.4405 C   0  0  0  0  0  0  0  0  0  0  0  0
   50.0672    8.8095   11.6857 C   0  0  0  0  0  0  0  0  0  0  0  0
   51.0377    9.9525   13.6034 C   0  0  0  0  0  0  0  0  0  0  0  0
   48.0431    7.5240   13.5218 C   0  0  0  0  0  0  0  0  0  0  0  0
   49.9841    7.9446   16.4294 C   0  0  0  0  0  0  0  0  0  0  0  0
   48.3574    9.6307   15.8400 C   0  0  0  0  0  0  0  0  0  0  0  0
   51.5449    8.4862   11.3847 C   0  0  0  0  0  0  0  0  0  0  0  0
   51.9034   10.6178   12.5042 C   0  0  0  0  0  0  0  0  0  0  0  0
   48.9777    9.3054   18.1496 C   0  0  0  0  0  0  0  0  0  0  0  0
   48.2272    9.9766   17.1877 C   0  0  0  0  0  0  0  0  0  0  0  0
   49.8607    8.2954   17.7766 C   0  0  0  0  0  0  0  0  0  0  0  0
   48.8044    9.7334   19.8074 Cl  0  0  0  0  0  0  0  0  0  0  0  0
   52.7610   10.2548   10.2395 C   0  0  0  0  0  0  0  0  0  0  0  0
   54.0746   11.4743    6.1933 O   0  0  0  0  0  0  0  0  0  0  0  0
   54.1455   11.8315    8.9701 O   0  0  0  0  0  0  0  0  0  0  0  0
   47.0198    8.2466   12.8859 C   0  0  0  0  0  0  0  0  0  0  0  0
   47.8294    6.1581   13.7837 C   0  0  0  0  0  0  0  0  0  0  0  0
   55.3150   11.5787    6.8975 C   0  0  0  0  0  0  0  0  0  0  0  0
   53.8406   11.3531   10.2865 C   0  0  0  0  0  0  0  0  0  0  0  0
   55.1413   11.0350    8.3124 C   0  0  0  0  0  0  0  0  0  0  0  0
   46.6415    5.5312   13.3975 C   0  0  0  0  0  0  0  0  0  0  0  0
   45.8365    7.6149   12.4893 C   0  0  0  0  0  0  0  0  0  0  0  0
   45.6473    6.2581   12.7473 C   0  0  0  0  0  0  0  0  0  0  0  0
   52.2130   11.4092   11.1102 C   0  0  0  0  0  0  0  0  0  0  0  0
   49.0667    9.3292   15.9236 C   0  0  0  0  0  0  0  0  0  0  0  0
   50.2669    8.5700   13.9295 C   0  0  0  0  0  0  0  0  0  0  0  0
   51.9923    9.1634   12.0731 C   0  0  0  0  0  0  0  0  0  0  0  0
   51.9633   10.5691   12.2083 C   0  0  0  0  0  0  0  0  0  0  0  0
   50.2553    9.1449   15.2183 C   0  0  0  0  0  0  0  0  0  0  0  0
   51.6095    8.2808   13.2565 C   0  0  0  0  0  0  0  0  0  0  0  0
   52.5525   10.8493    9.8778 C   0  0  0  0  0  0  0  0  0  0  0  0
   47.8561    8.9424   15.3462 C   0  0  0  0  0  0  0  0  0  0  0  0
   52.0900   12.8755   11.2679 C   0  0  0  0  0  0  0  0  0  0  0  0
   49.0041    9.9233   17.2764 C   0  0  0  0  0  0  0  0  0  0  0  0
   49.0218    8.2179   13.3210 C   0  0  0  0  0  0  0  0  0  0  0  0
   52.4123    8.5967   10.8212 C   0  0  0  0  0  0  0  0  0  0  0  0
   52.6766    9.4625    9.7267 C   0  0  0  0  0  0  0  0  0  0  0  0
   47.8161    8.4120   14.0514 C   0  0  0  0  0  0  0  0  0  0  0  0
   51.6775   13.4214   12.2793 O   0  0  0  0  0  0  0  0  0  0  0  0
   48.2780    9.5475   18.1778 O   0  0  0  0  0  0  0  0  0  0  0  0
   51.7226   11.0896   13.4628 O   0  0  0  0  0  0  0  0  0  0  0  0
   51.4426    9.5374   15.7768 O   0  0  0  0  0  0  0  0  0  0  0  0
   52.4735   13.5722   10.1878 O   0  0  0  0  0  0  0  0  0  0  0  0
   49.7706   11.0234   17.3984 O   0  0  0  0  0  0  0  0  0  0  0  0
   52.5979    7.2105   10.5858 C   0  0  0  0  0  0  0  0  0  0  0  0
   48.8986    7.6682   12.0213 C   0  0  0  0  0  0  0  0  0  0  0  0
   53.0704    8.9412    8.4800 C   0  0  0  0  0  0  0  0  0  0  0  0
   46.5752    8.0772   13.4807 C   0  0  0  0  0  0  0  0  0  0  0  0
   47.6548    7.3407   11.4645 C   0  0  0  0  0  0  0  0  0  0  0  0
   53.0034    6.7117    9.3441 C   0  0  0  0  0  0  0  0  0  0  0  0
   46.4931    7.5501   12.1936 C   0  0  0  0  0  0  0  0  0  0  0  0
   53.2378    7.5743    8.2890 C   0  0  0  0  0  0  0  0  0  0  0  0
   50.1310    7.4016   13.9097 H   0  0  0  0  0  0  0  0  0  0  0  0
   49.7341    9.6057   11.0031 H   0  0  0  0  0  0  0  0  0  0  0  0
   49.4589    7.9336   11.4211 H   0  0  0  0  0  0  0  0  0  0  0  0
   51.6750    9.2380   14.1441 H   0  0  0  0  0  0  0  0  0  0  0  0
   50.7352   10.7297   14.3163 H   0  0  0  0  0  0  0  0  0  0  0  0
   50.6716    7.1470   16.1586 H   0  0  0  0  0  0  0  0  0  0  0  0
   47.7675   10.1595   15.0951 H   0  0  0  0  0  0  0  0  0  0  0  0
   51.8761    7.7003   12.0735 H   0  0  0  0  0  0  0  0  0  0  0  0
   51.6235    8.0412   10.3877 H   0  0  0  0  0  0  0  0  0  0  0  0
   52.7359   11.1487   12.9820 H   0  0  0  0  0  0  0  0  0  0  0  0
   51.2855   11.3724   11.9962 H   0  0  0  0  0  0  0  0  0  0  0  0
   47.5315   10.7619   17.4718 H   0  0  0  0  0  0  0  0  0  0  0  0
   50.4467    7.7779   18.5325 H   0  0  0  0  0  0  0  0  0  0  0  0
   51.8506   10.6625    9.7781 H   0  0  0  0  0  0  0  0  0  0  0  0
   53.1110    9.4714    9.5564 H   0  0  0  0  0  0  0  0  0  0  0  0
   53.4399   11.9757    6.7417 H   0  0  0  0  0  0  0  0  0  0  0  0
   47.1424    9.3070   12.6800 H   0  0  0  0  0  0  0  0  0  0  0  0
   48.5886    5.5766   14.3044 H   0  0  0  0  0  0  0  0  0  0  0  0
   55.5987   12.6356    6.9138 H   0  0  0  0  0  0  0  0  0  0  0  0
   56.0751   11.0088    6.3554 H   0  0  0  0  0  0  0  0  0  0  0  0
   53.4688   12.2172   10.8473 H   0  0  0  0  0  0  0  0  0  0  0  0
   54.7497   11.0030   10.7903 H   0  0  0  0  0  0  0  0  0  0  0  0
   54.8093    9.9934    8.2655 H   0  0  0  0  0  0  0  0  0  0  0  0
   56.0888   11.0997    8.8606 H   0  0  0  0  0  0  0  0  0  0  0  0
   46.4937    4.4752   13.6058 H   0  0  0  0  0  0  0  0  0  0  0  0
   45.0586    8.1836   11.9859 H   0  0  0  0  0  0  0  0  0  0  0  0
   44.7231    5.7691   12.4493 H   0  0  0  0  0  0  0  0  0  0  0  0
   51.5684    7.2234   12.9854 H   0  0  0  0  0  0  0  0  0  0  0  0
   52.4369    8.3273   13.9754 H   0  0  0  0  0  0  0  0  0  0  0  0
   52.7401   11.4998    9.0250 H   0  0  0  0  0  0  0  0  0  0  0  0
   46.9366    9.0799   15.9149 H   0  0  0  0  0  0  0  0  0  0  0  0
   51.5331   12.0542   13.3724 H   0  0  0  0  0  0  0  0  0  0  0  0
   51.8295   10.1574   15.1225 H   0  0  0  0  0  0  0  0  0  0  0  0
   52.3268   14.5146   10.4224 H   0  0  0  0  0  0  0  0  0  0  0  0
   49.6391   11.3056   18.3250 H   0  0  0  0  0  0  0  0  0  0  0  0
   52.4578    6.4783   11.3785 H   0  0  0  0  0  0  0  0  0  0  0  0
   49.7724    7.4908   11.4041 H   0  0  0  0  0  0  0  0  0  0  0  0
   53.2569    9.6076    7.6370 H   0  0  0  0  0  0  0  0  0  0  0  0
   45.6533    8.2390   14.0375 H   0  0  0  0  0  0  0  0  0  0  0  0
   47.6007    6.9233   10.4605 H   0  0  0  0  0  0  0  0  0  0  0  0
   53.1397    5.6410    9.2118 H   0  0  0  0  0  0  0  0  0  0  0  0
   45.5255    7.3044   11.7610 H   0  0  0  0  0  0  0  0  0  0  0  0
   53.5556    7.1869    7.3229 H   0  0  0  0  0  0  0  0  0  0  0  0
  2  1  1  0
  3 10  1  0
  4  2  1  0
  5  1  1  0
  6  1  1  0
  7  2  1  0
  8  4  2  0
  9  4  1  0
 10  5  1  0
 11  6  1  0
 12 14  2  0
 13  9  2  0
 14  8  1  0
 15 12  1  0
 16  3  1  0
 17 21  1  0
 18 22  1  0
 19  7  2  0
 20  7  1  0
 21 23  1  0
 22 16  1  0
 23 18  1  0
 24 20  2  0
 25 19  1  0
 26 25  2  0
 11  3  1  0
 13 12  1  0
 24 26  1  0
 28 32  2  0
 29 33  1  0
 30 31  1  0
 31 27  2  0
 32 29  1  0
 33 30  1  0
 34 27  1  0
 35 28  1  0
 36 27  1  0
 37 28  1  0
 38 29  2  0
 39 40  1  0
 40 34  2  0
 41 38  1  0
 42 36  2  0
 43 37  2  0
 44 31  1  0
 45 32  1  0
 46 36  1  0
 47 37  1  0
 48 39  1  0
 49 38  1  0
 50 40  1  0
 51 41  1  0
 52 49  2  0
 53 48  2  0
 54 52  1  0
 55 50  2  0
 30 39  2  0
 53 55  1  0
 35 41  2  0
 51 54  2  0
  2 56  1  1
  5 57  1  0
  5 58  1  0
  6 59  1  0
  6 60  1  0
  8 61  1  0
  9 62  1  0
 10 63  1  0
 10 64  1  0
 11 65  1  0
 11 66  1  0
 13 67  1  0
 14 68  1  0
 16 69  1  0
 16 70  1  0
 17 71  1  0
 19 72  1  0
 20 73  1  0
 21 74  1  0
 21 75  1  0
 22 76  1  0
 22 77  1  0
 23 78  1  0
 23 79  1  0
 24 80  1  0
 25 81  1  0
 26 82  1  0
 33 83  1  0
 33 84  1  0
 34 85  1  0
 35 86  1  0
 44 87  1  0
 45 88  1  0
 46 89  1  0
 47 90  1  0
 48 91  1  0
 49 92  1  0
 50 93  1  0
 51 94  1  0
 52 95  1  0
 53 96  1  0
 54 97  1  0
 55 98  1  0
M  END
> <Uni-Dock RESULT> 
ENERGY=   -5.351  LOWER_BOUND=    6.093  UPPER_BOUND=    8.742
INTER + INTRA:          -5.351
INTER:                  -5.351
INTRA:                   0.000
UNBOUND:                 0.000

$$$$

     RDKit          3D

 98103  0  0  0  0  0  0  0  0999 V2000
   50.2281    7.7360   13.4877 N   0  0  0  0  0  0  0  0  0  0  0  0
   49.0141    8.0567   14.2947 C   0  0  1  0  0  0  0  0  0  0  0  0
   52.1159    9.5813   11.9150 N   0  0  0  0  0  0  0  0  0  0  0  0
   47.7085    7.5406   13.6689 C   0  0  0  0  0  0  0  0  0  0  0  0
   51.4510    8.3707   14.0437 C   0  0  0  0  0  0  0  0  0  0  0  0
   50.0567    8.1304   12.0627 C   0  0  0  0  0  0  0  0  0  0  0  0
   49.0921    7.5798   15.7557 C   0  0  0  0  0  0  0  0  0  0  0  0
   46.6805    8.4439   13.3399 C   0  0  0  0  0  0  0  0  0  0  0  0
   47.4948    6.1714   13.4372 C   0  0  0  0  0  0  0  0  0  0  0  0
   51.8381    9.6999   13.3639 C   0  0  0  0  0  0  0  0  0  0  0  0
   51.3964    8.4205   11.3407 C   0  0  0  0  0  0  0  0  0  0  0  0
   45.2823    6.6268   12.5871 C   0  0  0  0  0  0  0  0  0  0  0  0
   46.2870    5.7154   12.9021 C   0  0  0  0  0  0  0  0  0  0  0  0
   45.4755    7.9896   12.7971 C   0  0  0  0  0  0  0  0  0  0  0  0
   43.7957    6.0546   11.9359 Cl  0  0  0  0  0  0  0  0  0  0  0  0
   53.5666    9.5078   11.6630 C   0  0  0  0  0  0  0  0  0  0  0  0
   57.9250   10.0314   11.1017 O   0  0  0  0  0  0  0  0  0  0  0  0
   55.3829    9.5801   10.0167 O   0  0  0  0  0  0  0  0  0  0  0  0
   49.7651    6.4032   16.1248 C   0  0  0  0  0  0  0  0  0  0  0  0
   48.4432    8.3189   16.7621 C   0  0  0  0  0  0  0  0  0  0  0  0
   57.4396   10.8035    9.9999 C   0  0  0  0  0  0  0  0  0  0  0  0
   53.9583    9.5545   10.1735 C   0  0  0  0  0  0  0  0  0  0  0  0
   55.9200   10.9087   10.0859 C   0  0  0  0  0  0  0  0  0  0  0  0
   48.4897    7.9073   18.0969 C   0  0  0  0  0  0  0  0  0  0  0  0
   49.8208    5.9992   17.4628 C   0  0  0  0  0  0  0  0  0  0  0  0
   49.1812    6.7504   18.4476 C   0  0  0  0  0  0  0  0  0  0  0  0
   52.9809    8.2460   10.9879 C   0  0  0  0  0  0  0  0  0  0  0  0
   47.4232    6.8865   13.1463 C   0  0  0  0  0  0  0  0  0  0  0  0
   49.2711    8.4662   13.4345 C   0  0  0  0  0  0  0  0  0  0  0  0
   51.4228    9.5063   12.4033 C   0  0  0  0  0  0  0  0  0  0  0  0
   51.6729    8.5252   11.4185 C   0  0  0  0  0  0  0  0  0  0  0  0
   48.1970    7.9484   12.6797 C   0  0  0  0  0  0  0  0  0  0  0  0
   50.0051    9.7086   12.9278 C   0  0  0  0  0  0  0  0  0  0  0  0
   54.0470    8.9886   11.4971 C   0  0  0  0  0  0  0  0  0  0  0  0
   47.7145    6.3146   14.3859 C   0  0  0  0  0  0  0  0  0  0  0  0
   53.2141    7.1530   10.0178 C   0  0  0  0  0  0  0  0  0  0  0  0
   46.2868    6.3123   12.3941 C   0  0  0  0  0  0  0  0  0  0  0  0
   49.5971    7.8485   14.6822 C   0  0  0  0  0  0  0  0  0  0  0  0
   52.5159   10.3144   12.8690 C   0  0  0  0  0  0  0  0  0  0  0  0
   53.8293   10.0283   12.4099 C   0  0  0  0  0  0  0  0  0  0  0  0
   48.7999    6.7651   15.1464 C   0  0  0  0  0  0  0  0  0  0  0  0
   52.3456    6.3872    9.6301 O   0  0  0  0  0  0  0  0  0  0  0  0
   45.2323    5.9481   12.8804 O   0  0  0  0  0  0  0  0  0  0  0  0
   50.5876    7.8794   10.8640 O   0  0  0  0  0  0  0  0  0  0  0  0
   47.9223    8.5013   11.4571 O   0  0  0  0  0  0  0  0  0  0  0  0
   54.4828    7.0667    9.5911 O   0  0  0  0  0  0  0  0  0  0  0  0
   46.5676    6.1212   11.0913 O   0  0  0  0  0  0  0  0  0  0  0  0
   52.3866   11.4067   13.7643 C   0  0  0  0  0  0  0  0  0  0  0  0
   50.6714    8.2516   15.5130 C   0  0  0  0  0  0  0  0  0  0  0  0
   54.9265   10.7861   12.8605 C   0  0  0  0  0  0  0  0  0  0  0  0
   49.0952    6.1353   16.3686 C   0  0  0  0  0  0  0  0  0  0  0  0
   50.9550    7.6134   16.7281 C   0  0  0  0  0  0  0  0  0  0  0  0
   53.4867   12.1575   14.1902 C   0  0  0  0  0  0  0  0  0  0  0  0
   50.1687    6.5520   17.1528 C   0  0  0  0  0  0  0  0  0  0  0  0
   54.7577   11.8478   13.7421 C   0  0  0  0  0  0  0  0  0  0  0  0
   48.9545    9.1557   14.3336 H   0  0  0  0  0  0  0  0  0  0  0  0
   52.2764    7.6547   13.9142 H   0  0  0  0  0  0  0  0  0  0  0  0
   51.3874    8.5401   15.1274 H   0  0  0  0  0  0  0  0  0  0  0  0
   49.4276    9.0277   11.9732 H   0  0  0  0  0  0  0  0  0  0  0  0
   49.5499    7.3175   11.5276 H   0  0  0  0  0  0  0  0  0  0  0  0
   46.8091    9.5108   13.5056 H   0  0  0  0  0  0  0  0  0  0  0  0
   48.2742    5.4533   13.6808 H   0  0  0  0  0  0  0  0  0  0  0  0
   51.0093   10.4070   13.4859 H   0  0  0  0  0  0  0  0  0  0  0  0
   52.6778   10.1517   13.9015 H   0  0  0  0  0  0  0  0  0  0  0  0
   51.1912    8.6276   10.2833 H   0  0  0  0  0  0  0  0  0  0  0  0
   52.0078    7.5073   11.3803 H   0  0  0  0  0  0  0  0  0  0  0  0
   46.1414    4.6496   12.7466 H   0  0  0  0  0  0  0  0  0  0  0  0
   44.6881    8.6963   12.5452 H   0  0  0  0  0  0  0  0  0  0  0  0
   54.0019    8.6095   12.1230 H   0  0  0  0  0  0  0  0  0  0  0  0
   54.0494   10.3568   12.1621 H   0  0  0  0  0  0  0  0  0  0  0  0
   57.4577    9.1766   11.0250 H   0  0  0  0  0  0  0  0  0  0  0  0
   50.2659    5.7981   15.3732 H   0  0  0  0  0  0  0  0  0  0  0  0
   47.8849    9.2178   16.5056 H   0  0  0  0  0  0  0  0  0  0  0  0
   57.7480   10.2978    9.0796 H   0  0  0  0  0  0  0  0  0  0  0  0
   57.8982   11.7958   10.0380 H   0  0  0  0  0  0  0  0  0  0  0  0
   53.6114    8.6467    9.6685 H   0  0  0  0  0  0  0  0  0  0  0  0
   53.4981   10.4090    9.6626 H   0  0  0  0  0  0  0  0  0  0  0  0
   55.6388   11.3717   11.0367 H   0  0  0  0  0  0  0  0  0  0  0  0
   55.5354   11.5076    9.2517 H   0  0  0  0  0  0  0  0  0  0  0  0
   47.9847    8.4907   18.8617 H   0  0  0  0  0  0  0  0  0  0  0  0
   50.3568    5.0936   17.7357 H   0  0  0  0  0  0  0  0  0  0  0  0
   49.2147    6.4308   19.4863 H   0  0  0  0  0  0  0  0  0  0  0  0
   49.9705   10.4166   13.7589 H   0  0  0  0  0  0  0  0  0  0  0  0
   49.4374   10.2156   12.1377 H   0  0  0  0  0  0  0  0  0  0  0  0
   55.0614    8.7685   11.1682 H   0  0  0  0  0  0  0  0  0  0  0  0
   47.0926    5.4942   14.7439 H   0  0  0  0  0  0  0  0  0  0  0  0
   50.9124    7.0991   10.3538 H   0  0  0  0  0  0  0  0  0  0  0  0
   48.7644    8.4289   10.9594 H   0  0  0  0  0  0  0  0  0  0  0  0
   54.4969    6.3021    8.9749 H   0  0  0  0  0  0  0  0  0  0  0  0
   45.7439    5.7471   10.7211 H   0  0  0  0  0  0  0  0  0  0  0  0
   51.4134   11.7224   14.1348 H   0  0  0  0  0  0  0  0  0  0  0  0
   51.3230    9.0699   15.2269 H   0  0  0  0  0  0  0  0  0  0  0  0
   55.9357   10.5535   12.5186 H   0  0  0  0  0  0  0  0  0  0  0  0
   48.4909    5.2980   16.7149 H   0  0  0  0  0  0  0  0  0  0  0  0
   51.7920    7.9500   17.3375 H   0  0  0  0  0  0  0  0  0  0  0  0
   53.3386   12.9913   14.8723 H   0  0  0  0  0  0  0  0  0  0  0  0
   50.3913    6.0495   18.0917 H   0  0  0  0  0  0  0  0  0  0  0  0
   55.6141   12.4331   14.0713 H   0  0  0  0  0  0  0  0  0  0  0  0
  2  1  1  0
  3 10  1  0
  4  2  1  0
  5  1  1  0
  6  1  1  0
  7  2  1  0
  8  4  2  0
  9  4  1  0
 10  5  1  0
 11  6  1  0
 12 14  2  0
 13  9  2  0
 14  8  1  0
 15 12  1  0
 16  3  1  0
 17 21  1  0
 18 22  1  0
 19  7  2  0
 20  7  1  0
 21 23  1  0
 22 16  1  0
 23 18  1  0
 24 20  2  0
 25 19  1  0
 26 25  2  0
 11  3  1  0
 13 12  1  0
 24 26  1  0
 28 32  2  0
 29 33  1  0
 30 31  1  0
 31 27  2  0
 32 29  1  0
 33 30  1  0
 34 27  1  0
 35 28  1  0
 36 27  1  0
 37 28  1  0
 38 29  2  0
 39 40  1  0
 40 34  2  0
 41 38  1  0
 42 36  2  0
 43 37  2  0
 44 31  1  0
 45 32  1  0
 46 36  1  0
 47 37  1  0
 48 39  1  0
 49 38  1  0
 50 40  1  0
 51 41  1  0
 52 49  2  0
 53 48  2  0
 54 52  1  0
 55 50  2  0
 30 39  2  0
 53 55  1  0
 35 41  2  0
 51 54  2  0
  2 56  1  1
  5 57  1  0
  5 58  1  0
  6 59  1  0
  6 60  1  0
  8 61  1  0
  9 62  1  0
 10 63  1  0
 10 64  1  0
 11 65  1  0
 11 66  1  0
 13 67  1  0
 14 68  1  0
 16 69  1  0
 16 70  1  0
 17 71  1  0
 19 72  1  0
 20 73  1  0
 21 74  1  0
 21 75  1  0
 22 76  1  0
 22 77  1  0
 23 78  1  0
 23 79  1  0
 24 80  1  0
 25 81  1  0
 26 82  1  0
 33 83  1  0
 33 84  1  0
 34 85  1  0
 35 86  1  0
 44 87  1  0
 45 88  1  0
 46 89  1  0
 47 90  1  0
 48 91  1  0
 49 92  1  0
 50 93  1  0
 51 94  1  0
 52 95  1  0
 53 96  1  0
 54 97  1  0
 55 98  1  0
M  END
> <Uni-Dock RESULT> 
ENERGY=   -5.336  LOWER_BOUND=    5.545  UPPER_BOUND=    7.518
INTER + INTRA:          -5.336
INTER:                  -5.336
INTRA:                   0.000
UNBOUND:                 0.000

$$$$

     RDKit          3D

 98103  0  0  0  0  0  0  0  0999 V2000
   48.6619    9.8474   11.8027 N   0  0  0  0  0  0  0  0  0  0  0  0
   49.5346    9.1110   12.7639 C   0  0  1  0  0  0  0  0  0  0  0  0
   47.4010   12.6427   12.0001 N   0  0  0  0  0  0  0  0  0  0  0  0
   48.8525    7.8882   13.3978 C   0  0  0  0  0  0  0  0  0  0  0  0
   49.2976   11.1005   11.3196 C   0  0  0  0  0  0  0  0  0  0  0  0
   47.3310   10.1515   12.3958 C   0  0  0  0  0  0  0  0  0  0  0  0
   50.8884    8.6793   12.1730 C   0  0  0  0  0  0  0  0  0  0  0  0
   48.7051    7.8102   14.7953 C   0  0  0  0  0  0  0  0  0  0  0  0
   48.3894    6.8167   12.6159 C   0  0  0  0  0  0  0  0  0  0  0  0
   48.8532   12.3678   12.0778 C   0  0  0  0  0  0  0  0  0  0  0  0
   46.6462   11.3897   11.7647 C   0  0  0  0  0  0  0  0  0  0  0  0
   47.6725    5.6381   14.5964 C   0  0  0  0  0  0  0  0  0  0  0  0
   47.8052    5.6954   13.2114 C   0  0  0  0  0  0  0  0  0  0  0  0
   48.1136    6.6929   15.3911 C   0  0  0  0  0  0  0  0  0  0  0  0
   46.9589    4.2497   15.3206 Cl  0  0  0  0  0  0  0  0  0  0  0  0
   47.1134   13.6587   10.9711 C   0  0  0  0  0  0  0  0  0  0  0  0
   46.5722   17.2027    8.3766 O   0  0  0  0  0  0  0  0  0  0  0  0
   45.4720   15.1887    9.9818 O   0  0  0  0  0  0  0  0  0  0  0  0
   51.0341    8.3103   10.8254 C   0  0  0  0  0  0  0  0  0  0  0  0
   52.0200    8.6143   13.0069 C   0  0  0  0  0  0  0  0  0  0  0  0
   45.6312   17.5070    9.4098 C   0  0  0  0  0  0  0  0  0  0  0  0
   45.6480   14.1335   10.9358 C   0  0  0  0  0  0  0  0  0  0  0  0
   45.7621   16.4816   10.5319 C   0  0  0  0  0  0  0  0  0  0  0  0
   53.2615    8.2187   12.5012 C   0  0  0  0  0  0  0  0  0  0  0  0
   52.2798    7.9262   10.3183 C   0  0  0  0  0  0  0  0  0  0  0  0
   53.3922    7.8785   11.1571 C   0  0  0  0  0  0  0  0  0  0  0  0
   46.2394   12.4429   10.5854 C   0  0  0  0  0  0  0  0  0  0  0  0
   48.2291    7.2898   13.2088 C   0  0  0  0  0  0  0  0  0  0  0  0
   48.7546    9.6710   12.9911 C   0  0  0  0  0  0  0  0  0  0  0  0
   47.8814   12.0414   12.3636 C   0  0  0  0  0  0  0  0  0  0  0  0
   46.7361   11.6515   11.6347 C   0  0  0  0  0  0  0  0  0  0  0  0
   47.9408    8.6268   13.4800 C   0  0  0  0  0  0  0  0  0  0  0  0
   48.4591   11.1082   13.4225 C   0  0  0  0  0  0  0  0  0  0  0  0
   46.8508   13.6630   10.2938 C   0  0  0  0  0  0  0  0  0  0  0  0
   49.3444    6.9695   12.4328 C   0  0  0  0  0  0  0  0  0  0  0  0
   45.0894   11.9621    9.7876 C   0  0  0  0  0  0  0  0  0  0  0  0
   47.4092    6.1619   13.7012 C   0  0  0  0  0  0  0  0  0  0  0  0
   49.8692    9.3431   12.1575 C   0  0  0  0  0  0  0  0  0  0  0  0
   48.4608   13.3308   12.1053 C   0  0  0  0  0  0  0  0  0  0  0  0
   47.9348   14.1243   11.0512 C   0  0  0  0  0  0  0  0  0  0  0  0
   50.1517    7.9748   11.8878 C   0  0  0  0  0  0  0  0  0  0  0  0
   44.5899   10.8544    9.9082 O   0  0  0  0  0  0  0  0  0  0  0  0
   47.8438    5.1026   14.1137 O   0  0  0  0  0  0  0  0  0  0  0  0
   46.0974   10.4893   12.0140 O   0  0  0  0  0  0  0  0  0  0  0  0
   46.8388    8.9441   14.2287 O   0  0  0  0  0  0  0  0  0  0  0  0
   44.6309   12.8579    8.9007 O   0  0  0  0  0  0  0  0  0  0  0  0
   46.0882    6.3731   13.5503 O   0  0  0  0  0  0  0  0  0  0  0  0
   49.5352   13.8935   12.8403 C   0  0  0  0  0  0  0  0  0  0  0  0
   50.7377   10.3000   11.5773 C   0  0  0  0  0  0  0  0  0  0  0  0
   48.4905   15.3835   10.7568 C   0  0  0  0  0  0  0  0  0  0  0  0
   51.2397    7.6193   11.0708 C   0  0  0  0  0  0  0  0  0  0  0  0
   51.8174    9.9311   10.7634 C   0  0  0  0  0  0  0  0  0  0  0  0
   50.0653   15.1527   12.5424 C   0  0  0  0  0  0  0  0  0  0  0  0
   52.0647    8.5901   10.5070 C   0  0  0  0  0  0  0  0  0  0  0  0
   49.5467   15.8985   11.4997 C   0  0  0  0  0  0  0  0  0  0  0  0
   49.7658    9.8217   13.5730 H   0  0  0  0  0  0  0  0  0  0  0  0
   49.0301   11.2123   10.2581 H   0  0  0  0  0  0  0  0  0  0  0  0
   50.3953   11.0537   11.3339 H   0  0  0  0  0  0  0  0  0  0  0  0
   47.4111   10.3291   13.4779 H   0  0  0  0  0  0  0  0  0  0  0  0
   46.6717    9.2865   12.2513 H   0  0  0  0  0  0  0  0  0  0  0  0
   49.0520    8.6196   15.4331 H   0  0  0  0  0  0  0  0  0  0  0  0
   48.4896    6.8535   11.5338 H   0  0  0  0  0  0  0  0  0  0  0  0
   49.1120   12.2482   13.1364 H   0  0  0  0  0  0  0  0  0  0  0  0
   49.4459   13.2222   11.7358 H   0  0  0  0  0  0  0  0  0  0  0  0
   45.6451   11.5006   12.1990 H   0  0  0  0  0  0  0  0  0  0  0  0
   46.5147   11.1940   10.6906 H   0  0  0  0  0  0  0  0  0  0  0  0
   47.4688    4.8735   12.5848 H   0  0  0  0  0  0  0  0  0  0  0  0
   48.0034    6.6434   16.4720 H   0  0  0  0  0  0  0  0  0  0  0  0
   47.4016   13.3013    9.9726 H   0  0  0  0  0  0  0  0  0  0  0  0
   47.7441   14.5353   11.1628 H   0  0  0  0  0  0  0  0  0  0  0  0
   46.3562   16.2872    8.1120 H   0  0  0  0  0  0  0  0  0  0  0  0
   50.1794    8.3337   10.1540 H   0  0  0  0  0  0  0  0  0  0  0  0
   51.9346    8.8618   14.0637 H   0  0  0  0  0  0  0  0  0  0  0  0
   44.6313   17.4795    8.9657 H   0  0  0  0  0  0  0  0  0  0  0  0
   45.8334   18.5153    9.7825 H   0  0  0  0  0  0  0  0  0  0  0  0
   44.9988   13.3143   10.6089 H   0  0  0  0  0  0  0  0  0  0  0  0
   45.3026   14.4484   11.9280 H   0  0  0  0  0  0  0  0  0  0  0  0
   46.7841   16.4959   10.9227 H   0  0  0  0  0  0  0  0  0  0  0  0
   45.0524   16.7097   11.3362 H   0  0  0  0  0  0  0  0  0  0  0  0
   54.1254    8.1759   13.1586 H   0  0  0  0  0  0  0  0  0  0  0  0
   52.3806    7.6562    9.2700 H   0  0  0  0  0  0  0  0  0  0  0  0
   54.3583    7.5692   10.7660 H   0  0  0  0  0  0  0  0  0  0  0  0
   49.4015   11.4810   13.8301 H   0  0  0  0  0  0  0  0  0  0  0  0
   47.7801   11.1370   14.2838 H   0  0  0  0  0  0  0  0  0  0  0  0
   46.4699   14.2737    9.4767 H   0  0  0  0  0  0  0  0  0  0  0  0
   49.5650    5.9196   12.2404 H   0  0  0  0  0  0  0  0  0  0  0  0
   45.4530   10.2397   11.3089 H   0  0  0  0  0  0  0  0  0  0  0  0
   46.3206    9.5516   13.6590 H   0  0  0  0  0  0  0  0  0  0  0  0
   43.8906   12.4081    8.4380 H   0  0  0  0  0  0  0  0  0  0  0  0
   45.6735    5.5655   13.9127 H   0  0  0  0  0  0  0  0  0  0  0  0
   49.9729   13.3737   13.6902 H   0  0  0  0  0  0  0  0  0  0  0  0
   50.5868   11.3619   11.7376 H   0  0  0  0  0  0  0  0  0  0  0  0
   48.0948   15.9833    9.9363 H   0  0  0  0  0  0  0  0  0  0  0  0
   51.4455    6.5715   10.8558 H   0  0  0  0  0  0  0  0  0  0  0  0
   52.4607   10.6964   10.3325 H   0  0  0  0  0  0  0  0  0  0  0  0
   50.8850   15.5470   13.1381 H   0  0  0  0  0  0  0  0  0  0  0  0
   52.8973    8.3010    9.8691 H   0  0  0  0  0  0  0  0  0  0  0  0
   49.9573   16.8795   11.2686 H   0  0  0  0  0  0  0  0  0  0  0  0
  2  1  1  0
  3 10  1  0
  4  2  1  0
  5  1  1  0
  6  1  1  0
  7  2  1  0
  8  4  2  0
  9  4  1  0
 10  5  1  0
 11  6  1  0
 12 14  2  0
 13  9  2  0
 14  8  1  0
 15 12  1  0
 16  3  1  0
 17 21  1  0
 18 22  1  0
 19  7  2  0
 20  7  1  0
 21 23  1  0
 22 16  1  0
 23 18  1  0
 24 20  2  0
 25 19  1  0
 26 25  2  0
 11  3  1  0
 13 12  1  0
 24 26  1  0
 28 32  2  0
 29 33  1  0
 30 31  1  0
 31 27  2  0
 32 29  1  0
 33 30  1  0
 34 27  1  0
 35 28  1  0
 36 27  1  0
 37 28  1  0
 38 29  2  0
 39 40  1  0
 40 34  2  0
 41 38  1  0
 42 36  2  0
 43 37  2  0
 44 31  1  0
 45 32  1  0
 46 36  1  0
 47 37  1  0
 48 39  1  0
 49 38  1  0
 50 40  1  0
 51 41  1  0
 52 49  2  0
 53 48  2  0
 54 52  1  0
 55 50  2  0
 30 39  2  0
 53 55  1  0
 35 41  2  0
 51 54  2  0
  2 56  1  1
  5 57  1  0
  5 58  1  0
  6 59  1  0
  6 60  1  0
  8 61  1  0
  9 62  1  0
 10 63  1  0
 10 64  1  0
 11 65  1  0
 11 66  1  0
 13 67  1  0
 14 68  1  0
 16 69  1  0
 16 70  1  0
 17 71  1  0
 19 72  1  0
 20 73  1  0
 21 74  1  0
 21 75  1  0
 22 76  1  0
 22 77  1  0
 23 78  1  0
 23 79  1  0
 24 80  1  0
 25 81  1  0
 26 82  1  0
 33 83  1  0
 33 84  1  0
 34 85  1  0
 35 86  1  0
 44 87  1  0
 45 88  1  0
 46 89  1  0
 47 90  1  0
 48 91  1  0
 49 92  1  0
 50 93  1  0
 51 94  1  0
 52 95  1  0
 53 96  1  0
 54 97  1  0
 55 98  1  0
M  END
> <Uni-Dock RESULT> 
ENERGY=   -5.317  LOWER_BOUND=    6.482  UPPER_BOUND=    8.733
INTER + INTRA:          -5.317
INTER:                  -5.317
INTRA:                   0.000
UNBOUND:                 0.000

$$$$

     RDKit          3D

 98103  0  0  0  0  0  0  0  0999 V2000
   45.8362   12.1718    8.6572 N   0  0  0  0  0  0  0  0  0  0  0  0
   46.7335   13.2987    8.2663 C   0  0  1  0  0  0  0  0  0  0  0  0
   43.2432   12.1737   10.3061 N   0  0  0  0  0  0  0  0  0  0  0  0
   48.1080   13.2537    8.9525 C   0  0  0  0  0  0  0  0  0  0  0  0
   44.4711   12.3235    8.0906 C   0  0  0  0  0  0  0  0  0  0  0  0
   45.7564   12.0249   10.1363 C   0  0  0  0  0  0  0  0  0  0  0  0
   46.9362   13.4367    6.7470 C   0  0  0  0  0  0  0  0  0  0  0  0
   48.5277   14.3282    9.7588 C   0  0  0  0  0  0  0  0  0  0  0  0
   48.9838   12.1695    8.7749 C   0  0  0  0  0  0  0  0  0  0  0  0
   43.4493   12.9486    9.0621 C   0  0  0  0  0  0  0  0  0  0  0  0
   44.4420   11.3605   10.6171 C   0  0  0  0  0  0  0  0  0  0  0  0
   50.6411   13.2372   10.1672 C   0  0  0  0  0  0  0  0  0  0  0  0
   50.2453   12.1617    9.3760 C   0  0  0  0  0  0  0  0  0  0  0  0
   49.7858   14.3176   10.3671 C   0  0  0  0  0  0  0  0  0  0  0  0
   52.1996   13.2217   10.8967 Cl  0  0  0  0  0  0  0  0  0  0  0  0
   42.0269   11.3457   10.2133 C   0  0  0  0  0  0  0  0  0  0  0  0
   37.9979    9.5284    9.9910 O   0  0  0  0  0  0  0  0  0  0  0  0
   40.3955    9.9345   11.3801 O   0  0  0  0  0  0  0  0  0  0  0  0
   46.9619   12.3235    5.8905 C   0  0  0  0  0  0  0  0  0  0  0  0
   47.1381   14.7119    6.1873 C   0  0  0  0  0  0  0  0  0  0  0  0
   38.0025    9.9523   11.3569 C   0  0  0  0  0  0  0  0  0  0  0  0
   41.6379   10.6348   11.5239 C   0  0  0  0  0  0  0  0  0  0  0  0
   39.2589   10.7744   11.6277 C   0  0  0  0  0  0  0  0  0  0  0  0
   47.3324   14.8687    4.8122 C   0  0  0  0  0  0  0  0  0  0  0  0
   47.1445   12.4833    4.5130 C   0  0  0  0  0  0  0  0  0  0  0  0
   47.3318   13.7557    3.9750 C   0  0  0  0  0  0  0  0  0  0  0  0
   43.1599   10.3514   10.5575 C   0  0  0  0  0  0  0  0  0  0  0  0
   48.6764   12.6641    9.2867 C   0  0  0  0  0  0  0  0  0  0  0  0
   46.2878   13.1799    9.1386 C   0  0  0  0  0  0  0  0  0  0  0  0
   43.8872   12.6211    9.9752 C   0  0  0  0  0  0  0  0  0  0  0  0
   44.1521   11.3456   10.5209 C   0  0  0  0  0  0  0  0  0  0  0  0
   47.4616   12.9770    9.8953 C   0  0  0  0  0  0  0  0  0  0  0  0
   45.0147   13.6403    9.8501 C   0  0  0  0  0  0  0  0  0  0  0  0
   41.8742   10.6444   10.1011 C   0  0  0  0  0  0  0  0  0  0  0  0
   48.7397   12.5429    7.8975 C   0  0  0  0  0  0  0  0  0  0  0  0
   43.4966    8.9999   11.0575 C   0  0  0  0  0  0  0  0  0  0  0  0
   49.9325   12.4460   10.0361 C   0  0  0  0  0  0  0  0  0  0  0  0
   46.3446   13.0090    7.7200 C   0  0  0  0  0  0  0  0  0  0  0  0
   42.5440   12.9374    9.5743 C   0  0  0  0  0  0  0  0  0  0  0  0
   41.5502   11.9243    9.6339 C   0  0  0  0  0  0  0  0  0  0  0  0
   47.5905   12.6888    7.1117 C   0  0  0  0  0  0  0  0  0  0  0  0
   44.6263    8.6428   11.3529 O   0  0  0  0  0  0  0  0  0  0  0  0
   51.0347   12.8291    9.6900 O   0  0  0  0  0  0  0  0  0  0  0  0
   45.4044   11.1218   11.0540 O   0  0  0  0  0  0  0  0  0  0  0  0
   47.3940   13.0817   11.2592 O   0  0  0  0  0  0  0  0  0  0  0  0
   42.4402    8.1798   11.1602 O   0  0  0  0  0  0  0  0  0  0  0  0
   49.7635   11.6674   11.1213 O   0  0  0  0  0  0  0  0  0  0  0  0
   42.1169   14.2117    9.1215 C   0  0  0  0  0  0  0  0  0  0  0  0
   45.2305   13.1489    6.8564 C   0  0  0  0  0  0  0  0  0  0  0  0
   40.2288   12.1927    9.2301 C   0  0  0  0  0  0  0  0  0  0  0  0
   47.6794   12.5128    5.7193 C   0  0  0  0  0  0  0  0  0  0  0  0
   45.3336   12.9689    5.4704 C   0  0  0  0  0  0  0  0  0  0  0  0
   40.7961   14.4638    8.7378 C   0  0  0  0  0  0  0  0  0  0  0  0
   46.5581   12.6462    4.9033 C   0  0  0  0  0  0  0  0  0  0  0  0
   39.8509   13.4557    8.7885 C   0  0  0  0  0  0  0  0  0  0  0  0
   46.2267   14.2203    8.5930 H   0  0  0  0  0  0  0  0  0  0  0  0
   44.1220   11.3183    7.8100 H   0  0  0  0  0  0  0  0  0  0  0  0
   44.4601   12.9007    7.1557 H   0  0  0  0  0  0  0  0  0  0  0  0
   45.8402   13.0006   10.6361 H   0  0  0  0  0  0  0  0  0  0  0  0
   46.5959   11.4063   10.4775 H   0  0  0  0  0  0  0  0  0  0  0  0
   47.8777   15.1851    9.9189 H   0  0  0  0  0  0  0  0  0  0  0  0
   48.6825   11.3259    8.1583 H   0  0  0  0  0  0  0  0  0  0  0  0
   43.8056   13.9453    9.3474 H   0  0  0  0  0  0  0  0  0  0  0  0
   42.5068   13.1248    8.5340 H   0  0  0  0  0  0  0  0  0  0  0  0
   44.4935   11.2192   11.7036 H   0  0  0  0  0  0  0  0  0  0  0  0
   44.3806   10.3614   10.1620 H   0  0  0  0  0  0  0  0  0  0  0  0
   50.9096   11.3175    9.2104 H   0  0  0  0  0  0  0  0  0  0  0  0
   50.0997   15.1526   10.9893 H   0  0  0  0  0  0  0  0  0  0  0  0
   42.1175   10.6001    9.4110 H   0  0  0  0  0  0  0  0  0  0  0  0
   41.1890   11.9907    9.9219 H   0  0  0  0  0  0  0  0  0  0  0  0
   38.8333    9.0323    9.8868 H   0  0  0  0  0  0  0  0  0  0  0  0
   46.8243   11.3211    6.2882 H   0  0  0  0  0  0  0  0  0  0  0  0
   47.1569   15.5925    6.8273 H   0  0  0  0  0  0  0  0  0  0  0  0
   37.9768    9.0546   11.9824 H   0  0  0  0  0  0  0  0  0  0  0  0
   37.1039   10.5478   11.5424 H   0  0  0  0  0  0  0  0  0  0  0  0
   42.3885    9.8775   11.7738 H   0  0  0  0  0  0  0  0  0  0  0  0
   41.5901   11.3376   12.3645 H   0  0  0  0  0  0  0  0  0  0  0  0
   39.2835   11.6369   10.9547 H   0  0  0  0  0  0  0  0  0  0  0  0
   39.2699   11.1147   12.6700 H   0  0  0  0  0  0  0  0  0  0  0  0
   47.4849   15.8607    4.3963 H   0  0  0  0  0  0  0  0  0  0  0  0
   47.1486   11.6139    3.8603 H   0  0  0  0  0  0  0  0  0  0  0  0
   47.4850   13.8795    2.9058 H   0  0  0  0  0  0  0  0  0  0  0  0
   44.7002   14.5389    9.3145 H   0  0  0  0  0  0  0  0  0  0  0  0
   45.2309   14.0089   10.8606 H   0  0  0  0  0  0  0  0  0  0  0  0
   41.1065    9.8724   10.1237 H   0  0  0  0  0  0  0  0  0  0  0  0
   49.6989   12.3114    7.4346 H   0  0  0  0  0  0  0  0  0  0  0  0
   45.5119   10.1528   11.2094 H   0  0  0  0  0  0  0  0  0  0  0  0
   46.6965   12.4437   11.5209 H   0  0  0  0  0  0  0  0  0  0  0  0
   42.8052    7.3271   11.4833 H   0  0  0  0  0  0  0  0  0  0  0  0
   50.6558   11.6095   11.5160 H   0  0  0  0  0  0  0  0  0  0  0  0
   42.8012   15.0568    9.0824 H   0  0  0  0  0  0  0  0  0  0  0  0
   44.2481   13.3922    7.2460 H   0  0  0  0  0  0  0  0  0  0  0  0
   39.4717   11.4082    9.2617 H   0  0  0  0  0  0  0  0  0  0  0  0
   48.6319   12.2551    5.2582 H   0  0  0  0  0  0  0  0  0  0  0  0
   44.4533   13.0815    4.8398 H   0  0  0  0  0  0  0  0  0  0  0  0
   40.5125   15.4589    8.4036 H   0  0  0  0  0  0  0  0  0  0  0  0
   46.6396   12.4980    3.8285 H   0  0  0  0  0  0  0  0  0  0  0  0
   38.8222   13.6517    8.4922 H   0  0  0  0  0  0  0  0  0  0  0  0
  2  1  1  0
  3 10  1  0
  4  2  1  0
  5  1  1  0
  6  1  1  0
  7  2  1  0
  8  4  2  0
  9  4  1  0
 10  5  1  0
 11  6  1  0
 12 14  2  0
 13  9  2  0
 14  8  1  0
 15 12  1  0
 16  3  1  0
 17 21  1  0
 18 22  1  0
 19  7  2  0
 20  7  1  0
 21 23  1  0
 22 16  1  0
 23 18  1  0
 24 20  2  0
 25 19  1  0
 26 25  2  0
 11  3  1  0
 13 12  1  0
 24 26  1  0
 28 32  2  0
 29 33  1  0
 30 31  1  0
 31 27  2  0
 32 29  1  0
 33 30  1  0
 34 27  1  0
 35 28  1  0
 36 27  1  0
 37 28  1  0
 38 29  2  0
 39 40  1  0
 40 34  2  0
 41 38  1  0
 42 36  2  0
 43 37  2  0
 44 31  1  0
 45 32  1  0
 46 36  1  0
 47 37  1  0
 48 39  1  0
 49 38  1  0
 50 40  1  0
 51 41  1  0
 52 49  2  0
 53 48  2  0
 54 52  1  0
 55 50  2  0
 30 39  2  0
 53 55  1  0
 35 41  2  0
 51 54  2  0
  2 56  1  1
  5 57  1  0
  5 58  1  0
  6 59  1  0
  6 60  1  0
  8 61  1  0
  9 62  1  0
 10 63  1  0
 10 64  1  0
 11 65  1  0
 11 66  1  0
 13 67  1  0
 14 68  1  0
 16 69  1  0
 16 70  1  0
 17 71  1  0
 19 72  1  0
 20 73  1  0
 21 74  1  0
 21 75  1  0
 22 76  1  0
 22 77  1  0
 23 78  1  0
 23 79  1  0
 24 80  1  0
 25 81  1  0
 26 82  1  0
 33 83  1  0
 33 84  1  0
 34 85  1  0
 35 86  1  0
 44 87  1  0
 45 88  1  0
 46 89  1  0
 47 90  1  0
 48 91  1  0
 49 92  1  0
 50 93  1  0
 51 94  1  0
 52 95  1  0
 53 96  1  0
 54 97  1  0
 55 98  1  0
M  END
> <Uni-Dock RESULT> 
ENERGY=   -5.258  LOWER_BOUND=   10.329  UPPER_BOUND=   13.604
INTER + INTRA:          -5.258
INTER:                  -5.258
INTRA:                   0.000
UNBOUND:                 0.000

$$$$
