
     RDKit          3D

 98103  0  0  0  0  0  0  0  0999 V2000
   49.0128    7.6018   18.7247 N   0  0  0  0  0  0  0  0  0  0  0  0
   48.3687    6.3531   19.2342 C   0  0  1  0  0  0  0  0  0  0  0  0
   48.8380   10.2589   17.3630 N   0  0  0  0  0  0  0  0  0  0  0  0
   48.8988    5.0770   18.5588 C   0  0  0  0  0  0  0  0  0  0  0  0
   48.7951    7.7491   17.2629 C   0  0  0  0  0  0  0  0  0  0  0  0
   48.4481    8.8090   19.3780 C   0  0  0  0  0  0  0  0  0  0  0  0
   48.4561    6.1840   20.7571 C   0  0  0  0  0  0  0  0  0  0  0  0
   50.2763    4.8539   18.3815 C   0  0  0  0  0  0  0  0  0  0  0  0
   47.9991    4.0836   18.1340 C   0  0  0  0  0  0  0  0  0  0  0  0
   49.3913    9.0593   16.7021 C   0  0  0  0  0  0  0  0  0  0  0  0
   49.0382   10.1266   18.8184 C   0  0  0  0  0  0  0  0  0  0  0  0
   49.8313    2.7141   17.3624 C   0  0  0  0  0  0  0  0  0  0  0  0
   48.4631    2.9089   17.5365 C   0  0  0  0  0  0  0  0  0  0  0  0
   50.7405    3.6807   17.7827 C   0  0  0  0  0  0  0  0  0  0  0  0
   50.4017    1.2706   16.6209 Cl  0  0  0  0  0  0  0  0  0  0  0  0
   49.4841   11.4678   16.8212 C   0  0  0  0  0  0  0  0  0  0  0  0
   48.9964   17.4941   16.3866 O   0  0  0  0  0  0  0  0  0  0  0  0
   49.4589   13.8637   16.5593 O   0  0  0  0  0  0  0  0  0  0  0  0
   47.3142    5.8038   21.4837 C   0  0  0  0  0  0  0  0  0  0  0  0
   49.6637    6.3586   21.4546 C   0  0  0  0  0  0  0  0  0  0  0  0
   49.5924   16.2283   16.1285 C   0  0  0  0  0  0  0  0  0  0  0  0
   48.8335   12.7864   17.2659 C   0  0  0  0  0  0  0  0  0  0  0  0
   48.8786   15.1210   16.8966 C   0  0  0  0  0  0  0  0  0  0  0  0
   49.7242    6.1710   22.8364 C   0  0  0  0  0  0  0  0  0  0  0  0
   47.3768    5.6159   22.8659 C   0  0  0  0  0  0  0  0  0  0  0  0
   48.5809    5.8013   23.5414 C   0  0  0  0  0  0  0  0  0  0  0  0
   48.2989    5.8090   17.7065 C   0  0  0  0  0  0  0  0  0  0  0  0
   50.3961   11.4267   16.4497 C   0  0  0  0  0  0  0  0  0  0  0  0
   50.0789    9.8754   18.3259 C   0  0  0  0  0  0  0  0  0  0  0  0
   49.5711    7.4166   19.0583 C   0  0  0  0  0  0  0  0  0  0  0  0
   49.1834    6.8908   17.8042 C   0  0  0  0  0  0  0  0  0  0  0  0
   50.8230   10.3282   17.2075 C   0  0  0  0  0  0  0  0  0  0  0  0
   50.5093    8.6256   19.1017 C   0  0  0  0  0  0  0  0  0  0  0  0
   47.8210    5.2150   18.8775 C   0  0  0  0  0  0  0  0  0  0  0  0
   49.2312   12.1057   16.8159 C   0  0  0  0  0  0  0  0  0  0  0  0
   47.8307    5.2239   16.4236 C   0  0  0  0  0  0  0  0  0  0  0  0
   51.1796   11.9141   15.2826 C   0  0  0  0  0  0  0  0  0  0  0  0
   48.9037   10.6053   18.7138 C   0  0  0  0  0  0  0  0  0  0  0  0
   49.1257    6.7598   20.2537 C   0  0  0  0  0  0  0  0  0  0  0  0
   48.2314    5.6625   20.1384 C   0  0  0  0  0  0  0  0  0  0  0  0
   48.4897   11.7166   17.9341 C   0  0  0  0  0  0  0  0  0  0  0  0
   47.0875    4.2674   16.3006 O   0  0  0  0  0  0  0  0  0  0  0  0
   52.3786   11.8293   15.0890 O   0  0  0  0  0  0  0  0  0  0  0  0
   49.7404    7.4621   16.6899 O   0  0  0  0  0  0  0  0  0  0  0  0
   51.9635    9.6916   16.7942 O   0  0  0  0  0  0  0  0  0  0  0  0
   48.3135    5.8633   15.3398 O   0  0  0  0  0  0  0  0  0  0  0  0
   50.3869   12.5222   14.3735 O   0  0  0  0  0  0  0  0  0  0  0  0
   49.5165    7.1172   21.5703 C   0  0  0  0  0  0  0  0  0  0  0  0
   48.1058   10.3018   19.8439 C   0  0  0  0  0  0  0  0  0  0  0  0
   47.7524    5.0043   21.2842 C   0  0  0  0  0  0  0  0  0  0  0  0
   47.3356   12.4435   18.2732 C   0  0  0  0  0  0  0  0  0  0  0  0
   46.9603   11.0324   20.1747 C   0  0  0  0  0  0  0  0  0  0  0  0
   49.0352    6.4513   22.7018 C   0  0  0  0  0  0  0  0  0  0  0  0
   46.5724   12.1026   19.3855 C   0  0  0  0  0  0  0  0  0  0  0  0
   48.1474    5.3977   22.5588 C   0  0  0  0  0  0  0  0  0  0  0  0
   47.3004    6.4317   18.9808 H   0  0  0  0  0  0  0  0  0  0  0  0
   47.7222    7.7168   17.0299 H   0  0  0  0  0  0  0  0  0  0  0  0
   49.2692    6.9276   16.7160 H   0  0  0  0  0  0  0  0  0  0  0  0
   47.3562    8.8310   19.2624 H   0  0  0  0  0  0  0  0  0  0  0  0
   48.6609    8.8011   20.4524 H   0  0  0  0  0  0  0  0  0  0  0  0
   50.9943    5.6040   18.7066 H   0  0  0  0  0  0  0  0  0  0  0  0
   46.9285    4.2166   18.2708 H   0  0  0  0  0  0  0  0  0  0  0  0
   50.4847    9.0277   16.8049 H   0  0  0  0  0  0  0  0  0  0  0  0
   49.1655    9.1009   15.6295 H   0  0  0  0  0  0  0  0  0  0  0  0
   48.5447   10.9541   19.3401 H   0  0  0  0  0  0  0  0  0  0  0  0
   50.1067   10.1724   19.0674 H   0  0  0  0  0  0  0  0  0  0  0  0
   47.7543    2.1512   17.2141 H   0  0  0  0  0  0  0  0  0  0  0  0
   51.8084    3.5305   17.6505 H   0  0  0  0  0  0  0  0  0  0  0  0
   50.5556   11.4921   17.0626 H   0  0  0  0  0  0  0  0  0  0  0  0
   49.4317   11.4417   15.7242 H   0  0  0  0  0  0  0  0  0  0  0  0
   48.1334   17.5022   15.9378 H   0  0  0  0  0  0  0  0  0  0  0  0
   46.3659    5.6457   20.9749 H   0  0  0  0  0  0  0  0  0  0  0  0
   50.5641    6.6509   20.9190 H   0  0  0  0  0  0  0  0  0  0  0  0
   50.6461   16.2732   16.4232 H   0  0  0  0  0  0  0  0  0  0  0  0
   49.5710   16.0349   15.0503 H   0  0  0  0  0  0  0  0  0  0  0  0
   48.9680   12.9445   18.3411 H   0  0  0  0  0  0  0  0  0  0  0  0
   47.7617   12.7742   17.0356 H   0  0  0  0  0  0  0  0  0  0  0  0
   48.9654   15.3024   17.9741 H   0  0  0  0  0  0  0  0  0  0  0  0
   47.8114   15.1207   16.6442 H   0  0  0  0  0  0  0  0  0  0  0  0
   50.6650    6.3137   23.3617 H   0  0  0  0  0  0  0  0  0  0  0  0
   46.4866    5.3216   23.4150 H   0  0  0  0  0  0  0  0  0  0  0  0
   48.6297    5.6533   24.6165 H   0  0  0  0  0  0  0  0  0  0  0  0
   51.4834    8.2487   18.7755 H   0  0  0  0  0  0  0  0  0  0  0  0
   50.6965    8.9724   20.1209 H   0  0  0  0  0  0  0  0  0  0  0  0
   47.1329    4.3724   18.8018 H   0  0  0  0  0  0  0  0  0  0  0  0
   48.9071   12.9623   16.2280 H   0  0  0  0  0  0  0  0  0  0  0  0
   49.3413    7.0539   15.8933 H   0  0  0  0  0  0  0  0  0  0  0  0
   52.4314    9.3026   17.5448 H   0  0  0  0  0  0  0  0  0  0  0  0
   47.9125    5.3667   14.5914 H   0  0  0  0  0  0  0  0  0  0  0  0
   51.0153   12.7623   13.6606 H   0  0  0  0  0  0  0  0  0  0  0  0
   50.2148    7.9282   21.7537 H   0  0  0  0  0  0  0  0  0  0  0  0
   48.3631    9.4824   20.5048 H   0  0  0  0  0  0  0  0  0  0  0  0
   47.0640    4.1656   21.1922 H   0  0  0  0  0  0  0  0  0  0  0  0
   47.0194   13.2908   17.6674 H   0  0  0  0  0  0  0  0  0  0  0  0
   46.3765   10.7591   21.0500 H   0  0  0  0  0  0  0  0  0  0  0  0
   49.3621    6.7595   23.6922 H   0  0  0  0  0  0  0  0  0  0  0  0
   45.6818   12.6738   19.6331 H   0  0  0  0  0  0  0  0  0  0  0  0
   47.7663    4.8773   23.4335 H   0  0  0  0  0  0  0  0  0  0  0  0
  2  1  1  0
  3 10  1  0
  4  2  1  0
  5  1  1  0
  6  1  1  0
  7  2  1  0
  8  4  2  0
  9  4  1  0
 10  5  1  0
 11  6  1  0
 12 14  2  0
 13  9  2  0
 14  8  1  0
 15 12  1  0
 16  3  1  0
 17 21  1  0
 18 22  1  0
 19  7  2  0
 20  7  1  0
 21 23  1  0
 22 16  1  0
 23 18  1  0
 24 20  2  0
 25 19  1  0
 26 25  2  0
 11  3  1  0
 13 12  1  0
 24 26  1  0
 28 32  2  0
 29 33  1  0
 30 31  1  0
 31 27  2  0
 32 29  1  0
 33 30  1  0
 34 27  1  0
 35 28  1  0
 36 27  1  0
 37 28  1  0
 38 29  2  0
 39 40  1  0
 40 34  2  0
 41 38  1  0
 42 36  2  0
 43 37  2  0
 44 31  1  0
 45 32  1  0
 46 36  1  0
 47 37  1  0
 48 39  1  0
 49 38  1  0
 50 40  1  0
 51 41  1  0
 52 49  2  0
 53 48  2  0
 54 52  1  0
 55 50  2  0
 30 39  2  0
 53 55  1  0
 35 41  2  0
 51 54  2  0
  2 56  1  1
  5 57  1  0
  5 58  1  0
  6 59  1  0
  6 60  1  0
  8 61  1  0
  9 62  1  0
 10 63  1  0
 10 64  1  0
 11 65  1  0
 11 66  1  0
 13 67  1  0
 14 68  1  0
 16 69  1  0
 16 70  1  0
 17 71  1  0
 19 72  1  0
 20 73  1  0
 21 74  1  0
 21 75  1  0
 22 76  1  0
 22 77  1  0
 23 78  1  0
 23 79  1  0
 24 80  1  0
 25 81  1  0
 26 82  1  0
 33 83  1  0
 33 84  1  0
 34 85  1  0
 35 86  1  0
 44 87  1  0
 45 88  1  0
 46 89  1  0
 47 90  1  0
 48 91  1  0
 49 92  1  0
 50 93  1  0
 51 94  1  0
 52 95  1  0
 53 96  1  0
 54 97  1  0
 55 98  1  0
M  END
> <Uni-Dock RESULT> 
ENERGY=   -6.934  LOWER_BOUND=    0.000  UPPER_BOUND=    0.000
INTER + INTRA:          -6.934
INTER:                  -6.934
INTRA:                   0.000
UNBOUND:                 0.000

$$$$

     RDKit          3D

 98103  0  0  0  0  0  0  0  0999 V2000
   49.4121    7.4669   18.4858 N   0  0  0  0  0  0  0  0  0  0  0  0
   50.0426    6.1168   18.6022 C   0  0  1  0  0  0  0  0  0  0  0  0
   49.3775   10.2429   17.3734 N   0  0  0  0  0  0  0  0  0  0  0  0
   50.4821    5.7731   20.0354 C   0  0  0  0  0  0  0  0  0  0  0  0
   50.3519    8.5280   18.9293 C   0  0  0  0  0  0  0  0  0  0  0  0
   49.0352    7.7704   17.0827 C   0  0  0  0  0  0  0  0  0  0  0  0
   49.1726    4.9744   18.0602 C   0  0  0  0  0  0  0  0  0  0  0  0
   49.6369    5.9912   21.1386 C   0  0  0  0  0  0  0  0  0  0  0  0
   51.7430    5.1937   20.2617 C   0  0  0  0  0  0  0  0  0  0  0  0
   49.7645    9.9477   18.7681 C   0  0  0  0  0  0  0  0  0  0  0  0
   48.4489    9.1935   16.9125 C   0  0  0  0  0  0  0  0  0  0  0  0
   51.3016    5.0906   22.6328 C   0  0  0  0  0  0  0  0  0  0  0  0
   52.1516    4.8563   21.5545 C   0  0  0  0  0  0  0  0  0  0  0  0
   50.0457    5.6558   22.4312 C   0  0  0  0  0  0  0  0  0  0  0  0
   51.8078    4.6810   24.2250 Cl  0  0  0  0  0  0  0  0  0  0  0  0
   48.7779   11.5872   17.2976 C   0  0  0  0  0  0  0  0  0  0  0  0
   47.2606   16.0560   13.4936 O   0  0  0  0  0  0  0  0  0  0  0  0
   48.0998   13.4559   15.9347 O   0  0  0  0  0  0  0  0  0  0  0  0
   49.7436    3.9983   17.2249 C   0  0  0  0  0  0  0  0  0  0  0  0
   47.8169    4.8457   18.4076 C   0  0  0  0  0  0  0  0  0  0  0  0
   47.4106   15.4470   14.7705 C   0  0  0  0  0  0  0  0  0  0  0  0
   48.5440   12.0960   15.8672 C   0  0  0  0  0  0  0  0  0  0  0  0
   47.8962   14.0077   14.6364 C   0  0  0  0  0  0  0  0  0  0  0  0
   47.0536    3.7814   17.9247 C   0  0  0  0  0  0  0  0  0  0  0  0
   48.9786    2.9341   16.7433 C   0  0  0  0  0  0  0  0  0  0  0  0
   47.6341    2.8274   17.0920 C   0  0  0  0  0  0  0  0  0  0  0  0
   51.1538    6.7612   19.5944 C   0  0  0  0  0  0  0  0  0  0  0  0
   48.3250   11.9804   18.0798 C   0  0  0  0  0  0  0  0  0  0  0  0
   48.0433    9.5445   17.9617 C   0  0  0  0  0  0  0  0  0  0  0  0
   48.8728    7.2116   18.8042 C   0  0  0  0  0  0  0  0  0  0  0  0
   50.0588    7.6235   19.4550 C   0  0  0  0  0  0  0  0  0  0  0  0
   47.9649   10.7654   18.6776 C   0  0  0  0  0  0  0  0  0  0  0  0
   47.7237    8.2108   18.6462 C   0  0  0  0  0  0  0  0  0  0  0  0
   51.0541    5.4537   19.1118 C   0  0  0  0  0  0  0  0  0  0  0  0
   48.7439   11.9952   16.7470 C   0  0  0  0  0  0  0  0  0  0  0  0
   52.4368    7.1358   20.2432 C   0  0  0  0  0  0  0  0  0  0  0  0
   48.2329   13.2665   18.8222 C   0  0  0  0  0  0  0  0  0  0  0  0
   48.4394    9.5785   16.5812 C   0  0  0  0  0  0  0  0  0  0  0  0
   48.7573    5.8490   18.3696 C   0  0  0  0  0  0  0  0  0  0  0  0
   49.8750    4.9860   18.5203 C   0  0  0  0  0  0  0  0  0  0  0  0
   48.7979   10.8199   15.9938 C   0  0  0  0  0  0  0  0  0  0  0  0
   53.3970    6.4056   20.4083 O   0  0  0  0  0  0  0  0  0  0  0  0
   47.4810   13.5605   19.7335 O   0  0  0  0  0  0  0  0  0  0  0  0
   50.0755    8.8909   19.9762 O   0  0  0  0  0  0  0  0  0  0  0  0
   47.5760   10.8083   19.9906 O   0  0  0  0  0  0  0  0  0  0  0  0
   52.4674    8.4170   20.6609 O   0  0  0  0  0  0  0  0  0  0  0  0
   49.1239   14.1700   18.3595 O   0  0  0  0  0  0  0  0  0  0  0  0
   47.5930    5.2760   17.7951 C   0  0  0  0  0  0  0  0  0  0  0  0
   48.4984    8.4452   15.7338 C   0  0  0  0  0  0  0  0  0  0  0  0
   49.8131    3.6501   18.0879 C   0  0  0  0  0  0  0  0  0  0  0  0
   49.2071   10.8890   14.6510 C   0  0  0  0  0  0  0  0  0  0  0  0
   48.9047    8.5242   14.3982 C   0  0  0  0  0  0  0  0  0  0  0  0
   47.5435    3.9440   17.3725 C   0  0  0  0  0  0  0  0  0  0  0  0
   49.2636    9.7478   13.8571 C   0  0  0  0  0  0  0  0  0  0  0  0
   48.6568    3.1319   17.5134 C   0  0  0  0  0  0  0  0  0  0  0  0
   50.9532    6.1475   17.9846 H   0  0  0  0  0  0  0  0  0  0  0  0
   51.2935    8.4655   18.3672 H   0  0  0  0  0  0  0  0  0  0  0  0
   50.5997    8.4078   19.9890 H   0  0  0  0  0  0  0  0  0  0  0  0
   49.9051    7.6628   16.4211 H   0  0  0  0  0  0  0  0  0  0  0  0
   48.2697    7.0713   16.7292 H   0  0  0  0  0  0  0  0  0  0  0  0
   48.6536    6.4329   20.9905 H   0  0  0  0  0  0  0  0  0  0  0  0
   52.4146    4.9962   19.4295 H   0  0  0  0  0  0  0  0  0  0  0  0
   48.9041   10.0576   19.4424 H   0  0  0  0  0  0  0  0  0  0  0  0
   50.5266   10.6671   19.0917 H   0  0  0  0  0  0  0  0  0  0  0  0
   48.2279    9.3315   15.8484 H   0  0  0  0  0  0  0  0  0  0  0  0
   47.4968    9.2539   17.4561 H   0  0  0  0  0  0  0  0  0  0  0  0
   53.1292    4.4091   21.7118 H   0  0  0  0  0  0  0  0  0  0  0  0
   49.3796    5.8374   23.2700 H   0  0  0  0  0  0  0  0  0  0  0  0
   47.8353   11.6381   17.8597 H   0  0  0  0  0  0  0  0  0  0  0  0
   49.4489   12.3075   17.7853 H   0  0  0  0  0  0  0  0  0  0  0  0
   48.1545   16.2081   13.1410 H   0  0  0  0  0  0  0  0  0  0  0  0
   50.7935    4.0581   16.9470 H   0  0  0  0  0  0  0  0  0  0  0  0
   47.3481    5.5845   19.0537 H   0  0  0  0  0  0  0  0  0  0  0  0
   46.4438   15.4728   15.2841 H   0  0  0  0  0  0  0  0  0  0  0  0
   48.1069   16.0418   15.3721 H   0  0  0  0  0  0  0  0  0  0  0  0
   47.7777   11.4993   15.3614 H   0  0  0  0  0  0  0  0  0  0  0  0
   49.4762   12.0461   15.2924 H   0  0  0  0  0  0  0  0  0  0  0  0
   47.1559   13.4170   14.0846 H   0  0  0  0  0  0  0  0  0  0  0  0
   48.8333   13.9821   14.0674 H   0  0  0  0  0  0  0  0  0  0  0  0
   46.0053    3.6982   18.1996 H   0  0  0  0  0  0  0  0  0  0  0  0
   49.4329    2.1865   16.0988 H   0  0  0  0  0  0  0  0  0  0  0  0
   47.0397    1.9982   16.7187 H   0  0  0  0  0  0  0  0  0  0  0  0
   47.3174    8.3472   19.6531 H   0  0  0  0  0  0  0  0  0  0  0  0
   46.8835    7.7955   18.0845 H   0  0  0  0  0  0  0  0  0  0  0  0
   51.9061    4.7820   19.2208 H   0  0  0  0  0  0  0  0  0  0  0  0
   49.0164   12.9422   16.2850 H   0  0  0  0  0  0  0  0  0  0  0  0
   50.9686    9.0717   20.3370 H   0  0  0  0  0  0  0  0  0  0  0  0
   46.9392   10.1078   20.1835 H   0  0  0  0  0  0  0  0  0  0  0  0
   53.3658    8.5020   21.0524 H   0  0  0  0  0  0  0  0  0  0  0  0
   48.9766   14.9425   18.9445 H   0  0  0  0  0  0  0  0  0  0  0  0
   46.6833    5.8538   17.6624 H   0  0  0  0  0  0  0  0  0  0  0  0
   48.2210    7.4624   16.0966 H   0  0  0  0  0  0  0  0  0  0  0  0
   50.6733    2.9921   18.2018 H   0  0  0  0  0  0  0  0  0  0  0  0
   49.4873   11.8431   14.2080 H   0  0  0  0  0  0  0  0  0  0  0  0
   48.9384    7.6257   13.7873 H   0  0  0  0  0  0  0  0  0  0  0  0
   46.6294    3.5468   16.9373 H   0  0  0  0  0  0  0  0  0  0  0  0
   49.5838    9.8179   12.8211 H   0  0  0  0  0  0  0  0  0  0  0  0
   48.6273    2.0966   17.1845 H   0  0  0  0  0  0  0  0  0  0  0  0
  2  1  1  0
  3 10  1  0
  4  2  1  0
  5  1  1  0
  6  1  1  0
  7  2  1  0
  8  4  2  0
  9  4  1  0
 10  5  1  0
 11  6  1  0
 12 14  2  0
 13  9  2  0
 14  8  1  0
 15 12  1  0
 16  3  1  0
 17 21  1  0
 18 22  1  0
 19  7  2  0
 20  7  1  0
 21 23  1  0
 22 16  1  0
 23 18  1  0
 24 20  2  0
 25 19  1  0
 26 25  2  0
 11  3  1  0
 13 12  1  0
 24 26  1  0
 28 32  2  0
 29 33  1  0
 30 31  1  0
 31 27  2  0
 32 29  1  0
 33 30  1  0
 34 27  1  0
 35 28  1  0
 36 27  1  0
 37 28  1  0
 38 29  2  0
 39 40  1  0
 40 34  2  0
 41 38  1  0
 42 36  2  0
 43 37  2  0
 44 31  1  0
 45 32  1  0
 46 36  1  0
 47 37  1  0
 48 39  1  0
 49 38  1  0
 50 40  1  0
 51 41  1  0
 52 49  2  0
 53 48  2  0
 54 52  1  0
 55 50  2  0
 30 39  2  0
 53 55  1  0
 35 41  2  0
 51 54  2  0
  2 56  1  1
  5 57  1  0
  5 58  1  0
  6 59  1  0
  6 60  1  0
  8 61  1  0
  9 62  1  0
 10 63  1  0
 10 64  1  0
 11 65  1  0
 11 66  1  0
 13 67  1  0
 14 68  1  0
 16 69  1  0
 16 70  1  0
 17 71  1  0
 19 72  1  0
 20 73  1  0
 21 74  1  0
 21 75  1  0
 22 76  1  0
 22 77  1  0
 23 78  1  0
 23 79  1  0
 24 80  1  0
 25 81  1  0
 26 82  1  0
 33 83  1  0
 33 84  1  0
 34 85  1  0
 35 86  1  0
 44 87  1  0
 45 88  1  0
 46 89  1  0
 47 90  1  0
 48 91  1  0
 49 92  1  0
 50 93  1  0
 51 94  1  0
 52 95  1  0
 53 96  1  0
 54 97  1  0
 55 98  1  0
M  END
> <Uni-Dock RESULT> 
ENERGY=   -6.646  LOWER_BOUND=    2.373  UPPER_BOUND=    4.363
INTER + INTRA:          -6.646
INTER:                  -6.646
INTRA:                   0.000
UNBOUND:                 0.000

$$$$

     RDKit          3D

 98103  0  0  0  0  0  0  0  0999 V2000
   50.8853    6.5881   16.8084 N   0  0  0  0  0  0  0  0  0  0  0  0
   50.8818    5.1499   17.2153 C   0  0  1  0  0  0  0  0  0  0  0  0
   51.5605    8.7427   14.8471 N   0  0  0  0  0  0  0  0  0  0  0  0
   51.6807    4.8808   18.5018 C   0  0  0  0  0  0  0  0  0  0  0  0
   52.2720    7.0682   16.5794 C   0  0  0  0  0  0  0  0  0  0  0  0
   50.1329    6.7964   15.5461 C   0  0  0  0  0  0  0  0  0  0  0  0
   49.4777    4.5486   17.3656 C   0  0  0  0  0  0  0  0  0  0  0  0
   51.5358    5.6901   19.6431 C   0  0  0  0  0  0  0  0  0  0  0  0
   52.5553    3.7819   18.5664 C   0  0  0  0  0  0  0  0  0  0  0  0
   52.3212    8.5347   16.0962 C   0  0  0  0  0  0  0  0  0  0  0  0
   50.1807    8.2635   15.0533 C   0  0  0  0  0  0  0  0  0  0  0  0
   53.1222    4.3310   20.8478 C   0  0  0  0  0  0  0  0  0  0  0  0
   53.2744    3.5098   19.7331 C   0  0  0  0  0  0  0  0  0  0  0  0
   52.2557    5.4197   20.8090 C   0  0  0  0  0  0  0  0  0  0  0  0
   54.0126    3.9994   22.2817 Cl  0  0  0  0  0  0  0  0  0  0  0  0
   51.6032   10.1670   14.4701 C   0  0  0  0  0  0  0  0  0  0  0  0
   50.6811   14.0451    9.9037 O   0  0  0  0  0  0  0  0  0  0  0  0
   51.2752   11.8503   12.7766 O   0  0  0  0  0  0  0  0  0  0  0  0
   49.1933    3.2914   16.8043 C   0  0  0  0  0  0  0  0  0  0  0  0
   48.4650    5.2012   18.0893 C   0  0  0  0  0  0  0  0  0  0  0  0
   51.0705   13.6763   11.2214 C   0  0  0  0  0  0  0  0  0  0  0  0
   51.0413   10.4688   13.0727 C   0  0  0  0  0  0  0  0  0  0  0  0
   50.8098   12.1952   11.4744 C   0  0  0  0  0  0  0  0  0  0  0  0
   47.2043    4.6205   18.2361 C   0  0  0  0  0  0  0  0  0  0  0  0
   47.9317    2.7117   16.9529 C   0  0  0  0  0  0  0  0  0  0  0  0
   46.9378    3.3772   17.6670 C   0  0  0  0  0  0  0  0  0  0  0  0
   52.4580    5.2863   17.5781 C   0  0  0  0  0  0  0  0  0  0  0  0
   51.7188   10.8652   15.1561 C   0  0  0  0  0  0  0  0  0  0  0  0
   50.4261    8.9479   15.9807 C   0  0  0  0  0  0  0  0  0  0  0  0
   50.4710    6.7075   17.3293 C   0  0  0  0  0  0  0  0  0  0  0  0
   51.8715    6.5516   17.4472 C   0  0  0  0  0  0  0  0  0  0  0  0
   51.1639   10.1352   16.2156 C   0  0  0  0  0  0  0  0  0  0  0  0
   49.8900    8.1123   17.1485 C   0  0  0  0  0  0  0  0  0  0  0  0
   51.6348    4.1585   17.6308 C   0  0  0  0  0  0  0  0  0  0  0  0
   51.5208   10.4320   13.8426 C   0  0  0  0  0  0  0  0  0  0  0  0
   53.9210    5.0486   17.6809 C   0  0  0  0  0  0  0  0  0  0  0  0
   52.4834   12.1188   15.3958 C   0  0  0  0  0  0  0  0  0  0  0  0
   50.1982    8.5344   14.6238 C   0  0  0  0  0  0  0  0  0  0  0  0
   49.6315    5.5499   17.4487 C   0  0  0  0  0  0  0  0  0  0  0  0
   50.2408    4.2743   17.5838 C   0  0  0  0  0  0  0  0  0  0  0  0
   50.7671    9.2891   13.5649 C   0  0  0  0  0  0  0  0  0  0  0  0
   54.4636    3.9683   17.8250 O   0  0  0  0  0  0  0  0  0  0  0  0
   52.3675   12.9107   16.3132 O   0  0  0  0  0  0  0  0  0  0  0  0
   52.6264    7.6953   17.4656 O   0  0  0  0  0  0  0  0  0  0  0  0
   51.4021   10.5978   17.4830 O   0  0  0  0  0  0  0  0  0  0  0  0
   54.6507    6.1789   17.5980 O   0  0  0  0  0  0  0  0  0  0  0  0
   53.3947   12.3363   14.4228 O   0  0  0  0  0  0  0  0  0  0  0  0
   48.2126    5.5726   17.4499 C   0  0  0  0  0  0  0  0  0  0  0  0
   49.4276    7.4079   14.2456 C   0  0  0  0  0  0  0  0  0  0  0  0
   49.4570    3.1117   17.6814 C   0  0  0  0  0  0  0  0  0  0  0  0
   50.5799    8.9048   12.2260 C   0  0  0  0  0  0  0  0  0  0  0  0
   49.2450    7.0346   12.9104 C   0  0  0  0  0  0  0  0  0  0  0  0
   47.4444    4.4086   17.5514 C   0  0  0  0  0  0  0  0  0  0  0  0
   49.8257    7.7822   11.8991 C   0  0  0  0  0  0  0  0  0  0  0  0
   48.0674    3.1762   17.6611 C   0  0  0  0  0  0  0  0  0  0  0  0
   51.3819    4.5987   16.4044 H   0  0  0  0  0  0  0  0  0  0  0  0
   52.7810    6.4323   15.8424 H   0  0  0  0  0  0  0  0  0  0  0  0
   52.8558    7.0213   17.5045 H   0  0  0  0  0  0  0  0  0  0  0  0
   50.5242    6.1426   14.7551 H   0  0  0  0  0  0  0  0  0  0  0  0
   49.0755    6.5451   15.6816 H   0  0  0  0  0  0  0  0  0  0  0  0
   50.8610    6.5435   19.6218 H   0  0  0  0  0  0  0  0  0  0  0  0
   52.6786    3.1261   17.7077 H   0  0  0  0  0  0  0  0  0  0  0  0
   51.9437    9.1875   16.8951 H   0  0  0  0  0  0  0  0  0  0  0  0
   53.3722    8.7995   15.9277 H   0  0  0  0  0  0  0  0  0  0  0  0
   49.6242    8.3107   14.1107 H   0  0  0  0  0  0  0  0  0  0  0  0
   49.6546    8.8998   15.7772 H   0  0  0  0  0  0  0  0  0  0  0  0
   53.9460    2.6564   19.7662 H   0  0  0  0  0  0  0  0  0  0  0  0
   52.1330    6.0605   21.6776 H   0  0  0  0  0  0  0  0  0  0  0  0
   51.0885   10.7935   15.2115 H   0  0  0  0  0  0  0  0  0  0  0  0
   52.6475   10.5078   14.4732 H   0  0  0  0  0  0  0  0  0  0  0  0
   51.3264   13.6500    9.2923 H   0  0  0  0  0  0  0  0  0  0  0  0
   49.9573    2.7510   16.2500 H   0  0  0  0  0  0  0  0  0  0  0  0
   48.6562    6.1742   18.5364 H   0  0  0  0  0  0  0  0  0  0  0  0
   50.5058   14.2860   11.9346 H   0  0  0  0  0  0  0  0  0  0  0  0
   52.1295   13.9185   11.3636 H   0  0  0  0  0  0  0  0  0  0  0  0
   49.9637   10.2776   13.0359 H   0  0  0  0  0  0  0  0  0  0  0  0
   51.5427    9.8462   12.3224 H   0  0  0  0  0  0  0  0  0  0  0  0
   49.7370   11.9878   11.3873 H   0  0  0  0  0  0  0  0  0  0  0  0
   51.3278   11.5915   10.7195 H   0  0  0  0  0  0  0  0  0  0  0  0
   46.4306    5.1399   18.7956 H   0  0  0  0  0  0  0  0  0  0  0  0
   47.7257    1.7392   16.5142 H   0  0  0  0  0  0  0  0  0  0  0  0
   45.9570    2.9251   17.7840 H   0  0  0  0  0  0  0  0  0  0  0  0
   50.0281    8.6097   18.1134 H   0  0  0  0  0  0  0  0  0  0  0  0
   48.8052    8.1019   17.0180 H   0  0  0  0  0  0  0  0  0  0  0  0
   52.0911    3.1735   17.7334 H   0  0  0  0  0  0  0  0  0  0  0  0
   51.9483   11.0058   13.0226 H   0  0  0  0  0  0  0  0  0  0  0  0
   53.5743    7.4472   17.4838 H   0  0  0  0  0  0  0  0  0  0  0  0
   50.6716   10.3728   18.0740 H   0  0  0  0  0  0  0  0  0  0  0  0
   55.5755    5.8530   17.6758 H   0  0  0  0  0  0  0  0  0  0  0  0
   53.8361   13.1608   14.7163 H   0  0  0  0  0  0  0  0  0  0  0  0
   47.6606    6.5047   17.3746 H   0  0  0  0  0  0  0  0  0  0  0  0
   48.9406    6.7895   14.9905 H   0  0  0  0  0  0  0  0  0  0  0  0
   49.9276    2.1348   17.7813 H   0  0  0  0  0  0  0  0  0  0  0  0
   51.0243    9.4839   11.4185 H   0  0  0  0  0  0  0  0  0  0  0  0
   48.6483    6.1588   12.6686 H   0  0  0  0  0  0  0  0  0  0  0  0
   46.3588    4.4734   17.5481 H   0  0  0  0  0  0  0  0  0  0  0  0
   49.6920    7.4975   10.8591 H   0  0  0  0  0  0  0  0  0  0  0  0
   47.4774    2.2668   17.7372 H   0  0  0  0  0  0  0  0  0  0  0  0
  2  1  1  0
  3 10  1  0
  4  2  1  0
  5  1  1  0
  6  1  1  0
  7  2  1  0
  8  4  2  0
  9  4  1  0
 10  5  1  0
 11  6  1  0
 12 14  2  0
 13  9  2  0
 14  8  1  0
 15 12  1  0
 16  3  1  0
 17 21  1  0
 18 22  1  0
 19  7  2  0
 20  7  1  0
 21 23  1  0
 22 16  1  0
 23 18  1  0
 24 20  2  0
 25 19  1  0
 26 25  2  0
 11  3  1  0
 13 12  1  0
 24 26  1  0
 28 32  2  0
 29 33  1  0
 30 31  1  0
 31 27  2  0
 32 29  1  0
 33 30  1  0
 34 27  1  0
 35 28  1  0
 36 27  1  0
 37 28  1  0
 38 29  2  0
 39 40  1  0
 40 34  2  0
 41 38  1  0
 42 36  2  0
 43 37  2  0
 44 31  1  0
 45 32  1  0
 46 36  1  0
 47 37  1  0
 48 39  1  0
 49 38  1  0
 50 40  1  0
 51 41  1  0
 52 49  2  0
 53 48  2  0
 54 52  1  0
 55 50  2  0
 30 39  2  0
 53 55  1  0
 35 41  2  0
 51 54  2  0
  2 56  1  1
  5 57  1  0
  5 58  1  0
  6 59  1  0
  6 60  1  0
  8 61  1  0
  9 62  1  0
 10 63  1  0
 10 64  1  0
 11 65  1  0
 11 66  1  0
 13 67  1  0
 14 68  1  0
 16 69  1  0
 16 70  1  0
 17 71  1  0
 19 72  1  0
 20 73  1  0
 21 74  1  0
 21 75  1  0
 22 76  1  0
 22 77  1  0
 23 78  1  0
 23 79  1  0
 24 80  1  0
 25 81  1  0
 26 82  1  0
 33 83  1  0
 33 84  1  0
 34 85  1  0
 35 86  1  0
 44 87  1  0
 45 88  1  0
 46 89  1  0
 47 90  1  0
 48 91  1  0
 49 92  1  0
 50 93  1  0
 51 94  1  0
 52 95  1  0
 53 96  1  0
 54 97  1  0
 55 98  1  0
M  END
> <Uni-Dock RESULT> 
ENERGY=   -6.297  LOWER_BOUND=    3.292  UPPER_BOUND=    4.871
INTER + INTRA:          -6.297
INTER:                  -6.297
INTRA:                   0.000
UNBOUND:                 0.000

$$$$

     RDKit          3D

 98103  0  0  0  0  0  0  0  0999 V2000
   49.5074    7.2913   15.2086 N   0  0  0  0  0  0  0  0  0  0  0  0
   49.4638    7.3197   13.7149 C   0  0  1  0  0  0  0  0  0  0  0  0
   50.1120    5.8788   17.7745 N   0  0  0  0  0  0  0  0  0  0  0  0
   48.0444    7.5047   13.1521 C   0  0  0  0  0  0  0  0  0  0  0  0
   48.6707    6.1852   15.7399 C   0  0  0  0  0  0  0  0  0  0  0  0
   50.8890    7.0771   15.7069 C   0  0  0  0  0  0  0  0  0  0  0  0
   50.3904    8.3682   13.0845 C   0  0  0  0  0  0  0  0  0  0  0  0
   47.1690    8.4795   13.6641 C   0  0  0  0  0  0  0  0  0  0  0  0
   47.6084    6.7115   12.0762 C   0  0  0  0  0  0  0  0  0  0  0  0
   48.7346    6.0783   17.2797 C   0  0  0  0  0  0  0  0  0  0  0  0
   50.9607    6.9652   17.2496 C   0  0  0  0  0  0  0  0  0  0  0  0
   45.4764    7.8439   12.0684 C   0  0  0  0  0  0  0  0  0  0  0  0
   46.3297    6.8788   11.5386 C   0  0  0  0  0  0  0  0  0  0  0  0
   45.8900    8.6458   13.1283 C   0  0  0  0  0  0  0  0  0  0  0  0
   43.8998    8.0450   11.4104 Cl  0  0  0  0  0  0  0  0  0  0  0  0
   50.1103    5.8381   19.2479 C   0  0  0  0  0  0  0  0  0  0  0  0
   53.3706    4.2288   24.0979 O   0  0  0  0  0  0  0  0  0  0  0  0
   51.2674    5.2710   21.2847 O   0  0  0  0  0  0  0  0  0  0  0  0
   51.2064    8.0141   11.9958 C   0  0  0  0  0  0  0  0  0  0  0  0
   50.4220    9.6982   13.5376 C   0  0  0  0  0  0  0  0  0  0  0  0
   52.2174    4.7240   23.4279 C   0  0  0  0  0  0  0  0  0  0  0  0
   51.4475    5.4098   19.8707 C   0  0  0  0  0  0  0  0  0  0  0  0
   52.4639    4.8387   21.9273 C   0  0  0  0  0  0  0  0  0  0  0  0
   51.2525   10.6408   12.9292 C   0  0  0  0  0  0  0  0  0  0  0  0
   52.0360    8.9586   11.3879 C   0  0  0  0  0  0  0  0  0  0  0  0
   52.0598   10.2704   11.8560 C   0  0  0  0  0  0  0  0  0  0  0  0
   48.1305    6.3957   13.7724 C   0  0  0  0  0  0  0  0  0  0  0  0
   49.4128    6.3071   19.7628 C   0  0  0  0  0  0  0  0  0  0  0  0
   50.0038    7.4900   17.6943 C   0  0  0  0  0  0  0  0  0  0  0  0
   49.3823    7.9558   15.1969 C   0  0  0  0  0  0  0  0  0  0  0  0
   48.3947    6.9581   15.0279 C   0  0  0  0  0  0  0  0  0  0  0  0
   49.1368    7.2836   18.7966 C   0  0  0  0  0  0  0  0  0  0  0  0
   49.6549    8.5047   16.5999 C   0  0  0  0  0  0  0  0  0  0  0  0
   48.8344    6.8607   12.6586 C   0  0  0  0  0  0  0  0  0  0  0  0
   50.5755    5.5398   19.6546 C   0  0  0  0  0  0  0  0  0  0  0  0
   47.1265    5.3282   13.5281 C   0  0  0  0  0  0  0  0  0  0  0  0
   48.5131    6.0946   20.9285 C   0  0  0  0  0  0  0  0  0  0  0  0
   51.2145    6.7204   17.6154 C   0  0  0  0  0  0  0  0  0  0  0  0
   50.0537    8.4709   14.0381 C   0  0  0  0  0  0  0  0  0  0  0  0
   49.7731    7.8925   12.7717 C   0  0  0  0  0  0  0  0  0  0  0  0
   51.4765    5.7379   18.6055 C   0  0  0  0  0  0  0  0  0  0  0  0
   46.8496    4.8376   12.4487 O   0  0  0  0  0  0  0  0  0  0  0  0
   47.7844    6.9009   21.4773 O   0  0  0  0  0  0  0  0  0  0  0  0
   47.6815    6.5926   16.1397 O   0  0  0  0  0  0  0  0  0  0  0  0
   47.9759    7.9959   18.9446 O   0  0  0  0  0  0  0  0  0  0  0  0
   46.5062    4.9142   14.6508 O   0  0  0  0  0  0  0  0  0  0  0  0
   48.5788    4.8229   21.3791 O   0  0  0  0  0  0  0  0  0  0  0  0
   50.9902    9.5371   14.0492 C   0  0  0  0  0  0  0  0  0  0  0  0
   52.1970    6.8692   16.6062 C   0  0  0  0  0  0  0  0  0  0  0  0
   50.4244    8.3511   11.6137 C   0  0  0  0  0  0  0  0  0  0  0  0
   52.6419    4.9543   18.5510 C   0  0  0  0  0  0  0  0  0  0  0  0
   53.3547    6.0863   16.5614 C   0  0  0  0  0  0  0  0  0  0  0  0
   51.6284    9.9863   12.8889 C   0  0  0  0  0  0  0  0  0  0  0  0
   53.5755    5.1244   17.5334 C   0  0  0  0  0  0  0  0  0  0  0  0
   51.3497    9.3885   11.6707 C   0  0  0  0  0  0  0  0  0  0  0  0
   49.8182    6.3337   13.3773 H   0  0  0  0  0  0  0  0  0  0  0  0
   48.9800    5.2264   15.3025 H   0  0  0  0  0  0  0  0  0  0  0  0
   47.6183    6.3354   15.4777 H   0  0  0  0  0  0  0  0  0  0  0  0
   51.3188    6.1686   15.2641 H   0  0  0  0  0  0  0  0  0  0  0  0
   51.5355    7.9142   15.4226 H   0  0  0  0  0  0  0  0  0  0  0  0
   47.4837    9.1106   14.4927 H   0  0  0  0  0  0  0  0  0  0  0  0
   48.2657    5.9597   11.6456 H   0  0  0  0  0  0  0  0  0  0  0  0
   48.2899    6.9815   17.7198 H   0  0  0  0  0  0  0  0  0  0  0  0
   48.1139    5.2271   17.5850 H   0  0  0  0  0  0  0  0  0  0  0  0
   52.0076    6.7834   17.5165 H   0  0  0  0  0  0  0  0  0  0  0  0
   50.6720    7.9285   17.6905 H   0  0  0  0  0  0  0  0  0  0  0  0
   46.0085    6.2576   10.7071 H   0  0  0  0  0  0  0  0  0  0  0  0
   45.2277    9.4011   13.5420 H   0  0  0  0  0  0  0  0  0  0  0  0
   49.8031    6.8025   19.6752 H   0  0  0  0  0  0  0  0  0  0  0  0
   49.3560    5.1145   19.5860 H   0  0  0  0  0  0  0  0  0  0  0  0
   53.4562    3.2881   23.8653 H   0  0  0  0  0  0  0  0  0  0  0  0
   51.1971    6.9975   11.6093 H   0  0  0  0  0  0  0  0  0  0  0  0
   49.8004   10.0021   14.3770 H   0  0  0  0  0  0  0  0  0  0  0  0
   51.9669    5.7050   23.8452 H   0  0  0  0  0  0  0  0  0  0  0  0
   51.3693    4.0627   23.6369 H   0  0  0  0  0  0  0  0  0  0  0  0
   52.2224    6.1611   19.6857 H   0  0  0  0  0  0  0  0  0  0  0  0
   51.7693    4.4502   19.4492 H   0  0  0  0  0  0  0  0  0  0  0  0
   53.2751    5.5514   21.7386 H   0  0  0  0  0  0  0  0  0  0  0  0
   52.7748    3.8669   21.5254 H   0  0  0  0  0  0  0  0  0  0  0  0
   51.2681   11.6646   13.2940 H   0  0  0  0  0  0  0  0  0  0  0  0
   52.6611    8.6712   10.5469 H   0  0  0  0  0  0  0  0  0  0  0  0
   52.7039   11.0054   11.3816 H   0  0  0  0  0  0  0  0  0  0  0  0
   48.7745    9.1032   16.8532 H   0  0  0  0  0  0  0  0  0  0  0  0
   50.4713    9.2309   16.6128 H   0  0  0  0  0  0  0  0  0  0  0  0
   48.6285    6.4236   11.6810 H   0  0  0  0  0  0  0  0  0  0  0  0
   50.7888    4.7870   20.4110 H   0  0  0  0  0  0  0  0  0  0  0  0
   47.0827    5.8543   15.9015 H   0  0  0  0  0  0  0  0  0  0  0  0
   48.0695    8.8855   18.5794 H   0  0  0  0  0  0  0  0  0  0  0  0
   45.8928    4.2188   14.3228 H   0  0  0  0  0  0  0  0  0  0  0  0
   47.9290    4.8165   22.1128 H   0  0  0  0  0  0  0  0  0  0  0  0
   51.2489   10.0546   14.9680 H   0  0  0  0  0  0  0  0  0  0  0  0
   52.0855    7.6110   15.8240 H   0  0  0  0  0  0  0  0  0  0  0  0
   50.2095    7.9029   10.6448 H   0  0  0  0  0  0  0  0  0  0  0  0
   52.8341    4.1977   19.3096 H   0  0  0  0  0  0  0  0  0  0  0  0
   54.0789    6.2338   15.7643 H   0  0  0  0  0  0  0  0  0  0  0  0
   52.3397   10.8071   12.9445 H   0  0  0  0  0  0  0  0  0  0  0  0
   54.4707    4.5092   17.5045 H   0  0  0  0  0  0  0  0  0  0  0  0
   51.8440    9.7297   10.7651 H   0  0  0  0  0  0  0  0  0  0  0  0
  2  1  1  0
  3 10  1  0
  4  2  1  0
  5  1  1  0
  6  1  1  0
  7  2  1  0
  8  4  2  0
  9  4  1  0
 10  5  1  0
 11  6  1  0
 12 14  2  0
 13  9  2  0
 14  8  1  0
 15 12  1  0
 16  3  1  0
 17 21  1  0
 18 22  1  0
 19  7  2  0
 20  7  1  0
 21 23  1  0
 22 16  1  0
 23 18  1  0
 24 20  2  0
 25 19  1  0
 26 25  2  0
 11  3  1  0
 13 12  1  0
 24 26  1  0
 28 32  2  0
 29 33  1  0
 30 31  1  0
 31 27  2  0
 32 29  1  0
 33 30  1  0
 34 27  1  0
 35 28  1  0
 36 27  1  0
 37 28  1  0
 38 29  2  0
 39 40  1  0
 40 34  2  0
 41 38  1  0
 42 36  2  0
 43 37  2  0
 44 31  1  0
 45 32  1  0
 46 36  1  0
 47 37  1  0
 48 39  1  0
 49 38  1  0
 50 40  1  0
 51 41  1  0
 52 49  2  0
 53 48  2  0
 54 52  1  0
 55 50  2  0
 30 39  2  0
 53 55  1  0
 35 41  2  0
 51 54  2  0
  2 56  1  1
  5 57  1  0
  5 58  1  0
  6 59  1  0
  6 60  1  0
  8 61  1  0
  9 62  1  0
 10 63  1  0
 10 64  1  0
 11 65  1  0
 11 66  1  0
 13 67  1  0
 14 68  1  0
 16 69  1  0
 16 70  1  0
 17 71  1  0
 19 72  1  0
 20 73  1  0
 21 74  1  0
 21 75  1  0
 22 76  1  0
 22 77  1  0
 23 78  1  0
 23 79  1  0
 24 80  1  0
 25 81  1  0
 26 82  1  0
 33 83  1  0
 33 84  1  0
 34 85  1  0
 35 86  1  0
 44 87  1  0
 45 88  1  0
 46 89  1  0
 47 90  1  0
 48 91  1  0
 49 92  1  0
 50 93  1  0
 51 94  1  0
 52 95  1  0
 53 96  1  0
 54 97  1  0
 55 98  1  0
M  END
> <Uni-Dock RESULT> 
ENERGY=   -5.755  LOWER_BOUND=    3.781  UPPER_BOUND=    7.977
INTER + INTRA:          -5.755
INTER:                  -5.755
INTRA:                   0.000
UNBOUND:                 0.000

$$$$

     RDKit          3D

 98103  0  0  0  0  0  0  0  0999 V2000
   50.1178    8.0686   14.2844 N   0  0  0  0  0  0  0  0  0  0  0  0
   49.1352    6.9975   14.6326 C   0  0  1  0  0  0  0  0  0  0  0  0
   52.8078    8.9183   13.2910 N   0  0  0  0  0  0  0  0  0  0  0  0
   48.7270    7.0064   16.1154 C   0  0  0  0  0  0  0  0  0  0  0  0
   51.3588    7.9275   15.0882 C   0  0  0  0  0  0  0  0  0  0  0  0
   50.5091    8.0015   12.8543 C   0  0  0  0  0  0  0  0  0  0  0  0
   47.8680    7.0095   13.7668 C   0  0  0  0  0  0  0  0  0  0  0  0
   48.3748    8.1970   16.7766 C   0  0  0  0  0  0  0  0  0  0  0  0
   48.6656    5.7986   16.8325 C   0  0  0  0  0  0  0  0  0  0  0  0
   52.4296    8.9776   14.7177 C   0  0  0  0  0  0  0  0  0  0  0  0
   51.5851    9.0489   12.4761 C   0  0  0  0  0  0  0  0  0  0  0  0
   47.9429    6.9772   18.8115 C   0  0  0  0  0  0  0  0  0  0  0  0
   48.2777    5.7845   18.1747 C   0  0  0  0  0  0  0  0  0  0  0  0
   47.9888    8.1837   18.1188 C   0  0  0  0  0  0  0  0  0  0  0  0
   47.4717    6.9601   20.4657 Cl  0  0  0  0  0  0  0  0  0  0  0  0
   53.7897    9.9762   12.9924 C   0  0  0  0  0  0  0  0  0  0  0  0
   57.9242   11.8108    8.9572 O   0  0  0  0  0  0  0  0  0  0  0  0
   55.4576   10.8619   11.4947 O   0  0  0  0  0  0  0  0  0  0  0  0
   47.3797    5.8065   13.2276 C   0  0  0  0  0  0  0  0  0  0  0  0
   47.1463    8.1910   13.5249 C   0  0  0  0  0  0  0  0  0  0  0  0
   57.1928   11.8832   10.1753 C   0  0  0  0  0  0  0  0  0  0  0  0
   54.4273    9.8726   11.5987 C   0  0  0  0  0  0  0  0  0  0  0  0
   56.1204   10.8005   10.2345 C   0  0  0  0  0  0  0  0  0  0  0  0
   45.9804    8.1716   12.7577 C   0  0  0  0  0  0  0  0  0  0  0  0
   46.2128    5.7889   12.4610 C   0  0  0  0  0  0  0  0  0  0  0  0
   45.5151    6.9714   12.2251 C   0  0  0  0  0  0  0  0  0  0  0  0
   49.9653    6.7314   16.0018 C   0  0  0  0  0  0  0  0  0  0  0  0
   53.8122   10.8056   13.5243 C   0  0  0  0  0  0  0  0  0  0  0  0
   51.5374    9.9182   13.2703 C   0  0  0  0  0  0  0  0  0  0  0  0
   49.6131    8.5139   14.3499 C   0  0  0  0  0  0  0  0  0  0  0  0
   50.3299    7.9597   15.4356 C   0  0  0  0  0  0  0  0  0  0  0  0
   52.4643   10.7819   13.9061 C   0  0  0  0  0  0  0  0  0  0  0  0
   50.0825    9.8402   13.7463 C   0  0  0  0  0  0  0  0  0  0  0  0
   48.8452    6.0603   15.5045 C   0  0  0  0  0  0  0  0  0  0  0  0
   54.2477    9.9840   12.4815 C   0  0  0  0  0  0  0  0  0  0  0  0
   50.6877    6.0804   17.1251 C   0  0  0  0  0  0  0  0  0  0  0  0
   54.7870   11.7191   14.1794 C   0  0  0  0  0  0  0  0  0  0  0  0
   51.9903    9.1062   12.1750 C   0  0  0  0  0  0  0  0  0  0  0  0
   48.4280    7.8490   13.8892 C   0  0  0  0  0  0  0  0  0  0  0  0
   48.0697    6.6059   14.4750 C   0  0  0  0  0  0  0  0  0  0  0  0
   53.3592    9.1468   11.8024 C   0  0  0  0  0  0  0  0  0  0  0  0
   50.3830    5.0304   17.6610 O   0  0  0  0  0  0  0  0  0  0  0  0
   54.5768   12.7970   14.7048 O   0  0  0  0  0  0  0  0  0  0  0  0
   51.3736    8.6951   15.9335 O   0  0  0  0  0  0  0  0  0  0  0  0
   52.0962   11.5972   14.9438 O   0  0  0  0  0  0  0  0  0  0  0  0
   51.7691    6.7728   17.5346 O   0  0  0  0  0  0  0  0  0  0  0  0
   56.0409   11.2189   14.1350 O   0  0  0  0  0  0  0  0  0  0  0  0
   47.5607    8.3420   12.8799 C   0  0  0  0  0  0  0  0  0  0  0  0
   51.1594    8.2493   11.4126 C   0  0  0  0  0  0  0  0  0  0  0  0
   46.9295    5.9095   14.0386 C   0  0  0  0  0  0  0  0  0  0  0  0
   53.8415    8.3534   10.7473 C   0  0  0  0  0  0  0  0  0  0  0  0
   51.6481    7.4652   10.3629 C   0  0  0  0  0  0  0  0  0  0  0  0
   46.4270    7.6408   12.4576 C   0  0  0  0  0  0  0  0  0  0  0  0
   52.9924    7.5145   10.0324 C   0  0  0  0  0  0  0  0  0  0  0  0
   46.1145    6.4202   13.0333 C   0  0  0  0  0  0  0  0  0  0  0  0
   49.6435    6.0395   14.4442 H   0  0  0  0  0  0  0  0  0  0  0  0
   51.7852    6.9231   14.9619 H   0  0  0  0  0  0  0  0  0  0  0  0
   51.1464    8.0564   16.1545 H   0  0  0  0  0  0  0  0  0  0  0  0
   50.8856    6.9999   12.6072 H   0  0  0  0  0  0  0  0  0  0  0  0
   49.6450    8.1922   12.2088 H   0  0  0  0  0  0  0  0  0  0  0  0
   48.4081    9.1448   16.2431 H   0  0  0  0  0  0  0  0  0  0  0  0
   48.9153    4.8579   16.3474 H   0  0  0  0  0  0  0  0  0  0  0  0
   52.0564    9.9770   14.9802 H   0  0  0  0  0  0  0  0  0  0  0  0
   53.3162    8.7878   15.3349 H   0  0  0  0  0  0  0  0  0  0  0  0
   51.8249    8.9042   11.4170 H   0  0  0  0  0  0  0  0  0  0  0  0
   51.1561   10.0542   12.5812 H   0  0  0  0  0  0  0  0  0  0  0  0
   48.2354    4.8424   18.7142 H   0  0  0  0  0  0  0  0  0  0  0  0
   47.7258    9.1153   18.6120 H   0  0  0  0  0  0  0  0  0  0  0  0
   53.3524   10.9761   13.1182 H   0  0  0  0  0  0  0  0  0  0  0  0
   54.6093    9.9212   13.7217 H   0  0  0  0  0  0  0  0  0  0  0  0
   58.4840   11.0166    9.0050 H   0  0  0  0  0  0  0  0  0  0  0  0
   47.9045    4.8707   13.4064 H   0  0  0  0  0  0  0  0  0  0  0  0
   47.4987    9.1368   13.9305 H   0  0  0  0  0  0  0  0  0  0  0  0
   56.7326   12.8743   10.2465 H   0  0  0  0  0  0  0  0  0  0  0  0
   57.8882   11.7934   11.0172 H   0  0  0  0  0  0  0  0  0  0  0  0
   53.6839   10.0536   10.8152 H   0  0  0  0  0  0  0  0  0  0  0  0
   54.8637    8.8769   11.4570 H   0  0  0  0  0  0  0  0  0  0  0  0
   55.4016   10.9462    9.4199 H   0  0  0  0  0  0  0  0  0  0  0  0
   56.5796    9.8137   10.1005 H   0  0  0  0  0  0  0  0  0  0  0  0
   45.4358    9.0946   12.5765 H   0  0  0  0  0  0  0  0  0  0  0  0
   45.8465    4.8518   12.0507 H   0  0  0  0  0  0  0  0  0  0  0  0
   44.6063    6.9570   11.6302 H   0  0  0  0  0  0  0  0  0  0  0  0
   49.8501   10.5998   14.4990 H   0  0  0  0  0  0  0  0  0  0  0  0
   49.4832   10.1417   12.8838 H   0  0  0  0  0  0  0  0  0  0  0  0
   48.5607    5.1045   15.9455 H   0  0  0  0  0  0  0  0  0  0  0  0
   55.2943   10.0106   12.1843 H   0  0  0  0  0  0  0  0  0  0  0  0
   51.8221    8.1736   16.6316 H   0  0  0  0  0  0  0  0  0  0  0  0
   51.1773   11.8804   14.8492 H   0  0  0  0  0  0  0  0  0  0  0  0
   52.1279    6.2159   18.2616 H   0  0  0  0  0  0  0  0  0  0  0  0
   56.5632   11.8936   14.6174 H   0  0  0  0  0  0  0  0  0  0  0  0
   47.7425    9.2951   12.3924 H   0  0  0  0  0  0  0  0  0  0  0  0
   50.0977    8.1747   11.6170 H   0  0  0  0  0  0  0  0  0  0  0  0
   46.6597    4.9548   14.4876 H   0  0  0  0  0  0  0  0  0  0  0  0
   54.8938    8.3839   10.4706 H   0  0  0  0  0  0  0  0  0  0  0  0
   50.9725    6.8188    9.8086 H   0  0  0  0  0  0  0  0  0  0  0  0
   45.7904    8.0569   11.6803 H   0  0  0  0  0  0  0  0  0  0  0  0
   53.3814    6.9061    9.2205 H   0  0  0  0  0  0  0  0  0  0  0  0
   45.2371    5.8676   12.7083 H   0  0  0  0  0  0  0  0  0  0  0  0
  2  1  1  0
  3 10  1  0
  4  2  1  0
  5  1  1  0
  6  1  1  0
  7  2  1  0
  8  4  2  0
  9  4  1  0
 10  5  1  0
 11  6  1  0
 12 14  2  0
 13  9  2  0
 14  8  1  0
 15 12  1  0
 16  3  1  0
 17 21  1  0
 18 22  1  0
 19  7  2  0
 20  7  1  0
 21 23  1  0
 22 16  1  0
 23 18  1  0
 24 20  2  0
 25 19  1  0
 26 25  2  0
 11  3  1  0
 13 12  1  0
 24 26  1  0
 28 32  2  0
 29 33  1  0
 30 31  1  0
 31 27  2  0
 32 29  1  0
 33 30  1  0
 34 27  1  0
 35 28  1  0
 36 27  1  0
 37 28  1  0
 38 29  2  0
 39 40  1  0
 40 34  2  0
 41 38  1  0
 42 36  2  0
 43 37  2  0
 44 31  1  0
 45 32  1  0
 46 36  1  0
 47 37  1  0
 48 39  1  0
 49 38  1  0
 50 40  1  0
 51 41  1  0
 52 49  2  0
 53 48  2  0
 54 52  1  0
 55 50  2  0
 30 39  2  0
 53 55  1  0
 35 41  2  0
 51 54  2  0
  2 56  1  1
  5 57  1  0
  5 58  1  0
  6 59  1  0
  6 60  1  0
  8 61  1  0
  9 62  1  0
 10 63  1  0
 10 64  1  0
 11 65  1  0
 11 66  1  0
 13 67  1  0
 14 68  1  0
 16 69  1  0
 16 70  1  0
 17 71  1  0
 19 72  1  0
 20 73  1  0
 21 74  1  0
 21 75  1  0
 22 76  1  0
 22 77  1  0
 23 78  1  0
 23 79  1  0
 24 80  1  0
 25 81  1  0
 26 82  1  0
 33 83  1  0
 33 84  1  0
 34 85  1  0
 35 86  1  0
 44 87  1  0
 45 88  1  0
 46 89  1  0
 47 90  1  0
 48 91  1  0
 49 92  1  0
 50 93  1  0
 51 94  1  0
 52 95  1  0
 53 96  1  0
 54 97  1  0
 55 98  1  0
M  END
> <Uni-Dock RESULT> 
ENERGY=   -5.747  LOWER_BOUND=    4.126  UPPER_BOUND=    7.132
INTER + INTRA:          -5.747
INTER:                  -5.747
INTRA:                   0.000
UNBOUND:                 0.000

$$$$

     RDKit          3D

 98103  0  0  0  0  0  0  0  0999 V2000
   48.7448   11.9495   14.0147 N   0  0  0  0  0  0  0  0  0  0  0  0
   48.0165   11.1436   12.9880 C   0  0  1  0  0  0  0  0  0  0  0  0
   48.7566   13.5984   16.5099 N   0  0  0  0  0  0  0  0  0  0  0  0
   48.1158   11.7327   11.5708 C   0  0  0  0  0  0  0  0  0  0  0  0
   48.2142   13.3356   14.0710 C   0  0  0  0  0  0  0  0  0  0  0  0
   48.5939   11.3645   15.3705 C   0  0  0  0  0  0  0  0  0  0  0  0
   48.4336    9.6672   12.9444 C   0  0  0  0  0  0  0  0  0  0  0  0
   49.3419   12.1706   11.0382 C   0  0  0  0  0  0  0  0  0  0  0  0
   46.9683   11.8101   10.7621 C   0  0  0  0  0  0  0  0  0  0  0  0
   48.8961   14.1892   15.1632 C   0  0  0  0  0  0  0  0  0  0  0  0
   49.2719   12.2168   16.4712 C   0  0  0  0  0  0  0  0  0  0  0  0
   48.2662   12.7605    8.9621 C   0  0  0  0  0  0  0  0  0  0  0  0
   47.0428   12.3238    9.4649 C   0  0  0  0  0  0  0  0  0  0  0  0
   49.4166   12.6858    9.7422 C   0  0  0  0  0  0  0  0  0  0  0  0
   48.3561   13.3989    7.3673 Cl  0  0  0  0  0  0  0  0  0  0  0  0
   49.4715   14.4303   17.4944 C   0  0  0  0  0  0  0  0  0  0  0  0
   50.0496   15.5861   23.4166 O   0  0  0  0  0  0  0  0  0  0  0  0
   49.8405   15.0124   19.8040 O   0  0  0  0  0  0  0  0  0  0  0  0
   47.4490    8.6652   12.8899 C   0  0  0  0  0  0  0  0  0  0  0  0
   49.7839    9.2786   12.9155 C   0  0  0  0  0  0  0  0  0  0  0  0
   50.3139   15.7876   22.0333 C   0  0  0  0  0  0  0  0  0  0  0  0
   49.2100   14.0440   18.9580 C   0  0  0  0  0  0  0  0  0  0  0  0
   49.6084   14.7365   21.1829 C   0  0  0  0  0  0  0  0  0  0  0  0
   50.1380    7.9302   12.8468 C   0  0  0  0  0  0  0  0  0  0  0  0
   47.8051    7.3168   12.8205 C   0  0  0  0  0  0  0  0  0  0  0  0
   49.1489    6.9502   12.8008 C   0  0  0  0  0  0  0  0  0  0  0  0
   47.4792   12.5288   12.3344 C   0  0  0  0  0  0  0  0  0  0  0  0
   50.2424   14.9807   17.2220 C   0  0  0  0  0  0  0  0  0  0  0  0
   50.0962   12.8826   15.9557 C   0  0  0  0  0  0  0  0  0  0  0  0
   49.3211   11.7219   13.7439 C   0  0  0  0  0  0  0  0  0  0  0  0
   48.5505   12.7766   13.2022 C   0  0  0  0  0  0  0  0  0  0  0  0
   50.6219   14.1873   16.1313 C   0  0  0  0  0  0  0  0  0  0  0  0
   50.4546   12.0514   14.7188 C   0  0  0  0  0  0  0  0  0  0  0  0
   47.1928   11.2110   11.9684 C   0  0  0  0  0  0  0  0  0  0  0  0
   49.3509   14.4698   18.1687 C   0  0  0  0  0  0  0  0  0  0  0  0
   46.6139   13.5856   11.7499 C   0  0  0  0  0  0  0  0  0  0  0  0
   50.8004   16.3459   17.4182 C   0  0  0  0  0  0  0  0  0  0  0  0
   49.2099   12.3556   16.9560 C   0  0  0  0  0  0  0  0  0  0  0  0
   49.0595   10.3788   13.3121 C   0  0  0  0  0  0  0  0  0  0  0  0
   47.9717   10.1437   12.4298 C   0  0  0  0  0  0  0  0  0  0  0  0
   48.8398   13.1747   18.0545 C   0  0  0  0  0  0  0  0  0  0  0  0
   45.6949   13.4103   10.9707 O   0  0  0  0  0  0  0  0  0  0  0  0
   51.8790   16.7803   17.0574 O   0  0  0  0  0  0  0  0  0  0  0  0
   48.9215   14.0535   13.5341 O   0  0  0  0  0  0  0  0  0  0  0  0
   51.4869   14.7444   15.2267 O   0  0  0  0  0  0  0  0  0  0  0  0
   46.9345   14.8266   12.1669 O   0  0  0  0  0  0  0  0  0  0  0  0
   49.9431   17.1379   18.0981 O   0  0  0  0  0  0  0  0  0  0  0  0
   49.8160    9.2409   13.6952 C   0  0  0  0  0  0  0  0  0  0  0  0
   48.6642   11.0487   16.9383 C   0  0  0  0  0  0  0  0  0  0  0  0
   47.6660    8.8411   11.9994 C   0  0  0  0  0  0  0  0  0  0  0  0
   47.9612   12.6990   19.0429 C   0  0  0  0  0  0  0  0  0  0  0  0
   47.7925   10.5834   17.9277 C   0  0  0  0  0  0  0  0  0  0  0  0
   49.5032    7.9504   13.2566 C   0  0  0  0  0  0  0  0  0  0  0  0
   47.4372   11.4116   18.9797 C   0  0  0  0  0  0  0  0  0  0  0  0
   48.4232    7.7496   12.4127 C   0  0  0  0  0  0  0  0  0  0  0  0
   46.9537   11.1685   13.2734 H   0  0  0  0  0  0  0  0  0  0  0  0
   47.1308   13.3242   14.2516 H   0  0  0  0  0  0  0  0  0  0  0  0
   48.3776   13.8518   13.1195 H   0  0  0  0  0  0  0  0  0  0  0  0
   47.5311   11.2433   15.6187 H   0  0  0  0  0  0  0  0  0  0  0  0
   49.0533   10.3713   15.4151 H   0  0  0  0  0  0  0  0  0  0  0  0
   50.2463   12.1163   11.6408 H   0  0  0  0  0  0  0  0  0  0  0  0
   46.0075   11.4651   11.1367 H   0  0  0  0  0  0  0  0  0  0  0  0
   49.9556   14.3217   14.9041 H   0  0  0  0  0  0  0  0  0  0  0  0
   48.4314   15.1827   15.1543 H   0  0  0  0  0  0  0  0  0  0  0  0
   49.0850   11.7215   17.4305 H   0  0  0  0  0  0  0  0  0  0  0  0
   50.3575   12.2135   16.3063 H   0  0  0  0  0  0  0  0  0  0  0  0
   46.1465   12.3763    8.8532 H   0  0  0  0  0  0  0  0  0  0  0  0
   50.3727   13.0234    9.3519 H   0  0  0  0  0  0  0  0  0  0  0  0
   50.5540   14.4320   17.3072 H   0  0  0  0  0  0  0  0  0  0  0  0
   49.1529   15.4754   17.3798 H   0  0  0  0  0  0  0  0  0  0  0  0
   49.1218   15.8344   23.5710 H   0  0  0  0  0  0  0  0  0  0  0  0
   46.3940    8.9299   12.8958 H   0  0  0  0  0  0  0  0  0  0  0  0
   50.5679   10.0316   12.9546 H   0  0  0  0  0  0  0  0  0  0  0  0
   51.3963   15.7368   21.8748 H   0  0  0  0  0  0  0  0  0  0  0  0
   49.9976   16.7979   21.7511 H   0  0  0  0  0  0  0  0  0  0  0  0
   49.6266   13.0562   19.1810 H   0  0  0  0  0  0  0  0  0  0  0  0
   48.1322   14.0332   19.1580 H   0  0  0  0  0  0  0  0  0  0  0  0
   49.9846   13.7394   21.4392 H   0  0  0  0  0  0  0  0  0  0  0  0
   48.5319   14.7498   21.3916 H   0  0  0  0  0  0  0  0  0  0  0  0
   51.1869    7.6459   12.8290 H   0  0  0  0  0  0  0  0  0  0  0  0
   47.0337    6.5528   12.7784 H   0  0  0  0  0  0  0  0  0  0  0  0
   49.4256    5.9012   12.7449 H   0  0  0  0  0  0  0  0  0  0  0  0
   51.2317   12.5246   14.1107 H   0  0  0  0  0  0  0  0  0  0  0  0
   50.9438   11.1555   15.1085 H   0  0  0  0  0  0  0  0  0  0  0  0
   46.3594   11.0178   11.2924 H   0  0  0  0  0  0  0  0  0  0  0  0
   49.0641   15.0875   19.0177 H   0  0  0  0  0  0  0  0  0  0  0  0
   48.2725   14.6800   13.1511 H   0  0  0  0  0  0  0  0  0  0  0  0
   52.0387   14.0659   14.8159 H   0  0  0  0  0  0  0  0  0  0  0  0
   46.2785   15.3938   11.7028 H   0  0  0  0  0  0  0  0  0  0  0  0
   50.4155   17.9962   18.1294 H   0  0  0  0  0  0  0  0  0  0  0  0
   50.6790    9.3278   14.3483 H   0  0  0  0  0  0  0  0  0  0  0  0
   48.9121   10.3514   16.1467 H   0  0  0  0  0  0  0  0  0  0  0  0
   46.8290    8.6641   11.3256 H   0  0  0  0  0  0  0  0  0  0  0  0
   47.6758   13.3343   19.8794 H   0  0  0  0  0  0  0  0  0  0  0  0
   47.3953    9.5733   17.8694 H   0  0  0  0  0  0  0  0  0  0  0  0
   50.1110    7.1071   13.5759 H   0  0  0  0  0  0  0  0  0  0  0  0
   46.7578   11.0596   19.7510 H   0  0  0  0  0  0  0  0  0  0  0  0
   48.1717    6.7495   12.0701 H   0  0  0  0  0  0  0  0  0  0  0  0
  2  1  1  0
  3 10  1  0
  4  2  1  0
  5  1  1  0
  6  1  1  0
  7  2  1  0
  8  4  2  0
  9  4  1  0
 10  5  1  0
 11  6  1  0
 12 14  2  0
 13  9  2  0
 14  8  1  0
 15 12  1  0
 16  3  1  0
 17 21  1  0
 18 22  1  0
 19  7  2  0
 20  7  1  0
 21 23  1  0
 22 16  1  0
 23 18  1  0
 24 20  2  0
 25 19  1  0
 26 25  2  0
 11  3  1  0
 13 12  1  0
 24 26  1  0
 28 32  2  0
 29 33  1  0
 30 31  1  0
 31 27  2  0
 32 29  1  0
 33 30  1  0
 34 27  1  0
 35 28  1  0
 36 27  1  0
 37 28  1  0
 38 29  2  0
 39 40  1  0
 40 34  2  0
 41 38  1  0
 42 36  2  0
 43 37  2  0
 44 31  1  0
 45 32  1  0
 46 36  1  0
 47 37  1  0
 48 39  1  0
 49 38  1  0
 50 40  1  0
 51 41  1  0
 52 49  2  0
 53 48  2  0
 54 52  1  0
 55 50  2  0
 30 39  2  0
 53 55  1  0
 35 41  2  0
 51 54  2  0
  2 56  1  1
  5 57  1  0
  5 58  1  0
  6 59  1  0
  6 60  1  0
  8 61  1  0
  9 62  1  0
 10 63  1  0
 10 64  1  0
 11 65  1  0
 11 66  1  0
 13 67  1  0
 14 68  1  0
 16 69  1  0
 16 70  1  0
 17 71  1  0
 19 72  1  0
 20 73  1  0
 21 74  1  0
 21 75  1  0
 22 76  1  0
 22 77  1  0
 23 78  1  0
 23 79  1  0
 24 80  1  0
 25 81  1  0
 26 82  1  0
 33 83  1  0
 33 84  1  0
 34 85  1  0
 35 86  1  0
 44 87  1  0
 45 88  1  0
 46 89  1  0
 47 90  1  0
 48 91  1  0
 49 92  1  0
 50 93  1  0
 51 94  1  0
 52 95  1  0
 53 96  1  0
 54 97  1  0
 55 98  1  0
M  END
> <Uni-Dock RESULT> 
ENERGY=   -5.543  LOWER_BOUND=    5.116  UPPER_BOUND=    7.739
INTER + INTRA:          -5.543
INTER:                  -5.543
INTRA:                   0.000
UNBOUND:                 0.000

$$$$

     RDKit          3D

 98103  0  0  0  0  0  0  0  0999 V2000
   48.7448   11.9495   14.0147 N   0  0  0  0  0  0  0  0  0  0  0  0
   48.0165   11.1436   12.9880 C   0  0  1  0  0  0  0  0  0  0  0  0
   48.7567   13.5985   16.5098 N   0  0  0  0  0  0  0  0  0  0  0  0
   48.1159   11.7327   11.5708 C   0  0  0  0  0  0  0  0  0  0  0  0
   48.2142   13.3356   14.0710 C   0  0  0  0  0  0  0  0  0  0  0  0
   48.5940   11.3646   15.3704 C   0  0  0  0  0  0  0  0  0  0  0  0
   48.4336    9.6672   12.9444 C   0  0  0  0  0  0  0  0  0  0  0  0
   49.3420   12.1706   11.0381 C   0  0  0  0  0  0  0  0  0  0  0  0
   46.9684   11.8101   10.7621 C   0  0  0  0  0  0  0  0  0  0  0  0
   48.8962   14.1892   15.1631 C   0  0  0  0  0  0  0  0  0  0  0  0
   49.2720   12.2168   16.4712 C   0  0  0  0  0  0  0  0  0  0  0  0
   48.2662   12.7605    8.9621 C   0  0  0  0  0  0  0  0  0  0  0  0
   47.0428   12.3237    9.4649 C   0  0  0  0  0  0  0  0  0  0  0  0
   49.4166   12.6858    9.7422 C   0  0  0  0  0  0  0  0  0  0  0  0
   48.3562   13.3988    7.3673 Cl  0  0  0  0  0  0  0  0  0  0  0  0
   49.4715   14.4304   17.4944 C   0  0  0  0  0  0  0  0  0  0  0  0
   50.0497   15.5862   23.4166 O   0  0  0  0  0  0  0  0  0  0  0  0
   49.8405   15.0125   19.8040 O   0  0  0  0  0  0  0  0  0  0  0  0
   47.4490    8.6652   12.8899 C   0  0  0  0  0  0  0  0  0  0  0  0
   49.7839    9.2786   12.9155 C   0  0  0  0  0  0  0  0  0  0  0  0
   50.3140   15.7877   22.0333 C   0  0  0  0  0  0  0  0  0  0  0  0
   49.2100   14.0441   18.9579 C   0  0  0  0  0  0  0  0  0  0  0  0
   49.6085   14.7366   21.1829 C   0  0  0  0  0  0  0  0  0  0  0  0
   50.1380    7.9302   12.8468 C   0  0  0  0  0  0  0  0  0  0  0  0
   47.8051    7.3169   12.8205 C   0  0  0  0  0  0  0  0  0  0  0  0
   49.1489    6.9503   12.8008 C   0  0  0  0  0  0  0  0  0  0  0  0
   47.4793   12.5288   12.3344 C   0  0  0  0  0  0  0  0  0  0  0  0
   50.2424   14.9808   17.2220 C   0  0  0  0  0  0  0  0  0  0  0  0
   50.0963   12.8827   15.9556 C   0  0  0  0  0  0  0  0  0  0  0  0
   49.3211   11.7219   13.7438 C   0  0  0  0  0  0  0  0  0  0  0  0
   48.5505   12.7766   13.2022 C   0  0  0  0  0  0  0  0  0  0  0  0
   50.6219   14.1874   16.1312 C   0  0  0  0  0  0  0  0  0  0  0  0
   50.4546   12.0515   14.7187 C   0  0  0  0  0  0  0  0  0  0  0  0
   47.1928   11.2111   11.9684 C   0  0  0  0  0  0  0  0  0  0  0  0
   49.3509   14.4699   18.1687 C   0  0  0  0  0  0  0  0  0  0  0  0
   46.6139   13.5856   11.7499 C   0  0  0  0  0  0  0  0  0  0  0  0
   50.8004   16.3460   17.4182 C   0  0  0  0  0  0  0  0  0  0  0  0
   49.2099   12.3557   16.9560 C   0  0  0  0  0  0  0  0  0  0  0  0
   49.0595   10.3788   13.3121 C   0  0  0  0  0  0  0  0  0  0  0  0
   47.9718   10.1437   12.4298 C   0  0  0  0  0  0  0  0  0  0  0  0
   48.8398   13.1748   18.0544 C   0  0  0  0  0  0  0  0  0  0  0  0
   45.6949   13.4103   10.9707 O   0  0  0  0  0  0  0  0  0  0  0  0
   51.8790   16.7804   17.0573 O   0  0  0  0  0  0  0  0  0  0  0  0
   48.9215   14.0535   13.5340 O   0  0  0  0  0  0  0  0  0  0  0  0
   51.4870   14.7444   15.2266 O   0  0  0  0  0  0  0  0  0  0  0  0
   46.9346   14.8266   12.1669 O   0  0  0  0  0  0  0  0  0  0  0  0
   49.9431   17.1380   18.0981 O   0  0  0  0  0  0  0  0  0  0  0  0
   49.8160    9.2409   13.6952 C   0  0  0  0  0  0  0  0  0  0  0  0
   48.6643   11.0488   16.9383 C   0  0  0  0  0  0  0  0  0  0  0  0
   47.6660    8.8412   11.9994 C   0  0  0  0  0  0  0  0  0  0  0  0
   47.9612   12.6991   19.0429 C   0  0  0  0  0  0  0  0  0  0  0  0
   47.7925   10.5835   17.9276 C   0  0  0  0  0  0  0  0  0  0  0  0
   49.5032    7.9505   13.2567 C   0  0  0  0  0  0  0  0  0  0  0  0
   47.4373   11.4117   18.9797 C   0  0  0  0  0  0  0  0  0  0  0  0
   48.4232    7.7497   12.4127 C   0  0  0  0  0  0  0  0  0  0  0  0
   46.9537   11.1686   13.2734 H   0  0  0  0  0  0  0  0  0  0  0  0
   47.1308   13.3243   14.2516 H   0  0  0  0  0  0  0  0  0  0  0  0
   48.3777   13.8518   13.1194 H   0  0  0  0  0  0  0  0  0  0  0  0
   47.5311   11.2434   15.6187 H   0  0  0  0  0  0  0  0  0  0  0  0
   49.0533   10.3713   15.4151 H   0  0  0  0  0  0  0  0  0  0  0  0
   50.2463   12.1163   11.6408 H   0  0  0  0  0  0  0  0  0  0  0  0
   46.0075   11.4651   11.1367 H   0  0  0  0  0  0  0  0  0  0  0  0
   49.9556   14.3218   14.9041 H   0  0  0  0  0  0  0  0  0  0  0  0
   48.4314   15.1827   15.1543 H   0  0  0  0  0  0  0  0  0  0  0  0
   49.0850   11.7216   17.4305 H   0  0  0  0  0  0  0  0  0  0  0  0
   50.3576   12.2136   16.3063 H   0  0  0  0  0  0  0  0  0  0  0  0
   46.1465   12.3763    8.8532 H   0  0  0  0  0  0  0  0  0  0  0  0
   50.3727   13.0234    9.3519 H   0  0  0  0  0  0  0  0  0  0  0  0
   50.5540   14.4321   17.3071 H   0  0  0  0  0  0  0  0  0  0  0  0
   49.1529   15.4755   17.3798 H   0  0  0  0  0  0  0  0  0  0  0  0
   49.1218   15.8345   23.5709 H   0  0  0  0  0  0  0  0  0  0  0  0
   46.3940    8.9299   12.8959 H   0  0  0  0  0  0  0  0  0  0  0  0
   50.5679   10.0316   12.9546 H   0  0  0  0  0  0  0  0  0  0  0  0
   51.3963   15.7369   21.8748 H   0  0  0  0  0  0  0  0  0  0  0  0
   49.9976   16.7980   21.7510 H   0  0  0  0  0  0  0  0  0  0  0  0
   49.6266   13.0562   19.1810 H   0  0  0  0  0  0  0  0  0  0  0  0
   48.1322   14.0333   19.1580 H   0  0  0  0  0  0  0  0  0  0  0  0
   49.9846   13.7395   21.4392 H   0  0  0  0  0  0  0  0  0  0  0  0
   48.5319   14.7499   21.3915 H   0  0  0  0  0  0  0  0  0  0  0  0
   51.1869    7.6459   12.8291 H   0  0  0  0  0  0  0  0  0  0  0  0
   47.0337    6.5528   12.7784 H   0  0  0  0  0  0  0  0  0  0  0  0
   49.4256    5.9012   12.7450 H   0  0  0  0  0  0  0  0  0  0  0  0
   51.2317   12.5247   14.1107 H   0  0  0  0  0  0  0  0  0  0  0  0
   50.9438   11.1555   15.1085 H   0  0  0  0  0  0  0  0  0  0  0  0
   46.3594   11.0178   11.2924 H   0  0  0  0  0  0  0  0  0  0  0  0
   49.0641   15.0876   19.0176 H   0  0  0  0  0  0  0  0  0  0  0  0
   48.2725   14.6801   13.1510 H   0  0  0  0  0  0  0  0  0  0  0  0
   52.0388   14.0660   14.8158 H   0  0  0  0  0  0  0  0  0  0  0  0
   46.2785   15.3938   11.7028 H   0  0  0  0  0  0  0  0  0  0  0  0
   50.4155   17.9963   18.1294 H   0  0  0  0  0  0  0  0  0  0  0  0
   50.6791    9.3278   14.3483 H   0  0  0  0  0  0  0  0  0  0  0  0
   48.9122   10.3514   16.1467 H   0  0  0  0  0  0  0  0  0  0  0  0
   46.8290    8.6641   11.3256 H   0  0  0  0  0  0  0  0  0  0  0  0
   47.6758   13.3344   19.8794 H   0  0  0  0  0  0  0  0  0  0  0  0
   47.3953    9.5734   17.8694 H   0  0  0  0  0  0  0  0  0  0  0  0
   50.1110    7.1071   13.5760 H   0  0  0  0  0  0  0  0  0  0  0  0
   46.7578   11.0597   19.7510 H   0  0  0  0  0  0  0  0  0  0  0  0
   48.1718    6.7495   12.0701 H   0  0  0  0  0  0  0  0  0  0  0  0
  2  1  1  0
  3 10  1  0
  4  2  1  0
  5  1  1  0
  6  1  1  0
  7  2  1  0
  8  4  2  0
  9  4  1  0
 10  5  1  0
 11  6  1  0
 12 14  2  0
 13  9  2  0
 14  8  1  0
 15 12  1  0
 16  3  1  0
 17 21  1  0
 18 22  1  0
 19  7  2  0
 20  7  1  0
 21 23  1  0
 22 16  1  0
 23 18  1  0
 24 20  2  0
 25 19  1  0
 26 25  2  0
 11  3  1  0
 13 12  1  0
 24 26  1  0
 28 32  2  0
 29 33  1  0
 30 31  1  0
 31 27  2  0
 32 29  1  0
 33 30  1  0
 34 27  1  0
 35 28  1  0
 36 27  1  0
 37 28  1  0
 38 29  2  0
 39 40  1  0
 40 34  2  0
 41 38  1  0
 42 36  2  0
 43 37  2  0
 44 31  1  0
 45 32  1  0
 46 36  1  0
 47 37  1  0
 48 39  1  0
 49 38  1  0
 50 40  1  0
 51 41  1  0
 52 49  2  0
 53 48  2  0
 54 52  1  0
 55 50  2  0
 30 39  2  0
 53 55  1  0
 35 41  2  0
 51 54  2  0
  2 56  1  1
  5 57  1  0
  5 58  1  0
  6 59  1  0
  6 60  1  0
  8 61  1  0
  9 62  1  0
 10 63  1  0
 10 64  1  0
 11 65  1  0
 11 66  1  0
 13 67  1  0
 14 68  1  0
 16 69  1  0
 16 70  1  0
 17 71  1  0
 19 72  1  0
 20 73  1  0
 21 74  1  0
 21 75  1  0
 22 76  1  0
 22 77  1  0
 23 78  1  0
 23 79  1  0
 24 80  1  0
 25 81  1  0
 26 82  1  0
 33 83  1  0
 33 84  1  0
 34 85  1  0
 35 86  1  0
 44 87  1  0
 45 88  1  0
 46 89  1  0
 47 90  1  0
 48 91  1  0
 49 92  1  0
 50 93  1  0
 51 94  1  0
 52 95  1  0
 53 96  1  0
 54 97  1  0
 55 98  1  0
M  END
> <Uni-Dock RESULT> 
ENERGY=   -5.543  LOWER_BOUND=    5.116  UPPER_BOUND=    7.739
INTER + INTRA:          -5.543
INTER:                  -5.543
INTRA:                   0.000
UNBOUND:                 0.000

$$$$

     RDKit          3D

 98103  0  0  0  0  0  0  0  0999 V2000
   47.4255   12.0255   10.8010 N   0  0  0  0  0  0  0  0  0  0  0  0
   48.8794   11.7441   10.5992 C   0  0  1  0  0  0  0  0  0  0  0  0
   44.5489   11.3799   10.2976 N   0  0  0  0  0  0  0  0  0  0  0  0
   49.6319   12.8970    9.9135 C   0  0  0  0  0  0  0  0  0  0  0  0
   46.7533   12.2851    9.5022 C   0  0  0  0  0  0  0  0  0  0  0  0
   46.7330   10.8750   11.4333 C   0  0  0  0  0  0  0  0  0  0  0  0
   49.6234   11.3584   11.8850 C   0  0  0  0  0  0  0  0  0  0  0  0
   49.4664   14.2326   10.3229 C   0  0  0  0  0  0  0  0  0  0  0  0
   50.5373   12.6223    8.8736 C   0  0  0  0  0  0  0  0  0  0  0  0
   45.2341   12.5203    9.6557 C   0  0  0  0  0  0  0  0  0  0  0  0
   45.2090   11.1019   11.5871 C   0  0  0  0  0  0  0  0  0  0  0  0
   51.0574   14.9707    8.6678 C   0  0  0  0  0  0  0  0  0  0  0  0
   51.2449   13.6545    8.2522 C   0  0  0  0  0  0  0  0  0  0  0  0
   50.1720   15.2649    9.7008 C   0  0  0  0  0  0  0  0  0  0  0  0
   51.9239   16.2418    7.8981 Cl  0  0  0  0  0  0  0  0  0  0  0  0
   43.1170   11.6885   10.4619 C   0  0  0  0  0  0  0  0  0  0  0  0
   37.6786    9.2347   11.5321 O   0  0  0  0  0  0  0  0  0  0  0  0
   40.8832   10.8898   10.8877 O   0  0  0  0  0  0  0  0  0  0  0  0
   50.4969   10.2568   11.8822 C   0  0  0  0  0  0  0  0  0  0  0  0
   49.4913   12.1027   13.0699 C   0  0  0  0  0  0  0  0  0  0  0  0
   38.5756   10.2978   11.2333 C   0  0  0  0  0  0  0  0  0  0  0  0
   42.2597   10.4949   10.9090 C   0  0  0  0  0  0  0  0  0  0  0  0
   40.0223    9.8161   11.2585 C   0  0  0  0  0  0  0  0  0  0  0  0
   50.2008   11.7488   14.2187 C   0  0  0  0  0  0  0  0  0  0  0  0
   51.2063    9.9048   13.0322 C   0  0  0  0  0  0  0  0  0  0  0  0
   51.0564   10.6497   14.1998 C   0  0  0  0  0  0  0  0  0  0  0  0
   48.7651   12.4046    9.1209 C   0  0  0  0  0  0  0  0  0  0  0  0
   42.8105   12.6214   10.5464 C   0  0  0  0  0  0  0  0  0  0  0  0
   45.0135   12.2638   11.5691 C   0  0  0  0  0  0  0  0  0  0  0  0
   47.6058   12.4620   11.2850 C   0  0  0  0  0  0  0  0  0  0  0  0
   47.6527   12.7464    9.9006 C   0  0  0  0  0  0  0  0  0  0  0  0
   44.0026   13.1288   11.0799 C   0  0  0  0  0  0  0  0  0  0  0  0
   46.3469   12.8228   12.0778 C   0  0  0  0  0  0  0  0  0  0  0  0
   49.8663   11.8035    9.7360 C   0  0  0  0  0  0  0  0  0  0  0  0
   42.6006   11.2404   10.5189 C   0  0  0  0  0  0  0  0  0  0  0  0
   48.8703   12.6507    7.6595 C   0  0  0  0  0  0  0  0  0  0  0  0
   41.7407   13.5247   10.0431 C   0  0  0  0  0  0  0  0  0  0  0  0
   44.7692   10.8481   11.5694 C   0  0  0  0  0  0  0  0  0  0  0  0
   48.7659   11.9033   11.9181 C   0  0  0  0  0  0  0  0  0  0  0  0
   49.8871   11.5646   11.1149 C   0  0  0  0  0  0  0  0  0  0  0  0
   43.5541   10.3546   11.0267 C   0  0  0  0  0  0  0  0  0  0  0  0
   49.8309   12.3947    6.9565 O   0  0  0  0  0  0  0  0  0  0  0  0
   41.4835   14.6611   10.3962 O   0  0  0  0  0  0  0  0  0  0  0  0
   46.5776   13.4049    9.3630 O   0  0  0  0  0  0  0  0  0  0  0  0
   44.1610   14.4896   11.0681 O   0  0  0  0  0  0  0  0  0  0  0  0
   47.7626   13.2097    7.1331 O   0  0  0  0  0  0  0  0  0  0  0  0
   41.0024   12.9296    9.0812 O   0  0  0  0  0  0  0  0  0  0  0  0
   48.8935   11.6610   13.3106 C   0  0  0  0  0  0  0  0  0  0  0  0
   45.6633    9.8784   12.0854 C   0  0  0  0  0  0  0  0  0  0  0  0
   51.0356   10.9944   11.6903 C   0  0  0  0  0  0  0  0  0  0  0  0
   43.2884    8.9750   10.9943 C   0  0  0  0  0  0  0  0  0  0  0  0
   45.3892    8.5076   12.0508 C   0  0  0  0  0  0  0  0  0  0  0  0
   50.0436   11.0964   13.8709 C   0  0  0  0  0  0  0  0  0  0  0  0
   44.2013    8.0550   11.5005 C   0  0  0  0  0  0  0  0  0  0  0  0
   51.1134   10.7571   13.0590 C   0  0  0  0  0  0  0  0  0  0  0  0
   48.9348   10.8766    9.9239 H   0  0  0  0  0  0  0  0  0  0  0  0
   46.9166   11.4467    8.8117 H   0  0  0  0  0  0  0  0  0  0  0  0
   47.1644   13.1810    9.0256 H   0  0  0  0  0  0  0  0  0  0  0  0
   46.8991    9.9602   10.8488 H   0  0  0  0  0  0  0  0  0  0  0  0
   47.1264   10.6937   12.4392 H   0  0  0  0  0  0  0  0  0  0  0  0
   48.7762   14.4720   11.1293 H   0  0  0  0  0  0  0  0  0  0  0  0
   50.7015   11.5992    8.5435 H   0  0  0  0  0  0  0  0  0  0  0  0
   45.0711   13.4442   10.2274 H   0  0  0  0  0  0  0  0  0  0  0  0
   44.8141   12.6776    8.6548 H   0  0  0  0  0  0  0  0  0  0  0  0
   44.7866   10.1957   12.0352 H   0  0  0  0  0  0  0  0  0  0  0  0
   45.0410   11.9261   12.2930 H   0  0  0  0  0  0  0  0  0  0  0  0
   51.9409   13.4249    7.4502 H   0  0  0  0  0  0  0  0  0  0  0  0
   50.0256   16.2902   10.0289 H   0  0  0  0  0  0  0  0  0  0  0  0
   42.9645   12.5256   11.1568 H   0  0  0  0  0  0  0  0  0  0  0  0
   42.7106   12.0289    9.4997 H   0  0  0  0  0  0  0  0  0  0  0  0
   37.6747    8.6377   10.7640 H   0  0  0  0  0  0  0  0  0  0  0  0
   50.6349    9.6666   10.9791 H   0  0  0  0  0  0  0  0  0  0  0  0
   48.8242   12.9612   13.1018 H   0  0  0  0  0  0  0  0  0  0  0  0
   38.4300   11.0938   11.9711 H   0  0  0  0  0  0  0  0  0  0  0  0
   38.3192   10.7192   10.2550 H   0  0  0  0  0  0  0  0  0  0  0  0
   42.5223   10.1853   11.9260 H   0  0  0  0  0  0  0  0  0  0  0  0
   42.4060    9.6493   10.2267 H   0  0  0  0  0  0  0  0  0  0  0  0
   40.2753    9.4560   12.2625 H   0  0  0  0  0  0  0  0  0  0  0  0
   40.1481    8.9778   10.5629 H   0  0  0  0  0  0  0  0  0  0  0  0
   50.0846   12.3325   15.1282 H   0  0  0  0  0  0  0  0  0  0  0  0
   51.8784    9.0512   13.0158 H   0  0  0  0  0  0  0  0  0  0  0  0
   51.6100   10.3766   15.0938 H   0  0  0  0  0  0  0  0  0  0  0  0
   46.3443   13.9156   12.1364 H   0  0  0  0  0  0  0  0  0  0  0  0
   46.4077   12.5099   13.1230 H   0  0  0  0  0  0  0  0  0  0  0  0
   50.7327   11.5379    9.1295 H   0  0  0  0  0  0  0  0  0  0  0  0
   41.6703   10.8513   10.1094 H   0  0  0  0  0  0  0  0  0  0  0  0
   46.7060   13.4801    8.3944 H   0  0  0  0  0  0  0  0  0  0  0  0
   44.7095   14.7783   11.8093 H   0  0  0  0  0  0  0  0  0  0  0  0
   47.9895   13.2987    6.1801 H   0  0  0  0  0  0  0  0  0  0  0  0
   40.3684   13.6320    8.8255 H   0  0  0  0  0  0  0  0  0  0  0  0
   48.0963   11.9099   14.0045 H   0  0  0  0  0  0  0  0  0  0  0  0
   46.6040   10.1712   12.5370 H   0  0  0  0  0  0  0  0  0  0  0  0
   51.8921   10.7327   11.0709 H   0  0  0  0  0  0  0  0  0  0  0  0
   42.3576    8.6022   10.5706 H   0  0  0  0  0  0  0  0  0  0  0  0
   46.1084    7.8001   12.4555 H   0  0  0  0  0  0  0  0  0  0  0  0
   50.0975   10.9283   14.9440 H   0  0  0  0  0  0  0  0  0  0  0  0
   43.9815    6.9915   11.4664 H   0  0  0  0  0  0  0  0  0  0  0  0
   52.0094   10.3149   13.4864 H   0  0  0  0  0  0  0  0  0  0  0  0
  2  1  1  0
  3 10  1  0
  4  2  1  0
  5  1  1  0
  6  1  1  0
  7  2  1  0
  8  4  2  0
  9  4  1  0
 10  5  1  0
 11  6  1  0
 12 14  2  0
 13  9  2  0
 14  8  1  0
 15 12  1  0
 16  3  1  0
 17 21  1  0
 18 22  1  0
 19  7  2  0
 20  7  1  0
 21 23  1  0
 22 16  1  0
 23 18  1  0
 24 20  2  0
 25 19  1  0
 26 25  2  0
 11  3  1  0
 13 12  1  0
 24 26  1  0
 28 32  2  0
 29 33  1  0
 30 31  1  0
 31 27  2  0
 32 29  1  0
 33 30  1  0
 34 27  1  0
 35 28  1  0
 36 27  1  0
 37 28  1  0
 38 29  2  0
 39 40  1  0
 40 34  2  0
 41 38  1  0
 42 36  2  0
 43 37  2  0
 44 31  1  0
 45 32  1  0
 46 36  1  0
 47 37  1  0
 48 39  1  0
 49 38  1  0
 50 40  1  0
 51 41  1  0
 52 49  2  0
 53 48  2  0
 54 52  1  0
 55 50  2  0
 30 39  2  0
 53 55  1  0
 35 41  2  0
 51 54  2  0
  2 56  1  1
  5 57  1  0
  5 58  1  0
  6 59  1  0
  6 60  1  0
  8 61  1  0
  9 62  1  0
 10 63  1  0
 10 64  1  0
 11 65  1  0
 11 66  1  0
 13 67  1  0
 14 68  1  0
 16 69  1  0
 16 70  1  0
 17 71  1  0
 19 72  1  0
 20 73  1  0
 21 74  1  0
 21 75  1  0
 22 76  1  0
 22 77  1  0
 23 78  1  0
 23 79  1  0
 24 80  1  0
 25 81  1  0
 26 82  1  0
 33 83  1  0
 33 84  1  0
 34 85  1  0
 35 86  1  0
 44 87  1  0
 45 88  1  0
 46 89  1  0
 47 90  1  0
 48 91  1  0
 49 92  1  0
 50 93  1  0
 51 94  1  0
 52 95  1  0
 53 96  1  0
 54 97  1  0
 55 98  1  0
M  END
> <Uni-Dock RESULT> 
ENERGY=   -5.441  LOWER_BOUND=    7.592  UPPER_BOUND=   10.843
INTER + INTRA:          -5.441
INTER:                  -5.441
INTRA:                   0.000
UNBOUND:                 0.000

$$$$

     RDKit          3D

 98103  0  0  0  0  0  0  0  0999 V2000
   51.0282    6.8488   16.9565 N   0  0  0  0  0  0  0  0  0  0  0  0
   52.2107    6.3571   17.7271 C   0  0  1  0  0  0  0  0  0  0  0  0
   49.0560    6.5447   14.7288 N   0  0  0  0  0  0  0  0  0  0  0  0
   53.4063    7.3237   17.6875 C   0  0  0  0  0  0  0  0  0  0  0  0
   51.3802    7.0624   15.5295 C   0  0  0  0  0  0  0  0  0  0  0  0
   49.9120    5.8712   16.9934 C   0  0  0  0  0  0  0  0  0  0  0  0
   51.9000    6.0083   19.1892 C   0  0  0  0  0  0  0  0  0  0  0  0
   53.2466    8.7040   17.9063 C   0  0  0  0  0  0  0  0  0  0  0  0
   54.7021    6.8265   17.4628 C   0  0  0  0  0  0  0  0  0  0  0  0
   50.1710    7.5124   14.6799 C   0  0  0  0  0  0  0  0  0  0  0  0
   48.6975    6.3137   16.1409 C   0  0  0  0  0  0  0  0  0  0  0  0
   55.6194    9.0514   17.6526 C   0  0  0  0  0  0  0  0  0  0  0  0
   55.8030    7.6866   17.4431 C   0  0  0  0  0  0  0  0  0  0  0  0
   54.3465    9.5645   17.8848 C   0  0  0  0  0  0  0  0  0  0  0  0
   56.9743   10.1108   17.6217 Cl  0  0  0  0  0  0  0  0  0  0  0  0
   47.9185    7.0565   13.9436 C   0  0  0  0  0  0  0  0  0  0  0  0
   42.7095    5.4712   11.2799 O   0  0  0  0  0  0  0  0  0  0  0  0
   45.8226    6.6102   12.8404 O   0  0  0  0  0  0  0  0  0  0  0  0
   52.3796    4.8056   19.7368 C   0  0  0  0  0  0  0  0  0  0  0  0
   51.1780    6.8801   20.0222 C   0  0  0  0  0  0  0  0  0  0  0  0
   43.7559    6.3693   11.6296 C   0  0  0  0  0  0  0  0  0  0  0  0
   46.7868    6.0396   13.7324 C   0  0  0  0  0  0  0  0  0  0  0  0
   44.7563    5.7042   12.5690 C   0  0  0  0  0  0  0  0  0  0  0  0
   50.9329    6.5534   21.3569 C   0  0  0  0  0  0  0  0  0  0  0  0
   52.1340    4.4808   21.0724 C   0  0  0  0  0  0  0  0  0  0  0  0
   51.4095    5.3538   21.8808 C   0  0  0  0  0  0  0  0  0  0  0  0
   53.1660    6.8733   16.5207 C   0  0  0  0  0  0  0  0  0  0  0  0
   47.7890    8.0257   13.8195 C   0  0  0  0  0  0  0  0  0  0  0  0
   48.7552    7.4834   16.0103 C   0  0  0  0  0  0  0  0  0  0  0  0
   50.9331    7.3043   17.4473 C   0  0  0  0  0  0  0  0  0  0  0  0
   51.8885    7.4378   16.4134 C   0  0  0  0  0  0  0  0  0  0  0  0
   48.4417    8.4212   14.9946 C   0  0  0  0  0  0  0  0  0  0  0  0
   49.5393    7.9084   17.2568 C   0  0  0  0  0  0  0  0  0  0  0  0
   53.5128    6.1963   17.6928 C   0  0  0  0  0  0  0  0  0  0  0  0
   47.4159    6.6894   13.6548 C   0  0  0  0  0  0  0  0  0  0  0  0
   54.2078    6.9534   15.4645 C   0  0  0  0  0  0  0  0  0  0  0  0
   47.4462    9.0077   12.7557 C   0  0  0  0  0  0  0  0  0  0  0  0
   48.3327    6.1203   15.8448 C   0  0  0  0  0  0  0  0  0  0  0  0
   51.3202    6.6632   18.6712 C   0  0  0  0  0  0  0  0  0  0  0  0
   52.6198    6.0982   18.7659 C   0  0  0  0  0  0  0  0  0  0  0  0
   47.6707    5.7407   14.6481 C   0  0  0  0  0  0  0  0  0  0  0  0
   55.3362    6.5015   15.5345 O   0  0  0  0  0  0  0  0  0  0  0  0
   47.2190   10.1982   12.8712 O   0  0  0  0  0  0  0  0  0  0  0  0
   51.5223    8.1757   15.3180 O   0  0  0  0  0  0  0  0  0  0  0  0
   48.7972    9.7404   15.0960 O   0  0  0  0  0  0  0  0  0  0  0  0
   53.7931    7.5987   14.3561 O   0  0  0  0  0  0  0  0  0  0  0  0
   47.3928    8.4216   11.5399 O   0  0  0  0  0  0  0  0  0  0  0  0
   50.4991    6.5488   19.8229 C   0  0  0  0  0  0  0  0  0  0  0  0
   48.5231    5.0976   16.8059 C   0  0  0  0  0  0  0  0  0  0  0  0
   53.0326    5.4414   19.9379 C   0  0  0  0  0  0  0  0  0  0  0  0
   47.2585    4.4126   14.4440 C   0  0  0  0  0  0  0  0  0  0  0  0
   48.1075    3.7792   16.5948 C   0  0  0  0  0  0  0  0  0  0  0  0
   50.9235    5.8958   20.9843 C   0  0  0  0  0  0  0  0  0  0  0  0
   47.4776    3.4354   15.4099 C   0  0  0  0  0  0  0  0  0  0  0  0
   52.1895    5.3361   21.0396 C   0  0  0  0  0  0  0  0  0  0  0  0
   52.5329    5.4259   17.2366 H   0  0  0  0  0  0  0  0  0  0  0  0
   51.7987    6.1439   15.0963 H   0  0  0  0  0  0  0  0  0  0  0  0
   52.1424    7.8424   15.4312 H   0  0  0  0  0  0  0  0  0  0  0  0
   50.2530    4.8878   16.6431 H   0  0  0  0  0  0  0  0  0  0  0  0
   49.5462    5.7423   18.0177 H   0  0  0  0  0  0  0  0  0  0  0  0
   52.2553    9.1140   18.0883 H   0  0  0  0  0  0  0  0  0  0  0  0
   54.8633    5.7625   17.3063 H   0  0  0  0  0  0  0  0  0  0  0  0
   49.8419    8.5031   15.0224 H   0  0  0  0  0  0  0  0  0  0  0  0
   50.5095    7.6217   13.6423 H   0  0  0  0  0  0  0  0  0  0  0  0
   47.9431    5.5222   16.2099 H   0  0  0  0  0  0  0  0  0  0  0  0
   48.2634    7.2203   16.5828 H   0  0  0  0  0  0  0  0  0  0  0  0
   56.7976    7.2859   17.2683 H   0  0  0  0  0  0  0  0  0  0  0  0
   54.2005   10.6281   18.0511 H   0  0  0  0  0  0  0  0  0  0  0  0
   47.5052    7.9728   14.3871 H   0  0  0  0  0  0  0  0  0  0  0  0
   48.2736    7.3485   12.9459 H   0  0  0  0  0  0  0  0  0  0  0  0
   43.0904    4.8051   10.6819 H   0  0  0  0  0  0  0  0  0  0  0  0
   52.9545    4.1136   19.1254 H   0  0  0  0  0  0  0  0  0  0  0  0
   50.7959    7.8187   19.6270 H   0  0  0  0  0  0  0  0  0  0  0  0
   43.3140    7.2484   12.1102 H   0  0  0  0  0  0  0  0  0  0  0  0
   44.2485    6.7195   10.7158 H   0  0  0  0  0  0  0  0  0  0  0  0
   46.2932    5.8027   14.6808 H   0  0  0  0  0  0  0  0  0  0  0  0
   47.1859    5.1171   13.2947 H   0  0  0  0  0  0  0  0  0  0  0  0
   44.2553    5.4174   13.5008 H   0  0  0  0  0  0  0  0  0  0  0  0
   45.1496    4.7902   12.1079 H   0  0  0  0  0  0  0  0  0  0  0  0
   50.3695    7.2367   21.9871 H   0  0  0  0  0  0  0  0  0  0  0  0
   52.5110    3.5481   21.4828 H   0  0  0  0  0  0  0  0  0  0  0  0
   51.2202    5.1017   22.9204 H   0  0  0  0  0  0  0  0  0  0  0  0
   49.6835    8.9920   17.3078 H   0  0  0  0  0  0  0  0  0  0  0  0
   48.8746    7.6981   18.0980 H   0  0  0  0  0  0  0  0  0  0  0  0
   54.5074    5.7574   17.7769 H   0  0  0  0  0  0  0  0  0  0  0  0
   46.9033    6.3882   12.7432 H   0  0  0  0  0  0  0  0  0  0  0  0
   52.2425    8.1342   14.6548 H   0  0  0  0  0  0  0  0  0  0  0  0
   48.7945   10.0273   16.0186 H   0  0  0  0  0  0  0  0  0  0  0  0
   54.5805    7.5593   13.7679 H   0  0  0  0  0  0  0  0  0  0  0  0
   47.1909    9.1727   10.9432 H   0  0  0  0  0  0  0  0  0  0  0  0
   49.4991    6.9710   19.8501 H   0  0  0  0  0  0  0  0  0  0  0  0
   49.0009    5.3067   17.7559 H   0  0  0  0  0  0  0  0  0  0  0  0
   54.0285    5.0063   20.0058 H   0  0  0  0  0  0  0  0  0  0  0  0
   46.7572    4.1261   13.5212 H   0  0  0  0  0  0  0  0  0  0  0  0
   48.2794    3.0270   17.3604 H   0  0  0  0  0  0  0  0  0  0  0  0
   50.2601    5.8320   21.8437 H   0  0  0  0  0  0  0  0  0  0  0  0
   47.1544    2.4128   15.2360 H   0  0  0  0  0  0  0  0  0  0  0  0
   52.5255    4.8243   21.9374 H   0  0  0  0  0  0  0  0  0  0  0  0
  2  1  1  0
  3 10  1  0
  4  2  1  0
  5  1  1  0
  6  1  1  0
  7  2  1  0
  8  4  2  0
  9  4  1  0
 10  5  1  0
 11  6  1  0
 12 14  2  0
 13  9  2  0
 14  8  1  0
 15 12  1  0
 16  3  1  0
 17 21  1  0
 18 22  1  0
 19  7  2  0
 20  7  1  0
 21 23  1  0
 22 16  1  0
 23 18  1  0
 24 20  2  0
 25 19  1  0
 26 25  2  0
 11  3  1  0
 13 12  1  0
 24 26  1  0
 28 32  2  0
 29 33  1  0
 30 31  1  0
 31 27  2  0
 32 29  1  0
 33 30  1  0
 34 27  1  0
 35 28  1  0
 36 27  1  0
 37 28  1  0
 38 29  2  0
 39 40  1  0
 40 34  2  0
 41 38  1  0
 42 36  2  0
 43 37  2  0
 44 31  1  0
 45 32  1  0
 46 36  1  0
 47 37  1  0
 48 39  1  0
 49 38  1  0
 50 40  1  0
 51 41  1  0
 52 49  2  0
 53 48  2  0
 54 52  1  0
 55 50  2  0
 30 39  2  0
 53 55  1  0
 35 41  2  0
 51 54  2  0
  2 56  1  1
  5 57  1  0
  5 58  1  0
  6 59  1  0
  6 60  1  0
  8 61  1  0
  9 62  1  0
 10 63  1  0
 10 64  1  0
 11 65  1  0
 11 66  1  0
 13 67  1  0
 14 68  1  0
 16 69  1  0
 16 70  1  0
 17 71  1  0
 19 72  1  0
 20 73  1  0
 21 74  1  0
 21 75  1  0
 22 76  1  0
 22 77  1  0
 23 78  1  0
 23 79  1  0
 24 80  1  0
 25 81  1  0
 26 82  1  0
 33 83  1  0
 33 84  1  0
 34 85  1  0
 35 86  1  0
 44 87  1  0
 45 88  1  0
 46 89  1  0
 47 90  1  0
 48 91  1  0
 49 92  1  0
 50 93  1  0
 51 94  1  0
 52 95  1  0
 53 96  1  0
 54 97  1  0
 55 98  1  0
M  END
> <Uni-Dock RESULT> 
ENERGY=   -5.334  LOWER_BOUND=    3.758  UPPER_BOUND=    6.258
INTER + INTRA:          -5.334
INTER:                  -5.334
INTRA:                   0.000
UNBOUND:                 0.000

$$$$
