
     RDKit          3D

 98103  0  0  0  0  0  0  0  0999 V2000
   48.1020    9.8452   14.5568 N   0  0  0  0  0  0  0  0  0  0  0  0
   48.3775    9.2417   13.2211 C   0  0  1  0  0  0  0  0  0  0  0  0
   49.5539    9.7595   17.2618 N   0  0  0  0  0  0  0  0  0  0  0  0
   47.2389    8.3466   12.7049 C   0  0  0  0  0  0  0  0  0  0  0  0
   49.1806   10.7785   14.9689 C   0  0  0  0  0  0  0  0  0  0  0  0
   47.8837    8.8259   15.6134 C   0  0  0  0  0  0  0  0  0  0  0  0
   48.7288   10.2769   12.1436 C   0  0  0  0  0  0  0  0  0  0  0  0
   47.5459    7.1824   11.9770 C   0  0  0  0  0  0  0  0  0  0  0  0
   45.8857    8.6773   12.9038 C   0  0  0  0  0  0  0  0  0  0  0  0
   49.2603   10.9901   16.4971 C   0  0  0  0  0  0  0  0  0  0  0  0
   49.1081    8.5618   16.5196 C   0  0  0  0  0  0  0  0  0  0  0  0
   45.1961    6.7043   11.6964 C   0  0  0  0  0  0  0  0  0  0  0  0
   44.8700    7.8572   12.4062 C   0  0  0  0  0  0  0  0  0  0  0  0
   46.5289    6.3643   11.4774 C   0  0  0  0  0  0  0  0  0  0  0  0
   43.9438    5.6928   11.0874 Cl  0  0  0  0  0  0  0  0  0  0  0  0
   50.9730    9.6736   17.6417 C   0  0  0  0  0  0  0  0  0  0  0  0
   53.5855    7.4283   21.4107 O   0  0  0  0  0  0  0  0  0  0  0  0
   52.6715    8.5148   18.9738 O   0  0  0  0  0  0  0  0  0  0  0  0
   49.9085   10.1361   11.3928 C   0  0  0  0  0  0  0  0  0  0  0  0
   47.8850   11.3666   11.8669 C   0  0  0  0  0  0  0  0  0  0  0  0
   52.7858    8.6101   21.3966 C   0  0  0  0  0  0  0  0  0  0  0  0
   51.2831    8.5263   18.6217 C   0  0  0  0  0  0  0  0  0  0  0  0
   52.9937    9.3640   20.0840 C   0  0  0  0  0  0  0  0  0  0  0  0
   48.2145   12.2905   10.8740 C   0  0  0  0  0  0  0  0  0  0  0  0
   50.2349   11.0619   10.3997 C   0  0  0  0  0  0  0  0  0  0  0  0
   49.3885   12.1375   10.1406 C   0  0  0  0  0  0  0  0  0  0  0  0
   50.0651   10.5341   17.8642 C   0  0  0  0  0  0  0  0  0  0  0  0
   47.4073    7.6881   13.1486 C   0  0  0  0  0  0  0  0  0  0  0  0
   49.1631    9.3489   13.5768 C   0  0  0  0  0  0  0  0  0  0  0  0
   50.6644    9.5788   15.6840 C   0  0  0  0  0  0  0  0  0  0  0  0
   50.0131   10.5613   16.4649 C   0  0  0  0  0  0  0  0  0  0  0  0
   48.6755    8.0246   13.6419 C   0  0  0  0  0  0  0  0  0  0  0  0
   50.5458    9.6536   14.1595 C   0  0  0  0  0  0  0  0  0  0  0  0
   50.8026    9.5324   18.4984 C   0  0  0  0  0  0  0  0  0  0  0  0
   46.6187    8.6751   12.5562 C   0  0  0  0  0  0  0  0  0  0  0  0
   49.3908   11.5205   18.7468 C   0  0  0  0  0  0  0  0  0  0  0  0
   46.9194    6.2933   13.2522 C   0  0  0  0  0  0  0  0  0  0  0  0
   48.3578   10.3528   12.9421 C   0  0  0  0  0  0  0  0  0  0  0  0
   51.4369    8.5654   16.3440 C   0  0  0  0  0  0  0  0  0  0  0  0
   51.4909    8.5612   17.7632 C   0  0  0  0  0  0  0  0  0  0  0  0
   47.0793    9.9909   12.4376 C   0  0  0  0  0  0  0  0  0  0  0  0
   49.4568   11.5608   19.9614 O   0  0  0  0  0  0  0  0  0  0  0  0
   47.5511    5.3772   13.7521 O   0  0  0  0  0  0  0  0  0  0  0  0
   49.3543   11.5610   15.7957 O   0  0  0  0  0  0  0  0  0  0  0  0
   49.5037    7.0706   14.1799 O   0  0  0  0  0  0  0  0  0  0  0  0
   48.6454   12.4195   18.0716 O   0  0  0  0  0  0  0  0  0  0  0  0
   45.6915    6.1039   12.7409 O   0  0  0  0  0  0  0  0  0  0  0  0
   52.1711    7.5463   15.6857 C   0  0  0  0  0  0  0  0  0  0  0  0
   48.7397   11.7071   12.7676 C   0  0  0  0  0  0  0  0  0  0  0  0
   52.2358    7.5871   18.4505 C   0  0  0  0  0  0  0  0  0  0  0  0
   46.2584   10.9445   11.8102 C   0  0  0  0  0  0  0  0  0  0  0  0
   47.9142   12.6461   12.1404 C   0  0  0  0  0  0  0  0  0  0  0  0
   52.9102    6.5834   16.3802 C   0  0  0  0  0  0  0  0  0  0  0  0
   46.6723   12.2643   11.6602 C   0  0  0  0  0  0  0  0  0  0  0  0
   52.9436    6.6045   17.7647 C   0  0  0  0  0  0  0  0  0  0  0  0
   49.2555    8.5914   13.3535 H   0  0  0  0  0  0  0  0  0  0  0  0
   50.1629   10.4216   14.6294 H   0  0  0  0  0  0  0  0  0  0  0  0
   49.0056   11.7554   14.5048 H   0  0  0  0  0  0  0  0  0  0  0  0
   47.5399    7.8671   15.2106 H   0  0  0  0  0  0  0  0  0  0  0  0
   47.0574    9.1843   16.2426 H   0  0  0  0  0  0  0  0  0  0  0  0
   48.5822    6.9106   11.7864 H   0  0  0  0  0  0  0  0  0  0  0  0
   45.6182    9.5775   13.4549 H   0  0  0  0  0  0  0  0  0  0  0  0
   49.9849   11.7829   16.7190 H   0  0  0  0  0  0  0  0  0  0  0  0
   48.2940   11.3754   16.8480 H   0  0  0  0  0  0  0  0  0  0  0  0
   49.9167    8.1652   15.8898 H   0  0  0  0  0  0  0  0  0  0  0  0
   48.8467    7.7787   17.2407 H   0  0  0  0  0  0  0  0  0  0  0  0
   43.8307    8.1253   12.5734 H   0  0  0  0  0  0  0  0  0  0  0  0
   46.7833    5.4689   10.9177 H   0  0  0  0  0  0  0  0  0  0  0  0
   51.2713   10.6110   18.1268 H   0  0  0  0  0  0  0  0  0  0  0  0
   51.6165    9.5827   16.7568 H   0  0  0  0  0  0  0  0  0  0  0  0
   53.5182    7.0547   20.5108 H   0  0  0  0  0  0  0  0  0  0  0  0
   50.5810    9.3010   11.5740 H   0  0  0  0  0  0  0  0  0  0  0  0
   46.9673   11.5020   12.4349 H   0  0  0  0  0  0  0  0  0  0  0  0
   51.7427    8.3012   21.5211 H   0  0  0  0  0  0  0  0  0  0  0  0
   53.0719    9.2322   22.2502 H   0  0  0  0  0  0  0  0  0  0  0  0
   51.0826    7.5619   18.1447 H   0  0  0  0  0  0  0  0  0  0  0  0
   50.6531    8.5846   19.5156 H   0  0  0  0  0  0  0  0  0  0  0  0
   54.0546    9.6150   19.9774 H   0  0  0  0  0  0  0  0  0  0  0  0
   52.4177   10.2944   20.0608 H   0  0  0  0  0  0  0  0  0  0  0  0
   47.5509   13.1269   10.6712 H   0  0  0  0  0  0  0  0  0  0  0  0
   51.1491   10.9418    9.8248 H   0  0  0  0  0  0  0  0  0  0  0  0
   49.6420   12.8561    9.3656 H   0  0  0  0  0  0  0  0  0  0  0  0
   51.2560    8.9904   13.6575 H   0  0  0  0  0  0  0  0  0  0  0  0
   50.9123   10.6393   13.8592 H   0  0  0  0  0  0  0  0  0  0  0  0
   50.8462    9.5162   19.5875 H   0  0  0  0  0  0  0  0  0  0  0  0
   45.6343    8.4162   12.1710 H   0  0  0  0  0  0  0  0  0  0  0  0
   48.8711   12.1042   16.4520 H   0  0  0  0  0  0  0  0  0  0  0  0
   49.0334    6.2109   14.2287 H   0  0  0  0  0  0  0  0  0  0  0  0
   48.2687   12.9747   18.7917 H   0  0  0  0  0  0  0  0  0  0  0  0
   45.5094    5.1511   12.8802 H   0  0  0  0  0  0  0  0  0  0  0  0
   52.1702    7.4666   14.6025 H   0  0  0  0  0  0  0  0  0  0  0  0
   49.6940   12.0721   13.1361 H   0  0  0  0  0  0  0  0  0  0  0  0
   52.2732    7.5865   19.5383 H   0  0  0  0  0  0  0  0  0  0  0  0
   45.2794   10.6632   11.4268 H   0  0  0  0  0  0  0  0  0  0  0  0
   48.2485   13.6748   12.0352 H   0  0  0  0  0  0  0  0  0  0  0  0
   53.4514    5.8181   15.8299 H   0  0  0  0  0  0  0  0  0  0  0  0
   46.0266   12.9892   11.1729 H   0  0  0  0  0  0  0  0  0  0  0  0
   53.5141    5.8594   18.3118 H   0  0  0  0  0  0  0  0  0  0  0  0
  2  1  1  0
  3 10  1  0
  4  2  1  0
  5  1  1  0
  6  1  1  0
  7  2  1  0
  8  4  2  0
  9  4  1  0
 10  5  1  0
 11  6  1  0
 12 14  2  0
 13  9  2  0
 14  8  1  0
 15 12  1  0
 16  3  1  0
 17 21  1  0
 18 22  1  0
 19  7  2  0
 20  7  1  0
 21 23  1  0
 22 16  1  0
 23 18  1  0
 24 20  2  0
 25 19  1  0
 26 25  2  0
 11  3  1  0
 13 12  1  0
 24 26  1  0
 28 32  2  0
 29 33  1  0
 30 31  1  0
 31 27  2  0
 32 29  1  0
 33 30  1  0
 34 27  1  0
 35 28  1  0
 36 27  1  0
 37 28  1  0
 38 29  2  0
 39 40  1  0
 40 34  2  0
 41 38  1  0
 42 36  2  0
 43 37  2  0
 44 31  1  0
 45 32  1  0
 46 36  1  0
 47 37  1  0
 48 39  1  0
 49 38  1  0
 50 40  1  0
 51 41  1  0
 52 49  2  0
 53 48  2  0
 54 52  1  0
 55 50  2  0
 30 39  2  0
 53 55  1  0
 35 41  2  0
 51 54  2  0
  2 56  1  1
  5 57  1  0
  5 58  1  0
  6 59  1  0
  6 60  1  0
  8 61  1  0
  9 62  1  0
 10 63  1  0
 10 64  1  0
 11 65  1  0
 11 66  1  0
 13 67  1  0
 14 68  1  0
 16 69  1  0
 16 70  1  0
 17 71  1  0
 19 72  1  0
 20 73  1  0
 21 74  1  0
 21 75  1  0
 22 76  1  0
 22 77  1  0
 23 78  1  0
 23 79  1  0
 24 80  1  0
 25 81  1  0
 26 82  1  0
 33 83  1  0
 33 84  1  0
 34 85  1  0
 35 86  1  0
 44 87  1  0
 45 88  1  0
 46 89  1  0
 47 90  1  0
 48 91  1  0
 49 92  1  0
 50 93  1  0
 51 94  1  0
 52 95  1  0
 53 96  1  0
 54 97  1  0
 55 98  1  0
M  END
> <Uni-Dock RESULT> 
ENERGY=   -5.547  LOWER_BOUND=    0.000  UPPER_BOUND=    0.000
INTER + INTRA:          -5.547
INTER:                  -5.547
INTRA:                   0.000
UNBOUND:                 0.000

$$$$

     RDKit          3D

 98103  0  0  0  0  0  0  0  0999 V2000
   48.1021    9.8452   14.5568 N   0  0  0  0  0  0  0  0  0  0  0  0
   48.3776    9.2418   13.2211 C   0  0  1  0  0  0  0  0  0  0  0  0
   49.5540    9.7596   17.2618 N   0  0  0  0  0  0  0  0  0  0  0  0
   47.2390    8.3467   12.7049 C   0  0  0  0  0  0  0  0  0  0  0  0
   49.1806   10.7785   14.9689 C   0  0  0  0  0  0  0  0  0  0  0  0
   47.8837    8.8259   15.6134 C   0  0  0  0  0  0  0  0  0  0  0  0
   48.7290   10.2769   12.1436 C   0  0  0  0  0  0  0  0  0  0  0  0
   47.5460    7.1824   11.9771 C   0  0  0  0  0  0  0  0  0  0  0  0
   45.8858    8.6774   12.9038 C   0  0  0  0  0  0  0  0  0  0  0  0
   49.2604   10.9901   16.4971 C   0  0  0  0  0  0  0  0  0  0  0  0
   49.1082    8.5619   16.5196 C   0  0  0  0  0  0  0  0  0  0  0  0
   45.1961    6.7043   11.6964 C   0  0  0  0  0  0  0  0  0  0  0  0
   44.8701    7.8572   12.4062 C   0  0  0  0  0  0  0  0  0  0  0  0
   46.5290    6.3643   11.4774 C   0  0  0  0  0  0  0  0  0  0  0  0
   43.9439    5.6928   11.0873 Cl  0  0  0  0  0  0  0  0  0  0  0  0
   50.9730    9.6737   17.6418 C   0  0  0  0  0  0  0  0  0  0  0  0
   53.5854    7.4283   21.4108 O   0  0  0  0  0  0  0  0  0  0  0  0
   52.6715    8.5149   18.9739 O   0  0  0  0  0  0  0  0  0  0  0  0
   49.9086   10.1361   11.3928 C   0  0  0  0  0  0  0  0  0  0  0  0
   47.8852   11.3666   11.8669 C   0  0  0  0  0  0  0  0  0  0  0  0
   52.7857    8.6102   21.3967 C   0  0  0  0  0  0  0  0  0  0  0  0
   51.2830    8.5264   18.6218 C   0  0  0  0  0  0  0  0  0  0  0  0
   52.9937    9.3640   20.0841 C   0  0  0  0  0  0  0  0  0  0  0  0
   48.2146   12.2905   10.8740 C   0  0  0  0  0  0  0  0  0  0  0  0
   50.2351   11.0619   10.3998 C   0  0  0  0  0  0  0  0  0  0  0  0
   49.3886   12.1375   10.1406 C   0  0  0  0  0  0  0  0  0  0  0  0
   50.0651   10.5342   17.8643 C   0  0  0  0  0  0  0  0  0  0  0  0
   47.4074    7.6881   13.1487 C   0  0  0  0  0  0  0  0  0  0  0  0
   49.1632    9.3489   13.5769 C   0  0  0  0  0  0  0  0  0  0  0  0
   50.6645    9.5789   15.6840 C   0  0  0  0  0  0  0  0  0  0  0  0
   50.0131   10.5613   16.4650 C   0  0  0  0  0  0  0  0  0  0  0  0
   48.6756    8.0247   13.6420 C   0  0  0  0  0  0  0  0  0  0  0  0
   50.5458    9.6536   14.1596 C   0  0  0  0  0  0  0  0  0  0  0  0
   50.8026    9.5325   18.4985 C   0  0  0  0  0  0  0  0  0  0  0  0
   46.6188    8.6751   12.5562 C   0  0  0  0  0  0  0  0  0  0  0  0
   49.3908   11.5206   18.7469 C   0  0  0  0  0  0  0  0  0  0  0  0
   46.9195    6.2933   13.2522 C   0  0  0  0  0  0  0  0  0  0  0  0
   48.3579   10.3528   12.9422 C   0  0  0  0  0  0  0  0  0  0  0  0
   51.4369    8.5655   16.3441 C   0  0  0  0  0  0  0  0  0  0  0  0
   51.4909    8.5613   17.7633 C   0  0  0  0  0  0  0  0  0  0  0  0
   47.0794    9.9910   12.4376 C   0  0  0  0  0  0  0  0  0  0  0  0
   49.4568   11.5609   19.9615 O   0  0  0  0  0  0  0  0  0  0  0  0
   47.5512    5.3772   13.7521 O   0  0  0  0  0  0  0  0  0  0  0  0
   49.3543   11.5610   15.7957 O   0  0  0  0  0  0  0  0  0  0  0  0
   49.5037    7.0706   14.1799 O   0  0  0  0  0  0  0  0  0  0  0  0
   48.6454   12.4196   18.0716 O   0  0  0  0  0  0  0  0  0  0  0  0
   45.6915    6.1040   12.7409 O   0  0  0  0  0  0  0  0  0  0  0  0
   52.1711    7.5463   15.6858 C   0  0  0  0  0  0  0  0  0  0  0  0
   48.7398   11.7071   12.7676 C   0  0  0  0  0  0  0  0  0  0  0  0
   52.2358    7.5872   18.4506 C   0  0  0  0  0  0  0  0  0  0  0  0
   46.2586   10.9445   11.8101 C   0  0  0  0  0  0  0  0  0  0  0  0
   47.9144   12.6461   12.1403 C   0  0  0  0  0  0  0  0  0  0  0  0
   52.9102    6.5834   16.3803 C   0  0  0  0  0  0  0  0  0  0  0  0
   46.6725   12.2643   11.6602 C   0  0  0  0  0  0  0  0  0  0  0  0
   52.9436    6.6045   17.7648 C   0  0  0  0  0  0  0  0  0  0  0  0
   49.2556    8.5914   13.3536 H   0  0  0  0  0  0  0  0  0  0  0  0
   50.1630   10.4216   14.6294 H   0  0  0  0  0  0  0  0  0  0  0  0
   49.0057   11.7555   14.5048 H   0  0  0  0  0  0  0  0  0  0  0  0
   47.5399    7.8671   15.2106 H   0  0  0  0  0  0  0  0  0  0  0  0
   47.0574    9.1843   16.2426 H   0  0  0  0  0  0  0  0  0  0  0  0
   48.5823    6.9106   11.7864 H   0  0  0  0  0  0  0  0  0  0  0  0
   45.6183    9.5776   13.4549 H   0  0  0  0  0  0  0  0  0  0  0  0
   49.9850   11.7829   16.7191 H   0  0  0  0  0  0  0  0  0  0  0  0
   48.2940   11.3755   16.8481 H   0  0  0  0  0  0  0  0  0  0  0  0
   49.9167    8.1653   15.8899 H   0  0  0  0  0  0  0  0  0  0  0  0
   48.8467    7.7788   17.2407 H   0  0  0  0  0  0  0  0  0  0  0  0
   43.8308    8.1254   12.5733 H   0  0  0  0  0  0  0  0  0  0  0  0
   46.7834    5.4689   10.9177 H   0  0  0  0  0  0  0  0  0  0  0  0
   51.2713   10.6110   18.1268 H   0  0  0  0  0  0  0  0  0  0  0  0
   51.6165    9.5827   16.7569 H   0  0  0  0  0  0  0  0  0  0  0  0
   53.5182    7.0547   20.5109 H   0  0  0  0  0  0  0  0  0  0  0  0
   50.5811    9.3010   11.5740 H   0  0  0  0  0  0  0  0  0  0  0  0
   46.9674   11.5020   12.4349 H   0  0  0  0  0  0  0  0  0  0  0  0
   51.7426    8.3013   21.5212 H   0  0  0  0  0  0  0  0  0  0  0  0
   53.0718    9.2322   22.2503 H   0  0  0  0  0  0  0  0  0  0  0  0
   51.0826    7.5619   18.1448 H   0  0  0  0  0  0  0  0  0  0  0  0
   50.6530    8.5847   19.5157 H   0  0  0  0  0  0  0  0  0  0  0  0
   54.0546    9.6150   19.9776 H   0  0  0  0  0  0  0  0  0  0  0  0
   52.4176   10.2944   20.0609 H   0  0  0  0  0  0  0  0  0  0  0  0
   47.5511   13.1269   10.6712 H   0  0  0  0  0  0  0  0  0  0  0  0
   51.1492   10.9417    9.8249 H   0  0  0  0  0  0  0  0  0  0  0  0
   49.6422   12.8560    9.3656 H   0  0  0  0  0  0  0  0  0  0  0  0
   51.2561    8.9904   13.6576 H   0  0  0  0  0  0  0  0  0  0  0  0
   50.9124   10.6393   13.8593 H   0  0  0  0  0  0  0  0  0  0  0  0
   50.8462    9.5162   19.5875 H   0  0  0  0  0  0  0  0  0  0  0  0
   45.6344    8.4162   12.1710 H   0  0  0  0  0  0  0  0  0  0  0  0
   48.8711   12.1043   16.4520 H   0  0  0  0  0  0  0  0  0  0  0  0
   49.0334    6.2109   14.2288 H   0  0  0  0  0  0  0  0  0  0  0  0
   48.2688   12.9748   18.7917 H   0  0  0  0  0  0  0  0  0  0  0  0
   45.5094    5.1511   12.8803 H   0  0  0  0  0  0  0  0  0  0  0  0
   52.1702    7.4666   14.6026 H   0  0  0  0  0  0  0  0  0  0  0  0
   49.6941   12.0721   13.1362 H   0  0  0  0  0  0  0  0  0  0  0  0
   52.2732    7.5866   19.5384 H   0  0  0  0  0  0  0  0  0  0  0  0
   45.2795   10.6633   11.4268 H   0  0  0  0  0  0  0  0  0  0  0  0
   48.2487   13.6748   12.0352 H   0  0  0  0  0  0  0  0  0  0  0  0
   53.4514    5.8180   15.8300 H   0  0  0  0  0  0  0  0  0  0  0  0
   46.0267   12.9893   11.1728 H   0  0  0  0  0  0  0  0  0  0  0  0
   53.5141    5.8594   18.3119 H   0  0  0  0  0  0  0  0  0  0  0  0
  2  1  1  0
  3 10  1  0
  4  2  1  0
  5  1  1  0
  6  1  1  0
  7  2  1  0
  8  4  2  0
  9  4  1  0
 10  5  1  0
 11  6  1  0
 12 14  2  0
 13  9  2  0
 14  8  1  0
 15 12  1  0
 16  3  1  0
 17 21  1  0
 18 22  1  0
 19  7  2  0
 20  7  1  0
 21 23  1  0
 22 16  1  0
 23 18  1  0
 24 20  2  0
 25 19  1  0
 26 25  2  0
 11  3  1  0
 13 12  1  0
 24 26  1  0
 28 32  2  0
 29 33  1  0
 30 31  1  0
 31 27  2  0
 32 29  1  0
 33 30  1  0
 34 27  1  0
 35 28  1  0
 36 27  1  0
 37 28  1  0
 38 29  2  0
 39 40  1  0
 40 34  2  0
 41 38  1  0
 42 36  2  0
 43 37  2  0
 44 31  1  0
 45 32  1  0
 46 36  1  0
 47 37  1  0
 48 39  1  0
 49 38  1  0
 50 40  1  0
 51 41  1  0
 52 49  2  0
 53 48  2  0
 54 52  1  0
 55 50  2  0
 30 39  2  0
 53 55  1  0
 35 41  2  0
 51 54  2  0
  2 56  1  1
  5 57  1  0
  5 58  1  0
  6 59  1  0
  6 60  1  0
  8 61  1  0
  9 62  1  0
 10 63  1  0
 10 64  1  0
 11 65  1  0
 11 66  1  0
 13 67  1  0
 14 68  1  0
 16 69  1  0
 16 70  1  0
 17 71  1  0
 19 72  1  0
 20 73  1  0
 21 74  1  0
 21 75  1  0
 22 76  1  0
 22 77  1  0
 23 78  1  0
 23 79  1  0
 24 80  1  0
 25 81  1  0
 26 82  1  0
 33 83  1  0
 33 84  1  0
 34 85  1  0
 35 86  1  0
 44 87  1  0
 45 88  1  0
 46 89  1  0
 47 90  1  0
 48 91  1  0
 49 92  1  0
 50 93  1  0
 51 94  1  0
 52 95  1  0
 53 96  1  0
 54 97  1  0
 55 98  1  0
M  END
> <Uni-Dock RESULT> 
ENERGY=   -5.547  LOWER_BOUND=    0.000  UPPER_BOUND=    0.000
INTER + INTRA:          -5.547
INTER:                  -5.547
INTRA:                   0.000
UNBOUND:                 0.000

$$$$

     RDKit          3D

 98103  0  0  0  0  0  0  0  0999 V2000
   48.2246    8.1467   16.6876 N   0  0  0  0  0  0  0  0  0  0  0  0
   49.2386    7.6520   17.6630 C   0  0  1  0  0  0  0  0  0  0  0  0
   48.3950    9.8205   14.1182 N   0  0  0  0  0  0  0  0  0  0  0  0
   48.9808    8.1169   19.1058 C   0  0  0  0  0  0  0  0  0  0  0  0
   48.4552    7.5925   15.3297 C   0  0  0  0  0  0  0  0  0  0  0  0
   48.1624    9.6284   16.6257 C   0  0  0  0  0  0  0  0  0  0  0  0
   49.4050    6.1262   17.6505 C   0  0  0  0  0  0  0  0  0  0  0  0
   50.0696    8.4340   19.9385 C   0  0  0  0  0  0  0  0  0  0  0  0
   47.6811    8.1984   19.6390 C   0  0  0  0  0  0  0  0  0  0  0  0
   47.8419    8.4522   14.2021 C   0  0  0  0  0  0  0  0  0  0  0  0
   48.9150   10.2575   15.4307 C   0  0  0  0  0  0  0  0  0  0  0  0
   48.5671    8.9223   21.7643 C   0  0  0  0  0  0  0  0  0  0  0  0
   47.4758    8.6040   20.9600 C   0  0  0  0  0  0  0  0  0  0  0  0
   49.8629    8.8370   21.2607 C   0  0  0  0  0  0  0  0  0  0  0  0
   48.3125    9.4257   23.3904 Cl  0  0  0  0  0  0  0  0  0  0  0  0
   49.4089    9.9397   13.0584 C   0  0  0  0  0  0  0  0  0  0  0  0
   51.1603   13.7383   10.1300 O   0  0  0  0  0  0  0  0  0  0  0  0
   50.8168   11.4400   11.7283 O   0  0  0  0  0  0  0  0  0  0  0  0
   50.6809    5.5605   17.4857 C   0  0  0  0  0  0  0  0  0  0  0  0
   48.3075    5.2646   17.8209 C   0  0  0  0  0  0  0  0  0  0  0  0
   49.9536   12.9795   10.0619 C   0  0  0  0  0  0  0  0  0  0  0  0
   49.8533   11.3894   12.7871 C   0  0  0  0  0  0  0  0  0  0  0  0
   50.2346   11.5210   10.4199 C   0  0  0  0  0  0  0  0  0  0  0  0
   48.4802    3.8797   17.8200 C   0  0  0  0  0  0  0  0  0  0  0  0
   50.8504    4.1745   17.4859 C   0  0  0  0  0  0  0  0  0  0  0  0
   49.7512    3.3353   17.6533 C   0  0  0  0  0  0  0  0  0  0  0  0
   48.1878    9.5888   13.0563 C   0  0  0  0  0  0  0  0  0  0  0  0
   49.2728    8.8708   19.0319 C   0  0  0  0  0  0  0  0  0  0  0  0
   49.6690    7.7028   16.9098 C   0  0  0  0  0  0  0  0  0  0  0  0
   49.9455    8.7388   14.5440 C   0  0  0  0  0  0  0  0  0  0  0  0
   48.6566    8.6379   13.9714 C   0  0  0  0  0  0  0  0  0  0  0  0
   49.9170    8.7793   17.7903 C   0  0  0  0  0  0  0  0  0  0  0  0
   50.3853    7.6786   15.5569 C   0  0  0  0  0  0  0  0  0  0  0  0
   49.0248   10.6409   12.6794 C   0  0  0  0  0  0  0  0  0  0  0  0
   48.3873    7.8646   19.4200 C   0  0  0  0  0  0  0  0  0  0  0  0
   46.8409    9.5564   12.4306 C   0  0  0  0  0  0  0  0  0  0  0  0
   49.5410   10.0245   19.9214 C   0  0  0  0  0  0  0  0  0  0  0  0
   48.7778    6.6584   17.3270 C   0  0  0  0  0  0  0  0  0  0  0  0
   50.8061    9.8119   14.1349 C   0  0  0  0  0  0  0  0  0  0  0  0
   50.3201   10.7592   13.1950 C   0  0  0  0  0  0  0  0  0  0  0  0
   48.1423    6.7621   18.5940 C   0  0  0  0  0  0  0  0  0  0  0  0
   46.4188   10.3324   11.5934 O   0  0  0  0  0  0  0  0  0  0  0  0
   50.3029   10.9389   19.6539 O   0  0  0  0  0  0  0  0  0  0  0  0
   47.8955    7.5528   14.3242 O   0  0  0  0  0  0  0  0  0  0  0  0
   50.8375    9.7195   17.3977 O   0  0  0  0  0  0  0  0  0  0  0  0
   46.0638    8.5527   12.8873 O   0  0  0  0  0  0  0  0  0  0  0  0
   48.8623    9.9910   21.0804 O   0  0  0  0  0  0  0  0  0  0  0  0
   52.1323   10.0103   14.5962 C   0  0  0  0  0  0  0  0  0  0  0  0
   48.4730    5.5013   16.5661 C   0  0  0  0  0  0  0  0  0  0  0  0
   51.1293   11.8257   12.7665 C   0  0  0  0  0  0  0  0  0  0  0  0
   47.2611    5.7613   19.0398 C   0  0  0  0  0  0  0  0  0  0  0  0
   47.5953    4.5119   17.0215 C   0  0  0  0  0  0  0  0  0  0  0  0
   52.9288   11.0743   14.1614 C   0  0  0  0  0  0  0  0  0  0  0  0
   46.9892    4.6415   18.2603 C   0  0  0  0  0  0  0  0  0  0  0  0
   52.4271   11.9828   13.2441 C   0  0  0  0  0  0  0  0  0  0  0  0
   50.1996    8.0920   17.3561 H   0  0  0  0  0  0  0  0  0  0  0  0
   49.5294    7.4877   15.1231 H   0  0  0  0  0  0  0  0  0  0  0  0
   48.0083    6.5940   15.2697 H   0  0  0  0  0  0  0  0  0  0  0  0
   48.5174   10.1048   17.5459 H   0  0  0  0  0  0  0  0  0  0  0  0
   47.1016    9.9047   16.5518 H   0  0  0  0  0  0  0  0  0  0  0  0
   51.0884    8.3595   19.5635 H   0  0  0  0  0  0  0  0  0  0  0  0
   46.8200    7.9496   19.0207 H   0  0  0  0  0  0  0  0  0  0  0  0
   47.9354    7.9223   13.2465 H   0  0  0  0  0  0  0  0  0  0  0  0
   46.7619    8.5418   14.3783 H   0  0  0  0  0  0  0  0  0  0  0  0
   49.9810   10.0111   15.5338 H   0  0  0  0  0  0  0  0  0  0  0  0
   48.8277   11.3481   15.4978 H   0  0  0  0  0  0  0  0  0  0  0  0
   46.4652    8.6660   21.3536 H   0  0  0  0  0  0  0  0  0  0  0  0
   50.7147    9.0784   21.8901 H   0  0  0  0  0  0  0  0  0  0  0  0
   48.9981    9.5405   12.1231 H   0  0  0  0  0  0  0  0  0  0  0  0
   50.2896    9.3226   13.2798 H   0  0  0  0  0  0  0  0  0  0  0  0
   51.6287   13.4163   10.9243 H   0  0  0  0  0  0  0  0  0  0  0  0
   51.5539    6.1965   17.3592 H   0  0  0  0  0  0  0  0  0  0  0  0
   47.3080    5.6752   17.9471 H   0  0  0  0  0  0  0  0  0  0  0  0
   49.2414   13.4337   10.7586 H   0  0  0  0  0  0  0  0  0  0  0  0
   49.5514   13.0589    9.0473 H   0  0  0  0  0  0  0  0  0  0  0  0
   50.3513   11.8002   13.6709 H   0  0  0  0  0  0  0  0  0  0  0  0
   48.9960   12.0344   12.5673 H   0  0  0  0  0  0  0  0  0  0  0  0
   50.9827   11.1185    9.7284 H   0  0  0  0  0  0  0  0  0  0  0  0
   49.3312   10.9081   10.3417 H   0  0  0  0  0  0  0  0  0  0  0  0
   47.6217    3.2270   17.9543 H   0  0  0  0  0  0  0  0  0  0  0  0
   51.8420    3.7488   17.3590 H   0  0  0  0  0  0  0  0  0  0  0  0
   49.8844    2.2567   17.6561 H   0  0  0  0  0  0  0  0  0  0  0  0
   51.4583    7.7258   15.7639 H   0  0  0  0  0  0  0  0  0  0  0  0
   50.2977    6.7079   15.0606 H   0  0  0  0  0  0  0  0  0  0  0  0
   48.6599   11.3770   11.9630 H   0  0  0  0  0  0  0  0  0  0  0  0
   47.8870    7.9323   20.3840 H   0  0  0  0  0  0  0  0  0  0  0  0
   47.0023    7.6646   13.9381 H   0  0  0  0  0  0  0  0  0  0  0  0
   50.8754   10.4442   18.0580 H   0  0  0  0  0  0  0  0  0  0  0  0
   45.2245    8.6838   12.3903 H   0  0  0  0  0  0  0  0  0  0  0  0
   49.1386   10.8041   21.5529 H   0  0  0  0  0  0  0  0  0  0  0  0
   52.5760    9.3420   15.3286 H   0  0  0  0  0  0  0  0  0  0  0  0
   48.9034    5.3493   15.5806 H   0  0  0  0  0  0  0  0  0  0  0  0
   50.7524   12.5505   12.0473 H   0  0  0  0  0  0  0  0  0  0  0  0
   46.7753    5.8458   20.0101 H   0  0  0  0  0  0  0  0  0  0  0  0
   47.3882    3.6452   16.3993 H   0  0  0  0  0  0  0  0  0  0  0  0
   53.9378   11.1872   14.5498 H   0  0  0  0  0  0  0  0  0  0  0  0
   46.3062    3.8767   18.6189 H   0  0  0  0  0  0  0  0  0  0  0  0
   53.0387   12.8128   12.9022 H   0  0  0  0  0  0  0  0  0  0  0  0
  2  1  1  0
  3 10  1  0
  4  2  1  0
  5  1  1  0
  6  1  1  0
  7  2  1  0
  8  4  2  0
  9  4  1  0
 10  5  1  0
 11  6  1  0
 12 14  2  0
 13  9  2  0
 14  8  1  0
 15 12  1  0
 16  3  1  0
 17 21  1  0
 18 22  1  0
 19  7  2  0
 20  7  1  0
 21 23  1  0
 22 16  1  0
 23 18  1  0
 24 20  2  0
 25 19  1  0
 26 25  2  0
 11  3  1  0
 13 12  1  0
 24 26  1  0
 28 32  2  0
 29 33  1  0
 30 31  1  0
 31 27  2  0
 32 29  1  0
 33 30  1  0
 34 27  1  0
 35 28  1  0
 36 27  1  0
 37 28  1  0
 38 29  2  0
 39 40  1  0
 40 34  2  0
 41 38  1  0
 42 36  2  0
 43 37  2  0
 44 31  1  0
 45 32  1  0
 46 36  1  0
 47 37  1  0
 48 39  1  0
 49 38  1  0
 50 40  1  0
 51 41  1  0
 52 49  2  0
 53 48  2  0
 54 52  1  0
 55 50  2  0
 30 39  2  0
 53 55  1  0
 35 41  2  0
 51 54  2  0
  2 56  1  1
  5 57  1  0
  5 58  1  0
  6 59  1  0
  6 60  1  0
  8 61  1  0
  9 62  1  0
 10 63  1  0
 10 64  1  0
 11 65  1  0
 11 66  1  0
 13 67  1  0
 14 68  1  0
 16 69  1  0
 16 70  1  0
 17 71  1  0
 19 72  1  0
 20 73  1  0
 21 74  1  0
 21 75  1  0
 22 76  1  0
 22 77  1  0
 23 78  1  0
 23 79  1  0
 24 80  1  0
 25 81  1  0
 26 82  1  0
 33 83  1  0
 33 84  1  0
 34 85  1  0
 35 86  1  0
 44 87  1  0
 45 88  1  0
 46 89  1  0
 47 90  1  0
 48 91  1  0
 49 92  1  0
 50 93  1  0
 51 94  1  0
 52 95  1  0
 53 96  1  0
 54 97  1  0
 55 98  1  0
M  END
> <Uni-Dock RESULT> 
ENERGY=   -5.410  LOWER_BOUND=    3.244  UPPER_BOUND=    7.466
INTER + INTRA:          -5.410
INTER:                  -5.410
INTRA:                   0.000
UNBOUND:                 0.000

$$$$

     RDKit          3D

 98103  0  0  0  0  0  0  0  0999 V2000
   48.9066    6.7517   17.7330 N   0  0  0  0  0  0  0  0  0  0  0  0
   49.6675    5.8387   18.6340 C   0  0  1  0  0  0  0  0  0  0  0  0
   49.6548    9.2736   16.1479 N   0  0  0  0  0  0  0  0  0  0  0  0
   49.0650    5.7250   20.0441 C   0  0  0  0  0  0  0  0  0  0  0  0
   49.4642    6.7526   16.3570 C   0  0  0  0  0  0  0  0  0  0  0  0
   48.8346    8.1408   18.2509 C   0  0  0  0  0  0  0  0  0  0  0  0
   49.8593    4.4299   18.0560 C   0  0  0  0  0  0  0  0  0  0  0  0
   49.9180    5.6068   21.1566 C   0  0  0  0  0  0  0  0  0  0  0  0
   47.6744    5.6946   20.2574 C   0  0  0  0  0  0  0  0  0  0  0  0
   49.1221    8.0283   15.5556 C   0  0  0  0  0  0  0  0  0  0  0  0
   49.8390    9.1237   17.6065 C   0  0  0  0  0  0  0  0  0  0  0  0
   48.0152    5.4634   22.6358 C   0  0  0  0  0  0  0  0  0  0  0  0
   47.1529    5.5696   21.5475 C   0  0  0  0  0  0  0  0  0  0  0  0
   49.3950    5.4790   22.4464 C   0  0  0  0  0  0  0  0  0  0  0  0
   47.3713    5.3134   24.2249 Cl  0  0  0  0  0  0  0  0  0  0  0  0
   50.8898    9.7153   15.4808 C   0  0  0  0  0  0  0  0  0  0  0  0
   53.2208   14.2031   14.7749 O   0  0  0  0  0  0  0  0  0  0  0  0
   52.5472   11.4990   15.2093 O   0  0  0  0  0  0  0  0  0  0  0  0
   51.1476    3.8743   17.9733 C   0  0  0  0  0  0  0  0  0  0  0  0
   48.7683    3.6589   17.6185 C   0  0  0  0  0  0  0  0  0  0  0  0
   52.0789   13.6279   14.1412 C   0  0  0  0  0  0  0  0  0  0  0  0
   51.3601   11.1167   15.9140 C   0  0  0  0  0  0  0  0  0  0  0  0
   52.2924   12.1277   13.9454 C   0  0  0  0  0  0  0  0  0  0  0  0
   48.9609    2.3743   17.1081 C   0  0  0  0  0  0  0  0  0  0  0  0
   51.3368    2.5885   17.4626 C   0  0  0  0  0  0  0  0  0  0  0  0
   50.2445    1.8395   17.0310 C   0  0  0  0  0  0  0  0  0  0  0  0
   49.7108    9.4900   15.0642 C   0  0  0  0  0  0  0  0  0  0  0  0
   49.3526    6.4227   20.3429 C   0  0  0  0  0  0  0  0  0  0  0  0
   50.2641    6.1443   18.0810 C   0  0  0  0  0  0  0  0  0  0  0  0
   51.0781    7.9933   16.4483 C   0  0  0  0  0  0  0  0  0  0  0  0
   49.9649    8.2245   15.6077 C   0  0  0  0  0  0  0  0  0  0  0  0
   50.2758    6.7708   19.3471 C   0  0  0  0  0  0  0  0  0  0  0  0
   51.2826    6.5917   17.0291 C   0  0  0  0  0  0  0  0  0  0  0  0
   50.5947   10.5365   15.3345 C   0  0  0  0  0  0  0  0  0  0  0  0
   48.4183    5.4178   20.0897 C   0  0  0  0  0  0  0  0  0  0  0  0
   48.5528    9.8092   14.1903 C   0  0  0  0  0  0  0  0  0  0  0  0
   49.3805    7.1150   21.6522 C   0  0  0  0  0  0  0  0  0  0  0  0
   49.3179    5.0934   17.8373 C   0  0  0  0  0  0  0  0  0  0  0  0
   51.9922    9.0697   16.7037 C   0  0  0  0  0  0  0  0  0  0  0  0
   51.7274   10.3429   16.1328 C   0  0  0  0  0  0  0  0  0  0  0  0
   48.3969    4.7460   18.8625 C   0  0  0  0  0  0  0  0  0  0  0  0
   48.3286   10.8802   13.6574 O   0  0  0  0  0  0  0  0  0  0  0  0
   50.1678    7.9986   21.9483 O   0  0  0  0  0  0  0  0  0  0  0  0
   49.1611    7.1510   15.3200 O   0  0  0  0  0  0  0  0  0  0  0  0
   51.2465    7.7141   19.5780 O   0  0  0  0  0  0  0  0  0  0  0  0
   47.7073    8.7714   14.0237 O   0  0  0  0  0  0  0  0  0  0  0  0
   48.4458    6.6871   22.5172 O   0  0  0  0  0  0  0  0  0  0  0  0
   53.1664    8.9683   17.4923 C   0  0  0  0  0  0  0  0  0  0  0  0
   49.2239    4.3509   16.6329 C   0  0  0  0  0  0  0  0  0  0  0  0
   52.5963   11.4250   16.3566 C   0  0  0  0  0  0  0  0  0  0  0  0
   47.4529    3.7232   18.6638 C   0  0  0  0  0  0  0  0  0  0  0  0
   48.2808    3.3345   16.4480 C   0  0  0  0  0  0  0  0  0  0  0  0
   54.0245   10.0516   17.7066 C   0  0  0  0  0  0  0  0  0  0  0  0
   47.3947    3.0196   17.4650 C   0  0  0  0  0  0  0  0  0  0  0  0
   53.7397   11.2815   17.1369 C   0  0  0  0  0  0  0  0  0  0  0  0
   50.6659    6.2864   18.7522 H   0  0  0  0  0  0  0  0  0  0  0  0
   50.5584    6.6523   16.3741 H   0  0  0  0  0  0  0  0  0  0  0  0
   49.0623    5.8945   15.8071 H   0  0  0  0  0  0  0  0  0  0  0  0
   48.9515    8.1925   19.3387 H   0  0  0  0  0  0  0  0  0  0  0  0
   47.8173    8.5065   18.0551 H   0  0  0  0  0  0  0  0  0  0  0  0
   50.9980    5.6041   21.0234 H   0  0  0  0  0  0  0  0  0  0  0  0
   46.9901    5.7742   19.4142 H   0  0  0  0  0  0  0  0  0  0  0  0
   49.4502    7.9060   14.5163 H   0  0  0  0  0  0  0  0  0  0  0  0
   48.0298    8.1269   15.5041 H   0  0  0  0  0  0  0  0  0  0  0  0
   50.8539    8.7737   17.8413 H   0  0  0  0  0  0  0  0  0  0  0  0
   49.7188   10.1057   18.0786 H   0  0  0  0  0  0  0  0  0  0  0  0
   46.0767    5.5529   21.6941 H   0  0  0  0  0  0  0  0  0  0  0  0
   50.0677    5.3890   23.2944 H   0  0  0  0  0  0  0  0  0  0  0  0
   50.7210    9.7446   14.3974 H   0  0  0  0  0  0  0  0  0  0  0  0
   51.7032    8.9935   15.6321 H   0  0  0  0  0  0  0  0  0  0  0  0
   53.4921   13.5620   15.4600 H   0  0  0  0  0  0  0  0  0  0  0  0
   52.0141    4.4387   18.3098 H   0  0  0  0  0  0  0  0  0  0  0  0
   47.7605    4.0652   17.6678 H   0  0  0  0  0  0  0  0  0  0  0  0
   51.2131   13.8300   14.7804 H   0  0  0  0  0  0  0  0  0  0  0  0
   51.9287   14.1267   13.1789 H   0  0  0  0  0  0  0  0  0  0  0  0
   51.6257   11.1111   16.9757 H   0  0  0  0  0  0  0  0  0  0  0  0
   50.5686   11.8616   15.7803 H   0  0  0  0  0  0  0  0  0  0  0  0
   53.1908   11.9682   13.3395 H   0  0  0  0  0  0  0  0  0  0  0  0
   51.4447   11.6664   13.4291 H   0  0  0  0  0  0  0  0  0  0  0  0
   48.1070    1.7904   16.7751 H   0  0  0  0  0  0  0  0  0  0  0  0
   52.3375    2.1691   17.4049 H   0  0  0  0  0  0  0  0  0  0  0  0
   50.3925    0.8378   16.6362 H   0  0  0  0  0  0  0  0  0  0  0  0
   52.2743    6.4702   17.4743 H   0  0  0  0  0  0  0  0  0  0  0  0
   51.3332    5.9003   16.1830 H   0  0  0  0  0  0  0  0  0  0  0  0
   50.3981   11.5194   14.9062 H   0  0  0  0  0  0  0  0  0  0  0  0
   47.7014    5.1446   20.8616 H   0  0  0  0  0  0  0  0  0  0  0  0
   48.3839    7.4739   14.8190 H   0  0  0  0  0  0  0  0  0  0  0  0
   51.1129    8.1198   20.4613 H   0  0  0  0  0  0  0  0  0  0  0  0
   47.0085    9.1509   13.4438 H   0  0  0  0  0  0  0  0  0  0  0  0
   48.5869    7.2281   23.3221 H   0  0  0  0  0  0  0  0  0  0  0  0
   53.4345    8.0353   17.9795 H   0  0  0  0  0  0  0  0  0  0  0  0
   49.8796    4.5606   15.7928 H   0  0  0  0  0  0  0  0  0  0  0  0
   52.3888   12.3995   15.9185 H   0  0  0  0  0  0  0  0  0  0  0  0
   46.7484    3.4618   19.4512 H   0  0  0  0  0  0  0  0  0  0  0  0
   48.2435    2.7971   15.5042 H   0  0  0  0  0  0  0  0  0  0  0  0
   54.9096    9.9249   18.3248 H   0  0  0  0  0  0  0  0  0  0  0  0
   46.6596    2.2318   17.3270 H   0  0  0  0  0  0  0  0  0  0  0  0
   54.4004   12.1284   17.2996 H   0  0  0  0  0  0  0  0  0  0  0  0
  2  1  1  0
  3 10  1  0
  4  2  1  0
  5  1  1  0
  6  1  1  0
  7  2  1  0
  8  4  2  0
  9  4  1  0
 10  5  1  0
 11  6  1  0
 12 14  2  0
 13  9  2  0
 14  8  1  0
 15 12  1  0
 16  3  1  0
 17 21  1  0
 18 22  1  0
 19  7  2  0
 20  7  1  0
 21 23  1  0
 22 16  1  0
 23 18  1  0
 24 20  2  0
 25 19  1  0
 26 25  2  0
 11  3  1  0
 13 12  1  0
 24 26  1  0
 28 32  2  0
 29 33  1  0
 30 31  1  0
 31 27  2  0
 32 29  1  0
 33 30  1  0
 34 27  1  0
 35 28  1  0
 36 27  1  0
 37 28  1  0
 38 29  2  0
 39 40  1  0
 40 34  2  0
 41 38  1  0
 42 36  2  0
 43 37  2  0
 44 31  1  0
 45 32  1  0
 46 36  1  0
 47 37  1  0
 48 39  1  0
 49 38  1  0
 50 40  1  0
 51 41  1  0
 52 49  2  0
 53 48  2  0
 54 52  1  0
 55 50  2  0
 30 39  2  0
 53 55  1  0
 35 41  2  0
 51 54  2  0
  2 56  1  1
  5 57  1  0
  5 58  1  0
  6 59  1  0
  6 60  1  0
  8 61  1  0
  9 62  1  0
 10 63  1  0
 10 64  1  0
 11 65  1  0
 11 66  1  0
 13 67  1  0
 14 68  1  0
 16 69  1  0
 16 70  1  0
 17 71  1  0
 19 72  1  0
 20 73  1  0
 21 74  1  0
 21 75  1  0
 22 76  1  0
 22 77  1  0
 23 78  1  0
 23 79  1  0
 24 80  1  0
 25 81  1  0
 26 82  1  0
 33 83  1  0
 33 84  1  0
 34 85  1  0
 35 86  1  0
 44 87  1  0
 45 88  1  0
 46 89  1  0
 47 90  1  0
 48 91  1  0
 49 92  1  0
 50 93  1  0
 51 94  1  0
 52 95  1  0
 53 96  1  0
 54 97  1  0
 55 98  1  0
M  END
> <Uni-Dock RESULT> 
ENERGY=   -5.392  LOWER_BOUND=    3.909  UPPER_BOUND=    7.414
INTER + INTRA:          -5.392
INTER:                  -5.392
INTRA:                   0.000
UNBOUND:                 0.000

$$$$

     RDKit          3D

 98103  0  0  0  0  0  0  0  0999 V2000
   49.9158    7.3399   13.4820 N   0  0  0  0  0  0  0  0  0  0  0  0
   48.5560    7.7323   13.9522 C   0  0  1  0  0  0  0  0  0  0  0  0
   51.9654    8.6408   11.6007 N   0  0  0  0  0  0  0  0  0  0  0  0
   47.4708    6.6915   13.6305 C   0  0  0  0  0  0  0  0  0  0  0  0
   50.9453    8.3239   13.9016 C   0  0  0  0  0  0  0  0  0  0  0  0
   49.9789    7.1366   12.0130 C   0  0  0  0  0  0  0  0  0  0  0  0
   48.5002    8.0679   15.4489 C   0  0  0  0  0  0  0  0  0  0  0  0
   46.1788    7.1216   13.2768 C   0  0  0  0  0  0  0  0  0  0  0  0
   47.7184    5.3090   13.7178 C   0  0  0  0  0  0  0  0  0  0  0  0
   52.2126    8.3027   13.0184 C   0  0  0  0  0  0  0  0  0  0  0  0
   50.5726    8.3243   11.2212 C   0  0  0  0  0  0  0  0  0  0  0  0
   45.4392    4.8315   13.0827 C   0  0  0  0  0  0  0  0  0  0  0  0
   46.7086    4.3843   13.4401 C   0  0  0  0  0  0  0  0  0  0  0  0
   45.1688    6.1954   13.0021 C   0  0  0  0  0  0  0  0  0  0  0  0
   44.1972    3.6911   12.7372 Cl  0  0  0  0  0  0  0  0  0  0  0  0
   52.3125   10.0389   11.3003 C   0  0  0  0  0  0  0  0  0  0  0  0
   53.7831   12.5912    7.1295 O   0  0  0  0  0  0  0  0  0  0  0  0
   52.6548   11.7391    9.5699 O   0  0  0  0  0  0  0  0  0  0  0  0
   47.9621    9.2947   15.8737 C   0  0  0  0  0  0  0  0  0  0  0  0
   48.9593    7.1648   16.4234 C   0  0  0  0  0  0  0  0  0  0  0  0
   54.5004   11.7106    7.9935 C   0  0  0  0  0  0  0  0  0  0  0  0
   52.2805   10.3753    9.7974 C   0  0  0  0  0  0  0  0  0  0  0  0
   54.0697   11.9369    9.4419 C   0  0  0  0  0  0  0  0  0  0  0  0
   48.8882    7.4820   17.7807 C   0  0  0  0  0  0  0  0  0  0  0  0
   47.8919    9.6088   17.2325 C   0  0  0  0  0  0  0  0  0  0  0  0
   48.3541    8.7031   18.1847 C   0  0  0  0  0  0  0  0  0  0  0  0
   52.9757    9.0604   11.7662 C   0  0  0  0  0  0  0  0  0  0  0  0
   47.3648    6.8817   12.8486 C   0  0  0  0  0  0  0  0  0  0  0  0
   48.9591    8.4870   13.8004 C   0  0  0  0  0  0  0  0  0  0  0  0
   50.7896    9.8478   12.5578 C   0  0  0  0  0  0  0  0  0  0  0  0
   51.9666    9.0849   12.7371 C   0  0  0  0  0  0  0  0  0  0  0  0
   48.0670    8.0929   12.7783 C   0  0  0  0  0  0  0  0  0  0  0  0
   49.7153    9.8094   13.6477 C   0  0  0  0  0  0  0  0  0  0  0  0
   52.8279    9.8314   10.6116 C   0  0  0  0  0  0  0  0  0  0  0  0
   47.5287    6.0586   13.9633 C   0  0  0  0  0  0  0  0  0  0  0  0
   54.2276    8.2688   11.8790 C   0  0  0  0  0  0  0  0  0  0  0  0
   46.4531    6.4903   11.7486 C   0  0  0  0  0  0  0  0  0  0  0  0
   49.1019    7.6483   14.9560 C   0  0  0  0  0  0  0  0  0  0  0  0
   50.6559   10.6530   11.3775 C   0  0  0  0  0  0  0  0  0  0  0  0
   51.6952   10.6278   10.4100 C   0  0  0  0  0  0  0  0  0  0  0  0
   48.3735    6.4294   15.0151 C   0  0  0  0  0  0  0  0  0  0  0  0
   55.1486    8.2637   11.0834 O   0  0  0  0  0  0  0  0  0  0  0  0
   46.2555    7.1572   10.7465 O   0  0  0  0  0  0  0  0  0  0  0  0
   52.0946    8.3944   13.9153 O   0  0  0  0  0  0  0  0  0  0  0  0
   47.8891    8.9561   11.7254 O   0  0  0  0  0  0  0  0  0  0  0  0
   54.2753    7.4996   12.9862 O   0  0  0  0  0  0  0  0  0  0  0  0
   45.8410    5.3096   11.9395 O   0  0  0  0  0  0  0  0  0  0  0  0
   49.5513   11.4941   11.0891 C   0  0  0  0  0  0  0  0  0  0  0  0
   49.9249    7.9412   16.0730 C   0  0  0  0  0  0  0  0  0  0  0  0
   51.6056   11.4011    9.2395 C   0  0  0  0  0  0  0  0  0  0  0  0
   48.4862    5.5785   16.1287 C   0  0  0  0  0  0  0  0  0  0  0  0
   50.0275    7.0867   17.1756 C   0  0  0  0  0  0  0  0  0  0  0  0
   49.4738   12.2605    9.9219 C   0  0  0  0  0  0  0  0  0  0  0  0
   49.3067    5.9042   17.2041 C   0  0  0  0  0  0  0  0  0  0  0  0
   50.5031   12.2149    8.9961 C   0  0  0  0  0  0  0  0  0  0  0  0
   48.2917    8.6459   13.3984 H   0  0  0  0  0  0  0  0  0  0  0  0
   50.5438    9.3467   13.8854 H   0  0  0  0  0  0  0  0  0  0  0  0
   51.2512    8.1054   14.9307 H   0  0  0  0  0  0  0  0  0  0  0  0
   49.0050    6.8856   11.5792 H   0  0  0  0  0  0  0  0  0  0  0  0
   50.6070    6.2529   11.8356 H   0  0  0  0  0  0  0  0  0  0  0  0
   45.9487    8.1838   13.2225 H   0  0  0  0  0  0  0  0  0  0  0  0
   48.7062    4.9472   13.9988 H   0  0  0  0  0  0  0  0  0  0  0  0
   52.9762    8.9549   13.4592 H   0  0  0  0  0  0  0  0  0  0  0  0
   52.6430    7.2931   13.0480 H   0  0  0  0  0  0  0  0  0  0  0  0
   49.9167    9.1932   11.3707 H   0  0  0  0  0  0  0  0  0  0  0  0
   50.5465    8.0800   10.1529 H   0  0  0  0  0  0  0  0  0  0  0  0
   46.9188    3.3207   13.5077 H   0  0  0  0  0  0  0  0  0  0  0  0
   44.1768    6.5444   12.7303 H   0  0  0  0  0  0  0  0  0  0  0  0
   53.3280   10.2415   11.6618 H   0  0  0  0  0  0  0  0  0  0  0  0
   51.6619   10.7356   11.8449 H   0  0  0  0  0  0  0  0  0  0  0  0
   52.8665   12.6013    7.4668 H   0  0  0  0  0  0  0  0  0  0  0  0
   47.5900   10.0144   15.1484 H   0  0  0  0  0  0  0  0  0  0  0  0
   49.3837    6.2094   16.1228 H   0  0  0  0  0  0  0  0  0  0  0  0
   54.2888   10.6871    7.6671 H   0  0  0  0  0  0  0  0  0  0  0  0
   55.5709   11.9032    7.8731 H   0  0  0  0  0  0  0  0  0  0  0  0
   51.2614   10.2716    9.4120 H   0  0  0  0  0  0  0  0  0  0  0  0
   52.9167    9.6938    9.2229 H   0  0  0  0  0  0  0  0  0  0  0  0
   54.2569   12.9813    9.7139 H   0  0  0  0  0  0  0  0  0  0  0  0
   54.6304   11.2977   10.1311 H   0  0  0  0  0  0  0  0  0  0  0  0
   49.2462    6.7725   18.5220 H   0  0  0  0  0  0  0  0  0  0  0  0
   47.4725   10.5599   17.5489 H   0  0  0  0  0  0  0  0  0  0  0  0
   48.2965    8.9473   19.2422 H   0  0  0  0  0  0  0  0  0  0  0  0
   48.9635   10.5924   13.5135 H   0  0  0  0  0  0  0  0  0  0  0  0
   50.1956   10.1205   14.5798 H   0  0  0  0  0  0  0  0  0  0  0  0
   53.6168    9.8152    9.8596 H   0  0  0  0  0  0  0  0  0  0  0  0
   46.9835    5.1184   14.0210 H   0  0  0  0  0  0  0  0  0  0  0  0
   52.8984    7.8375   13.8600 H   0  0  0  0  0  0  0  0  0  0  0  0
   47.3010    8.5468   11.0552 H   0  0  0  0  0  0  0  0  0  0  0  0
   55.1434    7.0444   12.8978 H   0  0  0  0  0  0  0  0  0  0  0  0
   45.2818    5.1889   11.1437 H   0  0  0  0  0  0  0  0  0  0  0  0
   48.7054   11.5595   11.7674 H   0  0  0  0  0  0  0  0  0  0  0  0
   50.5269    8.8447   16.1038 H   0  0  0  0  0  0  0  0  0  0  0  0
   52.4036   11.3776    8.4998 H   0  0  0  0  0  0  0  0  0  0  0  0
   47.9278    4.6451   16.1689 H   0  0  0  0  0  0  0  0  0  0  0  0
   50.6766    7.3516   18.0060 H   0  0  0  0  0  0  0  0  0  0  0  0
   48.6025   12.8852    9.7431 H   0  0  0  0  0  0  0  0  0  0  0  0
   49.3829    5.2363   18.0574 H   0  0  0  0  0  0  0  0  0  0  0  0
   50.4502   12.8060    8.0863 H   0  0  0  0  0  0  0  0  0  0  0  0
  2  1  1  0
  3 10  1  0
  4  2  1  0
  5  1  1  0
  6  1  1  0
  7  2  1  0
  8  4  2  0
  9  4  1  0
 10  5  1  0
 11  6  1  0
 12 14  2  0
 13  9  2  0
 14  8  1  0
 15 12  1  0
 16  3  1  0
 17 21  1  0
 18 22  1  0
 19  7  2  0
 20  7  1  0
 21 23  1  0
 22 16  1  0
 23 18  1  0
 24 20  2  0
 25 19  1  0
 26 25  2  0
 11  3  1  0
 13 12  1  0
 24 26  1  0
 28 32  2  0
 29 33  1  0
 30 31  1  0
 31 27  2  0
 32 29  1  0
 33 30  1  0
 34 27  1  0
 35 28  1  0
 36 27  1  0
 37 28  1  0
 38 29  2  0
 39 40  1  0
 40 34  2  0
 41 38  1  0
 42 36  2  0
 43 37  2  0
 44 31  1  0
 45 32  1  0
 46 36  1  0
 47 37  1  0
 48 39  1  0
 49 38  1  0
 50 40  1  0
 51 41  1  0
 52 49  2  0
 53 48  2  0
 54 52  1  0
 55 50  2  0
 30 39  2  0
 53 55  1  0
 35 41  2  0
 51 54  2  0
  2 56  1  1
  5 57  1  0
  5 58  1  0
  6 59  1  0
  6 60  1  0
  8 61  1  0
  9 62  1  0
 10 63  1  0
 10 64  1  0
 11 65  1  0
 11 66  1  0
 13 67  1  0
 14 68  1  0
 16 69  1  0
 16 70  1  0
 17 71  1  0
 19 72  1  0
 20 73  1  0
 21 74  1  0
 21 75  1  0
 22 76  1  0
 22 77  1  0
 23 78  1  0
 23 79  1  0
 24 80  1  0
 25 81  1  0
 26 82  1  0
 33 83  1  0
 33 84  1  0
 34 85  1  0
 35 86  1  0
 44 87  1  0
 45 88  1  0
 46 89  1  0
 47 90  1  0
 48 91  1  0
 49 92  1  0
 50 93  1  0
 51 94  1  0
 52 95  1  0
 53 96  1  0
 54 97  1  0
 55 98  1  0
M  END
> <Uni-Dock RESULT> 
ENERGY=   -5.197  LOWER_BOUND=    2.905  UPPER_BOUND=    6.637
INTER + INTRA:          -5.197
INTER:                  -5.197
INTRA:                   0.000
UNBOUND:                 0.000

$$$$

     RDKit          3D

 98103  0  0  0  0  0  0  0  0999 V2000
   49.7031    8.2724   18.3724 N   0  0  0  0  0  0  0  0  0  0  0  0
   50.1121    7.0906   17.5599 C   0  0  1  0  0  0  0  0  0  0  0  0
   49.0230   11.1868   17.6819 N   0  0  0  0  0  0  0  0  0  0  0  0
   51.4593    6.4867   17.9893 C   0  0  0  0  0  0  0  0  0  0  0  0
   48.3537    8.7593   17.9899 C   0  0  0  0  0  0  0  0  0  0  0  0
   50.6822    9.3857   18.3001 C   0  0  0  0  0  0  0  0  0  0  0  0
   49.0541    5.9793   17.5222 C   0  0  0  0  0  0  0  0  0  0  0  0
   52.3319    5.9708   17.0137 C   0  0  0  0  0  0  0  0  0  0  0  0
   51.8350    6.3956   19.3424 C   0  0  0  0  0  0  0  0  0  0  0  0
   48.1079   10.2403   18.3543 C   0  0  0  0  0  0  0  0  0  0  0  0
   50.2957   10.5241   17.3280 C   0  0  0  0  0  0  0  0  0  0  0  0
   53.9093    5.3271   18.7246 C   0  0  0  0  0  0  0  0  0  0  0  0
   53.0562    5.8232   19.7070 C   0  0  0  0  0  0  0  0  0  0  0  0
   53.5521    5.3959   17.3801 C   0  0  0  0  0  0  0  0  0  0  0  0
   55.4152    4.6257   19.1749 Cl  0  0  0  0  0  0  0  0  0  0  0  0
   48.3934   11.8256   16.5154 C   0  0  0  0  0  0  0  0  0  0  0  0
   49.0056   16.2467   14.0353 O   0  0  0  0  0  0  0  0  0  0  0  0
   48.5458   13.5725   14.8044 O   0  0  0  0  0  0  0  0  0  0  0  0
   48.6068    5.4774   16.2881 C   0  0  0  0  0  0  0  0  0  0  0  0
   48.5254    5.4260   18.7013 C   0  0  0  0  0  0  0  0  0  0  0  0
   48.3712   15.9468   15.2779 C   0  0  0  0  0  0  0  0  0  0  0  0
   49.2247   12.9752   15.9154 C   0  0  0  0  0  0  0  0  0  0  0  0
   47.6319   14.6135   15.1767 C   0  0  0  0  0  0  0  0  0  0  0  0
   47.5738    4.4066   18.6474 C   0  0  0  0  0  0  0  0  0  0  0  0
   47.6549    4.4570   16.2375 C   0  0  0  0  0  0  0  0  0  0  0  0
   47.1395    3.9221   17.4160 C   0  0  0  0  0  0  0  0  0  0  0  0
   48.0884   11.7753   17.7478 C   0  0  0  0  0  0  0  0  0  0  0  0
   51.9430    7.0289   17.6274 C   0  0  0  0  0  0  0  0  0  0  0  0
   49.6268    7.5678   17.0196 C   0  0  0  0  0  0  0  0  0  0  0  0
   48.6565    9.8699   16.3084 C   0  0  0  0  0  0  0  0  0  0  0  0
   48.1109   10.3967   17.5017 C   0  0  0  0  0  0  0  0  0  0  0  0
   51.0184    7.7006   16.8157 C   0  0  0  0  0  0  0  0  0  0  0  0
   48.6723    8.3514   16.1146 C   0  0  0  0  0  0  0  0  0  0  0  0
   48.5876   12.6477   16.7786 C   0  0  0  0  0  0  0  0  0  0  0  0
   51.4811    6.1898   18.6421 C   0  0  0  0  0  0  0  0  0  0  0  0
   47.5491   12.3968   18.9845 C   0  0  0  0  0  0  0  0  0  0  0  0
   53.3955    7.2077   17.3984 C   0  0  0  0  0  0  0  0  0  0  0  0
   49.1591    6.6823   18.0474 C   0  0  0  0  0  0  0  0  0  0  0  0
   49.1483   10.7752   15.3095 C   0  0  0  0  0  0  0  0  0  0  0  0
   49.1046   12.1708   15.5691 C   0  0  0  0  0  0  0  0  0  0  0  0
   50.1110    6.0008   18.8533 C   0  0  0  0  0  0  0  0  0  0  0  0
   47.4637   13.5895   19.2108 O   0  0  0  0  0  0  0  0  0  0  0  0
   53.8743    7.9196   16.5311 O   0  0  0  0  0  0  0  0  0  0  0  0
   47.5752    9.5047   18.3953 O   0  0  0  0  0  0  0  0  0  0  0  0
   51.4329    8.4899   15.7714 O   0  0  0  0  0  0  0  0  0  0  0  0
   47.1438   11.4951   19.9024 O   0  0  0  0  0  0  0  0  0  0  0  0
   54.1725    6.5082   18.2423 O   0  0  0  0  0  0  0  0  0  0  0  0
   49.6833   10.3875   14.0547 C   0  0  0  0  0  0  0  0  0  0  0  0
   47.7950    6.4198   18.3318 C   0  0  0  0  0  0  0  0  0  0  0  0
   49.5754   13.0931   14.6184 C   0  0  0  0  0  0  0  0  0  0  0  0
   49.6946    5.1256   19.8718 C   0  0  0  0  0  0  0  0  0  0  0  0
   47.3936    5.5457   19.3474 C   0  0  0  0  0  0  0  0  0  0  0  0
   50.1471   11.3144   13.1159 C   0  0  0  0  0  0  0  0  0  0  0  0
   48.3445    4.8970   20.1179 C   0  0  0  0  0  0  0  0  0  0  0  0
   50.0920   12.6694   13.3976 C   0  0  0  0  0  0  0  0  0  0  0  0
   50.2438    7.4569   16.5305 H   0  0  0  0  0  0  0  0  0  0  0  0
   48.1856    8.6489   16.9095 H   0  0  0  0  0  0  0  0  0  0  0  0
   47.5965    8.1581   18.5052 H   0  0  0  0  0  0  0  0  0  0  0  0
   51.6917    9.0444   18.0471 H   0  0  0  0  0  0  0  0  0  0  0  0
   50.7680    9.8071   19.3111 H   0  0  0  0  0  0  0  0  0  0  0  0
   52.0610    6.0053   15.9604 H   0  0  0  0  0  0  0  0  0  0  0  0
   51.1753    6.7777   20.1199 H   0  0  0  0  0  0  0  0  0  0  0  0
   47.0580   10.4940   18.1647 H   0  0  0  0  0  0  0  0  0  0  0  0
   48.2433   10.3614   19.4372 H   0  0  0  0  0  0  0  0  0  0  0  0
   50.2519   10.1035   16.3137 H   0  0  0  0  0  0  0  0  0  0  0  0
   51.0953   11.2739   17.3325 H   0  0  0  0  0  0  0  0  0  0  0  0
   53.3322    5.7657   20.7561 H   0  0  0  0  0  0  0  0  0  0  0  0
   54.2142    5.0025   16.6141 H   0  0  0  0  0  0  0  0  0  0  0  0
   47.4237   12.2415   16.8147 H   0  0  0  0  0  0  0  0  0  0  0  0
   48.1686   11.0895   15.7324 H   0  0  0  0  0  0  0  0  0  0  0  0
   49.3770   15.4006   13.7189 H   0  0  0  0  0  0  0  0  0  0  0  0
   48.9996    5.8760   15.3557 H   0  0  0  0  0  0  0  0  0  0  0  0
   48.8512    5.7977   19.6704 H   0  0  0  0  0  0  0  0  0  0  0  0
   49.1518   15.9157   16.0450 H   0  0  0  0  0  0  0  0  0  0  0  0
   47.6764   16.7579   15.5167 H   0  0  0  0  0  0  0  0  0  0  0  0
   50.1698   12.5883   15.5217 H   0  0  0  0  0  0  0  0  0  0  0  0
   49.4711   13.7265   16.6733 H   0  0  0  0  0  0  0  0  0  0  0  0
   46.8927   14.6722   14.3706 H   0  0  0  0  0  0  0  0  0  0  0  0
   47.1063   14.3753   16.1068 H   0  0  0  0  0  0  0  0  0  0  0  0
   47.1756    3.9883   19.5680 H   0  0  0  0  0  0  0  0  0  0  0  0
   47.3177    4.0762   15.2773 H   0  0  0  0  0  0  0  0  0  0  0  0
   46.4007    3.1260   17.3756 H   0  0  0  0  0  0  0  0  0  0  0  0
   48.9070    8.0694   15.0843 H   0  0  0  0  0  0  0  0  0  0  0  0
   47.6383    8.0073   16.2087 H   0  0  0  0  0  0  0  0  0  0  0  0
   48.5643   13.7206   16.9698 H   0  0  0  0  0  0  0  0  0  0  0  0
   52.1968    5.6658   19.2727 H   0  0  0  0  0  0  0  0  0  0  0  0
   47.3307    9.9927   19.2085 H   0  0  0  0  0  0  0  0  0  0  0  0
   52.4119    8.5546   15.7713 H   0  0  0  0  0  0  0  0  0  0  0  0
   46.8355   12.0634   20.6444 H   0  0  0  0  0  0  0  0  0  0  0  0
   55.0893    6.7247   17.9720 H   0  0  0  0  0  0  0  0  0  0  0  0
   49.7690    9.3395   13.7826 H   0  0  0  0  0  0  0  0  0  0  0  0
   47.0021    6.9094   17.7739 H   0  0  0  0  0  0  0  0  0  0  0  0
   49.5415   14.1618   14.8220 H   0  0  0  0  0  0  0  0  0  0  0  0
   50.4271    4.6071   20.4876 H   0  0  0  0  0  0  0  0  0  0  0  0
   46.3353    5.3812   19.5318 H   0  0  0  0  0  0  0  0  0  0  0  0
   50.5547   10.9668   12.1700 H   0  0  0  0  0  0  0  0  0  0  0  0
   48.0387    4.2176   20.9085 H   0  0  0  0  0  0  0  0  0  0  0  0
   50.4515   13.3959   12.6743 H   0  0  0  0  0  0  0  0  0  0  0  0
  2  1  1  0
  3 10  1  0
  4  2  1  0
  5  1  1  0
  6  1  1  0
  7  2  1  0
  8  4  2  0
  9  4  1  0
 10  5  1  0
 11  6  1  0
 12 14  2  0
 13  9  2  0
 14  8  1  0
 15 12  1  0
 16  3  1  0
 17 21  1  0
 18 22  1  0
 19  7  2  0
 20  7  1  0
 21 23  1  0
 22 16  1  0
 23 18  1  0
 24 20  2  0
 25 19  1  0
 26 25  2  0
 11  3  1  0
 13 12  1  0
 24 26  1  0
 28 32  2  0
 29 33  1  0
 30 31  1  0
 31 27  2  0
 32 29  1  0
 33 30  1  0
 34 27  1  0
 35 28  1  0
 36 27  1  0
 37 28  1  0
 38 29  2  0
 39 40  1  0
 40 34  2  0
 41 38  1  0
 42 36  2  0
 43 37  2  0
 44 31  1  0
 45 32  1  0
 46 36  1  0
 47 37  1  0
 48 39  1  0
 49 38  1  0
 50 40  1  0
 51 41  1  0
 52 49  2  0
 53 48  2  0
 54 52  1  0
 55 50  2  0
 30 39  2  0
 53 55  1  0
 35 41  2  0
 51 54  2  0
  2 56  1  1
  5 57  1  0
  5 58  1  0
  6 59  1  0
  6 60  1  0
  8 61  1  0
  9 62  1  0
 10 63  1  0
 10 64  1  0
 11 65  1  0
 11 66  1  0
 13 67  1  0
 14 68  1  0
 16 69  1  0
 16 70  1  0
 17 71  1  0
 19 72  1  0
 20 73  1  0
 21 74  1  0
 21 75  1  0
 22 76  1  0
 22 77  1  0
 23 78  1  0
 23 79  1  0
 24 80  1  0
 25 81  1  0
 26 82  1  0
 33 83  1  0
 33 84  1  0
 34 85  1  0
 35 86  1  0
 44 87  1  0
 45 88  1  0
 46 89  1  0
 47 90  1  0
 48 91  1  0
 49 92  1  0
 50 93  1  0
 51 94  1  0
 52 95  1  0
 53 96  1  0
 54 97  1  0
 55 98  1  0
M  END
> <Uni-Dock RESULT> 
ENERGY=   -5.057  LOWER_BOUND=    3.446  UPPER_BOUND=    7.284
INTER + INTRA:          -5.057
INTER:                  -5.057
INTRA:                   0.000
UNBOUND:                 0.000

$$$$

     RDKit          3D

 98103  0  0  0  0  0  0  0  0999 V2000
   50.4827    7.3382   14.7705 N   0  0  0  0  0  0  0  0  0  0  0  0
   49.1701    7.9130   15.1840 C   0  0  1  0  0  0  0  0  0  0  0  0
   53.2934    8.5204   14.4035 N   0  0  0  0  0  0  0  0  0  0  0  0
   48.0581    7.7181   14.1401 C   0  0  0  0  0  0  0  0  0  0  0  0
   51.4973    7.4601   15.8474 C   0  0  0  0  0  0  0  0  0  0  0  0
   51.0021    7.9370   13.5156 C   0  0  0  0  0  0  0  0  0  0  0  0
   48.6777    7.3967   16.5429 C   0  0  0  0  0  0  0  0  0  0  0  0
   47.1007    8.7308   13.9477 C   0  0  0  0  0  0  0  0  0  0  0  0
   47.9415    6.5322   13.3917 C   0  0  0  0  0  0  0  0  0  0  0  0
   52.9522    7.4197   15.3293 C   0  0  0  0  0  0  0  0  0  0  0  0
   52.0846    9.0222   13.7171 C   0  0  0  0  0  0  0  0  0  0  0  0
   45.9773    7.3912   12.2825 C   0  0  0  0  0  0  0  0  0  0  0  0
   46.9090    6.3724   12.4641 C   0  0  0  0  0  0  0  0  0  0  0  0
   46.0667    8.5685   13.0214 C   0  0  0  0  0  0  0  0  0  0  0  0
   44.7082    7.1945   11.1366 Cl  0  0  0  0  0  0  0  0  0  0  0  0
   54.0289    9.6003   15.0804 C   0  0  0  0  0  0  0  0  0  0  0  0
   57.3860   13.1625   13.6270 O   0  0  0  0  0  0  0  0  0  0  0  0
   55.3225   11.6663   14.8343 O   0  0  0  0  0  0  0  0  0  0  0  0
   48.3176    8.3070   17.5513 C   0  0  0  0  0  0  0  0  0  0  0  0
   48.5553    6.0215   16.8074 C   0  0  0  0  0  0  0  0  0  0  0  0
   57.5420   11.7627   13.8563 C   0  0  0  0  0  0  0  0  0  0  0  0
   54.5951   10.6614   14.1180 C   0  0  0  0  0  0  0  0  0  0  0  0
   56.7001   11.3347   15.0574 C   0  0  0  0  0  0  0  0  0  0  0  0
   48.0929    5.5709   18.0447 C   0  0  0  0  0  0  0  0  0  0  0  0
   47.8549    7.8528   18.7880 C   0  0  0  0  0  0  0  0  0  0  0  0
   47.7423    6.4863   19.0340 C   0  0  0  0  0  0  0  0  0  0  0  0
   54.2511    8.3580   14.9332 C   0  0  0  0  0  0  0  0  0  0  0  0
   48.2748    8.3164   13.6360 C   0  0  0  0  0  0  0  0  0  0  0  0
   49.7601    8.4069   15.5880 C   0  0  0  0  0  0  0  0  0  0  0  0
   52.1640    9.3816   15.7219 C   0  0  0  0  0  0  0  0  0  0  0  0
   53.0019    8.2544   15.5580 C   0  0  0  0  0  0  0  0  0  0  0  0
   49.2119    8.9957   14.4267 C   0  0  0  0  0  0  0  0  0  0  0  0
   50.8001    9.1929   16.3909 C   0  0  0  0  0  0  0  0  0  0  0  0
   54.6895    9.6081   14.4919 C   0  0  0  0  0  0  0  0  0  0  0  0
   47.8530    7.0419   14.0166 C   0  0  0  0  0  0  0  0  0  0  0  0
   55.1737    7.2153   14.7106 C   0  0  0  0  0  0  0  0  0  0  0  0
   47.7363    8.9559   12.4132 C   0  0  0  0  0  0  0  0  0  0  0  0
   49.3015    7.1073   15.9877 C   0  0  0  0  0  0  0  0  0  0  0  0
   52.6319   10.6655   15.2837 C   0  0  0  0  0  0  0  0  0  0  0  0
   53.9073   10.7550   14.6654 C   0  0  0  0  0  0  0  0  0  0  0  0
   48.3425    6.4381   15.1799 C   0  0  0  0  0  0  0  0  0  0  0  0
   56.2864    7.2751   14.2212 O   0  0  0  0  0  0  0  0  0  0  0  0
   48.0532   10.0660   12.0190 O   0  0  0  0  0  0  0  0  0  0  0  0
   52.5554    7.0605   16.0643 O   0  0  0  0  0  0  0  0  0  0  0  0
   49.6087   10.2731   14.1167 O   0  0  0  0  0  0  0  0  0  0  0  0
   54.6608    6.0306   15.1021 O   0  0  0  0  0  0  0  0  0  0  0  0
   46.8463    8.2009   11.7476 O   0  0  0  0  0  0  0  0  0  0  0  0
   51.9153   11.8814   15.4215 C   0  0  0  0  0  0  0  0  0  0  0  0
   49.7310    6.4186   17.1505 C   0  0  0  0  0  0  0  0  0  0  0  0
   54.4048   11.9926   14.2215 C   0  0  0  0  0  0  0  0  0  0  0  0
   47.8683    5.1631   15.5353 C   0  0  0  0  0  0  0  0  0  0  0  0
   49.2505    5.1506   17.4937 C   0  0  0  0  0  0  0  0  0  0  0  0
   52.4212   13.1072   14.9775 C   0  0  0  0  0  0  0  0  0  0  0  0
   48.3173    4.5223   16.6856 C   0  0  0  0  0  0  0  0  0  0  0  0
   53.6684   13.1632   14.3777 C   0  0  0  0  0  0  0  0  0  0  0  0
   49.3270    8.9982   15.2797 H   0  0  0  0  0  0  0  0  0  0  0  0
   51.3682    8.3966   16.4077 H   0  0  0  0  0  0  0  0  0  0  0  0
   51.3710    6.6323   16.5540 H   0  0  0  0  0  0  0  0  0  0  0  0
   50.2084    8.3545   12.8868 H   0  0  0  0  0  0  0  0  0  0  0  0
   51.4361    7.1200   12.9230 H   0  0  0  0  0  0  0  0  0  0  0  0
   47.1495    9.6508   14.5269 H   0  0  0  0  0  0  0  0  0  0  0  0
   48.6624    5.7274   13.5267 H   0  0  0  0  0  0  0  0  0  0  0  0
   53.6425    7.3830   16.1807 H   0  0  0  0  0  0  0  0  0  0  0  0
   53.1062    6.4749   14.7916 H   0  0  0  0  0  0  0  0  0  0  0  0
   51.6315    9.8535   14.2750 H   0  0  0  0  0  0  0  0  0  0  0  0
   52.3749    9.4128   12.7349 H   0  0  0  0  0  0  0  0  0  0  0  0
   46.8372    5.4521   11.8914 H   0  0  0  0  0  0  0  0  0  0  0  0
   45.3359    9.3604   12.8850 H   0  0  0  0  0  0  0  0  0  0  0  0
   54.8745    9.1684   15.6293 H   0  0  0  0  0  0  0  0  0  0  0  0
   53.4053   10.0906   15.8395 H   0  0  0  0  0  0  0  0  0  0  0  0
   56.4369   13.3473   13.7648 H   0  0  0  0  0  0  0  0  0  0  0  0
   48.3919    9.3781   17.3793 H   0  0  0  0  0  0  0  0  0  0  0  0
   48.8301    5.2945   16.0463 H   0  0  0  0  0  0  0  0  0  0  0  0
   57.2311   11.2446   12.9432 H   0  0  0  0  0  0  0  0  0  0  0  0
   58.6021   11.5567   14.0331 H   0  0  0  0  0  0  0  0  0  0  0  0
   53.7768   11.1820   13.6110 H   0  0  0  0  0  0  0  0  0  0  0  0
   55.2195   10.2039   13.3432 H   0  0  0  0  0  0  0  0  0  0  0  0
   57.0122   11.9068   15.9377 H   0  0  0  0  0  0  0  0  0  0  0  0
   56.8283   10.2702   15.2775 H   0  0  0  0  0  0  0  0  0  0  0  0
   48.0026    4.5044   18.2332 H   0  0  0  0  0  0  0  0  0  0  0  0
   47.5781    8.5663   19.5594 H   0  0  0  0  0  0  0  0  0  0  0  0
   47.3794    6.1339   19.9959 H   0  0  0  0  0  0  0  0  0  0  0  0
   50.3384   10.1465   16.6625 H   0  0  0  0  0  0  0  0  0  0  0  0
   50.9855    8.7486   17.3730 H   0  0  0  0  0  0  0  0  0  0  0  0
   55.6644    9.6875   14.0107 H   0  0  0  0  0  0  0  0  0  0  0  0
   47.1243    6.5129   13.4053 H   0  0  0  0  0  0  0  0  0  0  0  0
   53.1809    6.3576   15.7925 H   0  0  0  0  0  0  0  0  0  0  0  0
   49.2123   10.5465   13.2619 H   0  0  0  0  0  0  0  0  0  0  0  0
   55.3793    5.3971   14.8763 H   0  0  0  0  0  0  0  0  0  0  0  0
   46.5849    8.7474   10.9772 H   0  0  0  0  0  0  0  0  0  0  0  0
   50.9252   11.9000   15.8677 H   0  0  0  0  0  0  0  0  0  0  0  0
   50.4726    6.8510   17.8159 H   0  0  0  0  0  0  0  0  0  0  0  0
   55.3820   12.0566   13.7466 H   0  0  0  0  0  0  0  0  0  0  0  0
   47.1351    4.6536   14.9127 H   0  0  0  0  0  0  0  0  0  0  0  0
   49.6144    4.6598   18.3925 H   0  0  0  0  0  0  0  0  0  0  0  0
   51.8303   14.0113   15.1002 H   0  0  0  0  0  0  0  0  0  0  0  0
   47.9410    3.5372   16.9467 H   0  0  0  0  0  0  0  0  0  0  0  0
   54.0681   14.1111   14.0288 H   0  0  0  0  0  0  0  0  0  0  0  0
  2  1  1  0
  3 10  1  0
  4  2  1  0
  5  1  1  0
  6  1  1  0
  7  2  1  0
  8  4  2  0
  9  4  1  0
 10  5  1  0
 11  6  1  0
 12 14  2  0
 13  9  2  0
 14  8  1  0
 15 12  1  0
 16  3  1  0
 17 21  1  0
 18 22  1  0
 19  7  2  0
 20  7  1  0
 21 23  1  0
 22 16  1  0
 23 18  1  0
 24 20  2  0
 25 19  1  0
 26 25  2  0
 11  3  1  0
 13 12  1  0
 24 26  1  0
 28 32  2  0
 29 33  1  0
 30 31  1  0
 31 27  2  0
 32 29  1  0
 33 30  1  0
 34 27  1  0
 35 28  1  0
 36 27  1  0
 37 28  1  0
 38 29  2  0
 39 40  1  0
 40 34  2  0
 41 38  1  0
 42 36  2  0
 43 37  2  0
 44 31  1  0
 45 32  1  0
 46 36  1  0
 47 37  1  0
 48 39  1  0
 49 38  1  0
 50 40  1  0
 51 41  1  0
 52 49  2  0
 53 48  2  0
 54 52  1  0
 55 50  2  0
 30 39  2  0
 53 55  1  0
 35 41  2  0
 51 54  2  0
  2 56  1  1
  5 57  1  0
  5 58  1  0
  6 59  1  0
  6 60  1  0
  8 61  1  0
  9 62  1  0
 10 63  1  0
 10 64  1  0
 11 65  1  0
 11 66  1  0
 13 67  1  0
 14 68  1  0
 16 69  1  0
 16 70  1  0
 17 71  1  0
 19 72  1  0
 20 73  1  0
 21 74  1  0
 21 75  1  0
 22 76  1  0
 22 77  1  0
 23 78  1  0
 23 79  1  0
 24 80  1  0
 25 81  1  0
 26 82  1  0
 33 83  1  0
 33 84  1  0
 34 85  1  0
 35 86  1  0
 44 87  1  0
 45 88  1  0
 46 89  1  0
 47 90  1  0
 48 91  1  0
 49 92  1  0
 50 93  1  0
 51 94  1  0
 52 95  1  0
 53 96  1  0
 54 97  1  0
 55 98  1  0
M  END
> <Uni-Dock RESULT> 
ENERGY=   -5.028  LOWER_BOUND=    3.241  UPPER_BOUND=    5.782
INTER + INTRA:          -5.028
INTER:                  -5.028
INTRA:                   0.000
UNBOUND:                 0.000

$$$$

     RDKit          3D

 98103  0  0  0  0  0  0  0  0999 V2000
   51.0106    9.7237   16.0966 N   0  0  0  0  0  0  0  0  0  0  0  0
   49.5363    9.5976   16.2830 C   0  0  1  0  0  0  0  0  0  0  0  0
   53.3698    7.7978   16.4936 N   0  0  0  0  0  0  0  0  0  0  0  0
   48.9511   10.6266   17.2642 C   0  0  0  0  0  0  0  0  0  0  0  0
   51.5151    8.7794   15.0681 C   0  0  0  0  0  0  0  0  0  0  0  0
   51.7666    9.5458   17.3614 C   0  0  0  0  0  0  0  0  0  0  0  0
   48.7470    9.6542   14.9678 C   0  0  0  0  0  0  0  0  0  0  0  0
   47.8978   10.2514   18.1182 C   0  0  0  0  0  0  0  0  0  0  0  0
   49.4116   11.9555   17.3092 C   0  0  0  0  0  0  0  0  0  0  0  0
   53.0180    8.4537   15.2163 C   0  0  0  0  0  0  0  0  0  0  0  0
   52.3941    8.1451   17.5478 C   0  0  0  0  0  0  0  0  0  0  0  0
   47.8127   12.4815   19.0393 C   0  0  0  0  0  0  0  0  0  0  0  0
   48.8482   12.8764   18.1961 C   0  0  0  0  0  0  0  0  0  0  0  0
   47.3333   11.1743   19.0030 C   0  0  0  0  0  0  0  0  0  0  0  0
   47.1223   13.6160   20.1342 Cl  0  0  0  0  0  0  0  0  0  0  0  0
   53.5190    6.3418   16.3412 C   0  0  0  0  0  0  0  0  0  0  0  0
   56.1448    2.6950   18.7655 O   0  0  0  0  0  0  0  0  0  0  0  0
   54.2436    4.2375   17.3654 O   0  0  0  0  0  0  0  0  0  0  0  0
   47.8361    8.6320   14.6511 C   0  0  0  0  0  0  0  0  0  0  0  0
   48.8946   10.7226   14.0662 C   0  0  0  0  0  0  0  0  0  0  0  0
   56.5620    3.6885   17.8299 C   0  0  0  0  0  0  0  0  0  0  0  0
   54.0965    5.6450   17.5876 C   0  0  0  0  0  0  0  0  0  0  0  0
   55.4908    3.8754   16.7565 C   0  0  0  0  0  0  0  0  0  0  0  0
   48.1584   10.7636   12.8813 C   0  0  0  0  0  0  0  0  0  0  0  0
   47.1006    8.6763   13.4649 C   0  0  0  0  0  0  0  0  0  0  0  0
   47.2614    9.7413   12.5815 C   0  0  0  0  0  0  0  0  0  0  0  0
   54.0878    7.3354   15.7901 C   0  0  0  0  0  0  0  0  0  0  0  0
   49.1707   10.2582   17.9534 C   0  0  0  0  0  0  0  0  0  0  0  0
   49.7998    8.7929   16.0875 C   0  0  0  0  0  0  0  0  0  0  0  0
   51.6695    6.9907   16.0321 C   0  0  0  0  0  0  0  0  0  0  0  0
   52.7695    7.6542   15.4411 C   0  0  0  0  0  0  0  0  0  0  0  0
   49.5638    9.0048   17.4641 C   0  0  0  0  0  0  0  0  0  0  0  0
   50.2539    7.4063   15.6235 C   0  0  0  0  0  0  0  0  0  0  0  0
   54.3189    6.3184   16.7186 C   0  0  0  0  0  0  0  0  0  0  0  0
   48.9822   11.3138   17.0605 C   0  0  0  0  0  0  0  0  0  0  0  0
   55.2887    8.0025   15.2250 C   0  0  0  0  0  0  0  0  0  0  0  0
   48.9521   10.4501   19.4059 C   0  0  0  0  0  0  0  0  0  0  0  0
   49.5778    9.8757   15.1724 C   0  0  0  0  0  0  0  0  0  0  0  0
   51.9174    5.9331   16.9699 C   0  0  0  0  0  0  0  0  0  0  0  0
   53.2607    5.6128   17.3015 C   0  0  0  0  0  0  0  0  0  0  0  0
   49.1685   11.1364   15.6852 C   0  0  0  0  0  0  0  0  0  0  0  0
   56.4477    7.7174   15.4629 O   0  0  0  0  0  0  0  0  0  0  0  0
   49.0928    9.5765   20.2456 O   0  0  0  0  0  0  0  0  0  0  0  0
   52.4940    8.6014   14.4881 O   0  0  0  0  0  0  0  0  0  0  0  0
   49.7042    7.9275   18.3039 O   0  0  0  0  0  0  0  0  0  0  0  0
   54.9914    9.0157   14.3854 O   0  0  0  0  0  0  0  0  0  0  0  0
   48.5769   11.6954   19.7428 O   0  0  0  0  0  0  0  0  0  0  0  0
   50.9132    5.1598   17.6059 C   0  0  0  0  0  0  0  0  0  0  0  0
   49.7319    9.7919   13.7653 C   0  0  0  0  0  0  0  0  0  0  0  0
   53.5489    4.5840   18.2150 C   0  0  0  0  0  0  0  0  0  0  0  0
   48.9418   12.2234   14.8227 C   0  0  0  0  0  0  0  0  0  0  0  0
   49.5020   10.8806   12.9177 C   0  0  0  0  0  0  0  0  0  0  0  0
   51.2121    4.1373   18.5119 C   0  0  0  0  0  0  0  0  0  0  0  0
   49.1056   12.0978   13.4469 C   0  0  0  0  0  0  0  0  0  0  0  0
   52.5321    3.8481   18.8161 C   0  0  0  0  0  0  0  0  0  0  0  0
   49.3671    8.6052   16.7277 H   0  0  0  0  0  0  0  0  0  0  0  0
   50.9630    7.8297   15.0990 H   0  0  0  0  0  0  0  0  0  0  0  0
   51.3642    9.2171   14.0751 H   0  0  0  0  0  0  0  0  0  0  0  0
   51.1660    9.7750   18.2483 H   0  0  0  0  0  0  0  0  0  0  0  0
   52.5743   10.2906   17.3629 H   0  0  0  0  0  0  0  0  0  0  0  0
   47.5036    9.2375   18.0921 H   0  0  0  0  0  0  0  0  0  0  0  0
   50.2189   12.2769   16.6530 H   0  0  0  0  0  0  0  0  0  0  0  0
   53.3501    7.8605   14.3558 H   0  0  0  0  0  0  0  0  0  0  0  0
   53.5867    9.3911   15.1577 H   0  0  0  0  0  0  0  0  0  0  0  0
   51.5778    7.4104   17.5862 H   0  0  0  0  0  0  0  0  0  0  0  0
   52.9010    8.1158   18.5192 H   0  0  0  0  0  0  0  0  0  0  0  0
   49.2195   13.8970   18.2207 H   0  0  0  0  0  0  0  0  0  0  0  0
   46.5208   10.8681   19.6556 H   0  0  0  0  0  0  0  0  0  0  0  0
   54.1981    6.1369   15.5047 H   0  0  0  0  0  0  0  0  0  0  0  0
   52.5654    5.8712   16.0679 H   0  0  0  0  0  0  0  0  0  0  0  0
   55.1943    2.8600   18.9178 H   0  0  0  0  0  0  0  0  0  0  0  0
   47.6901    7.7941   15.3287 H   0  0  0  0  0  0  0  0  0  0  0  0
   49.5952   11.5257   14.2843 H   0  0  0  0  0  0  0  0  0  0  0  0
   56.7349    4.6135   18.3896 H   0  0  0  0  0  0  0  0  0  0  0  0
   57.5073    3.3672   17.3820 H   0  0  0  0  0  0  0  0  0  0  0  0
   53.4046    5.7490   18.4293 H   0  0  0  0  0  0  0  0  0  0  0  0
   55.0478    6.0949   17.8908 H   0  0  0  0  0  0  0  0  0  0  0  0
   55.3167    2.9190   16.2516 H   0  0  0  0  0  0  0  0  0  0  0  0
   55.8005    4.6081   16.0048 H   0  0  0  0  0  0  0  0  0  0  0  0
   48.2830   11.5972   12.1951 H   0  0  0  0  0  0  0  0  0  0  0  0
   46.3982    7.8808   13.2316 H   0  0  0  0  0  0  0  0  0  0  0  0
   46.6865    9.7763   11.6598 H   0  0  0  0  0  0  0  0  0  0  0  0
   49.4993    6.6928   15.9666 H   0  0  0  0  0  0  0  0  0  0  0  0
   50.1893    7.2926   14.5376 H   0  0  0  0  0  0  0  0  0  0  0  0
   55.3459    6.0682   16.9849 H   0  0  0  0  0  0  0  0  0  0  0  0
   48.6756   12.2875   17.4376 H   0  0  0  0  0  0  0  0  0  0  0  0
   53.3323    9.0446   14.2432 H   0  0  0  0  0  0  0  0  0  0  0  0
   49.5777    8.2121   19.2343 H   0  0  0  0  0  0  0  0  0  0  0  0
   55.8796    9.3463   14.1201 H   0  0  0  0  0  0  0  0  0  0  0  0
   48.4727   11.6677   20.7169 H   0  0  0  0  0  0  0  0  0  0  0  0
   49.8598    5.3500   17.4219 H   0  0  0  0  0  0  0  0  0  0  0  0
   50.0558    8.8700   13.2910 H   0  0  0  0  0  0  0  0  0  0  0  0
   54.5798    4.3428   18.4676 H   0  0  0  0  0  0  0  0  0  0  0  0
   48.6301   13.1876   15.2201 H   0  0  0  0  0  0  0  0  0  0  0  0
   49.6393   10.7692   11.8454 H   0  0  0  0  0  0  0  0  0  0  0  0
   50.4061    3.5768   18.9785 H   0  0  0  0  0  0  0  0  0  0  0  0
   48.9263   12.9470   12.7937 H   0  0  0  0  0  0  0  0  0  0  0  0
   52.7728    3.0563   19.5198 H   0  0  0  0  0  0  0  0  0  0  0  0
  2  1  1  0
  3 10  1  0
  4  2  1  0
  5  1  1  0
  6  1  1  0
  7  2  1  0
  8  4  2  0
  9  4  1  0
 10  5  1  0
 11  6  1  0
 12 14  2  0
 13  9  2  0
 14  8  1  0
 15 12  1  0
 16  3  1  0
 17 21  1  0
 18 22  1  0
 19  7  2  0
 20  7  1  0
 21 23  1  0
 22 16  1  0
 23 18  1  0
 24 20  2  0
 25 19  1  0
 26 25  2  0
 11  3  1  0
 13 12  1  0
 24 26  1  0
 28 32  2  0
 29 33  1  0
 30 31  1  0
 31 27  2  0
 32 29  1  0
 33 30  1  0
 34 27  1  0
 35 28  1  0
 36 27  1  0
 37 28  1  0
 38 29  2  0
 39 40  1  0
 40 34  2  0
 41 38  1  0
 42 36  2  0
 43 37  2  0
 44 31  1  0
 45 32  1  0
 46 36  1  0
 47 37  1  0
 48 39  1  0
 49 38  1  0
 50 40  1  0
 51 41  1  0
 52 49  2  0
 53 48  2  0
 54 52  1  0
 55 50  2  0
 30 39  2  0
 53 55  1  0
 35 41  2  0
 51 54  2  0
  2 56  1  1
  5 57  1  0
  5 58  1  0
  6 59  1  0
  6 60  1  0
  8 61  1  0
  9 62  1  0
 10 63  1  0
 10 64  1  0
 11 65  1  0
 11 66  1  0
 13 67  1  0
 14 68  1  0
 16 69  1  0
 16 70  1  0
 17 71  1  0
 19 72  1  0
 20 73  1  0
 21 74  1  0
 21 75  1  0
 22 76  1  0
 22 77  1  0
 23 78  1  0
 23 79  1  0
 24 80  1  0
 25 81  1  0
 26 82  1  0
 33 83  1  0
 33 84  1  0
 34 85  1  0
 35 86  1  0
 44 87  1  0
 45 88  1  0
 46 89  1  0
 47 90  1  0
 48 91  1  0
 49 92  1  0
 50 93  1  0
 51 94  1  0
 52 95  1  0
 53 96  1  0
 54 97  1  0
 55 98  1  0
M  END
> <Uni-Dock RESULT> 
ENERGY=   -5.002  LOWER_BOUND=    2.860  UPPER_BOUND=    5.493
INTER + INTRA:          -5.002
INTER:                  -5.002
INTRA:                   0.000
UNBOUND:                 0.000

$$$$

     RDKit          3D

 98103  0  0  0  0  0  0  0  0999 V2000
   50.0920    9.2988   18.9832 N   0  0  0  0  0  0  0  0  0  0  0  0
   48.7056    9.1334   19.5073 C   0  0  1  0  0  0  0  0  0  0  0  0
   51.3464    9.0494   16.1909 N   0  0  0  0  0  0  0  0  0  0  0  0
   48.5901    8.0731   20.6147 C   0  0  0  0  0  0  0  0  0  0  0  0
   50.1744   10.3997   17.9905 C   0  0  0  0  0  0  0  0  0  0  0  0
   50.6379    8.0484   18.3987 C   0  0  0  0  0  0  0  0  0  0  0  0
   48.0788   10.4444   20.0016 C   0  0  0  0  0  0  0  0  0  0  0  0
   47.4434    7.2607   20.6819 C   0  0  0  0  0  0  0  0  0  0  0  0
   49.5849    7.9135   21.5970 C   0  0  0  0  0  0  0  0  0  0  0  0
   51.3737   10.2693   17.0254 C   0  0  0  0  0  0  0  0  0  0  0  0
   50.5779    7.9763   16.8555 C   0  0  0  0  0  0  0  0  0  0  0  0
   48.3067    6.1560   22.6474 C   0  0  0  0  0  0  0  0  0  0  0  0
   49.4456    6.9561   22.6049 C   0  0  0  0  0  0  0  0  0  0  0  0
   47.3040    6.3052   21.6923 C   0  0  0  0  0  0  0  0  0  0  0  0
   48.1382    4.9742   23.8874 Cl  0  0  0  0  0  0  0  0  0  0  0  0
   50.8474    9.3227   14.8338 C   0  0  0  0  0  0  0  0  0  0  0  0
   51.4980    7.1961   10.2374 O   0  0  0  0  0  0  0  0  0  0  0  0
   50.5295    8.4742   12.5575 O   0  0  0  0  0  0  0  0  0  0  0  0
   46.8261   10.8520   19.5120 C   0  0  0  0  0  0  0  0  0  0  0  0
   48.7192   11.2521   20.9574 C   0  0  0  0  0  0  0  0  0  0  0  0
   52.3489    8.0421   11.0099 C   0  0  0  0  0  0  0  0  0  0  0  0
   51.0060    8.1354   13.8653 C   0  0  0  0  0  0  0  0  0  0  0  0
   51.5159    9.1031   11.7275 C   0  0  0  0  0  0  0  0  0  0  0  0
   48.1276   12.4342   21.4049 C   0  0  0  0  0  0  0  0  0  0  0  0
   46.2365   12.0351   19.9622 C   0  0  0  0  0  0  0  0  0  0  0  0
   46.8866   12.8248   20.9079 C   0  0  0  0  0  0  0  0  0  0  0  0
   51.8179    9.7845   15.5115 C   0  0  0  0  0  0  0  0  0  0  0  0
   48.5958    7.4159   20.1383 C   0  0  0  0  0  0  0  0  0  0  0  0
   48.5971    9.3941   18.6854 C   0  0  0  0  0  0  0  0  0  0  0  0
   49.4860    9.5884   16.2526 C   0  0  0  0  0  0  0  0  0  0  0  0
   50.7899   10.1142   16.4036 C   0  0  0  0  0  0  0  0  0  0  0  0
   48.4191    8.0062   18.8793 C   0  0  0  0  0  0  0  0  0  0  0  0
   48.4158    9.9700   17.2785 C   0  0  0  0  0  0  0  0  0  0  0  0
   51.5387    8.9432   14.4326 C   0  0  0  0  0  0  0  0  0  0  0  0
   48.9286    8.2181   21.2304 C   0  0  0  0  0  0  0  0  0  0  0  0
   53.2128   10.2835   15.6194 C   0  0  0  0  0  0  0  0  0  0  0  0
   48.4213    5.9539   20.3011 C   0  0  0  0  0  0  0  0  0  0  0  0
   48.9128   10.2165   19.8182 C   0  0  0  0  0  0  0  0  0  0  0  0
   49.2036    8.7412   15.1292 C   0  0  0  0  0  0  0  0  0  0  0  0
   50.2541    8.4288   14.2260 C   0  0  0  0  0  0  0  0  0  0  0  0
   49.0771    9.6022   21.0893 C   0  0  0  0  0  0  0  0  0  0  0  0
   54.1175   10.0627   14.8358 O   0  0  0  0  0  0  0  0  0  0  0  0
   48.1278    5.1897   19.3967 O   0  0  0  0  0  0  0  0  0  0  0  0
   50.9996   10.9860   17.4415 O   0  0  0  0  0  0  0  0  0  0  0  0
   48.0359    7.2590   17.7928 O   0  0  0  0  0  0  0  0  0  0  0  0
   53.4271   11.0370   16.7177 O   0  0  0  0  0  0  0  0  0  0  0  0
   48.6170    5.5160   21.5561 O   0  0  0  0  0  0  0  0  0  0  0  0
   47.9355    8.1791   14.8344 C   0  0  0  0  0  0  0  0  0  0  0  0
   49.0748   11.6246   19.7774 C   0  0  0  0  0  0  0  0  0  0  0  0
   50.0217    7.6031   13.1123 C   0  0  0  0  0  0  0  0  0  0  0  0
   49.3880   10.3717   22.2242 C   0  0  0  0  0  0  0  0  0  0  0  0
   49.3831   12.3791   20.9141 C   0  0  0  0  0  0  0  0  0  0  0  0
   47.7158    7.3603   13.7222 C   0  0  0  0  0  0  0  0  0  0  0  0
   49.5391   11.7521   22.1394 C   0  0  0  0  0  0  0  0  0  0  0  0
   48.7602    7.0728   12.8591 C   0  0  0  0  0  0  0  0  0  0  0  0
   48.0989    8.7749   18.6620 H   0  0  0  0  0  0  0  0  0  0  0  0
   49.2605   10.4524   17.3824 H   0  0  0  0  0  0  0  0  0  0  0  0
   50.2739   11.3533   18.5206 H   0  0  0  0  0  0  0  0  0  0  0  0
   50.1614    7.1494   18.8045 H   0  0  0  0  0  0  0  0  0  0  0  0
   51.6897    7.9789   18.7085 H   0  0  0  0  0  0  0  0  0  0  0  0
   46.6455    7.3746   19.9508 H   0  0  0  0  0  0  0  0  0  0  0  0
   50.4788    8.5350   21.5759 H   0  0  0  0  0  0  0  0  0  0  0  0
   51.4482   11.1744   16.4107 H   0  0  0  0  0  0  0  0  0  0  0  0
   52.2981   10.2451   17.6172 H   0  0  0  0  0  0  0  0  0  0  0  0
   49.5211    8.0051   16.5557 H   0  0  0  0  0  0  0  0  0  0  0  0
   50.9781    7.0074   16.5352 H   0  0  0  0  0  0  0  0  0  0  0  0
   50.2259    6.8433   23.3522 H   0  0  0  0  0  0  0  0  0  0  0  0
   46.4123    5.6861   21.7295 H   0  0  0  0  0  0  0  0  0  0  0  0
   51.4029   10.1689   14.4115 H   0  0  0  0  0  0  0  0  0  0  0  0
   49.7968    9.6409   14.8533 H   0  0  0  0  0  0  0  0  0  0  0  0
   50.7110    7.0368   10.7934 H   0  0  0  0  0  0  0  0  0  0  0  0
   46.2979   10.2482   18.7779 H   0  0  0  0  0  0  0  0  0  0  0  0
   49.6911   10.9625   21.3509 H   0  0  0  0  0  0  0  0  0  0  0  0
   52.8862    7.4055   11.7204 H   0  0  0  0  0  0  0  0  0  0  0  0
   53.0755    8.5091   10.3380 H   0  0  0  0  0  0  0  0  0  0  0  0
   50.3946    7.2926   14.2025 H   0  0  0  0  0  0  0  0  0  0  0  0
   52.0442    7.7892   13.8260 H   0  0  0  0  0  0  0  0  0  0  0  0
   50.9614    9.6877   10.9855 H   0  0  0  0  0  0  0  0  0  0  0  0
   52.1480    9.7885   12.3008 H   0  0  0  0  0  0  0  0  0  0  0  0
   48.6349   13.0470   22.1453 H   0  0  0  0  0  0  0  0  0  0  0  0
   45.2670   12.3392   19.5774 H   0  0  0  0  0  0  0  0  0  0  0  0
   46.4257   13.7441   21.2598 H   0  0  0  0  0  0  0  0  0  0  0  0
   47.4105    9.6931   16.9483 H   0  0  0  0  0  0  0  0  0  0  0  0
   48.3545   11.0620   17.2840 H   0  0  0  0  0  0  0  0  0  0  0  0
   52.3390    8.6921   13.7363 H   0  0  0  0  0  0  0  0  0  0  0  0
   49.0648    7.7626   22.2094 H   0  0  0  0  0  0  0  0  0  0  0  0
   51.9571   11.1872   17.4859 H   0  0  0  0  0  0  0  0  0  0  0  0
   48.0074    6.3089   18.0357 H   0  0  0  0  0  0  0  0  0  0  0  0
   54.3808   11.2675   16.6408 H   0  0  0  0  0  0  0  0  0  0  0  0
   48.4694    4.5483   21.5067 H   0  0  0  0  0  0  0  0  0  0  0  0
   47.0816    8.3536   15.4826 H   0  0  0  0  0  0  0  0  0  0  0  0
   48.9810   12.1725   18.8443 H   0  0  0  0  0  0  0  0  0  0  0  0
   50.8300    7.3648   12.4234 H   0  0  0  0  0  0  0  0  0  0  0  0
   49.5146    9.8967   23.1953 H   0  0  0  0  0  0  0  0  0  0  0  0
   49.5035   13.4560   20.8317 H   0  0  0  0  0  0  0  0  0  0  0  0
   46.7262    6.9479   13.5426 H   0  0  0  0  0  0  0  0  0  0  0  0
   49.7792   12.3328   23.0255 H   0  0  0  0  0  0  0  0  0  0  0  0
   48.5982    6.4365   11.9936 H   0  0  0  0  0  0  0  0  0  0  0  0
  2  1  1  0
  3 10  1  0
  4  2  1  0
  5  1  1  0
  6  1  1  0
  7  2  1  0
  8  4  2  0
  9  4  1  0
 10  5  1  0
 11  6  1  0
 12 14  2  0
 13  9  2  0
 14  8  1  0
 15 12  1  0
 16  3  1  0
 17 21  1  0
 18 22  1  0
 19  7  2  0
 20  7  1  0
 21 23  1  0
 22 16  1  0
 23 18  1  0
 24 20  2  0
 25 19  1  0
 26 25  2  0
 11  3  1  0
 13 12  1  0
 24 26  1  0
 28 32  2  0
 29 33  1  0
 30 31  1  0
 31 27  2  0
 32 29  1  0
 33 30  1  0
 34 27  1  0
 35 28  1  0
 36 27  1  0
 37 28  1  0
 38 29  2  0
 39 40  1  0
 40 34  2  0
 41 38  1  0
 42 36  2  0
 43 37  2  0
 44 31  1  0
 45 32  1  0
 46 36  1  0
 47 37  1  0
 48 39  1  0
 49 38  1  0
 50 40  1  0
 51 41  1  0
 52 49  2  0
 53 48  2  0
 54 52  1  0
 55 50  2  0
 30 39  2  0
 53 55  1  0
 35 41  2  0
 51 54  2  0
  2 56  1  1
  5 57  1  0
  5 58  1  0
  6 59  1  0
  6 60  1  0
  8 61  1  0
  9 62  1  0
 10 63  1  0
 10 64  1  0
 11 65  1  0
 11 66  1  0
 13 67  1  0
 14 68  1  0
 16 69  1  0
 16 70  1  0
 17 71  1  0
 19 72  1  0
 20 73  1  0
 21 74  1  0
 21 75  1  0
 22 76  1  0
 22 77  1  0
 23 78  1  0
 23 79  1  0
 24 80  1  0
 25 81  1  0
 26 82  1  0
 33 83  1  0
 33 84  1  0
 34 85  1  0
 35 86  1  0
 44 87  1  0
 45 88  1  0
 46 89  1  0
 47 90  1  0
 48 91  1  0
 49 92  1  0
 50 93  1  0
 51 94  1  0
 52 95  1  0
 53 96  1  0
 54 97  1  0
 55 98  1  0
M  END
> <Uni-Dock RESULT> 
ENERGY=   -4.943  LOWER_BOUND=    3.416  UPPER_BOUND=    7.373
INTER + INTRA:          -4.943
INTER:                  -4.943
INTRA:                   0.000
UNBOUND:                 0.000

$$$$
