
     RDKit          3D

 43 42  0  0  0  0  0  0  0  0999 V2000
   -0.7356   -0.9963   -0.4139 C   0  0  0  0  0  0  0  0  0  0  0  0
   -3.1369   -0.4995   -0.6510 N   0  0  0  0  0  0  0  0  0  0  0  0
    0.6625   -0.4533   -0.2261 C   0  0  0  0  0  0  0  0  0  0  0  0
   -1.8395    0.0706   -0.2610 C   0  0  1  0  0  0  0  0  0  0  0  0
    1.3804   -0.7261    0.9461 C   0  0  0  0  0  0  0  0  0  0  0  0
    1.2587    0.3361   -1.2194 C   0  0  0  0  0  0  0  0  0  0  0  0
   -1.9514    0.5886    1.1734 C   0  0  0  0  0  0  0  0  0  0  0  0
    2.5466    0.8440   -1.0417 C   0  0  0  0  0  0  0  0  0  0  0  0
    2.6680   -0.2170    1.1220 C   0  0  0  0  0  0  0  0  0  0  0  0
    3.2505    0.5679    0.1288 C   0  0  0  0  0  0  0  0  0  0  0  0
    2.7935    0.7100   -0.2621 C   0  0  0  0  0  0  0  0  0  0  0  0
   -2.6633    0.4146    0.5390 C   0  0  0  0  0  0  0  0  0  0  0  0
    2.8168    1.6604    0.5003 O   0  0  0  0  0  0  0  0  0  0  0  0
   -2.5688    0.8989   -0.5753 O   0  0  0  0  0  0  0  0  0  0  0  0
   -3.5942    0.8622    1.4043 O   0  0  0  0  0  0  0  0  0  0  0  0
    3.8289    0.4714   -1.0913 O   0  0  0  0  0  0  0  0  0  0  0  0
   -1.8524   -0.7133    1.1202 C   0  0  0  0  0  0  0  0  0  0  0  0
    1.7068   -0.3198   -0.4128 C   0  0  0  0  0  0  0  0  0  0  0  0
    0.4824    0.0249    0.4337 C   0  0  0  0  0  0  0  0  0  0  0  0
   -0.6104   -1.0383    0.2904 C   0  0  0  0  0  0  0  0  0  0  0  0
   -0.9110   -1.8244    0.2860 H   0  0  0  0  0  0  0  0  0  0  0  0
   -0.7847   -1.4435   -1.4165 H   0  0  0  0  0  0  0  0  0  0  0  0
   -3.1078   -0.7742   -1.6323 H   0  0  0  0  0  0  0  0  0  0  0  0
   -3.8590    0.2165   -0.5770 H   0  0  0  0  0  0  0  0  0  0  0  0
   -1.6316    0.9197   -0.9232 H   0  0  0  0  0  0  0  0  0  0  0  0
    0.9391   -1.3356    1.7317 H   0  0  0  0  0  0  0  0  0  0  0  0
    0.7237    0.5575   -2.1400 H   0  0  0  0  0  0  0  0  0  0  0  0
   -1.0340    1.0999    1.4820 H   0  0  0  0  0  0  0  0  0  0  0  0
   -2.7693    1.3122    1.2671 H   0  0  0  0  0  0  0  0  0  0  0  0
   -2.1401   -0.2264    1.8812 H   0  0  0  0  0  0  0  0  0  0  0  0
    3.0014    1.4541   -1.8175 H   0  0  0  0  0  0  0  0  0  0  0  0
    3.2166   -0.4336    2.0349 H   0  0  0  0  0  0  0  0  0  0  0  0
    4.2534    0.9630    0.2665 H   0  0  0  0  0  0  0  0  0  0  0  0
   -4.0516    1.5765    0.9130 H   0  0  0  0  0  0  0  0  0  0  0  0
    4.4580    1.1982   -0.8992 H   0  0  0  0  0  0  0  0  0  0  0  0
   -2.5018   -1.5951    1.1556 H   0  0  0  0  0  0  0  0  0  0  0  0
   -1.5604   -0.4540    2.1438 H   0  0  0  0  0  0  0  0  0  0  0  0
    1.4219   -0.3669   -1.4698 H   0  0  0  0  0  0  0  0  0  0  0  0
    2.1127   -1.2906   -0.1083 H   0  0  0  0  0  0  0  0  0  0  0  0
    0.7745    0.1107    1.4879 H   0  0  0  0  0  0  0  0  0  0  0  0
    0.0992    1.0078    0.1344 H   0  0  0  0  0  0  0  0  0  0  0  0
   -0.8808   -1.1542   -0.7662 H   0  0  0  0  0  0  0  0  0  0  0  0
   -0.2110   -2.0033    0.6257 H   0  0  0  0  0  0  0  0  0  0  0  0
  2  4  1  0
  3  1  1  0
  4  1  1  0
  5  3  2  0
  6  3  1  0
  7  4  1  0
  8  6  2  0
  9  5  1  0
 10  8  1  0
 10  9  2  0
 12 17  1  0
 13 11  2  0
 14 12  2  0
 15 12  1  0
 16 11  1  0
 17 20  1  0
 18 11  1  0
 19 18  1  0
 20 19  1  0
  1 21  1  0
  1 22  1  0
  2 23  1  0
  2 24  1  0
  4 25  1  6
  5 26  1  0
  6 27  1  0
  7 28  1  0
  7 29  1  0
  7 30  1  0
  8 31  1  0
  9 32  1  0
 10 33  1  0
 15 34  1  0
 16 35  1  0
 17 36  1  0
 17 37  1  0
 18 38  1  0
 18 39  1  0
 19 40  1  0
 19 41  1  0
 20 42  1  0
 20 43  1  0
M  END
$$$$
