
     RDKit          3D

 43 42  0  0  0  0  0  0  0  0999 V2000
   -0.7244   -0.0322    1.0893 C   0  0  0  0  0  0  0  0  0  0  0  0
   -3.0523   -0.8420    0.8484 N   0  0  0  0  0  0  0  0  0  0  0  0
    0.6521    0.0758    0.4765 C   0  0  0  0  0  0  0  0  0  0  0  0
   -1.7927   -0.5997    0.1298 C   0  0  1  0  0  0  0  0  0  0  0  0
    1.1862    1.3269    0.1395 C   0  0  0  0  0  0  0  0  0  0  0  0
    1.4138   -1.0755    0.2324 C   0  0  0  0  0  0  0  0  0  0  0  0
   -2.0834    0.3428   -1.0386 C   0  0  0  0  0  0  0  0  0  0  0  0
    2.6832   -0.9766   -0.3393 C   0  0  0  0  0  0  0  0  0  0  0  0
    2.4558    1.4236   -0.4323 C   0  0  0  0  0  0  0  0  0  0  0  0
    3.2037    0.2725   -0.6718 C   0  0  0  0  0  0  0  0  0  0  0  0
    2.3545    0.1107   -0.2207 C   0  0  0  0  0  0  0  0  0  0  0  0
   -2.3427    1.2849    0.6469 C   0  0  0  0  0  0  0  0  0  0  0  0
    2.3152    1.3207   -0.3666 O   0  0  0  0  0  0  0  0  0  0  0  0
   -2.4345    1.4747    1.8471 O   0  0  0  0  0  0  0  0  0  0  0  0
   -3.1610    1.9239   -0.2126 O   0  0  0  0  0  0  0  0  0  0  0  0
    3.3127   -0.4669    0.5258 O   0  0  0  0  0  0  0  0  0  0  0  0
   -1.3817    0.3735   -0.0692 C   0  0  0  0  0  0  0  0  0  0  0  0
    1.3867   -0.8803   -0.8002 C   0  0  0  0  0  0  0  0  0  0  0  0
    0.4166   -1.4242    0.2441 C   0  0  0  0  0  0  0  0  0  0  0  0
   -0.4767   -0.3720    0.9109 C   0  0  0  0  0  0  0  0  0  0  0  0
   -0.6422   -0.6752    1.9765 H   0  0  0  0  0  0  0  0  0  0  0  0
   -1.0419    0.9493    1.4664 H   0  0  0  0  0  0  0  0  0  0  0  0
   -3.4017    0.0330    1.2379 H   0  0  0  0  0  0  0  0  0  0  0  0
   -2.8814   -1.4587    1.6418 H   0  0  0  0  0  0  0  0  0  0  0  0
   -1.4550   -1.5602   -0.2768 H   0  0  0  0  0  0  0  0  0  0  0  0
    0.6156    2.2357    0.3167 H   0  0  0  0  0  0  0  0  0  0  0  0
    1.0227   -2.0580    0.4873 H   0  0  0  0  0  0  0  0  0  0  0  0
   -1.1987    0.4747   -1.6698 H   0  0  0  0  0  0  0  0  0  0  0  0
   -2.4009    1.3316   -0.6889 H   0  0  0  0  0  0  0  0  0  0  0  0
   -2.8778   -0.0597   -1.6776 H   0  0  0  0  0  0  0  0  0  0  0  0
    3.2661   -1.8748   -0.5254 H   0  0  0  0  0  0  0  0  0  0  0  0
    2.8613    2.3980   -0.6918 H   0  0  0  0  0  0  0  0  0  0  0  0
    4.1919    0.3488   -1.1173 H   0  0  0  0  0  0  0  0  0  0  0  0
   -3.7199    2.4844    0.3656 H   0  0  0  0  0  0  0  0  0  0  0  0
    3.8549    0.2849    0.8450 H   0  0  0  0  0  0  0  0  0  0  0  0
   -1.9658   -0.3451   -0.6544 H   0  0  0  0  0  0  0  0  0  0  0  0
   -0.7825    0.9887   -0.7479 H   0  0  0  0  0  0  0  0  0  0  0  0
    0.8550   -0.4030   -1.6302 H   0  0  0  0  0  0  0  0  0  0  0  0
    1.9633   -1.7002   -1.2446 H   0  0  0  0  0  0  0  0  0  0  0  0
   -0.2185   -2.1829   -0.2293 H   0  0  0  0  0  0  0  0  0  0  0  0
    0.9829   -1.9390    1.0304 H   0  0  0  0  0  0  0  0  0  0  0  0
    0.1384    0.3467    1.4663 H   0  0  0  0  0  0  0  0  0  0  0  0
   -1.0968   -0.8797    1.6611 H   0  0  0  0  0  0  0  0  0  0  0  0
  2  4  1  0
  3  1  1  0
  4  1  1  0
  5  3  2  0
  6  3  1  0
  7  4  1  0
  8  6  2  0
  9  5  1  0
 10  8  1  0
 10  9  2  0
 12 17  1  0
 13 11  2  0
 14 12  2  0
 15 12  1  0
 16 11  1  0
 17 20  1  0
 18 11  1  0
 19 18  1  0
 20 19  1  0
  1 21  1  0
  1 22  1  0
  2 23  1  0
  2 24  1  0
  4 25  1  6
  5 26  1  0
  6 27  1  0
  7 28  1  0
  7 29  1  0
  7 30  1  0
  8 31  1  0
  9 32  1  0
 10 33  1  0
 15 34  1  0
 16 35  1  0
 17 36  1  0
 17 37  1  0
 18 38  1  0
 18 39  1  0
 19 40  1  0
 19 41  1  0
 20 42  1  0
 20 43  1  0
M  END
$$$$
