
     RDKit          3D

 43 42  0  0  0  0  0  0  0  0999 V2000
   -0.7778    0.4459   -0.9536 C   0  0  0  0  0  0  0  0  0  0  0  0
   -3.0732    1.0865   -0.2801 N   0  0  0  0  0  0  0  0  0  0  0  0
    0.6266    0.1063   -0.5127 C   0  0  0  0  0  0  0  0  0  0  0  0
   -1.7826    0.5813    0.2108 C   0  0  1  0  0  0  0  0  0  0  0  0
    1.1526   -1.1741   -0.7320 C   0  0  0  0  0  0  0  0  0  0  0  0
    1.4229    1.0669    0.1262 C   0  0  0  0  0  0  0  0  0  0  0  0
   -2.0303   -0.7495    0.9219 C   0  0  0  0  0  0  0  0  0  0  0  0
    2.7184    0.7517    0.5391 C   0  0  0  0  0  0  0  0  0  0  0  0
    2.4483   -1.4873   -0.3181 C   0  0  0  0  0  0  0  0  0  0  0  0
    3.2305   -0.5250    0.3173 C   0  0  0  0  0  0  0  0  0  0  0  0
    3.1755   -0.2169    0.1681 C   0  0  0  0  0  0  0  0  0  0  0  0
   -3.1249    0.0259   -0.1780 C   0  0  0  0  0  0  0  0  0  0  0  0
    3.8767   -0.6361   -0.7369 O   0  0  0  0  0  0  0  0  0  0  0  0
   -3.4378   -0.9082    0.5392 O   0  0  0  0  0  0  0  0  0  0  0  0
   -4.0695    0.7695   -0.7870 O   0  0  0  0  0  0  0  0  0  0  0  0
    3.5887    0.7987    0.9487 O   0  0  0  0  0  0  0  0  0  0  0  0
   -1.7371    0.5065   -0.5057 C   0  0  0  0  0  0  0  0  0  0  0  0
    1.8013   -0.7030    0.5255 C   0  0  0  0  0  0  0  0  0  0  0  0
    0.7374    0.1485   -0.1564 C   0  0  0  0  0  0  0  0  0  0  0  0
   -0.6695   -0.3452    0.1786 C   0  0  0  0  0  0  0  0  0  0  0  0
   -0.7294    1.3894   -1.5148 H   0  0  0  0  0  0  0  0  0  0  0  0
   -1.1342   -0.3050   -1.6717 H   0  0  0  0  0  0  0  0  0  0  0  0
   -2.9319    1.9687   -0.7708 H   0  0  0  0  0  0  0  0  0  0  0  0
   -3.4600    0.4381   -0.9653 H   0  0  0  0  0  0  0  0  0  0  0  0
   -1.4049    1.3010    0.9464 H   0  0  0  0  0  0  0  0  0  0  0  0
    0.5555   -1.9386   -1.2239 H   0  0  0  0  0  0  0  0  0  0  0  0
    1.0387    2.0686    0.3057 H   0  0  0  0  0  0  0  0  0  0  0  0
   -2.3854   -1.5180    0.2260 H   0  0  0  0  0  0  0  0  0  0  0  0
   -2.7819   -0.6370    1.7119 H   0  0  0  0  0  0  0  0  0  0  0  0
   -1.1165   -1.1197    1.3978 H   0  0  0  0  0  0  0  0  0  0  0  0
    3.3281    1.5030    1.0342 H   0  0  0  0  0  0  0  0  0  0  0  0
    2.8473   -2.4834   -0.4910 H   0  0  0  0  0  0  0  0  0  0  0  0
    4.2391   -0.7699    0.6394 H   0  0  0  0  0  0  0  0  0  0  0  0
   -4.9140    0.3630   -0.4995 H   0  0  0  0  0  0  0  0  0  0  0  0
    4.4790    1.0183    0.6021 H   0  0  0  0  0  0  0  0  0  0  0  0
   -1.6492    1.5479   -0.1771 H   0  0  0  0  0  0  0  0  0  0  0  0
   -1.6072    0.4620   -1.5927 H   0  0  0  0  0  0  0  0  0  0  0  0
    1.7227   -1.7519    0.2173 H   0  0  0  0  0  0  0  0  0  0  0  0
    1.6897   -0.6873    1.6157 H   0  0  0  0  0  0  0  0  0  0  0  0
    0.8895    0.1276   -1.2429 H   0  0  0  0  0  0  0  0  0  0  0  0
    0.8462    1.1953    0.1537 H   0  0  0  0  0  0  0  0  0  0  0  0
   -0.8198   -0.3225    1.2653 H   0  0  0  0  0  0  0  0  0  0  0  0
   -0.7778   -1.3920   -0.1320 H   0  0  0  0  0  0  0  0  0  0  0  0
  2  4  1  0
  3  1  1  0
  4  1  1  0
  5  3  2  0
  6  3  1  0
  7  4  1  0
  8  6  2  0
  9  5  1  0
 10  8  1  0
 10  9  2  0
 12 17  1  0
 13 11  2  0
 14 12  2  0
 15 12  1  0
 16 11  1  0
 17 20  1  0
 18 11  1  0
 19 18  1  0
 20 19  1  0
  1 21  1  0
  1 22  1  0
  2 23  1  0
  2 24  1  0
  4 25  1  1
  5 26  1  0
  6 27  1  0
  7 28  1  0
  7 29  1  0
  7 30  1  0
  8 31  1  0
  9 32  1  0
 10 33  1  0
 15 34  1  0
 16 35  1  0
 17 36  1  0
 17 37  1  0
 18 38  1  0
 18 39  1  0
 19 40  1  0
 19 41  1  0
 20 42  1  0
 20 43  1  0
M  END
$$$$
