
     RDKit          3D

 43 42  0  0  0  0  0  0  0  0999 V2000
   -0.7101   -0.4811   -0.9823 C   0  0  0  0  0  0  0  0  0  0  0  0
   -1.7921    1.4295    0.1988 N   0  0  0  0  0  0  0  0  0  0  0  0
    0.7084   -0.2568   -0.5073 C   0  0  0  0  0  0  0  0  0  0  0  0
   -1.7772   -0.0301    0.0376 C   0  0  1  0  0  0  0  0  0  0  0  0
    1.2994   -1.1362    0.4102 C   0  0  0  0  0  0  0  0  0  0  0  0
    1.4452    0.8436   -0.9658 C   0  0  0  0  0  0  0  0  0  0  0  0
   -3.1663   -0.4824   -0.4099 C   0  0  0  0  0  0  0  0  0  0  0  0
    2.7489    1.0589   -0.5169 C   0  0  0  0  0  0  0  0  0  0  0  0
    2.6037   -0.9194    0.8576 C   0  0  0  0  0  0  0  0  0  0  0  0
    3.3278    0.1776    0.3942 C   0  0  0  0  0  0  0  0  0  0  0  0
    2.2953   -0.0126    0.6624 C   0  0  0  0  0  0  0  0  0  0  0  0
   -2.6052    0.4114    0.6418 C   0  0  0  0  0  0  0  0  0  0  0  0
    1.9993    0.1106    1.8388 O   0  0  0  0  0  0  0  0  0  0  0  0
   -2.8480    1.5978    0.5060 O   0  0  0  0  0  0  0  0  0  0  0  0
   -3.4628   -0.3925    1.3013 O   0  0  0  0  0  0  0  0  0  0  0  0
    3.2854    0.7161    0.1164 O   0  0  0  0  0  0  0  0  0  0  0  0
   -1.4022   -0.3442    0.1430 C   0  0  0  0  0  0  0  0  0  0  0  0
    1.6323   -0.9310   -0.3233 C   0  0  0  0  0  0  0  0  0  0  0  0
    0.7166   -0.1844   -1.2884 C   0  0  0  0  0  0  0  0  0  0  0  0
   -0.4478    0.5647   -0.6305 C   0  0  0  0  0  0  0  0  0  0  0  0
   -0.8303   -1.5519   -1.1949 H   0  0  0  0  0  0  0  0  0  0  0  0
   -0.8646    0.0265   -1.9440 H   0  0  0  0  0  0  0  0  0  0  0  0
   -2.4450    1.6829    0.9392 H   0  0  0  0  0  0  0  0  0  0  0  0
   -0.8713    1.7331    0.5206 H   0  0  0  0  0  0  0  0  0  0  0  0
   -1.5653   -0.4812    1.0147 H   0  0  0  0  0  0  0  0  0  0  0  0
    0.7474   -1.9970    0.7801 H   0  0  0  0  0  0  0  0  0  0  0  0
    1.0030    1.5417   -1.6738 H   0  0  0  0  0  0  0  0  0  0  0  0
   -3.9307   -0.1870    0.3176 H   0  0  0  0  0  0  0  0  0  0  0  0
   -3.2055   -1.5729   -0.5044 H   0  0  0  0  0  0  0  0  0  0  0  0
   -3.4368   -0.0503   -1.3800 H   0  0  0  0  0  0  0  0  0  0  0  0
    3.3124    1.9147   -0.8791 H   0  0  0  0  0  0  0  0  0  0  0  0
    3.0555   -1.6074    1.5672 H   0  0  0  0  0  0  0  0  0  0  0  0
    4.3435    0.3452    0.7422 H   0  0  0  0  0  0  0  0  0  0  0  0
   -4.1842    0.2096    1.5803 H   0  0  0  0  0  0  0  0  0  0  0  0
    3.6131    1.2691    0.8566 H   0  0  0  0  0  0  0  0  0  0  0  0
   -1.7535   -1.1524   -0.5078 H   0  0  0  0  0  0  0  0  0  0  0  0
   -0.8960   -0.7757    1.0124 H   0  0  0  0  0  0  0  0  0  0  0  0
    2.4168   -1.4593   -0.8781 H   0  0  0  0  0  0  0  0  0  0  0  0
    1.0864   -1.7013    0.2315 H   0  0  0  0  0  0  0  0  0  0  0  0
    0.3145   -0.9010   -2.0150 H   0  0  0  0  0  0  0  0  0  0  0  0
    1.3086    0.5404   -1.8613 H   0  0  0  0  0  0  0  0  0  0  0  0
   -1.0049    1.0860   -1.4198 H   0  0  0  0  0  0  0  0  0  0  0  0
   -0.0637    1.3486    0.0338 H   0  0  0  0  0  0  0  0  0  0  0  0
  2  4  1  0
  3  1  1  0
  4  1  1  0
  5  3  2  0
  6  3  1  0
  7  4  1  0
  8  6  2  0
  9  5  1  0
 10  8  1  0
 10  9  2  0
 12 17  1  0
 13 11  2  0
 14 12  2  0
 15 12  1  0
 16 11  1  0
 17 20  1  0
 18 11  1  0
 19 18  1  0
 20 19  1  0
  1 21  1  0
  1 22  1  0
  2 23  1  0
  2 24  1  0
  4 25  1  1
  5 26  1  0
  6 27  1  0
  7 28  1  0
  7 29  1  0
  7 30  1  0
  8 31  1  0
  9 32  1  0
 10 33  1  0
 15 34  1  0
 16 35  1  0
 17 36  1  0
 17 37  1  0
 18 38  1  0
 18 39  1  0
 19 40  1  0
 19 41  1  0
 20 42  1  0
 20 43  1  0
M  END
$$$$
