
     RDKit          3D

 43 42  0  0  0  0  0  0  0  0999 V2000
   -0.6463   -0.4798   -0.5848 C   0  0  0  0  0  0  0  0  0  0  0  0
   -1.9736    1.3761    0.4257 N   0  0  0  0  0  0  0  0  0  0  0  0
    0.7732   -0.1763   -0.1615 C   0  0  0  0  0  0  0  0  0  0  0  0
   -1.7064   -0.0686    0.4606 C   0  0  1  0  0  0  0  0  0  0  0  0
    1.5822   -1.1822    0.3855 C   0  0  0  0  0  0  0  0  0  0  0  0
    1.2987    1.1151   -0.2979 C   0  0  0  0  0  0  0  0  0  0  0  0
   -3.0179   -0.8164    0.2115 C   0  0  0  0  0  0  0  0  0  0  0  0
    2.6082    1.3938    0.0967 C   0  0  0  0  0  0  0  0  0  0  0  0
    2.8923   -0.9025    0.7789 C   0  0  0  0  0  0  0  0  0  0  0  0
    3.4054    0.3849    0.6334 C   0  0  0  0  0  0  0  0  0  0  0  0
   -2.0516    0.5844   -0.7767 C   0  0  0  0  0  0  0  0  0  0  0  0
    2.6475    0.2681   -0.0974 C   0  0  0  0  0  0  0  0  0  0  0  0
   -1.7498    1.7002   -0.3916 O   0  0  0  0  0  0  0  0  0  0  0  0
    3.3586   -0.6291    0.3208 O   0  0  0  0  0  0  0  0  0  0  0  0
    3.1793    1.3001   -0.7816 O   0  0  0  0  0  0  0  0  0  0  0  0
   -2.6747    0.4132   -1.9590 O   0  0  0  0  0  0  0  0  0  0  0  0
    1.1531    0.3937    0.0378 C   0  0  0  0  0  0  0  0  0  0  0  0
   -1.8313   -0.7243   -0.0650 C   0  0  0  0  0  0  0  0  0  0  0  0
   -0.9301   -0.6069    1.1657 C   0  0  0  0  0  0  0  0  0  0  0  0
    0.5680   -0.7458    0.8695 C   0  0  0  0  0  0  0  0  0  0  0  0
   -0.7224   -1.5582   -0.7795 H   0  0  0  0  0  0  0  0  0  0  0  0
   -0.8469   -0.0005   -1.5527 H   0  0  0  0  0  0  0  0  0  0  0  0
   -2.6662    1.6112    1.1355 H   0  0  0  0  0  0  0  0  0  0  0  0
   -2.3859    1.6307   -0.4706 H   0  0  0  0  0  0  0  0  0  0  0  0
   -1.3499   -0.3260    1.4654 H   0  0  0  0  0  0  0  0  0  0  0  0
    1.1974   -2.1916    0.5090 H   0  0  0  0  0  0  0  0  0  0  0  0
    0.6826    1.9146   -0.7036 H   0  0  0  0  0  0  0  0  0  0  0  0
   -3.7765   -0.5396    0.9522 H   0  0  0  0  0  0  0  0  0  0  0  0
   -2.8656   -1.8986    0.2863 H   0  0  0  0  0  0  0  0  0  0  0  0
   -3.4209   -0.6007   -0.7844 H   0  0  0  0  0  0  0  0  0  0  0  0
    3.0026    2.4006   -0.0107 H   0  0  0  0  0  0  0  0  0  0  0  0
    3.5118   -1.6892    1.2008 H   0  0  0  0  0  0  0  0  0  0  0  0
    4.4240    0.6032    0.9419 H   0  0  0  0  0  0  0  0  0  0  0  0
    4.1395    1.1048   -0.7986 H   0  0  0  0  0  0  0  0  0  0  0  0
   -2.7729    1.3225   -2.3121 H   0  0  0  0  0  0  0  0  0  0  0  0
    0.9355    1.3536    0.5183 H   0  0  0  0  0  0  0  0  0  0  0  0
    0.7284    0.3850   -0.9707 H   0  0  0  0  0  0  0  0  0  0  0  0
   -2.8200   -1.0735    0.2556 H   0  0  0  0  0  0  0  0  0  0  0  0
   -1.4192   -1.4538   -0.7705 H   0  0  0  0  0  0  0  0  0  0  0  0
   -1.1979   -1.4197    1.8530 H   0  0  0  0  0  0  0  0  0  0  0  0
   -1.1173    0.3287    1.7057 H   0  0  0  0  0  0  0  0  0  0  0  0
    1.0990   -0.7978    1.8290 H   0  0  0  0  0  0  0  0  0  0  0  0
    0.7560   -1.7035    0.3677 H   0  0  0  0  0  0  0  0  0  0  0  0
  2  4  1  0
  3  1  1  0
  4  1  1  0
  5  3  2  0
  6  3  1  0
  7  4  1  0
  8  6  2  0
  9  5  1  0
 10  8  1  0
 10  9  2  0
 12 17  1  0
 13 11  2  0
 14 12  2  0
 15 12  1  0
 16 11  1  0
 17 20  1  0
 18 11  1  0
 19 18  1  0
 20 19  1  0
  1 21  1  0
  1 22  1  0
  2 23  1  0
  2 24  1  0
  4 25  1  1
  5 26  1  0
  6 27  1  0
  7 28  1  0
  7 29  1  0
  7 30  1  0
  8 31  1  0
  9 32  1  0
 10 33  1  0
 15 34  1  0
 16 35  1  0
 17 36  1  0
 17 37  1  0
 18 38  1  0
 18 39  1  0
 19 40  1  0
 19 41  1  0
 20 42  1  0
 20 43  1  0
M  END
$$$$
