
     RDKit          3D

 43 42  0  0  0  0  0  0  0  0999 V2000
   -0.7760   -0.8881    0.2393 C   0  0  0  0  0  0  0  0  0  0  0  0
   -1.6173    0.6654   -1.5199 N   0  0  0  0  0  0  0  0  0  0  0  0
    0.6681   -0.4385    0.2557 C   0  0  0  0  0  0  0  0  0  0  0  0
   -1.7658    0.2398   -0.1223 C   0  0  1  0  0  0  0  0  0  0  0  0
    1.1784    0.2780    1.3470 C   0  0  0  0  0  0  0  0  0  0  0  0
    1.5113   -0.7178   -0.8283 C   0  0  0  0  0  0  0  0  0  0  0  0
   -3.2050   -0.2258    0.0922 C   0  0  0  0  0  0  0  0  0  0  0  0
    2.8398   -0.2907   -0.8198 C   0  0  0  0  0  0  0  0  0  0  0  0
    2.5076    0.7039    1.3538 C   0  0  0  0  0  0  0  0  0  0  0  0
    3.3376    0.4196    0.2709 C   0  0  0  0  0  0  0  0  0  0  0  0
    2.9660   -0.3588    0.2612 C   0  0  0  0  0  0  0  0  0  0  0  0
   -2.9771    0.0598   -0.2480 C   0  0  0  0  0  0  0  0  0  0  0  0
    3.8353   -1.1431   -0.0783 O   0  0  0  0  0  0  0  0  0  0  0  0
   -3.4628   -0.4211   -1.2567 O   0  0  0  0  0  0  0  0  0  0  0  0
   -3.7656    0.4620    0.7682 O   0  0  0  0  0  0  0  0  0  0  0  0
    3.2828    0.8565    0.7454 O   0  0  0  0  0  0  0  0  0  0  0  0
   -1.5188    0.2773    0.0561 C   0  0  0  0  0  0  0  0  0  0  0  0
    1.4837   -0.5944    0.2043 C   0  0  0  0  0  0  0  0  0  0  0  0
    0.8451    0.2256   -0.9118 C   0  0  0  0  0  0  0  0  0  0  0  0
   -0.6340   -0.0986   -1.1320 C   0  0  0  0  0  0  0  0  0  0  0  0
   -1.0172   -1.2878    1.2335 H   0  0  0  0  0  0  0  0  0  0  0  0
   -0.8940   -1.7338   -0.4517 H   0  0  0  0  0  0  0  0  0  0  0  0
   -0.6623    0.9995   -1.6611 H   0  0  0  0  0  0  0  0  0  0  0  0
   -2.2229    1.4657   -1.6975 H   0  0  0  0  0  0  0  0  0  0  0  0
   -1.5842    1.1085    0.5223 H   0  0  0  0  0  0  0  0  0  0  0  0
    0.5432    0.5065    2.1996 H   0  0  0  0  0  0  0  0  0  0  0  0
    1.1334   -1.2676   -1.6880 H   0  0  0  0  0  0  0  0  0  0  0  0
   -3.3655   -0.5164    1.1360 H   0  0  0  0  0  0  0  0  0  0  0  0
   -3.4469   -1.0888   -0.5386 H   0  0  0  0  0  0  0  0  0  0  0  0
   -3.9171    0.5740   -0.1404 H   0  0  0  0  0  0  0  0  0  0  0  0
    3.4860   -0.5130   -1.6649 H   0  0  0  0  0  0  0  0  0  0  0  0
    2.8960    1.2567    2.2050 H   0  0  0  0  0  0  0  0  0  0  0  0
    4.3727    0.7506    0.2773 H   0  0  0  0  0  0  0  0  0  0  0  0
   -4.6741    0.2678    0.4551 H   0  0  0  0  0  0  0  0  0  0  0  0
    4.2629    0.8719    0.7258 H   0  0  0  0  0  0  0  0  0  0  0  0
   -1.3758    1.3351    0.3029 H   0  0  0  0  0  0  0  0  0  0  0  0
   -1.2654   -0.3330    0.9288 H   0  0  0  0  0  0  0  0  0  0  0  0
    1.0595   -0.3544    1.1849 H   0  0  0  0  0  0  0  0  0  0  0  0
    1.3196   -1.6653    0.0376 H   0  0  0  0  0  0  0  0  0  0  0  0
    1.3845    0.0390   -1.8493 H   0  0  0  0  0  0  0  0  0  0  0  0
    0.9601    1.2964   -0.7025 H   0  0  0  0  0  0  0  0  0  0  0  0
   -0.9764    0.4433   -2.0229 H   0  0  0  0  0  0  0  0  0  0  0  0
   -0.7494   -1.1659   -1.3588 H   0  0  0  0  0  0  0  0  0  0  0  0
  2  4  1  0
  3  1  1  0
  4  1  1  0
  5  3  2  0
  6  3  1  0
  7  4  1  0
  8  6  2  0
  9  5  1  0
 10  8  1  0
 10  9  2  0
 12 17  1  0
 13 11  2  0
 14 12  2  0
 15 12  1  0
 16 11  1  0
 17 20  1  0
 18 11  1  0
 19 18  1  0
 20 19  1  0
  1 21  1  0
  1 22  1  0
  2 23  1  0
  2 24  1  0
  4 25  1  1
  5 26  1  0
  6 27  1  0
  7 28  1  0
  7 29  1  0
  7 30  1  0
  8 31  1  0
  9 32  1  0
 10 33  1  0
 15 34  1  0
 16 35  1  0
 17 36  1  0
 17 37  1  0
 18 38  1  0
 18 39  1  0
 19 40  1  0
 19 41  1  0
 20 42  1  0
 20 43  1  0
M  END
$$$$
