
     RDKit          3D

 43 42  0  0  0  0  0  0  0  0999 V2000
   -0.6878    0.3802    0.9555 C   0  0  0  0  0  0  0  0  0  0  0  0
   -1.8482   -1.5229   -0.1668 N   0  0  0  0  0  0  0  0  0  0  0  0
    0.7540    0.2220    0.5284 C   0  0  0  0  0  0  0  0  0  0  0  0
   -1.7050   -0.0610   -0.1201 C   0  0  1  0  0  0  0  0  0  0  0  0
    1.3871   -1.0256    0.5983 C   0  0  0  0  0  0  0  0  0  0  0  0
    1.4765    1.3218    0.0444 C   0  0  0  0  0  0  0  0  0  0  0  0
   -3.0763    0.5578    0.1584 C   0  0  0  0  0  0  0  0  0  0  0  0
    2.8072    1.1765   -0.3524 C   0  0  0  0  0  0  0  0  0  0  0  0
    2.7172   -1.1699    0.2003 C   0  0  0  0  0  0  0  0  0  0  0  0
    3.4275   -0.0688   -0.2733 C   0  0  0  0  0  0  0  0  0  0  0  0
    3.1029    0.5868    0.2335 C   0  0  0  0  0  0  0  0  0  0  0  0
   -3.1029   -0.5868   -0.2402 C   0  0  0  0  0  0  0  0  0  0  0  0
    3.0913    1.7283    0.6602 O   0  0  0  0  0  0  0  0  0  0  0  0
   -3.0913   -1.7283   -0.6669 O   0  0  0  0  0  0  0  0  0  0  0  0
   -4.2693    0.0473   -0.0095 O   0  0  0  0  0  0  0  0  0  0  0  0
    4.2693   -0.0473    0.0029 O   0  0  0  0  0  0  0  0  0  0  0  0
   -1.9188    0.2807    0.0908 C   0  0  0  0  0  0  0  0  0  0  0  0
    1.9188   -0.2807   -0.0975 C   0  0  0  0  0  0  0  0  0  0  0  0
    0.5994    0.4429    0.1656 C   0  0  0  0  0  0  0  0  0  0  0  0
   -0.5994   -0.4429   -0.1723 C   0  0  0  0  0  0  0  0  0  0  0  0
   -0.8506   -0.1674    1.8938 H   0  0  0  0  0  0  0  0  0  0  0  0
   -0.8563    1.4357    1.2083 H   0  0  0  0  0  0  0  0  0  0  0  0
   -2.2408   -1.8608    0.7107 H   0  0  0  0  0  0  0  0  0  0  0  0
   -2.5154   -1.7762   -0.8943 H   0  0  0  0  0  0  0  0  0  0  0  0
   -1.3677    0.2810   -1.1060 H   0  0  0  0  0  0  0  0  0  0  0  0
    0.8397   -1.8957    0.9542 H   0  0  0  0  0  0  0  0  0  0  0  0
    1.0076    2.3002   -0.0268 H   0  0  0  0  0  0  0  0  0  0  0  0
   -3.4634    0.2539    1.1375 H   0  0  0  0  0  0  0  0  0  0  0  0
   -3.8057    0.2592   -0.6029 H   0  0  0  0  0  0  0  0  0  0  0  0
   -3.0165    1.6515    0.1444 H   0  0  0  0  0  0  0  0  0  0  0  0
    3.3591    2.0351   -0.7251 H   0  0  0  0  0  0  0  0  0  0  0  0
    3.1955   -2.1440    0.2557 H   0  0  0  0  0  0  0  0  0  0  0  0
    4.4622   -0.1825   -0.5845 H   0  0  0  0  0  0  0  0  0  0  0  0
   -4.9516   -0.6107   -0.2594 H   0  0  0  0  0  0  0  0  0  0  0  0
    4.9516    0.6107    0.2527 H   0  0  0  0  0  0  0  0  0  0  0  0
   -1.9847    0.5609    1.1479 H   0  0  0  0  0  0  0  0  0  0  0  0
   -1.9753    1.1859   -0.5237 H   0  0  0  0  0  0  0  0  0  0  0  0
    1.9753   -1.1859    0.5170 H   0  0  0  0  0  0  0  0  0  0  0  0
    1.9847   -0.5609   -1.1546 H   0  0  0  0  0  0  0  0  0  0  0  0
    0.5583    1.3636   -0.4300 H   0  0  0  0  0  0  0  0  0  0  0  0
    0.5491    0.7471    1.2187 H   0  0  0  0  0  0  0  0  0  0  0  0
   -0.5583   -1.3636    0.4233 H   0  0  0  0  0  0  0  0  0  0  0  0
   -0.5491   -0.7471   -1.2254 H   0  0  0  0  0  0  0  0  0  0  0  0
  2  4  1  0
  3  1  1  0
  4  1  1  0
  5  3  2  0
  6  3  1  0
  7  4  1  0
  8  6  2  0
  9  5  1  0
 10  8  1  0
 10  9  2  0
 12 17  1  0
 13 11  2  0
 14 12  2  0
 15 12  1  0
 16 11  1  0
 17 20  1  0
 18 11  1  0
 19 18  1  0
 20 19  1  0
  1 21  1  0
  1 22  1  0
  2 23  1  0
  2 24  1  0
  4 25  1  6
  5 26  1  0
  6 27  1  0
  7 28  1  0
  7 29  1  0
  7 30  1  0
  8 31  1  0
  9 32  1  0
 10 33  1  0
 15 34  1  0
 16 35  1  0
 17 36  1  0
 17 37  1  0
 18 38  1  0
 18 39  1  0
 19 40  1  0
 19 41  1  0
 20 42  1  0
 20 43  1  0
M  END
$$$$
