
     RDKit          3D

 43 42  0  0  0  0  0  0  0  0999 V2000
   -0.6995   -0.3595   -0.7837 C   0  0  0  0  0  0  0  0  0  0  0  0
   -1.9372    1.3290    0.5745 N   0  0  0  0  0  0  0  0  0  0  0  0
    0.7476   -0.1254   -0.4133 C   0  0  0  0  0  0  0  0  0  0  0  0
   -1.6857   -0.1055    0.3778 C   0  0  1  0  0  0  0  0  0  0  0  0
    1.5779   -1.2034   -0.0749 C   0  0  0  0  0  0  0  0  0  0  0  0
    1.2787    1.1706   -0.3908 C   0  0  0  0  0  0  0  0  0  0  0  0
   -3.0192   -0.8049    0.1065 C   0  0  0  0  0  0  0  0  0  0  0  0
    2.6141    1.3846   -0.0452 C   0  0  0  0  0  0  0  0  0  0  0  0
    2.9137   -0.9882    0.2696 C   0  0  0  0  0  0  0  0  0  0  0  0
    3.4317    0.3053    0.2832 C   0  0  0  0  0  0  0  0  0  0  0  0
    2.8315    1.4180   -0.0342 C   0  0  0  0  0  0  0  0  0  0  0  0
   -2.8315   -1.4180   -0.0409 C   0  0  0  0  0  0  0  0  0  0  0  0
    3.5153    0.5697    0.5117 O   0  0  0  0  0  0  0  0  0  0  0  0
   -3.5153   -0.5697   -0.5868 O   0  0  0  0  0  0  0  0  0  0  0  0
   -3.3770   -2.5811    0.3658 O   0  0  0  0  0  0  0  0  0  0  0  0
    3.3770    2.5811   -0.4409 O   0  0  0  0  0  0  0  0  0  0  0  0
   -1.3603   -1.3513    0.2676 C   0  0  0  0  0  0  0  0  0  0  0  0
    1.3603    1.3513   -0.3427 C   0  0  0  0  0  0  0  0  0  0  0  0
    0.7470    0.0310    0.1204 C   0  0  0  0  0  0  0  0  0  0  0  0
   -0.7470   -0.0310   -0.1955 C   0  0  0  0  0  0  0  0  0  0  0  0
   -0.9558    0.2588   -1.6548 H   0  0  0  0  0  0  0  0  0  0  0  0
   -0.8008   -1.3968   -1.1304 H   0  0  0  0  0  0  0  0  0  0  0  0
   -2.4029    1.7148   -0.2456 H   0  0  0  0  0  0  0  0  0  0  0  0
   -2.5802    1.4577    1.3548 H   0  0  0  0  0  0  0  0  0  0  0  0
   -1.2688   -0.5101    1.3080 H   0  0  0  0  0  0  0  0  0  0  0  0
    1.1897   -2.2190   -0.0775 H   0  0  0  0  0  0  0  0  0  0  0  0
    0.6475    2.0229   -0.6328 H   0  0  0  0  0  0  0  0  0  0  0  0
   -3.4825   -0.4428   -0.8183 H   0  0  0  0  0  0  0  0  0  0  0  0
   -3.7256   -0.6394    0.9276 H   0  0  0  0  0  0  0  0  0  0  0  0
   -2.8754   -1.8866    0.0102 H   0  0  0  0  0  0  0  0  0  0  0  0
    3.0128    2.3952   -0.0278 H   0  0  0  0  0  0  0  0  0  0  0  0
    3.5495   -1.8303    0.5292 H   0  0  0  0  0  0  0  0  0  0  0  0
    4.4705    0.4730    0.5538 H   0  0  0  0  0  0  0  0  0  0  0  0
   -4.3208   -2.5030    0.1126 H   0  0  0  0  0  0  0  0  0  0  0  0
    4.3207    2.5030   -0.1877 H   0  0  0  0  0  0  0  0  0  0  0  0
   -0.8662   -2.1882   -0.2381 H   0  0  0  0  0  0  0  0  0  0  0  0
   -1.2322   -1.4612    1.3500 H   0  0  0  0  0  0  0  0  0  0  0  0
    1.2322    1.4612   -1.4252 H   0  0  0  0  0  0  0  0  0  0  0  0
    0.8662    2.1882    0.1630 H   0  0  0  0  0  0  0  0  0  0  0  0
    0.9019   -0.0892    1.2000 H   0  0  0  0  0  0  0  0  0  0  0  0
    1.2629   -0.8063   -0.3664 H   0  0  0  0  0  0  0  0  0  0  0  0
   -1.2629    0.8063    0.2913 H   0  0  0  0  0  0  0  0  0  0  0  0
   -0.9019    0.0892   -1.2752 H   0  0  0  0  0  0  0  0  0  0  0  0
  2  4  1  0
  3  1  1  0
  4  1  1  0
  5  3  2  0
  6  3  1  0
  7  4  1  0
  8  6  2  0
  9  5  1  0
 10  8  1  0
 10  9  2  0
 12 17  1  0
 13 11  2  0
 14 12  2  0
 15 12  1  0
 16 11  1  0
 17 20  1  0
 18 11  1  0
 19 18  1  0
 20 19  1  0
  1 21  1  0
  1 22  1  0
  2 23  1  0
  2 24  1  0
  4 25  1  1
  5 26  1  0
  6 27  1  0
  7 28  1  0
  7 29  1  0
  7 30  1  0
  8 31  1  0
  9 32  1  0
 10 33  1  0
 15 34  1  0
 16 35  1  0
 17 36  1  0
 17 37  1  0
 18 38  1  0
 18 39  1  0
 19 40  1  0
 19 41  1  0
 20 42  1  0
 20 43  1  0
M  END
$$$$
