
     RDKit          3D

 43 42  0  0  0  0  0  0  0  0999 V2000
    0.7170   -0.6251   -0.5727 C   0  0  0  0  0  0  0  0  0  0  0  0
    1.9488    0.2620    1.4081 N   0  0  0  0  0  0  0  0  0  0  0  0
   -0.7358   -0.3921   -0.2243 C   0  0  0  0  0  0  0  0  0  0  0  0
    1.6685    0.4595   -0.0210 C   0  0  1  0  0  0  0  0  0  0  0  0
   -1.2348   -0.7502    1.0348 C   0  0  0  0  0  0  0  0  0  0  0  0
   -1.6039    0.1974   -1.1541 C   0  0  0  0  0  0  0  0  0  0  0  0
    2.9927    0.4459   -0.7874 C   0  0  0  0  0  0  0  0  0  0  0  0
   -2.9450    0.4152   -0.8326 C   0  0  0  0  0  0  0  0  0  0  0  0
   -2.5756   -0.5310    1.3554 C   0  0  0  0  0  0  0  0  0  0  0  0
   -3.4308    0.0499    0.4213 C   0  0  0  0  0  0  0  0  0  0  0  0
    3.1473   -0.0535   -0.3327 C   0  0  0  0  0  0  0  0  0  0  0  0
   -3.1473    0.0535    0.3591 C   0  0  0  0  0  0  0  0  0  0  0  0
    3.3160    0.9012   -1.0711 O   0  0  0  0  0  0  0  0  0  0  0  0
   -3.3160   -0.9012    1.0974 O   0  0  0  0  0  0  0  0  0  0  0  0
   -4.1957    0.7871   -0.0637 O   0  0  0  0  0  0  0  0  0  0  0  0
    4.1957   -0.7871    0.0901 O   0  0  0  0  0  0  0  0  0  0  0  0
   -1.8448    0.5703   -0.1892 C   0  0  0  0  0  0  0  0  0  0  0  0
    1.8448   -0.5703    0.2155 C   0  0  0  0  0  0  0  0  0  0  0  0
    0.6599    0.2647   -0.2668 C   0  0  0  0  0  0  0  0  0  0  0  0
   -0.6599   -0.2647    0.2932 C   0  0  0  0  0  0  0  0  0  0  0  0
    0.8042   -0.6672   -1.6668 H   0  0  0  0  0  0  0  0  0  0  0  0
    1.0186   -1.6221   -0.2239 H   0  0  0  0  0  0  0  0  0  0  0  0
    2.4520   -0.6134    1.5447 H   0  0  0  0  0  0  0  0  0  0  0  0
    2.5674    1.0014    1.7388 H   0  0  0  0  0  0  0  0  0  0  0  0
    1.2097    1.4478   -0.1458 H   0  0  0  0  0  0  0  0  0  0  0  0
   -0.5746   -1.1928    1.7774 H   0  0  0  0  0  0  0  0  0  0  0  0
   -1.2413    0.4913   -2.1361 H   0  0  0  0  0  0  0  0  0  0  0  0
    3.4965   -0.5236   -0.7024 H   0  0  0  0  0  0  0  0  0  0  0  0
    3.6742    1.2169   -0.4109 H   0  0  0  0  0  0  0  0  0  0  0  0
    2.8253    0.6466   -1.8511 H   0  0  0  0  0  0  0  0  0  0  0  0
   -3.6102    0.8717   -1.5605 H   0  0  0  0  0  0  0  0  0  0  0  0
   -2.9493   -0.8097    2.3368 H   0  0  0  0  0  0  0  0  0  0  0  0
   -4.4738    0.2217    0.6724 H   0  0  0  0  0  0  0  0  0  0  0  0
   -4.9711    0.3574    0.3544 H   0  0  0  0  0  0  0  0  0  0  0  0
    4.9711   -0.3574   -0.3281 H   0  0  0  0  0  0  0  0  0  0  0  0
   -1.8987    0.5421   -1.2830 H   0  0  0  0  0  0  0  0  0  0  0  0
   -1.7245    1.6093    0.1366 H   0  0  0  0  0  0  0  0  0  0  0  0
    1.8987   -0.5421    1.3094 H   0  0  0  0  0  0  0  0  0  0  0  0
    1.7245   -1.6093   -0.1103 H   0  0  0  0  0  0  0  0  0  0  0  0
    0.7974    1.3102    0.0367 H   0  0  0  0  0  0  0  0  0  0  0  0
    0.6256    0.2576   -1.3635 H   0  0  0  0  0  0  0  0  0  0  0  0
   -0.6256   -0.2576    1.3899 H   0  0  0  0  0  0  0  0  0  0  0  0
   -0.7974   -1.3102   -0.0104 H   0  0  0  0  0  0  0  0  0  0  0  0
  2  4  1  0
  3  1  1  0
  4  1  1  0
  5  3  2  0
  6  3  1  0
  7  4  1  0
  8  6  2  0
  9  5  1  0
 10  8  1  0
 10  9  2  0
 12 17  1  0
 13 11  2  0
 14 12  2  0
 15 12  1  0
 16 11  1  0
 17 20  1  0
 18 11  1  0
 19 18  1  0
 20 19  1  0
  1 21  1  0
  1 22  1  0
  2 23  1  0
  2 24  1  0
  4 25  1  1
  5 26  1  0
  6 27  1  0
  7 28  1  0
  7 29  1  0
  7 30  1  0
  8 31  1  0
  9 32  1  0
 10 33  1  0
 15 34  1  0
 16 35  1  0
 17 36  1  0
 17 37  1  0
 18 38  1  0
 18 39  1  0
 19 40  1  0
 19 41  1  0
 20 42  1  0
 20 43  1  0
M  END
$$$$
