
     RDKit          3D

 37 24  0  0  0  0  0  0  0  0999 V2000
   47.3083    0.8881    7.3063 O   0  0  0  0  0  0  0  0  0  0  0  0
   47.0661    1.2037    7.3029 S   0  0  0  0  0  0  0  0  0  0  0  0
   46.3564    1.9462    8.3605 O   0  0  0  0  0  0  0  0  0  0  0  0
   46.4625    1.5148    5.9943 O   0  0  0  0  0  0  0  0  0  0  0  0
   48.4868    1.5974    7.2948 O   0  0  0  0  0  0  0  0  0  0  0  0
   46.9588   -0.2436    7.5620 O   0  0  0  0  0  0  0  0  0  0  0  0
   47.0661    1.2037    7.3029 Na  0  0  0  0  0 15  0  0  0  0  0  0
   47.0661    1.2037    7.3029 Na  0  0  0  0  0 15  0  0  0  0  0  0
   47.3084    0.8882    7.3063 O   0  0  0  0  0  0  0  0  0  0  0  0
   47.3078    0.8878    7.3063 O   0  0  0  0  0  0  0  0  0  0  0  0
   47.3084    0.8882    7.3063 O   0  0  0  0  0  0  0  0  0  0  0  0
   47.3072    0.8873    7.3064 O   0  0  0  0  0  0  0  0  0  0  0  0
   47.3085    0.8883    7.3063 O   0  0  0  0  0  0  0  0  0  0  0  0
   47.3088    0.8885    7.3062 O   0  0  0  0  0  0  0  0  0  0  0  0
   47.3083    0.8881    7.3063 O   0  0  0  0  0  0  0  0  0  0  0  0
   47.3083    0.8881    7.3063 O   0  0  0  0  0  0  0  0  0  0  0  0
   47.3080    0.8879    7.3063 O   0  0  0  0  0  0  0  0  0  0  0  0
   47.5491    1.8245    7.2423 H   0  0  0  0  0  0  0  0  0  0  0  0
   46.3409    0.8984    7.3602 H   0  0  0  0  0  0  0  0  0  0  0  0
   46.3410    0.8984    7.3602 H   0  0  0  0  0  0  0  0  0  0  0  0
   47.5491    1.8246    7.2423 H   0  0  0  0  0  0  0  0  0  0  0  0
   47.5502    1.8238    7.2422 H   0  0  0  0  0  0  0  0  0  0  0  0
   46.3404    0.8996    7.3602 H   0  0  0  0  0  0  0  0  0  0  0  0
   46.3410    0.8984    7.3602 H   0  0  0  0  0  0  0  0  0  0  0  0
   47.5491    1.8246    7.2423 H   0  0  0  0  0  0  0  0  0  0  0  0
   46.3398    0.9012    7.3601 H   0  0  0  0  0  0  0  0  0  0  0  0
   47.5515    1.8227    7.2422 H   0  0  0  0  0  0  0  0  0  0  0  0
   46.3411    0.8981    7.3602 H   0  0  0  0  0  0  0  0  0  0  0  0
   47.5488    1.8248    7.2423 H   0  0  0  0  0  0  0  0  0  0  0  0
   46.3413    0.8975    7.3602 H   0  0  0  0  0  0  0  0  0  0  0  0
   47.5484    1.8252    7.2423 H   0  0  0  0  0  0  0  0  0  0  0  0
   46.3408    0.8986    7.3602 H   0  0  0  0  0  0  0  0  0  0  0  0
   47.5493    1.8245    7.2423 H   0  0  0  0  0  0  0  0  0  0  0  0
   46.3408    0.8985    7.3602 H   0  0  0  0  0  0  0  0  0  0  0  0
   47.5493    1.8245    7.2423 H   0  0  0  0  0  0  0  0  0  0  0  0
   46.3406    0.8991    7.3602 H   0  0  0  0  0  0  0  0  0  0  0  0
   47.5497    1.8241    7.2423 H   0  0  0  0  0  0  0  0  0  0  0  0
  2  3  2  0
  2  4  2  0
  2  5  1  0
  2  6  1  0
  1 18  1  0
  1 19  1  0
  9 20  1  0
  9 21  1  0
 10 22  1  0
 10 23  1  0
 11 24  1  0
 11 25  1  0
 12 26  1  0
 12 27  1  0
 13 28  1  0
 13 29  1  0
 14 30  1  0
 14 31  1  0
 15 32  1  0
 15 33  1  0
 16 34  1  0
 16 35  1  0
 17 36  1  0
 17 37  1  0
M  CHG  4   5  -1   6  -1   7   1   8   1
M  END
> <Uni-Dock RESULT> 
ENERGY=   -6.888  LOWER_BOUND=    0.000  UPPER_BOUND=    0.000
INTER + INTRA:          -6.888
INTER:                  -6.888
INTRA:                   0.000
UNBOUND:                 0.000

$$$$

     RDKit          3D

 37 24  0  0  0  0  0  0  0  0999 V2000
   46.8777    0.6127    7.6338 O   0  0  0  0  0  0  0  0  0  0  0  0
   46.9829    0.8880    7.3666 S   0  0  0  0  0  0  0  0  0  0  0  0
   46.3879    1.3470    6.0983 O   0  0  0  0  0  0  0  0  0  0  0  0
   48.3922    1.3160    7.4316 O   0  0  0  0  0  0  0  0  0  0  0  0
   46.2394    1.4719    8.4979 O   0  0  0  0  0  0  0  0  0  0  0  0
   46.9121   -0.5827    7.4389 O   0  0  0  0  0  0  0  0  0  0  0  0
   46.9829    0.8880    7.3666 Na  0  0  0  0  0 15  0  0  0  0  0  0
   46.9829    0.8880    7.3666 Na  0  0  0  0  0 15  0  0  0  0  0  0
   46.8776    0.6128    7.6339 O   0  0  0  0  0  0  0  0  0  0  0  0
   46.8779    0.6123    7.6335 O   0  0  0  0  0  0  0  0  0  0  0  0
   46.8776    0.6128    7.6339 O   0  0  0  0  0  0  0  0  0  0  0  0
   46.8782    0.6117    7.6330 O   0  0  0  0  0  0  0  0  0  0  0  0
   46.8776    0.6129    7.6340 O   0  0  0  0  0  0  0  0  0  0  0  0
   46.8775    0.6132    7.6342 O   0  0  0  0  0  0  0  0  0  0  0  0
   46.8777    0.6127    7.6338 O   0  0  0  0  0  0  0  0  0  0  0  0
   46.8777    0.6127    7.6338 O   0  0  0  0  0  0  0  0  0  0  0  0
   46.8778    0.6125    7.6336 O   0  0  0  0  0  0  0  0  0  0  0  0
   46.7472    1.5717    7.6820 H   0  0  0  0  0  0  0  0  0  0  0  0
   47.3238    0.4796    6.7840 H   0  0  0  0  0  0  0  0  0  0  0  0
   47.3238    0.4795    6.7841 H   0  0  0  0  0  0  0  0  0  0  0  0
   46.7473    1.5718    7.6819 H   0  0  0  0  0  0  0  0  0  0  0  0
   46.7468    1.5711    7.6830 H   0  0  0  0  0  0  0  0  0  0  0  0
   47.3240    0.4806    6.7834 H   0  0  0  0  0  0  0  0  0  0  0  0
   47.3238    0.4795    6.7841 H   0  0  0  0  0  0  0  0  0  0  0  0
   46.7473    1.5718    7.6819 H   0  0  0  0  0  0  0  0  0  0  0  0
   47.3243    0.4822    6.7826 H   0  0  0  0  0  0  0  0  0  0  0  0
   46.7462    1.5703    7.6844 H   0  0  0  0  0  0  0  0  0  0  0  0
   47.3237    0.4792    6.7843 H   0  0  0  0  0  0  0  0  0  0  0  0
   46.7474    1.5719    7.6817 H   0  0  0  0  0  0  0  0  0  0  0  0
   47.3237    0.4787    6.7845 H   0  0  0  0  0  0  0  0  0  0  0  0
   46.7476    1.5722    7.6812 H   0  0  0  0  0  0  0  0  0  0  0  0
   47.3239    0.4797    6.7839 H   0  0  0  0  0  0  0  0  0  0  0  0
   46.7472    1.5717    7.6821 H   0  0  0  0  0  0  0  0  0  0  0  0
   47.3238    0.4797    6.7840 H   0  0  0  0  0  0  0  0  0  0  0  0
   46.7472    1.5717    7.6821 H   0  0  0  0  0  0  0  0  0  0  0  0
   47.3239    0.4802    6.7837 H   0  0  0  0  0  0  0  0  0  0  0  0
   46.7470    1.5714    7.6826 H   0  0  0  0  0  0  0  0  0  0  0  0
  2  3  2  0
  2  4  2  0
  2  5  1  0
  2  6  1  0
  1 18  1  0
  1 19  1  0
  9 20  1  0
  9 21  1  0
 10 22  1  0
 10 23  1  0
 11 24  1  0
 11 25  1  0
 12 26  1  0
 12 27  1  0
 13 28  1  0
 13 29  1  0
 14 30  1  0
 14 31  1  0
 15 32  1  0
 15 33  1  0
 16 34  1  0
 16 35  1  0
 17 36  1  0
 17 37  1  0
M  CHG  4   5  -1   6  -1   7   1   8   1
M  END
> <Uni-Dock RESULT> 
ENERGY=   -6.597  LOWER_BOUND=    0.518  UPPER_BOUND=    1.137
INTER + INTRA:          -6.597
INTER:                  -6.597
INTRA:                   0.000
UNBOUND:                 0.000

$$$$

     RDKit          3D

 37 24  0  0  0  0  0  0  0  0999 V2000
   42.3911    5.5067   12.2351 O   0  0  0  0  0  0  0  0  0  0  0  0
   42.7359    5.3941   12.0717 S   0  0  0  0  0  0  0  0  0  0  0  0
   43.9873    6.1070   11.7569 O   0  0  0  0  0  0  0  0  0  0  0  0
   42.6850    4.1317   11.3120 O   0  0  0  0  0  0  0  0  0  0  0  0
   42.6872    5.1010   13.5157 O   0  0  0  0  0  0  0  0  0  0  0  0
   41.5840    6.2368   11.7022 O   0  0  0  0  0  0  0  0  0  0  0  0
   42.7359    5.3941   12.0717 Na  0  0  0  0  0 15  0  0  0  0  0  0
   42.7359    5.3941   12.0717 Na  0  0  0  0  0 15  0  0  0  0  0  0
   42.3912    5.5067   12.2352 O   0  0  0  0  0  0  0  0  0  0  0  0
   42.3910    5.5070   12.2346 O   0  0  0  0  0  0  0  0  0  0  0  0
   42.3912    5.5067   12.2352 O   0  0  0  0  0  0  0  0  0  0  0  0
   42.3907    5.5073   12.2339 O   0  0  0  0  0  0  0  0  0  0  0  0
   42.3912    5.5066   12.2354 O   0  0  0  0  0  0  0  0  0  0  0  0
   42.3913    5.5065   12.2356 O   0  0  0  0  0  0  0  0  0  0  0  0
   42.3911    5.5067   12.2351 O   0  0  0  0  0  0  0  0  0  0  0  0
   42.3911    5.5067   12.2351 O   0  0  0  0  0  0  0  0  0  0  0  0
   42.3910    5.5068   12.2349 O   0  0  0  0  0  0  0  0  0  0  0  0
   43.1279    5.0406   12.6580 H   0  0  0  0  0  0  0  0  0  0  0  0
   42.6886    5.6351   11.3219 H   0  0  0  0  0  0  0  0  0  0  0  0
   42.6885    5.6351   11.3220 H   0  0  0  0  0  0  0  0  0  0  0  0
   43.1280    5.0406   12.6580 H   0  0  0  0  0  0  0  0  0  0  0  0
   43.1270    5.0408   12.6588 H   0  0  0  0  0  0  0  0  0  0  0  0
   42.6898    5.6346   11.3217 H   0  0  0  0  0  0  0  0  0  0  0  0
   42.6885    5.6351   11.3220 H   0  0  0  0  0  0  0  0  0  0  0  0
   43.1280    5.0406   12.6580 H   0  0  0  0  0  0  0  0  0  0  0  0
   42.6914    5.6339   11.3214 H   0  0  0  0  0  0  0  0  0  0  0  0
   43.1256    5.0411   12.6599 H   0  0  0  0  0  0  0  0  0  0  0  0
   42.6883    5.6352   11.3220 H   0  0  0  0  0  0  0  0  0  0  0  0
   43.1282    5.0405   12.6578 H   0  0  0  0  0  0  0  0  0  0  0  0
   42.6877    5.6355   11.3221 H   0  0  0  0  0  0  0  0  0  0  0  0
   43.1287    5.0404   12.6574 H   0  0  0  0  0  0  0  0  0  0  0  0
   42.6888    5.6350   11.3219 H   0  0  0  0  0  0  0  0  0  0  0  0
   43.1279    5.0406   12.6581 H   0  0  0  0  0  0  0  0  0  0  0  0
   42.6887    5.6350   11.3219 H   0  0  0  0  0  0  0  0  0  0  0  0
   43.1279    5.0406   12.6581 H   0  0  0  0  0  0  0  0  0  0  0  0
   42.6893    5.6348   11.3218 H   0  0  0  0  0  0  0  0  0  0  0  0
   43.1274    5.0407   12.6585 H   0  0  0  0  0  0  0  0  0  0  0  0
  2  3  2  0
  2  4  2  0
  2  5  1  0
  2  6  1  0
  1 18  1  0
  1 19  1  0
  9 20  1  0
  9 21  1  0
 10 22  1  0
 10 23  1  0
 11 24  1  0
 11 25  1  0
 12 26  1  0
 12 27  1  0
 13 28  1  0
 13 29  1  0
 14 30  1  0
 14 31  1  0
 15 32  1  0
 15 33  1  0
 16 34  1  0
 16 35  1  0
 17 36  1  0
 17 37  1  0
M  CHG  4   5  -1   6  -1   7   1   8   1
M  END
> <Uni-Dock RESULT> 
ENERGY=   -6.223  LOWER_BOUND=    7.032  UPPER_BOUND=    8.159
INTER + INTRA:          -6.223
INTER:                  -6.223
INTRA:                   0.000
UNBOUND:                 0.000

$$$$

     RDKit          3D

 37 24  0  0  0  0  0  0  0  0999 V2000
   42.2955    5.5063   11.7482 O   0  0  0  0  0  0  0  0  0  0  0  0
   42.6402    5.5656   11.9376 S   0  0  0  0  0  0  0  0  0  0  0  0
   43.0316    5.5393   13.3587 O   0  0  0  0  0  0  0  0  0  0  0  0
   43.6673    6.2803   11.1581 O   0  0  0  0  0  0  0  0  0  0  0  0
   42.5155    4.1847   11.4366 O   0  0  0  0  0  0  0  0  0  0  0  0
   41.3463    6.2581   11.7970 O   0  0  0  0  0  0  0  0  0  0  0  0
   42.6402    5.5656   11.9376 Na  0  0  0  0  0 15  0  0  0  0  0  0
   42.6402    5.5656   11.9376 Na  0  0  0  0  0 15  0  0  0  0  0  0
   42.2955    5.5062   11.7482 O   0  0  0  0  0  0  0  0  0  0  0  0
   42.2953    5.5069   11.7483 O   0  0  0  0  0  0  0  0  0  0  0  0
   42.2955    5.5062   11.7482 O   0  0  0  0  0  0  0  0  0  0  0  0
   42.2951    5.5076   11.7485 O   0  0  0  0  0  0  0  0  0  0  0  0
   42.2956    5.5061   11.7481 O   0  0  0  0  0  0  0  0  0  0  0  0
   42.2956    5.5058   11.7480 O   0  0  0  0  0  0  0  0  0  0  0  0
   42.2955    5.5063   11.7482 O   0  0  0  0  0  0  0  0  0  0  0  0
   42.2955    5.5063   11.7482 O   0  0  0  0  0  0  0  0  0  0  0  0
   42.2954    5.5066   11.7483 O   0  0  0  0  0  0  0  0  0  0  0  0
   43.0320    4.8858   11.8552 H   0  0  0  0  0  0  0  0  0  0  0  0
   42.5931    6.3047   12.2096 H   0  0  0  0  0  0  0  0  0  0  0  0
   42.5930    6.3047   12.2096 H   0  0  0  0  0  0  0  0  0  0  0  0
   43.0321    4.8859   11.8552 H   0  0  0  0  0  0  0  0  0  0  0  0
   43.0311    4.8853   11.8545 H   0  0  0  0  0  0  0  0  0  0  0  0
   42.5942    6.3046   12.2101 H   0  0  0  0  0  0  0  0  0  0  0  0
   42.5930    6.3047   12.2096 H   0  0  0  0  0  0  0  0  0  0  0  0
   43.0321    4.8859   11.8552 H   0  0  0  0  0  0  0  0  0  0  0  0
   42.5958    6.3044   12.2108 H   0  0  0  0  0  0  0  0  0  0  0  0
   43.0297    4.8847   11.8536 H   0  0  0  0  0  0  0  0  0  0  0  0
   42.5927    6.3047   12.2095 H   0  0  0  0  0  0  0  0  0  0  0  0
   43.0323    4.8860   11.8554 H   0  0  0  0  0  0  0  0  0  0  0  0
   42.5921    6.3048   12.2092 H   0  0  0  0  0  0  0  0  0  0  0  0
   43.0328    4.8862   11.8557 H   0  0  0  0  0  0  0  0  0  0  0  0
   42.5933    6.3047   12.2097 H   0  0  0  0  0  0  0  0  0  0  0  0
   43.0319    4.8857   11.8551 H   0  0  0  0  0  0  0  0  0  0  0  0
   42.5932    6.3047   12.2097 H   0  0  0  0  0  0  0  0  0  0  0  0
   43.0319    4.8857   11.8551 H   0  0  0  0  0  0  0  0  0  0  0  0
   42.5938    6.3046   12.2099 H   0  0  0  0  0  0  0  0  0  0  0  0
   43.0315    4.8855   11.8548 H   0  0  0  0  0  0  0  0  0  0  0  0
  2  3  2  0
  2  4  2  0
  2  5  1  0
  2  6  1  0
  1 18  1  0
  1 19  1  0
  9 20  1  0
  9 21  1  0
 10 22  1  0
 10 23  1  0
 11 24  1  0
 11 25  1  0
 12 26  1  0
 12 27  1  0
 13 28  1  0
 13 29  1  0
 14 30  1  0
 14 31  1  0
 15 32  1  0
 15 33  1  0
 16 34  1  0
 16 35  1  0
 17 36  1  0
 17 37  1  0
M  CHG  4   5  -1   6  -1   7   1   8   1
M  END
> <Uni-Dock RESULT> 
ENERGY=   -6.123  LOWER_BOUND=    7.214  UPPER_BOUND=    8.042
INTER + INTRA:          -6.123
INTER:                  -6.123
INTRA:                   0.000
UNBOUND:                 0.000

$$$$

     RDKit          3D

 37 24  0  0  0  0  0  0  0  0999 V2000
   47.0544    0.6770    7.2546 O   0  0  0  0  0  0  0  0  0  0  0  0
   47.1878    1.0397    7.3488 S   0  0  0  0  0  0  0  0  0  0  0  0
   48.5160    1.6766    7.2894 O   0  0  0  0  0  0  0  0  0  0  0  0
   46.3102    1.8156    8.2439 O   0  0  0  0  0  0  0  0  0  0  0  0
   46.6004    1.0010    5.9972 O   0  0  0  0  0  0  0  0  0  0  0  0
   47.3244   -0.3346    7.8647 O   0  0  0  0  0  0  0  0  0  0  0  0
   47.1878    1.0397    7.3488 Na  0  0  0  0  0 15  0  0  0  0  0  0
   47.1878    1.0397    7.3488 Na  0  0  0  0  0 15  0  0  0  0  0  0
   47.0544    0.6770    7.2545 O   0  0  0  0  0  0  0  0  0  0  0  0
   47.0546    0.6767    7.2551 O   0  0  0  0  0  0  0  0  0  0  0  0
   47.0544    0.6770    7.2545 O   0  0  0  0  0  0  0  0  0  0  0  0
   47.0549    0.6765    7.2558 O   0  0  0  0  0  0  0  0  0  0  0  0
   47.0543    0.6771    7.2543 O   0  0  0  0  0  0  0  0  0  0  0  0
   47.0542    0.6772    7.2541 O   0  0  0  0  0  0  0  0  0  0  0  0
   47.0544    0.6770    7.2546 O   0  0  0  0  0  0  0  0  0  0  0  0
   47.0544    0.6770    7.2546 O   0  0  0  0  0  0  0  0  0  0  0  0
   47.0545    0.6768    7.2548 O   0  0  0  0  0  0  0  0  0  0  0  0
   46.9840    1.4922    6.7355 H   0  0  0  0  0  0  0  0  0  0  0  0
   47.5250    0.9499    8.0564 H   0  0  0  0  0  0  0  0  0  0  0  0
   47.5249    0.9498    8.0564 H   0  0  0  0  0  0  0  0  0  0  0  0
   46.9841    1.4922    6.7355 H   0  0  0  0  0  0  0  0  0  0  0  0
   46.9835    1.4912    6.7349 H   0  0  0  0  0  0  0  0  0  0  0  0
   47.5253    0.9511    8.0564 H   0  0  0  0  0  0  0  0  0  0  0  0
   47.5249    0.9498    8.0564 H   0  0  0  0  0  0  0  0  0  0  0  0
   46.9841    1.4922    6.7355 H   0  0  0  0  0  0  0  0  0  0  0  0
   47.5256    0.9528    8.0564 H   0  0  0  0  0  0  0  0  0  0  0  0
   46.9828    1.4898    6.7341 H   0  0  0  0  0  0  0  0  0  0  0  0
   47.5249    0.9495    8.0564 H   0  0  0  0  0  0  0  0  0  0  0  0
   46.9842    1.4925    6.7357 H   0  0  0  0  0  0  0  0  0  0  0  0
   47.5247    0.9489    8.0564 H   0  0  0  0  0  0  0  0  0  0  0  0
   46.9844    1.4930    6.7359 H   0  0  0  0  0  0  0  0  0  0  0  0
   47.5250    0.9501    8.0565 H   0  0  0  0  0  0  0  0  0  0  0  0
   46.9840    1.4921    6.7354 H   0  0  0  0  0  0  0  0  0  0  0  0
   47.5250    0.9500    8.0564 H   0  0  0  0  0  0  0  0  0  0  0  0
   46.9840    1.4921    6.7354 H   0  0  0  0  0  0  0  0  0  0  0  0
   47.5251    0.9506    8.0564 H   0  0  0  0  0  0  0  0  0  0  0  0
   46.9837    1.4916    6.7352 H   0  0  0  0  0  0  0  0  0  0  0  0
  2  3  2  0
  2  4  2  0
  2  5  1  0
  2  6  1  0
  1 18  1  0
  1 19  1  0
  9 20  1  0
  9 21  1  0
 10 22  1  0
 10 23  1  0
 11 24  1  0
 11 25  1  0
 12 26  1  0
 12 27  1  0
 13 28  1  0
 13 29  1  0
 14 30  1  0
 14 31  1  0
 15 32  1  0
 15 33  1  0
 16 34  1  0
 16 35  1  0
 17 36  1  0
 17 37  1  0
M  CHG  4   5  -1   6  -1   7   1   8   1
M  END
> <Uni-Dock RESULT> 
ENERGY=   -6.089  LOWER_BOUND=    0.326  UPPER_BOUND=    1.033
INTER + INTRA:          -6.089
INTER:                  -6.089
INTRA:                   0.000
UNBOUND:                 0.000

$$$$

     RDKit          3D

 37 24  0  0  0  0  0  0  0  0999 V2000
   42.6558    5.3622   12.7080 O   0  0  0  0  0  0  0  0  0  0  0  0
   42.9463    5.3187   12.4397 S   0  0  0  0  0  0  0  0  0  0  0  0
   43.3194    4.2285   11.5201 O   0  0  0  0  0  0  0  0  0  0  0  0
   44.0855    6.2414   12.5959 O   0  0  0  0  0  0  0  0  0  0  0  0
   41.7917    6.0521   11.8897 O   0  0  0  0  0  0  0  0  0  0  0  0
   42.5885    4.7528   13.7532 O   0  0  0  0  0  0  0  0  0  0  0  0
   42.9463    5.3187   12.4397 Na  0  0  0  0  0 15  0  0  0  0  0  0
   42.9463    5.3187   12.4397 Na  0  0  0  0  0 15  0  0  0  0  0  0
   42.6558    5.3623   12.7079 O   0  0  0  0  0  0  0  0  0  0  0  0
   42.6562    5.3619   12.7084 O   0  0  0  0  0  0  0  0  0  0  0  0
   42.6558    5.3623   12.7079 O   0  0  0  0  0  0  0  0  0  0  0  0
   42.6566    5.3615   12.7089 O   0  0  0  0  0  0  0  0  0  0  0  0
   42.6557    5.3624   12.7078 O   0  0  0  0  0  0  0  0  0  0  0  0
   42.6555    5.3626   12.7076 O   0  0  0  0  0  0  0  0  0  0  0  0
   42.6558    5.3622   12.7080 O   0  0  0  0  0  0  0  0  0  0  0  0
   42.6558    5.3622   12.7080 O   0  0  0  0  0  0  0  0  0  0  0  0
   42.6560    5.3621   12.7082 O   0  0  0  0  0  0  0  0  0  0  0  0
   42.6940    5.7166   11.8069 H   0  0  0  0  0  0  0  0  0  0  0  0
   43.4891    4.8771   12.8043 H   0  0  0  0  0  0  0  0  0  0  0  0
   43.4890    4.8771   12.8043 H   0  0  0  0  0  0  0  0  0  0  0  0
   42.6941    5.7165   11.8069 H   0  0  0  0  0  0  0  0  0  0  0  0
   42.6929    5.7169   11.8075 H   0  0  0  0  0  0  0  0  0  0  0  0
   43.4898    4.8772   12.8033 H   0  0  0  0  0  0  0  0  0  0  0  0
   43.4890    4.8771   12.8043 H   0  0  0  0  0  0  0  0  0  0  0  0
   42.6941    5.7165   11.8069 H   0  0  0  0  0  0  0  0  0  0  0  0
   43.4908    4.8773   12.8018 H   0  0  0  0  0  0  0  0  0  0  0  0
   42.6915    5.7173   11.8084 H   0  0  0  0  0  0  0  0  0  0  0  0
   43.4888    4.8771   12.8046 H   0  0  0  0  0  0  0  0  0  0  0  0
   42.6944    5.7165   11.8067 H   0  0  0  0  0  0  0  0  0  0  0  0
   43.4885    4.8771   12.8051 H   0  0  0  0  0  0  0  0  0  0  0  0
   42.6949    5.7163   11.8064 H   0  0  0  0  0  0  0  0  0  0  0  0
   43.4892    4.8771   12.8041 H   0  0  0  0  0  0  0  0  0  0  0  0
   42.6939    5.7166   11.8069 H   0  0  0  0  0  0  0  0  0  0  0  0
   43.4891    4.8771   12.8042 H   0  0  0  0  0  0  0  0  0  0  0  0
   42.6939    5.7166   11.8069 H   0  0  0  0  0  0  0  0  0  0  0  0
   43.4895    4.8772   12.8037 H   0  0  0  0  0  0  0  0  0  0  0  0
   42.6934    5.7167   11.8073 H   0  0  0  0  0  0  0  0  0  0  0  0
  2  3  2  0
  2  4  2  0
  2  5  1  0
  2  6  1  0
  1 18  1  0
  1 19  1  0
  9 20  1  0
  9 21  1  0
 10 22  1  0
 10 23  1  0
 11 24  1  0
 11 25  1  0
 12 26  1  0
 12 27  1  0
 13 28  1  0
 13 29  1  0
 14 30  1  0
 14 31  1  0
 15 32  1  0
 15 33  1  0
 16 34  1  0
 16 35  1  0
 17 36  1  0
 17 37  1  0
M  CHG  4   5  -1   6  -1   7   1   8   1
M  END
> <Uni-Dock RESULT> 
ENERGY=   -6.045  LOWER_BOUND=    6.867  UPPER_BOUND=    8.237
INTER + INTRA:          -6.045
INTER:                  -6.045
INTRA:                   0.000
UNBOUND:                 0.000

$$$$

     RDKit          3D

 37 24  0  0  0  0  0  0  0  0999 V2000
   39.9239   12.3187   15.9112 O   0  0  0  0  0  0  0  0  0  0  0  0
   39.8287   12.5164   15.5795 S   0  0  0  0  0  0  0  0  0  0  0  0
   39.5993   12.1005   14.1839 O   0  0  0  0  0  0  0  0  0  0  0  0
   40.0746   13.9693   15.6252 O   0  0  0  0  0  0  0  0  0  0  0  0
   38.6406   12.1934   16.3903 O   0  0  0  0  0  0  0  0  0  0  0  0
   41.0005   11.8025   16.1187 O   0  0  0  0  0  0  0  0  0  0  0  0
   39.8287   12.5164   15.5795 Na  0  0  0  0  0 15  0  0  0  0  0  0
   39.8287   12.5164   15.5795 Na  0  0  0  0  0 15  0  0  0  0  0  0
   39.9239   12.3187   15.9113 O   0  0  0  0  0  0  0  0  0  0  0  0
   39.9245   12.3186   15.9111 O   0  0  0  0  0  0  0  0  0  0  0  0
   39.9239   12.3187   15.9113 O   0  0  0  0  0  0  0  0  0  0  0  0
   39.9253   12.3186   15.9108 O   0  0  0  0  0  0  0  0  0  0  0  0
   39.9237   12.3187   15.9113 O   0  0  0  0  0  0  0  0  0  0  0  0
   39.9234   12.3187   15.9114 O   0  0  0  0  0  0  0  0  0  0  0  0
   39.9239   12.3187   15.9112 O   0  0  0  0  0  0  0  0  0  0  0  0
   39.9239   12.3187   15.9112 O   0  0  0  0  0  0  0  0  0  0  0  0
   39.9242   12.3187   15.9112 O   0  0  0  0  0  0  0  0  0  0  0  0
   39.0504   12.6333   15.6339 H   0  0  0  0  0  0  0  0  0  0  0  0
   40.5119   12.5973   15.1933 H   0  0  0  0  0  0  0  0  0  0  0  0
   40.5119   12.5973   15.1933 H   0  0  0  0  0  0  0  0  0  0  0  0
   39.0504   12.6333   15.6338 H   0  0  0  0  0  0  0  0  0  0  0  0
   39.0503   12.6327   15.6350 H   0  0  0  0  0  0  0  0  0  0  0  0
   40.5113   12.5979   15.1923 H   0  0  0  0  0  0  0  0  0  0  0  0
   40.5119   12.5973   15.1933 H   0  0  0  0  0  0  0  0  0  0  0  0
   39.0504   12.6333   15.6338 H   0  0  0  0  0  0  0  0  0  0  0  0
   40.5105   12.5988   15.1911 H   0  0  0  0  0  0  0  0  0  0  0  0
   39.0504   12.6319   15.6366 H   0  0  0  0  0  0  0  0  0  0  0  0
   40.5121   12.5971   15.1936 H   0  0  0  0  0  0  0  0  0  0  0  0
   39.0504   12.6335   15.6336 H   0  0  0  0  0  0  0  0  0  0  0  0
   40.5124   12.5968   15.1940 H   0  0  0  0  0  0  0  0  0  0  0  0
   39.0504   12.6338   15.6330 H   0  0  0  0  0  0  0  0  0  0  0  0
   40.5119   12.5974   15.1931 H   0  0  0  0  0  0  0  0  0  0  0  0
   39.0504   12.6332   15.6340 H   0  0  0  0  0  0  0  0  0  0  0  0
   40.5119   12.5974   15.1932 H   0  0  0  0  0  0  0  0  0  0  0  0
   39.0504   12.6332   15.6340 H   0  0  0  0  0  0  0  0  0  0  0  0
   40.5116   12.5977   15.1927 H   0  0  0  0  0  0  0  0  0  0  0  0
   39.0504   12.6330   15.6346 H   0  0  0  0  0  0  0  0  0  0  0  0
  2  3  2  0
  2  4  2  0
  2  5  1  0
  2  6  1  0
  1 18  1  0
  1 19  1  0
  9 20  1  0
  9 21  1  0
 10 22  1  0
 10 23  1  0
 11 24  1  0
 11 25  1  0
 12 26  1  0
 12 27  1  0
 13 28  1  0
 13 29  1  0
 14 30  1  0
 14 31  1  0
 15 32  1  0
 15 33  1  0
 16 34  1  0
 16 35  1  0
 17 36  1  0
 17 37  1  0
M  CHG  4   5  -1   6  -1   7   1   8   1
M  END
> <Uni-Dock RESULT> 
ENERGY=   -5.967  LOWER_BOUND=   15.276  UPPER_BOUND=   16.007
INTER + INTRA:          -5.967
INTER:                  -5.967
INTRA:                   0.000
UNBOUND:                 0.000

$$$$

     RDKit          3D

 37 24  0  0  0  0  0  0  0  0999 V2000
   39.6731   12.3069   15.9511 O   0  0  0  0  0  0  0  0  0  0  0  0
   39.7518   12.5764   15.6693 S   0  0  0  0  0  0  0  0  0  0  0  0
   39.9689   14.0343   15.6956 O   0  0  0  0  0  0  0  0  0  0  0  0
   39.4410   12.1505   14.2925 O   0  0  0  0  0  0  0  0  0  0  0  0
   40.9712   11.8895   16.1327 O   0  0  0  0  0  0  0  0  0  0  0  0
   38.6261   12.2311   16.5564 O   0  0  0  0  0  0  0  0  0  0  0  0
   39.7518   12.5764   15.6693 Na  0  0  0  0  0 15  0  0  0  0  0  0
   39.7518   12.5764   15.6693 Na  0  0  0  0  0 15  0  0  0  0  0  0
   39.6732   12.3068   15.9511 O   0  0  0  0  0  0  0  0  0  0  0  0
   39.6725   12.3070   15.9511 O   0  0  0  0  0  0  0  0  0  0  0  0
   39.6732   12.3068   15.9511 O   0  0  0  0  0  0  0  0  0  0  0  0
   39.6718   12.3073   15.9511 O   0  0  0  0  0  0  0  0  0  0  0  0
   39.6734   12.3068   15.9511 O   0  0  0  0  0  0  0  0  0  0  0  0
   39.6737   12.3067   15.9511 O   0  0  0  0  0  0  0  0  0  0  0  0
   39.6731   12.3069   15.9511 O   0  0  0  0  0  0  0  0  0  0  0  0
   39.6731   12.3069   15.9511 O   0  0  0  0  0  0  0  0  0  0  0  0
   39.6728   12.3069   15.9511 O   0  0  0  0  0  0  0  0  0  0  0  0
   40.5250   12.5008   15.5320 H   0  0  0  0  0  0  0  0  0  0  0  0
   39.0572   12.9215   15.5248 H   0  0  0  0  0  0  0  0  0  0  0  0
   39.0572   12.9215   15.5249 H   0  0  0  0  0  0  0  0  0  0  0  0
   40.5250   12.5008   15.5320 H   0  0  0  0  0  0  0  0  0  0  0  0
   40.5251   12.4998   15.5329 H   0  0  0  0  0  0  0  0  0  0  0  0
   39.0578   12.9223   15.5240 H   0  0  0  0  0  0  0  0  0  0  0  0
   39.0572   12.9215   15.5249 H   0  0  0  0  0  0  0  0  0  0  0  0
   40.5250   12.5008   15.5320 H   0  0  0  0  0  0  0  0  0  0  0  0
   39.0586   12.9233   15.5228 H   0  0  0  0  0  0  0  0  0  0  0  0
   40.5252   12.4986   15.5341 H   0  0  0  0  0  0  0  0  0  0  0  0
   39.0571   12.9213   15.5251 H   0  0  0  0  0  0  0  0  0  0  0  0
   40.5250   12.5011   15.5318 H   0  0  0  0  0  0  0  0  0  0  0  0
   39.0568   12.9209   15.5255 H   0  0  0  0  0  0  0  0  0  0  0  0
   40.5250   12.5015   15.5313 H   0  0  0  0  0  0  0  0  0  0  0  0
   39.0573   12.9217   15.5247 H   0  0  0  0  0  0  0  0  0  0  0  0
   40.5251   12.5007   15.5321 H   0  0  0  0  0  0  0  0  0  0  0  0
   39.0573   12.9216   15.5247 H   0  0  0  0  0  0  0  0  0  0  0  0
   40.5251   12.5007   15.5321 H   0  0  0  0  0  0  0  0  0  0  0  0
   39.0576   12.9220   15.5243 H   0  0  0  0  0  0  0  0  0  0  0  0
   40.5251   12.5002   15.5325 H   0  0  0  0  0  0  0  0  0  0  0  0
  2  3  2  0
  2  4  2  0
  2  5  1  0
  2  6  1  0
  1 18  1  0
  1 19  1  0
  9 20  1  0
  9 21  1  0
 10 22  1  0
 10 23  1  0
 11 24  1  0
 11 25  1  0
 12 26  1  0
 12 27  1  0
 13 28  1  0
 13 29  1  0
 14 30  1  0
 14 31  1  0
 15 32  1  0
 15 33  1  0
 16 34  1  0
 16 35  1  0
 17 36  1  0
 17 37  1  0
M  CHG  4   5  -1   6  -1   7   1   8   1
M  END
> <Uni-Dock RESULT> 
ENERGY=   -5.800  LOWER_BOUND=   15.432  UPPER_BOUND=   16.108
INTER + INTRA:          -5.800
INTER:                  -5.800
INTRA:                   0.000
UNBOUND:                 0.000

$$$$

     RDKit          3D

 37 24  0  0  0  0  0  0  0  0999 V2000
   46.5539    3.9399    7.0869 O   0  0  0  0  0  0  0  0  0  0  0  0
   46.6994    3.6114    6.9161 S   0  0  0  0  0  0  0  0  0  0  0  0
   47.4110    2.4300    7.4369 O   0  0  0  0  0  0  0  0  0  0  0  0
   46.8948    3.6994    5.4575 O   0  0  0  0  0  0  0  0  0  0  0  0
   45.2605    3.4887    7.2126 O   0  0  0  0  0  0  0  0  0  0  0  0
   47.2313    4.8277    7.5573 O   0  0  0  0  0  0  0  0  0  0  0  0
   46.6994    3.6114    6.9161 Na  0  0  0  0  0 15  0  0  0  0  0  0
   46.6994    3.6114    6.9161 Na  0  0  0  0  0 15  0  0  0  0  0  0
   46.5538    3.9398    7.0869 O   0  0  0  0  0  0  0  0  0  0  0  0
   46.5545    3.9401    7.0869 O   0  0  0  0  0  0  0  0  0  0  0  0
   46.5538    3.9398    7.0869 O   0  0  0  0  0  0  0  0  0  0  0  0
   46.5552    3.9404    7.0870 O   0  0  0  0  0  0  0  0  0  0  0  0
   46.5537    3.9397    7.0869 O   0  0  0  0  0  0  0  0  0  0  0  0
   46.5534    3.9396    7.0869 O   0  0  0  0  0  0  0  0  0  0  0  0
   46.5539    3.9399    7.0869 O   0  0  0  0  0  0  0  0  0  0  0  0
   46.5539    3.9399    7.0869 O   0  0  0  0  0  0  0  0  0  0  0  0
   46.5542    3.9400    7.0869 O   0  0  0  0  0  0  0  0  0  0  0  0
   46.0718    3.1439    6.8169 H   0  0  0  0  0  0  0  0  0  0  0  0
   47.4727    3.7505    6.8444 H   0  0  0  0  0  0  0  0  0  0  0  0
   47.4727    3.7506    6.8445 H   0  0  0  0  0  0  0  0  0  0  0  0
   46.0718    3.1438    6.8168 H   0  0  0  0  0  0  0  0  0  0  0  0
   46.0710    3.1448    6.8174 H   0  0  0  0  0  0  0  0  0  0  0  0
   47.4729    3.7494    6.8439 H   0  0  0  0  0  0  0  0  0  0  0  0
   47.4727    3.7506    6.8445 H   0  0  0  0  0  0  0  0  0  0  0  0
   46.0718    3.1438    6.8168 H   0  0  0  0  0  0  0  0  0  0  0  0
   47.4731    3.7478    6.8432 H   0  0  0  0  0  0  0  0  0  0  0  0
   46.0700    3.1460    6.8181 H   0  0  0  0  0  0  0  0  0  0  0  0
   47.4727    3.7509    6.8446 H   0  0  0  0  0  0  0  0  0  0  0  0
   46.0720    3.1436    6.8167 H   0  0  0  0  0  0  0  0  0  0  0  0
   47.4726    3.7514    6.8449 H   0  0  0  0  0  0  0  0  0  0  0  0
   46.0723    3.1432    6.8165 H   0  0  0  0  0  0  0  0  0  0  0  0
   47.4728    3.7503    6.8443 H   0  0  0  0  0  0  0  0  0  0  0  0
   46.0716    3.1440    6.8169 H   0  0  0  0  0  0  0  0  0  0  0  0
   47.4728    3.7504    6.8444 H   0  0  0  0  0  0  0  0  0  0  0  0
   46.0716    3.1440    6.8169 H   0  0  0  0  0  0  0  0  0  0  0  0
   47.4728    3.7498    6.8441 H   0  0  0  0  0  0  0  0  0  0  0  0
   46.0713    3.1444    6.8172 H   0  0  0  0  0  0  0  0  0  0  0  0
  2  3  2  0
  2  4  2  0
  2  5  1  0
  2  6  1  0
  1 18  1  0
  1 19  1  0
  9 20  1  0
  9 21  1  0
 10 22  1  0
 10 23  1  0
 11 24  1  0
 11 25  1  0
 12 26  1  0
 12 27  1  0
 13 28  1  0
 13 29  1  0
 14 30  1  0
 14 31  1  0
 15 32  1  0
 15 33  1  0
 16 34  1  0
 16 35  1  0
 17 36  1  0
 17 37  1  0
M  CHG  4   5  -1   6  -1   7   1   8   1
M  END
> <Uni-Dock RESULT> 
ENERGY=   -5.659  LOWER_BOUND=    2.380  UPPER_BOUND=    3.113
INTER + INTRA:          -5.659
INTER:                  -5.659
INTRA:                   0.000
UNBOUND:                 0.000

$$$$
