
     RDKit          3D

 37 24  0  0  0  0  0  0  0  0999 V2000
   47.3987    1.0075    7.2813 O   0  0  0  0  0  0  0  0  0  0  0  0
   47.0882    1.2509    7.2306 S   0  0  0  0  0  0  0  0  0  0  0  0
   46.4724    1.6397    5.9487 O   0  0  0  0  0  0  0  0  0  0  0  0
   46.4126    1.9570    8.3345 O   0  0  0  0  0  0  0  0  0  0  0  0
   46.9501   -0.2044    7.4207 O   0  0  0  0  0  0  0  0  0  0  0  0
   48.5176    1.6114    7.2184 O   0  0  0  0  0  0  0  0  0  0  0  0
   47.0882    1.2509    7.2306 Na  0  0  0  0  0 15  0  0  0  0  0  0
   47.0882    1.2509    7.2306 Na  0  0  0  0  0 15  0  0  0  0  0  0
   47.3980    1.0067    7.2814 O   0  0  0  0  0  0  0  0  0  0  0  0
   47.3981    1.0068    7.2814 O   0  0  0  0  0  0  0  0  0  0  0  0
   47.3987    1.0075    7.2813 O   0  0  0  0  0  0  0  0  0  0  0  0
   47.3982    1.0069    7.2814 O   0  0  0  0  0  0  0  0  0  0  0  0
   47.3992    1.0082    7.2812 O   0  0  0  0  0  0  0  0  0  0  0  0
   47.3993    1.0082    7.2812 O   0  0  0  0  0  0  0  0  0  0  0  0
   47.3993    1.0082    7.2812 O   0  0  0  0  0  0  0  0  0  0  0  0
   47.3987    1.0075    7.2813 O   0  0  0  0  0  0  0  0  0  0  0  0
   47.3984    1.0071    7.2814 O   0  0  0  0  0  0  0  0  0  0  0  0
   47.4101    1.9590    7.0986 H   0  0  0  0  0  0  0  0  0  0  0  0
   46.4558    0.7863    7.3119 H   0  0  0  0  0  0  0  0  0  0  0  0
   46.4547    0.7878    7.3116 H   0  0  0  0  0  0  0  0  0  0  0  0
   47.4118    1.9583    7.0987 H   0  0  0  0  0  0  0  0  0  0  0  0
   47.4118    1.9583    7.0987 H   0  0  0  0  0  0  0  0  0  0  0  0
   46.4547    0.7878    7.3116 H   0  0  0  0  0  0  0  0  0  0  0  0
   47.4100    1.9591    7.0986 H   0  0  0  0  0  0  0  0  0  0  0  0
   46.4558    0.7863    7.3119 H   0  0  0  0  0  0  0  0  0  0  0  0
   47.4114    1.9585    7.0987 H   0  0  0  0  0  0  0  0  0  0  0  0
   46.4549    0.7873    7.3117 H   0  0  0  0  0  0  0  0  0  0  0  0
   47.4085    1.9597    7.0984 H   0  0  0  0  0  0  0  0  0  0  0  0
   46.4568    0.7849    7.3122 H   0  0  0  0  0  0  0  0  0  0  0  0
   47.4082    1.9598    7.0984 H   0  0  0  0  0  0  0  0  0  0  0  0
   46.4569    0.7848    7.3122 H   0  0  0  0  0  0  0  0  0  0  0  0
   47.4082    1.9598    7.0984 H   0  0  0  0  0  0  0  0  0  0  0  0
   46.4570    0.7847    7.3122 H   0  0  0  0  0  0  0  0  0  0  0  0
   46.4557    0.7864    7.3119 H   0  0  0  0  0  0  0  0  0  0  0  0
   47.4102    1.9589    7.0986 H   0  0  0  0  0  0  0  0  0  0  0  0
   46.4552    0.7870    7.3117 H   0  0  0  0  0  0  0  0  0  0  0  0
   47.4109    1.9586    7.0987 H   0  0  0  0  0  0  0  0  0  0  0  0
  2  3  2  0
  2  4  2  0
  2  5  1  0
  2  6  1  0
  1 18  1  0
  1 19  1  0
  9 20  1  0
  9 21  1  0
 10 22  1  0
 10 23  1  0
 11 24  1  0
 11 25  1  0
 12 26  1  0
 12 27  1  0
 13 28  1  0
 13 29  1  0
 14 30  1  0
 14 31  1  0
 15 32  1  0
 15 33  1  0
 16 34  1  0
 16 35  1  0
 17 36  1  0
 17 37  1  0
M  CHG  4   5  -1   6  -1   7   1   8   1
M  END
> <Uni-Dock RESULT> 
ENERGY=   -6.940  LOWER_BOUND=    0.000  UPPER_BOUND=    0.000
INTER + INTRA:          -6.940
INTER:                  -6.940
INTRA:                   0.000
UNBOUND:                 0.000

$$$$

     RDKit          3D

 37 24  0  0  0  0  0  0  0  0999 V2000
   47.3762    0.9766    7.2860 O   0  0  0  0  0  0  0  0  0  0  0  0
   47.0825    1.2422    7.2489 S   0  0  0  0  0  0  0  0  0  0  0  0
   46.3985    1.9587    8.3409 O   0  0  0  0  0  0  0  0  0  0  0  0
   46.4699    1.6111    5.9597 O   0  0  0  0  0  0  0  0  0  0  0  0
   48.5099    1.6105    7.2379 O   0  0  0  0  0  0  0  0  0  0  0  0
   46.9517   -0.2113    7.4573 O   0  0  0  0  0  0  0  0  0  0  0  0
   47.0825    1.2422    7.2489 Na  0  0  0  0  0 15  0  0  0  0  0  0
   47.0825    1.2422    7.2489 Na  0  0  0  0  0 15  0  0  0  0  0  0
   47.3769    0.9773    7.2858 O   0  0  0  0  0  0  0  0  0  0  0  0
   47.3768    0.9772    7.2858 O   0  0  0  0  0  0  0  0  0  0  0  0
   47.3762    0.9766    7.2860 O   0  0  0  0  0  0  0  0  0  0  0  0
   47.3767    0.9771    7.2859 O   0  0  0  0  0  0  0  0  0  0  0  0
   47.3756    0.9759    7.2861 O   0  0  0  0  0  0  0  0  0  0  0  0
   47.3756    0.9758    7.2861 O   0  0  0  0  0  0  0  0  0  0  0  0
   47.3756    0.9758    7.2861 O   0  0  0  0  0  0  0  0  0  0  0  0
   47.3762    0.9766    7.2860 O   0  0  0  0  0  0  0  0  0  0  0  0
   47.3766    0.9769    7.2859 O   0  0  0  0  0  0  0  0  0  0  0  0
   46.4212    0.8210    7.3366 H   0  0  0  0  0  0  0  0  0  0  0  0
   47.4500    1.9291    7.1243 H   0  0  0  0  0  0  0  0  0  0  0  0
   47.4484    1.9299    7.1242 H   0  0  0  0  0  0  0  0  0  0  0  0
   46.4222    0.8195    7.3368 H   0  0  0  0  0  0  0  0  0  0  0  0
   46.4222    0.8195    7.3368 H   0  0  0  0  0  0  0  0  0  0  0  0
   47.4484    1.9299    7.1242 H   0  0  0  0  0  0  0  0  0  0  0  0
   46.4211    0.8211    7.3366 H   0  0  0  0  0  0  0  0  0  0  0  0
   47.4501    1.9290    7.1243 H   0  0  0  0  0  0  0  0  0  0  0  0
   46.4219    0.8199    7.3368 H   0  0  0  0  0  0  0  0  0  0  0  0
   47.4489    1.9298    7.1242 H   0  0  0  0  0  0  0  0  0  0  0  0
   46.4202    0.8225    7.3364 H   0  0  0  0  0  0  0  0  0  0  0  0
   47.4516    1.9283    7.1244 H   0  0  0  0  0  0  0  0  0  0  0  0
   46.4200    0.8227    7.3363 H   0  0  0  0  0  0  0  0  0  0  0  0
   47.4518    1.9282    7.1244 H   0  0  0  0  0  0  0  0  0  0  0  0
   46.4200    0.8227    7.3363 H   0  0  0  0  0  0  0  0  0  0  0  0
   47.4518    1.9281    7.1244 H   0  0  0  0  0  0  0  0  0  0  0  0
   47.4500    1.9292    7.1243 H   0  0  0  0  0  0  0  0  0  0  0  0
   46.4212    0.8210    7.3366 H   0  0  0  0  0  0  0  0  0  0  0  0
   47.4492    1.9296    7.1242 H   0  0  0  0  0  0  0  0  0  0  0  0
   46.4217    0.8203    7.3367 H   0  0  0  0  0  0  0  0  0  0  0  0
  2  3  2  0
  2  4  2  0
  2  5  1  0
  2  6  1  0
  1 18  1  0
  1 19  1  0
  9 20  1  0
  9 21  1  0
 10 22  1  0
 10 23  1  0
 11 24  1  0
 11 25  1  0
 12 26  1  0
 12 27  1  0
 13 28  1  0
 13 29  1  0
 14 30  1  0
 14 31  1  0
 15 32  1  0
 15 33  1  0
 16 34  1  0
 16 35  1  0
 17 36  1  0
 17 37  1  0
M  CHG  4   5  -1   6  -1   7   1   8   1
M  END
> <Uni-Dock RESULT> 
ENERGY=   -6.937  LOWER_BOUND=    0.033  UPPER_BOUND=    1.168
INTER + INTRA:          -6.937
INTER:                  -6.937
INTRA:                   0.000
UNBOUND:                 0.000

$$$$

     RDKit          3D

 37 24  0  0  0  0  0  0  0  0999 V2000
   46.8192    0.6782    7.6631 O   0  0  0  0  0  0  0  0  0  0  0  0
   46.9918    0.8974    7.3796 S   0  0  0  0  0  0  0  0  0  0  0  0
   46.3789    1.3458    6.1159 O   0  0  0  0  0  0  0  0  0  0  0  0
   48.3985    1.3361    7.4263 O   0  0  0  0  0  0  0  0  0  0  0  0
   46.2570    1.4813    8.5164 O   0  0  0  0  0  0  0  0  0  0  0  0
   46.9326   -0.5734    7.4596 O   0  0  0  0  0  0  0  0  0  0  0  0
   46.9918    0.8974    7.3796 Na  0  0  0  0  0 15  0  0  0  0  0  0
   46.9918    0.8974    7.3796 Na  0  0  0  0  0 15  0  0  0  0  0  0
   46.8189    0.6790    7.6636 O   0  0  0  0  0  0  0  0  0  0  0  0
   46.8190    0.6789    7.6635 O   0  0  0  0  0  0  0  0  0  0  0  0
   46.8192    0.6782    7.6631 O   0  0  0  0  0  0  0  0  0  0  0  0
   46.8190    0.6787    7.6634 O   0  0  0  0  0  0  0  0  0  0  0  0
   46.8194    0.6774    7.6626 O   0  0  0  0  0  0  0  0  0  0  0  0
   46.8194    0.6773    7.6626 O   0  0  0  0  0  0  0  0  0  0  0  0
   46.8194    0.6773    7.6626 O   0  0  0  0  0  0  0  0  0  0  0  0
   46.8192    0.6782    7.6631 O   0  0  0  0  0  0  0  0  0  0  0  0
   46.8191    0.6786    7.6633 O   0  0  0  0  0  0  0  0  0  0  0  0
   47.2704    0.3706    6.8626 H   0  0  0  0  0  0  0  0  0  0  0  0
   46.8857    1.6436    7.6130 H   0  0  0  0  0  0  0  0  0  0  0  0
   46.8866    1.6441    7.6115 H   0  0  0  0  0  0  0  0  0  0  0  0
   47.2698    0.3692    6.8636 H   0  0  0  0  0  0  0  0  0  0  0  0
   47.2698    0.3692    6.8636 H   0  0  0  0  0  0  0  0  0  0  0  0
   46.8866    1.6441    7.6115 H   0  0  0  0  0  0  0  0  0  0  0  0
   47.2705    0.3707    6.8625 H   0  0  0  0  0  0  0  0  0  0  0  0
   46.8856    1.6435    7.6131 H   0  0  0  0  0  0  0  0  0  0  0  0
   47.2699    0.3696    6.8633 H   0  0  0  0  0  0  0  0  0  0  0  0
   46.8863    1.6440    7.6119 H   0  0  0  0  0  0  0  0  0  0  0  0
   47.2710    0.3719    6.8616 H   0  0  0  0  0  0  0  0  0  0  0  0
   46.8848    1.6430    7.6144 H   0  0  0  0  0  0  0  0  0  0  0  0
   47.2712    0.3721    6.8614 H   0  0  0  0  0  0  0  0  0  0  0  0
   46.8847    1.6429    7.6146 H   0  0  0  0  0  0  0  0  0  0  0  0
   47.2712    0.3721    6.8614 H   0  0  0  0  0  0  0  0  0  0  0  0
   46.8847    1.6429    7.6147 H   0  0  0  0  0  0  0  0  0  0  0  0
   46.8857    1.6436    7.6129 H   0  0  0  0  0  0  0  0  0  0  0  0
   47.2704    0.3706    6.8627 H   0  0  0  0  0  0  0  0  0  0  0  0
   46.8861    1.6439    7.6122 H   0  0  0  0  0  0  0  0  0  0  0  0
   47.2701    0.3700    6.8632 H   0  0  0  0  0  0  0  0  0  0  0  0
  2  3  2  0
  2  4  2  0
  2  5  1  0
  2  6  1  0
  1 18  1  0
  1 19  1  0
  9 20  1  0
  9 21  1  0
 10 22  1  0
 10 23  1  0
 11 24  1  0
 11 25  1  0
 12 26  1  0
 12 27  1  0
 13 28  1  0
 13 29  1  0
 14 30  1  0
 14 31  1  0
 15 32  1  0
 15 33  1  0
 16 34  1  0
 16 35  1  0
 17 36  1  0
 17 37  1  0
M  CHG  4   5  -1   6  -1   7   1   8   1
M  END
> <Uni-Dock RESULT> 
ENERGY=   -6.388  LOWER_BOUND=    0.644  UPPER_BOUND=    1.176
INTER + INTRA:          -6.388
INTER:                  -6.388
INTRA:                   0.000
UNBOUND:                 0.000

$$$$

     RDKit          3D

 37 24  0  0  0  0  0  0  0  0999 V2000
   42.4681    5.4643   12.3703 O   0  0  0  0  0  0  0  0  0  0  0  0
   42.7700    5.3395   12.1433 S   0  0  0  0  0  0  0  0  0  0  0  0
   44.0468    6.0391   11.9113 O   0  0  0  0  0  0  0  0  0  0  0  0
   42.7367    4.1001   11.3457 O   0  0  0  0  0  0  0  0  0  0  0  0
   42.6448    5.0067   13.5739 O   0  0  0  0  0  0  0  0  0  0  0  0
   41.6516    6.2123   11.7421 O   0  0  0  0  0  0  0  0  0  0  0  0
   42.7700    5.3395   12.1433 Na  0  0  0  0  0 15  0  0  0  0  0  0
   42.7700    5.3395   12.1433 Na  0  0  0  0  0 15  0  0  0  0  0  0
   42.4685    5.4638   12.3710 O   0  0  0  0  0  0  0  0  0  0  0  0
   42.4684    5.4638   12.3710 O   0  0  0  0  0  0  0  0  0  0  0  0
   42.4681    5.4643   12.3703 O   0  0  0  0  0  0  0  0  0  0  0  0
   42.4684    5.4639   12.3708 O   0  0  0  0  0  0  0  0  0  0  0  0
   42.4678    5.4648   12.3696 O   0  0  0  0  0  0  0  0  0  0  0  0
   42.4677    5.4648   12.3695 O   0  0  0  0  0  0  0  0  0  0  0  0
   42.4677    5.4648   12.3695 O   0  0  0  0  0  0  0  0  0  0  0  0
   42.4681    5.4643   12.3703 O   0  0  0  0  0  0  0  0  0  0  0  0
   42.4683    5.4640   12.3707 O   0  0  0  0  0  0  0  0  0  0  0  0
   42.6477    5.6827   11.4435 H   0  0  0  0  0  0  0  0  0  0  0  0
   43.1942    4.8715   12.6160 H   0  0  0  0  0  0  0  0  0  0  0  0
   43.1954    4.8712   12.6146 H   0  0  0  0  0  0  0  0  0  0  0  0
   42.6462    5.6836   11.4441 H   0  0  0  0  0  0  0  0  0  0  0  0
   42.6462    5.6836   11.4441 H   0  0  0  0  0  0  0  0  0  0  0  0
   43.1954    4.8712   12.6146 H   0  0  0  0  0  0  0  0  0  0  0  0
   42.6478    5.6827   11.4434 H   0  0  0  0  0  0  0  0  0  0  0  0
   43.1941    4.8716   12.6161 H   0  0  0  0  0  0  0  0  0  0  0  0
   42.6466    5.6834   11.4439 H   0  0  0  0  0  0  0  0  0  0  0  0
   43.1950    4.8713   12.6150 H   0  0  0  0  0  0  0  0  0  0  0  0
   42.6491    5.6820   11.4428 H   0  0  0  0  0  0  0  0  0  0  0  0
   43.1931    4.8718   12.6174 H   0  0  0  0  0  0  0  0  0  0  0  0
   42.6494    5.6819   11.4427 H   0  0  0  0  0  0  0  0  0  0  0  0
   43.1929    4.8719   12.6175 H   0  0  0  0  0  0  0  0  0  0  0  0
   42.6494    5.6819   11.4427 H   0  0  0  0  0  0  0  0  0  0  0  0
   43.1928    4.8719   12.6175 H   0  0  0  0  0  0  0  0  0  0  0  0
   43.1942    4.8715   12.6159 H   0  0  0  0  0  0  0  0  0  0  0  0
   42.6476    5.6828   11.4436 H   0  0  0  0  0  0  0  0  0  0  0  0
   43.1948    4.8714   12.6153 H   0  0  0  0  0  0  0  0  0  0  0  0
   42.6470    5.6831   11.4439 H   0  0  0  0  0  0  0  0  0  0  0  0
  2  3  2  0
  2  4  2  0
  2  5  1  0
  2  6  1  0
  1 18  1  0
  1 19  1  0
  9 20  1  0
  9 21  1  0
 10 22  1  0
 10 23  1  0
 11 24  1  0
 11 25  1  0
 12 26  1  0
 12 27  1  0
 13 28  1  0
 13 29  1  0
 14 30  1  0
 14 31  1  0
 15 32  1  0
 15 33  1  0
 16 34  1  0
 16 35  1  0
 17 36  1  0
 17 37  1  0
M  CHG  4   5  -1   6  -1   7   1   8   1
M  END
> <Uni-Dock RESULT> 
ENERGY=   -6.135  LOWER_BOUND=    7.035  UPPER_BOUND=    8.187
INTER + INTRA:          -6.135
INTER:                  -6.135
INTRA:                   0.000
UNBOUND:                 0.000

$$$$

     RDKit          3D

 37 24  0  0  0  0  0  0  0  0999 V2000
   42.5010    5.4495   12.4232 O   0  0  0  0  0  0  0  0  0  0  0  0
   42.7834    5.3239   12.1727 S   0  0  0  0  0  0  0  0  0  0  0  0
   42.7590    4.0930   11.3618 O   0  0  0  0  0  0  0  0  0  0  0  0
   44.0661    6.0215   11.9687 O   0  0  0  0  0  0  0  0  0  0  0  0
   41.6745    6.2045   11.7627 O   0  0  0  0  0  0  0  0  0  0  0  0
   42.6340    4.9766   13.5976 O   0  0  0  0  0  0  0  0  0  0  0  0
   42.7834    5.3239   12.1727 Na  0  0  0  0  0 15  0  0  0  0  0  0
   42.7834    5.3239   12.1727 Na  0  0  0  0  0 15  0  0  0  0  0  0
   42.5006    5.4501   12.4224 O   0  0  0  0  0  0  0  0  0  0  0  0
   42.5007    5.4500   12.4225 O   0  0  0  0  0  0  0  0  0  0  0  0
   42.5010    5.4495   12.4232 O   0  0  0  0  0  0  0  0  0  0  0  0
   42.5007    5.4499   12.4227 O   0  0  0  0  0  0  0  0  0  0  0  0
   42.5014    5.4490   12.4238 O   0  0  0  0  0  0  0  0  0  0  0  0
   42.5014    5.4489   12.4239 O   0  0  0  0  0  0  0  0  0  0  0  0
   42.5014    5.4489   12.4239 O   0  0  0  0  0  0  0  0  0  0  0  0
   42.5010    5.4495   12.4232 O   0  0  0  0  0  0  0  0  0  0  0  0
   42.5008    5.4498   12.4228 O   0  0  0  0  0  0  0  0  0  0  0  0
   43.2259    4.8320   12.6024 H   0  0  0  0  0  0  0  0  0  0  0  0
   42.6233    5.6902   11.4925 H   0  0  0  0  0  0  0  0  0  0  0  0
   42.6247    5.6894   11.4918 H   0  0  0  0  0  0  0  0  0  0  0  0
   43.2248    4.8323   12.6039 H   0  0  0  0  0  0  0  0  0  0  0  0
   43.2248    4.8323   12.6039 H   0  0  0  0  0  0  0  0  0  0  0  0
   42.6247    5.6894   11.4918 H   0  0  0  0  0  0  0  0  0  0  0  0
   43.2260    4.8320   12.6023 H   0  0  0  0  0  0  0  0  0  0  0  0
   42.6232    5.6902   11.4926 H   0  0  0  0  0  0  0  0  0  0  0  0
   43.2251    4.8322   12.6035 H   0  0  0  0  0  0  0  0  0  0  0  0
   42.6243    5.6896   11.4920 H   0  0  0  0  0  0  0  0  0  0  0  0
   43.2270    4.8317   12.6010 H   0  0  0  0  0  0  0  0  0  0  0  0
   42.6219    5.6910   11.4933 H   0  0  0  0  0  0  0  0  0  0  0  0
   43.2271    4.8316   12.6008 H   0  0  0  0  0  0  0  0  0  0  0  0
   42.6217    5.6911   11.4934 H   0  0  0  0  0  0  0  0  0  0  0  0
   43.2271    4.8316   12.6008 H   0  0  0  0  0  0  0  0  0  0  0  0
   42.6216    5.6911   11.4934 H   0  0  0  0  0  0  0  0  0  0  0  0
   42.6233    5.6902   11.4925 H   0  0  0  0  0  0  0  0  0  0  0  0
   43.2258    4.8320   12.6024 H   0  0  0  0  0  0  0  0  0  0  0  0
   42.6240    5.6898   11.4921 H   0  0  0  0  0  0  0  0  0  0  0  0
   43.2253    4.8322   12.6031 H   0  0  0  0  0  0  0  0  0  0  0  0
  2  3  2  0
  2  4  2  0
  2  5  1  0
  2  6  1  0
  1 18  1  0
  1 19  1  0
  9 20  1  0
  9 21  1  0
 10 22  1  0
 10 23  1  0
 11 24  1  0
 11 25  1  0
 12 26  1  0
 12 27  1  0
 13 28  1  0
 13 29  1  0
 14 30  1  0
 14 31  1  0
 15 32  1  0
 15 33  1  0
 16 34  1  0
 16 35  1  0
 17 36  1  0
 17 37  1  0
M  CHG  4   5  -1   6  -1   7   1   8   1
M  END
> <Uni-Dock RESULT> 
ENERGY=   -6.120  LOWER_BOUND=    7.029  UPPER_BOUND=    8.185
INTER + INTRA:          -6.120
INTER:                  -6.120
INTRA:                   0.000
UNBOUND:                 0.000

$$$$

     RDKit          3D

 37 24  0  0  0  0  0  0  0  0999 V2000
   42.3048    5.4504   11.7702 O   0  0  0  0  0  0  0  0  0  0  0  0
   42.6417    5.5783   11.9388 S   0  0  0  0  0  0  0  0  0  0  0  0
   42.9897    5.5178   13.3701 O   0  0  0  0  0  0  0  0  0  0  0  0
   43.7226    6.2542   11.1984 O   0  0  0  0  0  0  0  0  0  0  0  0
   42.4691    4.2105   11.4167 O   0  0  0  0  0  0  0  0  0  0  0  0
   41.3852    6.3307   11.7701 O   0  0  0  0  0  0  0  0  0  0  0  0
   42.6417    5.5783   11.9388 Na  0  0  0  0  0 15  0  0  0  0  0  0
   42.6417    5.5783   11.9388 Na  0  0  0  0  0 15  0  0  0  0  0  0
   42.3053    5.4496   11.7700 O   0  0  0  0  0  0  0  0  0  0  0  0
   42.3052    5.4496   11.7700 O   0  0  0  0  0  0  0  0  0  0  0  0
   42.3048    5.4504   11.7702 O   0  0  0  0  0  0  0  0  0  0  0  0
   42.3051    5.4498   11.7701 O   0  0  0  0  0  0  0  0  0  0  0  0
   42.3044    5.4512   11.7704 O   0  0  0  0  0  0  0  0  0  0  0  0
   42.3044    5.4513   11.7704 O   0  0  0  0  0  0  0  0  0  0  0  0
   42.3044    5.4513   11.7704 O   0  0  0  0  0  0  0  0  0  0  0  0
   42.3048    5.4504   11.7702 O   0  0  0  0  0  0  0  0  0  0  0  0
   42.3050    5.4500   11.7701 O   0  0  0  0  0  0  0  0  0  0  0  0
   42.4768    6.3105   12.1819 H   0  0  0  0  0  0  0  0  0  0  0  0
   43.1433    4.9740   11.8643 H   0  0  0  0  0  0  0  0  0  0  0  0
   43.1446    4.9750   11.8652 H   0  0  0  0  0  0  0  0  0  0  0  0
   42.4751    6.3104   12.1813 H   0  0  0  0  0  0  0  0  0  0  0  0
   42.4751    6.3104   12.1813 H   0  0  0  0  0  0  0  0  0  0  0  0
   43.1446    4.9750   11.8652 H   0  0  0  0  0  0  0  0  0  0  0  0
   42.4769    6.3106   12.1820 H   0  0  0  0  0  0  0  0  0  0  0  0
   43.1432    4.9739   11.8643 H   0  0  0  0  0  0  0  0  0  0  0  0
   42.4756    6.3105   12.1815 H   0  0  0  0  0  0  0  0  0  0  0  0
   43.1443    4.9746   11.8649 H   0  0  0  0  0  0  0  0  0  0  0  0
   42.4785    6.3107   12.1826 H   0  0  0  0  0  0  0  0  0  0  0  0
   43.1421    4.9730   11.8635 H   0  0  0  0  0  0  0  0  0  0  0  0
   42.4788    6.3107   12.1827 H   0  0  0  0  0  0  0  0  0  0  0  0
   43.1419    4.9729   11.8634 H   0  0  0  0  0  0  0  0  0  0  0  0
   42.4788    6.3107   12.1827 H   0  0  0  0  0  0  0  0  0  0  0  0
   43.1418    4.9729   11.8634 H   0  0  0  0  0  0  0  0  0  0  0  0
   43.1434    4.9740   11.8644 H   0  0  0  0  0  0  0  0  0  0  0  0
   42.4768    6.3105   12.1819 H   0  0  0  0  0  0  0  0  0  0  0  0
   43.1440    4.9744   11.8648 H   0  0  0  0  0  0  0  0  0  0  0  0
   42.4760    6.3104   12.1816 H   0  0  0  0  0  0  0  0  0  0  0  0
  2  3  2  0
  2  4  2  0
  2  5  1  0
  2  6  1  0
  1 18  1  0
  1 19  1  0
  9 20  1  0
  9 21  1  0
 10 22  1  0
 10 23  1  0
 11 24  1  0
 11 25  1  0
 12 26  1  0
 12 27  1  0
 13 28  1  0
 13 29  1  0
 14 30  1  0
 14 31  1  0
 15 32  1  0
 15 33  1  0
 16 34  1  0
 16 35  1  0
 17 36  1  0
 17 37  1  0
M  CHG  4   5  -1   6  -1   7   1   8   1
M  END
> <Uni-Dock RESULT> 
ENERGY=   -6.101  LOWER_BOUND=    7.265  UPPER_BOUND=    8.066
INTER + INTRA:          -6.101
INTER:                  -6.101
INTRA:                   0.000
UNBOUND:                 0.000

$$$$

     RDKit          3D

 37 24  0  0  0  0  0  0  0  0999 V2000
   42.3095    5.4298   11.7795 O   0  0  0  0  0  0  0  0  0  0  0  0
   42.6402    5.5818   11.9401 S   0  0  0  0  0  0  0  0  0  0  0  0
   43.7449    6.2442   11.2231 O   0  0  0  0  0  0  0  0  0  0  0  0
   42.9641    5.5022   13.3762 O   0  0  0  0  0  0  0  0  0  0  0  0
   41.4005    6.3586   11.7583 O   0  0  0  0  0  0  0  0  0  0  0  0
   42.4512    4.2220   11.4028 O   0  0  0  0  0  0  0  0  0  0  0  0
   42.6402    5.5818   11.9401 Na  0  0  0  0  0 15  0  0  0  0  0  0
   42.6402    5.5818   11.9401 Na  0  0  0  0  0 15  0  0  0  0  0  0
   42.3090    5.4306   11.7796 O   0  0  0  0  0  0  0  0  0  0  0  0
   42.3091    5.4306   11.7796 O   0  0  0  0  0  0  0  0  0  0  0  0
   42.3095    5.4298   11.7795 O   0  0  0  0  0  0  0  0  0  0  0  0
   42.3092    5.4304   11.7796 O   0  0  0  0  0  0  0  0  0  0  0  0
   42.3099    5.4290   11.7793 O   0  0  0  0  0  0  0  0  0  0  0  0
   42.3100    5.4289   11.7793 O   0  0  0  0  0  0  0  0  0  0  0  0
   42.3100    5.4289   11.7793 O   0  0  0  0  0  0  0  0  0  0  0  0
   42.3095    5.4298   11.7795 O   0  0  0  0  0  0  0  0  0  0  0  0
   42.3093    5.4302   11.7796 O   0  0  0  0  0  0  0  0  0  0  0  0
   43.1732    5.0029   11.8831 H   0  0  0  0  0  0  0  0  0  0  0  0
   42.4378    6.3126   12.1578 H   0  0  0  0  0  0  0  0  0  0  0  0
   42.4396    6.3129   12.1584 H   0  0  0  0  0  0  0  0  0  0  0  0
   43.1719    5.0018   11.8822 H   0  0  0  0  0  0  0  0  0  0  0  0
   43.1719    5.0018   11.8822 H   0  0  0  0  0  0  0  0  0  0  0  0
   42.4396    6.3129   12.1584 H   0  0  0  0  0  0  0  0  0  0  0  0
   43.1733    5.0030   11.8831 H   0  0  0  0  0  0  0  0  0  0  0  0
   42.4377    6.3126   12.1577 H   0  0  0  0  0  0  0  0  0  0  0  0
   43.1723    5.0021   11.8825 H   0  0  0  0  0  0  0  0  0  0  0  0
   42.4391    6.3128   12.1582 H   0  0  0  0  0  0  0  0  0  0  0  0
   43.1744    5.0039   11.8838 H   0  0  0  0  0  0  0  0  0  0  0  0
   42.4362    6.3124   12.1572 H   0  0  0  0  0  0  0  0  0  0  0  0
   43.1746    5.0041   11.8840 H   0  0  0  0  0  0  0  0  0  0  0  0
   42.4360    6.3123   12.1571 H   0  0  0  0  0  0  0  0  0  0  0  0
   43.1746    5.0041   11.8840 H   0  0  0  0  0  0  0  0  0  0  0  0
   42.4359    6.3123   12.1570 H   0  0  0  0  0  0  0  0  0  0  0  0
   42.4379    6.3126   12.1578 H   0  0  0  0  0  0  0  0  0  0  0  0
   43.1731    5.0029   11.8830 H   0  0  0  0  0  0  0  0  0  0  0  0
   42.4387    6.3128   12.1581 H   0  0  0  0  0  0  0  0  0  0  0  0
   43.1725    5.0024   11.8827 H   0  0  0  0  0  0  0  0  0  0  0  0
  2  3  2  0
  2  4  2  0
  2  5  1  0
  2  6  1  0
  1 18  1  0
  1 19  1  0
  9 20  1  0
  9 21  1  0
 10 22  1  0
 10 23  1  0
 11 24  1  0
 11 25  1  0
 12 26  1  0
 12 27  1  0
 13 28  1  0
 13 29  1  0
 14 30  1  0
 14 31  1  0
 15 32  1  0
 15 33  1  0
 16 34  1  0
 16 35  1  0
 17 36  1  0
 17 37  1  0
M  CHG  4   5  -1   6  -1   7   1   8   1
M  END
> <Uni-Dock RESULT> 
ENERGY=   -6.080  LOWER_BOUND=    7.272  UPPER_BOUND=    8.041
INTER + INTRA:          -6.080
INTER:                  -6.080
INTRA:                   0.000
UNBOUND:                 0.000

$$$$

     RDKit          3D

 37 24  0  0  0  0  0  0  0  0999 V2000
   39.7709   12.3105   15.9419 O   0  0  0  0  0  0  0  0  0  0  0  0
   39.7725   12.5582   15.6306 S   0  0  0  0  0  0  0  0  0  0  0  0
   39.9979   14.0147   15.6637 O   0  0  0  0  0  0  0  0  0  0  0  0
   39.4850   12.1367   14.2474 O   0  0  0  0  0  0  0  0  0  0  0  0
   40.9788   11.8631   16.1154 O   0  0  0  0  0  0  0  0  0  0  0  0
   38.6284   12.2183   16.4959 O   0  0  0  0  0  0  0  0  0  0  0  0
   39.7725   12.5582   15.6306 Na  0  0  0  0  0 15  0  0  0  0  0  0
   39.7725   12.5582   15.6306 Na  0  0  0  0  0 15  0  0  0  0  0  0
   39.7718   12.3103   15.9417 O   0  0  0  0  0  0  0  0  0  0  0  0
   39.7717   12.3103   15.9417 O   0  0  0  0  0  0  0  0  0  0  0  0
   39.7709   12.3105   15.9419 O   0  0  0  0  0  0  0  0  0  0  0  0
   39.7715   12.3104   15.9418 O   0  0  0  0  0  0  0  0  0  0  0  0
   39.7700   12.3107   15.9420 O   0  0  0  0  0  0  0  0  0  0  0  0
   39.7699   12.3107   15.9420 O   0  0  0  0  0  0  0  0  0  0  0  0
   39.7699   12.3107   15.9420 O   0  0  0  0  0  0  0  0  0  0  0  0
   39.7709   12.3105   15.9419 O   0  0  0  0  0  0  0  0  0  0  0  0
   39.7713   12.3104   15.9418 O   0  0  0  0  0  0  0  0  0  0  0  0
   39.0370   12.8418   15.5982 H   0  0  0  0  0  0  0  0  0  0  0  0
   40.5097   12.5222   15.3517 H   0  0  0  0  0  0  0  0  0  0  0  0
   40.5092   12.5235   15.3504 H   0  0  0  0  0  0  0  0  0  0  0  0
   39.0366   12.8408   15.5997 H   0  0  0  0  0  0  0  0  0  0  0  0
   39.0366   12.8408   15.5997 H   0  0  0  0  0  0  0  0  0  0  0  0
   40.5092   12.5235   15.3504 H   0  0  0  0  0  0  0  0  0  0  0  0
   39.0370   12.8419   15.5981 H   0  0  0  0  0  0  0  0  0  0  0  0
   40.5097   12.5222   15.3518 H   0  0  0  0  0  0  0  0  0  0  0  0
   39.0367   12.8411   15.5993 H   0  0  0  0  0  0  0  0  0  0  0  0
   40.5094   12.5231   15.3508 H   0  0  0  0  0  0  0  0  0  0  0  0
   39.0374   12.8428   15.5968 H   0  0  0  0  0  0  0  0  0  0  0  0
   40.5101   12.5211   15.3530 H   0  0  0  0  0  0  0  0  0  0  0  0
   39.0375   12.8430   15.5965 H   0  0  0  0  0  0  0  0  0  0  0  0
   40.5101   12.5210   15.3531 H   0  0  0  0  0  0  0  0  0  0  0  0
   39.0375   12.8430   15.5965 H   0  0  0  0  0  0  0  0  0  0  0  0
   40.5101   12.5209   15.3532 H   0  0  0  0  0  0  0  0  0  0  0  0
   40.5097   12.5223   15.3516 H   0  0  0  0  0  0  0  0  0  0  0  0
   39.0370   12.8418   15.5982 H   0  0  0  0  0  0  0  0  0  0  0  0
   40.5095   12.5228   15.3511 H   0  0  0  0  0  0  0  0  0  0  0  0
   39.0369   12.8413   15.5989 H   0  0  0  0  0  0  0  0  0  0  0  0
  2  3  2  0
  2  4  2  0
  2  5  1  0
  2  6  1  0
  1 18  1  0
  1 19  1  0
  9 20  1  0
  9 21  1  0
 10 22  1  0
 10 23  1  0
 11 24  1  0
 11 25  1  0
 12 26  1  0
 12 27  1  0
 13 28  1  0
 13 29  1  0
 14 30  1  0
 14 31  1  0
 15 32  1  0
 15 33  1  0
 16 34  1  0
 16 35  1  0
 17 36  1  0
 17 37  1  0
M  CHG  4   5  -1   6  -1   7   1   8   1
M  END
> <Uni-Dock RESULT> 
ENERGY=   -5.900  LOWER_BOUND=   15.370  UPPER_BOUND=   16.078
INTER + INTRA:          -5.900
INTER:                  -5.900
INTRA:                   0.000
UNBOUND:                 0.000

$$$$

     RDKit          3D

 37 24  0  0  0  0  0  0  0  0999 V2000
   46.7495    3.9869    6.8763 O   0  0  0  0  0  0  0  0  0  0  0  0
   46.6068    3.6467    7.0253 S   0  0  0  0  0  0  0  0  0  0  0  0
   45.1945    3.3306    7.3063 O   0  0  0  0  0  0  0  0  0  0  0  0
   47.4557    2.5152    7.4407 O   0  0  0  0  0  0  0  0  0  0  0  0
   46.7789    3.8857    5.5808 O   0  0  0  0  0  0  0  0  0  0  0  0
   46.9980    4.8553    7.7733 O   0  0  0  0  0  0  0  0  0  0  0  0
   46.6068    3.6467    7.0253 Na  0  0  0  0  0 15  0  0  0  0  0  0
   46.6068    3.6467    7.0253 Na  0  0  0  0  0 15  0  0  0  0  0  0
   46.7494    3.9865    6.8754 O   0  0  0  0  0  0  0  0  0  0  0  0
   46.7494    3.9865    6.8754 O   0  0  0  0  0  0  0  0  0  0  0  0
   46.7495    3.9869    6.8763 O   0  0  0  0  0  0  0  0  0  0  0  0
   46.7494    3.9866    6.8756 O   0  0  0  0  0  0  0  0  0  0  0  0
   46.7495    3.9872    6.8771 O   0  0  0  0  0  0  0  0  0  0  0  0
   46.7495    3.9873    6.8772 O   0  0  0  0  0  0  0  0  0  0  0  0
   46.7495    3.9873    6.8772 O   0  0  0  0  0  0  0  0  0  0  0  0
   46.7495    3.9869    6.8763 O   0  0  0  0  0  0  0  0  0  0  0  0
   46.7494    3.9867    6.8758 O   0  0  0  0  0  0  0  0  0  0  0  0
   46.5584    3.7748    7.8022 H   0  0  0  0  0  0  0  0  0  0  0  0
   46.5126    3.1785    6.3973 H   0  0  0  0  0  0  0  0  0  0  0  0
   46.5120    3.1772    6.3984 H   0  0  0  0  0  0  0  0  0  0  0  0
   46.5590    3.7765    7.8020 H   0  0  0  0  0  0  0  0  0  0  0  0
   46.5590    3.7765    7.8020 H   0  0  0  0  0  0  0  0  0  0  0  0
   46.5120    3.1772    6.3984 H   0  0  0  0  0  0  0  0  0  0  0  0
   46.5583    3.7747    7.8023 H   0  0  0  0  0  0  0  0  0  0  0  0
   46.5127    3.1786    6.3973 H   0  0  0  0  0  0  0  0  0  0  0  0
   46.5588    3.7760    7.8021 H   0  0  0  0  0  0  0  0  0  0  0  0
   46.5122    3.1775    6.3981 H   0  0  0  0  0  0  0  0  0  0  0  0
   46.5577    3.7732    7.8025 H   0  0  0  0  0  0  0  0  0  0  0  0
   46.5132    3.1798    6.3962 H   0  0  0  0  0  0  0  0  0  0  0  0
   46.5576    3.7729    7.8025 H   0  0  0  0  0  0  0  0  0  0  0  0
   46.5133    3.1799    6.3961 H   0  0  0  0  0  0  0  0  0  0  0  0
   46.5576    3.7729    7.8025 H   0  0  0  0  0  0  0  0  0  0  0  0
   46.5133    3.1800    6.3961 H   0  0  0  0  0  0  0  0  0  0  0  0
   46.5126    3.1784    6.3973 H   0  0  0  0  0  0  0  0  0  0  0  0
   46.5584    3.7749    7.8022 H   0  0  0  0  0  0  0  0  0  0  0  0
   46.5123    3.1778    6.3978 H   0  0  0  0  0  0  0  0  0  0  0  0
   46.5587    3.7756    7.8021 H   0  0  0  0  0  0  0  0  0  0  0  0
  2  3  2  0
  2  4  2  0
  2  5  1  0
  2  6  1  0
  1 18  1  0
  1 19  1  0
  9 20  1  0
  9 21  1  0
 10 22  1  0
 10 23  1  0
 11 24  1  0
 11 25  1  0
 12 26  1  0
 12 27  1  0
 13 28  1  0
 13 29  1  0
 14 30  1  0
 14 31  1  0
 15 32  1  0
 15 33  1  0
 16 34  1  0
 16 35  1  0
 17 36  1  0
 17 37  1  0
M  CHG  4   5  -1   6  -1   7   1   8   1
M  END
> <Uni-Dock RESULT> 
ENERGY=   -5.892  LOWER_BOUND=    2.454  UPPER_BOUND=    3.014
INTER + INTRA:          -5.892
INTER:                  -5.892
INTRA:                   0.000
UNBOUND:                 0.000

$$$$
