
     RDKit          3D

 37 24  0  0  0  0  0  0  0  0999 V2000
   47.3345    0.9424    7.3238 O   0  0  0  0  0  0  0  0  0  0  0  0
   47.0731    1.2262    7.2269 S   0  0  0  0  0  0  0  0  0  0  0  0
   46.9401   -0.2334    7.3857 O   0  0  0  0  0  0  0  0  0  0  0  0
   48.5014    1.5917    7.2208 O   0  0  0  0  0  0  0  0  0  0  0  0
   46.3967    1.9060    8.3466 O   0  0  0  0  0  0  0  0  0  0  0  0
   46.4544    1.6406    5.9546 O   0  0  0  0  0  0  0  0  0  0  0  0
   47.0731    1.2262    7.2269 Na  0  0  0  0  0 15  0  0  0  0  0  0
   47.0731    1.2262    7.2269 Na  0  0  0  0  0 15  0  0  0  0  0  0
   47.3344    0.9427    7.3250 O   0  0  0  0  0  0  0  0  0  0  0  0
   47.3347    0.9416    7.3207 O   0  0  0  0  0  0  0  0  0  0  0  0
   47.3341    0.9438    7.3290 O   0  0  0  0  0  0  0  0  0  0  0  0
   47.3339    0.9443    7.3309 O   0  0  0  0  0  0  0  0  0  0  0  0
   47.3330    0.9468    7.3394 O   0  0  0  0  0  0  0  0  0  0  0  0
   47.3343    0.9430    7.3258 O   0  0  0  0  0  0  0  0  0  0  0  0
   47.3344    0.9428    7.3255 O   0  0  0  0  0  0  0  0  0  0  0  0
   47.3349    0.9412    7.3191 O   0  0  0  0  0  0  0  0  0  0  0  0
   47.3343    0.9430    7.3260 O   0  0  0  0  0  0  0  0  0  0  0  0
   46.8837    1.5651    7.9138 H   0  0  0  0  0  0  0  0  0  0  0  0
   47.0012    1.1712    6.4432 H   0  0  0  0  0  0  0  0  0  0  0  0
   46.8823    1.5665    7.9127 H   0  0  0  0  0  0  0  0  0  0  0  0
   47.0028    1.1694    6.4432 H   0  0  0  0  0  0  0  0  0  0  0  0
   46.9970    1.1760    6.4432 H   0  0  0  0  0  0  0  0  0  0  0  0
   46.8877    1.5611    7.9169 H   0  0  0  0  0  0  0  0  0  0  0  0
   46.8771    1.5717    7.9086 H   0  0  0  0  0  0  0  0  0  0  0  0
   47.0083    1.1631    6.4432 H   0  0  0  0  0  0  0  0  0  0  0  0
   46.8747    1.5742    7.9066 H   0  0  0  0  0  0  0  0  0  0  0  0
   47.0108    1.1601    6.4432 H   0  0  0  0  0  0  0  0  0  0  0  0
   46.8640    1.5850    7.8978 H   0  0  0  0  0  0  0  0  0  0  0  0
   47.0223    1.1469    6.4436 H   0  0  0  0  0  0  0  0  0  0  0  0
   46.8812    1.5677    7.9118 H   0  0  0  0  0  0  0  0  0  0  0  0
   47.0039    1.1681    6.4432 H   0  0  0  0  0  0  0  0  0  0  0  0
   46.8817    1.5672    7.9122 H   0  0  0  0  0  0  0  0  0  0  0  0
   47.0034    1.1687    6.4432 H   0  0  0  0  0  0  0  0  0  0  0  0
   46.8898    1.5589    7.9184 H   0  0  0  0  0  0  0  0  0  0  0  0
   46.9948    1.1786    6.4433 H   0  0  0  0  0  0  0  0  0  0  0  0
   47.0041    1.1679    6.4431 H   0  0  0  0  0  0  0  0  0  0  0  0
   46.8810    1.5679    7.9116 H   0  0  0  0  0  0  0  0  0  0  0  0
  2  3  2  0
  2  4  2  0
  2  5  1  0
  2  6  1  0
  1 18  1  0
  1 19  1  0
  9 20  1  0
  9 21  1  0
 10 22  1  0
 10 23  1  0
 11 24  1  0
 11 25  1  0
 12 26  1  0
 12 27  1  0
 13 28  1  0
 13 29  1  0
 14 30  1  0
 14 31  1  0
 15 32  1  0
 15 33  1  0
 16 34  1  0
 16 35  1  0
 17 36  1  0
 17 37  1  0
M  CHG  4   5  -1   6  -1   7   1   8   1
M  END
> <Uni-Dock RESULT> 
ENERGY=   -6.955  LOWER_BOUND=    0.000  UPPER_BOUND=    0.000
INTER + INTRA:          -6.955
INTER:                  -6.955
INTRA:                   0.000
UNBOUND:                 0.000

$$$$

     RDKit          3D

 37 24  0  0  0  0  0  0  0  0999 V2000
   47.4292    1.0314    7.2490 O   0  0  0  0  0  0  0  0  0  0  0  0
   47.0965    1.2494    7.2580 S   0  0  0  0  0  0  0  0  0  0  0  0
   48.5241    1.6171    7.2507 O   0  0  0  0  0  0  0  0  0  0  0  0
   46.9632   -0.1984    7.5021 O   0  0  0  0  0  0  0  0  0  0  0  0
   46.4958    1.5852    5.9543 O   0  0  0  0  0  0  0  0  0  0  0  0
   46.4027    1.9935    8.3250 O   0  0  0  0  0  0  0  0  0  0  0  0
   47.0965    1.2494    7.2580 Na  0  0  0  0  0 15  0  0  0  0  0  0
   47.0965    1.2494    7.2580 Na  0  0  0  0  0 15  0  0  0  0  0  0
   47.4290    1.0313    7.2478 O   0  0  0  0  0  0  0  0  0  0  0  0
   47.4295    1.0319    7.2521 O   0  0  0  0  0  0  0  0  0  0  0  0
   47.4285    1.0307    7.2437 O   0  0  0  0  0  0  0  0  0  0  0  0
   47.4282    1.0304    7.2417 O   0  0  0  0  0  0  0  0  0  0  0  0
   47.4269    1.0294    7.2330 O   0  0  0  0  0  0  0  0  0  0  0  0
   47.4289    1.0312    7.2469 O   0  0  0  0  0  0  0  0  0  0  0  0
   47.4290    1.0312    7.2473 O   0  0  0  0  0  0  0  0  0  0  0  0
   47.4297    1.0322    7.2538 O   0  0  0  0  0  0  0  0  0  0  0  0
   47.4288    1.0311    7.2467 O   0  0  0  0  0  0  0  0  0  0  0  0
   46.8397    1.2514    6.5120 H   0  0  0  0  0  0  0  0  0  0  0  0
   47.0205    1.4652    8.0131 H   0  0  0  0  0  0  0  0  0  0  0  0
   46.8379    1.2527    6.5126 H   0  0  0  0  0  0  0  0  0  0  0  0
   47.0225    1.4640    8.0136 H   0  0  0  0  0  0  0  0  0  0  0  0
   47.0152    1.4684    8.0116 H   0  0  0  0  0  0  0  0  0  0  0  0
   46.8447    1.2478    6.5103 H   0  0  0  0  0  0  0  0  0  0  0  0
   46.8314    1.2575    6.5150 H   0  0  0  0  0  0  0  0  0  0  0  0
   47.0296    1.4598    8.0154 H   0  0  0  0  0  0  0  0  0  0  0  0
   46.8282    1.2598    6.5162 H   0  0  0  0  0  0  0  0  0  0  0  0
   47.0329    1.4579    8.0163 H   0  0  0  0  0  0  0  0  0  0  0  0
   46.8148    1.2697    6.5213 H   0  0  0  0  0  0  0  0  0  0  0  0
   47.0476    1.4491    8.0197 H   0  0  0  0  0  0  0  0  0  0  0  0
   46.8364    1.2538    6.5131 H   0  0  0  0  0  0  0  0  0  0  0  0
   47.0240    1.4632    8.0140 H   0  0  0  0  0  0  0  0  0  0  0  0
   46.8371    1.2533    6.5129 H   0  0  0  0  0  0  0  0  0  0  0  0
   47.0233    1.4636    8.0138 H   0  0  0  0  0  0  0  0  0  0  0  0
   46.8474    1.2459    6.5095 H   0  0  0  0  0  0  0  0  0  0  0  0
   47.0123    1.4700    8.0108 H   0  0  0  0  0  0  0  0  0  0  0  0
   47.0242    1.4630    8.0141 H   0  0  0  0  0  0  0  0  0  0  0  0
   46.8362    1.2540    6.5132 H   0  0  0  0  0  0  0  0  0  0  0  0
  2  3  2  0
  2  4  2  0
  2  5  1  0
  2  6  1  0
  1 18  1  0
  1 19  1  0
  9 20  1  0
  9 21  1  0
 10 22  1  0
 10 23  1  0
 11 24  1  0
 11 25  1  0
 12 26  1  0
 12 27  1  0
 13 28  1  0
 13 29  1  0
 14 30  1  0
 14 31  1  0
 15 32  1  0
 15 33  1  0
 16 34  1  0
 16 35  1  0
 17 36  1  0
 17 37  1  0
M  CHG  4   5  -1   6  -1   7   1   8   1
M  END
> <Uni-Dock RESULT> 
ENERGY=   -6.891  LOWER_BOUND=    0.124  UPPER_BOUND=    1.174
INTER + INTRA:          -6.891
INTER:                  -6.891
INTRA:                   0.000
UNBOUND:                 0.000

$$$$

     RDKit          3D

 37 24  0  0  0  0  0  0  0  0999 V2000
   42.2695    5.4643   11.8230 O   0  0  0  0  0  0  0  0  0  0  0  0
   42.6339    5.5700   11.9427 S   0  0  0  0  0  0  0  0  0  0  0  0
   41.3934    6.3402   11.7389 O   0  0  0  0  0  0  0  0  0  0  0  0
   42.4766    4.2232   11.3642 O   0  0  0  0  0  0  0  0  0  0  0  0
   42.9097    5.4557   13.3864 O   0  0  0  0  0  0  0  0  0  0  0  0
   43.7557    6.2610   11.2813 O   0  0  0  0  0  0  0  0  0  0  0  0
   42.6339    5.5700   11.9427 Na  0  0  0  0  0 15  0  0  0  0  0  0
   42.6339    5.5700   11.9427 Na  0  0  0  0  0 15  0  0  0  0  0  0
   42.2693    5.4639   11.8240 O   0  0  0  0  0  0  0  0  0  0  0  0
   42.2702    5.4654   11.8200 O   0  0  0  0  0  0  0  0  0  0  0  0
   42.2685    5.4624   11.8279 O   0  0  0  0  0  0  0  0  0  0  0  0
   42.2681    5.4617   11.8298 O   0  0  0  0  0  0  0  0  0  0  0  0
   42.2666    5.4586   11.8380 O   0  0  0  0  0  0  0  0  0  0  0  0
   42.2692    5.4636   11.8249 O   0  0  0  0  0  0  0  0  0  0  0  0
   42.2692    5.4637   11.8245 O   0  0  0  0  0  0  0  0  0  0  0  0
   42.2705    5.4660   11.8185 O   0  0  0  0  0  0  0  0  0  0  0  0
   42.2691    5.4635   11.8251 O   0  0  0  0  0  0  0  0  0  0  0  0
   42.6651    5.3529   12.7006 H   0  0  0  0  0  0  0  0  0  0  0  0
   42.9670    5.8928   11.3046 H   0  0  0  0  0  0  0  0  0  0  0  0
   42.6672    5.3537   12.7007 H   0  0  0  0  0  0  0  0  0  0  0  0
   42.9651    5.8925   11.3033 H   0  0  0  0  0  0  0  0  0  0  0  0
   42.9724    5.8939   11.3079 H   0  0  0  0  0  0  0  0  0  0  0  0
   42.6590    5.3507   12.7002 H   0  0  0  0  0  0  0  0  0  0  0  0
   42.6751    5.3566   12.7011 H   0  0  0  0  0  0  0  0  0  0  0  0
   42.9580    5.8910   11.2990 H   0  0  0  0  0  0  0  0  0  0  0  0
   42.6789    5.3581   12.7013 H   0  0  0  0  0  0  0  0  0  0  0  0
   42.9547    5.8903   11.2970 H   0  0  0  0  0  0  0  0  0  0  0  0
   42.6952    5.3643   12.7019 H   0  0  0  0  0  0  0  0  0  0  0  0
   42.9399    5.8872   11.2883 H   0  0  0  0  0  0  0  0  0  0  0  0
   42.6689    5.3544   12.7008 H   0  0  0  0  0  0  0  0  0  0  0  0
   42.9636    5.8922   11.3024 H   0  0  0  0  0  0  0  0  0  0  0  0
   42.6682    5.3541   12.7007 H   0  0  0  0  0  0  0  0  0  0  0  0
   42.9643    5.8923   11.3028 H   0  0  0  0  0  0  0  0  0  0  0  0
   42.6559    5.3495   12.6999 H   0  0  0  0  0  0  0  0  0  0  0  0
   42.9752    5.8945   11.3097 H   0  0  0  0  0  0  0  0  0  0  0  0
   42.9633    5.8921   11.3022 H   0  0  0  0  0  0  0  0  0  0  0  0
   42.6692    5.3545   12.7008 H   0  0  0  0  0  0  0  0  0  0  0  0
  2  3  2  0
  2  4  2  0
  2  5  1  0
  2  6  1  0
  1 18  1  0
  1 19  1  0
  9 20  1  0
  9 21  1  0
 10 22  1  0
 10 23  1  0
 11 24  1  0
 11 25  1  0
 12 26  1  0
 12 27  1  0
 13 28  1  0
 13 29  1  0
 14 30  1  0
 14 31  1  0
 15 32  1  0
 15 33  1  0
 16 34  1  0
 16 35  1  0
 17 36  1  0
 17 37  1  0
M  CHG  4   5  -1   6  -1   7   1   8   1
M  END
> <Uni-Dock RESULT> 
ENERGY=   -6.199  LOWER_BOUND=    7.222  UPPER_BOUND=    8.067
INTER + INTRA:          -6.199
INTER:                  -6.199
INTRA:                   0.000
UNBOUND:                 0.000

$$$$

     RDKit          3D

 37 24  0  0  0  0  0  0  0  0999 V2000
   42.4877    5.4043   12.4195 O   0  0  0  0  0  0  0  0  0  0  0  0
   42.7844    5.3447   12.1612 S   0  0  0  0  0  0  0  0  0  0  0  0
   42.6336    5.0208   13.5915 O   0  0  0  0  0  0  0  0  0  0  0  0
   41.6959    6.2473   11.7443 O   0  0  0  0  0  0  0  0  0  0  0  0
   42.7250    4.1038   11.3674 O   0  0  0  0  0  0  0  0  0  0  0  0
   44.0832    6.0069   11.9415 O   0  0  0  0  0  0  0  0  0  0  0  0
   42.7844    5.3447   12.1612 Na  0  0  0  0  0 15  0  0  0  0  0  0
   42.7844    5.3447   12.1612 Na  0  0  0  0  0 15  0  0  0  0  0  0
   42.4871    5.4033   12.4190 O   0  0  0  0  0  0  0  0  0  0  0  0
   42.4893    5.4068   12.4207 O   0  0  0  0  0  0  0  0  0  0  0  0
   42.4851    5.4000   12.4174 O   0  0  0  0  0  0  0  0  0  0  0  0
   42.4842    5.3984   12.4166 O   0  0  0  0  0  0  0  0  0  0  0  0
   42.4801    5.3914   12.4131 O   0  0  0  0  0  0  0  0  0  0  0  0
   42.4868    5.4026   12.4186 O   0  0  0  0  0  0  0  0  0  0  0  0
   42.4869    5.4029   12.4189 O   0  0  0  0  0  0  0  0  0  0  0  0
   42.4902    5.4081   12.4213 O   0  0  0  0  0  0  0  0  0  0  0  0
   42.4867    5.4024   12.4186 O   0  0  0  0  0  0  0  0  0  0  0  0
   42.5605    4.7143   11.7429 H   0  0  0  0  0  0  0  0  0  0  0  0
   43.3050    5.9156   12.3211 H   0  0  0  0  0  0  0  0  0  0  0  0
   42.5624    4.7145   11.7417 H   0  0  0  0  0  0  0  0  0  0  0  0
   43.3036    5.9164   12.3229 H   0  0  0  0  0  0  0  0  0  0  0  0
   43.3088    5.9134   12.3165 H   0  0  0  0  0  0  0  0  0  0  0  0
   42.5551    4.7140   11.7463 H   0  0  0  0  0  0  0  0  0  0  0  0
   42.5695    4.7150   11.7372 H   0  0  0  0  0  0  0  0  0  0  0  0
   43.2984    5.9192   12.3289 H   0  0  0  0  0  0  0  0  0  0  0  0
   42.5730    4.7153   11.7351 H   0  0  0  0  0  0  0  0  0  0  0  0
   43.2961    5.9205   12.3318 H   0  0  0  0  0  0  0  0  0  0  0  0
   42.5879    4.7166   11.7261 H   0  0  0  0  0  0  0  0  0  0  0  0
   43.2853    5.9262   12.3443 H   0  0  0  0  0  0  0  0  0  0  0  0
   42.5640    4.7146   11.7407 H   0  0  0  0  0  0  0  0  0  0  0  0
   43.3025    5.9170   12.3241 H   0  0  0  0  0  0  0  0  0  0  0  0
   42.5633    4.7145   11.7411 H   0  0  0  0  0  0  0  0  0  0  0  0
   43.3030    5.9167   12.3235 H   0  0  0  0  0  0  0  0  0  0  0  0
   42.5522    4.7139   11.7482 H   0  0  0  0  0  0  0  0  0  0  0  0
   43.3108    5.9122   12.3140 H   0  0  0  0  0  0  0  0  0  0  0  0
   43.3023    5.9171   12.3244 H   0  0  0  0  0  0  0  0  0  0  0  0
   42.5643    4.7146   11.7405 H   0  0  0  0  0  0  0  0  0  0  0  0
  2  3  2  0
  2  4  2  0
  2  5  1  0
  2  6  1  0
  1 18  1  0
  1 19  1  0
  9 20  1  0
  9 21  1  0
 10 22  1  0
 10 23  1  0
 11 24  1  0
 11 25  1  0
 12 26  1  0
 12 27  1  0
 13 28  1  0
 13 29  1  0
 14 30  1  0
 14 31  1  0
 15 32  1  0
 15 33  1  0
 16 34  1  0
 16 35  1  0
 17 36  1  0
 17 37  1  0
M  CHG  4   5  -1   6  -1   7   1   8   1
M  END
> <Uni-Dock RESULT> 
ENERGY=   -6.141  LOWER_BOUND=    7.033  UPPER_BOUND=    8.165
INTER + INTRA:          -6.141
INTER:                  -6.141
INTRA:                   0.000
UNBOUND:                 0.000

$$$$

     RDKit          3D

 37 24  0  0  0  0  0  0  0  0999 V2000
   42.4771    5.5198   12.3598 O   0  0  0  0  0  0  0  0  0  0  0  0
   42.7688    5.3529   12.1468 S   0  0  0  0  0  0  0  0  0  0  0  0
   41.6034    6.1709   11.7643 O   0  0  0  0  0  0  0  0  0  0  0  0
   42.6349    4.9346   13.5541 O   0  0  0  0  0  0  0  0  0  0  0  0
   44.0006    6.1465   11.9851 O   0  0  0  0  0  0  0  0  0  0  0  0
   42.8362    4.1595   11.2838 O   0  0  0  0  0  0  0  0  0  0  0  0
   42.7688    5.3529   12.1468 Na  0  0  0  0  0 15  0  0  0  0  0  0
   42.7688    5.3529   12.1468 Na  0  0  0  0  0 15  0  0  0  0  0  0
   42.4778    5.5207   12.3601 O   0  0  0  0  0  0  0  0  0  0  0  0
   42.4752    5.5174   12.3589 O   0  0  0  0  0  0  0  0  0  0  0  0
   42.4805    5.5237   12.3612 O   0  0  0  0  0  0  0  0  0  0  0  0
   42.4818    5.5252   12.3617 O   0  0  0  0  0  0  0  0  0  0  0  0
   42.4875    5.5317   12.3639 O   0  0  0  0  0  0  0  0  0  0  0  0
   42.4785    5.5213   12.3603 O   0  0  0  0  0  0  0  0  0  0  0  0
   42.4781    5.5210   12.3603 O   0  0  0  0  0  0  0  0  0  0  0  0
   42.4741    5.5161   12.3585 O   0  0  0  0  0  0  0  0  0  0  0  0
   42.4786    5.5214   12.3604 O   0  0  0  0  0  0  0  0  0  0  0  0
   43.3856    5.8355   12.2417 H   0  0  0  0  0  0  0  0  0  0  0  0
   42.4436    4.7033   11.8390 H   0  0  0  0  0  0  0  0  0  0  0  0
   43.3869    5.8342   12.2404 H   0  0  0  0  0  0  0  0  0  0  0  0
   42.4415    4.7038   11.8400 H   0  0  0  0  0  0  0  0  0  0  0  0
   42.4491    4.7019   11.8361 H   0  0  0  0  0  0  0  0  0  0  0  0
   43.3821    5.8393   12.2455 H   0  0  0  0  0  0  0  0  0  0  0  0
   43.3915    5.8291   12.2355 H   0  0  0  0  0  0  0  0  0  0  0  0
   42.4343    4.7058   11.8439 H   0  0  0  0  0  0  0  0  0  0  0  0
   43.3937    5.8266   12.2331 H   0  0  0  0  0  0  0  0  0  0  0  0
   42.4309    4.7066   11.8456 H   0  0  0  0  0  0  0  0  0  0  0  0
   43.4030    5.8160   12.2228 H   0  0  0  0  0  0  0  0  0  0  0  0
   42.4160    4.7109   11.8537 H   0  0  0  0  0  0  0  0  0  0  0  0
   43.3879    5.8331   12.2393 H   0  0  0  0  0  0  0  0  0  0  0  0
   42.4400    4.7042   11.8408 H   0  0  0  0  0  0  0  0  0  0  0  0
   43.3875    5.8335   12.2398 H   0  0  0  0  0  0  0  0  0  0  0  0
   42.4407    4.7040   11.8404 H   0  0  0  0  0  0  0  0  0  0  0  0
   43.3801    5.8413   12.2474 H   0  0  0  0  0  0  0  0  0  0  0  0
   42.4521    4.7012   11.8346 H   0  0  0  0  0  0  0  0  0  0  0  0
   42.4397    4.7043   11.8409 H   0  0  0  0  0  0  0  0  0  0  0  0
   43.3881    5.8329   12.2391 H   0  0  0  0  0  0  0  0  0  0  0  0
  2  3  2  0
  2  4  2  0
  2  5  1  0
  2  6  1  0
  1 18  1  0
  1 19  1  0
  9 20  1  0
  9 21  1  0
 10 22  1  0
 10 23  1  0
 11 24  1  0
 11 25  1  0
 12 26  1  0
 12 27  1  0
 13 28  1  0
 13 29  1  0
 14 30  1  0
 14 31  1  0
 15 32  1  0
 15 33  1  0
 16 34  1  0
 16 35  1  0
 17 36  1  0
 17 37  1  0
M  CHG  4   5  -1   6  -1   7   1   8   1
M  END
> <Uni-Dock RESULT> 
ENERGY=   -6.087  LOWER_BOUND=    6.955  UPPER_BOUND=    8.179
INTER + INTRA:          -6.087
INTER:                  -6.087
INTRA:                   0.000
UNBOUND:                 0.000

$$$$

     RDKit          3D

 37 24  0  0  0  0  0  0  0  0999 V2000
   39.8908   12.2793   15.8929 O   0  0  0  0  0  0  0  0  0  0  0  0
   39.8507   12.5644   15.6184 S   0  0  0  0  0  0  0  0  0  0  0  0
   41.0305   11.8611   16.1540 O   0  0  0  0  0  0  0  0  0  0  0  0
   38.6765   12.2637   16.4576 O   0  0  0  0  0  0  0  0  0  0  0  0
   39.5958   12.1154   14.2375 O   0  0  0  0  0  0  0  0  0  0  0  0
   40.0999   14.0175   15.6246 O   0  0  0  0  0  0  0  0  0  0  0  0
   39.8507   12.5644   15.6184 Na  0  0  0  0  0 15  0  0  0  0  0  0
   39.8507   12.5644   15.6184 Na  0  0  0  0  0 15  0  0  0  0  0  0
   39.8905   12.2785   15.8921 O   0  0  0  0  0  0  0  0  0  0  0  0
   39.8917   12.2815   15.8950 O   0  0  0  0  0  0  0  0  0  0  0  0
   39.8893   12.2756   15.8893 O   0  0  0  0  0  0  0  0  0  0  0  0
   39.8887   12.2743   15.8879 O   0  0  0  0  0  0  0  0  0  0  0  0
   39.8861   12.2684   15.8817 O   0  0  0  0  0  0  0  0  0  0  0  0
   39.8902   12.2779   15.8915 O   0  0  0  0  0  0  0  0  0  0  0  0
   39.8903   12.2781   15.8918 O   0  0  0  0  0  0  0  0  0  0  0  0
   39.8922   12.2827   15.8962 O   0  0  0  0  0  0  0  0  0  0  0  0
   39.8902   12.2778   15.8913 O   0  0  0  0  0  0  0  0  0  0  0  0
   39.6129   12.1838   14.9695 H   0  0  0  0  0  0  0  0  0  0  0  0
   40.0483   13.2302   15.9928 H   0  0  0  0  0  0  0  0  0  0  0  0
   39.6129   12.1858   14.9684 H   0  0  0  0  0  0  0  0  0  0  0  0
   40.0487   13.2290   15.9948 H   0  0  0  0  0  0  0  0  0  0  0  0
   40.0472   13.2335   15.9875 H   0  0  0  0  0  0  0  0  0  0  0  0
   39.6131   12.1783   14.9727 H   0  0  0  0  0  0  0  0  0  0  0  0
   39.6127   12.1931   14.9642 H   0  0  0  0  0  0  0  0  0  0  0  0
   40.0501   13.2245   16.0018 H   0  0  0  0  0  0  0  0  0  0  0  0
   39.6126   12.1967   14.9623 H   0  0  0  0  0  0  0  0  0  0  0  0
   40.0508   13.2224   16.0050 H   0  0  0  0  0  0  0  0  0  0  0  0
   39.6123   12.2121   14.9540 H   0  0  0  0  0  0  0  0  0  0  0  0
   40.0536   13.2129   16.0194 H   0  0  0  0  0  0  0  0  0  0  0  0
   39.6128   12.1874   14.9674 H   0  0  0  0  0  0  0  0  0  0  0  0
   40.0490   13.2281   15.9963 H   0  0  0  0  0  0  0  0  0  0  0  0
   39.6128   12.1867   14.9679 H   0  0  0  0  0  0  0  0  0  0  0  0
   40.0489   13.2285   15.9956 H   0  0  0  0  0  0  0  0  0  0  0  0
   39.6132   12.1754   14.9745 H   0  0  0  0  0  0  0  0  0  0  0  0
   40.0466   13.2352   15.9846 H   0  0  0  0  0  0  0  0  0  0  0  0
   40.0491   13.2279   15.9965 H   0  0  0  0  0  0  0  0  0  0  0  0
   39.6128   12.1877   14.9673 H   0  0  0  0  0  0  0  0  0  0  0  0
  2  3  2  0
  2  4  2  0
  2  5  1  0
  2  6  1  0
  1 18  1  0
  1 19  1  0
  9 20  1  0
  9 21  1  0
 10 22  1  0
 10 23  1  0
 11 24  1  0
 11 25  1  0
 12 26  1  0
 12 27  1  0
 13 28  1  0
 13 29  1  0
 14 30  1  0
 14 31  1  0
 15 32  1  0
 15 33  1  0
 16 34  1  0
 16 35  1  0
 17 36  1  0
 17 37  1  0
M  CHG  4   5  -1   6  -1   7   1   8   1
M  END
> <Uni-Dock RESULT> 
ENERGY=   -5.966  LOWER_BOUND=   15.303  UPPER_BOUND=   16.000
INTER + INTRA:          -5.966
INTER:                  -5.966
INTRA:                   0.000
UNBOUND:                 0.000

$$$$

     RDKit          3D

 37 24  0  0  0  0  0  0  0  0999 V2000
   47.4212    1.2318    6.8731 O   0  0  0  0  0  0  0  0  0  0  0  0
   47.2252    1.1933    7.2172 S   0  0  0  0  0  0  0  0  0  0  0  0
   46.7717    1.2275    5.8148 O   0  0  0  0  0  0  0  0  0  0  0  0
   48.6385    1.6072    7.2868 O   0  0  0  0  0  0  0  0  0  0  0  0
   47.0878   -0.1764    7.7449 O   0  0  0  0  0  0  0  0  0  0  0  0
   46.4030    2.1149    8.0222 O   0  0  0  0  0  0  0  0  0  0  0  0
   47.2252    1.1933    7.2172 Na  0  0  0  0  0 15  0  0  0  0  0  0
   47.2252    1.1933    7.2172 Na  0  0  0  0  0 15  0  0  0  0  0  0
   47.4216    1.2307    6.8731 O   0  0  0  0  0  0  0  0  0  0  0  0
   47.4204    1.2349    6.8730 O   0  0  0  0  0  0  0  0  0  0  0  0
   47.4226    1.2266    6.8734 O   0  0  0  0  0  0  0  0  0  0  0  0
   47.4231    1.2247    6.8735 O   0  0  0  0  0  0  0  0  0  0  0  0
   47.4254    1.2161    6.8741 O   0  0  0  0  0  0  0  0  0  0  0  0
   47.4218    1.2298    6.8733 O   0  0  0  0  0  0  0  0  0  0  0  0
   47.4217    1.2302    6.8732 O   0  0  0  0  0  0  0  0  0  0  0  0
   47.4199    1.2365    6.8729 O   0  0  0  0  0  0  0  0  0  0  0  0
   47.4218    1.2296    6.8733 O   0  0  0  0  0  0  0  0  0  0  0  0
   47.3294    0.4386    7.4221 H   0  0  0  0  0  0  0  0  0  0  0  0
   46.9251    1.9095    7.3563 H   0  0  0  0  0  0  0  0  0  0  0  0
   47.3282    0.4389    7.4239 H   0  0  0  0  0  0  0  0  0  0  0  0
   46.9261    1.9104    7.3543 H   0  0  0  0  0  0  0  0  0  0  0  0
   46.9225    1.9074    7.3618 H   0  0  0  0  0  0  0  0  0  0  0  0
   47.3329    0.4376    7.4167 H   0  0  0  0  0  0  0  0  0  0  0  0
   47.3236    0.4402    7.4309 H   0  0  0  0  0  0  0  0  0  0  0  0
   46.9295    1.9131    7.3472 H   0  0  0  0  0  0  0  0  0  0  0  0
   47.3214    0.4409    7.4342 H   0  0  0  0  0  0  0  0  0  0  0  0
   46.9312    1.9144    7.3439 H   0  0  0  0  0  0  0  0  0  0  0  0
   47.3118    0.4440    7.4485 H   0  0  0  0  0  0  0  0  0  0  0  0
   46.9385    1.9198    7.3289 H   0  0  0  0  0  0  0  0  0  0  0  0
   47.3272    0.4392    7.4255 H   0  0  0  0  0  0  0  0  0  0  0  0
   46.9268    1.9109    7.3529 H   0  0  0  0  0  0  0  0  0  0  0  0
   47.3276    0.4391    7.4248 H   0  0  0  0  0  0  0  0  0  0  0  0
   46.9264    1.9107    7.3535 H   0  0  0  0  0  0  0  0  0  0  0  0
   47.3347    0.4372    7.4139 H   0  0  0  0  0  0  0  0  0  0  0  0
   46.9211    1.9062    7.3646 H   0  0  0  0  0  0  0  0  0  0  0  0
   46.9269    1.9111    7.3526 H   0  0  0  0  0  0  0  0  0  0  0  0
   47.3270    0.4392    7.4257 H   0  0  0  0  0  0  0  0  0  0  0  0
  2  3  2  0
  2  4  2  0
  2  5  1  0
  2  6  1  0
  1 18  1  0
  1 19  1  0
  9 20  1  0
  9 21  1  0
 10 22  1  0
 10 23  1  0
 11 24  1  0
 11 25  1  0
 12 26  1  0
 12 27  1  0
 13 28  1  0
 13 29  1  0
 14 30  1  0
 14 31  1  0
 15 32  1  0
 15 33  1  0
 16 34  1  0
 16 35  1  0
 17 36  1  0
 17 37  1  0
M  CHG  4   5  -1   6  -1   7   1   8   1
M  END
> <Uni-Dock RESULT> 
ENERGY=   -5.908  LOWER_BOUND=    0.459  UPPER_BOUND=    1.010
INTER + INTRA:          -5.908
INTER:                  -5.908
INTRA:                   0.000
UNBOUND:                 0.000

$$$$

     RDKit          3D

 37 24  0  0  0  0  0  0  0  0999 V2000
   39.6881   12.3424   15.9830 O   0  0  0  0  0  0  0  0  0  0  0  0
   39.7041   12.5363   15.6360 S   0  0  0  0  0  0  0  0  0  0  0  0
   38.5782   12.1477   16.5048 O   0  0  0  0  0  0  0  0  0  0  0  0
   40.9307   11.8537   16.0864 O   0  0  0  0  0  0  0  0  0  0  0  0
   39.8994   13.9958   15.7080 O   0  0  0  0  0  0  0  0  0  0  0  0
   39.4083   12.1481   14.2449 O   0  0  0  0  0  0  0  0  0  0  0  0
   39.7041   12.5363   15.6360 Na  0  0  0  0  0 15  0  0  0  0  0  0
   39.7041   12.5363   15.6360 Na  0  0  0  0  0 15  0  0  0  0  0  0
   39.6884   12.3434   15.9836 O   0  0  0  0  0  0  0  0  0  0  0  0
   39.6872   12.3397   15.9814 O   0  0  0  0  0  0  0  0  0  0  0  0
   39.6895   12.3469   15.9855 O   0  0  0  0  0  0  0  0  0  0  0  0
   39.6901   12.3486   15.9864 O   0  0  0  0  0  0  0  0  0  0  0  0
   39.6925   12.3562   15.9905 O   0  0  0  0  0  0  0  0  0  0  0  0
   39.6886   12.3442   15.9839 O   0  0  0  0  0  0  0  0  0  0  0  0
   39.6885   12.3438   15.9838 O   0  0  0  0  0  0  0  0  0  0  0  0
   39.6867   12.3383   15.9806 O   0  0  0  0  0  0  0  0  0  0  0  0
   39.6887   12.3443   15.9840 O   0  0  0  0  0  0  0  0  0  0  0  0
   39.9192   13.2707   15.8284 H   0  0  0  0  0  0  0  0  0  0  0  0
   39.5052   11.9960   15.0967 H   0  0  0  0  0  0  0  0  0  0  0  0
   39.9191   13.2713   15.8262 H   0  0  0  0  0  0  0  0  0  0  0  0
   39.5049   11.9943   15.0984 H   0  0  0  0  0  0  0  0  0  0  0  0
   39.5059   12.0003   15.0920 H   0  0  0  0  0  0  0  0  0  0  0  0
   39.9194   13.2690   15.8346 H   0  0  0  0  0  0  0  0  0  0  0  0
   39.9189   13.2734   15.8180 H   0  0  0  0  0  0  0  0  0  0  0  0
   39.5041   11.9887   15.1045 H   0  0  0  0  0  0  0  0  0  0  0  0
   39.9187   13.2743   15.8141 H   0  0  0  0  0  0  0  0  0  0  0  0
   39.5036   11.9860   15.1074 H   0  0  0  0  0  0  0  0  0  0  0  0
   39.9181   13.2785   15.7971 H   0  0  0  0  0  0  0  0  0  0  0  0
   39.5019   11.9744   15.1204 H   0  0  0  0  0  0  0  0  0  0  0  0
   39.9191   13.2717   15.8244 H   0  0  0  0  0  0  0  0  0  0  0  0
   39.5047   11.9932   15.0996 H   0  0  0  0  0  0  0  0  0  0  0  0
   39.9191   13.2715   15.8252 H   0  0  0  0  0  0  0  0  0  0  0  0
   39.5048   11.9937   15.0990 H   0  0  0  0  0  0  0  0  0  0  0  0
   39.9194   13.2680   15.8378 H   0  0  0  0  0  0  0  0  0  0  0  0
   39.5063   12.0027   15.0896 H   0  0  0  0  0  0  0  0  0  0  0  0
   39.5047   11.9929   15.0998 H   0  0  0  0  0  0  0  0  0  0  0  0
   39.9191   13.2718   15.8241 H   0  0  0  0  0  0  0  0  0  0  0  0
  2  3  2  0
  2  4  2  0
  2  5  1  0
  2  6  1  0
  1 18  1  0
  1 19  1  0
  9 20  1  0
  9 21  1  0
 10 22  1  0
 10 23  1  0
 11 24  1  0
 11 25  1  0
 12 26  1  0
 12 27  1  0
 13 28  1  0
 13 29  1  0
 14 30  1  0
 14 31  1  0
 15 32  1  0
 15 33  1  0
 16 34  1  0
 16 35  1  0
 17 36  1  0
 17 37  1  0
M  CHG  4   5  -1   6  -1   7   1   8   1
M  END
> <Uni-Dock RESULT> 
ENERGY=   -5.825  LOWER_BOUND=   15.410  UPPER_BOUND=   16.110
INTER + INTRA:          -5.825
INTER:                  -5.825
INTRA:                   0.000
UNBOUND:                 0.000

$$$$

     RDKit          3D

 37 24  0  0  0  0  0  0  0  0999 V2000
   46.4331    3.8767    7.0765 O   0  0  0  0  0  0  0  0  0  0  0  0
   46.6891    3.6150    6.9208 S   0  0  0  0  0  0  0  0  0  0  0  0
   45.2453    3.5401    7.2093 O   0  0  0  0  0  0  0  0  0  0  0  0
   47.2556    4.8183    7.5568 O   0  0  0  0  0  0  0  0  0  0  0  0
   46.8959    3.6862    5.4628 O   0  0  0  0  0  0  0  0  0  0  0  0
   47.3598    2.4153    7.4542 O   0  0  0  0  0  0  0  0  0  0  0  0
   46.6891    3.6150    6.9208 Na  0  0  0  0  0 15  0  0  0  0  0  0
   46.6891    3.6150    6.9208 Na  0  0  0  0  0 15  0  0  0  0  0  0
   46.4331    3.8773    7.0754 O   0  0  0  0  0  0  0  0  0  0  0  0
   46.4333    3.8752    7.0793 O   0  0  0  0  0  0  0  0  0  0  0  0
   46.4329    3.8793    7.0717 O   0  0  0  0  0  0  0  0  0  0  0  0
   46.4328    3.8802    7.0699 O   0  0  0  0  0  0  0  0  0  0  0  0
   46.4325    3.8842    7.0620 O   0  0  0  0  0  0  0  0  0  0  0  0
   46.4331    3.8777    7.0746 O   0  0  0  0  0  0  0  0  0  0  0  0
   46.4330    3.8775    7.0750 O   0  0  0  0  0  0  0  0  0  0  0  0
   46.4334    3.8744    7.0807 O   0  0  0  0  0  0  0  0  0  0  0  0
   46.4331    3.8778    7.0744 O   0  0  0  0  0  0  0  0  0  0  0  0
   46.7770    3.8445    6.1710 H   0  0  0  0  0  0  0  0  0  0  0  0
   46.8573    3.1238    7.5148 H   0  0  0  0  0  0  0  0  0  0  0  0
   46.7784    3.8427    6.1707 H   0  0  0  0  0  0  0  0  0  0  0  0
   46.8558    3.1250    7.5163 H   0  0  0  0  0  0  0  0  0  0  0  0
   46.8612    3.1205    7.5110 H   0  0  0  0  0  0  0  0  0  0  0  0
   46.7729    3.8493    6.1721 H   0  0  0  0  0  0  0  0  0  0  0  0
   46.7838    3.8364    6.1694 H   0  0  0  0  0  0  0  0  0  0  0  0
   46.8507    3.1294    7.5212 H   0  0  0  0  0  0  0  0  0  0  0  0
   46.7864    3.8332    6.1689 H   0  0  0  0  0  0  0  0  0  0  0  0
   46.8483    3.1315    7.5236 H   0  0  0  0  0  0  0  0  0  0  0  0
   46.7974    3.8199    6.1666 H   0  0  0  0  0  0  0  0  0  0  0  0
   46.8375    3.1408    7.5337 H   0  0  0  0  0  0  0  0  0  0  0  0
   46.7796    3.8413    6.1704 H   0  0  0  0  0  0  0  0  0  0  0  0
   46.8548    3.1259    7.5173 H   0  0  0  0  0  0  0  0  0  0  0  0
   46.7791    3.8420    6.1705 H   0  0  0  0  0  0  0  0  0  0  0  0
   46.8553    3.1255    7.5168 H   0  0  0  0  0  0  0  0  0  0  0  0
   46.7707    3.8519    6.1727 H   0  0  0  0  0  0  0  0  0  0  0  0
   46.8632    3.1187    7.5089 H   0  0  0  0  0  0  0  0  0  0  0  0
   46.8546    3.1261    7.5175 H   0  0  0  0  0  0  0  0  0  0  0  0
   46.7798    3.8411    6.1704 H   0  0  0  0  0  0  0  0  0  0  0  0
  2  3  2  0
  2  4  2  0
  2  5  1  0
  2  6  1  0
  1 18  1  0
  1 19  1  0
  9 20  1  0
  9 21  1  0
 10 22  1  0
 10 23  1  0
 11 24  1  0
 11 25  1  0
 12 26  1  0
 12 27  1  0
 13 28  1  0
 13 29  1  0
 14 30  1  0
 14 31  1  0
 15 32  1  0
 15 33  1  0
 16 34  1  0
 16 35  1  0
 17 36  1  0
 17 37  1  0
M  CHG  4   5  -1   6  -1   7   1   8   1
M  END
> <Uni-Dock RESULT> 
ENERGY=   -5.483  LOWER_BOUND=    2.360  UPPER_BOUND=    3.042
INTER + INTRA:          -5.483
INTER:                  -5.483
INTRA:                   0.000
UNBOUND:                 0.000

$$$$
