
     RDKit          3D

 37 24  0  0  0  0  0  0  0  0999 V2000
   48.2059    2.0599    6.5613 O   0  0  0  0  0  0  0  0  0  0  0  0
   47.8126    2.1200    6.5632 S   0  0  0  0  0  0  0  0  0  0  0  0
   47.1522    3.1965    7.3237 O   0  0  0  0  0  0  0  0  0  0  0  0
   47.4873    2.2586    5.1320 O   0  0  0  0  0  0  0  0  0  0  0  0
   47.3386    0.8120    7.0505 O   0  0  0  0  0  0  0  0  0  0  0  0
   49.2724    2.2132    6.7466 O   0  0  0  0  0  0  0  0  0  0  0  0
   47.8126    2.1200    6.5632 Na  0  0  0  0  0 15  0  0  0  0  0  0
   47.8126    2.1200    6.5632 Na  0  0  0  0  0 15  0  0  0  0  0  0
   48.2058    2.0595    6.5616 O   0  0  0  0  0  0  0  0  0  0  0  0
   48.2060    2.0605    6.5608 O   0  0  0  0  0  0  0  0  0  0  0  0
   48.2058    2.0594    6.5616 O   0  0  0  0  0  0  0  0  0  0  0  0
   48.2059    2.0598    6.5613 O   0  0  0  0  0  0  0  0  0  0  0  0
   48.2060    2.0610    6.5604 O   0  0  0  0  0  0  0  0  0  0  0  0
   48.2059    2.0604    6.5608 O   0  0  0  0  0  0  0  0  0  0  0  0
   48.2058    2.0594    6.5616 O   0  0  0  0  0  0  0  0  0  0  0  0
   48.2059    2.0599    6.5613 O   0  0  0  0  0  0  0  0  0  0  0  0
   48.2058    2.0594    6.5616 O   0  0  0  0  0  0  0  0  0  0  0  0
   47.5279    1.5591    7.0392 H   0  0  0  0  0  0  0  0  0  0  0  0
   47.7042    2.7413    6.0891 H   0  0  0  0  0  0  0  0  0  0  0  0
   47.5270    1.5593    7.0390 H   0  0  0  0  0  0  0  0  0  0  0  0
   47.7051    2.7413    6.0890 H   0  0  0  0  0  0  0  0  0  0  0  0
   47.5294    1.5584    7.0395 H   0  0  0  0  0  0  0  0  0  0  0  0
   47.7026    2.7412    6.0893 H   0  0  0  0  0  0  0  0  0  0  0  0
   47.5269    1.5594    7.0390 H   0  0  0  0  0  0  0  0  0  0  0  0
   47.7052    2.7413    6.0890 H   0  0  0  0  0  0  0  0  0  0  0  0
   47.5278    1.5591    7.0392 H   0  0  0  0  0  0  0  0  0  0  0  0
   47.7043    2.7413    6.0891 H   0  0  0  0  0  0  0  0  0  0  0  0
   47.5304    1.5580    7.0396 H   0  0  0  0  0  0  0  0  0  0  0  0
   47.7015    2.7412    6.0895 H   0  0  0  0  0  0  0  0  0  0  0  0
   47.5291    1.5585    7.0394 H   0  0  0  0  0  0  0  0  0  0  0  0
   47.7028    2.7412    6.0893 H   0  0  0  0  0  0  0  0  0  0  0  0
   47.5269    1.5594    7.0390 H   0  0  0  0  0  0  0  0  0  0  0  0
   47.7052    2.7413    6.0890 H   0  0  0  0  0  0  0  0  0  0  0  0
   47.5280    1.5590    7.0392 H   0  0  0  0  0  0  0  0  0  0  0  0
   47.7041    2.7412    6.0892 H   0  0  0  0  0  0  0  0  0  0  0  0
   47.7052    2.7413    6.0890 H   0  0  0  0  0  0  0  0  0  0  0  0
   47.5269    1.5594    7.0390 H   0  0  0  0  0  0  0  0  0  0  0  0
  2  3  2  0
  2  4  2  0
  2  5  1  0
  2  6  1  0
  1 18  1  0
  1 19  1  0
  9 20  1  0
  9 21  1  0
 10 22  1  0
 10 23  1  0
 11 24  1  0
 11 25  1  0
 12 26  1  0
 12 27  1  0
 13 28  1  0
 13 29  1  0
 14 30  1  0
 14 31  1  0
 15 32  1  0
 15 33  1  0
 16 34  1  0
 16 35  1  0
 17 36  1  0
 17 37  1  0
M  CHG  4   5  -1   6  -1   7   1   8   1
M  END
> <Uni-Dock RESULT> 
ENERGY=   -6.532  LOWER_BOUND=    0.000  UPPER_BOUND=    0.000
INTER + INTRA:          -6.532
INTER:                  -6.532
INTRA:                   0.000
UNBOUND:                 0.000

$$$$

     RDKit          3D

 37 24  0  0  0  0  0  0  0  0999 V2000
   48.1739    2.0524    6.6953 O   0  0  0  0  0  0  0  0  0  0  0  0
   47.8000    2.0524    6.5595 S   0  0  0  0  0  0  0  0  0  0  0  0
   47.4399    2.2961    5.1509 O   0  0  0  0  0  0  0  0  0  0  0  0
   47.2919    0.7325    6.9754 O   0  0  0  0  0  0  0  0  0  0  0  0
   47.2014    3.0990    7.4078 O   0  0  0  0  0  0  0  0  0  0  0  0
   49.2668    2.0821    6.7039 O   0  0  0  0  0  0  0  0  0  0  0  0
   47.8000    2.0524    6.5595 Na  0  0  0  0  0 15  0  0  0  0  0  0
   47.8000    2.0524    6.5595 Na  0  0  0  0  0 15  0  0  0  0  0  0
   48.1738    2.0528    6.6955 O   0  0  0  0  0  0  0  0  0  0  0  0
   48.1740    2.0517    6.6950 O   0  0  0  0  0  0  0  0  0  0  0  0
   48.1738    2.0529    6.6955 O   0  0  0  0  0  0  0  0  0  0  0  0
   48.1739    2.0525    6.6953 O   0  0  0  0  0  0  0  0  0  0  0  0
   48.1741    2.0511    6.6948 O   0  0  0  0  0  0  0  0  0  0  0  0
   48.1740    2.0518    6.6950 O   0  0  0  0  0  0  0  0  0  0  0  0
   48.1738    2.0529    6.6955 O   0  0  0  0  0  0  0  0  0  0  0  0
   48.1739    2.0524    6.6953 O   0  0  0  0  0  0  0  0  0  0  0  0
   48.1738    2.0529    6.6955 O   0  0  0  0  0  0  0  0  0  0  0  0
   47.5034    2.7450    6.7934 H   0  0  0  0  0  0  0  0  0  0  0  0
   47.7227    1.3597    6.1898 H   0  0  0  0  0  0  0  0  0  0  0  0
   47.5026    2.7449    6.7930 H   0  0  0  0  0  0  0  0  0  0  0  0
   47.7235    1.3595    6.1901 H   0  0  0  0  0  0  0  0  0  0  0  0
   47.5049    2.7455    6.7941 H   0  0  0  0  0  0  0  0  0  0  0  0
   47.7211    1.3601    6.1894 H   0  0  0  0  0  0  0  0  0  0  0  0
   47.5025    2.7449    6.7929 H   0  0  0  0  0  0  0  0  0  0  0  0
   47.7236    1.3595    6.1901 H   0  0  0  0  0  0  0  0  0  0  0  0
   47.5033    2.7450    6.7933 H   0  0  0  0  0  0  0  0  0  0  0  0
   47.7228    1.3597    6.1899 H   0  0  0  0  0  0  0  0  0  0  0  0
   47.5059    2.7458    6.7946 H   0  0  0  0  0  0  0  0  0  0  0  0
   47.7200    1.3603    6.1892 H   0  0  0  0  0  0  0  0  0  0  0  0
   47.5046    2.7454    6.7940 H   0  0  0  0  0  0  0  0  0  0  0  0
   47.7213    1.3601    6.1895 H   0  0  0  0  0  0  0  0  0  0  0  0
   47.5025    2.7449    6.7929 H   0  0  0  0  0  0  0  0  0  0  0  0
   47.7236    1.3595    6.1901 H   0  0  0  0  0  0  0  0  0  0  0  0
   47.5035    2.7451    6.7934 H   0  0  0  0  0  0  0  0  0  0  0  0
   47.7225    1.3598    6.1898 H   0  0  0  0  0  0  0  0  0  0  0  0
   47.7236    1.3595    6.1901 H   0  0  0  0  0  0  0  0  0  0  0  0
   47.5025    2.7449    6.7929 H   0  0  0  0  0  0  0  0  0  0  0  0
  2  3  2  0
  2  4  2  0
  2  5  1  0
  2  6  1  0
  1 18  1  0
  1 19  1  0
  9 20  1  0
  9 21  1  0
 10 22  1  0
 10 23  1  0
 11 24  1  0
 11 25  1  0
 12 26  1  0
 12 27  1  0
 13 28  1  0
 13 29  1  0
 14 30  1  0
 14 31  1  0
 15 32  1  0
 15 33  1  0
 16 34  1  0
 16 35  1  0
 17 36  1  0
 17 37  1  0
M  CHG  4   5  -1   6  -1   7   1   8   1
M  END
> <Uni-Dock RESULT> 
ENERGY=   -6.479  LOWER_BOUND=    0.124  UPPER_BOUND=    0.999
INTER + INTRA:          -6.479
INTER:                  -6.479
INTRA:                   0.000
UNBOUND:                 0.000

$$$$

     RDKit          3D

 37 24  0  0  0  0  0  0  0  0999 V2000
   47.4815    1.3139    7.2415 O   0  0  0  0  0  0  0  0  0  0  0  0
   47.1232    1.1415    7.2555 S   0  0  0  0  0  0  0  0  0  0  0  0
   46.9171   -0.3060    7.4444 O   0  0  0  0  0  0  0  0  0  0  0  0
   46.4372    1.8801    8.3312 O   0  0  0  0  0  0  0  0  0  0  0  0
   46.5727    1.5500    5.9504 O   0  0  0  0  0  0  0  0  0  0  0  0
   48.5660    1.4418    7.2960 O   0  0  0  0  0  0  0  0  0  0  0  0
   47.1232    1.1415    7.2555 Na  0  0  0  0  0 15  0  0  0  0  0  0
   47.1232    1.1415    7.2555 Na  0  0  0  0  0 15  0  0  0  0  0  0
   47.4815    1.3139    7.2410 O   0  0  0  0  0  0  0  0  0  0  0  0
   47.4816    1.3138    7.2423 O   0  0  0  0  0  0  0  0  0  0  0  0
   47.4815    1.3139    7.2409 O   0  0  0  0  0  0  0  0  0  0  0  0
   47.4815    1.3139    7.2414 O   0  0  0  0  0  0  0  0  0  0  0  0
   47.4816    1.3137    7.2429 O   0  0  0  0  0  0  0  0  0  0  0  0
   47.4816    1.3138    7.2422 O   0  0  0  0  0  0  0  0  0  0  0  0
   47.4815    1.3139    7.2409 O   0  0  0  0  0  0  0  0  0  0  0  0
   47.4815    1.3139    7.2415 O   0  0  0  0  0  0  0  0  0  0  0  0
   47.4815    1.3139    7.2409 O   0  0  0  0  0  0  0  0  0  0  0  0
   46.8861    1.1143    6.5036 H   0  0  0  0  0  0  0  0  0  0  0  0
   47.0021    0.9964    8.0215 H   0  0  0  0  0  0  0  0  0  0  0  0
   46.8853    1.1139    6.5038 H   0  0  0  0  0  0  0  0  0  0  0  0
   47.0029    0.9967    8.0217 H   0  0  0  0  0  0  0  0  0  0  0  0
   46.8875    1.1150    6.5030 H   0  0  0  0  0  0  0  0  0  0  0  0
   47.0006    0.9957    8.0211 H   0  0  0  0  0  0  0  0  0  0  0  0
   46.8852    1.1138    6.5038 H   0  0  0  0  0  0  0  0  0  0  0  0
   47.0030    0.9968    8.0216 H   0  0  0  0  0  0  0  0  0  0  0  0
   46.8860    1.1143    6.5036 H   0  0  0  0  0  0  0  0  0  0  0  0
   47.0022    0.9964    8.0215 H   0  0  0  0  0  0  0  0  0  0  0  0
   46.8885    1.1155    6.5027 H   0  0  0  0  0  0  0  0  0  0  0  0
   46.9996    0.9952    8.0209 H   0  0  0  0  0  0  0  0  0  0  0  0
   46.8873    1.1149    6.5031 H   0  0  0  0  0  0  0  0  0  0  0  0
   47.0008    0.9958    8.0211 H   0  0  0  0  0  0  0  0  0  0  0  0
   46.8852    1.1138    6.5038 H   0  0  0  0  0  0  0  0  0  0  0  0
   47.0030    0.9968    8.0216 H   0  0  0  0  0  0  0  0  0  0  0  0
   46.8862    1.1143    6.5035 H   0  0  0  0  0  0  0  0  0  0  0  0
   47.0020    0.9963    8.0214 H   0  0  0  0  0  0  0  0  0  0  0  0
   47.0030    0.9968    8.0216 H   0  0  0  0  0  0  0  0  0  0  0  0
   46.8852    1.1138    6.5038 H   0  0  0  0  0  0  0  0  0  0  0  0
  2  3  2  0
  2  4  2  0
  2  5  1  0
  2  6  1  0
  1 18  1  0
  1 19  1  0
  9 20  1  0
  9 21  1  0
 10 22  1  0
 10 23  1  0
 11 24  1  0
 11 25  1  0
 12 26  1  0
 12 27  1  0
 13 28  1  0
 13 29  1  0
 14 30  1  0
 14 31  1  0
 15 32  1  0
 15 33  1  0
 16 34  1  0
 16 35  1  0
 17 36  1  0
 17 37  1  0
M  CHG  4   5  -1   6  -1   7   1   8   1
M  END
> <Uni-Dock RESULT> 
ENERGY=   -6.429  LOWER_BOUND=    1.169  UPPER_BOUND=    1.693
INTER + INTRA:          -6.429
INTER:                  -6.429
INTRA:                   0.000
UNBOUND:                 0.000

$$$$

     RDKit          3D

 37 24  0  0  0  0  0  0  0  0999 V2000
   42.2481    5.6176   11.9353 O   0  0  0  0  0  0  0  0  0  0  0  0
   42.6335    5.5204   11.9518 S   0  0  0  0  0  0  0  0  0  0  0  0
   43.7059    6.3131   11.3232 O   0  0  0  0  0  0  0  0  0  0  0  0
   42.8897    5.4077   13.3992 O   0  0  0  0  0  0  0  0  0  0  0  0
   42.6016    4.1741   11.3520 O   0  0  0  0  0  0  0  0  0  0  0  0
   41.3370    6.1869   11.7327 O   0  0  0  0  0  0  0  0  0  0  0  0
   42.6335    5.5204   11.9518 Na  0  0  0  0  0 15  0  0  0  0  0  0
   42.6335    5.5204   11.9518 Na  0  0  0  0  0 15  0  0  0  0  0  0
   42.2481    5.6172   11.9350 O   0  0  0  0  0  0  0  0  0  0  0  0
   42.2483    5.6182   11.9359 O   0  0  0  0  0  0  0  0  0  0  0  0
   42.2481    5.6172   11.9349 O   0  0  0  0  0  0  0  0  0  0  0  0
   42.2481    5.6175   11.9353 O   0  0  0  0  0  0  0  0  0  0  0  0
   42.2484    5.6186   11.9363 O   0  0  0  0  0  0  0  0  0  0  0  0
   42.2482    5.6181   11.9358 O   0  0  0  0  0  0  0  0  0  0  0  0
   42.2481    5.6172   11.9349 O   0  0  0  0  0  0  0  0  0  0  0  0
   42.2481    5.6176   11.9353 O   0  0  0  0  0  0  0  0  0  0  0  0
   42.2481    5.6172   11.9349 O   0  0  0  0  0  0  0  0  0  0  0  0
   42.7129    4.9326   11.4316 H   0  0  0  0  0  0  0  0  0  0  0  0
   42.9396    6.0111   12.4884 H   0  0  0  0  0  0  0  0  0  0  0  0
   42.7138    4.9326   11.4318 H   0  0  0  0  0  0  0  0  0  0  0  0
   42.9388    6.0115   12.4885 H   0  0  0  0  0  0  0  0  0  0  0  0
   42.7113    4.9327   11.4312 H   0  0  0  0  0  0  0  0  0  0  0  0
   42.9411    6.0105   12.4882 H   0  0  0  0  0  0  0  0  0  0  0  0
   42.7139    4.9325   11.4318 H   0  0  0  0  0  0  0  0  0  0  0  0
   42.9387    6.0115   12.4885 H   0  0  0  0  0  0  0  0  0  0  0  0
   42.7130    4.9326   11.4316 H   0  0  0  0  0  0  0  0  0  0  0  0
   42.9395    6.0112   12.4884 H   0  0  0  0  0  0  0  0  0  0  0  0
   42.7102    4.9327   11.4309 H   0  0  0  0  0  0  0  0  0  0  0  0
   42.9421    6.0100   12.4881 H   0  0  0  0  0  0  0  0  0  0  0  0
   42.7116    4.9327   11.4313 H   0  0  0  0  0  0  0  0  0  0  0  0
   42.9409    6.0105   12.4882 H   0  0  0  0  0  0  0  0  0  0  0  0
   42.7139    4.9325   11.4318 H   0  0  0  0  0  0  0  0  0  0  0  0
   42.9387    6.0115   12.4885 H   0  0  0  0  0  0  0  0  0  0  0  0
   42.7128    4.9326   11.4315 H   0  0  0  0  0  0  0  0  0  0  0  0
   42.9397    6.0110   12.4884 H   0  0  0  0  0  0  0  0  0  0  0  0
   42.9387    6.0115   12.4885 H   0  0  0  0  0  0  0  0  0  0  0  0
   42.7139    4.9325   11.4318 H   0  0  0  0  0  0  0  0  0  0  0  0
  2  3  2  0
  2  4  2  0
  2  5  1  0
  2  6  1  0
  1 18  1  0
  1 19  1  0
  9 20  1  0
  9 21  1  0
 10 22  1  0
 10 23  1  0
 11 24  1  0
 11 25  1  0
 12 26  1  0
 12 27  1  0
 13 28  1  0
 13 29  1  0
 14 30  1  0
 14 31  1  0
 15 32  1  0
 15 33  1  0
 16 34  1  0
 16 35  1  0
 17 36  1  0
 17 37  1  0
M  CHG  4   5  -1   6  -1   7   1   8   1
M  END
> <Uni-Dock RESULT> 
ENERGY=   -6.314  LOWER_BOUND=    7.728  UPPER_BOUND=    8.628
INTER + INTRA:          -6.314
INTER:                  -6.314
INTRA:                   0.000
UNBOUND:                 0.000

$$$$

     RDKit          3D

 37 24  0  0  0  0  0  0  0  0999 V2000
   42.2354    5.6370   11.7871 O   0  0  0  0  0  0  0  0  0  0  0  0
   42.5877    5.5049   11.9163 S   0  0  0  0  0  0  0  0  0  0  0  0
   42.9970    5.5144   13.3325 O   0  0  0  0  0  0  0  0  0  0  0  0
   42.6393    4.1254   11.3990 O   0  0  0  0  0  0  0  0  0  0  0  0
   43.5020    6.3574   11.1348 O   0  0  0  0  0  0  0  0  0  0  0  0
   41.2123    6.0226   11.7989 O   0  0  0  0  0  0  0  0  0  0  0  0
   42.5877    5.5049   11.9163 Na  0  0  0  0  0 15  0  0  0  0  0  0
   42.5877    5.5049   11.9163 Na  0  0  0  0  0 15  0  0  0  0  0  0
   42.2356    5.6374   11.7869 O   0  0  0  0  0  0  0  0  0  0  0  0
   42.2350    5.6363   11.7874 O   0  0  0  0  0  0  0  0  0  0  0  0
   42.2356    5.6375   11.7869 O   0  0  0  0  0  0  0  0  0  0  0  0
   42.2354    5.6370   11.7871 O   0  0  0  0  0  0  0  0  0  0  0  0
   42.2347    5.6358   11.7876 O   0  0  0  0  0  0  0  0  0  0  0  0
   42.2351    5.6364   11.7873 O   0  0  0  0  0  0  0  0  0  0  0  0
   42.2356    5.6375   11.7869 O   0  0  0  0  0  0  0  0  0  0  0  0
   42.2354    5.6370   11.7871 O   0  0  0  0  0  0  0  0  0  0  0  0
   42.2356    5.6375   11.7869 O   0  0  0  0  0  0  0  0  0  0  0  0
   43.0962    6.0778   11.7275 H   0  0  0  0  0  0  0  0  0  0  0  0
   42.4314    4.8000   12.2344 H   0  0  0  0  0  0  0  0  0  0  0  0
   43.0969    6.0773   11.7278 H   0  0  0  0  0  0  0  0  0  0  0  0
   42.4305    4.8002   12.2341 H   0  0  0  0  0  0  0  0  0  0  0  0
   43.0950    6.0787   11.7268 H   0  0  0  0  0  0  0  0  0  0  0  0
   42.4330    4.7998   12.2347 H   0  0  0  0  0  0  0  0  0  0  0  0
   43.0970    6.0772   11.7279 H   0  0  0  0  0  0  0  0  0  0  0  0
   42.4304    4.8002   12.2341 H   0  0  0  0  0  0  0  0  0  0  0  0
   43.0963    6.0777   11.7275 H   0  0  0  0  0  0  0  0  0  0  0  0
   42.4313    4.8001   12.2343 H   0  0  0  0  0  0  0  0  0  0  0  0
   43.0942    6.0793   11.7263 H   0  0  0  0  0  0  0  0  0  0  0  0
   42.4341    4.7997   12.2350 H   0  0  0  0  0  0  0  0  0  0  0  0
   43.0952    6.0785   11.7269 H   0  0  0  0  0  0  0  0  0  0  0  0
   42.4328    4.7999   12.2347 H   0  0  0  0  0  0  0  0  0  0  0  0
   43.0970    6.0772   11.7279 H   0  0  0  0  0  0  0  0  0  0  0  0
   42.4304    4.8002   12.2341 H   0  0  0  0  0  0  0  0  0  0  0  0
   43.0961    6.0779   11.7274 H   0  0  0  0  0  0  0  0  0  0  0  0
   42.4315    4.8001   12.2344 H   0  0  0  0  0  0  0  0  0  0  0  0
   42.4304    4.8002   12.2341 H   0  0  0  0  0  0  0  0  0  0  0  0
   43.0970    6.0772   11.7279 H   0  0  0  0  0  0  0  0  0  0  0  0
  2  3  2  0
  2  4  2  0
  2  5  1  0
  2  6  1  0
  1 18  1  0
  1 19  1  0
  9 20  1  0
  9 21  1  0
 10 22  1  0
 10 23  1  0
 11 24  1  0
 11 25  1  0
 12 26  1  0
 12 27  1  0
 13 28  1  0
 13 29  1  0
 14 30  1  0
 14 31  1  0
 15 32  1  0
 15 33  1  0
 16 34  1  0
 16 35  1  0
 17 36  1  0
 17 37  1  0
M  CHG  4   5  -1   6  -1   7   1   8   1
M  END
> <Uni-Dock RESULT> 
ENERGY=   -6.187  LOWER_BOUND=    7.724  UPPER_BOUND=    8.582
INTER + INTRA:          -6.187
INTER:                  -6.187
INTRA:                   0.000
UNBOUND:                 0.000

$$$$

     RDKit          3D

 37 24  0  0  0  0  0  0  0  0999 V2000
   40.2314   12.3162   15.8183 O   0  0  0  0  0  0  0  0  0  0  0  0
   39.9605   12.4583   15.5641 S   0  0  0  0  0  0  0  0  0  0  0  0
   39.8181   11.9912   14.1730 O   0  0  0  0  0  0  0  0  0  0  0  0
   38.6888   12.2582   16.2823 O   0  0  0  0  0  0  0  0  0  0  0  0
   40.3070   13.8912   15.5682 O   0  0  0  0  0  0  0  0  0  0  0  0
   41.0282   11.6925   16.2326 O   0  0  0  0  0  0  0  0  0  0  0  0
   39.9605   12.4583   15.5641 Na  0  0  0  0  0 15  0  0  0  0  0  0
   39.9605   12.4583   15.5641 Na  0  0  0  0  0 15  0  0  0  0  0  0
   40.2317   12.3166   15.8183 O   0  0  0  0  0  0  0  0  0  0  0  0
   40.2310   12.3156   15.8184 O   0  0  0  0  0  0  0  0  0  0  0  0
   40.2318   12.3167   15.8183 O   0  0  0  0  0  0  0  0  0  0  0  0
   40.2315   12.3163   15.8183 O   0  0  0  0  0  0  0  0  0  0  0  0
   40.2307   12.3151   15.8185 O   0  0  0  0  0  0  0  0  0  0  0  0
   40.2311   12.3157   15.8184 O   0  0  0  0  0  0  0  0  0  0  0  0
   40.2318   12.3167   15.8183 O   0  0  0  0  0  0  0  0  0  0  0  0
   40.2314   12.3162   15.8183 O   0  0  0  0  0  0  0  0  0  0  0  0
   40.2318   12.3167   15.8183 O   0  0  0  0  0  0  0  0  0  0  0  0
   40.2469   13.1579   15.3385 H   0  0  0  0  0  0  0  0  0  0  0  0
   39.4031   11.9007   15.5353 H   0  0  0  0  0  0  0  0  0  0  0  0
   40.2462   13.1581   15.3380 H   0  0  0  0  0  0  0  0  0  0  0  0
   39.4036   11.9002   15.5359 H   0  0  0  0  0  0  0  0  0  0  0  0
   40.2483   13.1578   15.3395 H   0  0  0  0  0  0  0  0  0  0  0  0
   39.4022   11.9016   15.5343 H   0  0  0  0  0  0  0  0  0  0  0  0
   40.2461   13.1581   15.3379 H   0  0  0  0  0  0  0  0  0  0  0  0
   39.4037   11.9001   15.5360 H   0  0  0  0  0  0  0  0  0  0  0  0
   40.2469   13.1579   15.3384 H   0  0  0  0  0  0  0  0  0  0  0  0
   39.4032   11.9006   15.5354 H   0  0  0  0  0  0  0  0  0  0  0  0
   40.2492   13.1576   15.3401 H   0  0  0  0  0  0  0  0  0  0  0  0
   39.4017   11.9022   15.5335 H   0  0  0  0  0  0  0  0  0  0  0  0
   40.2480   13.1578   15.3393 H   0  0  0  0  0  0  0  0  0  0  0  0
   39.4024   11.9015   15.5344 H   0  0  0  0  0  0  0  0  0  0  0  0
   40.2461   13.1581   15.3379 H   0  0  0  0  0  0  0  0  0  0  0  0
   39.4037   11.9001   15.5360 H   0  0  0  0  0  0  0  0  0  0  0  0
   40.2471   13.1580   15.3386 H   0  0  0  0  0  0  0  0  0  0  0  0
   39.4031   11.9008   15.5353 H   0  0  0  0  0  0  0  0  0  0  0  0
   39.4037   11.9001   15.5360 H   0  0  0  0  0  0  0  0  0  0  0  0
   40.2461   13.1581   15.3379 H   0  0  0  0  0  0  0  0  0  0  0  0
  2  3  2  0
  2  4  2  0
  2  5  1  0
  2  6  1  0
  1 18  1  0
  1 19  1  0
  9 20  1  0
  9 21  1  0
 10 22  1  0
 10 23  1  0
 11 24  1  0
 11 25  1  0
 12 26  1  0
 12 27  1  0
 13 28  1  0
 13 29  1  0
 14 30  1  0
 14 31  1  0
 15 32  1  0
 15 33  1  0
 16 34  1  0
 16 35  1  0
 17 36  1  0
 17 37  1  0
M  CHG  4   5  -1   6  -1   7   1   8   1
M  END
> <Uni-Dock RESULT> 
ENERGY=   -6.020  LOWER_BOUND=   15.153  UPPER_BOUND=   15.930
INTER + INTRA:          -6.020
INTER:                  -6.020
INTRA:                   0.000
UNBOUND:                 0.000

$$$$

     RDKit          3D

 37 24  0  0  0  0  0  0  0  0999 V2000
   40.3498   12.2634   15.7533 O   0  0  0  0  0  0  0  0  0  0  0  0
   40.0194   12.4434   15.6242 S   0  0  0  0  0  0  0  0  0  0  0  0
   38.7011   12.2957   16.2675 O   0  0  0  0  0  0  0  0  0  0  0  0
   40.3994   13.8676   15.6037 O   0  0  0  0  0  0  0  0  0  0  0  0
   39.9520   11.9329   14.2429 O   0  0  0  0  0  0  0  0  0  0  0  0
   41.0249   11.6774   16.3828 O   0  0  0  0  0  0  0  0  0  0  0  0
   40.0194   12.4434   15.6242 Na  0  0  0  0  0 15  0  0  0  0  0  0
   40.0194   12.4434   15.6242 Na  0  0  0  0  0 15  0  0  0  0  0  0
   40.3498   12.2630   15.7529 O   0  0  0  0  0  0  0  0  0  0  0  0
   40.3498   12.2639   15.7539 O   0  0  0  0  0  0  0  0  0  0  0  0
   40.3497   12.2630   15.7528 O   0  0  0  0  0  0  0  0  0  0  0  0
   40.3498   12.2633   15.7532 O   0  0  0  0  0  0  0  0  0  0  0  0
   40.3499   12.2643   15.7543 O   0  0  0  0  0  0  0  0  0  0  0  0
   40.3498   12.2638   15.7538 O   0  0  0  0  0  0  0  0  0  0  0  0
   40.3497   12.2630   15.7528 O   0  0  0  0  0  0  0  0  0  0  0  0
   40.3498   12.2634   15.7533 O   0  0  0  0  0  0  0  0  0  0  0  0
   40.3497   12.2630   15.7528 O   0  0  0  0  0  0  0  0  0  0  0  0
   39.7988   12.0254   14.9926 H   0  0  0  0  0  0  0  0  0  0  0  0
   39.9095   13.0415   16.1269 H   0  0  0  0  0  0  0  0  0  0  0  0
   39.7980   12.0259   14.9924 H   0  0  0  0  0  0  0  0  0  0  0  0
   39.9103   13.0413   16.1273 H   0  0  0  0  0  0  0  0  0  0  0  0
   39.8001   12.0243   14.9927 H   0  0  0  0  0  0  0  0  0  0  0  0
   39.9082   13.0420   16.1260 H   0  0  0  0  0  0  0  0  0  0  0  0
   39.7980   12.0260   14.9924 H   0  0  0  0  0  0  0  0  0  0  0  0
   39.9104   13.0412   16.1273 H   0  0  0  0  0  0  0  0  0  0  0  0
   39.7987   12.0254   14.9926 H   0  0  0  0  0  0  0  0  0  0  0  0
   39.9096   13.0415   16.1269 H   0  0  0  0  0  0  0  0  0  0  0  0
   39.8010   12.0236   14.9929 H   0  0  0  0  0  0  0  0  0  0  0  0
   39.9073   13.0423   16.1255 H   0  0  0  0  0  0  0  0  0  0  0  0
   39.7998   12.0245   14.9927 H   0  0  0  0  0  0  0  0  0  0  0  0
   39.9084   13.0419   16.1261 H   0  0  0  0  0  0  0  0  0  0  0  0
   39.7980   12.0260   14.9924 H   0  0  0  0  0  0  0  0  0  0  0  0
   39.9104   13.0412   16.1273 H   0  0  0  0  0  0  0  0  0  0  0  0
   39.7989   12.0253   14.9925 H   0  0  0  0  0  0  0  0  0  0  0  0
   39.9095   13.0415   16.1268 H   0  0  0  0  0  0  0  0  0  0  0  0
   39.9104   13.0412   16.1273 H   0  0  0  0  0  0  0  0  0  0  0  0
   39.7980   12.0260   14.9924 H   0  0  0  0  0  0  0  0  0  0  0  0
  2  3  2  0
  2  4  2  0
  2  5  1  0
  2  6  1  0
  1 18  1  0
  1 19  1  0
  9 20  1  0
  9 21  1  0
 10 22  1  0
 10 23  1  0
 11 24  1  0
 11 25  1  0
 12 26  1  0
 12 27  1  0
 13 28  1  0
 13 29  1  0
 14 30  1  0
 14 31  1  0
 15 32  1  0
 15 33  1  0
 16 34  1  0
 16 35  1  0
 17 36  1  0
 17 37  1  0
M  CHG  4   5  -1   6  -1   7   1   8   1
M  END
> <Uni-Dock RESULT> 
ENERGY=   -6.017  LOWER_BOUND=   15.090  UPPER_BOUND=   15.831
INTER + INTRA:          -6.017
INTER:                  -6.017
INTRA:                   0.000
UNBOUND:                 0.000

$$$$

     RDKit          3D

 37 24  0  0  0  0  0  0  0  0999 V2000
   42.8435    5.2598   12.9802 O   0  0  0  0  0  0  0  0  0  0  0  0
   42.9866    5.3113   12.6126 S   0  0  0  0  0  0  0  0  0  0  0  0
   43.4960    4.2137   11.7705 O   0  0  0  0  0  0  0  0  0  0  0  0
   41.8815    5.9936   11.9151 O   0  0  0  0  0  0  0  0  0  0  0  0
   44.0717    6.2743   12.8741 O   0  0  0  0  0  0  0  0  0  0  0  0
   42.4971    4.7635   13.8908 O   0  0  0  0  0  0  0  0  0  0  0  0
   42.9866    5.3113   12.6126 Na  0  0  0  0  0 15  0  0  0  0  0  0
   42.9866    5.3113   12.6126 Na  0  0  0  0  0 15  0  0  0  0  0  0
   42.8440    5.2600   12.9804 O   0  0  0  0  0  0  0  0  0  0  0  0
   42.8429    5.2596   12.9799 O   0  0  0  0  0  0  0  0  0  0  0  0
   42.8441    5.2601   12.9805 O   0  0  0  0  0  0  0  0  0  0  0  0
   42.8436    5.2599   12.9803 O   0  0  0  0  0  0  0  0  0  0  0  0
   42.8424    5.2593   12.9797 O   0  0  0  0  0  0  0  0  0  0  0  0
   42.8430    5.2596   12.9800 O   0  0  0  0  0  0  0  0  0  0  0  0
   42.8441    5.2601   12.9805 O   0  0  0  0  0  0  0  0  0  0  0  0
   42.8435    5.2598   12.9802 O   0  0  0  0  0  0  0  0  0  0  0  0
   42.8441    5.2601   12.9805 O   0  0  0  0  0  0  0  0  0  0  0  0
   43.7077    5.6126   12.7200 H   0  0  0  0  0  0  0  0  0  0  0  0
   42.4084    5.0614   12.1375 H   0  0  0  0  0  0  0  0  0  0  0  0
   43.7079    5.6126   12.7191 H   0  0  0  0  0  0  0  0  0  0  0  0
   42.4079    5.0612   12.1383 H   0  0  0  0  0  0  0  0  0  0  0  0
   43.7076    5.6126   12.7217 H   0  0  0  0  0  0  0  0  0  0  0  0
   42.4093    5.0618   12.1362 H   0  0  0  0  0  0  0  0  0  0  0  0
   43.7079    5.6126   12.7190 H   0  0  0  0  0  0  0  0  0  0  0  0
   42.4078    5.0612   12.1384 H   0  0  0  0  0  0  0  0  0  0  0  0
   43.7077    5.6126   12.7199 H   0  0  0  0  0  0  0  0  0  0  0  0
   42.4083    5.0614   12.1376 H   0  0  0  0  0  0  0  0  0  0  0  0
   43.7074    5.6125   12.7228 H   0  0  0  0  0  0  0  0  0  0  0  0
   42.4099    5.0620   12.1353 H   0  0  0  0  0  0  0  0  0  0  0  0
   43.7076    5.6126   12.7214 H   0  0  0  0  0  0  0  0  0  0  0  0
   42.4092    5.0617   12.1364 H   0  0  0  0  0  0  0  0  0  0  0  0
   43.7079    5.6126   12.7190 H   0  0  0  0  0  0  0  0  0  0  0  0
   42.4078    5.0612   12.1384 H   0  0  0  0  0  0  0  0  0  0  0  0
   43.7078    5.6126   12.7202 H   0  0  0  0  0  0  0  0  0  0  0  0
   42.4085    5.0615   12.1375 H   0  0  0  0  0  0  0  0  0  0  0  0
   42.4078    5.0612   12.1384 H   0  0  0  0  0  0  0  0  0  0  0  0
   43.7079    5.6126   12.7190 H   0  0  0  0  0  0  0  0  0  0  0  0
  2  3  2  0
  2  4  2  0
  2  5  1  0
  2  6  1  0
  1 18  1  0
  1 19  1  0
  9 20  1  0
  9 21  1  0
 10 22  1  0
 10 23  1  0
 11 24  1  0
 11 25  1  0
 12 26  1  0
 12 27  1  0
 13 28  1  0
 13 29  1  0
 14 30  1  0
 14 31  1  0
 15 32  1  0
 15 33  1  0
 16 34  1  0
 16 35  1  0
 17 36  1  0
 17 37  1  0
M  CHG  4   5  -1   6  -1   7   1   8   1
M  END
> <Uni-Dock RESULT> 
ENERGY=   -5.898  LOWER_BOUND=    7.539  UPPER_BOUND=    8.797
INTER + INTRA:          -5.898
INTER:                  -5.898
INTRA:                   0.000
UNBOUND:                 0.000

$$$$

     RDKit          3D

 37 24  0  0  0  0  0  0  0  0999 V2000
   46.7417    4.0190    7.0662 O   0  0  0  0  0  0  0  0  0  0  0  0
   46.6892    3.6449    6.9417 S   0  0  0  0  0  0  0  0  0  0  0  0
   47.5084    2.5071    7.3972 O   0  0  0  0  0  0  0  0  0  0  0  0
   45.2714    3.3844    7.2502 O   0  0  0  0  0  0  0  0  0  0  0  0
   46.8520    3.8162    5.4865 O   0  0  0  0  0  0  0  0  0  0  0  0
   47.1250    4.8720    7.6328 O   0  0  0  0  0  0  0  0  0  0  0  0
   46.6892    3.6449    6.9417 Na  0  0  0  0  0 15  0  0  0  0  0  0
   46.6892    3.6449    6.9417 Na  0  0  0  0  0 15  0  0  0  0  0  0
   46.7419    4.0192    7.0658 O   0  0  0  0  0  0  0  0  0  0  0  0
   46.7413    4.0189    7.0669 O   0  0  0  0  0  0  0  0  0  0  0  0
   46.7420    4.0192    7.0657 O   0  0  0  0  0  0  0  0  0  0  0  0
   46.7417    4.0191    7.0662 O   0  0  0  0  0  0  0  0  0  0  0  0
   46.7411    4.0187    7.0675 O   0  0  0  0  0  0  0  0  0  0  0  0
   46.7414    4.0189    7.0668 O   0  0  0  0  0  0  0  0  0  0  0  0
   46.7420    4.0192    7.0657 O   0  0  0  0  0  0  0  0  0  0  0  0
   46.7417    4.0190    7.0662 O   0  0  0  0  0  0  0  0  0  0  0  0
   46.7420    4.0192    7.0657 O   0  0  0  0  0  0  0  0  0  0  0  0
   47.0045    3.6298    6.2187 H   0  0  0  0  0  0  0  0  0  0  0  0
   46.3213    3.2859    7.5402 H   0  0  0  0  0  0  0  0  0  0  0  0
   47.0043    3.6289    6.2186 H   0  0  0  0  0  0  0  0  0  0  0  0
   46.3213    3.2867    7.5406 H   0  0  0  0  0  0  0  0  0  0  0  0
   47.0050    3.6314    6.2188 H   0  0  0  0  0  0  0  0  0  0  0  0
   46.3212    3.2844    7.5393 H   0  0  0  0  0  0  0  0  0  0  0  0
   47.0043    3.6288    6.2186 H   0  0  0  0  0  0  0  0  0  0  0  0
   46.3213    3.2868    7.5407 H   0  0  0  0  0  0  0  0  0  0  0  0
   47.0045    3.6297    6.2187 H   0  0  0  0  0  0  0  0  0  0  0  0
   46.3213    3.2860    7.5402 H   0  0  0  0  0  0  0  0  0  0  0  0
   47.0053    3.6325    6.2189 H   0  0  0  0  0  0  0  0  0  0  0  0
   46.3212    3.2835    7.5387 H   0  0  0  0  0  0  0  0  0  0  0  0
   47.0049    3.6311    6.2188 H   0  0  0  0  0  0  0  0  0  0  0  0
   46.3213    3.2846    7.5394 H   0  0  0  0  0  0  0  0  0  0  0  0
   47.0043    3.6288    6.2186 H   0  0  0  0  0  0  0  0  0  0  0  0
   46.3213    3.2868    7.5407 H   0  0  0  0  0  0  0  0  0  0  0  0
   47.0046    3.6299    6.2187 H   0  0  0  0  0  0  0  0  0  0  0  0
   46.3213    3.2858    7.5401 H   0  0  0  0  0  0  0  0  0  0  0  0
   46.3213    3.2868    7.5407 H   0  0  0  0  0  0  0  0  0  0  0  0
   47.0043    3.6288    6.2186 H   0  0  0  0  0  0  0  0  0  0  0  0
  2  3  2  0
  2  4  2  0
  2  5  1  0
  2  6  1  0
  1 18  1  0
  1 19  1  0
  9 20  1  0
  9 21  1  0
 10 22  1  0
 10 23  1  0
 11 24  1  0
 11 25  1  0
 12 26  1  0
 12 27  1  0
 13 28  1  0
 13 29  1  0
 14 30  1  0
 14 31  1  0
 15 32  1  0
 15 33  1  0
 16 34  1  0
 16 35  1  0
 17 36  1  0
 17 37  1  0
M  CHG  4   5  -1   6  -1   7   1   8   1
M  END
> <Uni-Dock RESULT> 
ENERGY=   -5.856  LOWER_BOUND=    1.440  UPPER_BOUND=    2.532
INTER + INTRA:          -5.856
INTER:                  -5.856
INTRA:                   0.000
UNBOUND:                 0.000

$$$$
