
     RDKit          3D

 37 24  0  0  0  0  0  0  0  0999 V2000
   47.2596    0.8511    7.3568 O   0  0  0  0  0  0  0  0  0  0  0  0
   47.0499    1.1740    7.2567 S   0  0  0  0  0  0  0  0  0  0  0  0
   46.9295   -0.2867    7.4154 O   0  0  0  0  0  0  0  0  0  0  0  0
   48.4745    1.5533    7.2641 O   0  0  0  0  0  0  0  0  0  0  0  0
   46.3561    1.8480    8.3692 O   0  0  0  0  0  0  0  0  0  0  0  0
   46.4396    1.5813    5.9781 O   0  0  0  0  0  0  0  0  0  0  0  0
   47.0499    1.1740    7.2567 Na  0  0  0  0  0 15  0  0  0  0  0  0
   47.0499    1.1740    7.2567 Na  0  0  0  0  0 15  0  0  0  0  0  0
   47.2567    0.8552    7.3742 O   0  0  0  0  0  0  0  0  0  0  0  0
   47.2569    0.8550    7.3737 O   0  0  0  0  0  0  0  0  0  0  0  0
   47.2575    0.8540    7.3697 O   0  0  0  0  0  0  0  0  0  0  0  0
   47.2540    0.8590    7.3883 O   0  0  0  0  0  0  0  0  0  0  0  0
   47.2544    0.8585    7.3865 O   0  0  0  0  0  0  0  0  0  0  0  0
   47.2593    0.8516    7.3590 O   0  0  0  0  0  0  0  0  0  0  0  0
   47.2603    0.8501    7.3521 O   0  0  0  0  0  0  0  0  0  0  0  0
   47.2579    0.8536    7.3677 O   0  0  0  0  0  0  0  0  0  0  0  0
   47.2557    0.8566    7.3798 O   0  0  0  0  0  0  0  0  0  0  0  0
   47.0574    1.1793    6.4678 H   0  0  0  0  0  0  0  0  0  0  0  0
   46.8327    1.4916    7.9455 H   0  0  0  0  0  0  0  0  0  0  0  0
   47.0770    1.1493    6.4686 H   0  0  0  0  0  0  0  0  0  0  0  0
   46.8160    1.5176    7.9273 H   0  0  0  0  0  0  0  0  0  0  0  0
   47.0764    1.1502    6.4686 H   0  0  0  0  0  0  0  0  0  0  0  0
   46.8165    1.5167    7.9279 H   0  0  0  0  0  0  0  0  0  0  0  0
   47.0718    1.1572    6.4682 H   0  0  0  0  0  0  0  0  0  0  0  0
   46.8204    1.5108    7.9322 H   0  0  0  0  0  0  0  0  0  0  0  0
   46.8026    1.5384    7.9113 H   0  0  0  0  0  0  0  0  0  0  0  0
   47.0931    1.1247    6.4705 H   0  0  0  0  0  0  0  0  0  0  0  0
   47.0910    1.1279    6.4702 H   0  0  0  0  0  0  0  0  0  0  0  0
   46.8043    1.5357    7.9134 H   0  0  0  0  0  0  0  0  0  0  0  0
   46.8306    1.4949    7.9433 H   0  0  0  0  0  0  0  0  0  0  0  0
   47.0598    1.1756    6.4678 H   0  0  0  0  0  0  0  0  0  0  0  0
   47.0520    1.1875    6.4679 H   0  0  0  0  0  0  0  0  0  0  0  0
   46.8374    1.4843    7.9502 H   0  0  0  0  0  0  0  0  0  0  0  0
   46.8223    1.5078    7.9343 H   0  0  0  0  0  0  0  0  0  0  0  0
   47.0696    1.1606    6.4681 H   0  0  0  0  0  0  0  0  0  0  0  0
   46.8107    1.5257    7.9211 H   0  0  0  0  0  0  0  0  0  0  0  0
   47.0833    1.1397    6.4693 H   0  0  0  0  0  0  0  0  0  0  0  0
  2  3  2  0
  2  4  2  0
  2  5  1  0
  2  6  1  0
  1 18  1  0
  1 19  1  0
  9 20  1  0
  9 21  1  0
 10 22  1  0
 10 23  1  0
 11 24  1  0
 11 25  1  0
 12 26  1  0
 12 27  1  0
 13 28  1  0
 13 29  1  0
 14 30  1  0
 14 31  1  0
 15 32  1  0
 15 33  1  0
 16 34  1  0
 16 35  1  0
 17 36  1  0
 17 37  1  0
M  CHG  4   5  -1   6  -1   7   1   8   1
M  END
> <Uni-Dock RESULT> 
ENERGY=   -6.952  LOWER_BOUND=    0.000  UPPER_BOUND=    0.000
INTER + INTRA:          -6.952
INTER:                  -6.952
INTRA:                   0.000
UNBOUND:                 0.000

$$$$

     RDKit          3D

 37 24  0  0  0  0  0  0  0  0999 V2000
   47.4689    1.0808    7.2414 O   0  0  0  0  0  0  0  0  0  0  0  0
   47.1049    1.2409    7.2552 S   0  0  0  0  0  0  0  0  0  0  0  0
   48.5342    1.6022    7.2554 O   0  0  0  0  0  0  0  0  0  0  0  0
   46.9639   -0.2062    7.4985 O   0  0  0  0  0  0  0  0  0  0  0  0
   46.5126    1.5796    5.9484 O   0  0  0  0  0  0  0  0  0  0  0  0
   46.4091    1.9880    8.3186 O   0  0  0  0  0  0  0  0  0  0  0  0
   47.1049    1.2409    7.2552 Na  0  0  0  0  0 15  0  0  0  0  0  0
   47.1049    1.2409    7.2552 Na  0  0  0  0  0 15  0  0  0  0  0  0
   47.4672    1.0796    7.2234 O   0  0  0  0  0  0  0  0  0  0  0  0
   47.4673    1.0796    7.2240 O   0  0  0  0  0  0  0  0  0  0  0  0
   47.4677    1.0799    7.2281 O   0  0  0  0  0  0  0  0  0  0  0  0
   47.4652    1.0789    7.2087 O   0  0  0  0  0  0  0  0  0  0  0  0
   47.4655    1.0790    7.2106 O   0  0  0  0  0  0  0  0  0  0  0  0
   47.4687    1.0806    7.2392 O   0  0  0  0  0  0  0  0  0  0  0  0
   47.4691    1.0812    7.2463 O   0  0  0  0  0  0  0  0  0  0  0  0
   47.4679    1.0800    7.2302 O   0  0  0  0  0  0  0  0  0  0  0  0
   47.4665    1.0793    7.2177 O   0  0  0  0  0  0  0  0  0  0  0  0
   46.9766    1.3775    8.0216 H   0  0  0  0  0  0  0  0  0  0  0  0
   46.8692    1.2644    6.5027 H   0  0  0  0  0  0  0  0  0  0  0  0
   47.0092    1.3641    8.0286 H   0  0  0  0  0  0  0  0  0  0  0  0
   46.8384    1.2790    6.5136 H   0  0  0  0  0  0  0  0  0  0  0  0
   47.0082    1.3645    8.0284 H   0  0  0  0  0  0  0  0  0  0  0  0
   46.8394    1.2785    6.5132 H   0  0  0  0  0  0  0  0  0  0  0  0
   47.0006    1.3676    8.0269 H   0  0  0  0  0  0  0  0  0  0  0  0
   46.8465    1.2751    6.5106 H   0  0  0  0  0  0  0  0  0  0  0  0
   46.8135    1.2909    6.5238 H   0  0  0  0  0  0  0  0  0  0  0  0
   47.0360    1.3528    8.0331 H   0  0  0  0  0  0  0  0  0  0  0  0
   47.0325    1.3543    8.0326 H   0  0  0  0  0  0  0  0  0  0  0  0
   46.8167    1.2894    6.5224 H   0  0  0  0  0  0  0  0  0  0  0  0
   46.8654    1.2662    6.5040 H   0  0  0  0  0  0  0  0  0  0  0  0
   46.9807    1.3758    8.0225 H   0  0  0  0  0  0  0  0  0  0  0  0
   46.9678    1.3811    8.0194 H   0  0  0  0  0  0  0  0  0  0  0  0
   46.8778    1.2604    6.4999 H   0  0  0  0  0  0  0  0  0  0  0  0
   46.8500    1.2735    6.5093 H   0  0  0  0  0  0  0  0  0  0  0  0
   46.9969    1.3692    8.0261 H   0  0  0  0  0  0  0  0  0  0  0  0
   46.8286    1.2837    6.5175 H   0  0  0  0  0  0  0  0  0  0  0  0
   47.0197    1.3597    8.0305 H   0  0  0  0  0  0  0  0  0  0  0  0
  2  3  2  0
  2  4  2  0
  2  5  1  0
  2  6  1  0
  1 18  1  0
  1 19  1  0
  9 20  1  0
  9 21  1  0
 10 22  1  0
 10 23  1  0
 11 24  1  0
 11 25  1  0
 12 26  1  0
 12 27  1  0
 13 28  1  0
 13 29  1  0
 14 30  1  0
 14 31  1  0
 15 32  1  0
 15 33  1  0
 16 34  1  0
 16 35  1  0
 17 36  1  0
 17 37  1  0
M  CHG  4   5  -1   6  -1   7   1   8   1
M  END
> <Uni-Dock RESULT> 
ENERGY=   -6.862  LOWER_BOUND=    0.265  UPPER_BOUND=    1.198
INTER + INTRA:          -6.862
INTER:                  -6.862
INTRA:                   0.000
UNBOUND:                 0.000

$$$$

     RDKit          3D

 37 24  0  0  0  0  0  0  0  0999 V2000
   42.2527    5.5085   11.8394 O   0  0  0  0  0  0  0  0  0  0  0  0
   42.6325    5.5586   11.9468 S   0  0  0  0  0  0  0  0  0  0  0  0
   41.3758    6.3011   11.7396 O   0  0  0  0  0  0  0  0  0  0  0  0
   42.5098    4.2117   11.3602 O   0  0  0  0  0  0  0  0  0  0  0  0
   42.9023    5.4427   13.3915 O   0  0  0  0  0  0  0  0  0  0  0  0
   43.7418    6.2789   11.2959 O   0  0  0  0  0  0  0  0  0  0  0  0
   42.6325    5.5586   11.9468 Na  0  0  0  0  0 15  0  0  0  0  0  0
   42.6325    5.5586   11.9468 Na  0  0  0  0  0 15  0  0  0  0  0  0
   42.2491    5.5033   11.8564 O   0  0  0  0  0  0  0  0  0  0  0  0
   42.2491    5.5034   11.8558 O   0  0  0  0  0  0  0  0  0  0  0  0
   42.2499    5.5046   11.8520 O   0  0  0  0  0  0  0  0  0  0  0  0
   42.2467    5.4991   11.8704 O   0  0  0  0  0  0  0  0  0  0  0  0
   42.2469    5.4996   11.8686 O   0  0  0  0  0  0  0  0  0  0  0  0
   42.2522    5.5078   11.8416 O   0  0  0  0  0  0  0  0  0  0  0  0
   42.2539    5.5099   11.8349 O   0  0  0  0  0  0  0  0  0  0  0  0
   42.2503    5.5052   11.8500 O   0  0  0  0  0  0  0  0  0  0  0  0
   42.2481    5.5016   11.8619 O   0  0  0  0  0  0  0  0  0  0  0  0
   42.9937    5.8064   11.2906 H   0  0  0  0  0  0  0  0  0  0  0  0
   42.6512    5.3608   12.7103 H   0  0  0  0  0  0  0  0  0  0  0  0
   42.9621    5.8044   11.2735 H   0  0  0  0  0  0  0  0  0  0  0  0
   42.6863    5.3680   12.7105 H   0  0  0  0  0  0  0  0  0  0  0  0
   42.9631    5.8045   11.2740 H   0  0  0  0  0  0  0  0  0  0  0  0
   42.6851    5.3678   12.7105 H   0  0  0  0  0  0  0  0  0  0  0  0
   42.9705    5.8050   11.2778 H   0  0  0  0  0  0  0  0  0  0  0  0
   42.6770    5.3661   12.7106 H   0  0  0  0  0  0  0  0  0  0  0  0
   42.7150    5.3743   12.7095 H   0  0  0  0  0  0  0  0  0  0  0  0
   42.9358    5.8024   11.2605 H   0  0  0  0  0  0  0  0  0  0  0  0
   42.9392    5.8027   11.2622 H   0  0  0  0  0  0  0  0  0  0  0  0
   42.7113    5.3734   12.7096 H   0  0  0  0  0  0  0  0  0  0  0  0
   42.6555    5.3617   12.7104 H   0  0  0  0  0  0  0  0  0  0  0  0
   42.9897    5.8062   11.2884 H   0  0  0  0  0  0  0  0  0  0  0  0
   43.0021    5.8069   11.2955 H   0  0  0  0  0  0  0  0  0  0  0  0
   42.6415    5.3589   12.7100 H   0  0  0  0  0  0  0  0  0  0  0  0
   42.6730    5.3653   12.7106 H   0  0  0  0  0  0  0  0  0  0  0  0
   42.9741    5.8052   11.2798 H   0  0  0  0  0  0  0  0  0  0  0  0
   42.6975    5.3705   12.7102 H   0  0  0  0  0  0  0  0  0  0  0  0
   42.9519    5.8037   11.2683 H   0  0  0  0  0  0  0  0  0  0  0  0
  2  3  2  0
  2  4  2  0
  2  5  1  0
  2  6  1  0
  1 18  1  0
  1 19  1  0
  9 20  1  0
  9 21  1  0
 10 22  1  0
 10 23  1  0
 11 24  1  0
 11 25  1  0
 12 26  1  0
 12 27  1  0
 13 28  1  0
 13 29  1  0
 14 30  1  0
 14 31  1  0
 15 32  1  0
 15 33  1  0
 16 34  1  0
 16 35  1  0
 17 36  1  0
 17 37  1  0
M  CHG  4   5  -1   6  -1   7   1   8   1
M  END
> <Uni-Dock RESULT> 
ENERGY=   -6.270  LOWER_BOUND=    7.174  UPPER_BOUND=    8.081
INTER + INTRA:          -6.270
INTER:                  -6.270
INTRA:                   0.000
UNBOUND:                 0.000

$$$$

     RDKit          3D

 37 24  0  0  0  0  0  0  0  0999 V2000
   48.0642    1.8560    6.2481 O   0  0  0  0  0  0  0  0  0  0  0  0
   47.9987    2.2478    6.2703 S   0  0  0  0  0  0  0  0  0  0  0  0
   47.9340    1.0115    7.0708 O   0  0  0  0  0  0  0  0  0  0  0  0
   48.1555    1.9030    4.8456 O   0  0  0  0  0  0  0  0  0  0  0  0
   49.1494    3.0579    6.7095 O   0  0  0  0  0  0  0  0  0  0  0  0
   46.7558    3.0185    6.4555 O   0  0  0  0  0  0  0  0  0  0  0  0
   47.9987    2.2478    6.2703 Na  0  0  0  0  0 15  0  0  0  0  0  0
   47.9987    2.2478    6.2703 Na  0  0  0  0  0 15  0  0  0  0  0  0
   48.0818    1.8592    6.2510 O   0  0  0  0  0  0  0  0  0  0  0  0
   48.0812    1.8591    6.2509 O   0  0  0  0  0  0  0  0  0  0  0  0
   48.0772    1.8583    6.2502 O   0  0  0  0  0  0  0  0  0  0  0  0
   48.0961    1.8625    6.2534 O   0  0  0  0  0  0  0  0  0  0  0  0
   48.0942    1.8620    6.2530 O   0  0  0  0  0  0  0  0  0  0  0  0
   48.0664    1.8564    6.2484 O   0  0  0  0  0  0  0  0  0  0  0  0
   48.0594    1.8553    6.2473 O   0  0  0  0  0  0  0  0  0  0  0  0
   48.0752    1.8579    6.2499 O   0  0  0  0  0  0  0  0  0  0  0  0
   48.0874    1.8604    6.2519 O   0  0  0  0  0  0  0  0  0  0  0  0
   47.2212    2.3259    6.1610 H   0  0  0  0  0  0  0  0  0  0  0  0
   48.7105    2.5614    6.4018 H   0  0  0  0  0  0  0  0  0  0  0  0
   47.2190    2.2902    6.1578 H   0  0  0  0  0  0  0  0  0  0  0  0
   48.6953    2.5938    6.4022 H   0  0  0  0  0  0  0  0  0  0  0  0
   47.2190    2.2913    6.1579 H   0  0  0  0  0  0  0  0  0  0  0  0
   48.6958    2.5928    6.4022 H   0  0  0  0  0  0  0  0  0  0  0  0
   47.2193    2.2997    6.1586 H   0  0  0  0  0  0  0  0  0  0  0  0
   48.6994    2.5853    6.4021 H   0  0  0  0  0  0  0  0  0  0  0  0
   48.6817    2.6199    6.4023 H   0  0  0  0  0  0  0  0  0  0  0  0
   47.2183    2.2609    6.1553 H   0  0  0  0  0  0  0  0  0  0  0  0
   47.2183    2.2647    6.1556 H   0  0  0  0  0  0  0  0  0  0  0  0
   48.6835    2.6166    6.4023 H   0  0  0  0  0  0  0  0  0  0  0  0
   48.7087    2.5655    6.4019 H   0  0  0  0  0  0  0  0  0  0  0  0
   47.2209    2.3214    6.1606 H   0  0  0  0  0  0  0  0  0  0  0  0
   47.2221    2.3356    6.1620 H   0  0  0  0  0  0  0  0  0  0  0  0
   48.7145    2.5524    6.4017 H   0  0  0  0  0  0  0  0  0  0  0  0
   48.7012    2.5816    6.4021 H   0  0  0  0  0  0  0  0  0  0  0  0
   47.2196    2.3037    6.1590 H   0  0  0  0  0  0  0  0  0  0  0  0
   48.6900    2.6041    6.4023 H   0  0  0  0  0  0  0  0  0  0  0  0
   47.2186    2.2788    6.1568 H   0  0  0  0  0  0  0  0  0  0  0  0
  2  3  2  0
  2  4  2  0
  2  5  1  0
  2  6  1  0
  1 18  1  0
  1 19  1  0
  9 20  1  0
  9 21  1  0
 10 22  1  0
 10 23  1  0
 11 24  1  0
 11 25  1  0
 12 26  1  0
 12 27  1  0
 13 28  1  0
 13 29  1  0
 14 30  1  0
 14 31  1  0
 15 32  1  0
 15 33  1  0
 16 34  1  0
 16 35  1  0
 17 36  1  0
 17 37  1  0
M  CHG  4   5  -1   6  -1   7   1   8   1
M  END
> <Uni-Dock RESULT> 
ENERGY=   -6.261  LOWER_BOUND=    1.376  UPPER_BOUND=    1.906
INTER + INTRA:          -6.261
INTER:                  -6.261
INTRA:                   0.000
UNBOUND:                 0.000

$$$$

     RDKit          3D

 37 24  0  0  0  0  0  0  0  0999 V2000
   38.9594    4.0086    5.5885 O   0  0  0  0  0  0  0  0  0  0  0  0
   38.7994    4.3421    5.4419 S   0  0  0  0  0  0  0  0  0  0  0  0
   38.4426    3.0814    6.1177 O   0  0  0  0  0  0  0  0  0  0  0  0
   40.1859    4.2595    4.9479 O   0  0  0  0  0  0  0  0  0  0  0  0
   38.6831    5.4606    6.3951 O   0  0  0  0  0  0  0  0  0  0  0  0
   37.8860    4.5668    4.3068 O   0  0  0  0  0  0  0  0  0  0  0  0
   38.7994    4.3421    5.4419 Na  0  0  0  0  0 15  0  0  0  0  0  0
   38.7994    4.3421    5.4419 Na  0  0  0  0  0 15  0  0  0  0  0  0
   38.9636    4.0178    5.6036 O   0  0  0  0  0  0  0  0  0  0  0  0
   38.9635    4.0175    5.6031 O   0  0  0  0  0  0  0  0  0  0  0  0
   38.9625    4.0154    5.5997 O   0  0  0  0  0  0  0  0  0  0  0  0
   38.9667    4.0258    5.6157 O   0  0  0  0  0  0  0  0  0  0  0  0
   38.9663    4.0247    5.6141 O   0  0  0  0  0  0  0  0  0  0  0  0
   38.9600    4.0098    5.5904 O   0  0  0  0  0  0  0  0  0  0  0  0
   38.9582    4.0063    5.5843 O   0  0  0  0  0  0  0  0  0  0  0  0
   38.9621    4.0143    5.5979 O   0  0  0  0  0  0  0  0  0  0  0  0
   38.9648    4.0209    5.6083 O   0  0  0  0  0  0  0  0  0  0  0  0
   38.5372    4.1387    4.7261 H   0  0  0  0  0  0  0  0  0  0  0  0
   38.9016    4.8788    6.0110 H   0  0  0  0  0  0  0  0  0  0  0  0
   38.5493    4.1055    4.7320 H   0  0  0  0  0  0  0  0  0  0  0  0
   38.8854    4.9029    5.9900 H   0  0  0  0  0  0  0  0  0  0  0  0
   38.5489    4.1065    4.7318 H   0  0  0  0  0  0  0  0  0  0  0  0
   38.8859    4.9022    5.9908 H   0  0  0  0  0  0  0  0  0  0  0  0
   38.5460    4.1142    4.7303 H   0  0  0  0  0  0  0  0  0  0  0  0
   38.8897    4.8967    5.9957 H   0  0  0  0  0  0  0  0  0  0  0  0
   38.8719    4.9219    5.9720 H   0  0  0  0  0  0  0  0  0  0  0  0
   38.5596    4.0785    4.7380 H   0  0  0  0  0  0  0  0  0  0  0  0
   38.5582    4.0820    4.7371 H   0  0  0  0  0  0  0  0  0  0  0  0
   38.8737    4.9195    5.9743 H   0  0  0  0  0  0  0  0  0  0  0  0
   38.8996    4.8819    6.0085 H   0  0  0  0  0  0  0  0  0  0  0  0
   38.5387    4.1346    4.7268 H   0  0  0  0  0  0  0  0  0  0  0  0
   38.5340    4.1479    4.7247 H   0  0  0  0  0  0  0  0  0  0  0  0
   38.9060    4.8720    6.0166 H   0  0  0  0  0  0  0  0  0  0  0  0
   38.8915    4.8939    5.9981 H   0  0  0  0  0  0  0  0  0  0  0  0
   38.5447    4.1180    4.7296 H   0  0  0  0  0  0  0  0  0  0  0  0
   38.8801    4.9104    5.9830 H   0  0  0  0  0  0  0  0  0  0  0  0
   38.5533    4.0949    4.7343 H   0  0  0  0  0  0  0  0  0  0  0  0
  2  3  2  0
  2  4  2  0
  2  5  1  0
  2  6  1  0
  1 18  1  0
  1 19  1  0
  9 20  1  0
  9 21  1  0
 10 22  1  0
 10 23  1  0
 11 24  1  0
 11 25  1  0
 12 26  1  0
 12 27  1  0
 13 28  1  0
 13 29  1  0
 14 30  1  0
 14 31  1  0
 15 32  1  0
 15 33  1  0
 16 34  1  0
 16 35  1  0
 17 36  1  0
 17 37  1  0
M  CHG  4   5  -1   6  -1   7   1   8   1
M  END
> <Uni-Dock RESULT> 
ENERGY=   -6.220  LOWER_BOUND=    8.315  UPPER_BOUND=    9.044
INTER + INTRA:          -6.220
INTER:                  -6.220
INTRA:                   0.000
UNBOUND:                 0.000

$$$$

     RDKit          3D

 37 24  0  0  0  0  0  0  0  0999 V2000
   42.5319    5.3789   12.4863 O   0  0  0  0  0  0  0  0  0  0  0  0
   42.7949    5.3515   12.1890 S   0  0  0  0  0  0  0  0  0  0  0  0
   42.6183    5.0325   13.6175 O   0  0  0  0  0  0  0  0  0  0  0  0
   41.7270    6.2706   11.7552 O   0  0  0  0  0  0  0  0  0  0  0  0
   42.7271    4.1104   11.3963 O   0  0  0  0  0  0  0  0  0  0  0  0
   44.1070    5.9925   11.9872 O   0  0  0  0  0  0  0  0  0  0  0  0
   42.7949    5.3515   12.1890 Na  0  0  0  0  0 15  0  0  0  0  0  0
   42.7949    5.3515   12.1890 Na  0  0  0  0  0 15  0  0  0  0  0  0
   42.5239    5.3639   12.4799 O   0  0  0  0  0  0  0  0  0  0  0  0
   42.5241    5.3644   12.4802 O   0  0  0  0  0  0  0  0  0  0  0  0
   42.5259    5.3678   12.4817 O   0  0  0  0  0  0  0  0  0  0  0  0
   42.5177    5.3516   12.4743 O   0  0  0  0  0  0  0  0  0  0  0  0
   42.5185    5.3532   12.4751 O   0  0  0  0  0  0  0  0  0  0  0  0
   42.5308    5.3770   12.4855 O   0  0  0  0  0  0  0  0  0  0  0  0
   42.5342    5.3829   12.4878 O   0  0  0  0  0  0  0  0  0  0  0  0
   42.5268    5.3695   12.4824 O   0  0  0  0  0  0  0  0  0  0  0  0
   42.5214    5.3591   12.4778 O   0  0  0  0  0  0  0  0  0  0  0  0
   43.2768    5.9676   12.2924 H   0  0  0  0  0  0  0  0  0  0  0  0
   42.5760    4.7081   11.7883 H   0  0  0  0  0  0  0  0  0  0  0  0
   43.2574    5.9768   12.3213 H   0  0  0  0  0  0  0  0  0  0  0  0
   42.6033    4.7138   11.7658 H   0  0  0  0  0  0  0  0  0  0  0  0
   43.2580    5.9765   12.3204 H   0  0  0  0  0  0  0  0  0  0  0  0
   42.6024    4.7136   11.7665 H   0  0  0  0  0  0  0  0  0  0  0  0
   43.2626    5.9745   12.3137 H   0  0  0  0  0  0  0  0  0  0  0  0
   42.5960    4.7122   11.7717 H   0  0  0  0  0  0  0  0  0  0  0  0
   42.6260    4.7195   11.7480 H   0  0  0  0  0  0  0  0  0  0  0  0
   43.2409    5.9834   12.3447 H   0  0  0  0  0  0  0  0  0  0  0  0
   43.2431    5.9826   12.3417 H   0  0  0  0  0  0  0  0  0  0  0  0
   42.6230    4.7187   11.7503 H   0  0  0  0  0  0  0  0  0  0  0  0
   42.5794    4.7087   11.7855 H   0  0  0  0  0  0  0  0  0  0  0  0
   43.2744    5.9688   12.2961 H   0  0  0  0  0  0  0  0  0  0  0  0
   43.2818    5.9648   12.2845 H   0  0  0  0  0  0  0  0  0  0  0  0
   42.5686    4.7068   11.7947 H   0  0  0  0  0  0  0  0  0  0  0  0
   42.5929    4.7115   11.7742 H   0  0  0  0  0  0  0  0  0  0  0  0
   43.2648    5.9734   12.3104 H   0  0  0  0  0  0  0  0  0  0  0  0
   42.6121    4.7160   11.7588 H   0  0  0  0  0  0  0  0  0  0  0  0
   43.2510    5.9794   12.3304 H   0  0  0  0  0  0  0  0  0  0  0  0
  2  3  2  0
  2  4  2  0
  2  5  1  0
  2  6  1  0
  1 18  1  0
  1 19  1  0
  9 20  1  0
  9 21  1  0
 10 22  1  0
 10 23  1  0
 11 24  1  0
 11 25  1  0
 12 26  1  0
 12 27  1  0
 13 28  1  0
 13 29  1  0
 14 30  1  0
 14 31  1  0
 15 32  1  0
 15 33  1  0
 16 34  1  0
 16 35  1  0
 17 36  1  0
 17 37  1  0
M  CHG  4   5  -1   6  -1   7   1   8   1
M  END
> <Uni-Dock RESULT> 
ENERGY=   -6.099  LOWER_BOUND=    7.027  UPPER_BOUND=    8.153
INTER + INTRA:          -6.099
INTER:                  -6.099
INTRA:                   0.000
UNBOUND:                 0.000

$$$$

     RDKit          3D

 37 24  0  0  0  0  0  0  0  0999 V2000
   42.4101    5.5735   12.2444 O   0  0  0  0  0  0  0  0  0  0  0  0
   42.7114    5.3707   12.0820 S   0  0  0  0  0  0  0  0  0  0  0  0
   41.5079    6.1455   11.7287 O   0  0  0  0  0  0  0  0  0  0  0  0
   42.6872    5.0547   13.5217 O   0  0  0  0  0  0  0  0  0  0  0  0
   43.9149    6.1642   11.7732 O   0  0  0  0  0  0  0  0  0  0  0  0
   42.7354    4.1185   11.3044 O   0  0  0  0  0  0  0  0  0  0  0  0
   42.7114    5.3707   12.0820 Na  0  0  0  0  0 15  0  0  0  0  0  0
   42.7114    5.3707   12.0820 Na  0  0  0  0  0 15  0  0  0  0  0  0
   42.4212    5.5878   12.2460 O   0  0  0  0  0  0  0  0  0  0  0  0
   42.4208    5.5873   12.2460 O   0  0  0  0  0  0  0  0  0  0  0  0
   42.4182    5.5841   12.2456 O   0  0  0  0  0  0  0  0  0  0  0  0
   42.4307    5.5991   12.2471 O   0  0  0  0  0  0  0  0  0  0  0  0
   42.4294    5.5977   12.2470 O   0  0  0  0  0  0  0  0  0  0  0  0
   42.4115    5.5753   12.2446 O   0  0  0  0  0  0  0  0  0  0  0  0
   42.4073    5.5696   12.2439 O   0  0  0  0  0  0  0  0  0  0  0  0
   42.4170    5.5825   12.2455 O   0  0  0  0  0  0  0  0  0  0  0  0
   42.4249    5.5923   12.2465 O   0  0  0  0  0  0  0  0  0  0  0  0
   42.4101    4.6585   11.9254 H   0  0  0  0  0  0  0  0  0  0  0  0
   43.3139    5.8799   12.0762 H   0  0  0  0  0  0  0  0  0  0  0  0
   42.3788    4.6698   11.9388 H   0  0  0  0  0  0  0  0  0  0  0  0
   43.3342    5.8545   12.0612 H   0  0  0  0  0  0  0  0  0  0  0  0
   42.3797    4.6694   11.9384 H   0  0  0  0  0  0  0  0  0  0  0  0
   43.3336    5.8554   12.0617 H   0  0  0  0  0  0  0  0  0  0  0  0
   42.3869    4.6666   11.9352 H   0  0  0  0  0  0  0  0  0  0  0  0
   43.3290    5.8613   12.0652 H   0  0  0  0  0  0  0  0  0  0  0  0
   43.3499    5.8329   12.0489 H   0  0  0  0  0  0  0  0  0  0  0  0
   42.3536    4.6801   11.9501 H   0  0  0  0  0  0  0  0  0  0  0  0
   42.3568    4.6787   11.9486 H   0  0  0  0  0  0  0  0  0  0  0  0
   43.3479    5.8357   12.0505 H   0  0  0  0  0  0  0  0  0  0  0  0
   43.3165    5.8768   12.0744 H   0  0  0  0  0  0  0  0  0  0  0  0
   42.4061    4.6599   11.9271 H   0  0  0  0  0  0  0  0  0  0  0  0
   42.4188    4.6558   11.9218 H   0  0  0  0  0  0  0  0  0  0  0  0
   43.3081    5.8868   12.0804 H   0  0  0  0  0  0  0  0  0  0  0  0
   43.3267    5.8642   12.0669 H   0  0  0  0  0  0  0  0  0  0  0  0
   42.3905    4.6654   11.9337 H   0  0  0  0  0  0  0  0  0  0  0  0
   43.3404    5.8461   12.0564 H   0  0  0  0  0  0  0  0  0  0  0  0
   42.3689    4.6737   11.9432 H   0  0  0  0  0  0  0  0  0  0  0  0
  2  3  2  0
  2  4  2  0
  2  5  1  0
  2  6  1  0
  1 18  1  0
  1 19  1  0
  9 20  1  0
  9 21  1  0
 10 22  1  0
 10 23  1  0
 11 24  1  0
 11 25  1  0
 12 26  1  0
 12 27  1  0
 13 28  1  0
 13 29  1  0
 14 30  1  0
 14 31  1  0
 15 32  1  0
 15 33  1  0
 16 34  1  0
 16 35  1  0
 17 36  1  0
 17 37  1  0
M  CHG  4   5  -1   6  -1   7   1   8   1
M  END
> <Uni-Dock RESULT> 
ENERGY=   -6.097  LOWER_BOUND=    6.980  UPPER_BOUND=    8.166
INTER + INTRA:          -6.097
INTER:                  -6.097
INTRA:                   0.000
UNBOUND:                 0.000

$$$$

     RDKit          3D

 37 24  0  0  0  0  0  0  0  0999 V2000
   40.0029   12.2692   15.8662 O   0  0  0  0  0  0  0  0  0  0  0  0
   39.9101   12.5533   15.6036 S   0  0  0  0  0  0  0  0  0  0  0  0
   41.0619   11.8431   16.1888 O   0  0  0  0  0  0  0  0  0  0  0  0
   38.7033   12.2752   16.4034 O   0  0  0  0  0  0  0  0  0  0  0  0
   39.6996   12.0914   14.2195 O   0  0  0  0  0  0  0  0  0  0  0  0
   40.1757   14.0033   15.6026 O   0  0  0  0  0  0  0  0  0  0  0  0
   39.9101   12.5533   15.6036 Na  0  0  0  0  0 15  0  0  0  0  0  0
   39.9101   12.5533   15.6036 Na  0  0  0  0  0 15  0  0  0  0  0  0
   39.9993   12.2569   15.8534 O   0  0  0  0  0  0  0  0  0  0  0  0
   39.9995   12.2572   15.8539 O   0  0  0  0  0  0  0  0  0  0  0  0
   40.0003   12.2600   15.8568 O   0  0  0  0  0  0  0  0  0  0  0  0
   39.9963   12.2472   15.8425 O   0  0  0  0  0  0  0  0  0  0  0  0
   39.9967   12.2484   15.8440 O   0  0  0  0  0  0  0  0  0  0  0  0
   40.0025   12.2676   15.8645 O   0  0  0  0  0  0  0  0  0  0  0  0
   40.0038   12.2727   15.8695 O   0  0  0  0  0  0  0  0  0  0  0  0
   40.0007   12.2614   15.8583 O   0  0  0  0  0  0  0  0  0  0  0  0
   39.9981   12.2530   15.8492 O   0  0  0  0  0  0  0  0  0  0  0  0
   40.0102   13.2292   15.9980 H   0  0  0  0  0  0  0  0  0  0  0  0
   39.7172   12.1615   14.9465 H   0  0  0  0  0  0  0  0  0  0  0  0
   40.0199   13.2100   16.0268 H   0  0  0  0  0  0  0  0  0  0  0  0
   39.7111   12.1930   14.9305 H   0  0  0  0  0  0  0  0  0  0  0  0
   40.0196   13.2106   16.0259 H   0  0  0  0  0  0  0  0  0  0  0  0
   39.7112   12.1919   14.9310 H   0  0  0  0  0  0  0  0  0  0  0  0
   40.0174   13.2152   16.0193 H   0  0  0  0  0  0  0  0  0  0  0  0
   39.7126   12.1846   14.9346 H   0  0  0  0  0  0  0  0  0  0  0  0
   39.7063   12.2194   14.9184 H   0  0  0  0  0  0  0  0  0  0  0  0
   40.0277   13.1932   16.0497 H   0  0  0  0  0  0  0  0  0  0  0  0
   40.0267   13.1955   16.0468 H   0  0  0  0  0  0  0  0  0  0  0  0
   39.7069   12.2160   14.9199 H   0  0  0  0  0  0  0  0  0  0  0  0
   39.7164   12.1654   14.9444 H   0  0  0  0  0  0  0  0  0  0  0  0
   40.0114   13.2268   16.0017 H   0  0  0  0  0  0  0  0  0  0  0  0
   40.0075   13.2342   15.9900 H   0  0  0  0  0  0  0  0  0  0  0  0
   39.7190   12.1530   14.9511 H   0  0  0  0  0  0  0  0  0  0  0  0
   39.7133   12.1810   14.9364 H   0  0  0  0  0  0  0  0  0  0  0  0
   40.0162   13.2174   16.0160 H   0  0  0  0  0  0  0  0  0  0  0  0
   39.7092   12.2033   14.9257 H   0  0  0  0  0  0  0  0  0  0  0  0
   40.0230   13.2035   16.0358 H   0  0  0  0  0  0  0  0  0  0  0  0
  2  3  2  0
  2  4  2  0
  2  5  1  0
  2  6  1  0
  1 18  1  0
  1 19  1  0
  9 20  1  0
  9 21  1  0
 10 22  1  0
 10 23  1  0
 11 24  1  0
 11 25  1  0
 12 26  1  0
 12 27  1  0
 13 28  1  0
 13 29  1  0
 14 30  1  0
 14 31  1  0
 15 32  1  0
 15 33  1  0
 16 34  1  0
 16 35  1  0
 17 36  1  0
 17 37  1  0
M  CHG  4   5  -1   6  -1   7   1   8   1
M  END
> <Uni-Dock RESULT> 
ENERGY=   -6.041  LOWER_BOUND=   15.241  UPPER_BOUND=   15.941
INTER + INTRA:          -6.041
INTER:                  -6.041
INTRA:                   0.000
UNBOUND:                 0.000

$$$$

     RDKit          3D

 37 24  0  0  0  0  0  0  0  0999 V2000
   46.7592    3.9910    6.9071 O   0  0  0  0  0  0  0  0  0  0  0  0
   46.6667    3.6087    6.9672 S   0  0  0  0  0  0  0  0  0  0  0  0
   47.0935    4.8269    7.6794 O   0  0  0  0  0  0  0  0  0  0  0  0
   46.8401    3.8018    5.5160 O   0  0  0  0  0  0  0  0  0  0  0  0
   45.2474    3.3394    7.2610 O   0  0  0  0  0  0  0  0  0  0  0  0
   47.4860    2.4668    7.4123 O   0  0  0  0  0  0  0  0  0  0  0  0
   46.6667    3.6087    6.9672 Na  0  0  0  0  0 15  0  0  0  0  0  0
   46.6667    3.6087    6.9672 Na  0  0  0  0  0 15  0  0  0  0  0  0
   46.7415    3.9948    6.9072 O   0  0  0  0  0  0  0  0  0  0  0  0
   46.7421    3.9947    6.9072 O   0  0  0  0  0  0  0  0  0  0  0  0
   46.7461    3.9939    6.9071 O   0  0  0  0  0  0  0  0  0  0  0  0
   46.7268    3.9974    6.9073 O   0  0  0  0  0  0  0  0  0  0  0  0
   46.7287    3.9971    6.9073 O   0  0  0  0  0  0  0  0  0  0  0  0
   46.7569    3.9915    6.9071 O   0  0  0  0  0  0  0  0  0  0  0  0
   46.7639    3.9898    6.9071 O   0  0  0  0  0  0  0  0  0  0  0  0
   46.7481    3.9935    6.9071 O   0  0  0  0  0  0  0  0  0  0  0  0
   46.7357    3.9959    6.9072 O   0  0  0  0  0  0  0  0  0  0  0  0
   47.3626    3.2381    6.9963 H   0  0  0  0  0  0  0  0  0  0  0  0
   45.8785    3.5971    6.9981 H   0  0  0  0  0  0  0  0  0  0  0  0
   47.3787    3.2697    6.9910 H   0  0  0  0  0  0  0  0  0  0  0  0
   45.8800    3.5617    7.0033 H   0  0  0  0  0  0  0  0  0  0  0  0
   47.3782    3.2687    6.9911 H   0  0  0  0  0  0  0  0  0  0  0  0
   45.8799    3.5628    7.0032 H   0  0  0  0  0  0  0  0  0  0  0  0
   47.3747    3.2613    6.9924 H   0  0  0  0  0  0  0  0  0  0  0  0
   45.8795    3.5710    7.0020 H   0  0  0  0  0  0  0  0  0  0  0  0
   45.8825    3.5326    7.0075 H   0  0  0  0  0  0  0  0  0  0  0  0
   47.3909    3.2962    6.9866 H   0  0  0  0  0  0  0  0  0  0  0  0
   47.3893    3.2927    6.9872 H   0  0  0  0  0  0  0  0  0  0  0  0
   45.8821    3.5364    7.0070 H   0  0  0  0  0  0  0  0  0  0  0  0
   45.8786    3.5927    6.9988 H   0  0  0  0  0  0  0  0  0  0  0  0
   47.3647    3.2420    6.9956 H   0  0  0  0  0  0  0  0  0  0  0  0
   47.3579    3.2296    6.9977 H   0  0  0  0  0  0  0  0  0  0  0  0
   45.8784    3.6068    6.9967 H   0  0  0  0  0  0  0  0  0  0  0  0
   45.8793    3.5750    7.0014 H   0  0  0  0  0  0  0  0  0  0  0  0
   47.3728    3.2577    6.9930 H   0  0  0  0  0  0  0  0  0  0  0  0
   45.8809    3.5503    7.0050 H   0  0  0  0  0  0  0  0  0  0  0  0
   47.3836    3.2800    6.9893 H   0  0  0  0  0  0  0  0  0  0  0  0
  2  3  2  0
  2  4  2  0
  2  5  1  0
  2  6  1  0
  1 18  1  0
  1 19  1  0
  9 20  1  0
  9 21  1  0
 10 22  1  0
 10 23  1  0
 11 24  1  0
 11 25  1  0
 12 26  1  0
 12 27  1  0
 13 28  1  0
 13 29  1  0
 14 30  1  0
 14 31  1  0
 15 32  1  0
 15 33  1  0
 16 34  1  0
 16 35  1  0
 17 36  1  0
 17 37  1  0
M  CHG  4   5  -1   6  -1   7   1   8   1
M  END
> <Uni-Dock RESULT> 
ENERGY=   -5.924  LOWER_BOUND=    2.520  UPPER_BOUND=    3.139
INTER + INTRA:          -5.924
INTER:                  -5.924
INTRA:                   0.000
UNBOUND:                 0.000

$$$$
