
     RDKit          3D

 37 24  0  0  0  0  0  0  0  0999 V2000
   47.5614    1.3687    7.2407 O   0  0  0  0  0  0  0  0  0  0  0  0
   47.1949    1.3695    7.0860 S   0  0  0  0  0  0  0  0  0  0  0  0
   46.5884    1.9166    5.8587 O   0  0  0  0  0  0  0  0  0  0  0  0
   46.9549   -0.0838    7.1471 O   0  0  0  0  0  0  0  0  0  0  0  0
   46.5899    2.0175    8.2640 O   0  0  0  0  0  0  0  0  0  0  0  0
   48.6462    1.6279    7.0743 O   0  0  0  0  0  0  0  0  0  0  0  0
   47.1949    1.3695    7.0860 Na  0  0  0  0  0 15  0  0  0  0  0  0
   47.1949    1.3695    7.0860 Na  0  0  0  0  0 15  0  0  0  0  0  0
   47.5614    1.3685    7.2406 O   0  0  0  0  0  0  0  0  0  0  0  0
   47.5615    1.3684    7.2405 O   0  0  0  0  0  0  0  0  0  0  0  0
   47.5615    1.3684    7.2405 O   0  0  0  0  0  0  0  0  0  0  0  0
   47.5615    1.3681    7.2403 O   0  0  0  0  0  0  0  0  0  0  0  0
   47.5617    1.3676    7.2400 O   0  0  0  0  0  0  0  0  0  0  0  0
   47.5615    1.3684    7.2405 O   0  0  0  0  0  0  0  0  0  0  0  0
   47.5614    1.3687    7.2407 O   0  0  0  0  0  0  0  0  0  0  0  0
   47.5614    1.3685    7.2405 O   0  0  0  0  0  0  0  0  0  0  0  0
   47.5619    1.3668    7.2394 O   0  0  0  0  0  0  0  0  0  0  0  0
   47.1835    0.7496    6.5982 H   0  0  0  0  0  0  0  0  0  0  0  0
   46.8397    1.9903    7.4191 H   0  0  0  0  0  0  0  0  0  0  0  0
   47.1831    0.7497    6.5981 H   0  0  0  0  0  0  0  0  0  0  0  0
   46.8401    1.9904    7.4194 H   0  0  0  0  0  0  0  0  0  0  0  0
   47.1827    0.7497    6.5980 H   0  0  0  0  0  0  0  0  0  0  0  0
   46.8404    1.9905    7.4196 H   0  0  0  0  0  0  0  0  0  0  0  0
   47.1827    0.7497    6.5980 H   0  0  0  0  0  0  0  0  0  0  0  0
   46.8404    1.9905    7.4196 H   0  0  0  0  0  0  0  0  0  0  0  0
   46.8410    1.9906    7.4199 H   0  0  0  0  0  0  0  0  0  0  0  0
   47.1821    0.7499    6.5978 H   0  0  0  0  0  0  0  0  0  0  0  0
   46.8419    1.9908    7.4205 H   0  0  0  0  0  0  0  0  0  0  0  0
   47.1810    0.7501    6.5976 H   0  0  0  0  0  0  0  0  0  0  0  0
   46.8404    1.9905    7.4196 H   0  0  0  0  0  0  0  0  0  0  0  0
   47.1827    0.7497    6.5980 H   0  0  0  0  0  0  0  0  0  0  0  0
   47.1835    0.7496    6.5982 H   0  0  0  0  0  0  0  0  0  0  0  0
   46.8397    1.9903    7.4192 H   0  0  0  0  0  0  0  0  0  0  0  0
   46.8403    1.9904    7.4195 H   0  0  0  0  0  0  0  0  0  0  0  0
   47.1829    0.7497    6.5980 H   0  0  0  0  0  0  0  0  0  0  0  0
   46.8437    1.9913    7.4216 H   0  0  0  0  0  0  0  0  0  0  0  0
   47.1790    0.7506    6.5970 H   0  0  0  0  0  0  0  0  0  0  0  0
  2  3  2  0
  2  4  2  0
  2  5  1  0
  2  6  1  0
  1 18  1  0
  1 19  1  0
  9 20  1  0
  9 21  1  0
 10 22  1  0
 10 23  1  0
 11 24  1  0
 11 25  1  0
 12 26  1  0
 12 27  1  0
 13 28  1  0
 13 29  1  0
 14 30  1  0
 14 31  1  0
 15 32  1  0
 15 33  1  0
 16 34  1  0
 16 35  1  0
 17 36  1  0
 17 37  1  0
M  CHG  4   5  -1   6  -1   7   1   8   1
M  END
> <Uni-Dock RESULT> 
ENERGY=   -6.741  LOWER_BOUND=    0.000  UPPER_BOUND=    0.000
INTER + INTRA:          -6.741
INTER:                  -6.741
INTRA:                   0.000
UNBOUND:                 0.000

$$$$

     RDKit          3D

 37 24  0  0  0  0  0  0  0  0999 V2000
   47.1880    0.7630    7.2979 O   0  0  0  0  0  0  0  0  0  0  0  0
   47.1106    1.1503    7.3454 S   0  0  0  0  0  0  0  0  0  0  0  0
   46.3383    1.9414    8.3207 O   0  0  0  0  0  0  0  0  0  0  0  0
   48.5035    1.6321    7.3147 O   0  0  0  0  0  0  0  0  0  0  0  0
   46.5099    1.2978    6.0072 O   0  0  0  0  0  0  0  0  0  0  0  0
   47.0906   -0.2703    7.7391 O   0  0  0  0  0  0  0  0  0  0  0  0
   47.1106    1.1503    7.3454 Na  0  0  0  0  0 15  0  0  0  0  0  0
   47.1106    1.1503    7.3454 Na  0  0  0  0  0 15  0  0  0  0  0  0
   47.1882    0.7630    7.2980 O   0  0  0  0  0  0  0  0  0  0  0  0
   47.1883    0.7630    7.2982 O   0  0  0  0  0  0  0  0  0  0  0  0
   47.1883    0.7630    7.2982 O   0  0  0  0  0  0  0  0  0  0  0  0
   47.1886    0.7630    7.2983 O   0  0  0  0  0  0  0  0  0  0  0  0
   47.1890    0.7631    7.2987 O   0  0  0  0  0  0  0  0  0  0  0  0
   47.1883    0.7630    7.2982 O   0  0  0  0  0  0  0  0  0  0  0  0
   47.1880    0.7630    7.2979 O   0  0  0  0  0  0  0  0  0  0  0  0
   47.1882    0.7630    7.2981 O   0  0  0  0  0  0  0  0  0  0  0  0
   47.1899    0.7632    7.2994 O   0  0  0  0  0  0  0  0  0  0  0  0
   47.6618    1.4028    7.8503 H   0  0  0  0  0  0  0  0  0  0  0  0
   46.4820    1.2852    6.8881 H   0  0  0  0  0  0  0  0  0  0  0  0
   47.6616    1.4032    7.8503 H   0  0  0  0  0  0  0  0  0  0  0  0
   46.4820    1.2847    6.8879 H   0  0  0  0  0  0  0  0  0  0  0  0
   47.6614    1.4036    7.8503 H   0  0  0  0  0  0  0  0  0  0  0  0
   46.4820    1.2843    6.8878 H   0  0  0  0  0  0  0  0  0  0  0  0
   47.6614    1.4036    7.8503 H   0  0  0  0  0  0  0  0  0  0  0  0
   46.4820    1.2843    6.8878 H   0  0  0  0  0  0  0  0  0  0  0  0
   46.4820    1.2837    6.8877 H   0  0  0  0  0  0  0  0  0  0  0  0
   47.6612    1.4041    7.8502 H   0  0  0  0  0  0  0  0  0  0  0  0
   46.4820    1.2826    6.8874 H   0  0  0  0  0  0  0  0  0  0  0  0
   47.6607    1.4052    7.8502 H   0  0  0  0  0  0  0  0  0  0  0  0
   46.4820    1.2843    6.8878 H   0  0  0  0  0  0  0  0  0  0  0  0
   47.6614    1.4036    7.8503 H   0  0  0  0  0  0  0  0  0  0  0  0
   47.6618    1.4028    7.8503 H   0  0  0  0  0  0  0  0  0  0  0  0
   46.4820    1.2851    6.8880 H   0  0  0  0  0  0  0  0  0  0  0  0
   46.4820    1.2845    6.8879 H   0  0  0  0  0  0  0  0  0  0  0  0
   47.6615    1.4034    7.8503 H   0  0  0  0  0  0  0  0  0  0  0  0
   46.4819    1.2805    6.8867 H   0  0  0  0  0  0  0  0  0  0  0  0
   47.6599    1.4072    7.8501 H   0  0  0  0  0  0  0  0  0  0  0  0
  2  3  2  0
  2  4  2  0
  2  5  1  0
  2  6  1  0
  1 18  1  0
  1 19  1  0
  9 20  1  0
  9 21  1  0
 10 22  1  0
 10 23  1  0
 11 24  1  0
 11 25  1  0
 12 26  1  0
 12 27  1  0
 13 28  1  0
 13 29  1  0
 14 30  1  0
 14 31  1  0
 15 32  1  0
 15 33  1  0
 16 34  1  0
 16 35  1  0
 17 36  1  0
 17 37  1  0
M  CHG  4   5  -1   6  -1   7   1   8   1
M  END
> <Uni-Dock RESULT> 
ENERGY=   -6.659  LOWER_BOUND=    0.614  UPPER_BOUND=    1.307
INTER + INTRA:          -6.659
INTER:                  -6.659
INTRA:                   0.000
UNBOUND:                 0.000

$$$$

     RDKit          3D

 37 24  0  0  0  0  0  0  0  0999 V2000
   48.1316    1.9283    6.6213 O   0  0  0  0  0  0  0  0  0  0  0  0
   47.7523    2.0283    6.6879 S   0  0  0  0  0  0  0  0  0  0  0  0
   47.0800    3.1106    7.4296 O   0  0  0  0  0  0  0  0  0  0  0  0
   47.3060    2.0445    5.2830 O   0  0  0  0  0  0  0  0  0  0  0  0
   47.4114    0.7298    7.2970 O   0  0  0  0  0  0  0  0  0  0  0  0
   49.2119    2.2284    6.7422 O   0  0  0  0  0  0  0  0  0  0  0  0
   47.7523    2.0283    6.6879 Na  0  0  0  0  0 15  0  0  0  0  0  0
   47.7523    2.0283    6.6879 Na  0  0  0  0  0 15  0  0  0  0  0  0
   48.1316    1.9285    6.6212 O   0  0  0  0  0  0  0  0  0  0  0  0
   48.1316    1.9286    6.6210 O   0  0  0  0  0  0  0  0  0  0  0  0
   48.1316    1.9286    6.6210 O   0  0  0  0  0  0  0  0  0  0  0  0
   48.1316    1.9288    6.6208 O   0  0  0  0  0  0  0  0  0  0  0  0
   48.1316    1.9292    6.6203 O   0  0  0  0  0  0  0  0  0  0  0  0
   48.1316    1.9286    6.6210 O   0  0  0  0  0  0  0  0  0  0  0  0
   48.1316    1.9283    6.6213 O   0  0  0  0  0  0  0  0  0  0  0  0
   48.1316    1.9285    6.6211 O   0  0  0  0  0  0  0  0  0  0  0  0
   48.1316    1.9298    6.6194 O   0  0  0  0  0  0  0  0  0  0  0  0
   47.5839    2.5553    6.1255 H   0  0  0  0  0  0  0  0  0  0  0  0
   47.5415    1.6013    7.3169 H   0  0  0  0  0  0  0  0  0  0  0  0
   47.5835    2.5554    6.1256 H   0  0  0  0  0  0  0  0  0  0  0  0
   47.5419    1.6011    7.3170 H   0  0  0  0  0  0  0  0  0  0  0  0
   47.5831    2.5554    6.1258 H   0  0  0  0  0  0  0  0  0  0  0  0
   47.5423    1.6009    7.3170 H   0  0  0  0  0  0  0  0  0  0  0  0
   47.5831    2.5554    6.1258 H   0  0  0  0  0  0  0  0  0  0  0  0
   47.5423    1.6009    7.3170 H   0  0  0  0  0  0  0  0  0  0  0  0
   47.5429    1.6007    7.3170 H   0  0  0  0  0  0  0  0  0  0  0  0
   47.5825    2.5554    6.1260 H   0  0  0  0  0  0  0  0  0  0  0  0
   47.5439    1.6003    7.3170 H   0  0  0  0  0  0  0  0  0  0  0  0
   47.5815    2.5555    6.1264 H   0  0  0  0  0  0  0  0  0  0  0  0
   47.5423    1.6009    7.3170 H   0  0  0  0  0  0  0  0  0  0  0  0
   47.5831    2.5554    6.1258 H   0  0  0  0  0  0  0  0  0  0  0  0
   47.5839    2.5553    6.1255 H   0  0  0  0  0  0  0  0  0  0  0  0
   47.5416    1.6013    7.3170 H   0  0  0  0  0  0  0  0  0  0  0  0
   47.5421    1.6010    7.3170 H   0  0  0  0  0  0  0  0  0  0  0  0
   47.5833    2.5554    6.1257 H   0  0  0  0  0  0  0  0  0  0  0  0
   47.5459    1.5994    7.3171 H   0  0  0  0  0  0  0  0  0  0  0  0
   47.5795    2.5557    6.1272 H   0  0  0  0  0  0  0  0  0  0  0  0
  2  3  2  0
  2  4  2  0
  2  5  1  0
  2  6  1  0
  1 18  1  0
  1 19  1  0
  9 20  1  0
  9 21  1  0
 10 22  1  0
 10 23  1  0
 11 24  1  0
 11 25  1  0
 12 26  1  0
 12 27  1  0
 13 28  1  0
 13 29  1  0
 14 30  1  0
 14 31  1  0
 15 32  1  0
 15 33  1  0
 16 34  1  0
 16 35  1  0
 17 36  1  0
 17 37  1  0
M  CHG  4   5  -1   6  -1   7   1   8   1
M  END
> <Uni-Dock RESULT> 
ENERGY=   -6.551  LOWER_BOUND=    0.859  UPPER_BOUND=    1.312
INTER + INTRA:          -6.551
INTER:                  -6.551
INTRA:                   0.000
UNBOUND:                 0.000

$$$$

     RDKit          3D

 37 24  0  0  0  0  0  0  0  0999 V2000
   42.2738    5.6374   11.7332 O   0  0  0  0  0  0  0  0  0  0  0  0
   42.5990    5.5159   11.9273 S   0  0  0  0  0  0  0  0  0  0  0  0
   43.0302    5.5267   13.3371 O   0  0  0  0  0  0  0  0  0  0  0  0
   42.6250    4.1333   11.4161 O   0  0  0  0  0  0  0  0  0  0  0  0
   43.5121    6.3527   11.1277 O   0  0  0  0  0  0  0  0  0  0  0  0
   41.2288    6.0507   11.8284 O   0  0  0  0  0  0  0  0  0  0  0  0
   42.5990    5.5159   11.9273 Na  0  0  0  0  0 15  0  0  0  0  0  0
   42.5990    5.5159   11.9273 Na  0  0  0  0  0 15  0  0  0  0  0  0
   42.2737    5.6372   11.7333 O   0  0  0  0  0  0  0  0  0  0  0  0
   42.2736    5.6371   11.7333 O   0  0  0  0  0  0  0  0  0  0  0  0
   42.2736    5.6371   11.7333 O   0  0  0  0  0  0  0  0  0  0  0  0
   42.2734    5.6368   11.7334 O   0  0  0  0  0  0  0  0  0  0  0  0
   42.2732    5.6363   11.7335 O   0  0  0  0  0  0  0  0  0  0  0  0
   42.2736    5.6371   11.7333 O   0  0  0  0  0  0  0  0  0  0  0  0
   42.2738    5.6374   11.7332 O   0  0  0  0  0  0  0  0  0  0  0  0
   42.2736    5.6371   11.7333 O   0  0  0  0  0  0  0  0  0  0  0  0
   42.2727    5.6353   11.7337 O   0  0  0  0  0  0  0  0  0  0  0  0
   42.4219    4.7884   12.1761 H   0  0  0  0  0  0  0  0  0  0  0  0
   43.1015    6.1216   11.8727 H   0  0  0  0  0  0  0  0  0  0  0  0
   42.4223    4.7884   12.1763 H   0  0  0  0  0  0  0  0  0  0  0  0
   43.1011    6.1220   11.8724 H   0  0  0  0  0  0  0  0  0  0  0  0
   42.4226    4.7883   12.1765 H   0  0  0  0  0  0  0  0  0  0  0  0
   43.1008    6.1222   11.8722 H   0  0  0  0  0  0  0  0  0  0  0  0
   42.4226    4.7883   12.1765 H   0  0  0  0  0  0  0  0  0  0  0  0
   43.1008    6.1222   11.8722 H   0  0  0  0  0  0  0  0  0  0  0  0
   43.1004    6.1224   11.8718 H   0  0  0  0  0  0  0  0  0  0  0  0
   42.4232    4.7883   12.1767 H   0  0  0  0  0  0  0  0  0  0  0  0
   43.0996    6.1230   11.8712 H   0  0  0  0  0  0  0  0  0  0  0  0
   42.4243    4.7882   12.1772 H   0  0  0  0  0  0  0  0  0  0  0  0
   43.1008    6.1222   11.8722 H   0  0  0  0  0  0  0  0  0  0  0  0
   42.4226    4.7883   12.1765 H   0  0  0  0  0  0  0  0  0  0  0  0
   42.4219    4.7884   12.1761 H   0  0  0  0  0  0  0  0  0  0  0  0
   43.1014    6.1218   11.8726 H   0  0  0  0  0  0  0  0  0  0  0  0
   43.1010    6.1220   11.8723 H   0  0  0  0  0  0  0  0  0  0  0  0
   42.4225    4.7884   12.1764 H   0  0  0  0  0  0  0  0  0  0  0  0
   43.0982    6.1242   11.8701 H   0  0  0  0  0  0  0  0  0  0  0  0
   42.4262    4.7880   12.1781 H   0  0  0  0  0  0  0  0  0  0  0  0
  2  3  2  0
  2  4  2  0
  2  5  1  0
  2  6  1  0
  1 18  1  0
  1 19  1  0
  9 20  1  0
  9 21  1  0
 10 22  1  0
 10 23  1  0
 11 24  1  0
 11 25  1  0
 12 26  1  0
 12 27  1  0
 13 28  1  0
 13 29  1  0
 14 30  1  0
 14 31  1  0
 15 32  1  0
 15 33  1  0
 16 34  1  0
 16 35  1  0
 17 36  1  0
 17 37  1  0
M  CHG  4   5  -1   6  -1   7   1   8   1
M  END
> <Uni-Dock RESULT> 
ENERGY=   -6.098  LOWER_BOUND=    7.185  UPPER_BOUND=    8.113
INTER + INTRA:          -6.098
INTER:                  -6.098
INTRA:                   0.000
UNBOUND:                 0.000

$$$$

     RDKit          3D

 37 24  0  0  0  0  0  0  0  0999 V2000
   42.8453    5.3122   12.9899 O   0  0  0  0  0  0  0  0  0  0  0  0
   42.9960    5.2989   12.6220 S   0  0  0  0  0  0  0  0  0  0  0  0
   43.5421    4.2324   11.7631 O   0  0  0  0  0  0  0  0  0  0  0  0
   41.8767    5.9628   11.9293 O   0  0  0  0  0  0  0  0  0  0  0  0
   44.0516    6.2871   12.9095 O   0  0  0  0  0  0  0  0  0  0  0  0
   42.5137    4.7133   13.8860 O   0  0  0  0  0  0  0  0  0  0  0  0
   42.9960    5.2989   12.6220 Na  0  0  0  0  0 15  0  0  0  0  0  0
   42.9960    5.2989   12.6220 Na  0  0  0  0  0 15  0  0  0  0  0  0
   42.8452    5.3122   12.9898 O   0  0  0  0  0  0  0  0  0  0  0  0
   42.8450    5.3121   12.9897 O   0  0  0  0  0  0  0  0  0  0  0  0
   42.8450    5.3121   12.9897 O   0  0  0  0  0  0  0  0  0  0  0  0
   42.8447    5.3121   12.9896 O   0  0  0  0  0  0  0  0  0  0  0  0
   42.8442    5.3119   12.9894 O   0  0  0  0  0  0  0  0  0  0  0  0
   42.8450    5.3121   12.9897 O   0  0  0  0  0  0  0  0  0  0  0  0
   42.8453    5.3122   12.9899 O   0  0  0  0  0  0  0  0  0  0  0  0
   42.8451    5.3122   12.9898 O   0  0  0  0  0  0  0  0  0  0  0  0
   42.8432    5.3117   12.9890 O   0  0  0  0  0  0  0  0  0  0  0  0
   42.3840    5.1050   12.1633 H   0  0  0  0  0  0  0  0  0  0  0  0
   43.7587    5.4794   12.7126 H   0  0  0  0  0  0  0  0  0  0  0  0
   42.3843    5.1050   12.1630 H   0  0  0  0  0  0  0  0  0  0  0  0
   43.7586    5.4795   12.7131 H   0  0  0  0  0  0  0  0  0  0  0  0
   42.3845    5.1050   12.1627 H   0  0  0  0  0  0  0  0  0  0  0  0
   43.7586    5.4795   12.7135 H   0  0  0  0  0  0  0  0  0  0  0  0
   42.3845    5.1050   12.1627 H   0  0  0  0  0  0  0  0  0  0  0  0
   43.7586    5.4795   12.7135 H   0  0  0  0  0  0  0  0  0  0  0  0
   43.7584    5.4795   12.7141 H   0  0  0  0  0  0  0  0  0  0  0  0
   42.3849    5.1050   12.1622 H   0  0  0  0  0  0  0  0  0  0  0  0
   43.7583    5.4797   12.7152 H   0  0  0  0  0  0  0  0  0  0  0  0
   42.3856    5.1050   12.1613 H   0  0  0  0  0  0  0  0  0  0  0  0
   43.7586    5.4795   12.7135 H   0  0  0  0  0  0  0  0  0  0  0  0
   42.3845    5.1050   12.1627 H   0  0  0  0  0  0  0  0  0  0  0  0
   42.3840    5.1050   12.1633 H   0  0  0  0  0  0  0  0  0  0  0  0
   43.7587    5.4794   12.7127 H   0  0  0  0  0  0  0  0  0  0  0  0
   43.7586    5.4795   12.7133 H   0  0  0  0  0  0  0  0  0  0  0  0
   42.3844    5.1050   12.1629 H   0  0  0  0  0  0  0  0  0  0  0  0
   43.7580    5.4799   12.7174 H   0  0  0  0  0  0  0  0  0  0  0  0
   42.3869    5.1051   12.1595 H   0  0  0  0  0  0  0  0  0  0  0  0
  2  3  2  0
  2  4  2  0
  2  5  1  0
  2  6  1  0
  1 18  1  0
  1 19  1  0
  9 20  1  0
  9 21  1  0
 10 22  1  0
 10 23  1  0
 11 24  1  0
 11 25  1  0
 12 26  1  0
 12 27  1  0
 13 28  1  0
 13 29  1  0
 14 30  1  0
 14 31  1  0
 15 32  1  0
 15 33  1  0
 16 34  1  0
 16 35  1  0
 17 36  1  0
 17 37  1  0
M  CHG  4   5  -1   6  -1   7   1   8   1
M  END
> <Uni-Dock RESULT> 
ENERGY=   -5.957  LOWER_BOUND=    7.041  UPPER_BOUND=    8.311
INTER + INTRA:          -5.957
INTER:                  -5.957
INTRA:                   0.000
UNBOUND:                 0.000

$$$$

     RDKit          3D

 37 24  0  0  0  0  0  0  0  0999 V2000
   40.1853   12.3691   15.8399 O   0  0  0  0  0  0  0  0  0  0  0  0
   39.9345   12.4596   15.5447 S   0  0  0  0  0  0  0  0  0  0  0  0
   39.7696   12.0112   14.1500 O   0  0  0  0  0  0  0  0  0  0  0  0
   38.6776   12.2404   16.2832 O   0  0  0  0  0  0  0  0  0  0  0  0
   40.2714   13.8947   15.5629 O   0  0  0  0  0  0  0  0  0  0  0  0
   41.0195   11.6920   16.1826 O   0  0  0  0  0  0  0  0  0  0  0  0
   39.9345   12.4596   15.5447 Na  0  0  0  0  0 15  0  0  0  0  0  0
   39.9345   12.4596   15.5447 Na  0  0  0  0  0 15  0  0  0  0  0  0
   40.1852   12.3689   15.8400 O   0  0  0  0  0  0  0  0  0  0  0  0
   40.1850   12.3688   15.8400 O   0  0  0  0  0  0  0  0  0  0  0  0
   40.1850   12.3688   15.8400 O   0  0  0  0  0  0  0  0  0  0  0  0
   40.1849   12.3685   15.8401 O   0  0  0  0  0  0  0  0  0  0  0  0
   40.1845   12.3681   15.8403 O   0  0  0  0  0  0  0  0  0  0  0  0
   40.1850   12.3688   15.8400 O   0  0  0  0  0  0  0  0  0  0  0  0
   40.1853   12.3691   15.8399 O   0  0  0  0  0  0  0  0  0  0  0  0
   40.1851   12.3688   15.8400 O   0  0  0  0  0  0  0  0  0  0  0  0
   40.1839   12.3672   15.8405 O   0  0  0  0  0  0  0  0  0  0  0  0
   39.3636   11.9174   15.5954 H   0  0  0  0  0  0  0  0  0  0  0  0
   40.2546   13.0922   15.1986 H   0  0  0  0  0  0  0  0  0  0  0  0
   39.3634   11.9176   15.5951 H   0  0  0  0  0  0  0  0  0  0  0  0
   40.2550   13.0923   15.1990 H   0  0  0  0  0  0  0  0  0  0  0  0
   39.3632   11.9178   15.5948 H   0  0  0  0  0  0  0  0  0  0  0  0
   40.2553   13.0922   15.1992 H   0  0  0  0  0  0  0  0  0  0  0  0
   39.3632   11.9178   15.5948 H   0  0  0  0  0  0  0  0  0  0  0  0
   40.2553   13.0922   15.1992 H   0  0  0  0  0  0  0  0  0  0  0  0
   40.2557   13.0922   15.1996 H   0  0  0  0  0  0  0  0  0  0  0  0
   39.3629   11.9180   15.5943 H   0  0  0  0  0  0  0  0  0  0  0  0
   40.2566   13.0922   15.2004 H   0  0  0  0  0  0  0  0  0  0  0  0
   39.3624   11.9185   15.5934 H   0  0  0  0  0  0  0  0  0  0  0  0
   40.2553   13.0922   15.1992 H   0  0  0  0  0  0  0  0  0  0  0  0
   39.3632   11.9178   15.5948 H   0  0  0  0  0  0  0  0  0  0  0  0
   39.3636   11.9174   15.5954 H   0  0  0  0  0  0  0  0  0  0  0  0
   40.2547   13.0923   15.1987 H   0  0  0  0  0  0  0  0  0  0  0  0
   40.2551   13.0922   15.1991 H   0  0  0  0  0  0  0  0  0  0  0  0
   39.3633   11.9177   15.5949 H   0  0  0  0  0  0  0  0  0  0  0  0
   40.2583   13.0921   15.2018 H   0  0  0  0  0  0  0  0  0  0  0  0
   39.3614   11.9194   15.5917 H   0  0  0  0  0  0  0  0  0  0  0  0
  2  3  2  0
  2  4  2  0
  2  5  1  0
  2  6  1  0
  1 18  1  0
  1 19  1  0
  9 20  1  0
  9 21  1  0
 10 22  1  0
 10 23  1  0
 11 24  1  0
 11 25  1  0
 12 26  1  0
 12 27  1  0
 13 28  1  0
 13 29  1  0
 14 30  1  0
 14 31  1  0
 15 32  1  0
 15 33  1  0
 16 34  1  0
 16 35  1  0
 17 36  1  0
 17 37  1  0
M  CHG  4   5  -1   6  -1   7   1   8   1
M  END
> <Uni-Dock RESULT> 
ENERGY=   -5.887  LOWER_BOUND=   15.031  UPPER_BOUND=   15.780
INTER + INTRA:          -5.887
INTER:                  -5.887
INTRA:                   0.000
UNBOUND:                 0.000

$$$$

     RDKit          3D

 37 24  0  0  0  0  0  0  0  0999 V2000
   46.7511    3.9123    6.7994 O   0  0  0  0  0  0  0  0  0  0  0  0
   46.5408    3.7666    7.1040 S   0  0  0  0  0  0  0  0  0  0  0  0
   45.1478    3.3181    7.2822 O   0  0  0  0  0  0  0  0  0  0  0  0
   47.4596    2.6728    7.4685 O   0  0  0  0  0  0  0  0  0  0  0  0
   46.7964    4.9321    7.9697 O   0  0  0  0  0  0  0  0  0  0  0  0
   46.7594    4.1432    5.6956 O   0  0  0  0  0  0  0  0  0  0  0  0
   46.5408    3.7666    7.1040 Na  0  0  0  0  0 15  0  0  0  0  0  0
   46.5408    3.7666    7.1040 Na  0  0  0  0  0 15  0  0  0  0  0  0
   46.7511    3.9121    6.7993 O   0  0  0  0  0  0  0  0  0  0  0  0
   46.7511    3.9120    6.7993 O   0  0  0  0  0  0  0  0  0  0  0  0
   46.7511    3.9120    6.7993 O   0  0  0  0  0  0  0  0  0  0  0  0
   46.7512    3.9117    6.7992 O   0  0  0  0  0  0  0  0  0  0  0  0
   46.7513    3.9111    6.7990 O   0  0  0  0  0  0  0  0  0  0  0  0
   46.7511    3.9120    6.7993 O   0  0  0  0  0  0  0  0  0  0  0  0
   46.7511    3.9123    6.7994 O   0  0  0  0  0  0  0  0  0  0  0  0
   46.7511    3.9121    6.7993 O   0  0  0  0  0  0  0  0  0  0  0  0
   46.7515    3.9101    6.7987 O   0  0  0  0  0  0  0  0  0  0  0  0
   46.5914    2.9833    7.0238 H   0  0  0  0  0  0  0  0  0  0  0  0
   46.2799    4.4039    7.4889 H   0  0  0  0  0  0  0  0  0  0  0  0
   46.5912    2.9832    7.0241 H   0  0  0  0  0  0  0  0  0  0  0  0
   46.2802    4.4043    7.4886 H   0  0  0  0  0  0  0  0  0  0  0  0
   46.5909    2.9832    7.0244 H   0  0  0  0  0  0  0  0  0  0  0  0
   46.2804    4.4045    7.4883 H   0  0  0  0  0  0  0  0  0  0  0  0
   46.5909    2.9832    7.0244 H   0  0  0  0  0  0  0  0  0  0  0  0
   46.2804    4.4045    7.4883 H   0  0  0  0  0  0  0  0  0  0  0  0
   46.2807    4.4048    7.4879 H   0  0  0  0  0  0  0  0  0  0  0  0
   46.5906    2.9832    7.0250 H   0  0  0  0  0  0  0  0  0  0  0  0
   46.2812    4.4055    7.4871 H   0  0  0  0  0  0  0  0  0  0  0  0
   46.5899    2.9830    7.0259 H   0  0  0  0  0  0  0  0  0  0  0  0
   46.2804    4.4045    7.4883 H   0  0  0  0  0  0  0  0  0  0  0  0
   46.5909    2.9832    7.0244 H   0  0  0  0  0  0  0  0  0  0  0  0
   46.5914    2.9833    7.0238 H   0  0  0  0  0  0  0  0  0  0  0  0
   46.2800    4.4040    7.4888 H   0  0  0  0  0  0  0  0  0  0  0  0
   46.2803    4.4043    7.4884 H   0  0  0  0  0  0  0  0  0  0  0  0
   46.5910    2.9833    7.0243 H   0  0  0  0  0  0  0  0  0  0  0  0
   46.2822    4.4068    7.4857 H   0  0  0  0  0  0  0  0  0  0  0  0
   46.5887    2.9827    7.0276 H   0  0  0  0  0  0  0  0  0  0  0  0
  2  3  2  0
  2  4  2  0
  2  5  1  0
  2  6  1  0
  1 18  1  0
  1 19  1  0
  9 20  1  0
  9 21  1  0
 10 22  1  0
 10 23  1  0
 11 24  1  0
 11 25  1  0
 12 26  1  0
 12 27  1  0
 13 28  1  0
 13 29  1  0
 14 30  1  0
 14 31  1  0
 15 32  1  0
 15 33  1  0
 16 34  1  0
 16 35  1  0
 17 36  1  0
 17 37  1  0
M  CHG  4   5  -1   6  -1   7   1   8   1
M  END
> <Uni-Dock RESULT> 
ENERGY=   -5.580  LOWER_BOUND=    2.270  UPPER_BOUND=    2.724
INTER + INTRA:          -5.580
INTER:                  -5.580
INTRA:                   0.000
UNBOUND:                 0.000

$$$$

     RDKit          3D

 37 24  0  0  0  0  0  0  0  0999 V2000
   43.3101    2.3855   11.5038 O   0  0  0  0  0  0  0  0  0  0  0  0
   43.6036    2.6530   11.5279 S   0  0  0  0  0  0  0  0  0  0  0  0
   44.7259    2.8801   12.4564 O   0  0  0  0  0  0  0  0  0  0  0  0
   44.1237    2.4953   10.1575 O   0  0  0  0  0  0  0  0  0  0  0  0
   42.6855    3.8055   11.5756 O   0  0  0  0  0  0  0  0  0  0  0  0
   42.8791    1.4311   11.9222 O   0  0  0  0  0  0  0  0  0  0  0  0
   43.6036    2.6530   11.5279 Na  0  0  0  0  0 15  0  0  0  0  0  0
   43.6036    2.6530   11.5279 Na  0  0  0  0  0 15  0  0  0  0  0  0
   43.3102    2.3854   11.5037 O   0  0  0  0  0  0  0  0  0  0  0  0
   43.3104    2.3853   11.5036 O   0  0  0  0  0  0  0  0  0  0  0  0
   43.3104    2.3853   11.5036 O   0  0  0  0  0  0  0  0  0  0  0  0
   43.3105    2.3851   11.5034 O   0  0  0  0  0  0  0  0  0  0  0  0
   43.3109    2.3847   11.5031 O   0  0  0  0  0  0  0  0  0  0  0  0
   43.3104    2.3853   11.5036 O   0  0  0  0  0  0  0  0  0  0  0  0
   43.3101    2.3855   11.5038 O   0  0  0  0  0  0  0  0  0  0  0  0
   43.3103    2.3853   11.5036 O   0  0  0  0  0  0  0  0  0  0  0  0
   43.3116    2.3840   11.5026 O   0  0  0  0  0  0  0  0  0  0  0  0
   44.2135    2.3128   11.1609 H   0  0  0  0  0  0  0  0  0  0  0  0
   43.2872    3.2607   11.9192 H   0  0  0  0  0  0  0  0  0  0  0  0
   44.2137    2.3132   11.1609 H   0  0  0  0  0  0  0  0  0  0  0  0
   43.2867    3.2605   11.9192 H   0  0  0  0  0  0  0  0  0  0  0  0
   44.2140    2.3135   11.1610 H   0  0  0  0  0  0  0  0  0  0  0  0
   43.2864    3.2603   11.9192 H   0  0  0  0  0  0  0  0  0  0  0  0
   44.2140    2.3135   11.1610 H   0  0  0  0  0  0  0  0  0  0  0  0
   43.2864    3.2603   11.9192 H   0  0  0  0  0  0  0  0  0  0  0  0
   43.2859    3.2599   11.9193 H   0  0  0  0  0  0  0  0  0  0  0  0
   44.2143    2.3140   11.1611 H   0  0  0  0  0  0  0  0  0  0  0  0
   43.2849    3.2594   11.9193 H   0  0  0  0  0  0  0  0  0  0  0  0
   44.2149    2.3149   11.1614 H   0  0  0  0  0  0  0  0  0  0  0  0
   43.2864    3.2603   11.9192 H   0  0  0  0  0  0  0  0  0  0  0  0
   44.2140    2.3135   11.1610 H   0  0  0  0  0  0  0  0  0  0  0  0
   44.2135    2.3128   11.1609 H   0  0  0  0  0  0  0  0  0  0  0  0
   43.2871    3.2607   11.9192 H   0  0  0  0  0  0  0  0  0  0  0  0
   43.2866    3.2603   11.9192 H   0  0  0  0  0  0  0  0  0  0  0  0
   44.2138    2.3134   11.1610 H   0  0  0  0  0  0  0  0  0  0  0  0
   43.2829    3.2583   11.9195 H   0  0  0  0  0  0  0  0  0  0  0  0
   44.2161    2.3167   11.1617 H   0  0  0  0  0  0  0  0  0  0  0  0
  2  3  2  0
  2  4  2  0
  2  5  1  0
  2  6  1  0
  1 18  1  0
  1 19  1  0
  9 20  1  0
  9 21  1  0
 10 22  1  0
 10 23  1  0
 11 24  1  0
 11 25  1  0
 12 26  1  0
 12 27  1  0
 13 28  1  0
 13 29  1  0
 14 30  1  0
 14 31  1  0
 15 32  1  0
 15 33  1  0
 16 34  1  0
 16 35  1  0
 17 36  1  0
 17 37  1  0
M  CHG  4   5  -1   6  -1   7   1   8   1
M  END
> <Uni-Dock RESULT> 
ENERGY=   -5.451  LOWER_BOUND=    4.899  UPPER_BOUND=    6.104
INTER + INTRA:          -5.451
INTER:                  -5.451
INTRA:                   0.000
UNBOUND:                 0.000

$$$$

     RDKit          3D

 37 24  0  0  0  0  0  0  0  0999 V2000
   44.4480    4.1328    8.4614 O   0  0  0  0  0  0  0  0  0  0  0  0
   44.6254    4.0802    8.8135 S   0  0  0  0  0  0  0  0  0  0  0  0
   45.0801    2.9062    9.5807 O   0  0  0  0  0  0  0  0  0  0  0  0
   45.7603    4.9961    8.5981 O   0  0  0  0  0  0  0  0  0  0  0  0
   43.5664    4.7781    9.5650 O   0  0  0  0  0  0  0  0  0  0  0  0
   44.0948    3.6402    7.5104 O   0  0  0  0  0  0  0  0  0  0  0  0
   44.6254    4.0802    8.8135 Na  0  0  0  0  0 15  0  0  0  0  0  0
   44.6254    4.0802    8.8135 Na  0  0  0  0  0 15  0  0  0  0  0  0
   44.4482    4.1328    8.4613 O   0  0  0  0  0  0  0  0  0  0  0  0
   44.4484    4.1328    8.4612 O   0  0  0  0  0  0  0  0  0  0  0  0
   44.4484    4.1328    8.4612 O   0  0  0  0  0  0  0  0  0  0  0  0
   44.4486    4.1328    8.4611 O   0  0  0  0  0  0  0  0  0  0  0  0
   44.4492    4.1327    8.4608 O   0  0  0  0  0  0  0  0  0  0  0  0
   44.4484    4.1328    8.4612 O   0  0  0  0  0  0  0  0  0  0  0  0
   44.4480    4.1328    8.4614 O   0  0  0  0  0  0  0  0  0  0  0  0
   44.4483    4.1328    8.4613 O   0  0  0  0  0  0  0  0  0  0  0  0
   44.4501    4.1327    8.4603 O   0  0  0  0  0  0  0  0  0  0  0  0
   45.3951    4.0409    8.6446 H   0  0  0  0  0  0  0  0  0  0  0  0
   44.0333    4.0669    9.3347 H   0  0  0  0  0  0  0  0  0  0  0  0
   45.3952    4.0408    8.6450 H   0  0  0  0  0  0  0  0  0  0  0  0
   44.0329    4.0669    9.3343 H   0  0  0  0  0  0  0  0  0  0  0  0
   45.3952    4.0408    8.6454 H   0  0  0  0  0  0  0  0  0  0  0  0
   44.0326    4.0670    9.3340 H   0  0  0  0  0  0  0  0  0  0  0  0
   45.3952    4.0408    8.6454 H   0  0  0  0  0  0  0  0  0  0  0  0
   44.0326    4.0670    9.3340 H   0  0  0  0  0  0  0  0  0  0  0  0
   44.0322    4.0671    9.3335 H   0  0  0  0  0  0  0  0  0  0  0  0
   45.3953    4.0407    8.6460 H   0  0  0  0  0  0  0  0  0  0  0  0
   44.0315    4.0672    9.3327 H   0  0  0  0  0  0  0  0  0  0  0  0
   45.3956    4.0406    8.6471 H   0  0  0  0  0  0  0  0  0  0  0  0
   44.0326    4.0670    9.3340 H   0  0  0  0  0  0  0  0  0  0  0  0
   45.3952    4.0408    8.6454 H   0  0  0  0  0  0  0  0  0  0  0  0
   45.3951    4.0409    8.6446 H   0  0  0  0  0  0  0  0  0  0  0  0
   44.0331    4.0669    9.3346 H   0  0  0  0  0  0  0  0  0  0  0  0
   44.0328    4.0670    9.3342 H   0  0  0  0  0  0  0  0  0  0  0  0
   45.3952    4.0408    8.6452 H   0  0  0  0  0  0  0  0  0  0  0  0
   44.0300    4.0675    9.3311 H   0  0  0  0  0  0  0  0  0  0  0  0
   45.3960    4.0403    8.6492 H   0  0  0  0  0  0  0  0  0  0  0  0
  2  3  2  0
  2  4  2  0
  2  5  1  0
  2  6  1  0
  1 18  1  0
  1 19  1  0
  9 20  1  0
  9 21  1  0
 10 22  1  0
 10 23  1  0
 11 24  1  0
 11 25  1  0
 12 26  1  0
 12 27  1  0
 13 28  1  0
 13 29  1  0
 14 30  1  0
 14 31  1  0
 15 32  1  0
 15 33  1  0
 16 34  1  0
 16 35  1  0
 17 36  1  0
 17 37  1  0
M  CHG  4   5  -1   6  -1   7   1   8   1
M  END
> <Uni-Dock RESULT> 
ENERGY=   -5.440  LOWER_BOUND=    3.808  UPPER_BOUND=    4.398
INTER + INTRA:          -5.440
INTER:                  -5.440
INTRA:                   0.000
UNBOUND:                 0.000

$$$$
