
     RDKit          3D

 37 24  0  0  0  0  0  0  0  0999 V2000
   47.4458    1.0595    7.2552 O   0  0  0  0  0  0  0  0  0  0  0  0
   47.1017    1.2576    7.2296 S   0  0  0  0  0  0  0  0  0  0  0  0
   48.5322    1.6139    7.2189 O   0  0  0  0  0  0  0  0  0  0  0  0
   46.9585   -0.1945    7.4399 O   0  0  0  0  0  0  0  0  0  0  0  0
   46.4231    1.9814    8.3201 O   0  0  0  0  0  0  0  0  0  0  0  0
   46.4928    1.6297    5.9395 O   0  0  0  0  0  0  0  0  0  0  0  0
   47.1017    1.2576    7.2296 Na  0  0  0  0  0 15  0  0  0  0  0  0
   47.1017    1.2576    7.2296 Na  0  0  0  0  0 15  0  0  0  0  0  0
   47.4453    1.0576    7.2440 O   0  0  0  0  0  0  0  0  0  0  0  0
   47.4453    1.0577    7.2446 O   0  0  0  0  0  0  0  0  0  0  0  0
   47.4454    1.0582    7.2475 O   0  0  0  0  0  0  0  0  0  0  0  0
   47.4449    1.0565    7.2373 O   0  0  0  0  0  0  0  0  0  0  0  0
   47.4459    1.0622    7.2690 O   0  0  0  0  0  0  0  0  0  0  0  0
   47.4459    1.0604    7.2598 O   0  0  0  0  0  0  0  0  0  0  0  0
   47.4459    1.0603    7.2593 O   0  0  0  0  0  0  0  0  0  0  0  0
   47.4458    1.0601    7.2581 O   0  0  0  0  0  0  0  0  0  0  0  0
   47.4455    1.0584    7.2489 O   0  0  0  0  0  0  0  0  0  0  0  0
   46.9527    1.4936    7.9676 H   0  0  0  0  0  0  0  0  0  0  0  0
   46.9067    1.2197    6.4661 H   0  0  0  0  0  0  0  0  0  0  0  0
   46.9718    1.4836    7.9743 H   0  0  0  0  0  0  0  0  0  0  0  0
   46.8880    1.2316    6.4706 H   0  0  0  0  0  0  0  0  0  0  0  0
   46.9708    1.4842    7.9740 H   0  0  0  0  0  0  0  0  0  0  0  0
   46.8889    1.2310    6.4704 H   0  0  0  0  0  0  0  0  0  0  0  0
   46.8938    1.2279    6.4692 H   0  0  0  0  0  0  0  0  0  0  0  0
   46.9658    1.4867    7.9722 H   0  0  0  0  0  0  0  0  0  0  0  0
   46.9832    1.4776    7.9780 H   0  0  0  0  0  0  0  0  0  0  0  0
   46.8770    1.2387    6.4736 H   0  0  0  0  0  0  0  0  0  0  0  0
   46.9299    1.2050    6.4614 H   0  0  0  0  0  0  0  0  0  0  0  0
   46.9292    1.5056    7.9585 H   0  0  0  0  0  0  0  0  0  0  0  0
   46.9144    1.2148    6.4644 H   0  0  0  0  0  0  0  0  0  0  0  0
   46.9448    1.4976    7.9646 H   0  0  0  0  0  0  0  0  0  0  0  0
   46.9457    1.4972    7.9649 H   0  0  0  0  0  0  0  0  0  0  0  0
   46.9135    1.2153    6.4646 H   0  0  0  0  0  0  0  0  0  0  0  0
   46.9477    1.4962    7.9657 H   0  0  0  0  0  0  0  0  0  0  0  0
   46.9116    1.2166    6.4650 H   0  0  0  0  0  0  0  0  0  0  0  0
   46.8960    1.2265    6.4686 H   0  0  0  0  0  0  0  0  0  0  0  0
   46.9635    1.4880    7.9715 H   0  0  0  0  0  0  0  0  0  0  0  0
  2  3  2  0
  2  4  2  0
  2  5  1  0
  2  6  1  0
  1 18  1  0
  1 19  1  0
  9 20  1  0
  9 21  1  0
 10 22  1  0
 10 23  1  0
 11 24  1  0
 11 25  1  0
 12 26  1  0
 12 27  1  0
 13 28  1  0
 13 29  1  0
 14 30  1  0
 14 31  1  0
 15 32  1  0
 15 33  1  0
 16 34  1  0
 16 35  1  0
 17 36  1  0
 17 37  1  0
M  CHG  4   5  -1   6  -1   7   1   8   1
M  END
> <Uni-Dock RESULT> 
ENERGY=   -6.910  LOWER_BOUND=    0.000  UPPER_BOUND=    0.000
INTER + INTRA:          -6.910
INTER:                  -6.910
INTRA:                   0.000
UNBOUND:                 0.000

$$$$

     RDKit          3D

 37 24  0  0  0  0  0  0  0  0999 V2000
   47.4652    1.5280    7.3116 O   0  0  0  0  0  0  0  0  0  0  0  0
   47.1998    1.3639    7.0647 S   0  0  0  0  0  0  0  0  0  0  0  0
   48.6562    1.5927    7.0541 O   0  0  0  0  0  0  0  0  0  0  0  0
   46.6194    1.9491    8.2871 O   0  0  0  0  0  0  0  0  0  0  0  0
   46.5940    1.9990    5.8802 O   0  0  0  0  0  0  0  0  0  0  0  0
   46.9298   -0.0852    7.0375 O   0  0  0  0  0  0  0  0  0  0  0  0
   47.1998    1.3639    7.0647 Na  0  0  0  0  0 15  0  0  0  0  0  0
   47.1998    1.3639    7.0647 Na  0  0  0  0  0 15  0  0  0  0  0  0
   47.4659    1.5181    7.3171 O   0  0  0  0  0  0  0  0  0  0  0  0
   47.4659    1.5187    7.3168 O   0  0  0  0  0  0  0  0  0  0  0  0
   47.4657    1.5212    7.3154 O   0  0  0  0  0  0  0  0  0  0  0  0
   47.4662    1.5121    7.3203 O   0  0  0  0  0  0  0  0  0  0  0  0
   47.4640    1.5401    7.3044 O   0  0  0  0  0  0  0  0  0  0  0  0
   47.4648    1.5320    7.3092 O   0  0  0  0  0  0  0  0  0  0  0  0
   47.4649    1.5316    7.3095 O   0  0  0  0  0  0  0  0  0  0  0  0
   47.4649    1.5306    7.3100 O   0  0  0  0  0  0  0  0  0  0  0  0
   47.4656    1.5224    7.3147 O   0  0  0  0  0  0  0  0  0  0  0  0
   47.0112    1.9423    6.5624 H   0  0  0  0  0  0  0  0  0  0  0  0
   47.1231    0.6215    7.3203 H   0  0  0  0  0  0  0  0  0  0  0  0
   47.0255    1.9560    6.5733 H   0  0  0  0  0  0  0  0  0  0  0  0
   47.1081    0.6177    7.3038 H   0  0  0  0  0  0  0  0  0  0  0  0
   47.0247    1.9553    6.5727 H   0  0  0  0  0  0  0  0  0  0  0  0
   47.1089    0.6178    7.3046 H   0  0  0  0  0  0  0  0  0  0  0  0
   47.1128    0.6188    7.3089 H   0  0  0  0  0  0  0  0  0  0  0  0
   47.0210    1.9518    6.5699 H   0  0  0  0  0  0  0  0  0  0  0  0
   47.0340    1.9639    6.5800 H   0  0  0  0  0  0  0  0  0  0  0  0
   47.0992    0.6157    7.2939 H   0  0  0  0  0  0  0  0  0  0  0  0
   47.1416    0.6269    7.3404 H   0  0  0  0  0  0  0  0  0  0  0  0
   46.9939    1.9248    6.5494 H   0  0  0  0  0  0  0  0  0  0  0  0
   47.1293    0.6232    7.3270 H   0  0  0  0  0  0  0  0  0  0  0  0
   47.0054    1.9365    6.5580 H   0  0  0  0  0  0  0  0  0  0  0  0
   47.0061    1.9371    6.5585 H   0  0  0  0  0  0  0  0  0  0  0  0
   47.1286    0.6230    7.3263 H   0  0  0  0  0  0  0  0  0  0  0  0
   47.0075    1.9386    6.5596 H   0  0  0  0  0  0  0  0  0  0  0  0
   47.1270    0.6226    7.3246 H   0  0  0  0  0  0  0  0  0  0  0  0
   47.1146    0.6193    7.3109 H   0  0  0  0  0  0  0  0  0  0  0  0
   47.0193    1.9501    6.5685 H   0  0  0  0  0  0  0  0  0  0  0  0
  2  3  2  0
  2  4  2  0
  2  5  1  0
  2  6  1  0
  1 18  1  0
  1 19  1  0
  9 20  1  0
  9 21  1  0
 10 22  1  0
 10 23  1  0
 11 24  1  0
 11 25  1  0
 12 26  1  0
 12 27  1  0
 13 28  1  0
 13 29  1  0
 14 30  1  0
 14 31  1  0
 15 32  1  0
 15 33  1  0
 16 34  1  0
 16 35  1  0
 17 36  1  0
 17 37  1  0
M  CHG  4   5  -1   6  -1   7   1   8   1
M  END
> <Uni-Dock RESULT> 
ENERGY=   -6.331  LOWER_BOUND=    0.400  UPPER_BOUND=    1.033
INTER + INTRA:          -6.331
INTER:                  -6.331
INTRA:                   0.000
UNBOUND:                 0.000

$$$$

     RDKit          3D

 37 24  0  0  0  0  0  0  0  0999 V2000
   42.2737    5.4839   11.7961 O   0  0  0  0  0  0  0  0  0  0  0  0
   42.6359    5.5688   11.9370 S   0  0  0  0  0  0  0  0  0  0  0  0
   41.3689    6.3019   11.7618 O   0  0  0  0  0  0  0  0  0  0  0  0
   42.4932    4.2047   11.3962 O   0  0  0  0  0  0  0  0  0  0  0  0
   43.7141    6.2720   11.2182 O   0  0  0  0  0  0  0  0  0  0  0  0
   42.9676    5.4965   13.3716 O   0  0  0  0  0  0  0  0  0  0  0  0
   42.6359    5.5688   11.9370 Na  0  0  0  0  0 15  0  0  0  0  0  0
   42.6359    5.5688   11.9370 Na  0  0  0  0  0 15  0  0  0  0  0  0
   42.2709    5.4797   11.8062 O   0  0  0  0  0  0  0  0  0  0  0  0
   42.2711    5.4799   11.8057 O   0  0  0  0  0  0  0  0  0  0  0  0
   42.2718    5.4810   11.8031 O   0  0  0  0  0  0  0  0  0  0  0  0
   42.2694    5.4773   11.8124 O   0  0  0  0  0  0  0  0  0  0  0  0
   42.2776    5.4891   11.7836 O   0  0  0  0  0  0  0  0  0  0  0  0
   42.2750    5.4856   11.7919 O   0  0  0  0  0  0  0  0  0  0  0  0
   42.2748    5.4854   11.7923 O   0  0  0  0  0  0  0  0  0  0  0  0
   42.2746    5.4850   11.7934 O   0  0  0  0  0  0  0  0  0  0  0  0
   42.2721    5.4815   11.8018 O   0  0  0  0  0  0  0  0  0  0  0  0
   43.0160    5.8929   11.3263 H   0  0  0  0  0  0  0  0  0  0  0  0
   42.6180    5.3296   12.6885 H   0  0  0  0  0  0  0  0  0  0  0  0
   42.9975    5.8902   11.3137 H   0  0  0  0  0  0  0  0  0  0  0  0
   42.6395    5.3365   12.6909 H   0  0  0  0  0  0  0  0  0  0  0  0
   42.9985    5.8903   11.3143 H   0  0  0  0  0  0  0  0  0  0  0  0
   42.6384    5.3361   12.6908 H   0  0  0  0  0  0  0  0  0  0  0  0
   42.6328    5.3343   12.6902 H   0  0  0  0  0  0  0  0  0  0  0  0
   43.0033    5.8910   11.3176 H   0  0  0  0  0  0  0  0  0  0  0  0
   42.9863    5.8884   11.3065 H   0  0  0  0  0  0  0  0  0  0  0  0
   42.6522    5.3406   12.6920 H   0  0  0  0  0  0  0  0  0  0  0  0
   42.5917    5.3214   12.6848 H   0  0  0  0  0  0  0  0  0  0  0  0
   43.0385    5.8958   11.3424 H   0  0  0  0  0  0  0  0  0  0  0  0
   42.6092    5.3268   12.6875 H   0  0  0  0  0  0  0  0  0  0  0  0
   43.0236    5.8939   11.3316 H   0  0  0  0  0  0  0  0  0  0  0  0
   43.0228    5.8938   11.3311 H   0  0  0  0  0  0  0  0  0  0  0  0
   42.6102    5.3271   12.6876 H   0  0  0  0  0  0  0  0  0  0  0  0
   43.0209    5.8935   11.3296 H   0  0  0  0  0  0  0  0  0  0  0  0
   42.6124    5.3278   12.6878 H   0  0  0  0  0  0  0  0  0  0  0  0
   42.6302    5.3335   12.6899 H   0  0  0  0  0  0  0  0  0  0  0  0
   43.0056    5.8914   11.3191 H   0  0  0  0  0  0  0  0  0  0  0  0
  2  3  2  0
  2  4  2  0
  2  5  1  0
  2  6  1  0
  1 18  1  0
  1 19  1  0
  9 20  1  0
  9 21  1  0
 10 22  1  0
 10 23  1  0
 11 24  1  0
 11 25  1  0
 12 26  1  0
 12 27  1  0
 13 28  1  0
 13 29  1  0
 14 30  1  0
 14 31  1  0
 15 32  1  0
 15 33  1  0
 16 34  1  0
 16 35  1  0
 17 36  1  0
 17 37  1  0
M  CHG  4   5  -1   6  -1   7   1   8   1
M  END
> <Uni-Dock RESULT> 
ENERGY=   -6.200  LOWER_BOUND=    7.259  UPPER_BOUND=    8.108
INTER + INTRA:          -6.200
INTER:                  -6.200
INTRA:                   0.000
UNBOUND:                 0.000

$$$$

     RDKit          3D

 37 24  0  0  0  0  0  0  0  0999 V2000
   42.5275    5.4025   12.4781 O   0  0  0  0  0  0  0  0  0  0  0  0
   42.7961    5.3226   12.1956 S   0  0  0  0  0  0  0  0  0  0  0  0
   42.6230    4.9811   13.6193 O   0  0  0  0  0  0  0  0  0  0  0  0
   41.7103    6.2252   11.7713 O   0  0  0  0  0  0  0  0  0  0  0  0
   44.0951    5.9933   12.0055 O   0  0  0  0  0  0  0  0  0  0  0  0
   42.7558    4.0910   11.3863 O   0  0  0  0  0  0  0  0  0  0  0  0
   42.7961    5.3226   12.1956 Na  0  0  0  0  0 15  0  0  0  0  0  0
   42.7961    5.3226   12.1956 Na  0  0  0  0  0 15  0  0  0  0  0  0
   42.5213    5.3938   12.4744 O   0  0  0  0  0  0  0  0  0  0  0  0
   42.5217    5.3943   12.4746 O   0  0  0  0  0  0  0  0  0  0  0  0
   42.5232    5.3965   12.4755 O   0  0  0  0  0  0  0  0  0  0  0  0
   42.5176    5.3886   12.4720 O   0  0  0  0  0  0  0  0  0  0  0  0
   42.5357    5.4132   12.4824 O   0  0  0  0  0  0  0  0  0  0  0  0
   42.5302    5.4060   12.4796 O   0  0  0  0  0  0  0  0  0  0  0  0
   42.5299    5.4057   12.4794 O   0  0  0  0  0  0  0  0  0  0  0  0
   42.5293    5.4047   12.4790 O   0  0  0  0  0  0  0  0  0  0  0  0
   42.5240    5.3976   12.4760 O   0  0  0  0  0  0  0  0  0  0  0  0
   43.3598    5.8650   12.2980 H   0  0  0  0  0  0  0  0  0  0  0  0
   42.5008    4.7005   11.8107 H   0  0  0  0  0  0  0  0  0  0  0  0
   43.3481    5.8735   12.3153 H   0  0  0  0  0  0  0  0  0  0  0  0
   42.5189    4.7007   11.7972 H   0  0  0  0  0  0  0  0  0  0  0  0
   43.3487    5.8731   12.3144 H   0  0  0  0  0  0  0  0  0  0  0  0
   42.5179    4.7006   11.7978 H   0  0  0  0  0  0  0  0  0  0  0  0
   42.5132    4.7006   11.8013 H   0  0  0  0  0  0  0  0  0  0  0  0
   43.3518    5.8709   12.3099 H   0  0  0  0  0  0  0  0  0  0  0  0
   43.3409    5.8783   12.3255 H   0  0  0  0  0  0  0  0  0  0  0  0
   42.5297    4.7010   11.7893 H   0  0  0  0  0  0  0  0  0  0  0  0
   42.4788    4.7009   11.8278 H   0  0  0  0  0  0  0  0  0  0  0  0
   43.3737    5.8539   12.2766 H   0  0  0  0  0  0  0  0  0  0  0  0
   42.4934    4.7005   11.8164 H   0  0  0  0  0  0  0  0  0  0  0  0
   43.3645    5.8613   12.2908 H   0  0  0  0  0  0  0  0  0  0  0  0
   43.3640    5.8617   12.2916 H   0  0  0  0  0  0  0  0  0  0  0  0
   42.4942    4.7005   11.8157 H   0  0  0  0  0  0  0  0  0  0  0  0
   43.3629    5.8627   12.2934 H   0  0  0  0  0  0  0  0  0  0  0  0
   42.4960    4.7005   11.8144 H   0  0  0  0  0  0  0  0  0  0  0  0
   42.5110    4.7006   11.8030 H   0  0  0  0  0  0  0  0  0  0  0  0
   43.3532    5.8699   12.3078 H   0  0  0  0  0  0  0  0  0  0  0  0
  2  3  2  0
  2  4  2  0
  2  5  1  0
  2  6  1  0
  1 18  1  0
  1 19  1  0
  9 20  1  0
  9 21  1  0
 10 22  1  0
 10 23  1  0
 11 24  1  0
 11 25  1  0
 12 26  1  0
 12 27  1  0
 13 28  1  0
 13 29  1  0
 14 30  1  0
 14 31  1  0
 15 32  1  0
 15 33  1  0
 16 34  1  0
 16 35  1  0
 17 36  1  0
 17 37  1  0
M  CHG  4   5  -1   6  -1   7   1   8   1
M  END
> <Uni-Dock RESULT> 
ENERGY=   -6.108  LOWER_BOUND=    7.060  UPPER_BOUND=    8.197
INTER + INTRA:          -6.108
INTER:                  -6.108
INTRA:                   0.000
UNBOUND:                 0.000

$$$$

     RDKit          3D

 37 24  0  0  0  0  0  0  0  0999 V2000
   39.9192   12.2912   15.8966 O   0  0  0  0  0  0  0  0  0  0  0  0
   39.8523   12.5470   15.5994 S   0  0  0  0  0  0  0  0  0  0  0  0
   41.0253   11.8387   16.1432 O   0  0  0  0  0  0  0  0  0  0  0  0
   38.6682   12.2410   16.4227 O   0  0  0  0  0  0  0  0  0  0  0  0
   40.1025   13.9997   15.6193 O   0  0  0  0  0  0  0  0  0  0  0  0
   39.6130   12.1086   14.2123 O   0  0  0  0  0  0  0  0  0  0  0  0
   39.8523   12.5470   15.5994 Na  0  0  0  0  0 15  0  0  0  0  0  0
   39.8523   12.5470   15.5994 Na  0  0  0  0  0 15  0  0  0  0  0  0
   39.9162   12.2827   15.8897 O   0  0  0  0  0  0  0  0  0  0  0  0
   39.9163   12.2832   15.8901 O   0  0  0  0  0  0  0  0  0  0  0  0
   39.9171   12.2853   15.8919 O   0  0  0  0  0  0  0  0  0  0  0  0
   39.9143   12.2777   15.8855 O   0  0  0  0  0  0  0  0  0  0  0  0
   39.9229   12.3021   15.9047 O   0  0  0  0  0  0  0  0  0  0  0  0
   39.9205   12.2948   15.8993 O   0  0  0  0  0  0  0  0  0  0  0  0
   39.9203   12.2944   15.8991 O   0  0  0  0  0  0  0  0  0  0  0  0
   39.9200   12.2935   15.8983 O   0  0  0  0  0  0  0  0  0  0  0  0
   39.9175   12.2863   15.8928 O   0  0  0  0  0  0  0  0  0  0  0  0
   40.0215   13.2548   15.9041 H   0  0  0  0  0  0  0  0  0  0  0  0
   39.6161   12.0950   14.9974 H   0  0  0  0  0  0  0  0  0  0  0  0
   40.0266   13.2448   15.9237 H   0  0  0  0  0  0  0  0  0  0  0  0
   39.6140   12.1136   14.9847 H   0  0  0  0  0  0  0  0  0  0  0  0
   40.0264   13.2454   15.9227 H   0  0  0  0  0  0  0  0  0  0  0  0
   39.6141   12.1126   14.9853 H   0  0  0  0  0  0  0  0  0  0  0  0
   39.6146   12.1078   14.9886 H   0  0  0  0  0  0  0  0  0  0  0  0
   40.0251   13.2479   15.9176 H   0  0  0  0  0  0  0  0  0  0  0  0
   40.0296   13.2385   15.9352 H   0  0  0  0  0  0  0  0  0  0  0  0
   39.6128   12.1248   14.9774 H   0  0  0  0  0  0  0  0  0  0  0  0
   39.6189   12.0726   15.0137 H   0  0  0  0  0  0  0  0  0  0  0  0
   40.0150   13.2663   15.8796 H   0  0  0  0  0  0  0  0  0  0  0  0
   39.6169   12.0874   15.0028 H   0  0  0  0  0  0  0  0  0  0  0  0
   40.0194   13.2587   15.8959 H   0  0  0  0  0  0  0  0  0  0  0  0
   40.0196   13.2583   15.8968 H   0  0  0  0  0  0  0  0  0  0  0  0
   39.6168   12.0883   15.0022 H   0  0  0  0  0  0  0  0  0  0  0  0
   40.0202   13.2573   15.8989 H   0  0  0  0  0  0  0  0  0  0  0  0
   39.6166   12.0902   15.0009 H   0  0  0  0  0  0  0  0  0  0  0  0
   39.6149   12.1056   14.9901 H   0  0  0  0  0  0  0  0  0  0  0  0
   40.0245   13.2492   15.9152 H   0  0  0  0  0  0  0  0  0  0  0  0
  2  3  2  0
  2  4  2  0
  2  5  1  0
  2  6  1  0
  1 18  1  0
  1 19  1  0
  9 20  1  0
  9 21  1  0
 10 22  1  0
 10 23  1  0
 11 24  1  0
 11 25  1  0
 12 26  1  0
 12 27  1  0
 13 28  1  0
 13 29  1  0
 14 30  1  0
 14 31  1  0
 15 32  1  0
 15 33  1  0
 16 34  1  0
 16 35  1  0
 17 36  1  0
 17 37  1  0
M  CHG  4   5  -1   6  -1   7   1   8   1
M  END
> <Uni-Dock RESULT> 
ENERGY=   -5.997  LOWER_BOUND=   15.278  UPPER_BOUND=   15.964
INTER + INTRA:          -5.997
INTER:                  -5.997
INTRA:                   0.000
UNBOUND:                 0.000

$$$$

     RDKit          3D

 37 24  0  0  0  0  0  0  0  0999 V2000
   46.7572    3.9944    6.9025 O   0  0  0  0  0  0  0  0  0  0  0  0
   46.6299    3.6308    7.0018 S   0  0  0  0  0  0  0  0  0  0  0  0
   47.0385    4.8456    7.7304 O   0  0  0  0  0  0  0  0  0  0  0  0
   46.7999    3.8460    5.5533 O   0  0  0  0  0  0  0  0  0  0  0  0
   47.4662    2.4953    7.4315 O   0  0  0  0  0  0  0  0  0  0  0  0
   45.2148    3.3363    7.2922 O   0  0  0  0  0  0  0  0  0  0  0  0
   46.6299    3.6308    7.0018 Na  0  0  0  0  0 15  0  0  0  0  0  0
   46.6299    3.6308    7.0018 Na  0  0  0  0  0 15  0  0  0  0  0  0
   46.7465    3.9977    6.9014 O   0  0  0  0  0  0  0  0  0  0  0  0
   46.7470    3.9975    6.9015 O   0  0  0  0  0  0  0  0  0  0  0  0
   46.7498    3.9967    6.9017 O   0  0  0  0  0  0  0  0  0  0  0  0
   46.7399    3.9995    6.9007 O   0  0  0  0  0  0  0  0  0  0  0  0
   46.7705    3.9899    6.9041 O   0  0  0  0  0  0  0  0  0  0  0  0
   46.7617    3.9929    6.9031 O   0  0  0  0  0  0  0  0  0  0  0  0
   46.7612    3.9931    6.9030 O   0  0  0  0  0  0  0  0  0  0  0  0
   46.7600    3.9934    6.9029 O   0  0  0  0  0  0  0  0  0  0  0  0
   46.7512    3.9963    6.9019 O   0  0  0  0  0  0  0  0  0  0  0  0
   47.2892    3.2178    7.1325 H   0  0  0  0  0  0  0  0  0  0  0  0
   45.8431    3.6803    6.9704 H   0  0  0  0  0  0  0  0  0  0  0  0
   47.3014    3.2362    7.1277 H   0  0  0  0  0  0  0  0  0  0  0  0
   45.8418    3.6585    6.9765 H   0  0  0  0  0  0  0  0  0  0  0  0
   47.3008    3.2352    7.1279 H   0  0  0  0  0  0  0  0  0  0  0  0
   45.8418    3.6597    6.9762 H   0  0  0  0  0  0  0  0  0  0  0  0
   45.8421    3.6653    6.9746 H   0  0  0  0  0  0  0  0  0  0  0  0
   47.2976    3.2304    7.1292 H   0  0  0  0  0  0  0  0  0  0  0  0
   47.3083    3.2473    7.1247 H   0  0  0  0  0  0  0  0  0  0  0  0
   45.8413    3.6456    6.9801 H   0  0  0  0  0  0  0  0  0  0  0  0
   45.8455    3.7070    6.9630 H   0  0  0  0  0  0  0  0  0  0  0  0
   47.2736    3.1955    7.1385 H   0  0  0  0  0  0  0  0  0  0  0  0
   45.8438    3.6892    6.9679 H   0  0  0  0  0  0  0  0  0  0  0  0
   47.2840    3.2103    7.1345 H   0  0  0  0  0  0  0  0  0  0  0  0
   47.2846    3.2111    7.1343 H   0  0  0  0  0  0  0  0  0  0  0  0
   45.8437    3.6882    6.9682 H   0  0  0  0  0  0  0  0  0  0  0  0
   47.2860    3.2130    7.1338 H   0  0  0  0  0  0  0  0  0  0  0  0
   45.8436    3.6860    6.9688 H   0  0  0  0  0  0  0  0  0  0  0  0
   45.8423    3.6679    6.9739 H   0  0  0  0  0  0  0  0  0  0  0  0
   47.2962    3.2282    7.1298 H   0  0  0  0  0  0  0  0  0  0  0  0
  2  3  2  0
  2  4  2  0
  2  5  1  0
  2  6  1  0
  1 18  1  0
  1 19  1  0
  9 20  1  0
  9 21  1  0
 10 22  1  0
 10 23  1  0
 11 24  1  0
 11 25  1  0
 12 26  1  0
 12 27  1  0
 13 28  1  0
 13 29  1  0
 14 30  1  0
 14 31  1  0
 15 32  1  0
 15 33  1  0
 16 34  1  0
 16 35  1  0
 17 36  1  0
 17 37  1  0
M  CHG  4   5  -1   6  -1   7   1   8   1
M  END
> <Uni-Dock RESULT> 
ENERGY=   -5.910  LOWER_BOUND=    2.424  UPPER_BOUND=    2.983
INTER + INTRA:          -5.910
INTER:                  -5.910
INTRA:                   0.000
UNBOUND:                 0.000

$$$$

     RDKit          3D

 37 24  0  0  0  0  0  0  0  0999 V2000
   39.6721   12.3294   15.9758 O   0  0  0  0  0  0  0  0  0  0  0  0
   39.7177   12.5524   15.6494 S   0  0  0  0  0  0  0  0  0  0  0  0
   38.5944   12.1771   16.5274 O   0  0  0  0  0  0  0  0  0  0  0  0
   40.9436   11.8691   16.1007 O   0  0  0  0  0  0  0  0  0  0  0  0
   39.4135   12.1516   14.2637 O   0  0  0  0  0  0  0  0  0  0  0  0
   39.9193   14.0117   15.7059 O   0  0  0  0  0  0  0  0  0  0  0  0
   39.7177   12.5524   15.6494 Na  0  0  0  0  0 15  0  0  0  0  0  0
   39.7177   12.5524   15.6494 Na  0  0  0  0  0 15  0  0  0  0  0  0
   39.6752   12.3383   15.9820 O   0  0  0  0  0  0  0  0  0  0  0  0
   39.6750   12.3379   15.9817 O   0  0  0  0  0  0  0  0  0  0  0  0
   39.6742   12.3355   15.9801 O   0  0  0  0  0  0  0  0  0  0  0  0
   39.6771   12.3437   15.9857 O   0  0  0  0  0  0  0  0  0  0  0  0
   39.6683   12.3186   15.9675 O   0  0  0  0  0  0  0  0  0  0  0  0
   39.6708   12.3258   15.9730 O   0  0  0  0  0  0  0  0  0  0  0  0
   39.6710   12.3262   15.9733 O   0  0  0  0  0  0  0  0  0  0  0  0
   39.6713   12.3271   15.9740 O   0  0  0  0  0  0  0  0  0  0  0  0
   39.6738   12.3344   15.9793 O   0  0  0  0  0  0  0  0  0  0  0  0
   39.5337   12.0709   15.0521 H   0  0  0  0  0  0  0  0  0  0  0  0
   39.9473   13.2568   15.9204 H   0  0  0  0  0  0  0  0  0  0  0  0
   39.5297   12.0544   15.0670 H   0  0  0  0  0  0  0  0  0  0  0  0
   39.9482   13.2644   15.8991 H   0  0  0  0  0  0  0  0  0  0  0  0
   39.5299   12.0552   15.0662 H   0  0  0  0  0  0  0  0  0  0  0  0
   39.9481   13.2640   15.9002 H   0  0  0  0  0  0  0  0  0  0  0  0
   39.9479   13.2621   15.9058 H   0  0  0  0  0  0  0  0  0  0  0  0
   39.5310   12.0595   15.0624 H   0  0  0  0  0  0  0  0  0  0  0  0
   39.5274   12.0448   15.0762 H   0  0  0  0  0  0  0  0  0  0  0  0
   39.9486   13.2686   15.8864 H   0  0  0  0  0  0  0  0  0  0  0  0
   39.9460   13.2468   15.9464 H   0  0  0  0  0  0  0  0  0  0  0  0
   39.5388   12.0917   15.0344 H   0  0  0  0  0  0  0  0  0  0  0  0
   39.9469   13.2536   15.9291 H   0  0  0  0  0  0  0  0  0  0  0  0
   39.5354   12.0778   15.0461 H   0  0  0  0  0  0  0  0  0  0  0  0
   39.5352   12.0771   15.0468 H   0  0  0  0  0  0  0  0  0  0  0  0
   39.9469   13.2540   15.9282 H   0  0  0  0  0  0  0  0  0  0  0  0
   39.5348   12.0753   15.0483 H   0  0  0  0  0  0  0  0  0  0  0  0
   39.9470   13.2548   15.9260 H   0  0  0  0  0  0  0  0  0  0  0  0
   39.9478   13.2612   15.9083 H   0  0  0  0  0  0  0  0  0  0  0  0
   39.5314   12.0615   15.0605 H   0  0  0  0  0  0  0  0  0  0  0  0
  2  3  2  0
  2  4  2  0
  2  5  1  0
  2  6  1  0
  1 18  1  0
  1 19  1  0
  9 20  1  0
  9 21  1  0
 10 22  1  0
 10 23  1  0
 11 24  1  0
 11 25  1  0
 12 26  1  0
 12 27  1  0
 13 28  1  0
 13 29  1  0
 14 30  1  0
 14 31  1  0
 15 32  1  0
 15 33  1  0
 16 34  1  0
 16 35  1  0
 17 36  1  0
 17 37  1  0
M  CHG  4   5  -1   6  -1   7   1   8   1
M  END
> <Uni-Dock RESULT> 
ENERGY=   -5.828  LOWER_BOUND=   15.419  UPPER_BOUND=   16.140
INTER + INTRA:          -5.828
INTER:                  -5.828
INTRA:                   0.000
UNBOUND:                 0.000

$$$$

     RDKit          3D

 37 24  0  0  0  0  0  0  0  0999 V2000
   44.2945    4.1144    8.5576 O   0  0  0  0  0  0  0  0  0  0  0  0
   44.6291    4.0660    8.7674 S   0  0  0  0  0  0  0  0  0  0  0  0
   44.1393    3.6440    7.4424 O   0  0  0  0  0  0  0  0  0  0  0  0
   43.5647    4.8026    9.4730 O   0  0  0  0  0  0  0  0  0  0  0  0
   45.0078    2.8772    9.5528 O   0  0  0  0  0  0  0  0  0  0  0  0
   45.8046    4.9401    8.6012 O   0  0  0  0  0  0  0  0  0  0  0  0
   44.6291    4.0660    8.7674 Na  0  0  0  0  0 15  0  0  0  0  0  0
   44.6291    4.0660    8.7674 Na  0  0  0  0  0 15  0  0  0  0  0  0
   44.2985    4.1243    8.5539 O   0  0  0  0  0  0  0  0  0  0  0  0
   44.2983    4.1238    8.5541 O   0  0  0  0  0  0  0  0  0  0  0  0
   44.2972    4.1212    8.5551 O   0  0  0  0  0  0  0  0  0  0  0  0
   44.3010    4.1303    8.5518 O   0  0  0  0  0  0  0  0  0  0  0  0
   44.2901    4.1019    8.5624 O   0  0  0  0  0  0  0  0  0  0  0  0
   44.2930    4.1102    8.5592 O   0  0  0  0  0  0  0  0  0  0  0  0
   44.2932    4.1106    8.5590 O   0  0  0  0  0  0  0  0  0  0  0  0
   44.2936    4.1117    8.5586 O   0  0  0  0  0  0  0  0  0  0  0  0
   44.2967    4.1200    8.5555 O   0  0  0  0  0  0  0  0  0  0  0  0
   44.5402    3.3687    9.1257 H   0  0  0  0  0  0  0  0  0  0  0  0
   45.0525    4.7148    8.6188 H   0  0  0  0  0  0  0  0  0  0  0  0
   44.5200    3.3666    9.1160 H   0  0  0  0  0  0  0  0  0  0  0  0
   45.0688    4.7069    8.6323 H   0  0  0  0  0  0  0  0  0  0  0  0
   44.5210    3.3667    9.1165 H   0  0  0  0  0  0  0  0  0  0  0  0
   45.0680    4.7074    8.6316 H   0  0  0  0  0  0  0  0  0  0  0  0
   45.0638    4.7094    8.6281 H   0  0  0  0  0  0  0  0  0  0  0  0
   44.5263    3.3673    9.1190 H   0  0  0  0  0  0  0  0  0  0  0  0
   44.5080    3.3657    9.1100 H   0  0  0  0  0  0  0  0  0  0  0  0
   45.0784    4.7020    8.6403 H   0  0  0  0  0  0  0  0  0  0  0  0
   45.0320    4.7240    8.6023 H   0  0  0  0  0  0  0  0  0  0  0  0
   44.5653    3.3721    9.1374 H   0  0  0  0  0  0  0  0  0  0  0  0
   45.0457    4.7180    8.6132 H   0  0  0  0  0  0  0  0  0  0  0  0
   44.5486    3.3698    9.1297 H   0  0  0  0  0  0  0  0  0  0  0  0
   44.5477    3.3697    9.1292 H   0  0  0  0  0  0  0  0  0  0  0  0
   45.0465    4.7177    8.6139 H   0  0  0  0  0  0  0  0  0  0  0  0
   44.5455    3.3694    9.1283 H   0  0  0  0  0  0  0  0  0  0  0  0
   45.0482    4.7169    8.6152 H   0  0  0  0  0  0  0  0  0  0  0  0
   45.0618    4.7104    8.6264 H   0  0  0  0  0  0  0  0  0  0  0  0
   44.5287    3.3675    9.1202 H   0  0  0  0  0  0  0  0  0  0  0  0
  2  3  2  0
  2  4  2  0
  2  5  1  0
  2  6  1  0
  1 18  1  0
  1 19  1  0
  9 20  1  0
  9 21  1  0
 10 22  1  0
 10 23  1  0
 11 24  1  0
 11 25  1  0
 12 26  1  0
 12 27  1  0
 13 28  1  0
 13 29  1  0
 14 30  1  0
 14 31  1  0
 15 32  1  0
 15 33  1  0
 16 34  1  0
 16 35  1  0
 17 36  1  0
 17 37  1  0
M  CHG  4   5  -1   6  -1   7   1   8   1
M  END
> <Uni-Dock RESULT> 
ENERGY=   -5.510  LOWER_BOUND=    3.818  UPPER_BOUND=    4.510
INTER + INTRA:          -5.510
INTER:                  -5.510
INTRA:                   0.000
UNBOUND:                 0.000

$$$$

     RDKit          3D

 37 24  0  0  0  0  0  0  0  0999 V2000
   44.2696    4.1580    8.6705 O   0  0  0  0  0  0  0  0  0  0  0  0
   44.6463    4.0670    8.7605 S   0  0  0  0  0  0  0  0  0  0  0  0
   43.5526    4.8124    9.4098 O   0  0  0  0  0  0  0  0  0  0  0  0
   44.2061    3.6076    7.4306 O   0  0  0  0  0  0  0  0  0  0  0  0
   45.8204    4.9463    8.6129 O   0  0  0  0  0  0  0  0  0  0  0  0
   45.0062    2.9016    9.5887 O   0  0  0  0  0  0  0  0  0  0  0  0
   44.6463    4.0670    8.7605 Na  0  0  0  0  0 15  0  0  0  0  0  0
   44.6463    4.0670    8.7605 Na  0  0  0  0  0 15  0  0  0  0  0  0
   44.2664    4.1480    8.6746 O   0  0  0  0  0  0  0  0  0  0  0  0
   44.2666    4.1485    8.6744 O   0  0  0  0  0  0  0  0  0  0  0  0
   44.2674    4.1511    8.6733 O   0  0  0  0  0  0  0  0  0  0  0  0
   44.2646    4.1419    8.6771 O   0  0  0  0  0  0  0  0  0  0  0  0
   44.2741    4.1704    8.6655 O   0  0  0  0  0  0  0  0  0  0  0  0
   44.2711    4.1621    8.6688 O   0  0  0  0  0  0  0  0  0  0  0  0
   44.2709    4.1617    8.6690 O   0  0  0  0  0  0  0  0  0  0  0  0
   44.2706    4.1606    8.6694 O   0  0  0  0  0  0  0  0  0  0  0  0
   44.2677    4.1523    8.6728 O   0  0  0  0  0  0  0  0  0  0  0  0
   45.0634    4.6958    8.5301 H   0  0  0  0  0  0  0  0  0  0  0  0
   44.6059    3.3472    9.0809 H   0  0  0  0  0  0  0  0  0  0  0  0
   45.0443    4.7056    8.5232 H   0  0  0  0  0  0  0  0  0  0  0  0
   44.6283    3.3475    9.0836 H   0  0  0  0  0  0  0  0  0  0  0  0
   45.0453    4.7051    8.5236 H   0  0  0  0  0  0  0  0  0  0  0  0
   44.6272    3.3475    9.0835 H   0  0  0  0  0  0  0  0  0  0  0  0
   44.6213    3.3473    9.0828 H   0  0  0  0  0  0  0  0  0  0  0  0
   45.0502    4.7026    8.5254 H   0  0  0  0  0  0  0  0  0  0  0  0
   45.0327    4.7112    8.5192 H   0  0  0  0  0  0  0  0  0  0  0  0
   44.6416    3.3480    9.0852 H   0  0  0  0  0  0  0  0  0  0  0  0
   44.5783    3.3475    9.0771 H   0  0  0  0  0  0  0  0  0  0  0  0
   45.0866    4.6831    8.5389 H   0  0  0  0  0  0  0  0  0  0  0  0
   44.5966    3.3472    9.0797 H   0  0  0  0  0  0  0  0  0  0  0  0
   45.0712    4.6916    8.5330 H   0  0  0  0  0  0  0  0  0  0  0  0
   45.0703    4.6921    8.5327 H   0  0  0  0  0  0  0  0  0  0  0  0
   44.5977    3.3472    9.0798 H   0  0  0  0  0  0  0  0  0  0  0  0
   45.0684    4.6932    8.5320 H   0  0  0  0  0  0  0  0  0  0  0  0
   44.6000    3.3472    9.0801 H   0  0  0  0  0  0  0  0  0  0  0  0
   44.6186    3.3473    9.0825 H   0  0  0  0  0  0  0  0  0  0  0  0
   45.0526    4.7015    8.5262 H   0  0  0  0  0  0  0  0  0  0  0  0
  2  3  2  0
  2  4  2  0
  2  5  1  0
  2  6  1  0
  1 18  1  0
  1 19  1  0
  9 20  1  0
  9 21  1  0
 10 22  1  0
 10 23  1  0
 11 24  1  0
 11 25  1  0
 12 26  1  0
 12 27  1  0
 13 28  1  0
 13 29  1  0
 14 30  1  0
 14 31  1  0
 15 32  1  0
 15 33  1  0
 16 34  1  0
 16 35  1  0
 17 36  1  0
 17 37  1  0
M  CHG  4   5  -1   6  -1   7   1   8   1
M  END
> <Uni-Dock RESULT> 
ENERGY=   -5.435  LOWER_BOUND=    3.838  UPPER_BOUND=    4.563
INTER + INTRA:          -5.435
INTER:                  -5.435
INTRA:                   0.000
UNBOUND:                 0.000

$$$$
