
     RDKit          3D

 37 24  0  0  0  0  0  0  0  0999 V2000
   47.3762    0.9763    7.2859 O   0  0  0  0  0  0  0  0  0  0  0  0
   47.0826    1.2423    7.2491 S   0  0  0  0  0  0  0  0  0  0  0  0
   46.3984    1.9594    8.3404 O   0  0  0  0  0  0  0  0  0  0  0  0
   46.4701    1.6101    5.9595 O   0  0  0  0  0  0  0  0  0  0  0  0
   48.5100    1.6107    7.2380 O   0  0  0  0  0  0  0  0  0  0  0  0
   46.9519   -0.2112    7.4583 O   0  0  0  0  0  0  0  0  0  0  0  0
   47.0826    1.2423    7.2491 Na  0  0  0  0  0 15  0  0  0  0  0  0
   47.0826    1.2423    7.2491 Na  0  0  0  0  0 15  0  0  0  0  0  0
   47.3758    0.9759    7.2860 O   0  0  0  0  0  0  0  0  0  0  0  0
   47.3758    0.9760    7.2860 O   0  0  0  0  0  0  0  0  0  0  0  0
   47.3762    0.9763    7.2859 O   0  0  0  0  0  0  0  0  0  0  0  0
   47.3762    0.9763    7.2859 O   0  0  0  0  0  0  0  0  0  0  0  0
   47.3762    0.9763    7.2859 O   0  0  0  0  0  0  0  0  0  0  0  0
   47.3758    0.9760    7.2860 O   0  0  0  0  0  0  0  0  0  0  0  0
   47.3758    0.9759    7.2860 O   0  0  0  0  0  0  0  0  0  0  0  0
   47.3758    0.9759    7.2860 O   0  0  0  0  0  0  0  0  0  0  0  0
   47.3760    0.9762    7.2859 O   0  0  0  0  0  0  0  0  0  0  0  0
   46.4219    0.8113    7.2535 H   0  0  0  0  0  0  0  0  0  0  0  0
   47.4500    1.9393    7.2077 H   0  0  0  0  0  0  0  0  0  0  0  0
   46.4212    0.8122    7.2534 H   0  0  0  0  0  0  0  0  0  0  0  0
   47.4509    1.9388    7.2078 H   0  0  0  0  0  0  0  0  0  0  0  0
   46.4214    0.8120    7.2534 H   0  0  0  0  0  0  0  0  0  0  0  0
   47.4507    1.9389    7.2078 H   0  0  0  0  0  0  0  0  0  0  0  0
   46.4219    0.8112    7.2535 H   0  0  0  0  0  0  0  0  0  0  0  0
   47.4499    1.9393    7.2077 H   0  0  0  0  0  0  0  0  0  0  0  0
   47.4500    1.9393    7.2077 H   0  0  0  0  0  0  0  0  0  0  0  0
   46.4219    0.8113    7.2535 H   0  0  0  0  0  0  0  0  0  0  0  0
   47.4500    1.9393    7.2077 H   0  0  0  0  0  0  0  0  0  0  0  0
   46.4219    0.8113    7.2535 H   0  0  0  0  0  0  0  0  0  0  0  0
   46.4213    0.8121    7.2534 H   0  0  0  0  0  0  0  0  0  0  0  0
   47.4508    1.9388    7.2078 H   0  0  0  0  0  0  0  0  0  0  0  0
   46.4213    0.8121    7.2534 H   0  0  0  0  0  0  0  0  0  0  0  0
   47.4509    1.9388    7.2078 H   0  0  0  0  0  0  0  0  0  0  0  0
   47.4510    1.9388    7.2078 H   0  0  0  0  0  0  0  0  0  0  0  0
   46.4212    0.8122    7.2534 H   0  0  0  0  0  0  0  0  0  0  0  0
   47.4502    1.9392    7.2077 H   0  0  0  0  0  0  0  0  0  0  0  0
   46.4216    0.8115    7.2535 H   0  0  0  0  0  0  0  0  0  0  0  0
  2  3  2  0
  2  4  2  0
  2  5  1  0
  2  6  1  0
  1 18  1  0
  1 19  1  0
  9 20  1  0
  9 21  1  0
 10 22  1  0
 10 23  1  0
 11 24  1  0
 11 25  1  0
 12 26  1  0
 12 27  1  0
 13 28  1  0
 13 29  1  0
 14 30  1  0
 14 31  1  0
 15 32  1  0
 15 33  1  0
 16 34  1  0
 16 35  1  0
 17 36  1  0
 17 37  1  0
M  CHG  4   5  -1   6  -1   7   1   8   1
M  END
> <Uni-Dock RESULT> 
ENERGY=   -6.938  LOWER_BOUND=    0.000  UPPER_BOUND=    0.000
INTER + INTRA:          -6.938
INTER:                  -6.938
INTRA:                   0.000
UNBOUND:                 0.000

$$$$

     RDKit          3D

 37 24  0  0  0  0  0  0  0  0999 V2000
   47.3999    1.0086    7.2807 O   0  0  0  0  0  0  0  0  0  0  0  0
   47.0892    1.2517    7.2297 S   0  0  0  0  0  0  0  0  0  0  0  0
   46.4731    1.6405    5.9480 O   0  0  0  0  0  0  0  0  0  0  0  0
   46.4139    1.9580    8.3336 O   0  0  0  0  0  0  0  0  0  0  0  0
   46.9509   -0.2036    7.4200 O   0  0  0  0  0  0  0  0  0  0  0  0
   48.5186    1.6121    7.2172 O   0  0  0  0  0  0  0  0  0  0  0  0
   47.0892    1.2517    7.2297 Na  0  0  0  0  0 15  0  0  0  0  0  0
   47.0892    1.2517    7.2297 Na  0  0  0  0  0 15  0  0  0  0  0  0
   47.4002    1.0091    7.2807 O   0  0  0  0  0  0  0  0  0  0  0  0
   47.4002    1.0090    7.2807 O   0  0  0  0  0  0  0  0  0  0  0  0
   47.3999    1.0086    7.2807 O   0  0  0  0  0  0  0  0  0  0  0  0
   47.3999    1.0086    7.2807 O   0  0  0  0  0  0  0  0  0  0  0  0
   47.3999    1.0086    7.2807 O   0  0  0  0  0  0  0  0  0  0  0  0
   47.4002    1.0090    7.2807 O   0  0  0  0  0  0  0  0  0  0  0  0
   47.4002    1.0091    7.2807 O   0  0  0  0  0  0  0  0  0  0  0  0
   47.4002    1.0091    7.2807 O   0  0  0  0  0  0  0  0  0  0  0  0
   47.4000    1.0088    7.2807 O   0  0  0  0  0  0  0  0  0  0  0  0
   47.4063    1.9724    7.1805 H   0  0  0  0  0  0  0  0  0  0  0  0
   46.4612    0.7741    7.2280 H   0  0  0  0  0  0  0  0  0  0  0  0
   47.4053    1.9729    7.1803 H   0  0  0  0  0  0  0  0  0  0  0  0
   46.4618    0.7732    7.2281 H   0  0  0  0  0  0  0  0  0  0  0  0
   47.4056    1.9727    7.1804 H   0  0  0  0  0  0  0  0  0  0  0  0
   46.4617    0.7734    7.2281 H   0  0  0  0  0  0  0  0  0  0  0  0
   47.4064    1.9724    7.1805 H   0  0  0  0  0  0  0  0  0  0  0  0
   46.4612    0.7741    7.2280 H   0  0  0  0  0  0  0  0  0  0  0  0
   46.4612    0.7741    7.2280 H   0  0  0  0  0  0  0  0  0  0  0  0
   47.4063    1.9724    7.1805 H   0  0  0  0  0  0  0  0  0  0  0  0
   46.4612    0.7741    7.2280 H   0  0  0  0  0  0  0  0  0  0  0  0
   47.4063    1.9724    7.1805 H   0  0  0  0  0  0  0  0  0  0  0  0
   47.4055    1.9728    7.1803 H   0  0  0  0  0  0  0  0  0  0  0  0
   46.4618    0.7734    7.2281 H   0  0  0  0  0  0  0  0  0  0  0  0
   47.4054    1.9729    7.1803 H   0  0  0  0  0  0  0  0  0  0  0  0
   46.4618    0.7732    7.2281 H   0  0  0  0  0  0  0  0  0  0  0  0
   46.4619    0.7732    7.2281 H   0  0  0  0  0  0  0  0  0  0  0  0
   47.4053    1.9729    7.1803 H   0  0  0  0  0  0  0  0  0  0  0  0
   46.4613    0.7739    7.2280 H   0  0  0  0  0  0  0  0  0  0  0  0
   47.4061    1.9726    7.1804 H   0  0  0  0  0  0  0  0  0  0  0  0
  2  3  2  0
  2  4  2  0
  2  5  1  0
  2  6  1  0
  1 18  1  0
  1 19  1  0
  9 20  1  0
  9 21  1  0
 10 22  1  0
 10 23  1  0
 11 24  1  0
 11 25  1  0
 12 26  1  0
 12 27  1  0
 13 28  1  0
 13 29  1  0
 14 30  1  0
 14 31  1  0
 15 32  1  0
 15 33  1  0
 16 34  1  0
 16 35  1  0
 17 36  1  0
 17 37  1  0
M  CHG  4   5  -1   6  -1   7   1   8   1
M  END
> <Uni-Dock RESULT> 
ENERGY=   -6.936  LOWER_BOUND=    0.036  UPPER_BOUND=    1.168
INTER + INTRA:          -6.936
INTER:                  -6.936
INTRA:                   0.000
UNBOUND:                 0.000

$$$$

     RDKit          3D

 37 24  0  0  0  0  0  0  0  0999 V2000
   48.0356    1.8977    5.9600 O   0  0  0  0  0  0  0  0  0  0  0  0
   47.8890    2.2418    6.0956 S   0  0  0  0  0  0  0  0  0  0  0  0
   46.4969    2.7139    5.9837 O   0  0  0  0  0  0  0  0  0  0  0  0
   48.7090    3.2796    6.7467 O   0  0  0  0  0  0  0  0  0  0  0  0
   47.9263    1.0083    6.9020 O   0  0  0  0  0  0  0  0  0  0  0  0
   48.4238    1.9655    4.7498 O   0  0  0  0  0  0  0  0  0  0  0  0
   47.8890    2.2418    6.0956 Na  0  0  0  0  0 15  0  0  0  0  0  0
   47.8890    2.2418    6.0956 Na  0  0  0  0  0 15  0  0  0  0  0  0
   48.0357    1.8980    5.9595 O   0  0  0  0  0  0  0  0  0  0  0  0
   48.0357    1.8980    5.9596 O   0  0  0  0  0  0  0  0  0  0  0  0
   48.0356    1.8977    5.9600 O   0  0  0  0  0  0  0  0  0  0  0  0
   48.0356    1.8977    5.9600 O   0  0  0  0  0  0  0  0  0  0  0  0
   48.0356    1.8977    5.9600 O   0  0  0  0  0  0  0  0  0  0  0  0
   48.0357    1.8980    5.9596 O   0  0  0  0  0  0  0  0  0  0  0  0
   48.0357    1.8980    5.9595 O   0  0  0  0  0  0  0  0  0  0  0  0
   48.0357    1.8980    5.9595 O   0  0  0  0  0  0  0  0  0  0  0  0
   48.0356    1.8978    5.9598 O   0  0  0  0  0  0  0  0  0  0  0  0
   48.0035    2.7531    5.5058 H   0  0  0  0  0  0  0  0  0  0  0  0
   47.6279    2.0745    6.8210 H   0  0  0  0  0  0  0  0  0  0  0  0
   48.0031    2.7539    5.5063 H   0  0  0  0  0  0  0  0  0  0  0  0
   47.6282    2.0735    6.8209 H   0  0  0  0  0  0  0  0  0  0  0  0
   48.0032    2.7537    5.5062 H   0  0  0  0  0  0  0  0  0  0  0  0
   47.6282    2.0737    6.8209 H   0  0  0  0  0  0  0  0  0  0  0  0
   48.0036    2.7530    5.5056 H   0  0  0  0  0  0  0  0  0  0  0  0
   47.6279    2.0746    6.8211 H   0  0  0  0  0  0  0  0  0  0  0  0
   47.6279    2.0745    6.8210 H   0  0  0  0  0  0  0  0  0  0  0  0
   48.0035    2.7531    5.5058 H   0  0  0  0  0  0  0  0  0  0  0  0
   47.6279    2.0745    6.8210 H   0  0  0  0  0  0  0  0  0  0  0  0
   48.0035    2.7531    5.5058 H   0  0  0  0  0  0  0  0  0  0  0  0
   48.0031    2.7538    5.5062 H   0  0  0  0  0  0  0  0  0  0  0  0
   47.6282    2.0737    6.8209 H   0  0  0  0  0  0  0  0  0  0  0  0
   48.0031    2.7539    5.5063 H   0  0  0  0  0  0  0  0  0  0  0  0
   47.6282    2.0735    6.8209 H   0  0  0  0  0  0  0  0  0  0  0  0
   47.6282    2.0734    6.8209 H   0  0  0  0  0  0  0  0  0  0  0  0
   48.0031    2.7539    5.5063 H   0  0  0  0  0  0  0  0  0  0  0  0
   47.6280    2.0743    6.8210 H   0  0  0  0  0  0  0  0  0  0  0  0
   48.0034    2.7533    5.5059 H   0  0  0  0  0  0  0  0  0  0  0  0
  2  3  2  0
  2  4  2  0
  2  5  1  0
  2  6  1  0
  1 18  1  0
  1 19  1  0
  9 20  1  0
  9 21  1  0
 10 22  1  0
 10 23  1  0
 11 24  1  0
 11 25  1  0
 12 26  1  0
 12 27  1  0
 13 28  1  0
 13 29  1  0
 14 30  1  0
 14 31  1  0
 15 32  1  0
 15 33  1  0
 16 34  1  0
 16 35  1  0
 17 36  1  0
 17 37  1  0
M  CHG  4   5  -1   6  -1   7   1   8   1
M  END
> <Uni-Dock RESULT> 
ENERGY=   -6.234  LOWER_BOUND=    1.505  UPPER_BOUND=    2.014
INTER + INTRA:          -6.234
INTER:                  -6.234
INTRA:                   0.000
UNBOUND:                 0.000

$$$$

     RDKit          3D

 37 24  0  0  0  0  0  0  0  0999 V2000
   47.4030    1.5397    7.3478 O   0  0  0  0  0  0  0  0  0  0  0  0
   47.1877    1.3444    7.0762 S   0  0  0  0  0  0  0  0  0  0  0  0
   46.9219   -0.1051    7.0356 O   0  0  0  0  0  0  0  0  0  0  0  0
   46.5780    1.9890    5.8989 O   0  0  0  0  0  0  0  0  0  0  0  0
   46.6077    1.9161    8.3050 O   0  0  0  0  0  0  0  0  0  0  0  0
   48.6434    1.5775    7.0653 O   0  0  0  0  0  0  0  0  0  0  0  0
   47.1877    1.3444    7.0762 Na  0  0  0  0  0 15  0  0  0  0  0  0
   47.1877    1.3444    7.0762 Na  0  0  0  0  0 15  0  0  0  0  0  0
   47.4035    1.5396    7.3475 O   0  0  0  0  0  0  0  0  0  0  0  0
   47.4034    1.5396    7.3476 O   0  0  0  0  0  0  0  0  0  0  0  0
   47.4030    1.5397    7.3478 O   0  0  0  0  0  0  0  0  0  0  0  0
   47.4030    1.5397    7.3478 O   0  0  0  0  0  0  0  0  0  0  0  0
   47.4030    1.5397    7.3478 O   0  0  0  0  0  0  0  0  0  0  0  0
   47.4034    1.5396    7.3476 O   0  0  0  0  0  0  0  0  0  0  0  0
   47.4035    1.5396    7.3475 O   0  0  0  0  0  0  0  0  0  0  0  0
   47.4035    1.5396    7.3475 O   0  0  0  0  0  0  0  0  0  0  0  0
   47.4032    1.5396    7.3477 O   0  0  0  0  0  0  0  0  0  0  0  0
   47.7026    1.1639    6.5064 H   0  0  0  0  0  0  0  0  0  0  0  0
   46.4575    1.3297    7.3745 H   0  0  0  0  0  0  0  0  0  0  0  0
   47.7019    1.1634    6.5058 H   0  0  0  0  0  0  0  0  0  0  0  0
   46.4578    1.3302    7.3753 H   0  0  0  0  0  0  0  0  0  0  0  0
   47.7020    1.1635    6.5060 H   0  0  0  0  0  0  0  0  0  0  0  0
   46.4577    1.3301    7.3751 H   0  0  0  0  0  0  0  0  0  0  0  0
   47.7028    1.1639    6.5064 H   0  0  0  0  0  0  0  0  0  0  0  0
   46.4574    1.3296    7.3744 H   0  0  0  0  0  0  0  0  0  0  0  0
   46.4575    1.3297    7.3745 H   0  0  0  0  0  0  0  0  0  0  0  0
   47.7026    1.1639    6.5064 H   0  0  0  0  0  0  0  0  0  0  0  0
   46.4575    1.3297    7.3745 H   0  0  0  0  0  0  0  0  0  0  0  0
   47.7026    1.1639    6.5064 H   0  0  0  0  0  0  0  0  0  0  0  0
   47.7020    1.1635    6.5059 H   0  0  0  0  0  0  0  0  0  0  0  0
   46.4578    1.3301    7.3752 H   0  0  0  0  0  0  0  0  0  0  0  0
   47.7019    1.1634    6.5059 H   0  0  0  0  0  0  0  0  0  0  0  0
   46.4578    1.3302    7.3753 H   0  0  0  0  0  0  0  0  0  0  0  0
   46.4578    1.3302    7.3754 H   0  0  0  0  0  0  0  0  0  0  0  0
   47.7019    1.1634    6.5058 H   0  0  0  0  0  0  0  0  0  0  0  0
   46.4575    1.3298    7.3746 H   0  0  0  0  0  0  0  0  0  0  0  0
   47.7025    1.1637    6.5062 H   0  0  0  0  0  0  0  0  0  0  0  0
  2  3  2  0
  2  4  2  0
  2  5  1  0
  2  6  1  0
  1 18  1  0
  1 19  1  0
  9 20  1  0
  9 21  1  0
 10 22  1  0
 10 23  1  0
 11 24  1  0
 11 25  1  0
 12 26  1  0
 12 27  1  0
 13 28  1  0
 13 29  1  0
 14 30  1  0
 14 31  1  0
 15 32  1  0
 15 33  1  0
 16 34  1  0
 16 35  1  0
 17 36  1  0
 17 37  1  0
M  CHG  4   5  -1   6  -1   7   1   8   1
M  END
> <Uni-Dock RESULT> 
ENERGY=   -6.192  LOWER_BOUND=    0.474  UPPER_BOUND=    1.107
INTER + INTRA:          -6.192
INTER:                  -6.192
INTRA:                   0.000
UNBOUND:                 0.000

$$$$

     RDKit          3D

 37 24  0  0  0  0  0  0  0  0999 V2000
   42.4666    5.4640   12.3689 O   0  0  0  0  0  0  0  0  0  0  0  0
   42.7689    5.3397   12.1421 S   0  0  0  0  0  0  0  0  0  0  0  0
   44.0444    6.0411   11.9087 O   0  0  0  0  0  0  0  0  0  0  0  0
   42.7369    4.0998   11.3453 O   0  0  0  0  0  0  0  0  0  0  0  0
   42.6455    5.0076   13.5731 O   0  0  0  0  0  0  0  0  0  0  0  0
   41.6488    6.2104   11.7413 O   0  0  0  0  0  0  0  0  0  0  0  0
   42.7689    5.3397   12.1421 Na  0  0  0  0  0 15  0  0  0  0  0  0
   42.7689    5.3397   12.1421 Na  0  0  0  0  0 15  0  0  0  0  0  0
   42.4664    5.4643   12.3684 O   0  0  0  0  0  0  0  0  0  0  0  0
   42.4664    5.4643   12.3685 O   0  0  0  0  0  0  0  0  0  0  0  0
   42.4666    5.4640   12.3689 O   0  0  0  0  0  0  0  0  0  0  0  0
   42.4666    5.4640   12.3689 O   0  0  0  0  0  0  0  0  0  0  0  0
   42.4666    5.4640   12.3689 O   0  0  0  0  0  0  0  0  0  0  0  0
   42.4664    5.4643   12.3685 O   0  0  0  0  0  0  0  0  0  0  0  0
   42.4664    5.4643   12.3684 O   0  0  0  0  0  0  0  0  0  0  0  0
   42.4664    5.4643   12.3684 O   0  0  0  0  0  0  0  0  0  0  0  0
   42.4665    5.4641   12.3687 O   0  0  0  0  0  0  0  0  0  0  0  0
   42.6024    5.6134   11.4212 H   0  0  0  0  0  0  0  0  0  0  0  0
   43.2377    4.9417   12.6364 H   0  0  0  0  0  0  0  0  0  0  0  0
   42.6033    5.6130   11.4207 H   0  0  0  0  0  0  0  0  0  0  0  0
   43.2370    4.9419   12.6372 H   0  0  0  0  0  0  0  0  0  0  0  0
   42.6031    5.6131   11.4209 H   0  0  0  0  0  0  0  0  0  0  0  0
   43.2371    4.9419   12.6370 H   0  0  0  0  0  0  0  0  0  0  0  0
   42.6023    5.6135   11.4211 H   0  0  0  0  0  0  0  0  0  0  0  0
   43.2377    4.9417   12.6363 H   0  0  0  0  0  0  0  0  0  0  0  0
   43.2377    4.9417   12.6364 H   0  0  0  0  0  0  0  0  0  0  0  0
   42.6024    5.6134   11.4212 H   0  0  0  0  0  0  0  0  0  0  0  0
   43.2377    4.9417   12.6364 H   0  0  0  0  0  0  0  0  0  0  0  0
   42.6024    5.6134   11.4212 H   0  0  0  0  0  0  0  0  0  0  0  0
   42.6032    5.6130   11.4208 H   0  0  0  0  0  0  0  0  0  0  0  0
   43.2371    4.9419   12.6370 H   0  0  0  0  0  0  0  0  0  0  0  0
   42.6033    5.6130   11.4207 H   0  0  0  0  0  0  0  0  0  0  0  0
   43.2370    4.9419   12.6372 H   0  0  0  0  0  0  0  0  0  0  0  0
   43.2369    4.9419   12.6372 H   0  0  0  0  0  0  0  0  0  0  0  0
   42.6033    5.6130   11.4207 H   0  0  0  0  0  0  0  0  0  0  0  0
   43.2375    4.9417   12.6366 H   0  0  0  0  0  0  0  0  0  0  0  0
   42.6027    5.6133   11.4210 H   0  0  0  0  0  0  0  0  0  0  0  0
  2  3  2  0
  2  4  2  0
  2  5  1  0
  2  6  1  0
  1 18  1  0
  1 19  1  0
  9 20  1  0
  9 21  1  0
 10 22  1  0
 10 23  1  0
 11 24  1  0
 11 25  1  0
 12 26  1  0
 12 27  1  0
 13 28  1  0
 13 29  1  0
 14 30  1  0
 14 31  1  0
 15 32  1  0
 15 33  1  0
 16 34  1  0
 16 35  1  0
 17 36  1  0
 17 37  1  0
M  CHG  4   5  -1   6  -1   7   1   8   1
M  END
> <Uni-Dock RESULT> 
ENERGY=   -6.139  LOWER_BOUND=    7.028  UPPER_BOUND=    8.177
INTER + INTRA:          -6.139
INTER:                  -6.139
INTRA:                   0.000
UNBOUND:                 0.000

$$$$

     RDKit          3D

 37 24  0  0  0  0  0  0  0  0999 V2000
   42.5016    5.4492   12.4242 O   0  0  0  0  0  0  0  0  0  0  0  0
   42.7837    5.3236   12.1734 S   0  0  0  0  0  0  0  0  0  0  0  0
   42.7595    4.0929   11.3621 O   0  0  0  0  0  0  0  0  0  0  0  0
   44.0665    6.0210   11.9700 O   0  0  0  0  0  0  0  0  0  0  0  0
   41.6750    6.2044   11.7632 O   0  0  0  0  0  0  0  0  0  0  0  0
   42.6338    4.9759   13.5982 O   0  0  0  0  0  0  0  0  0  0  0  0
   42.7837    5.3236   12.1734 Na  0  0  0  0  0 15  0  0  0  0  0  0
   42.7837    5.3236   12.1734 Na  0  0  0  0  0 15  0  0  0  0  0  0
   42.5019    5.4490   12.4246 O   0  0  0  0  0  0  0  0  0  0  0  0
   42.5018    5.4490   12.4245 O   0  0  0  0  0  0  0  0  0  0  0  0
   42.5016    5.4492   12.4242 O   0  0  0  0  0  0  0  0  0  0  0  0
   42.5016    5.4492   12.4242 O   0  0  0  0  0  0  0  0  0  0  0  0
   42.5016    5.4492   12.4242 O   0  0  0  0  0  0  0  0  0  0  0  0
   42.5018    5.4490   12.4245 O   0  0  0  0  0  0  0  0  0  0  0  0
   42.5019    5.4490   12.4246 O   0  0  0  0  0  0  0  0  0  0  0  0
   42.5019    5.4490   12.4246 O   0  0  0  0  0  0  0  0  0  0  0  0
   42.5017    5.4492   12.4243 O   0  0  0  0  0  0  0  0  0  0  0  0
   43.2736    4.8980   12.6220 H   0  0  0  0  0  0  0  0  0  0  0  0
   42.5758    5.6235   11.4739 H   0  0  0  0  0  0  0  0  0  0  0  0
   43.2743    4.8978   12.6211 H   0  0  0  0  0  0  0  0  0  0  0  0
   42.5749    5.6240   11.4743 H   0  0  0  0  0  0  0  0  0  0  0  0
   43.2741    4.8979   12.6213 H   0  0  0  0  0  0  0  0  0  0  0  0
   42.5751    5.6239   11.4743 H   0  0  0  0  0  0  0  0  0  0  0  0
   43.2736    4.8980   12.6221 H   0  0  0  0  0  0  0  0  0  0  0  0
   42.5758    5.6235   11.4738 H   0  0  0  0  0  0  0  0  0  0  0  0
   42.5758    5.6235   11.4739 H   0  0  0  0  0  0  0  0  0  0  0  0
   43.2736    4.8980   12.6220 H   0  0  0  0  0  0  0  0  0  0  0  0
   42.5758    5.6235   11.4739 H   0  0  0  0  0  0  0  0  0  0  0  0
   43.2736    4.8980   12.6220 H   0  0  0  0  0  0  0  0  0  0  0  0
   43.2742    4.8978   12.6213 H   0  0  0  0  0  0  0  0  0  0  0  0
   42.5750    5.6239   11.4743 H   0  0  0  0  0  0  0  0  0  0  0  0
   43.2742    4.8978   12.6212 H   0  0  0  0  0  0  0  0  0  0  0  0
   42.5749    5.6240   11.4743 H   0  0  0  0  0  0  0  0  0  0  0  0
   42.5748    5.6240   11.4744 H   0  0  0  0  0  0  0  0  0  0  0  0
   43.2743    4.8978   12.6211 H   0  0  0  0  0  0  0  0  0  0  0  0
   42.5756    5.6236   11.4740 H   0  0  0  0  0  0  0  0  0  0  0  0
   43.2738    4.8979   12.6218 H   0  0  0  0  0  0  0  0  0  0  0  0
  2  3  2  0
  2  4  2  0
  2  5  1  0
  2  6  1  0
  1 18  1  0
  1 19  1  0
  9 20  1  0
  9 21  1  0
 10 22  1  0
 10 23  1  0
 11 24  1  0
 11 25  1  0
 12 26  1  0
 12 27  1  0
 13 28  1  0
 13 29  1  0
 14 30  1  0
 14 31  1  0
 15 32  1  0
 15 33  1  0
 16 34  1  0
 16 35  1  0
 17 36  1  0
 17 37  1  0
M  CHG  4   5  -1   6  -1   7   1   8   1
M  END
> <Uni-Dock RESULT> 
ENERGY=   -6.117  LOWER_BOUND=    7.022  UPPER_BOUND=    8.188
INTER + INTRA:          -6.117
INTER:                  -6.117
INTRA:                   0.000
UNBOUND:                 0.000

$$$$

     RDKit          3D

 37 24  0  0  0  0  0  0  0  0999 V2000
   42.3095    5.4296   11.7797 O   0  0  0  0  0  0  0  0  0  0  0  0
   42.6401    5.5819   11.9401 S   0  0  0  0  0  0  0  0  0  0  0  0
   43.7454    6.2441   11.2238 O   0  0  0  0  0  0  0  0  0  0  0  0
   42.9635    5.5018   13.3762 O   0  0  0  0  0  0  0  0  0  0  0  0
   41.4009    6.3593   11.7580 O   0  0  0  0  0  0  0  0  0  0  0  0
   42.4508    4.2222   11.4025 O   0  0  0  0  0  0  0  0  0  0  0  0
   42.6401    5.5819   11.9401 Na  0  0  0  0  0 15  0  0  0  0  0  0
   42.6401    5.5819   11.9401 Na  0  0  0  0  0 15  0  0  0  0  0  0
   42.3098    5.4291   11.7796 O   0  0  0  0  0  0  0  0  0  0  0  0
   42.3097    5.4291   11.7796 O   0  0  0  0  0  0  0  0  0  0  0  0
   42.3095    5.4296   11.7797 O   0  0  0  0  0  0  0  0  0  0  0  0
   42.3095    5.4296   11.7797 O   0  0  0  0  0  0  0  0  0  0  0  0
   42.3095    5.4296   11.7797 O   0  0  0  0  0  0  0  0  0  0  0  0
   42.3097    5.4291   11.7796 O   0  0  0  0  0  0  0  0  0  0  0  0
   42.3098    5.4291   11.7796 O   0  0  0  0  0  0  0  0  0  0  0  0
   42.3098    5.4291   11.7796 O   0  0  0  0  0  0  0  0  0  0  0  0
   42.3096    5.4294   11.7796 O   0  0  0  0  0  0  0  0  0  0  0  0
   43.1480    4.9785   11.9596 H   0  0  0  0  0  0  0  0  0  0  0  0
   42.4627    6.3376   12.0812 H   0  0  0  0  0  0  0  0  0  0  0  0
   43.1489    4.9791   11.9601 H   0  0  0  0  0  0  0  0  0  0  0  0
   42.4618    6.3375   12.0808 H   0  0  0  0  0  0  0  0  0  0  0  0
   43.1486    4.9790   11.9599 H   0  0  0  0  0  0  0  0  0  0  0  0
   42.4620    6.3375   12.0809 H   0  0  0  0  0  0  0  0  0  0  0  0
   43.1480    4.9784   11.9596 H   0  0  0  0  0  0  0  0  0  0  0  0
   42.4628    6.3376   12.0812 H   0  0  0  0  0  0  0  0  0  0  0  0
   42.4627    6.3376   12.0812 H   0  0  0  0  0  0  0  0  0  0  0  0
   43.1480    4.9785   11.9596 H   0  0  0  0  0  0  0  0  0  0  0  0
   42.4627    6.3376   12.0812 H   0  0  0  0  0  0  0  0  0  0  0  0
   43.1480    4.9785   11.9596 H   0  0  0  0  0  0  0  0  0  0  0  0
   43.1487    4.9791   11.9600 H   0  0  0  0  0  0  0  0  0  0  0  0
   42.4619    6.3374   12.0808 H   0  0  0  0  0  0  0  0  0  0  0  0
   43.1488    4.9791   11.9600 H   0  0  0  0  0  0  0  0  0  0  0  0
   42.4618    6.3375   12.0808 H   0  0  0  0  0  0  0  0  0  0  0  0
   42.4617    6.3374   12.0807 H   0  0  0  0  0  0  0  0  0  0  0  0
   43.1489    4.9791   11.9601 H   0  0  0  0  0  0  0  0  0  0  0  0
   42.4625    6.3376   12.0811 H   0  0  0  0  0  0  0  0  0  0  0  0
   43.1483    4.9787   11.9597 H   0  0  0  0  0  0  0  0  0  0  0  0
  2  3  2  0
  2  4  2  0
  2  5  1  0
  2  6  1  0
  1 18  1  0
  1 19  1  0
  9 20  1  0
  9 21  1  0
 10 22  1  0
 10 23  1  0
 11 24  1  0
 11 25  1  0
 12 26  1  0
 12 27  1  0
 13 28  1  0
 13 29  1  0
 14 30  1  0
 14 31  1  0
 15 32  1  0
 15 33  1  0
 16 34  1  0
 16 35  1  0
 17 36  1  0
 17 37  1  0
M  CHG  4   5  -1   6  -1   7   1   8   1
M  END
> <Uni-Dock RESULT> 
ENERGY=   -6.078  LOWER_BOUND=    7.265  UPPER_BOUND=    8.058
INTER + INTRA:          -6.078
INTER:                  -6.078
INTRA:                   0.000
UNBOUND:                 0.000

$$$$

     RDKit          3D

 37 24  0  0  0  0  0  0  0  0999 V2000
   39.7701   12.3105   15.9421 O   0  0  0  0  0  0  0  0  0  0  0  0
   39.7721   12.5584   15.6310 S   0  0  0  0  0  0  0  0  0  0  0  0
   39.9974   14.0150   15.6641 O   0  0  0  0  0  0  0  0  0  0  0  0
   39.4840   12.1371   14.2480 O   0  0  0  0  0  0  0  0  0  0  0  0
   40.9786   11.8634   16.1152 O   0  0  0  0  0  0  0  0  0  0  0  0
   38.6282   12.2182   16.4967 O   0  0  0  0  0  0  0  0  0  0  0  0
   39.7721   12.5584   15.6310 Na  0  0  0  0  0 15  0  0  0  0  0  0
   39.7721   12.5584   15.6310 Na  0  0  0  0  0 15  0  0  0  0  0  0
   39.7695   12.3105   15.9421 O   0  0  0  0  0  0  0  0  0  0  0  0
   39.7696   12.3105   15.9421 O   0  0  0  0  0  0  0  0  0  0  0  0
   39.7701   12.3105   15.9421 O   0  0  0  0  0  0  0  0  0  0  0  0
   39.7701   12.3105   15.9421 O   0  0  0  0  0  0  0  0  0  0  0  0
   39.7701   12.3105   15.9421 O   0  0  0  0  0  0  0  0  0  0  0  0
   39.7696   12.3105   15.9421 O   0  0  0  0  0  0  0  0  0  0  0  0
   39.7695   12.3105   15.9421 O   0  0  0  0  0  0  0  0  0  0  0  0
   39.7695   12.3105   15.9421 O   0  0  0  0  0  0  0  0  0  0  0  0
   39.7699   12.3105   15.9421 O   0  0  0  0  0  0  0  0  0  0  0  0
   39.0191   12.7783   15.5470 H   0  0  0  0  0  0  0  0  0  0  0  0
   40.5271   12.5864   15.4040 H   0  0  0  0  0  0  0  0  0  0  0  0
   39.0193   12.7790   15.5461 H   0  0  0  0  0  0  0  0  0  0  0  0
   40.5274   12.5858   15.4047 H   0  0  0  0  0  0  0  0  0  0  0  0
   39.0193   12.7788   15.5463 H   0  0  0  0  0  0  0  0  0  0  0  0
   40.5273   12.5859   15.4046 H   0  0  0  0  0  0  0  0  0  0  0  0
   39.0190   12.7783   15.5471 H   0  0  0  0  0  0  0  0  0  0  0  0
   40.5271   12.5865   15.4039 H   0  0  0  0  0  0  0  0  0  0  0  0
   40.5271   12.5864   15.4040 H   0  0  0  0  0  0  0  0  0  0  0  0
   39.0191   12.7783   15.5470 H   0  0  0  0  0  0  0  0  0  0  0  0
   40.5271   12.5864   15.4040 H   0  0  0  0  0  0  0  0  0  0  0  0
   39.0191   12.7783   15.5470 H   0  0  0  0  0  0  0  0  0  0  0  0
   39.0193   12.7789   15.5463 H   0  0  0  0  0  0  0  0  0  0  0  0
   40.5273   12.5858   15.4047 H   0  0  0  0  0  0  0  0  0  0  0  0
   39.0193   12.7789   15.5462 H   0  0  0  0  0  0  0  0  0  0  0  0
   40.5274   12.5858   15.4047 H   0  0  0  0  0  0  0  0  0  0  0  0
   40.5274   12.5857   15.4048 H   0  0  0  0  0  0  0  0  0  0  0  0
   39.0193   12.7790   15.5461 H   0  0  0  0  0  0  0  0  0  0  0  0
   40.5272   12.5863   15.4041 H   0  0  0  0  0  0  0  0  0  0  0  0
   39.0191   12.7785   15.5468 H   0  0  0  0  0  0  0  0  0  0  0  0
  2  3  2  0
  2  4  2  0
  2  5  1  0
  2  6  1  0
  1 18  1  0
  1 19  1  0
  9 20  1  0
  9 21  1  0
 10 22  1  0
 10 23  1  0
 11 24  1  0
 11 25  1  0
 12 26  1  0
 12 27  1  0
 13 28  1  0
 13 29  1  0
 14 30  1  0
 14 31  1  0
 15 32  1  0
 15 33  1  0
 16 34  1  0
 16 35  1  0
 17 36  1  0
 17 37  1  0
M  CHG  4   5  -1   6  -1   7   1   8   1
M  END
> <Uni-Dock RESULT> 
ENERGY=   -5.900  LOWER_BOUND=   15.374  UPPER_BOUND=   16.055
INTER + INTRA:          -5.900
INTER:                  -5.900
INTRA:                   0.000
UNBOUND:                 0.000

$$$$

     RDKit          3D

 37 24  0  0  0  0  0  0  0  0999 V2000
   46.7363    3.9709    6.8365 O   0  0  0  0  0  0  0  0  0  0  0  0
   46.6137    3.6372    7.0150 S   0  0  0  0  0  0  0  0  0  0  0  0
   47.4533    2.5003    7.4345 O   0  0  0  0  0  0  0  0  0  0  0  0
   45.1993    3.3350    7.3004 O   0  0  0  0  0  0  0  0  0  0  0  0
   47.0173    4.8459    7.7562 O   0  0  0  0  0  0  0  0  0  0  0  0
   46.7850    3.8673    5.5689 O   0  0  0  0  0  0  0  0  0  0  0  0
   46.6137    3.6372    7.0150 Na  0  0  0  0  0 15  0  0  0  0  0  0
   46.6137    3.6372    7.0150 Na  0  0  0  0  0 15  0  0  0  0  0  0
   46.7362    3.9706    6.8360 O   0  0  0  0  0  0  0  0  0  0  0  0
   46.7363    3.9707    6.8361 O   0  0  0  0  0  0  0  0  0  0  0  0
   46.7363    3.9709    6.8365 O   0  0  0  0  0  0  0  0  0  0  0  0
   46.7363    3.9709    6.8365 O   0  0  0  0  0  0  0  0  0  0  0  0
   46.7363    3.9709    6.8365 O   0  0  0  0  0  0  0  0  0  0  0  0
   46.7363    3.9707    6.8361 O   0  0  0  0  0  0  0  0  0  0  0  0
   46.7362    3.9706    6.8360 O   0  0  0  0  0  0  0  0  0  0  0  0
   46.7362    3.9706    6.8360 O   0  0  0  0  0  0  0  0  0  0  0  0
   46.7363    3.9708    6.8364 O   0  0  0  0  0  0  0  0  0  0  0  0
   46.4279    3.1510    6.4221 H   0  0  0  0  0  0  0  0  0  0  0  0
   46.6769    3.7896    7.7865 H   0  0  0  0  0  0  0  0  0  0  0  0
   46.4276    3.1502    6.4228 H   0  0  0  0  0  0  0  0  0  0  0  0
   46.6773    3.7906    7.7863 H   0  0  0  0  0  0  0  0  0  0  0  0
   46.4277    3.1505    6.4226 H   0  0  0  0  0  0  0  0  0  0  0  0
   46.6772    3.7904    7.7863 H   0  0  0  0  0  0  0  0  0  0  0  0
   46.4280    3.1511    6.4220 H   0  0  0  0  0  0  0  0  0  0  0  0
   46.6769    3.7895    7.7866 H   0  0  0  0  0  0  0  0  0  0  0  0
   46.6769    3.7896    7.7865 H   0  0  0  0  0  0  0  0  0  0  0  0
   46.4279    3.1510    6.4221 H   0  0  0  0  0  0  0  0  0  0  0  0
   46.6769    3.7896    7.7865 H   0  0  0  0  0  0  0  0  0  0  0  0
   46.4279    3.1510    6.4221 H   0  0  0  0  0  0  0  0  0  0  0  0
   46.4277    3.1504    6.4227 H   0  0  0  0  0  0  0  0  0  0  0  0
   46.6772    3.7905    7.7863 H   0  0  0  0  0  0  0  0  0  0  0  0
   46.4277    3.1503    6.4227 H   0  0  0  0  0  0  0  0  0  0  0  0
   46.6773    3.7906    7.7863 H   0  0  0  0  0  0  0  0  0  0  0  0
   46.6773    3.7907    7.7863 H   0  0  0  0  0  0  0  0  0  0  0  0
   46.4276    3.1502    6.4228 H   0  0  0  0  0  0  0  0  0  0  0  0
   46.6770    3.7898    7.7865 H   0  0  0  0  0  0  0  0  0  0  0  0
   46.4279    3.1508    6.4222 H   0  0  0  0  0  0  0  0  0  0  0  0
  2  3  2  0
  2  4  2  0
  2  5  1  0
  2  6  1  0
  1 18  1  0
  1 19  1  0
  9 20  1  0
  9 21  1  0
 10 22  1  0
 10 23  1  0
 11 24  1  0
 11 25  1  0
 12 26  1  0
 12 27  1  0
 13 28  1  0
 13 29  1  0
 14 30  1  0
 14 31  1  0
 15 32  1  0
 15 33  1  0
 16 34  1  0
 16 35  1  0
 17 36  1  0
 17 37  1  0
M  CHG  4   5  -1   6  -1   7   1   8   1
M  END
> <Uni-Dock RESULT> 
ENERGY=   -5.879  LOWER_BOUND=    2.460  UPPER_BOUND=    3.026
INTER + INTRA:          -5.879
INTER:                  -5.879
INTRA:                   0.000
UNBOUND:                 0.000

$$$$
