
     RDKit          3D

 37 24  0  0  0  0  0  0  0  0999 V2000
   47.1051    0.6700    7.4539 O   0  0  0  0  0  0  0  0  0  0  0  0
   47.0169    1.0424    7.3453 S   0  0  0  0  0  0  0  0  0  0  0  0
   46.4320    1.3853    6.0362 O   0  0  0  0  0  0  0  0  0  0  0  0
   46.2721    1.7347    8.4128 O   0  0  0  0  0  0  0  0  0  0  0  0
   48.4290    1.4645    7.3783 O   0  0  0  0  0  0  0  0  0  0  0  0
   46.9343   -0.4146    7.5538 O   0  0  0  0  0  0  0  0  0  0  0  0
   47.0169    1.0424    7.3453 Na  0  0  0  0  0 15  0  0  0  0  0  0
   47.0169    1.0424    7.3453 Na  0  0  0  0  0 15  0  0  0  0  0  0
   47.1096    0.6708    7.4530 O   0  0  0  0  0  0  0  0  0  0  0  0
   47.1033    0.6697    7.4542 O   0  0  0  0  0  0  0  0  0  0  0  0
   47.1007    0.6693    7.4547 O   0  0  0  0  0  0  0  0  0  0  0  0
   47.1066    0.6703    7.4536 O   0  0  0  0  0  0  0  0  0  0  0  0
   47.1168    0.6723    7.4516 O   0  0  0  0  0  0  0  0  0  0  0  0
   47.1065    0.6703    7.4536 O   0  0  0  0  0  0  0  0  0  0  0  0
   47.1013    0.6694    7.4546 O   0  0  0  0  0  0  0  0  0  0  0  0
   47.1116    0.6713    7.4526 O   0  0  0  0  0  0  0  0  0  0  0  0
   47.1072    0.6704    7.4535 O   0  0  0  0  0  0  0  0  0  0  0  0
   47.7114    1.3632    7.1522 H   0  0  0  0  0  0  0  0  0  0  0  0
   46.2341    1.0941    7.4297 H   0  0  0  0  0  0  0  0  0  0  0  0
   47.7070    1.3711    7.1502 H   0  0  0  0  0  0  0  0  0  0  0  0
   46.2339    1.0852    7.4326 H   0  0  0  0  0  0  0  0  0  0  0  0
   46.2343    1.0977    7.4285 H   0  0  0  0  0  0  0  0  0  0  0  0
   47.7130    1.3599    7.1530 H   0  0  0  0  0  0  0  0  0  0  0  0
   46.2344    1.1026    7.4269 H   0  0  0  0  0  0  0  0  0  0  0  0
   47.7154    1.3554    7.1542 H   0  0  0  0  0  0  0  0  0  0  0  0
   46.2340    1.0912    7.4307 H   0  0  0  0  0  0  0  0  0  0  0  0
   47.7100    1.3657    7.1515 H   0  0  0  0  0  0  0  0  0  0  0  0
   47.7000    1.3838    7.1470 H   0  0  0  0  0  0  0  0  0  0  0  0
   46.2338    1.0712    7.4371 H   0  0  0  0  0  0  0  0  0  0  0  0
   46.2341    1.0914    7.4306 H   0  0  0  0  0  0  0  0  0  0  0  0
   47.7100    1.3656    7.1516 H   0  0  0  0  0  0  0  0  0  0  0  0
   46.2344    1.1014    7.4273 H   0  0  0  0  0  0  0  0  0  0  0  0
   47.7148    1.3565    7.1539 H   0  0  0  0  0  0  0  0  0  0  0  0
   46.2339    1.0815    7.4338 H   0  0  0  0  0  0  0  0  0  0  0  0
   47.7052    1.3746    7.1493 H   0  0  0  0  0  0  0  0  0  0  0  0
   47.7093    1.3670    7.1512 H   0  0  0  0  0  0  0  0  0  0  0  0
   46.2341    1.0899    7.4311 H   0  0  0  0  0  0  0  0  0  0  0  0
  2  3  2  0
  2  4  2  0
  2  5  1  0
  2  6  1  0
  1 18  1  0
  1 19  1  0
  9 20  1  0
  9 21  1  0
 10 22  1  0
 10 23  1  0
 11 24  1  0
 11 25  1  0
 12 26  1  0
 12 27  1  0
 13 28  1  0
 13 29  1  0
 14 30  1  0
 14 31  1  0
 15 32  1  0
 15 33  1  0
 16 34  1  0
 16 35  1  0
 17 36  1  0
 17 37  1  0
M  CHG  4   5  -1   6  -1   7   1   8   1
M  END
> <Uni-Dock RESULT> 
ENERGY=   -6.912  LOWER_BOUND=    0.000  UPPER_BOUND=    0.000
INTER + INTRA:          -6.912
INTER:                  -6.912
INTRA:                   0.000
UNBOUND:                 0.000

$$$$

     RDKit          3D

 37 24  0  0  0  0  0  0  0  0999 V2000
   47.5133    1.1646    7.2189 O   0  0  0  0  0  0  0  0  0  0  0  0
   47.1173    1.1938    7.2433 S   0  0  0  0  0  0  0  0  0  0  0  0
   46.4260    1.9317    8.3162 O   0  0  0  0  0  0  0  0  0  0  0  0
   46.5402    1.5674    5.9392 O   0  0  0  0  0  0  0  0  0  0  0  0
   46.9506   -0.2553    7.4573 O   0  0  0  0  0  0  0  0  0  0  0  0
   48.5522    1.5313    7.2605 O   0  0  0  0  0  0  0  0  0  0  0  0
   47.1173    1.1938    7.2433 Na  0  0  0  0  0 15  0  0  0  0  0  0
   47.1173    1.1938    7.2433 Na  0  0  0  0  0 15  0  0  0  0  0  0
   47.5131    1.1603    7.2205 O   0  0  0  0  0  0  0  0  0  0  0  0
   47.5133    1.1664    7.2182 O   0  0  0  0  0  0  0  0  0  0  0  0
   47.5135    1.1689    7.2172 O   0  0  0  0  0  0  0  0  0  0  0  0
   47.5132    1.1632    7.2194 O   0  0  0  0  0  0  0  0  0  0  0  0
   47.5126    1.1533    7.2232 O   0  0  0  0  0  0  0  0  0  0  0  0
   47.5132    1.1633    7.2194 O   0  0  0  0  0  0  0  0  0  0  0  0
   47.5134    1.1682    7.2174 O   0  0  0  0  0  0  0  0  0  0  0  0
   47.5129    1.1584    7.2213 O   0  0  0  0  0  0  0  0  0  0  0  0
   47.5132    1.1625    7.2196 O   0  0  0  0  0  0  0  0  0  0  0  0
   46.8839    0.4973    7.5314 H   0  0  0  0  0  0  0  0  0  0  0  0
   46.9547    1.9194    6.9796 H   0  0  0  0  0  0  0  0  0  0  0  0
   46.8752    0.5003    7.5311 H   0  0  0  0  0  0  0  0  0  0  0  0
   46.9637    1.9208    6.9782 H   0  0  0  0  0  0  0  0  0  0  0  0
   46.9509    1.9187    6.9802 H   0  0  0  0  0  0  0  0  0  0  0  0
   46.8876    0.4962    7.5315 H   0  0  0  0  0  0  0  0  0  0  0  0
   46.9459    1.9178    6.9810 H   0  0  0  0  0  0  0  0  0  0  0  0
   46.8925    0.4947    7.5317 H   0  0  0  0  0  0  0  0  0  0  0  0
   46.9576    1.9199    6.9791 H   0  0  0  0  0  0  0  0  0  0  0  0
   46.8811    0.4983    7.5313 H   0  0  0  0  0  0  0  0  0  0  0  0
   46.8611    0.5051    7.5305 H   0  0  0  0  0  0  0  0  0  0  0  0
   46.9782    1.9229    6.9761 H   0  0  0  0  0  0  0  0  0  0  0  0
   46.9574    1.9198    6.9792 H   0  0  0  0  0  0  0  0  0  0  0  0
   46.8813    0.4983    7.5313 H   0  0  0  0  0  0  0  0  0  0  0  0
   46.9471    1.9180    6.9808 H   0  0  0  0  0  0  0  0  0  0  0  0
   46.8913    0.4951    7.5316 H   0  0  0  0  0  0  0  0  0  0  0  0
   46.9675    1.9214    6.9776 H   0  0  0  0  0  0  0  0  0  0  0  0
   46.8713    0.5015    7.5310 H   0  0  0  0  0  0  0  0  0  0  0  0
   46.8797    0.4987    7.5313 H   0  0  0  0  0  0  0  0  0  0  0  0
   46.9590    1.9200    6.9789 H   0  0  0  0  0  0  0  0  0  0  0  0
  2  3  2  0
  2  4  2  0
  2  5  1  0
  2  6  1  0
  1 18  1  0
  1 19  1  0
  9 20  1  0
  9 21  1  0
 10 22  1  0
 10 23  1  0
 11 24  1  0
 11 25  1  0
 12 26  1  0
 12 27  1  0
 13 28  1  0
 13 29  1  0
 14 30  1  0
 14 31  1  0
 15 32  1  0
 15 33  1  0
 16 34  1  0
 16 35  1  0
 17 36  1  0
 17 37  1  0
M  CHG  4   5  -1   6  -1   7   1   8   1
M  END
> <Uni-Dock RESULT> 
ENERGY=   -6.773  LOWER_BOUND=    0.534  UPPER_BOUND=    1.286
INTER + INTRA:          -6.773
INTER:                  -6.773
INTRA:                   0.000
UNBOUND:                 0.000

$$$$

     RDKit          3D

 37 24  0  0  0  0  0  0  0  0999 V2000
   48.2567    2.1515    6.4164 O   0  0  0  0  0  0  0  0  0  0  0  0
   47.8620    2.1367    6.3691 S   0  0  0  0  0  0  0  0  0  0  0  0
   47.0646    0.9197    6.6067 O   0  0  0  0  0  0  0  0  0  0  0  0
   47.2141    3.2853    7.0282 O   0  0  0  0  0  0  0  0  0  0  0  0
   47.9531    2.3893    4.9195 O   0  0  0  0  0  0  0  0  0  0  0  0
   49.2161    1.9526    6.9220 O   0  0  0  0  0  0  0  0  0  0  0  0
   47.8620    2.1367    6.3691 Na  0  0  0  0  0 15  0  0  0  0  0  0
   47.8620    2.1367    6.3691 Na  0  0  0  0  0 15  0  0  0  0  0  0
   48.2573    2.1513    6.4119 O   0  0  0  0  0  0  0  0  0  0  0  0
   48.2565    2.1516    6.4183 O   0  0  0  0  0  0  0  0  0  0  0  0
   48.2561    2.1518    6.4210 O   0  0  0  0  0  0  0  0  0  0  0  0
   48.2569    2.1514    6.4150 O   0  0  0  0  0  0  0  0  0  0  0  0
   48.2580    2.1509    6.4044 O   0  0  0  0  0  0  0  0  0  0  0  0
   48.2569    2.1514    6.4151 O   0  0  0  0  0  0  0  0  0  0  0  0
   48.2562    2.1517    6.4203 O   0  0  0  0  0  0  0  0  0  0  0  0
   48.2574    2.1512    6.4098 O   0  0  0  0  0  0  0  0  0  0  0  0
   48.2570    2.1514    6.4143 O   0  0  0  0  0  0  0  0  0  0  0  0
   47.7570    2.0889    5.5886 H   0  0  0  0  0  0  0  0  0  0  0  0
   47.5723    2.1698    7.1023 H   0  0  0  0  0  0  0  0  0  0  0  0
   47.7478    2.0887    5.5900 H   0  0  0  0  0  0  0  0  0  0  0  0
   47.5810    2.1703    7.1056 H   0  0  0  0  0  0  0  0  0  0  0  0
   47.5688    2.1696    7.1008 H   0  0  0  0  0  0  0  0  0  0  0  0
   47.7607    2.0890    5.5882 H   0  0  0  0  0  0  0  0  0  0  0  0
   47.5640    2.1694    7.0989 H   0  0  0  0  0  0  0  0  0  0  0  0
   47.7659    2.0891    5.5875 H   0  0  0  0  0  0  0  0  0  0  0  0
   47.5751    2.1700    7.1033 H   0  0  0  0  0  0  0  0  0  0  0  0
   47.7540    2.0888    5.5890 H   0  0  0  0  0  0  0  0  0  0  0  0
   47.7331    2.0884    5.5922 H   0  0  0  0  0  0  0  0  0  0  0  0
   47.5948    2.1710    7.1106 H   0  0  0  0  0  0  0  0  0  0  0  0
   47.5749    2.1700    7.1032 H   0  0  0  0  0  0  0  0  0  0  0  0
   47.7542    2.0888    5.5891 H   0  0  0  0  0  0  0  0  0  0  0  0
   47.5651    2.1694    7.0993 H   0  0  0  0  0  0  0  0  0  0  0  0
   47.7646    2.0891    5.5876 H   0  0  0  0  0  0  0  0  0  0  0  0
   47.5846    2.1705    7.1069 H   0  0  0  0  0  0  0  0  0  0  0  0
   47.7438    2.0886    5.5905 H   0  0  0  0  0  0  0  0  0  0  0  0
   47.7526    2.0888    5.5893 H   0  0  0  0  0  0  0  0  0  0  0  0
   47.5765    2.1700    7.1038 H   0  0  0  0  0  0  0  0  0  0  0  0
  2  3  2  0
  2  4  2  0
  2  5  1  0
  2  6  1  0
  1 18  1  0
  1 19  1  0
  9 20  1  0
  9 21  1  0
 10 22  1  0
 10 23  1  0
 11 24  1  0
 11 25  1  0
 12 26  1  0
 12 27  1  0
 13 28  1  0
 13 29  1  0
 14 30  1  0
 14 31  1  0
 15 32  1  0
 15 33  1  0
 16 34  1  0
 16 35  1  0
 17 36  1  0
 17 37  1  0
M  CHG  4   5  -1   6  -1   7   1   8   1
M  END
> <Uni-Dock RESULT> 
ENERGY=   -6.409  LOWER_BOUND=    1.419  UPPER_BOUND=    2.156
INTER + INTRA:          -6.409
INTER:                  -6.409
INTRA:                   0.000
UNBOUND:                 0.000

$$$$

     RDKit          3D

 37 24  0  0  0  0  0  0  0  0999 V2000
   42.2321    5.5924   11.8789 O   0  0  0  0  0  0  0  0  0  0  0  0
   42.6221    5.5365   11.9333 S   0  0  0  0  0  0  0  0  0  0  0  0
   43.6561    6.3226   11.2359 O   0  0  0  0  0  0  0  0  0  0  0  0
   42.9440    5.4661   13.3702 O   0  0  0  0  0  0  0  0  0  0  0  0
   42.5791    4.1739   11.3721 O   0  0  0  0  0  0  0  0  0  0  0  0
   41.3095    6.1832   11.7548 O   0  0  0  0  0  0  0  0  0  0  0  0
   42.6221    5.5365   11.9333 Na  0  0  0  0  0 15  0  0  0  0  0  0
   42.6221    5.5365   11.9333 Na  0  0  0  0  0 15  0  0  0  0  0  0
   42.2319    5.5887   11.8762 O   0  0  0  0  0  0  0  0  0  0  0  0
   42.2321    5.5939   11.8800 O   0  0  0  0  0  0  0  0  0  0  0  0
   42.2322    5.5961   11.8816 O   0  0  0  0  0  0  0  0  0  0  0  0
   42.2320    5.5912   11.8781 O   0  0  0  0  0  0  0  0  0  0  0  0
   42.2318    5.5826   11.8719 O   0  0  0  0  0  0  0  0  0  0  0  0
   42.2320    5.5913   11.8781 O   0  0  0  0  0  0  0  0  0  0  0  0
   42.2322    5.5956   11.8812 O   0  0  0  0  0  0  0  0  0  0  0  0
   42.2319    5.5870   11.8750 O   0  0  0  0  0  0  0  0  0  0  0  0
   42.2320    5.5906   11.8776 O   0  0  0  0  0  0  0  0  0  0  0  0
   42.7903    4.8889   11.5150 H   0  0  0  0  0  0  0  0  0  0  0  0
   42.8440    6.1280   12.4059 H   0  0  0  0  0  0  0  0  0  0  0  0
   42.7992    4.8897   11.5176 H   0  0  0  0  0  0  0  0  0  0  0  0
   42.8353    6.1311   12.4059 H   0  0  0  0  0  0  0  0  0  0  0  0
   42.8476    6.1267   12.4058 H   0  0  0  0  0  0  0  0  0  0  0  0
   42.7867    4.8888   11.5140 H   0  0  0  0  0  0  0  0  0  0  0  0
   42.8525    6.1249   12.4057 H   0  0  0  0  0  0  0  0  0  0  0  0
   42.7817    4.8884   11.5125 H   0  0  0  0  0  0  0  0  0  0  0  0
   42.8412    6.1290   12.4059 H   0  0  0  0  0  0  0  0  0  0  0  0
   42.7932    4.8892   11.5158 H   0  0  0  0  0  0  0  0  0  0  0  0
   42.8134    4.8909   11.5219 H   0  0  0  0  0  0  0  0  0  0  0  0
   42.8213    6.1359   12.4059 H   0  0  0  0  0  0  0  0  0  0  0  0
   42.8414    6.1289   12.4058 H   0  0  0  0  0  0  0  0  0  0  0  0
   42.7930    4.8892   11.5158 H   0  0  0  0  0  0  0  0  0  0  0  0
   42.8513    6.1253   12.4057 H   0  0  0  0  0  0  0  0  0  0  0  0
   42.7829    4.8885   11.5129 H   0  0  0  0  0  0  0  0  0  0  0  0
   42.8316    6.1324   12.4060 H   0  0  0  0  0  0  0  0  0  0  0  0
   42.8030    4.8899   11.5187 H   0  0  0  0  0  0  0  0  0  0  0  0
   42.7946    4.8893   11.5163 H   0  0  0  0  0  0  0  0  0  0  0  0
   42.8399    6.1294   12.4059 H   0  0  0  0  0  0  0  0  0  0  0  0
  2  3  2  0
  2  4  2  0
  2  5  1  0
  2  6  1  0
  1 18  1  0
  1 19  1  0
  9 20  1  0
  9 21  1  0
 10 22  1  0
 10 23  1  0
 11 24  1  0
 11 25  1  0
 12 26  1  0
 12 27  1  0
 13 28  1  0
 13 29  1  0
 14 30  1  0
 14 31  1  0
 15 32  1  0
 15 33  1  0
 16 34  1  0
 16 35  1  0
 17 36  1  0
 17 37  1  0
M  CHG  4   5  -1   6  -1   7   1   8   1
M  END
> <Uni-Dock RESULT> 
ENERGY=   -6.320  LOWER_BOUND=    7.090  UPPER_BOUND=    8.103
INTER + INTRA:          -6.320
INTER:                  -6.320
INTRA:                   0.000
UNBOUND:                 0.000

$$$$

     RDKit          3D

 37 24  0  0  0  0  0  0  0  0999 V2000
   38.8874    3.9575    5.6342 O   0  0  0  0  0  0  0  0  0  0  0  0
   38.8522    4.3036    5.4412 S   0  0  0  0  0  0  0  0  0  0  0  0
   37.9214    4.5107    4.3169 O   0  0  0  0  0  0  0  0  0  0  0  0
   38.7291    5.4221    6.3937 O   0  0  0  0  0  0  0  0  0  0  0  0
   40.2339    4.2430    4.9305 O   0  0  0  0  0  0  0  0  0  0  0  0
   38.5246    3.0386    6.1236 O   0  0  0  0  0  0  0  0  0  0  0  0
   38.8522    4.3036    5.4412 Na  0  0  0  0  0 15  0  0  0  0  0  0
   38.8522    4.3036    5.4412 Na  0  0  0  0  0 15  0  0  0  0  0  0
   38.8913    3.9566    5.6319 O   0  0  0  0  0  0  0  0  0  0  0  0
   38.8858    3.9579    5.6351 O   0  0  0  0  0  0  0  0  0  0  0  0
   38.8836    3.9584    5.6365 O   0  0  0  0  0  0  0  0  0  0  0  0
   38.8887    3.9572    5.6334 O   0  0  0  0  0  0  0  0  0  0  0  0
   38.8977    3.9553    5.6281 O   0  0  0  0  0  0  0  0  0  0  0  0
   38.8886    3.9572    5.6335 O   0  0  0  0  0  0  0  0  0  0  0  0
   38.8841    3.9583    5.6361 O   0  0  0  0  0  0  0  0  0  0  0  0
   38.8931    3.9563    5.6308 O   0  0  0  0  0  0  0  0  0  0  0  0
   38.8893    3.9571    5.6331 O   0  0  0  0  0  0  0  0  0  0  0  0
   39.4805    4.3303    4.9646 H   0  0  0  0  0  0  0  0  0  0  0  0
   38.1888    4.6229    5.7247 H   0  0  0  0  0  0  0  0  0  0  0  0
   39.4776    4.3386    4.9615 H   0  0  0  0  0  0  0  0  0  0  0  0
   38.1877    4.6155    5.7302 H   0  0  0  0  0  0  0  0  0  0  0  0
   38.1893    4.6259    5.7224 H   0  0  0  0  0  0  0  0  0  0  0  0
   39.4815    4.3269    4.9660 H   0  0  0  0  0  0  0  0  0  0  0  0
   38.1900    4.6300    5.7193 H   0  0  0  0  0  0  0  0  0  0  0  0
   39.4831    4.3223    4.9678 H   0  0  0  0  0  0  0  0  0  0  0  0
   38.1884    4.6205    5.7265 H   0  0  0  0  0  0  0  0  0  0  0  0
   39.4795    4.3330    4.9636 H   0  0  0  0  0  0  0  0  0  0  0  0
   39.4729    4.3518    4.9566 H   0  0  0  0  0  0  0  0  0  0  0  0
   38.1861    4.6036    5.7389 H   0  0  0  0  0  0  0  0  0  0  0  0
   38.1885    4.6206    5.7263 H   0  0  0  0  0  0  0  0  0  0  0  0
   39.4796    4.3328    4.9637 H   0  0  0  0  0  0  0  0  0  0  0  0
   38.1898    4.6290    5.7201 H   0  0  0  0  0  0  0  0  0  0  0  0
   39.4827    4.3234    4.9673 H   0  0  0  0  0  0  0  0  0  0  0  0
   38.1872    4.6124    5.7325 H   0  0  0  0  0  0  0  0  0  0  0  0
   39.4764    4.3421    4.9601 H   0  0  0  0  0  0  0  0  0  0  0  0
   39.4791    4.3343    4.9631 H   0  0  0  0  0  0  0  0  0  0  0  0
   38.1883    4.6193    5.7273 H   0  0  0  0  0  0  0  0  0  0  0  0
  2  3  2  0
  2  4  2  0
  2  5  1  0
  2  6  1  0
  1 18  1  0
  1 19  1  0
  9 20  1  0
  9 21  1  0
 10 22  1  0
 10 23  1  0
 11 24  1  0
 11 25  1  0
 12 26  1  0
 12 27  1  0
 13 28  1  0
 13 29  1  0
 14 30  1  0
 14 31  1  0
 15 32  1  0
 15 33  1  0
 16 34  1  0
 16 35  1  0
 17 36  1  0
 17 37  1  0
M  CHG  4   5  -1   6  -1   7   1   8   1
M  END
> <Uni-Dock RESULT> 
ENERGY=   -6.312  LOWER_BOUND=    8.273  UPPER_BOUND=    9.025
INTER + INTRA:          -6.312
INTER:                  -6.312
INTRA:                   0.000
UNBOUND:                 0.000

$$$$

     RDKit          3D

 37 24  0  0  0  0  0  0  0  0999 V2000
   47.9682    2.4148    5.4712 O   0  0  0  0  0  0  0  0  0  0  0  0
   47.8828    2.3617    5.8561 S   0  0  0  0  0  0  0  0  0  0  0  0
   47.2857    1.1232    6.3880 O   0  0  0  0  0  0  0  0  0  0  0  0
   49.0211    2.7619    6.7032 O   0  0  0  0  0  0  0  0  0  0  0  0
   46.8708    3.4338    5.8544 O   0  0  0  0  0  0  0  0  0  0  0  0
   48.3535    2.1281    4.4787 O   0  0  0  0  0  0  0  0  0  0  0  0
   47.8828    2.3617    5.8561 Na  0  0  0  0  0 15  0  0  0  0  0  0
   47.8828    2.3617    5.8561 Na  0  0  0  0  0 15  0  0  0  0  0  0
   47.9645    2.4174    5.4707 O   0  0  0  0  0  0  0  0  0  0  0  0
   47.9698    2.4137    5.4714 O   0  0  0  0  0  0  0  0  0  0  0  0
   47.9720    2.4122    5.4717 O   0  0  0  0  0  0  0  0  0  0  0  0
   47.9670    2.4156    5.4710 O   0  0  0  0  0  0  0  0  0  0  0  0
   47.9583    2.4216    5.4700 O   0  0  0  0  0  0  0  0  0  0  0  0
   47.9671    2.4156    5.4710 O   0  0  0  0  0  0  0  0  0  0  0  0
   47.9714    2.4126    5.4716 O   0  0  0  0  0  0  0  0  0  0  0  0
   47.9627    2.4186    5.4705 O   0  0  0  0  0  0  0  0  0  0  0  0
   47.9664    2.4160    5.4709 O   0  0  0  0  0  0  0  0  0  0  0  0
   47.2155    2.7672    5.9694 H   0  0  0  0  0  0  0  0  0  0  0  0
   48.4646    1.9032    6.1276 H   0  0  0  0  0  0  0  0  0  0  0  0
   47.2156    2.7646    5.9783 H   0  0  0  0  0  0  0  0  0  0  0  0
   48.4684    1.9032    6.1192 H   0  0  0  0  0  0  0  0  0  0  0  0
   48.4630    1.9033    6.1311 H   0  0  0  0  0  0  0  0  0  0  0  0
   47.2156    2.7682    5.9657 H   0  0  0  0  0  0  0  0  0  0  0  0
   48.4608    1.9034    6.1358 H   0  0  0  0  0  0  0  0  0  0  0  0
   47.2156    2.7696    5.9607 H   0  0  0  0  0  0  0  0  0  0  0  0
   48.4658    1.9032    6.1249 H   0  0  0  0  0  0  0  0  0  0  0  0
   47.2155    2.7664    5.9723 H   0  0  0  0  0  0  0  0  0  0  0  0
   47.2158    2.7604    5.9925 H   0  0  0  0  0  0  0  0  0  0  0  0
   48.4742    1.9032    6.1056 H   0  0  0  0  0  0  0  0  0  0  0  0
   48.4657    1.9032    6.1251 H   0  0  0  0  0  0  0  0  0  0  0  0
   47.2156    2.7664    5.9721 H   0  0  0  0  0  0  0  0  0  0  0  0
   48.4613    1.9034    6.1347 H   0  0  0  0  0  0  0  0  0  0  0  0
   47.2156    2.7693    5.9619 H   0  0  0  0  0  0  0  0  0  0  0  0
   48.4700    1.9031    6.1156 H   0  0  0  0  0  0  0  0  0  0  0  0
   47.2155    2.7636    5.9821 H   0  0  0  0  0  0  0  0  0  0  0  0
   47.2155    2.7660    5.9737 H   0  0  0  0  0  0  0  0  0  0  0  0
   48.4664    1.9032    6.1236 H   0  0  0  0  0  0  0  0  0  0  0  0
  2  3  2  0
  2  4  2  0
  2  5  1  0
  2  6  1  0
  1 18  1  0
  1 19  1  0
  9 20  1  0
  9 21  1  0
 10 22  1  0
 10 23  1  0
 11 24  1  0
 11 25  1  0
 12 26  1  0
 12 27  1  0
 13 28  1  0
 13 29  1  0
 14 30  1  0
 14 31  1  0
 15 32  1  0
 15 33  1  0
 16 34  1  0
 16 35  1  0
 17 36  1  0
 17 37  1  0
M  CHG  4   5  -1   6  -1   7   1   8   1
M  END
> <Uni-Dock RESULT> 
ENERGY=   -6.127  LOWER_BOUND=    1.970  UPPER_BOUND=    2.769
INTER + INTRA:          -6.127
INTER:                  -6.127
INTRA:                   0.000
UNBOUND:                 0.000

$$$$

     RDKit          3D

 37 24  0  0  0  0  0  0  0  0999 V2000
   42.2448    5.6749   11.7776 O   0  0  0  0  0  0  0  0  0  0  0  0
   42.5735    5.4953   11.9114 S   0  0  0  0  0  0  0  0  0  0  0  0
   42.9863    5.5159   13.3266 O   0  0  0  0  0  0  0  0  0  0  0  0
   42.6633    4.1180   11.3933 O   0  0  0  0  0  0  0  0  0  0  0  0
   43.4609    6.3738   11.1278 O   0  0  0  0  0  0  0  0  0  0  0  0
   41.1836    5.9733   11.7981 O   0  0  0  0  0  0  0  0  0  0  0  0
   42.5735    5.4953   11.9114 Na  0  0  0  0  0 15  0  0  0  0  0  0
   42.5735    5.4953   11.9114 Na  0  0  0  0  0 15  0  0  0  0  0  0
   42.2473    5.6784   11.7759 O   0  0  0  0  0  0  0  0  0  0  0  0
   42.2437    5.6735   11.7782 O   0  0  0  0  0  0  0  0  0  0  0  0
   42.2423    5.6715   11.7792 O   0  0  0  0  0  0  0  0  0  0  0  0
   42.2456    5.6760   11.7770 O   0  0  0  0  0  0  0  0  0  0  0  0
   42.2516    5.6839   11.7732 O   0  0  0  0  0  0  0  0  0  0  0  0
   42.2456    5.6760   11.7770 O   0  0  0  0  0  0  0  0  0  0  0  0
   42.2426    5.6720   11.7790 O   0  0  0  0  0  0  0  0  0  0  0  0
   42.2486    5.6799   11.7751 O   0  0  0  0  0  0  0  0  0  0  0  0
   42.2460    5.6766   11.7768 O   0  0  0  0  0  0  0  0  0  0  0  0
   43.1626    5.9765   11.7019 H   0  0  0  0  0  0  0  0  0  0  0  0
   42.3132    4.8344   12.2549 H   0  0  0  0  0  0  0  0  0  0  0  0
   43.1686    5.9706   11.7058 H   0  0  0  0  0  0  0  0  0  0  0  0
   42.3045    4.8367   12.2527 H   0  0  0  0  0  0  0  0  0  0  0  0
   42.3168    4.8335   12.2558 H   0  0  0  0  0  0  0  0  0  0  0  0
   43.1600    5.9788   11.7003 H   0  0  0  0  0  0  0  0  0  0  0  0
   42.3216    4.8322   12.2570 H   0  0  0  0  0  0  0  0  0  0  0  0
   43.1566    5.9820   11.6982 H   0  0  0  0  0  0  0  0  0  0  0  0
   42.3104    4.8351   12.2542 H   0  0  0  0  0  0  0  0  0  0  0  0
   43.1645    5.9746   11.7031 H   0  0  0  0  0  0  0  0  0  0  0  0
   43.1782    5.9612   11.7120 H   0  0  0  0  0  0  0  0  0  0  0  0
   42.2907    4.8407   12.2491 H   0  0  0  0  0  0  0  0  0  0  0  0
   42.3106    4.8351   12.2542 H   0  0  0  0  0  0  0  0  0  0  0  0
   43.1644    5.9747   11.7031 H   0  0  0  0  0  0  0  0  0  0  0  0
   42.3205    4.8325   12.2567 H   0  0  0  0  0  0  0  0  0  0  0  0
   43.1574    5.9813   11.6987 H   0  0  0  0  0  0  0  0  0  0  0  0
   42.3008    4.8378   12.2517 H   0  0  0  0  0  0  0  0  0  0  0  0
   43.1712    5.9682   11.7074 H   0  0  0  0  0  0  0  0  0  0  0  0
   43.1655    5.9737   11.7037 H   0  0  0  0  0  0  0  0  0  0  0  0
   42.3090    4.8355   12.2538 H   0  0  0  0  0  0  0  0  0  0  0  0
  2  3  2  0
  2  4  2  0
  2  5  1  0
  2  6  1  0
  1 18  1  0
  1 19  1  0
  9 20  1  0
  9 21  1  0
 10 22  1  0
 10 23  1  0
 11 24  1  0
 11 25  1  0
 12 26  1  0
 12 27  1  0
 13 28  1  0
 13 29  1  0
 14 30  1  0
 14 31  1  0
 15 32  1  0
 15 33  1  0
 16 34  1  0
 16 35  1  0
 17 36  1  0
 17 37  1  0
M  CHG  4   5  -1   6  -1   7   1   8   1
M  END
> <Uni-Dock RESULT> 
ENERGY=   -6.117  LOWER_BOUND=    7.032  UPPER_BOUND=    8.115
INTER + INTRA:          -6.117
INTER:                  -6.117
INTRA:                   0.000
UNBOUND:                 0.000

$$$$

     RDKit          3D

 37 24  0  0  0  0  0  0  0  0999 V2000
   42.8991    5.2603   13.0150 O   0  0  0  0  0  0  0  0  0  0  0  0
   42.9878    5.3021   12.6295 S   0  0  0  0  0  0  0  0  0  0  0  0
   43.5295    4.2090   11.8018 O   0  0  0  0  0  0  0  0  0  0  0  0
   41.8849    5.9640   11.9091 O   0  0  0  0  0  0  0  0  0  0  0  0
   44.0528    6.2833   12.9059 O   0  0  0  0  0  0  0  0  0  0  0  0
   42.4840    4.7522   13.9012 O   0  0  0  0  0  0  0  0  0  0  0  0
   42.9878    5.3021   12.6295 Na  0  0  0  0  0 15  0  0  0  0  0  0
   42.9878    5.3021   12.6295 Na  0  0  0  0  0 15  0  0  0  0  0  0
   42.9030    5.2625   13.0162 O   0  0  0  0  0  0  0  0  0  0  0  0
   42.8975    5.2594   13.0145 O   0  0  0  0  0  0  0  0  0  0  0  0
   42.8952    5.2581   13.0139 O   0  0  0  0  0  0  0  0  0  0  0  0
   42.9003    5.2610   13.0154 O   0  0  0  0  0  0  0  0  0  0  0  0
   42.9093    5.2661   13.0179 O   0  0  0  0  0  0  0  0  0  0  0  0
   42.9003    5.2610   13.0154 O   0  0  0  0  0  0  0  0  0  0  0  0
   42.8958    5.2585   13.0140 O   0  0  0  0  0  0  0  0  0  0  0  0
   42.9048    5.2635   13.0166 O   0  0  0  0  0  0  0  0  0  0  0  0
   42.9009    5.2614   13.0156 O   0  0  0  0  0  0  0  0  0  0  0  0
   43.6766    5.6870   12.6245 H   0  0  0  0  0  0  0  0  0  0  0  0
   42.3878    4.9591   12.2490 H   0  0  0  0  0  0  0  0  0  0  0  0
   43.6765    5.6867   12.6153 H   0  0  0  0  0  0  0  0  0  0  0  0
   42.3839    4.9571   12.2571 H   0  0  0  0  0  0  0  0  0  0  0  0
   42.3895    4.9600   12.2456 H   0  0  0  0  0  0  0  0  0  0  0  0
   43.6765    5.6870   12.6283 H   0  0  0  0  0  0  0  0  0  0  0  0
   42.3917    4.9611   12.2411 H   0  0  0  0  0  0  0  0  0  0  0  0
   43.6764    5.6871   12.6335 H   0  0  0  0  0  0  0  0  0  0  0  0
   42.3865    4.9585   12.2516 H   0  0  0  0  0  0  0  0  0  0  0  0
   43.6765    5.6869   12.6215 H   0  0  0  0  0  0  0  0  0  0  0  0
   43.6763    5.6863   12.6004 H   0  0  0  0  0  0  0  0  0  0  0  0
   42.3778    4.9540   12.2702 H   0  0  0  0  0  0  0  0  0  0  0  0
   42.3866    4.9585   12.2514 H   0  0  0  0  0  0  0  0  0  0  0  0
   43.6765    5.6869   12.6217 H   0  0  0  0  0  0  0  0  0  0  0  0
   42.3912    4.9609   12.2422 H   0  0  0  0  0  0  0  0  0  0  0  0
   43.6765    5.6871   12.6322 H   0  0  0  0  0  0  0  0  0  0  0  0
   42.3822    4.9563   12.2606 H   0  0  0  0  0  0  0  0  0  0  0  0
   43.6765    5.6867   12.6112 H   0  0  0  0  0  0  0  0  0  0  0  0
   43.6765    5.6869   12.6200 H   0  0  0  0  0  0  0  0  0  0  0  0
   42.3859    4.9582   12.2529 H   0  0  0  0  0  0  0  0  0  0  0  0
  2  3  2  0
  2  4  2  0
  2  5  1  0
  2  6  1  0
  1 18  1  0
  1 19  1  0
  9 20  1  0
  9 21  1  0
 10 22  1  0
 10 23  1  0
 11 24  1  0
 11 25  1  0
 12 26  1  0
 12 27  1  0
 13 28  1  0
 13 29  1  0
 14 30  1  0
 14 31  1  0
 15 32  1  0
 15 33  1  0
 16 34  1  0
 16 35  1  0
 17 36  1  0
 17 37  1  0
M  CHG  4   5  -1   6  -1   7   1   8   1
M  END
> <Uni-Dock RESULT> 
ENERGY=   -5.810  LOWER_BOUND=    6.905  UPPER_BOUND=    8.198
INTER + INTRA:          -5.810
INTER:                  -5.810
INTRA:                   0.000
UNBOUND:                 0.000

$$$$
