
     RDKit          3D

 37 24  0  0  0  0  0  0  0  0999 V2000
   47.1350    0.7201    7.4622 O   0  0  0  0  0  0  0  0  0  0  0  0
   47.0152    1.0692    7.3140 S   0  0  0  0  0  0  0  0  0  0  0  0
   48.4327    1.4731    7.3464 O   0  0  0  0  0  0  0  0  0  0  0  0
   46.2878    1.7405    8.4065 O   0  0  0  0  0  0  0  0  0  0  0  0
   46.4238    1.4552    6.0199 O   0  0  0  0  0  0  0  0  0  0  0  0
   46.9165   -0.3919    7.4830 O   0  0  0  0  0  0  0  0  0  0  0  0
   47.0152    1.0692    7.3140 Na  0  0  0  0  0 15  0  0  0  0  0  0
   47.0152    1.0692    7.3140 Na  0  0  0  0  0 15  0  0  0  0  0  0
   47.1434    0.7157    7.4439 O   0  0  0  0  0  0  0  0  0  0  0  0
   47.1493    0.7132    7.4303 O   0  0  0  0  0  0  0  0  0  0  0  0
   47.1418    0.7165    7.4476 O   0  0  0  0  0  0  0  0  0  0  0  0
   47.1413    0.7168    7.4485 O   0  0  0  0  0  0  0  0  0  0  0  0
   47.1485    0.7135    7.4322 O   0  0  0  0  0  0  0  0  0  0  0  0
   47.1457    0.7147    7.4386 O   0  0  0  0  0  0  0  0  0  0  0  0
   47.1391    0.7178    7.4536 O   0  0  0  0  0  0  0  0  0  0  0  0
   47.1489    0.7133    7.4311 O   0  0  0  0  0  0  0  0  0  0  0  0
   47.1438    0.7156    7.4431 O   0  0  0  0  0  0  0  0  0  0  0  0
   46.6394    1.4209    7.9119 H   0  0  0  0  0  0  0  0  0  0  0  0
   47.2712    1.0667    6.5677 H   0  0  0  0  0  0  0  0  0  0  0  0
   46.6476    1.3879    7.9350 H   0  0  0  0  0  0  0  0  0  0  0  0
   47.2546    1.1040    6.5630 H   0  0  0  0  0  0  0  0  0  0  0  0
   47.2422    1.1308    6.5609 H   0  0  0  0  0  0  0  0  0  0  0  0
   46.6541    1.3636    7.9507 H   0  0  0  0  0  0  0  0  0  0  0  0
   47.2580    1.0964    6.5638 H   0  0  0  0  0  0  0  0  0  0  0  0
   46.6459    1.3946    7.9305 H   0  0  0  0  0  0  0  0  0  0  0  0
   47.2588    1.0945    6.5640 H   0  0  0  0  0  0  0  0  0  0  0  0
   46.6454    1.3963    7.9293 H   0  0  0  0  0  0  0  0  0  0  0  0
   46.6532    1.3670    7.9486 H   0  0  0  0  0  0  0  0  0  0  0  0
   47.2439    1.1271    6.5611 H   0  0  0  0  0  0  0  0  0  0  0  0
   47.2497    1.1146    6.5620 H   0  0  0  0  0  0  0  0  0  0  0  0
   46.6501    1.3784    7.9413 H   0  0  0  0  0  0  0  0  0  0  0  0
   46.6432    1.4052    7.9231 H   0  0  0  0  0  0  0  0  0  0  0  0
   47.2633    1.0845    6.5652 H   0  0  0  0  0  0  0  0  0  0  0  0
   46.6537    1.3650    7.9498 H   0  0  0  0  0  0  0  0  0  0  0  0
   47.2429    1.1293    6.5610 H   0  0  0  0  0  0  0  0  0  0  0  0
   47.2539    1.1055    6.5629 H   0  0  0  0  0  0  0  0  0  0  0  0
   46.6479    1.3866    7.9359 H   0  0  0  0  0  0  0  0  0  0  0  0
  2  3  2  0
  2  4  2  0
  2  5  1  0
  2  6  1  0
  1 18  1  0
  1 19  1  0
  9 20  1  0
  9 21  1  0
 10 22  1  0
 10 23  1  0
 11 24  1  0
 11 25  1  0
 12 26  1  0
 12 27  1  0
 13 28  1  0
 13 29  1  0
 14 30  1  0
 14 31  1  0
 15 32  1  0
 15 33  1  0
 16 34  1  0
 16 35  1  0
 17 36  1  0
 17 37  1  0
M  CHG  4   5  -1   6  -1   7   1   8   1
M  END
> <Uni-Dock RESULT> 
ENERGY=   -6.928  LOWER_BOUND=    0.000  UPPER_BOUND=    0.000
INTER + INTRA:          -6.928
INTER:                  -6.928
INTRA:                   0.000
UNBOUND:                 0.000

$$$$

     RDKit          3D

 37 24  0  0  0  0  0  0  0  0999 V2000
   47.5446    1.1825    7.1730 O   0  0  0  0  0  0  0  0  0  0  0  0
   47.1600    1.2594    7.2389 S   0  0  0  0  0  0  0  0  0  0  0  0
   47.0185   -0.1700    7.5707 O   0  0  0  0  0  0  0  0  0  0  0  0
   46.5695    1.5168    5.9128 O   0  0  0  0  0  0  0  0  0  0  0  0
   46.4626    2.0707    8.2532 O   0  0  0  0  0  0  0  0  0  0  0  0
   48.5892    1.6201    7.2188 O   0  0  0  0  0  0  0  0  0  0  0  0
   47.1600    1.2594    7.2389 Na  0  0  0  0  0 15  0  0  0  0  0  0
   47.1600    1.2594    7.2389 Na  0  0  0  0  0 15  0  0  0  0  0  0
   47.5472    1.1803    7.1934 O   0  0  0  0  0  0  0  0  0  0  0  0
   47.5483    1.1789    7.2082 O   0  0  0  0  0  0  0  0  0  0  0  0
   47.5468    1.1807    7.1893 O   0  0  0  0  0  0  0  0  0  0  0  0
   47.5466    1.1809    7.1882 O   0  0  0  0  0  0  0  0  0  0  0  0
   47.5482    1.1791    7.2062 O   0  0  0  0  0  0  0  0  0  0  0  0
   47.5477    1.1797    7.1992 O   0  0  0  0  0  0  0  0  0  0  0  0
   47.5460    1.1814    7.1827 O   0  0  0  0  0  0  0  0  0  0  0  0
   47.5483    1.1790    7.2074 O   0  0  0  0  0  0  0  0  0  0  0  0
   47.5472    1.1802    7.1943 O   0  0  0  0  0  0  0  0  0  0  0  0
   46.8558    1.3827    6.5214 H   0  0  0  0  0  0  0  0  0  0  0  0
   47.0793    1.2131    8.0224 H   0  0  0  0  0  0  0  0  0  0  0  0
   46.8932    1.3760    6.5056 H   0  0  0  0  0  0  0  0  0  0  0  0
   47.0394    1.2220    8.0177 H   0  0  0  0  0  0  0  0  0  0  0  0
   47.0110    1.2285    8.0131 H   0  0  0  0  0  0  0  0  0  0  0  0
   46.9206    1.3709    6.4954 H   0  0  0  0  0  0  0  0  0  0  0  0
   47.0475    1.2202    8.0188 H   0  0  0  0  0  0  0  0  0  0  0  0
   46.8856    1.3773    6.5087 H   0  0  0  0  0  0  0  0  0  0  0  0
   47.0495    1.2197    8.0191 H   0  0  0  0  0  0  0  0  0  0  0  0
   46.8837    1.3777    6.5094 H   0  0  0  0  0  0  0  0  0  0  0  0
   46.9169    1.3716    6.4968 H   0  0  0  0  0  0  0  0  0  0  0  0
   47.0148    1.2276    8.0138 H   0  0  0  0  0  0  0  0  0  0  0  0
   47.0282    1.2246    8.0160 H   0  0  0  0  0  0  0  0  0  0  0  0
   46.9040    1.3740    6.5015 H   0  0  0  0  0  0  0  0  0  0  0  0
   46.8737    1.3795    6.5137 H   0  0  0  0  0  0  0  0  0  0  0  0
   47.0603    1.2173    8.0204 H   0  0  0  0  0  0  0  0  0  0  0  0
   46.9191    1.3712    6.4960 H   0  0  0  0  0  0  0  0  0  0  0  0
   47.0125    1.2281    8.0134 H   0  0  0  0  0  0  0  0  0  0  0  0
   47.0379    1.2224    8.0175 H   0  0  0  0  0  0  0  0  0  0  0  0
   46.8948    1.3757    6.5050 H   0  0  0  0  0  0  0  0  0  0  0  0
  2  3  2  0
  2  4  2  0
  2  5  1  0
  2  6  1  0
  1 18  1  0
  1 19  1  0
  9 20  1  0
  9 21  1  0
 10 22  1  0
 10 23  1  0
 11 24  1  0
 11 25  1  0
 12 26  1  0
 12 27  1  0
 13 28  1  0
 13 29  1  0
 14 30  1  0
 14 31  1  0
 15 32  1  0
 15 33  1  0
 16 34  1  0
 16 35  1  0
 17 36  1  0
 17 37  1  0
M  CHG  4   5  -1   6  -1   7   1   8   1
M  END
> <Uni-Dock RESULT> 
ENERGY=   -6.791  LOWER_BOUND=    0.534  UPPER_BOUND=    1.283
INTER + INTRA:          -6.791
INTER:                  -6.791
INTRA:                   0.000
UNBOUND:                 0.000

$$$$

     RDKit          3D

 37 24  0  0  0  0  0  0  0  0999 V2000
   46.9298    0.6186    7.5297 O   0  0  0  0  0  0  0  0  0  0  0  0
   47.0823    0.9562    7.3848 S   0  0  0  0  0  0  0  0  0  0  0  0
   46.2732    1.6569    8.3986 O   0  0  0  0  0  0  0  0  0  0  0  0
   46.4687    1.1359    6.0564 O   0  0  0  0  0  0  0  0  0  0  0  0
   48.4474    1.5128    7.3751 O   0  0  0  0  0  0  0  0  0  0  0  0
   47.1398   -0.4807    7.7093 O   0  0  0  0  0  0  0  0  0  0  0  0
   47.0823    0.9562    7.3848 Na  0  0  0  0  0 15  0  0  0  0  0  0
   47.0823    0.9562    7.3848 Na  0  0  0  0  0 15  0  0  0  0  0  0
   46.9413    0.6212    7.5466 O   0  0  0  0  0  0  0  0  0  0  0  0
   46.9500    0.6237    7.5585 O   0  0  0  0  0  0  0  0  0  0  0  0
   46.9390    0.6206    7.5432 O   0  0  0  0  0  0  0  0  0  0  0  0
   46.9384    0.6204    7.5423 O   0  0  0  0  0  0  0  0  0  0  0  0
   46.9488    0.6233    7.5569 O   0  0  0  0  0  0  0  0  0  0  0  0
   46.9447    0.6221    7.5513 O   0  0  0  0  0  0  0  0  0  0  0  0
   46.9352    0.6197    7.5378 O   0  0  0  0  0  0  0  0  0  0  0  0
   46.9495    0.6235    7.5578 O   0  0  0  0  0  0  0  0  0  0  0  0
   46.9419    0.6213    7.5473 O   0  0  0  0  0  0  0  0  0  0  0  0
   46.7365    1.0450    6.6812 H   0  0  0  0  0  0  0  0  0  0  0  0
   47.5806    1.2051    7.9435 H   0  0  0  0  0  0  0  0  0  0  0  0
   46.7160    1.0101    6.6881 H   0  0  0  0  0  0  0  0  0  0  0  0
   47.5895    1.2374    7.9198 H   0  0  0  0  0  0  0  0  0  0  0  0
   47.5950    1.2602    7.9017 H   0  0  0  0  0  0  0  0  0  0  0  0
   46.7018    0.9848    6.6942 H   0  0  0  0  0  0  0  0  0  0  0  0
   47.5878    1.2309    7.9247 H   0  0  0  0  0  0  0  0  0  0  0  0
   46.7200    1.0171    6.6866 H   0  0  0  0  0  0  0  0  0  0  0  0
   47.5873    1.2293    7.9259 H   0  0  0  0  0  0  0  0  0  0  0  0
   46.7211    1.0189    6.6862 H   0  0  0  0  0  0  0  0  0  0  0  0
   46.7037    0.9882    6.6934 H   0  0  0  0  0  0  0  0  0  0  0  0
   47.5943    1.2572    7.9042 H   0  0  0  0  0  0  0  0  0  0  0  0
   47.5917    1.2465    7.9127 H   0  0  0  0  0  0  0  0  0  0  0  0
   46.7103    1.0001    6.6905 H   0  0  0  0  0  0  0  0  0  0  0  0
   46.7266    1.0283    6.6844 H   0  0  0  0  0  0  0  0  0  0  0  0
   47.5850    1.2206    7.9324 H   0  0  0  0  0  0  0  0  0  0  0  0
   46.7026    0.9862    6.6939 H   0  0  0  0  0  0  0  0  0  0  0  0
   47.5947    1.2590    7.9027 H   0  0  0  0  0  0  0  0  0  0  0  0
   47.5898    1.2387    7.9187 H   0  0  0  0  0  0  0  0  0  0  0  0
   46.7152    1.0086    6.6885 H   0  0  0  0  0  0  0  0  0  0  0  0
  2  3  2  0
  2  4  2  0
  2  5  1  0
  2  6  1  0
  1 18  1  0
  1 19  1  0
  9 20  1  0
  9 21  1  0
 10 22  1  0
 10 23  1  0
 11 24  1  0
 11 25  1  0
 12 26  1  0
 12 27  1  0
 13 28  1  0
 13 29  1  0
 14 30  1  0
 14 31  1  0
 15 32  1  0
 15 33  1  0
 16 34  1  0
 16 35  1  0
 17 36  1  0
 17 37  1  0
M  CHG  4   5  -1   6  -1   7   1   8   1
M  END
> <Uni-Dock RESULT> 
ENERGY=   -6.510  LOWER_BOUND=    0.228  UPPER_BOUND=    1.042
INTER + INTRA:          -6.510
INTER:                  -6.510
INTRA:                   0.000
UNBOUND:                 0.000

$$$$

     RDKit          3D

 37 24  0  0  0  0  0  0  0  0999 V2000
   48.1125    2.1432    5.6832 O   0  0  0  0  0  0  0  0  0  0  0  0
   47.8503    2.2463    5.9640 S   0  0  0  0  0  0  0  0  0  0  0  0
   49.0053    2.7182    6.7493 O   0  0  0  0  0  0  0  0  0  0  0  0
   47.3533    0.9804    6.5330 O   0  0  0  0  0  0  0  0  0  0  0  0
   46.7796    3.2588    6.0079 O   0  0  0  0  0  0  0  0  0  0  0  0
   48.2630    2.0281    4.5657 O   0  0  0  0  0  0  0  0  0  0  0  0
   47.8503    2.2463    5.9640 Na  0  0  0  0  0 15  0  0  0  0  0  0
   47.8503    2.2463    5.9640 Na  0  0  0  0  0 15  0  0  0  0  0  0
   48.1153    2.1633    5.6791 O   0  0  0  0  0  0  0  0  0  0  0  0
   48.1169    2.1780    5.6767 O   0  0  0  0  0  0  0  0  0  0  0  0
   48.1148    2.1592    5.6799 O   0  0  0  0  0  0  0  0  0  0  0  0
   48.1146    2.1582    5.6801 O   0  0  0  0  0  0  0  0  0  0  0  0
   48.1167    2.1759    5.6770 O   0  0  0  0  0  0  0  0  0  0  0  0
   48.1160    2.1690    5.6781 O   0  0  0  0  0  0  0  0  0  0  0  0
   48.1139    2.1527    5.6811 O   0  0  0  0  0  0  0  0  0  0  0  0
   48.1168    2.1771    5.6768 O   0  0  0  0  0  0  0  0  0  0  0  0
   48.1154    2.1641    5.6790 O   0  0  0  0  0  0  0  0  0  0  0  0
   47.6030    1.5610    6.2667 H   0  0  0  0  0  0  0  0  0  0  0  0
   47.8353    3.0349    5.9421 H   0  0  0  0  0  0  0  0  0  0  0  0
   47.6279    1.5417    6.2404 H   0  0  0  0  0  0  0  0  0  0  0  0
   47.8076    3.0341    5.9724 H   0  0  0  0  0  0  0  0  0  0  0  0
   47.7876    3.0323    5.9942 H   0  0  0  0  0  0  0  0  0  0  0  0
   47.6463    1.5288    6.2210 H   0  0  0  0  0  0  0  0  0  0  0  0
   47.8132    3.0344    5.9662 H   0  0  0  0  0  0  0  0  0  0  0  0
   47.6229    1.5454    6.2457 H   0  0  0  0  0  0  0  0  0  0  0  0
   47.8146    3.0345    5.9647 H   0  0  0  0  0  0  0  0  0  0  0  0
   47.6216    1.5464    6.2471 H   0  0  0  0  0  0  0  0  0  0  0  0
   47.6438    1.5305    6.2236 H   0  0  0  0  0  0  0  0  0  0  0  0
   47.7903    3.0326    5.9912 H   0  0  0  0  0  0  0  0  0  0  0  0
   47.7997    3.0335    5.9810 H   0  0  0  0  0  0  0  0  0  0  0  0
   47.6352    1.5365    6.2328 H   0  0  0  0  0  0  0  0  0  0  0  0
   47.6149    1.5516    6.2542 H   0  0  0  0  0  0  0  0  0  0  0  0
   47.8221    3.0347    5.9565 H   0  0  0  0  0  0  0  0  0  0  0  0
   47.6453    1.5296    6.2221 H   0  0  0  0  0  0  0  0  0  0  0  0
   47.7887    3.0324    5.9930 H   0  0  0  0  0  0  0  0  0  0  0  0
   47.8064    3.0340    5.9736 H   0  0  0  0  0  0  0  0  0  0  0  0
   47.6290    1.5409    6.2393 H   0  0  0  0  0  0  0  0  0  0  0  0
  2  3  2  0
  2  4  2  0
  2  5  1  0
  2  6  1  0
  1 18  1  0
  1 19  1  0
  9 20  1  0
  9 21  1  0
 10 22  1  0
 10 23  1  0
 11 24  1  0
 11 25  1  0
 12 26  1  0
 12 27  1  0
 13 28  1  0
 13 29  1  0
 14 30  1  0
 14 31  1  0
 15 32  1  0
 15 33  1  0
 16 34  1  0
 16 35  1  0
 17 36  1  0
 17 37  1  0
M  CHG  4   5  -1   6  -1   7   1   8   1
M  END
> <Uni-Dock RESULT> 
ENERGY=   -6.505  LOWER_BOUND=    1.842  UPPER_BOUND=    2.429
INTER + INTRA:          -6.505
INTER:                  -6.505
INTRA:                   0.000
UNBOUND:                 0.000

$$$$

     RDKit          3D

 37 24  0  0  0  0  0  0  0  0999 V2000
   42.2384    5.5569   11.9130 O   0  0  0  0  0  0  0  0  0  0  0  0
   42.6340    5.5418   11.9509 S   0  0  0  0  0  0  0  0  0  0  0  0
   42.5546    4.1960   11.3543 O   0  0  0  0  0  0  0  0  0  0  0  0
   42.8942    5.4235   13.3972 O   0  0  0  0  0  0  0  0  0  0  0  0
   43.7284    6.2975   11.3149 O   0  0  0  0  0  0  0  0  0  0  0  0
   41.3589    6.2500   11.7373 O   0  0  0  0  0  0  0  0  0  0  0  0
   42.6340    5.5418   11.9509 Na  0  0  0  0  0 15  0  0  0  0  0  0
   42.6340    5.5418   11.9509 Na  0  0  0  0  0 15  0  0  0  0  0  0
   42.2409    5.5587   11.8926 O   0  0  0  0  0  0  0  0  0  0  0  0
   42.2434    5.5600   11.8779 O   0  0  0  0  0  0  0  0  0  0  0  0
   42.2403    5.5584   11.8967 O   0  0  0  0  0  0  0  0  0  0  0  0
   42.2402    5.5583   11.8977 O   0  0  0  0  0  0  0  0  0  0  0  0
   42.2430    5.5598   11.8799 O   0  0  0  0  0  0  0  0  0  0  0  0
   42.2418    5.5592   11.8868 O   0  0  0  0  0  0  0  0  0  0  0  0
   42.2394    5.5578   11.9033 O   0  0  0  0  0  0  0  0  0  0  0  0
   42.2433    5.5599   11.8788 O   0  0  0  0  0  0  0  0  0  0  0  0
   42.2410    5.5588   11.8917 O   0  0  0  0  0  0  0  0  0  0  0  0
   42.7570    5.4665   12.7266 H   0  0  0  0  0  0  0  0  0  0  0  0
   42.9069    5.6019   11.2131 H   0  0  0  0  0  0  0  0  0  0  0  0
   42.7162    5.4672   12.7320 H   0  0  0  0  0  0  0  0  0  0  0  0
   42.9451    5.5994   11.2281 H   0  0  0  0  0  0  0  0  0  0  0  0
   42.9720    5.5975   11.2402 H   0  0  0  0  0  0  0  0  0  0  0  0
   42.6867    5.4678   12.7347 H   0  0  0  0  0  0  0  0  0  0  0  0
   42.9374    5.6000   11.2249 H   0  0  0  0  0  0  0  0  0  0  0  0
   42.7244    5.4670   12.7310 H   0  0  0  0  0  0  0  0  0  0  0  0
   42.9355    5.6001   11.2241 H   0  0  0  0  0  0  0  0  0  0  0  0
   42.7265    5.4670   12.7308 H   0  0  0  0  0  0  0  0  0  0  0  0
   42.6907    5.4677   12.7343 H   0  0  0  0  0  0  0  0  0  0  0  0
   42.9684    5.5978   11.2385 H   0  0  0  0  0  0  0  0  0  0  0  0
   42.9558    5.5987   11.2328 H   0  0  0  0  0  0  0  0  0  0  0  0
   42.7046    5.4674   12.7331 H   0  0  0  0  0  0  0  0  0  0  0  0
   42.7375    5.4668   12.7294 H   0  0  0  0  0  0  0  0  0  0  0  0
   42.9252    5.6008   11.2200 H   0  0  0  0  0  0  0  0  0  0  0  0
   42.6884    5.4678   12.7345 H   0  0  0  0  0  0  0  0  0  0  0  0
   42.9705    5.5976   11.2395 H   0  0  0  0  0  0  0  0  0  0  0  0
   42.9466    5.5993   11.2288 H   0  0  0  0  0  0  0  0  0  0  0  0
   42.7146    5.4672   12.7322 H   0  0  0  0  0  0  0  0  0  0  0  0
  2  3  2  0
  2  4  2  0
  2  5  1  0
  2  6  1  0
  1 18  1  0
  1 19  1  0
  9 20  1  0
  9 21  1  0
 10 22  1  0
 10 23  1  0
 11 24  1  0
 11 25  1  0
 12 26  1  0
 12 27  1  0
 13 28  1  0
 13 29  1  0
 14 30  1  0
 14 31  1  0
 15 32  1  0
 15 33  1  0
 16 34  1  0
 16 35  1  0
 17 36  1  0
 17 37  1  0
M  CHG  4   5  -1   6  -1   7   1   8   1
M  END
> <Uni-Dock RESULT> 
ENERGY=   -6.320  LOWER_BOUND=    7.110  UPPER_BOUND=    8.098
INTER + INTRA:          -6.320
INTER:                  -6.320
INTRA:                   0.000
UNBOUND:                 0.000

$$$$

     RDKit          3D

 37 24  0  0  0  0  0  0  0  0999 V2000
   40.1208   12.2304   15.8013 O   0  0  0  0  0  0  0  0  0  0  0  0
   39.9645   12.5353   15.5992 S   0  0  0  0  0  0  0  0  0  0  0  0
   38.7203   12.2842   16.3491 O   0  0  0  0  0  0  0  0  0  0  0  0
   39.8074   12.0589   14.2129 O   0  0  0  0  0  0  0  0  0  0  0  0
   40.2509   13.9814   15.5924 O   0  0  0  0  0  0  0  0  0  0  0  0
   41.0794   11.8166   16.2424 O   0  0  0  0  0  0  0  0  0  0  0  0
   39.9645   12.5353   15.5992 Na  0  0  0  0  0 15  0  0  0  0  0  0
   39.9645   12.5353   15.5992 Na  0  0  0  0  0 15  0  0  0  0  0  0
   40.1209   12.2423   15.8182 O   0  0  0  0  0  0  0  0  0  0  0  0
   40.1207   12.2515   15.8301 O   0  0  0  0  0  0  0  0  0  0  0  0
   40.1209   12.2398   15.8149 O   0  0  0  0  0  0  0  0  0  0  0  0
   40.1209   12.2392   15.8140 O   0  0  0  0  0  0  0  0  0  0  0  0
   40.1207   12.2501   15.8284 O   0  0  0  0  0  0  0  0  0  0  0  0
   40.1208   12.2458   15.8229 O   0  0  0  0  0  0  0  0  0  0  0  0
   40.1209   12.2359   15.8095 O   0  0  0  0  0  0  0  0  0  0  0  0
   40.1207   12.2509   15.8294 O   0  0  0  0  0  0  0  0  0  0  0  0
   40.1209   12.2428   15.8189 O   0  0  0  0  0  0  0  0  0  0  0  0
   39.8752   12.2620   14.8644 H   0  0  0  0  0  0  0  0  0  0  0  0
   39.8975   13.1135   16.1318 H   0  0  0  0  0  0  0  0  0  0  0  0
   39.8908   12.2261   14.8771 H   0  0  0  0  0  0  0  0  0  0  0  0
   39.8818   13.1374   16.1023 H   0  0  0  0  0  0  0  0  0  0  0  0
   39.8706   13.1536   16.0802 H   0  0  0  0  0  0  0  0  0  0  0  0
   39.9022   12.2007   14.8873 H   0  0  0  0  0  0  0  0  0  0  0  0
   39.8850   13.1326   16.1084 H   0  0  0  0  0  0  0  0  0  0  0  0
   39.8876   12.2333   14.8744 H   0  0  0  0  0  0  0  0  0  0  0  0
   39.8857   13.1315   16.1099 H   0  0  0  0  0  0  0  0  0  0  0  0
   39.8868   12.2351   14.8737 H   0  0  0  0  0  0  0  0  0  0  0  0
   39.9006   12.2042   14.8859 H   0  0  0  0  0  0  0  0  0  0  0  0
   39.8721   13.1515   16.0832 H   0  0  0  0  0  0  0  0  0  0  0  0
   39.8774   13.1439   16.0936 H   0  0  0  0  0  0  0  0  0  0  0  0
   39.8953   12.2161   14.8811 H   0  0  0  0  0  0  0  0  0  0  0  0
   39.8826   12.2448   14.8703 H   0  0  0  0  0  0  0  0  0  0  0  0
   39.8900   13.1250   16.1179 H   0  0  0  0  0  0  0  0  0  0  0  0
   39.9015   12.2022   14.8868 H   0  0  0  0  0  0  0  0  0  0  0  0
   39.8712   13.1527   16.0814 H   0  0  0  0  0  0  0  0  0  0  0  0
   39.8812   13.1383   16.1010 H   0  0  0  0  0  0  0  0  0  0  0  0
   39.8914   12.2247   14.8776 H   0  0  0  0  0  0  0  0  0  0  0  0
  2  3  2  0
  2  4  2  0
  2  5  1  0
  2  6  1  0
  1 18  1  0
  1 19  1  0
  9 20  1  0
  9 21  1  0
 10 22  1  0
 10 23  1  0
 11 24  1  0
 11 25  1  0
 12 26  1  0
 12 27  1  0
 13 28  1  0
 13 29  1  0
 14 30  1  0
 14 31  1  0
 15 32  1  0
 15 33  1  0
 16 34  1  0
 16 35  1  0
 17 36  1  0
 17 37  1  0
M  CHG  4   5  -1   6  -1   7   1   8   1
M  END
> <Uni-Dock RESULT> 
ENERGY=   -6.118  LOWER_BOUND=   15.190  UPPER_BOUND=   15.893
INTER + INTRA:          -6.118
INTER:                  -6.118
INTRA:                   0.000
UNBOUND:                 0.000

$$$$

     RDKit          3D

 37 24  0  0  0  0  0  0  0  0999 V2000
   42.5718    5.3031   12.5472 O   0  0  0  0  0  0  0  0  0  0  0  0
   42.7981    5.3644   12.2260 S   0  0  0  0  0  0  0  0  0  0  0  0
   41.7505    6.2964   11.7706 O   0  0  0  0  0  0  0  0  0  0  0  0
   42.7239    4.1196   11.4396 O   0  0  0  0  0  0  0  0  0  0  0  0
   44.1224    5.9848   12.0402 O   0  0  0  0  0  0  0  0  0  0  0  0
   42.5955    5.0568   13.6534 O   0  0  0  0  0  0  0  0  0  0  0  0
   42.7981    5.3644   12.2260 Na  0  0  0  0  0 15  0  0  0  0  0  0
   42.7981    5.3644   12.2260 Na  0  0  0  0  0 15  0  0  0  0  0  0
   42.5767    5.3220   12.5538 O   0  0  0  0  0  0  0  0  0  0  0  0
   42.5807    5.3359   12.5579 O   0  0  0  0  0  0  0  0  0  0  0  0
   42.5757    5.3182   12.5526 O   0  0  0  0  0  0  0  0  0  0  0  0
   42.5754    5.3172   12.5522 O   0  0  0  0  0  0  0  0  0  0  0  0
   42.5801    5.3339   12.5573 O   0  0  0  0  0  0  0  0  0  0  0  0
   42.5782    5.3275   12.5555 O   0  0  0  0  0  0  0  0  0  0  0  0
   42.5740    5.3121   12.5505 O   0  0  0  0  0  0  0  0  0  0  0  0
   42.5805    5.3351   12.5576 O   0  0  0  0  0  0  0  0  0  0  0  0
   42.5769    5.3229   12.5540 O   0  0  0  0  0  0  0  0  0  0  0  0
   42.7388    4.6964   11.8103 H   0  0  0  0  0  0  0  0  0  0  0  0
   43.0838    6.0937   12.3202 H   0  0  0  0  0  0  0  0  0  0  0  0
   42.7140    4.6817   11.8396 H   0  0  0  0  0  0  0  0  0  0  0  0
   43.1037    6.0894   12.2845 H   0  0  0  0  0  0  0  0  0  0  0  0
   43.1175    6.0851   12.2587 H   0  0  0  0  0  0  0  0  0  0  0  0
   42.6961    4.6722   11.8613 H   0  0  0  0  0  0  0  0  0  0  0  0
   43.0997    6.0904   12.2918 H   0  0  0  0  0  0  0  0  0  0  0  0
   42.7190    4.6845   11.8336 H   0  0  0  0  0  0  0  0  0  0  0  0
   43.0987    6.0907   12.2936 H   0  0  0  0  0  0  0  0  0  0  0  0
   42.7202    4.6852   11.8321 H   0  0  0  0  0  0  0  0  0  0  0  0
   42.6986    4.6735   11.8583 H   0  0  0  0  0  0  0  0  0  0  0  0
   43.1157    6.0857   12.2622 H   0  0  0  0  0  0  0  0  0  0  0  0
   43.1092    6.0878   12.2743 H   0  0  0  0  0  0  0  0  0  0  0  0
   42.7069    4.6779   11.8481 H   0  0  0  0  0  0  0  0  0  0  0  0
   42.7269    4.6892   11.8242 H   0  0  0  0  0  0  0  0  0  0  0  0
   43.0934    6.0919   12.3032 H   0  0  0  0  0  0  0  0  0  0  0  0
   42.6971    4.6727   11.8601 H   0  0  0  0  0  0  0  0  0  0  0  0
   43.1168    6.0853   12.2601 H   0  0  0  0  0  0  0  0  0  0  0  0
   43.1045    6.0892   12.2831 H   0  0  0  0  0  0  0  0  0  0  0  0
   42.7129    4.6811   11.8408 H   0  0  0  0  0  0  0  0  0  0  0  0
  2  3  2  0
  2  4  2  0
  2  5  1  0
  2  6  1  0
  1 18  1  0
  1 19  1  0
  9 20  1  0
  9 21  1  0
 10 22  1  0
 10 23  1  0
 11 24  1  0
 11 25  1  0
 12 26  1  0
 12 27  1  0
 13 28  1  0
 13 29  1  0
 14 30  1  0
 14 31  1  0
 15 32  1  0
 15 33  1  0
 16 34  1  0
 16 35  1  0
 17 36  1  0
 17 37  1  0
M  CHG  4   5  -1   6  -1   7   1   8   1
M  END
> <Uni-Dock RESULT> 
ENERGY=   -6.023  LOWER_BOUND=    7.028  UPPER_BOUND=    8.141
INTER + INTRA:          -6.023
INTER:                  -6.023
INTRA:                   0.000
UNBOUND:                 0.000

$$$$

     RDKit          3D

 37 24  0  0  0  0  0  0  0  0999 V2000
   40.3707   12.2601   15.7049 O   0  0  0  0  0  0  0  0  0  0  0  0
   40.0280   12.4588   15.6682 S   0  0  0  0  0  0  0  0  0  0  0  0
   39.9786   11.9483   14.2860 O   0  0  0  0  0  0  0  0  0  0  0  0
   40.3925   13.8872   15.6517 O   0  0  0  0  0  0  0  0  0  0  0  0
   38.7059   12.2962   16.2997 O   0  0  0  0  0  0  0  0  0  0  0  0
   41.0352   11.7034   16.4352 O   0  0  0  0  0  0  0  0  0  0  0  0
   40.0280   12.4588   15.6682 Na  0  0  0  0  0 15  0  0  0  0  0  0
   40.0280   12.4588   15.6682 Na  0  0  0  0  0 15  0  0  0  0  0  0
   40.3599   12.2425   15.7049 O   0  0  0  0  0  0  0  0  0  0  0  0
   40.3515   12.2301   15.7048 O   0  0  0  0  0  0  0  0  0  0  0  0
   40.3621   12.2459   15.7049 O   0  0  0  0  0  0  0  0  0  0  0  0
   40.3627   12.2469   15.7049 O   0  0  0  0  0  0  0  0  0  0  0  0
   40.3527   12.2318   15.7048 O   0  0  0  0  0  0  0  0  0  0  0  0
   40.3567   12.2375   15.7049 O   0  0  0  0  0  0  0  0  0  0  0  0
   40.3657   12.2516   15.7049 O   0  0  0  0  0  0  0  0  0  0  0  0
   40.3520   12.2308   15.7048 O   0  0  0  0  0  0  0  0  0  0  0  0
   40.3594   12.2417   15.7049 O   0  0  0  0  0  0  0  0  0  0  0  0
   40.2397   13.2186   15.6486 H   0  0  0  0  0  0  0  0  0  0  0  0
   39.4737   11.8977   15.6510 H   0  0  0  0  0  0  0  0  0  0  0  0
   40.2789   13.2066   15.6523 H   0  0  0  0  0  0  0  0  0  0  0  0
   39.4453   11.9272   15.6473 H   0  0  0  0  0  0  0  0  0  0  0  0
   39.4259   11.9494   15.6447 H   0  0  0  0  0  0  0  0  0  0  0  0
   40.3067   13.1968   15.6549 H   0  0  0  0  0  0  0  0  0  0  0  0
   39.4510   11.9211   15.6480 H   0  0  0  0  0  0  0  0  0  0  0  0
   40.2710   13.2092   15.6515 H   0  0  0  0  0  0  0  0  0  0  0  0
   39.4524   11.9196   15.6482 H   0  0  0  0  0  0  0  0  0  0  0  0
   40.2690   13.2098   15.6513 H   0  0  0  0  0  0  0  0  0  0  0  0
   40.3029   13.1982   15.6546 H   0  0  0  0  0  0  0  0  0  0  0  0
   39.4285   11.9464   15.6451 H   0  0  0  0  0  0  0  0  0  0  0  0
   39.4376   11.9360   15.6463 H   0  0  0  0  0  0  0  0  0  0  0  0
   40.2898   13.2028   15.6533 H   0  0  0  0  0  0  0  0  0  0  0  0
   40.2585   13.2131   15.6503 H   0  0  0  0  0  0  0  0  0  0  0  0
   39.4600   11.9116   15.6492 H   0  0  0  0  0  0  0  0  0  0  0  0
   40.3051   13.1973   15.6548 H   0  0  0  0  0  0  0  0  0  0  0  0
   39.4270   11.9482   15.6448 H   0  0  0  0  0  0  0  0  0  0  0  0
   39.4443   11.9285   15.6472 H   0  0  0  0  0  0  0  0  0  0  0  0
   40.2804   13.2061   15.6524 H   0  0  0  0  0  0  0  0  0  0  0  0
  2  3  2  0
  2  4  2  0
  2  5  1  0
  2  6  1  0
  1 18  1  0
  1 19  1  0
  9 20  1  0
  9 21  1  0
 10 22  1  0
 10 23  1  0
 11 24  1  0
 11 25  1  0
 12 26  1  0
 12 27  1  0
 13 28  1  0
 13 29  1  0
 14 30  1  0
 14 31  1  0
 15 32  1  0
 15 33  1  0
 16 34  1  0
 16 35  1  0
 17 36  1  0
 17 37  1  0
M  CHG  4   5  -1   6  -1   7   1   8   1
M  END
> <Uni-Dock RESULT> 
ENERGY=   -5.896  LOWER_BOUND=   15.074  UPPER_BOUND=   15.764
INTER + INTRA:          -5.896
INTER:                  -5.896
INTRA:                   0.000
UNBOUND:                 0.000

$$$$

     RDKit          3D

 37 24  0  0  0  0  0  0  0  0999 V2000
   47.3057    1.1605    6.7972 O   0  0  0  0  0  0  0  0  0  0  0  0
   47.2510    1.2136    7.1876 S   0  0  0  0  0  0  0  0  0  0  0  0
   48.6501    1.6758    7.2348 O   0  0  0  0  0  0  0  0  0  0  0  0
   47.1605   -0.1388    7.7676 O   0  0  0  0  0  0  0  0  0  0  0  0
   46.4017    2.1378    7.9609 O   0  0  0  0  0  0  0  0  0  0  0  0
   46.7917    1.1795    5.7872 O   0  0  0  0  0  0  0  0  0  0  0  0
   47.2510    1.2136    7.1876 Na  0  0  0  0  0 15  0  0  0  0  0  0
   47.2510    1.2136    7.1876 Na  0  0  0  0  0 15  0  0  0  0  0  0
   47.3059    1.1810    6.7949 O   0  0  0  0  0  0  0  0  0  0  0  0
   47.3058    1.1959    6.7940 O   0  0  0  0  0  0  0  0  0  0  0  0
   47.3059    1.1769    6.7953 O   0  0  0  0  0  0  0  0  0  0  0  0
   47.3058    1.1758    6.7954 O   0  0  0  0  0  0  0  0  0  0  0  0
   47.3059    1.1939    6.7941 O   0  0  0  0  0  0  0  0  0  0  0  0
   47.3059    1.1869    6.7945 O   0  0  0  0  0  0  0  0  0  0  0  0
   47.3058    1.1702    6.7959 O   0  0  0  0  0  0  0  0  0  0  0  0
   47.3059    1.1950    6.7940 O   0  0  0  0  0  0  0  0  0  0  0  0
   47.3059    1.1819    6.7949 O   0  0  0  0  0  0  0  0  0  0  0  0
   47.2168    0.4836    7.4849 H   0  0  0  0  0  0  0  0  0  0  0  0
   47.2304    1.9968    7.2807 H   0  0  0  0  0  0  0  0  0  0  0  0
   47.2222    0.4690    7.4469 H   0  0  0  0  0  0  0  0  0  0  0  0
   47.2248    1.9908    7.3210 H   0  0  0  0  0  0  0  0  0  0  0  0
   47.2209    1.9851    7.3498 H   0  0  0  0  0  0  0  0  0  0  0  0
   47.2262    0.4597    7.4190 H   0  0  0  0  0  0  0  0  0  0  0  0
   47.2259    1.9921    7.3128 H   0  0  0  0  0  0  0  0  0  0  0  0
   47.2211    0.4718    7.4546 H   0  0  0  0  0  0  0  0  0  0  0  0
   47.2262    1.9925    7.3109 H   0  0  0  0  0  0  0  0  0  0  0  0
   47.2208    0.4725    7.4565 H   0  0  0  0  0  0  0  0  0  0  0  0
   47.2256    0.4609    7.4228 H   0  0  0  0  0  0  0  0  0  0  0  0
   47.2214    1.9860    7.3459 H   0  0  0  0  0  0  0  0  0  0  0  0
   47.2233    1.9886    7.3324 H   0  0  0  0  0  0  0  0  0  0  0  0
   47.2238    0.4653    7.4359 H   0  0  0  0  0  0  0  0  0  0  0  0
   47.2194    0.4764    7.4668 H   0  0  0  0  0  0  0  0  0  0  0  0
   47.2277    1.9941    7.3000 H   0  0  0  0  0  0  0  0  0  0  0  0
   47.2260    0.4602    7.4206 H   0  0  0  0  0  0  0  0  0  0  0  0
   47.2211    1.9855    7.3482 H   0  0  0  0  0  0  0  0  0  0  0  0
   47.2246    1.9904    7.3226 H   0  0  0  0  0  0  0  0  0  0  0  0
   47.2224    0.4684    7.4453 H   0  0  0  0  0  0  0  0  0  0  0  0
  2  3  2  0
  2  4  2  0
  2  5  1  0
  2  6  1  0
  1 18  1  0
  1 19  1  0
  9 20  1  0
  9 21  1  0
 10 22  1  0
 10 23  1  0
 11 24  1  0
 11 25  1  0
 12 26  1  0
 12 27  1  0
 13 28  1  0
 13 29  1  0
 14 30  1  0
 14 31  1  0
 15 32  1  0
 15 33  1  0
 16 34  1  0
 16 35  1  0
 17 36  1  0
 17 37  1  0
M  CHG  4   5  -1   6  -1   7   1   8   1
M  END
> <Uni-Dock RESULT> 
ENERGY=   -5.660  LOWER_BOUND=    0.673  UPPER_BOUND=    1.120
INTER + INTRA:          -5.660
INTER:                  -5.660
INTRA:                   0.000
UNBOUND:                 0.000

$$$$
