
     RDKit          2D

 16 17  0  0  0  0  0  0  0  0999 V2000
    2.9667   -4.7542    0.0000 C   0  0  0  0  0  0  0  0  0  0  0  0
    3.2042   -4.1167    0.0000 N   0  0  0  0  0  0  0  0  0  0  0  0
    3.5292   -5.2042    0.0000 O   0  0  0  0  0  0  0  0  0  0  0  0
    2.3167   -4.9750    0.0000 O   0  0  0  0  0  0  0  0  0  0  0  0
    4.1250   -4.8125    0.0000 C   0  0  0  0  0  0  0  0  0  0  0  0
    5.9792   -5.1792    0.0000 C   0  0  0  0  0  0  0  0  0  0  0  0
    7.2167   -5.1750    0.0000 C   0  0  0  0  0  0  0  0  0  0  0  0
    6.5750   -6.2500    0.0000 C   0  0  0  0  0  0  0  0  0  0  0  0
    3.9125   -4.1292    0.0000 C   0  0  0  0  0  0  0  0  0  0  0  0
    5.3292   -4.8125    0.0000 O   0  0  0  0  0  0  0  0  0  0  0  0
    5.9792   -5.9042    0.0000 C   0  0  0  0  0  0  0  0  0  0  0  0
    6.5917   -4.8125    0.0000 C   0  0  0  0  0  0  0  0  0  0  0  0
    7.2167   -5.9000    0.0000 C   0  0  0  0  0  0  0  0  0  0  0  0
    4.7292   -5.1625    0.0000 C   0  0  0  0  0  0  0  0  0  0  0  0
    7.8542   -4.8042    0.0000 C   0  0  0  0  0  0  0  0  0  0  0  0
    6.5667   -6.9375    0.0000 C   0  0  0  0  0  0  0  0  0  0  0  0
  2  1  1  0
  3  1  1  0
  4  1  2  0
  5  3  1  0
  6 10  1  0
  7 12  1  0
  8 11  2  0
  9  2  1  0
 10 14  1  0
 11  6  1  0
 12  6  2  0
 13  7  2  0
 14  5  1  0
 15  7  1  0
 16  8  1  0
  9  5  1  0
 13  8  1  0
M  END
> <chembl_id>
CHEMBL1079604

> <chembl_pref_name>
METAXALONE
