
     RDKit          2D

 42 47  0  0  0  0  0  0  0  0999 V2000
   -5.8583    4.6499    0.0000 C   0  0  0  0  0  0  0  0  0  0  0  0
   -6.5728    4.2374    0.0000 C   0  0  0  0  0  0  0  0  0  0  0  0
   -6.5728    3.4124    0.0000 C   0  0  0  0  0  0  0  0  0  0  0  0
   -5.8583    2.9998    0.0000 C   0  0  0  0  0  0  0  0  0  0  0  0
   -5.1438    3.4124    0.0000 C   0  0  0  0  0  0  0  0  0  0  0  0
   -5.1438    4.2374    0.0000 C   0  0  0  0  0  0  0  0  0  0  0  0
   -5.8583    2.1749    0.0000 C   0  0  0  0  0  0  0  0  0  0  0  0
   -5.1438    1.7624    0.0000 C   0  0  0  0  0  0  0  0  0  0  0  0
   -4.4294    2.1749    0.0000 C   0  0  0  0  0  0  0  0  0  0  0  0
   -4.4294    2.9998    0.0000 O   0  0  0  0  0  0  0  0  0  0  0  0
   -5.1438    0.9374    0.0000 C   0  0  0  0  0  0  0  0  0  0  0  0
   -4.4294    0.5249    0.0000 C   0  0  0  0  0  0  0  0  0  0  0  0
   -4.4294   -0.3001    0.0000 C   0  0  0  0  0  0  0  0  0  0  0  0
   -5.1438   -0.7126    0.0000 C   0  0  0  0  0  0  0  0  0  0  0  0
   -5.8583   -0.3001    0.0000 C   0  0  0  0  0  0  0  0  0  0  0  0
   -5.8583    0.5249    0.0000 C   0  0  0  0  0  0  0  0  0  0  0  0
    0.2846    1.9453    0.0000 C   0  0  0  0  0  0  0  0  0  0  0  0
   -0.5404    1.9453    0.0000 C   0  0  0  0  0  0  0  0  0  0  0  0
   -0.9529    2.6598    0.0000 C   0  0  0  0  0  0  0  0  0  0  0  0
   -0.5404    3.3743    0.0000 C   0  0  0  0  0  0  0  0  0  0  0  0
    0.2846    3.3743    0.0000 C   0  0  0  0  0  0  0  0  0  0  0  0
    0.6971    2.6598    0.0000 C   0  0  0  0  0  0  0  0  0  0  0  0
   -2.2627    1.9924    0.0000 N   0  0  0  0  0  0  0  0  0  0  0  0
   -3.0474    2.2473    0.0000 N   0  0  0  0  0  0  0  0  0  0  0  0
   -3.0474    3.0722    0.0000 C   0  0  0  0  0  0  0  0  0  0  0  0
   -2.2627    3.3273    0.0000 C   0  0  0  0  0  0  0  0  0  0  0  0
   -1.7779    2.6598    0.0000 C   0  0  0  0  0  0  0  0  0  0  0  0
   -3.6605    3.6244    0.0000 N   0  0  0  0  0  0  0  0  0  0  0  0
   -3.4890    4.4313    0.0000 C   0  0  0  0  0  0  0  0  0  0  0  0
   -2.7044    4.6863    0.0000 N   0  0  0  0  0  0  0  0  0  0  0  0
   -2.0913    4.1342    0.0000 C   0  0  0  0  0  0  0  0  0  0  0  0
   -7.2872    4.6499    0.0000 F   0  0  0  0  0  0  0  0  0  0  0  0
   -6.5728    1.7624    0.0000 O   0  0  0  0  0  0  0  0  0  0  0  0
   -6.5728   -0.7126    0.0000 F   0  0  0  0  0  0  0  0  0  0  0  0
   -3.7149    1.7624    0.0000 C   0  0  0  0  0  0  0  0  0  0  0  0
   -3.6871    0.9419    0.0000 C   0  0  0  0  0  0  0  0  0  0  0  0
   -1.3067    4.3892    0.0000 N   0  0  0  0  0  0  0  0  0  0  0  0
    0.6971    1.2309    0.0000 F   0  0  0  0  0  0  0  0  0  0  0  0
    1.5221    2.6598    0.0000 O   0  0  0  0  0  0  0  0  0  0  0  0
    1.9345    3.3742    0.0000 C   0  0  0  0  0  0  0  0  0  0  0  0
    1.5220    4.0887    0.0000 C   0  0  0  0  0  0  0  0  0  0  0  0
    2.7596    3.3743    0.0000 C   0  0  0  0  0  0  0  0  0  0  0  0
  1  2  1  0
  2  3  2  0
  3  4  1  0
  4  5  2  0
  5  6  1  0
  1  6  2  0
  7  8  1  0
  8  9  2  0
  9 10  1  0
  4  7  1  0
  5 10  1  0
 11 12  1  0
 12 13  2  0
 13 14  1  0
 14 15  2  0
 15 16  1  0
 11 16  2  0
 17 18  1  0
 18 19  2  0
 19 20  1  0
 20 21  2  0
 21 22  1  0
 17 22  2  0
 23 24  1  0
 24 25  1  0
 26 27  1  0
 23 27  2  0
 28 29  2  0
 29 30  1  0
 30 31  2  0
 26 31  1  0
 25 28  1  0
 26 25  2  0
  2 32  1  0
  7 33  2  0
  8 11  1  0
 15 34  1  0
  9 35  1  0
 35 24  1  1
 35 36  1  0
 31 37  1  0
 27 19  1  0
 17 38  1  0
 22 39  1  0
 39 40  1  0
 40 41  1  0
 40 42  1  0
M  END
> <chembl_id>
CHEMBL3948730

> <chembl_pref_name>
UMBRALISIB
