
     RDKit          2D

 37 40  0  0  0  0  0  0  0  0999 V2000
    4.2292   -6.7375    0.0000 S   0  0  0  0  0  0  0  0  0  0  0  0
    4.5792   -6.1167    0.0000 O   0  0  0  0  0  0  0  0  0  0  0  0
    3.8667   -6.1167    0.0000 O   0  0  0  0  0  0  0  0  0  0  0  0
    4.8417   -7.0917    0.0000 O   0  0  0  0  0  0  0  0  0  0  0  0
    3.6167   -7.0917    0.0000 C   0  0  0  0  0  0  0  0  0  0  0  0
    0.8833   -7.8375    0.0000 C   0  0  0  0  0  0  0  0  0  0  0  0
    1.4958   -7.4792    0.0000 N   0  0  0  0  0  0  0  0  0  0  0  0
   -2.1042   -7.4792    0.0000 C   0  0  0  0  0  0  0  0  0  0  0  0
   -1.8833   -6.8125    0.0000 C   0  0  0  0  0  0  0  0  0  0  0  0
    0.8833   -8.5500    0.0000 C   0  0  0  0  0  0  0  0  0  0  0  0
    2.1125   -8.5500    0.0000 C   0  0  0  0  0  0  0  0  0  0  0  0
    0.2708   -7.4833    0.0000 N   0  0  0  0  0  0  0  0  0  0  0  0
   -0.9542   -7.4833    0.0000 N   0  0  0  0  0  0  0  0  0  0  0  0
   -2.5708   -6.9542    0.0000 C   0  0  0  0  0  0  0  0  0  0  0  0
    1.4958   -8.9042    0.0000 C   0  0  0  0  0  0  0  0  0  0  0  0
    2.1125   -7.8375    0.0000 C   0  0  0  0  0  0  0  0  0  0  0  0
   -0.3417   -7.8375    0.0000 C   0  0  0  0  0  0  0  0  0  0  0  0
   -1.1750   -6.8125    0.0000 C   0  0  0  0  0  0  0  0  0  0  0  0
   -1.5292   -7.9042    0.0000 C   0  0  0  0  0  0  0  0  0  0  0  0
    1.4958   -6.7708    0.0000 C   0  0  0  0  0  0  0  0  0  0  0  0
    0.2708   -8.9042    0.0000 C   0  0  0  0  0  0  0  0  0  0  0  0
    2.7250   -8.9042    0.0000 C   0  0  0  0  0  0  0  0  0  0  0  0
   -0.3417   -8.5500    0.0000 C   0  0  0  0  0  0  0  0  0  0  0  0
    0.8833   -6.4208    0.0000 C   0  0  0  0  0  0  0  0  0  0  0  0
    0.8792   -5.7167    0.0000 C   0  0  0  0  0  0  0  0  0  0  0  0
    2.1083   -6.4208    0.0000 C   0  0  0  0  0  0  0  0  0  0  0  0
    1.4917   -9.6125    0.0000 O   0  0  0  0  0  0  0  0  0  0  0  0
    2.7250   -9.6125    0.0000 O   0  0  0  0  0  0  0  0  0  0  0  0
   -3.2417   -6.7333    0.0000 N   0  0  0  0  0  0  0  0  0  0  0  0
    1.4958   -5.3583    0.0000 C   0  0  0  0  0  0  0  0  0  0  0  0
   -0.9542   -8.9042    0.0000 F   0  0  0  0  0  0  0  0  0  0  0  0
    0.2708   -6.7792    0.0000 F   0  0  0  0  0  0  0  0  0  0  0  0
    3.3375   -8.5500    0.0000 O   0  0  0  0  0  0  0  0  0  0  0  0
    2.1083   -5.7125    0.0000 C   0  0  0  0  0  0  0  0  0  0  0  0
    1.4958   -4.6500    0.0000 F   0  0  0  0  0  0  0  0  0  0  0  0
   -2.7208   -7.8292    0.0000 H   0  0  0  0  0  0  0  0  0  0  0  0
   -1.8875   -6.1042    0.0000 H   0  0  0  0  0  0  0  0  0  0  0  0
  2  1  2  0
  3  1  2  0
  4  1  1  0
  5  1  1  0
  7  6  1  0
  8 19  1  0
  9 18  1  0
 10  6  1  0
 11 15  1  0
 12  6  2  0
 13 17  1  0
 14  9  1  0
 15 10  1  0
 16  7  1  0
 17 12  1  0
 18 13  1  0
 19 13  1  0
 20  7  1  0
 21 10  2  0
 22 11  1  0
 23 21  1  0
 24 20  1  0
 25 24  2  0
 26 20  2  0
 27 15  2  0
 28 22  2  0
 14 29  1  1
 30 34  2  0
 31 23  1  0
 32 24  1  0
 33 22  1  0
 34 26  1  0
 35 30  1  0
  8 36  1  1
  9 37  1  1
 16 11  2  0
 23 17  2  0
  8  9  1  0
 25 30  1  0
 14  8  1  0
M  END
> <chembl_id>
CHEMBL1200779

> <chembl_pref_name>
TROVAFLOXACIN MESYLATE
