
     RDKit          2D

  8  6  0  0  0  0  0  0  0  0999 V2000
    3.1530   -2.1456    0.0000 Cl  0  0  0  0  0  0  0  0  0  0  0  0
    2.7365   -0.7459    0.0000 C   0  0  0  0  0  0  0  0  0  0  0  0
    2.0149   -1.1576    0.0000 C   0  0  0  0  0  0  0  0  0  0  0  0
    2.7365    0.0823    0.0000 O   0  0  0  0  0  0  0  0  0  0  0  0
    2.0149   -1.9810    0.0000 N   0  0  0  0  0  0  0  0  0  0  0  0
    3.4534   -1.1576    0.0000 O   0  0  0  0  0  0  0  0  0  0  0  0
    0.5910   -1.1576    0.0000 S   0  0  0  0  0  0  0  0  0  0  0  0
    1.3029   -0.7459    0.0000 C   0  0  0  0  0  0  0  0  0  0  0  0
  3  2  1  0
  4  2  2  0
  3  5  1  1
  6  2  1  0
  7  8  1  0
  8  3  1  0
M  END
> <chembl_id>
CHEMBL1200630

> <chembl_pref_name>
CYSTEINE HYDROCHLORIDE
