
     RDKit          2D

 10 10  0  0  0  0  0  0  0  0999 V2000
    2.8732   -1.6536    0.0000 Cl  0  0  0  0  0  0  0  0  0  0  0  0
    0.0000   -1.6536    0.0000 Cl  0  0  0  0  0  0  0  0  0  0  0  0
    3.5870   -0.4233    0.0000 O   0  0  0  0  0  0  0  0  0  0  0  0
    2.1558   -0.4054    0.0000 C   0  0  0  0  0  0  0  0  0  0  0  0
    2.1558   -1.2304    0.0000 C   0  0  0  0  0  0  0  0  0  0  0  0
    0.7138   -1.2304    0.0000 C   0  0  0  0  0  0  0  0  0  0  0  0
    1.4312   -1.6536    0.0000 C   0  0  0  0  0  0  0  0  0  0  0  0
    1.4312    0.0000    0.0000 C   0  0  0  0  0  0  0  0  0  0  0  0
    0.7138   -0.4054    0.0000 C   0  0  0  0  0  0  0  0  0  0  0  0
    2.8625    0.0000    0.0000 C   0  0  0  0  0  0  0  0  0  0  0  0
  1  5  1  0
  2  6  1  0
  3 10  1  0
  4  5  2  0
  4  8  1  0
  4 10  1  0
  5  7  1  0
  6  7  2  0
  6  9  1  0
  8  9  2  0
M  END
> <chembl_id>
CHEMBL3184437

> <chembl_pref_name>
DICHLOROBENZYL ALCOHOL
