
     RDKit          2D

 17 17  0  0  0  0  0  0  0  0999 V2000
   -0.5333   -1.7917    0.0000 C   0  0  0  0  0  0  0  0  0  0  0  0
   -1.7500   -1.7917    0.0000 C   0  0  0  0  0  0  0  0  0  0  0  0
   -1.1375   -2.1542    0.0000 N   0  0  0  0  0  0  0  0  0  0  0  0
    0.0750   -2.1542    0.0000 N   0  0  0  0  0  0  0  0  0  0  0  0
   -0.5333   -1.0917    0.0000 N   0  0  0  0  0  0  0  0  0  0  0  0
   -1.7500   -1.0917    0.0000 N   0  0  0  0  0  0  0  0  0  0  0  0
   -2.3750   -2.1542    0.0000 N   0  0  0  0  0  0  0  0  0  0  0  0
    0.7042   -1.7917    0.0000 C   0  0  0  0  0  0  0  0  0  0  0  0
    1.9292   -1.0917    0.0000 C   0  0  0  0  0  0  0  0  0  0  0  0
    2.5542   -0.7292    0.0000 Cl  0  0  0  0  0  0  0  0  0  0  0  0
    1.3167   -2.1417    0.0000 C   0  0  0  0  0  0  0  0  0  0  0  0
    0.7042   -1.0917    0.0000 C   0  0  0  0  0  0  0  0  0  0  0  0
    1.3167   -0.7375    0.0000 C   0  0  0  0  0  0  0  0  0  0  0  0
    1.9292   -1.7917    0.0000 C   0  0  0  0  0  0  0  0  0  0  0  0
   -2.9875   -1.7917    0.0000 C   0  0  0  0  0  0  0  0  0  0  0  0
   -3.6083   -2.1542    0.0000 C   0  0  0  0  0  0  0  0  0  0  0  0
   -2.9875   -1.0917    0.0000 C   0  0  0  0  0  0  0  0  0  0  0  0
  2  3  1  0
  3  1  1  0
  4  1  1  0
  5  1  2  0
  6  2  2  0
  7  2  1  0
  8  4  1  0
  9 14  2  0
 10  9  1  0
 11  8  2  0
 12  8  1  0
 13 12  2  0
 14 11  1  0
 15  7  1  0
 16 15  1  0
 17 15  1  0
  9 13  1  0
M  END
> <chembl_id>
CHEMBL1377

> <chembl_pref_name>
PROGUANIL
