
     RDKit          2D

 17 18  0  0  1  0  0  0  0  0999 V2000
    4.5750   -3.9500    0.0000 N   0  0  0  0  0  0  0  0  0  0  0  0
    4.5792   -4.9500    0.0000 C   0  0  0  0  0  0  0  0  0  0  0  0
    3.9625   -3.5917    0.0000 C   0  0  0  0  0  0  0  0  0  0  0  0
    3.9625   -2.8875    0.0000 N   0  0  0  0  0  0  0  0  0  0  0  0
    5.1833   -2.8875    0.0000 N   0  0  0  0  0  0  0  0  0  0  0  0
    4.3625   -5.6250    0.0000 C   0  0  0  0  0  0  0  0  0  0  0  0
    4.0042   -4.5292    0.0000 O   0  0  0  0  0  0  0  0  0  0  0  0
    5.1833   -3.5917    0.0000 C   0  0  0  0  0  0  0  0  0  0  0  0
    4.5750   -2.5292    0.0000 C   0  0  0  0  0  0  0  0  0  0  0  0
    3.6500   -5.6250    0.0000 C   0  0  0  0  0  0  0  0  0  0  0  0
    3.4333   -4.9500    0.0000 C   0  0  0  0  0  0  0  0  0  0  0  0
    3.3458   -3.9458    0.0000 O   0  0  0  0  0  0  0  0  0  0  0  0
    4.7750   -6.1958    0.0000 O   0  0  0  0  0  0  0  0  0  0  0  0
    4.5750   -1.8250    0.0000 N   0  0  0  0  0  0  0  0  0  0  0  0
    3.2375   -6.1958    0.0000 O   0  0  0  0  0  0  0  0  0  0  0  0
    2.8167   -4.5917    0.0000 C   0  0  0  0  0  0  0  0  0  0  0  0
    2.2000   -4.9458    0.0000 O   0  0  0  0  0  0  0  0  0  0  0  0
  2  1  1  1
  3  1  1  0
  4  3  1  0
  5  8  2  0
  6  2  1  0
  7  2  1  0
  8  1  1  0
  9  4  2  0
 10  6  1  0
 11  7  1  0
 12  3  2  0
  6 13  1  6
 14  9  1  0
 10 15  1  6
 11 16  1  1
 17 16  1  0
  9  5  1  0
 10 11  1  0
M  END
> <chembl_id>
CHEMBL1489

> <chembl_pref_name>
AZACITIDINE
