
     RDKit          2D

 31 28  0  0  0  0  0  0  0  0999 V2000
   -3.5623    1.9075    0.0000 C   0  0  0  0  0  0  0  0  0  0  0  0
   -7.1429    1.6180    0.0000 N   0  0  0  0  0  0  0  0  0  0  0  0
   -7.8635    1.2191    0.0000 C   0  0  0  0  0  0  0  0  0  0  0  0
   -4.2929    1.5305    0.0000 C   0  0  0  0  0  0  0  0  0  0  0  0
   -3.5317    2.7317    0.0000 C   0  0  0  0  0  0  0  0  0  0  0  0
   -5.6825    2.3945    0.0000 C   0  0  0  0  0  0  0  0  0  0  0  0
   -8.5429    2.4852    0.0000 C   0  0  0  0  0  0  0  0  0  0  0  0
   -4.2315    3.1789    0.0000 C   0  0  0  0  0  0  0  0  0  0  0  0
   -6.3867    2.8275    0.0000 C   0  0  0  0  0  0  0  0  0  0  0  0
   -5.6571    3.2231    0.0000 C   0  0  0  0  0  0  0  0  0  0  0  0
   -7.1167    2.4394    0.0000 C   0  0  0  0  0  0  0  0  0  0  0  0
   -7.8155    2.8704    0.0000 C   0  0  0  0  0  0  0  0  0  0  0  0
   -8.5689    1.6595    0.0000 C   0  0  0  0  0  0  0  0  0  0  0  0
   -5.7079    1.5704    0.0000 C   0  0  0  0  0  0  0  0  0  0  0  0
   -6.4414    1.1705    0.0000 C   0  0  0  0  0  0  0  0  0  0  0  0
   -4.9555    2.7883    0.0000 N   0  0  0  0  0  0  0  0  0  0  0  0
   -4.9861    1.9642    0.0000 C   0  0  0  0  0  0  0  0  0  0  0  0
   -7.1830    3.2648    0.0000 H   0  0  0  0  0  0  0  0  0  0  0  0
   -6.4757    3.6453    0.0000 H   0  0  0  0  0  0  0  0  0  0  0  0
   -4.9765    1.1391    0.0000 H   0  0  0  0  0  0  0  0  0  0  0  0
   -5.6345    0.7463    0.0000 H   0  0  0  0  0  0  0  0  0  0  0  0
   -5.9197    6.2922    0.0000 S   0  0  0  0  0  0  0  0  0  0  0  0
   -6.8229    6.5512    0.0000 O   0  0  0  0  0  0  0  0  0  0  0  0
   -6.1353    5.4873    0.0000 O   0  0  0  0  0  0  0  0  0  0  0  0
   -5.1148    6.0766    0.0000 O   0  0  0  0  0  0  0  0  0  0  0  0
   -5.7182    7.0756    0.0000 O   0  0  0  0  0  0  0  0  0  0  0  0
   -1.4390    4.4321    0.0000 O   0  0  0  0  0  0  0  0  0  0  0  0
   -1.4752    5.1080    0.0000 O   0  0  0  0  0  0  0  0  0  0  0  0
   -1.4545    3.6778    0.0000 O   0  0  0  0  0  0  0  0  0  0  0  0
   -1.4457    3.0222    0.0000 O   0  0  0  0  0  0  0  0  0  0  0  0
   -1.4466    2.3671    0.0000 O   0  0  0  0  0  0  0  0  0  0  0  0
  1  5  1  0
  4  1  1  0
  7 13  1  0
 12  7  1  0
  2 11  1  0
 16 17  1  0
  2  3  1  0
 14  6  1  0
  9 11  1  0
 17  4  1  0
  6  9  1  0
  2 15  1  0
 16 10  1  0
 14 15  1  0
 10  9  1  0
 13  3  1  0
 11 12  1  0
 17 14  1  0
 16  8  1  0
  5  8  1  0
 11 18  1  1
  9 19  1  1
 17 20  1  6
 14 21  1  1
 23 22  2  0
 24 22  2  0
 25 22  1  0
 26 22  1  0
M  END
> <chembl_id>
CHEMBL1908348

> <chembl_pref_name>
SPARTEINE SULFATE
