
     RDKit          2D

 12 12  0  0  0  0  0  0  0  0999 V2000
    3.5292    0.5208    0.0000 N   0  0  0  0  0  0  0  0  0  0  0  0
    0.6250    0.4583    0.0000 O   0  0  0  0  0  0  0  0  0  0  0  0
    2.8125   -0.7417    0.0000 C   0  0  0  0  0  0  0  0  0  0  0  0
    2.8000    1.7375    0.0000 N   0  0  0  0  0  0  0  0  0  0  0  0
    1.3792   -0.7417    0.0000 C   0  0  0  0  0  0  0  0  0  0  0  0
   -0.8208    0.4583    0.0000 C   0  0  0  0  0  0  0  0  0  0  0  0
    3.5375   -1.9542    0.0000 C   0  0  0  0  0  0  0  0  0  0  0  0
   -1.5458    1.7083    0.0000 C   0  0  0  0  0  0  0  0  0  0  0  0
   -1.5250   -0.7792    0.0000 C   0  0  0  0  0  0  0  0  0  0  0  0
   -2.9458   -0.7792    0.0000 C   0  0  0  0  0  0  0  0  0  0  0  0
   -2.9833    1.7000    0.0000 C   0  0  0  0  0  0  0  0  0  0  0  0
   -3.6875    0.4458    0.0000 C   0  0  0  0  0  0  0  0  0  0  0  0
  2  5  1  0
  3  1  1  0
  4  1  1  0
  5  3  1  0
  6  2  1  0
  7  3  1  0
  8  6  1  0
  9  6  2  0
 10  9  1  0
 11  8  2  0
 12 10  2  0
 11 12  1  0
M  END
> <chembl_id>
CHEMBL1909286

> <chembl_pref_name>
PHENOXYPROPAZINE
