
     RDKit          2D

 93 95  0  0  0  0  0  0  0  0999 V2000
    4.2045  -14.2947    0.0000 C   0  0  0  0  0  0  0  0  0  0  0  0
    2.7762  -14.2996    0.0000 N   0  0  0  0  0  0  0  0  0  0  0  0
    2.0717  -14.7077    0.0000 C   0  0  0  0  0  0  0  0  0  0  0  0
    4.2045  -13.4688    0.0000 N   0  0  0  0  0  0  0  0  0  0  0  0
    3.4904  -14.7077    0.0000 C   0  0  0  0  0  0  0  0  0  0  0  0
    4.2045  -11.8364    0.0000 N   0  0  0  0  0  0  0  0  0  0  0  0
    2.0717  -12.2542    0.0000 N   0  0  0  0  0  0  0  0  0  0  0  0
    4.9187  -13.0607    0.0000 C   0  0  0  0  0  0  0  0  0  0  0  0
    3.4904  -12.2445    0.0000 C   0  0  0  0  0  0  0  0  0  0  0  0
    4.9187  -12.2445    0.0000 C   0  0  0  0  0  0  0  0  0  0  0  0
    1.3575  -11.8461    0.0000 C   0  0  0  0  0  0  0  0  0  0  0  0
    2.7762  -11.8364    0.0000 C   0  0  0  0  0  0  0  0  0  0  0  0
    1.3575  -14.2996    0.0000 C   0  0  0  0  0  0  0  0  0  0  0  0
    2.7955  -15.9417    0.0000 N   0  0  0  0  0  0  0  0  0  0  0  0
    2.7955  -16.7725    0.0000 C   0  0  0  0  0  0  0  0  0  0  0  0
    2.0717  -15.5385    0.0000 C   0  0  0  0  0  0  0  0  0  0  0  0
    1.3575  -13.4834    0.0000 N   0  0  0  0  0  0  0  0  0  0  0  0
    4.9187  -14.7028    0.0000 C   0  0  0  0  0  0  0  0  0  0  0  0
    0.6433  -12.2445    0.0000 C   0  0  0  0  0  0  0  0  0  0  0  0
    6.3471  -14.7028    0.0000 C   0  0  0  0  0  0  0  0  0  0  0  0
    7.0613  -11.8266    0.0000 C   0  0  0  0  0  0  0  0  0  0  0  0
    2.0766  -17.1855    0.0000 N   0  0  0  0  0  0  0  0  0  0  0  0
    5.6329  -14.2898    0.0000 N   0  0  0  0  0  0  0  0  0  0  0  0
    7.7755  -12.2347    0.0000 C   0  0  0  0  0  0  0  0  0  0  0  0
    3.5097  -17.1855    0.0000 N   0  0  0  0  0  0  0  0  0  0  0  0
    0.6433  -13.0753    0.0000 C   0  0  0  0  0  0  0  0  0  0  0  0
    5.6329  -11.8266    0.0000 C   0  0  0  0  0  0  0  0  0  0  0  0
    6.3471  -12.2396    0.0000 N   0  0  0  0  0  0  0  0  0  0  0  0
    3.4951  -15.5336    0.0000 O   0  0  0  0  0  0  0  0  0  0  0  0
    3.4951  -13.0753    0.0000 O   0  0  0  0  0  0  0  0  0  0  0  0
    5.6329  -13.4785    0.0000 O   0  0  0  0  0  0  0  0  0  0  0  0
    1.3575  -11.0202    0.0000 O   0  0  0  0  0  0  0  0  0  0  0  0
    0.6384  -14.7174    0.0000 O   0  0  0  0  0  0  0  0  0  0  0  0
    6.3519  -15.5287    0.0000 O   0  0  0  0  0  0  0  0  0  0  0  0
    7.0613  -11.0007    0.0000 O   0  0  0  0  0  0  0  0  0  0  0  0
    7.0613  -14.2850    0.0000 N   0  0  0  0  0  0  0  0  0  0  0  0
   -0.0660  -11.8510    0.0000 N   0  0  0  0  0  0  0  0  0  0  0  0
    1.3624  -15.9514    0.0000 C   0  0  0  0  0  0  0  0  0  0  0  0
    1.3624  -16.7725    0.0000 C   0  0  0  0  0  0  0  0  0  0  0  0
    2.7762  -11.0153    0.0000 C   0  0  0  0  0  0  0  0  0  0  0  0
    8.4896  -11.8218    0.0000 C   0  0  0  0  0  0  0  0  0  0  0  0
    8.4896  -10.9958    0.0000 N   0  0  0  0  0  0  0  0  0  0  0  0
   11.3511  -11.8169    0.0000 N   0  0  0  0  0  0  0  0  0  0  0  0
   10.6370  -12.2299    0.0000 C   0  0  0  0  0  0  0  0  0  0  0  0
    9.2086  -12.2347    0.0000 C   0  0  0  0  0  0  0  0  0  0  0  0
    9.9228  -11.8169    0.0000 C   0  0  0  0  0  0  0  0  0  0  0  0
   -0.5198   -7.5499    0.0000 C   0  0  0  0  0  0  0  0  0  0  0  0
   -1.9482   -7.5548    0.0000 N   0  0  0  0  0  0  0  0  0  0  0  0
   -2.6527   -7.9629    0.0000 C   0  0  0  0  0  0  0  0  0  0  0  0
   -0.5198   -6.7240    0.0000 N   0  0  0  0  0  0  0  0  0  0  0  0
   -1.2340   -7.9629    0.0000 C   0  0  0  0  0  0  0  0  0  0  0  0
   -0.5198   -5.0916    0.0000 N   0  0  0  0  0  0  0  0  0  0  0  0
   -2.6527   -5.5094    0.0000 N   0  0  0  0  0  0  0  0  0  0  0  0
    0.1944   -6.3159    0.0000 C   0  0  0  0  0  0  0  0  0  0  0  0
   -1.2340   -5.4997    0.0000 C   0  0  0  0  0  0  0  0  0  0  0  0
    0.1944   -5.4997    0.0000 C   0  0  0  0  0  0  0  0  0  0  0  0
   -3.3669   -5.1013    0.0000 C   0  0  0  0  0  0  0  0  0  0  0  0
   -1.9482   -5.0916    0.0000 C   0  0  0  0  0  0  0  0  0  0  0  0
   -3.3669   -7.5548    0.0000 C   0  0  0  0  0  0  0  0  0  0  0  0
   -1.9288   -9.1969    0.0000 N   0  0  0  0  0  0  0  0  0  0  0  0
   -1.9288  -10.0277    0.0000 C   0  0  0  0  0  0  0  0  0  0  0  0
   -2.6527   -8.7937    0.0000 C   0  0  0  0  0  0  0  0  0  0  0  0
   -3.3669   -6.7386    0.0000 N   0  0  0  0  0  0  0  0  0  0  0  0
    0.1944   -7.9580    0.0000 C   0  0  0  0  0  0  0  0  0  0  0  0
   -4.0810   -5.4997    0.0000 C   0  0  0  0  0  0  0  0  0  0  0  0
    1.6227   -7.9580    0.0000 C   0  0  0  0  0  0  0  0  0  0  0  0
    2.3369   -5.0818    0.0000 C   0  0  0  0  0  0  0  0  0  0  0  0
   -2.6478  -10.4407    0.0000 N   0  0  0  0  0  0  0  0  0  0  0  0
    0.9086   -7.5450    0.0000 N   0  0  0  0  0  0  0  0  0  0  0  0
    3.0511   -5.4899    0.0000 C   0  0  0  0  0  0  0  0  0  0  0  0
   -1.2146  -10.4407    0.0000 N   0  0  0  0  0  0  0  0  0  0  0  0
   -4.0810   -6.3305    0.0000 C   0  0  0  0  0  0  0  0  0  0  0  0
    0.9086   -5.0818    0.0000 C   0  0  0  0  0  0  0  0  0  0  0  0
    1.6227   -5.4948    0.0000 N   0  0  0  0  0  0  0  0  0  0  0  0
   -1.2292   -8.7888    0.0000 O   0  0  0  0  0  0  0  0  0  0  0  0
   -1.2292   -6.3305    0.0000 O   0  0  0  0  0  0  0  0  0  0  0  0
    0.9086   -6.7337    0.0000 O   0  0  0  0  0  0  0  0  0  0  0  0
   -3.3669   -4.2754    0.0000 O   0  0  0  0  0  0  0  0  0  0  0  0
   -4.0859   -7.9726    0.0000 O   0  0  0  0  0  0  0  0  0  0  0  0
    1.6275   -8.7839    0.0000 O   0  0  0  0  0  0  0  0  0  0  0  0
    2.3369   -4.2559    0.0000 O   0  0  0  0  0  0  0  0  0  0  0  0
    2.3369   -7.5402    0.0000 N   0  0  0  0  0  0  0  0  0  0  0  0
   -4.7903   -5.1062    0.0000 N   0  0  0  0  0  0  0  0  0  0  0  0
   -3.3620   -9.2066    0.0000 C   0  0  0  0  0  0  0  0  0  0  0  0
   -3.3620  -10.0277    0.0000 C   0  0  0  0  0  0  0  0  0  0  0  0
   -1.9482   -4.2705    0.0000 C   0  0  0  0  0  0  0  0  0  0  0  0
    3.7653   -5.0770    0.0000 C   0  0  0  0  0  0  0  0  0  0  0  0
    3.7653   -4.2510    0.0000 N   0  0  0  0  0  0  0  0  0  0  0  0
    6.6268   -5.0721    0.0000 N   0  0  0  0  0  0  0  0  0  0  0  0
   -1.2340   -3.8527    0.0000 O   0  0  0  0  0  0  0  0  0  0  0  0
    5.9126   -5.4851    0.0000 C   0  0  0  0  0  0  0  0  0  0  0  0
    4.4842   -5.4899    0.0000 C   0  0  0  0  0  0  0  0  0  0  0  0
    5.1984   -5.0721    0.0000 C   0  0  0  0  0  0  0  0  0  0  0  0
  2  5  1  0
  3  2  1  0
  4  1  1  0
  5  1  1  0
  6 10  1  0
  7 12  1  0
  8  4  1  0
  9  6  1  0
 10  8  1  0
 11  7  1  0
 12  9  1  0
 13  3  1  0
 14 16  1  0
 15 14  1  0
  3 16  1  1
 17 13  1  0
 18  1  2  0
 19 26  1  0
 20 23  1  0
 21 28  1  0
 22 15  1  0
 23 18  1  0
 24 21  1  0
 25 15  2  0
 26 17  1  0
 10 27  1  1
 28 27  1  0
 29  5  2  0
 30  9  2  0
 31  8  2  0
 32 11  2  0
 33 13  2  0
 34 20  2  0
 35 21  2  0
 36 20  1  0
 19 37  1  6
 38 16  1  0
 39 38  1  0
 12 40  1  1
 41 24  1  0
 42 41  1  0
 43 44  1  0
 44 46  1  0
 45 41  1  0
 46 45  1  0
 22 39  1  0
 19 11  1  0
 48 51  1  0
 49 48  1  0
 50 47  1  0
 51 47  1  0
 52 56  1  0
 53 58  1  0
 54 50  1  0
 55 52  1  0
 56 54  1  0
 57 53  1  0
 58 55  1  0
 59 49  1  0
 60 62  1  0
 61 60  1  0
 49 62  1  1
 63 59  1  0
 64 47  2  0
 65 72  1  0
 66 69  1  0
 67 74  1  0
 68 61  1  0
 69 64  1  0
 70 67  1  0
 71 61  2  0
 72 63  1  0
 56 73  1  1
 74 73  1  0
 75 51  2  0
 76 55  2  0
 77 54  2  0
 78 57  2  0
 79 59  2  0
 80 66  2  0
 81 67  2  0
 82 66  1  0
 65 83  1  6
 84 62  1  0
 85 84  1  0
 58 86  1  1
 87 70  1  0
 88 87  1  0
 89 91  1  0
 90 86  1  0
 91 93  1  0
 92 87  1  0
 93 92  1  0
 68 85  1  0
 65 57  1  0
M  END
> <chembl_id>
CHEMBL2221250

> <chembl_pref_name>
CAPREOMYCIN
