
     RDKit          2D

 30 33  0  0  0  0  0  0  0  0999 V2000
    0.5258    3.6222    0.0000 Cl  0  0  0  0  0  0  0  0  0  0  0  0
    1.2403    3.2097    0.0000 C   0  0  0  0  0  0  0  0  0  0  0  0
    1.9547    3.6222    0.0000 C   0  0  0  0  0  0  0  0  0  0  0  0
    2.6692    3.2097    0.0000 C   0  0  0  0  0  0  0  0  0  0  0  0
    2.6692    2.3847    0.0000 C   0  0  0  0  0  0  0  0  0  0  0  0
    3.3837    1.9722    0.0000 F   0  0  0  0  0  0  0  0  0  0  0  0
    1.2403    2.3847    0.0000 C   0  0  0  0  0  0  0  0  0  0  0  0
    1.9547    1.9722    0.0000 C   0  0  0  0  0  0  0  0  0  0  0  0
    1.9547    1.1472    0.0000 Cl  0  0  0  0  0  0  0  0  0  0  0  0
    0.5258    1.9722    0.0000 C   0  0  0  0  0  0  0  0  0  0  0  0
   -0.1887    2.3847    0.0000 C   0  0  0  0  0  0  0  0  0  0  0  0
    0.5258    1.1472    0.0000 O   0  0  0  0  0  0  0  0  0  0  0  0
   -0.1887    0.7347    0.0000 C   0  0  0  0  0  0  0  0  0  0  0  0
   -0.1887   -0.0903    0.0000 C   0  0  0  0  0  0  0  0  0  0  0  0
   -0.9031    1.1472    0.0000 C   0  0  0  0  0  0  0  0  0  0  0  0
   -0.9031    1.9722    0.0000 N   0  0  0  0  0  0  0  0  0  0  0  0
   -1.6176    0.7347    0.0000 N   0  0  0  0  0  0  0  0  0  0  0  0
   -1.6176   -0.0903    0.0000 C   0  0  0  0  0  0  0  0  0  0  0  0
   -0.9031   -0.5028    0.0000 C   0  0  0  0  0  0  0  0  0  0  0  0
   -0.9031   -1.3278    0.0000 C   0  0  0  0  0  0  0  0  0  0  0  0
   -0.2357   -1.8128    0.0000 C   0  0  0  0  0  0  0  0  0  0  0  0
   -1.5706   -1.8128    0.0000 C   0  0  0  0  0  0  0  0  0  0  0  0
   -1.3156   -2.5974    0.0000 N   0  0  0  0  0  0  0  0  0  0  0  0
   -0.4906   -2.5974    0.0000 N   0  0  0  0  0  0  0  0  0  0  0  0
   -1.8006   -3.2648    0.0000 C   0  0  0  0  0  0  0  0  0  0  0  0
   -1.4650   -4.0185    0.0000 C   0  0  0  0  0  0  0  0  0  0  0  0
   -1.9499   -4.6859    0.0000 C   0  0  0  0  0  0  0  0  0  0  0  0
   -2.7704   -4.5997    0.0000 N   0  0  0  0  0  0  0  0  0  0  0  0
   -3.1060   -3.8460    0.0000 C   0  0  0  0  0  0  0  0  0  0  0  0
   -2.6210   -3.1786    0.0000 C   0  0  0  0  0  0  0  0  0  0  0  0
  2  1  1  0
  2  3  1  0
  2  7  2  0
  4  3  2  0
  5  4  1  0
  5  6  1  0
  5  8  2  0
  7  8  1  0
  7 10  1  0
  8  9  1  0
 10 11  1  6
 10 12  1  0
 13 12  1  0
 13 14  2  0
 13 15  1  0
 19 14  1  0
 15 16  1  0
 15 17  2  0
 18 17  1  0
 19 18  2  0
 19 20  1  0
 20 21  1  0
 20 22  2  0
 21 24  2  0
 22 23  1  0
 24 23  1  0
 25 23  1  0
 25 26  1  0
 25 30  1  0
 27 26  1  0
 27 28  1  0
 29 28  1  0
 29 30  1  0
M  END
> <chembl_id>
CHEMBL601719

> <chembl_pref_name>
CRIZOTINIB
