
     RDKit          2D

 22 22  0  0  0  0  0  0  0  0999 V2000
   -0.9667   -4.5292    0.0000 C   0  0  0  0  0  0  0  0  0  0  0  0
   -0.3500   -4.1792    0.0000 C   0  0  0  0  0  0  0  0  0  0  0  0
   -0.9667   -5.2417    0.0000 C   0  0  0  0  0  0  0  0  0  0  0  0
   -1.5792   -4.1792    0.0000 C   0  0  0  0  0  0  0  0  0  0  0  0
    0.2625   -4.5333    0.0000 C   0  0  0  0  0  0  0  0  0  0  0  0
    3.9417   -4.5333    0.0000 C   0  0  0  0  0  0  0  0  0  0  0  0
    4.5542   -4.1792    0.0000 C   0  0  0  0  0  0  0  0  0  0  0  0
    2.1000   -4.1792    0.0000 C   0  0  0  0  0  0  0  0  0  0  0  0
    3.3292   -4.1792    0.0000 C   0  0  0  0  0  0  0  0  0  0  0  0
    0.8750   -4.1792    0.0000 C   0  0  0  0  0  0  0  0  0  0  0  0
    2.7167   -4.5333    0.0000 C   0  0  0  0  0  0  0  0  0  0  0  0
    1.4875   -4.5333    0.0000 C   0  0  0  0  0  0  0  0  0  0  0  0
    4.5542   -3.4708    0.0000 O   0  0  0  0  0  0  0  0  0  0  0  0
    5.1708   -4.5333    0.0000 O   0  0  0  0  0  0  0  0  0  0  0  0
   -1.5792   -5.5917    0.0000 C   0  0  0  0  0  0  0  0  0  0  0  0
   -2.1875   -4.5292    0.0000 C   0  0  0  0  0  0  0  0  0  0  0  0
   -0.3500   -5.5917    0.0000 C   0  0  0  0  0  0  0  0  0  0  0  0
   -1.9375   -3.5625    0.0000 C   0  0  0  0  0  0  0  0  0  0  0  0
   -1.2333   -3.5625    0.0000 C   0  0  0  0  0  0  0  0  0  0  0  0
   -2.1875   -5.2417    0.0000 C   0  0  0  0  0  0  0  0  0  0  0  0
    3.3292   -3.4708    0.0000 C   0  0  0  0  0  0  0  0  0  0  0  0
    0.8750   -3.4708    0.0000 C   0  0  0  0  0  0  0  0  0  0  0  0
  2  1  1  0
  3  1  2  0
  4  1  1  0
  5  2  2  0
  6  9  2  0
  7  6  1  0
  8 12  1  0
  9 11  1  0
 10  5  1  0
 11  8  2  0
 12 10  2  0
 13  7  2  0
 14  7  1  0
 15  3  1  0
 16  4  1  0
 17  3  1  0
 18  4  1  0
 19  4  1  0
 20 16  1  0
 21  9  1  0
 22 10  1  0
 15 20  1  0
M  END
> <chembl_id>
CHEMBL38

> <chembl_pref_name>
TRETINOIN
