
     RDKit          2D

 24 27  0  0  0  0  0  0  0  0999 V2000
   -0.4741   -3.7151    0.0000 C   0  0  0  0  0  0  0  0  0  0  0  0
    1.3851   -3.7349    0.0000 O   0  0  0  0  0  0  0  0  0  0  0  0
    0.0353   -4.3669    0.0000 C   0  0  0  0  0  0  0  0  0  0  0  0
    0.8622   -4.3728    0.0000 C   0  0  0  0  0  0  0  0  0  0  0  0
   -0.2845   -2.9097    0.0000 C   0  0  0  0  0  0  0  0  0  0  0  0
   -0.1343   -1.2693    0.0000 C   0  0  0  0  0  0  0  0  0  0  0  0
   -0.8830   -1.6157    0.0000 C   0  0  0  0  0  0  0  0  0  0  0  0
   -0.9593   -2.4388    0.0000 C   0  0  0  0  0  0  0  0  0  0  0  0
    0.5383   -1.7462    0.0000 C   0  0  0  0  0  0  0  0  0  0  0  0
    0.4631   -2.5609    0.0000 C   0  0  0  0  0  0  0  0  0  0  0  0
    1.1275   -3.0308    0.0000 C   0  0  0  0  0  0  0  0  0  0  0  0
    1.8710   -2.6908    0.0000 O   0  0  0  0  0  0  0  0  0  0  0  0
    1.9462   -1.8760    0.0000 C   0  0  0  0  0  0  0  0  0  0  0  0
    1.2777   -1.4013    0.0000 C   0  0  0  0  0  0  0  0  0  0  0  0
    1.3525   -0.5788    0.0000 C   0  0  0  0  0  0  0  0  0  0  0  0
    2.6967   -1.5313    0.0000 O   0  0  0  0  0  0  0  0  0  0  0  0
    1.5099   -5.0357    0.0000 C   0  0  0  0  0  0  0  0  0  0  0  0
   -1.7084   -2.7866    0.0000 C   0  0  0  0  0  0  0  0  0  0  0  0
    0.2461   -3.6296    0.0000 O   0  0  0  0  0  0  0  0  0  0  0  0
    0.5469   -5.0829    0.0000 O   0  0  0  0  0  0  0  0  0  0  0  0
    3.3706   -2.0089    0.0000 C   0  0  0  0  0  0  0  0  0  0  0  0
    1.8419   -3.4433    0.0000 H   0  0  0  0  0  0  0  0  0  0  0  0
    0.5383   -0.9212    0.0000 H   0  0  0  0  0  0  0  0  0  0  0  0
   -1.0814   -3.1232    0.0000 H   0  0  0  0  0  0  0  0  0  0  0  0
  3  4  1  0
  5 10  1  0
 11  2  1  0
  5  1  1  0
  1  3  1  0
  9 14  1  0
 10 11  1  0
 11 12  1  0
 12 13  1  0
 13 14  1  0
 14 15  1  1
  5  8  1  0
 13 16  1  1
  9  6  1  0
  4 17  1  1
  6  7  1  0
  8 18  1  6
  7  8  1  0
 10 19  1  6
  9 10  1  0
  4 20  1  0
 19 20  1  0
  2  4  1  0
 16 21  1  0
 11 22  1  1
  9 23  1  6
  5 24  1  6
M  END
> <chembl_id>
CHEMBL566534

> <chembl_pref_name>
ARTEMETHER
