
     RDKit          2D

 12 13  0  0  0  0  0  0  0  0999 V2000
    7.1171   -2.8288    0.0000 N   0  0  0  0  0  0  0  0  0  0  0  0
    7.8316   -2.4163    0.0000 N   0  0  0  0  0  0  0  0  0  0  0  0
    7.8316   -1.5913    0.0000 C   0  0  0  0  0  0  0  0  0  0  0  0
    7.1171   -1.1788    0.0000 N   0  0  0  0  0  0  0  0  0  0  0  0
    7.1171   -0.3538    0.0000 N   0  0  0  0  0  0  0  0  0  0  0  0
    7.8316    0.0587    0.0000 C   0  0  0  0  0  0  0  0  0  0  0  0
    8.5461   -0.3538    0.0000 C   0  0  0  0  0  0  0  0  0  0  0  0
    9.2605    0.0587    0.0000 C   0  0  0  0  0  0  0  0  0  0  0  0
    9.9750   -0.3538    0.0000 C   0  0  0  0  0  0  0  0  0  0  0  0
    9.9750   -1.1788    0.0000 C   0  0  0  0  0  0  0  0  0  0  0  0
    9.2605   -1.5913    0.0000 C   0  0  0  0  0  0  0  0  0  0  0  0
    8.5461   -1.1788    0.0000 C   0  0  0  0  0  0  0  0  0  0  0  0
  1  2  1  0
  2  3  1  0
  3  4  2  0
  4  5  1  0
  5  6  2  0
  6  7  1  0
  7  8  2  0
  8  9  1  0
  9 10  2  0
 10 11  1  0
 11 12  2  0
  3 12  1  0
  7 12  1  0
M  END
> <chembl_id>
CHEMBL276832

> <chembl_pref_name>
HYDRALAZINE
