
     RDKit          2D

 30 34  0  0  1  0  0  0  0  0999 V2000
    2.2875   -1.1292    0.0000 C   0  0  0  0  0  0  0  0  0  0  0  0
    2.2875   -1.8125    0.0000 C   0  0  0  0  0  0  0  0  0  0  0  0
    1.6792   -2.1542    0.0000 C   0  0  0  0  0  0  0  0  0  0  0  0
    1.0792   -1.8125    0.0000 C   0  0  0  0  0  0  0  0  0  0  0  0
    0.4792   -2.1542    0.0000 C   0  0  0  0  0  0  0  0  0  0  0  0
    2.9292   -0.9167    0.0000 C   0  0  0  0  0  0  0  0  0  0  0  0
    0.4792   -2.8417    0.0000 C   0  0  0  0  0  0  0  0  0  0  0  0
    3.5417   -0.5625    0.0000 C   0  0  0  0  0  0  0  0  0  0  0  0
    1.6792   -0.7917    0.0000 C   0  0  0  0  0  0  0  0  0  0  0  0
    1.0792   -1.1292    0.0000 C   0  0  0  0  0  0  0  0  0  0  0  0
    2.9292   -2.0167    0.0000 C   0  0  0  0  0  0  0  0  0  0  0  0
    1.6792   -2.8417    0.0000 C   0  0  0  0  0  0  0  0  0  0  0  0
    4.1542   -0.2042    0.0000 C   0  0  0  0  0  0  0  0  0  0  0  0
   -0.1208   -1.8125    0.0000 C   0  0  0  0  0  0  0  0  0  0  0  0
   -0.1208   -3.1792    0.0000 C   0  0  0  0  0  0  0  0  0  0  0  0
    1.0792   -3.1792    0.0000 C   0  0  0  0  0  0  0  0  0  0  0  0
    3.3292   -1.4667    0.0000 C   0  0  0  0  0  0  0  0  0  0  0  0
   -0.7208   -2.8417    0.0000 C   0  0  0  0  0  0  0  0  0  0  0  0
   -1.3208   -3.1792    0.0000 O   0  0  0  0  0  0  0  0  0  0  0  0
   -0.7208   -2.1542    0.0000 C   0  0  0  0  0  0  0  0  0  0  0  0
    2.9292   -0.2125    0.0000 O   0  0  0  0  0  0  0  0  0  0  0  0
    2.2875   -0.3292    0.0000 C   0  0  0  0  0  0  0  0  0  0  0  0
   -1.9208   -2.8292    0.0000 C   0  0  0  0  0  0  0  0  0  0  0  0
   -2.1208   -2.1792    0.0000 C   0  0  0  0  0  0  0  0  0  0  0  0
   -2.4708   -3.2375    0.0000 C   0  0  0  0  0  0  0  0  0  0  0  0
   -2.8250   -2.1667    0.0000 C   0  0  0  0  0  0  0  0  0  0  0  0
   -3.0458   -2.8292    0.0000 C   0  0  0  0  0  0  0  0  0  0  0  0
    1.0917   -2.4500    0.0000 H   0  0  0  0  0  0  0  0  0  0  0  0
    2.3167   -2.4500    0.0000 H   0  0  0  0  0  0  0  0  0  0  0  0
    1.6792   -1.5500    0.0000 H   0  0  0  0  0  0  0  0  0  0  0  0
  2  1  1  0
  3  2  1  0
  4 10  1  0
  5  4  1  0
  6  1  1  0
  7  5  2  0
  6  8  1  6
  9  1  1  0
 10  9  1  0
 11  2  1  0
 12  3  1  0
 13  8  3  0
 14  5  1  0
 15  7  1  0
 16 12  1  0
 17  6  1  0
 18 20  1  0
 19 18  1  0
 20 14  2  0
 21  6  1  0
  1 22  1  1
 23 19  1  0
 24 23  1  0
 25 23  1  0
 26 24  1  0
 27 25  1  0
  4 28  1  6
  2 29  1  6
  3 30  1  1
 17 11  1  0
  4  3  1  0
  7 16  1  0
 18 15  2  0
 27 26  1  0
M  END
> <chembl_id>
CHEMBL1201165

> <chembl_pref_name>
QUINESTROL
