
     RDKit          2D

 30 32  0  0  1  0  0  0  0  0999 V2000
    5.5710   -6.7357    0.0000 C   0  0  0  0  0  0  0  0  0  0  0  0
    5.0809   -6.0709    0.0000 N   0  0  0  0  0  0  0  0  0  0  0  0
    5.0858   -7.4103    0.0000 C   0  0  0  0  0  0  0  0  0  0  0  0
    4.2948   -6.3329    0.0000 C   0  0  0  0  0  0  0  0  0  0  0  0
    4.2996   -7.1579    0.0000 C   0  0  0  0  0  0  0  0  0  0  0  0
    6.3961   -6.7309    0.0000 C   0  0  0  0  0  0  0  0  0  0  0  0
   10.1133   -7.4199    0.0000 C   0  0  0  0  0  0  0  0  0  0  0  0
    5.0809   -8.2304    0.0000 C   0  0  0  0  0  0  0  0  0  0  0  0
    9.2883   -7.4248    0.0000 C   0  0  0  0  0  0  0  0  0  0  0  0
    6.8037   -6.0127    0.0000 C   0  0  0  0  0  0  0  0  0  0  0  0
    5.4789   -5.3479    0.0000 C   0  0  0  0  0  0  0  0  0  0  0  0
   10.5258   -8.1333    0.0000 O   0  0  0  0  0  0  0  0  0  0  0  0
   10.5209   -6.7066    0.0000 O   0  0  0  0  0  0  0  0  0  0  0  0
    8.8710   -6.7164    0.0000 C   0  0  0  0  0  0  0  0  0  0  0  0
    8.0460   -6.7211    0.0000 C   0  0  0  0  0  0  0  0  0  0  0  0
    4.3579   -8.6332    0.0000 C   0  0  0  0  0  0  0  0  0  0  0  0
    5.7846   -8.6477    0.0000 C   0  0  0  0  0  0  0  0  0  0  0  0
    5.0615   -9.8803    0.0000 C   0  0  0  0  0  0  0  0  0  0  0  0
    7.6286   -6.0078    0.0000 C   0  0  0  0  0  0  0  0  0  0  0  0
    3.5814   -5.9204    0.0000 C   0  0  0  0  0  0  0  0  0  0  0  0
    3.5814   -7.5753    0.0000 C   0  0  0  0  0  0  0  0  0  0  0  0
    4.3481   -9.4581    0.0000 C   0  0  0  0  0  0  0  0  0  0  0  0
    5.7797   -9.4679    0.0000 C   0  0  0  0  0  0  0  0  0  0  0  0
    5.0518  -10.7054    0.0000 F   0  0  0  0  0  0  0  0  0  0  0  0
    9.2786   -5.9981    0.0000 O   0  0  0  0  0  0  0  0  0  0  0  0
    8.0363   -5.2896    0.0000 O   0  0  0  0  0  0  0  0  0  0  0  0
    5.0567   -4.6393    0.0000 C   0  0  0  0  0  0  0  0  0  0  0  0
    6.3038   -5.3381    0.0000 C   0  0  0  0  0  0  0  0  0  0  0  0
    2.8680   -7.1628    0.0000 C   0  0  0  0  0  0  0  0  0  0  0  0
    2.8680   -6.3329    0.0000 C   0  0  0  0  0  0  0  0  0  0  0  0
  2  1  1  0
  3  1  2  0
  4  2  1  0
  5  3  1  0
  6  1  1  0
  7  9  1  0
  8  3  1  0
  9 14  1  0
 10  6  2  0
 11  2  1  0
 12  7  1  0
 13  7  2  0
 14 15  1  0
 15 19  1  0
 16  8  2  0
 17  8  1  0
 18 22  2  0
 19 10  1  0
 20  4  2  0
 21  5  2  0
 22 16  1  0
 23 17  2  0
 24 18  1  0
 14 25  1  0
 19 26  1  0
 27 11  1  0
 28 11  1  0
 29 21  1  0
 30 20  1  0
  5  4  1  0
 29 30  2  0
 23 18  1  0
M  END
> <chembl_id>
CHEMBL2220442

> <chembl_pref_name>
FLUVASTATIN
