
     RDKit          2D

 45 50  0  0  1  0  0  0  0  0999 V2000
    2.3375   -3.3542    0.0000 C   0  0  0  0  0  0  0  0  0  0  0  0
    2.3375   -2.6417    0.0000 C   0  0  0  0  0  0  0  0  0  0  0  0
    1.6625   -3.5792    0.0000 N   0  0  0  0  0  0  0  0  0  0  0  0
    3.5667   -5.4917    0.0000 C   0  0  0  0  0  0  0  0  0  0  0  0
    3.5667   -4.7792    0.0000 C   0  0  0  0  0  0  0  0  0  0  0  0
    2.9542   -3.7125    0.0000 C   0  0  0  0  0  0  0  0  0  0  0  0
    3.5667   -3.3542    0.0000 N   0  0  0  0  0  0  0  0  0  0  0  0
    4.1875   -4.4250    0.0000 C   0  0  0  0  0  0  0  0  0  0  0  0
    4.8000   -5.4917    0.0000 C   0  0  0  0  0  0  0  0  0  0  0  0
    6.0292   -5.4917    0.0000 C   0  0  0  0  0  0  0  0  0  0  0  0
    2.9542   -4.4250    0.0000 C   0  0  0  0  0  0  0  0  0  0  0  0
    1.6625   -2.4250    0.0000 C   0  0  0  0  0  0  0  0  0  0  0  0
    4.1875   -5.8500    0.0000 C   0  0  0  0  0  0  0  0  0  0  0  0
    1.2417   -3.0000    0.0000 C   0  0  0  0  0  0  0  0  0  0  0  0
    6.6500   -5.8500    0.0000 C   0  0  0  0  0  0  0  0  0  0  0  0
    7.8792   -6.5625    0.0000 C   0  0  0  0  0  0  0  0  0  0  0  0
    2.9542   -5.8500    0.0000 C   0  0  0  0  0  0  0  0  0  0  0  0
    5.4167   -5.8500    0.0000 O   0  0  0  0  0  0  0  0  0  0  0  0
    4.1875   -3.7125    0.0000 C   0  0  0  0  0  0  0  0  0  0  0  0
    7.8792   -5.8500    0.0000 C   0  0  0  0  0  0  0  0  0  0  0  0
    7.2625   -6.9042    0.0000 C   0  0  0  0  0  0  0  0  0  0  0  0
    4.8000   -4.7792    0.0000 C   0  0  0  0  0  0  0  0  0  0  0  0
    2.9542   -2.2917    0.0000 C   0  0  0  0  0  0  0  0  0  0  0  0
    7.2625   -5.4917    0.0000 C   0  0  0  0  0  0  0  0  0  0  0  0
    6.6500   -6.5625    0.0000 C   0  0  0  0  0  0  0  0  0  0  0  0
    3.5667   -2.6417    0.0000 C   0  0  0  0  0  0  0  0  0  0  0  0
    6.0292   -4.7792    0.0000 O   0  0  0  0  0  0  0  0  0  0  0  0
    2.9542   -6.5625    0.0000 O   0  0  0  0  0  0  0  0  0  0  0  0
    8.5000   -6.9125    0.0000 O   0  0  0  0  0  0  0  0  0  0  0  0
    4.1875   -6.5625    0.0000 O   0  0  0  0  0  0  0  0  0  0  0  0
    2.3375   -5.4917    0.0000 O   0  0  0  0  0  0  0  0  0  0  0  0
    8.5000   -5.4917    0.0000 O   0  0  0  0  0  0  0  0  0  0  0  0
    7.2625   -7.6167    0.0000 O   0  0  0  0  0  0  0  0  0  0  0  0
    1.3750   -1.7792    0.0000 C   0  0  0  0  0  0  0  0  0  0  0  0
    0.5375   -2.9292    0.0000 C   0  0  0  0  0  0  0  0  0  0  0  0
    9.0375   -6.4500    0.0000 C   0  0  0  0  0  0  0  0  0  0  0  0
    4.8542   -6.7917    0.0000 C   0  0  0  0  0  0  0  0  0  0  0  0
    7.9417   -7.8542    0.0000 C   0  0  0  0  0  0  0  0  0  0  0  0
    8.4875   -4.7792    0.0000 C   0  0  0  0  0  0  0  0  0  0  0  0
    1.7167   -5.8500    0.0000 C   0  0  0  0  0  0  0  0  0  0  0  0
    0.6667   -1.7042    0.0000 C   0  0  0  0  0  0  0  0  0  0  0  0
    0.2417   -2.2792    0.0000 C   0  0  0  0  0  0  0  0  0  0  0  0
    2.3375   -4.0667    0.0000 H   0  0  0  0  0  0  0  0  0  0  0  0
    2.9250   -5.0750    0.0000 H   0  0  0  0  0  0  0  0  0  0  0  0
    4.8000   -4.0667    0.0000 H   0  0  0  0  0  0  0  0  0  0  0  0
  2  1  2  0
  3  1  1  0
  4  5  1  0
  5 11  1  0
  6  1  1  0
  7  6  1  0
  8  5  1  0
  9 22  1  0
 10 18  1  0
 11  6  1  0
 12  2  1  0
 13  4  1  0
 14  3  1  0
 15 10  1  0
 16 21  2  0
  4 17  1  1
  9 18  1  1
 19  7  1  0
 20 24  2  0
 21 25  1  0
 22  8  1  0
 23  2  1  0
 24 15  1  0
 25 15  2  0
 26  7  1  0
 27 10  2  0
 28 17  2  0
 29 16  1  0
 13 30  1  6
 31 17  1  0
 32 20  1  0
 33 21  1  0
 34 12  1  0
 35 14  1  0
 36 29  1  0
 37 30  1  0
 38 33  1  0
 39 32  1  0
 40 31  1  0
 41 34  2  0
 42 35  2  0
  6 43  1  1
  5 44  1  6
  8 45  1  6
 14 12  2  0
 26 23  1  0
  8 19  1  0
 42 41  1  0
  9 13  1  0
 16 20  1  0
M  END
> <chembl_id>
CHEMBL1200515

> <chembl_pref_name>
DESERPIDINE
