
     RDKit          2D

  3  0  0  0  0  0  0  0  0  0999 V2000
    7.5667   -4.6292    0.0000 Zn  0  0  0  0  0 15  0  0  0  0  0  0
    8.7042   -4.6417    0.0000 Cl  0  0  0  0  0  0  0  0  0  0  0  0
    6.6417   -4.6417    0.0000 Cl  0  0  0  0  0  0  0  0  0  0  0  0
M  CHG  3   1   2   2  -1   3  -1
M  END
> <chembl_id>
CHEMBL1200679

> <chembl_pref_name>
ZINC CHLORIDE
