
     RDKit          2D

 36 37  0  0  1  0  0  0  0  0999 V2000
    0.2667   -2.4167    0.0000 O   0  0  0  0  0  0  0  0  0  0  0  0
   -0.3333   -2.0625    0.0000 C   0  0  0  0  0  0  0  0  0  0  0  0
    0.2708   -1.7083    0.0000 C   0  0  0  0  0  0  0  0  0  0  0  0
    2.1167   -0.6500    0.0000 C   0  0  0  0  0  0  0  0  0  0  0  0
    1.5042   -1.7125    0.0000 C   0  0  0  0  0  0  0  0  0  0  0  0
   -0.9458   -1.7083    0.0000 C   0  0  0  0  0  0  0  0  0  0  0  0
    1.5042   -1.0042    0.0000 C   0  0  0  0  0  0  0  0  0  0  0  0
    2.7292   -1.0042    0.0000 C   0  0  0  0  0  0  0  0  0  0  0  0
    0.8917   -2.0625    0.0000 C   0  0  0  0  0  0  0  0  0  0  0  0
    2.7292   -1.7125    0.0000 O   0  0  0  0  0  0  0  0  0  0  0  0
    4.5708   -0.6500    0.0000 C   0  0  0  0  0  0  0  0  0  0  0  0
    3.9583   -1.0042    0.0000 C   0  0  0  0  0  0  0  0  0  0  0  0
    5.1833   -1.0042    0.0000 C   0  0  0  0  0  0  0  0  0  0  0  0
    2.1167   -2.0667    0.0000 C   0  0  0  0  0  0  0  0  0  0  0  0
    3.3458   -0.6500    0.0000 C   0  0  0  0  0  0  0  0  0  0  0  0
    5.1833   -3.1292    0.0000 C   0  0  0  0  0  0  0  0  0  0  0  0
    5.1833   -1.7125    0.0000 O   0  0  0  0  0  0  0  0  0  0  0  0
    5.1833   -3.8375    0.0000 O   0  0  0  0  0  0  0  0  0  0  0  0
   -1.5625   -2.0625    0.0000 C   0  0  0  0  0  0  0  0  0  0  0  0
    2.1167    0.0583    0.0000 O   0  0  0  0  0  0  0  0  0  0  0  0
    0.8917   -0.6500    0.0000 O   0  0  0  0  0  0  0  0  0  0  0  0
    4.4375   -2.7458    0.0000 O   0  0  0  0  0  0  0  0  0  0  0  0
    5.7958   -0.6500    0.0000 O   0  0  0  0  0  0  0  0  0  0  0  0
   -1.5625   -2.7708    0.0000 O   0  0  0  0  0  0  0  0  0  0  0  0
   -0.9458   -1.0000    0.0000 C   0  0  0  0  0  0  0  0  0  0  0  0
    3.9583   -1.7125    0.0000 C   0  0  0  0  0  0  0  0  0  0  0  0
    5.7958   -2.7750    0.0000 C   0  0  0  0  0  0  0  0  0  0  0  0
   -2.1750   -1.7083    0.0000 C   0  0  0  0  0  0  0  0  0  0  0  0
    6.4125   -1.0042    0.0000 C   0  0  0  0  0  0  0  0  0  0  0  0
    5.7958   -2.0667    0.0000 C   0  0  0  0  0  0  0  0  0  0  0  0
    7.0250   -0.6500    0.0000 C   0  0  0  0  0  0  0  0  0  0  0  0
    7.6375   -1.7125    0.0000 C   0  0  0  0  0  0  0  0  0  0  0  0
    7.0250   -2.0667    0.0000 C   0  0  0  0  0  0  0  0  0  0  0  0
    6.4125   -1.7125    0.0000 C   0  0  0  0  0  0  0  0  0  0  0  0
    7.6375   -1.0042    0.0000 C   0  0  0  0  0  0  0  0  0  0  0  0
   -0.8378   -2.9259    0.0000 H   0  0  0  0  0  0  0  0  0  0  0  0
  2  1  1  0
  3  1  1  0
  4  7  1  0
  5  9  1  6
  6  2  1  0
  7  5  1  0
  8  4  1  0
  3  9  1  6
 10 14  1  0
 11 12  2  0
 12 15  1  0
 13 11  1  0
 14  5  1  0
  8 15  1  6
 16 27  1  0
 17 13  2  0
 18 16  2  0
 19  6  1  0
  4 20  1  1
  7 21  1  1
 22 16  1  0
 23 13  1  0
 19 24  1  1
  6 25  1  6
 26 12  1  0
 27 30  1  0
 28 19  1  0
 29 23  1  0
 30 34  1  0
 31 29  1  0
 32 35  1  0
 33 32  1  0
 34 33  1  0
 35 31  1  0
  2  3  1  0
  8 10  1  0
  2 36  1  6
M  END
> <chembl_id>
CHEMBL719

> <chembl_pref_name>
MUPIROCIN
