
     RDKit          2D

 30 31  0  0  1  0  0  0  0  0999 V2000
   -1.1125   -0.9833    0.0000 C   0  0  0  0  0  0  0  0  0  0  0  0
   -0.4792   -1.3125    0.0000 C   0  0  0  0  0  0  0  0  0  0  0  0
   -2.1583   -0.6125    0.0000 C   0  0  0  0  0  0  0  0  0  0  0  0
   -1.1125   -0.2875    0.0000 C   0  0  0  0  0  0  0  0  0  0  0  0
   -1.7500   -1.1917    0.0000 C   0  0  0  0  0  0  0  0  0  0  0  0
   -1.7417   -0.0875    0.0000 C   0  0  0  0  0  0  0  0  0  0  0  0
    0.0875   -0.9667    0.0000 C   0  0  0  0  0  0  0  0  0  0  0  0
    3.2917   -0.2458    0.0000 C   0  0  0  0  0  0  0  0  0  0  0  0
    3.2875   -0.9458    0.0000 O   0  0  0  0  0  0  0  0  0  0  0  0
    0.0833   -0.2208    0.0000 C   0  0  0  0  0  0  0  0  0  0  0  0
    0.8083   -0.2292    0.0000 C   0  0  0  0  0  0  0  0  0  0  0  0
    3.9167    0.1125    0.0000 N   0  0  0  0  0  0  0  0  0  0  0  0
   -1.9583   -1.8667    0.0000 O   0  0  0  0  0  0  0  0  0  0  0  0
   -1.9583    0.5875    0.0000 O   0  0  0  0  0  0  0  0  0  0  0  0
   -0.5625    0.0917    0.0000 C   0  0  0  0  0  0  0  0  0  0  0  0
    0.7000   -1.3125    0.0000 C   0  0  0  0  0  0  0  0  0  0  0  0
    1.9792   -1.3542    0.0000 C   0  0  0  0  0  0  0  0  0  0  0  0
    1.3417   -0.9667    0.0000 C   0  0  0  0  0  0  0  0  0  0  0  0
    1.9792   -2.0375    0.0000 C   0  0  0  0  0  0  0  0  0  0  0  0
    0.7000   -2.0125    0.0000 O   0  0  0  0  0  0  0  0  0  0  0  0
    2.7000    0.1125    0.0000 C   0  0  0  0  0  0  0  0  0  0  0  0
    1.4417    0.1125    0.0000 C   0  0  0  0  0  0  0  0  0  0  0  0
    4.5917   -0.3000    0.0000 C   0  0  0  0  0  0  0  0  0  0  0  0
    1.3792   -2.4000    0.0000 C   0  0  0  0  0  0  0  0  0  0  0  0
    2.6167   -2.3792    0.0000 C   0  0  0  0  0  0  0  0  0  0  0  0
    2.0667   -0.2292    0.0000 C   0  0  0  0  0  0  0  0  0  0  0  0
    5.2583    0.0458    0.0000 C   0  0  0  0  0  0  0  0  0  0  0  0
    1.3792   -3.1208    0.0000 C   0  0  0  0  0  0  0  0  0  0  0  0
    2.6125   -3.0917    0.0000 C   0  0  0  0  0  0  0  0  0  0  0  0
    2.0250   -3.4708    0.0000 C   0  0  0  0  0  0  0  0  0  0  0  0
  1  2  1  1
  3  5  1  0
  4  1  1  0
  5  1  1  0
  6  4  1  0
  7  2  2  0
  8 21  1  0
  9  8  2  0
 10 15  1  0
 11 10  2  0
 12  8  1  0
  5 13  1  6
  6 14  1  6
  4 15  1  6
 16  7  1  0
 17 18  1  0
 18 16  1  0
 19 17  1  0
 16 20  1  6
 21 26  1  0
 22 11  1  0
 23 12  1  0
 24 19  2  0
 25 19  1  0
 26 22  1  0
 27 23  1  0
 28 24  1  0
 29 25  2  0
 30 29  1  0
  6  3  1  0
 30 28  2  0
M  END
> <chembl_id>
CHEMBL1200963

> <chembl_pref_name>
BIMATOPROST
