
     RDKit          2D

  9  8  0  0  0  0  0  0  0  0999 V2000
   -0.5625   -0.2792    0.0000 C   0  0  0  0  0  0  0  0  0  0  0  0
    1.9125   -0.2792    0.0000 C   0  0  0  0  0  0  0  0  0  0  0  0
   -1.8000    0.4083    0.0000 C   0  0  0  0  0  0  0  0  0  0  0  0
    0.6750    0.4083    0.0000 C   0  0  0  0  0  0  0  0  0  0  0  0
    3.1500    0.4083    0.0000 O   0  0  0  0  0  0  0  0  0  0  0  0
   -3.0333   -0.2792    0.0000 O   0  0  0  0  0  0  0  0  0  0  0  0
    1.9125   -1.7375    0.0000 O   0  0  0  0  0  0  0  0  0  0  0  0
   -1.8000    1.8625    0.0000 O   0  0  0  0  0  0  0  0  0  0  0  0
    0.6750    1.8625    0.0000 O   0  0  0  0  0  0  0  0  0  0  0  0
  2  4  1  0
  3  1  1  0
  4  1  1  0
  5  2  2  0
  6  3  2  0
  7  2  1  0
  8  3  1  0
  9  4  1  0
M  END
> <chembl_id>
CHEMBL1455497

> <chembl_pref_name>
MALIC ACID
