
  Mrv2102 12212111322D          

 69 68  0  0  0  0            999 V2000
   -3.5165    1.0795    0.0000 C   0  0  0  0  0  0  0  0  0  0  0  0
   -2.8005    1.4894    0.0000 C   0  0  0  0  0  0  0  0  0  0  0  0
   -2.0872    1.0746    0.0000 C   0  0  0  0  0  0  0  0  0  0  0  0
   -1.3712    1.4845    0.0000 C   0  0  0  0  0  0  0  0  0  0  0  0
   -0.6580    1.0696    0.0000 N   0  0  0  0  0  0  0  0  0  0  0  0
    0.0580    1.4795    0.0000 C   0  0  0  0  0  0  0  0  0  0  0  0
    0.7711    1.0646    0.0000 C   0  0  0  0  0  0  0  0  0  0  0  0
    1.4872    1.4746    0.0000 C   0  0  0  0  0  0  0  0  0  0  0  0
    2.2003    1.0597    0.0000 C   0  0  0  0  0  0  0  0  0  0  0  0
    2.9164    1.4696    0.0000 C   0  0  0  0  0  0  0  0  0  0  0  0
    3.6296    1.0547    0.0000 C   0  0  0  0  0  0  0  0  0  0  0  0
    4.3456    1.4646    0.0000 N   0  0  0  0  0  0  0  0  0  0  0  0
    5.0588    1.0498    0.0000 C   0  0  0  0  0  0  0  0  0  0  0  0
    5.7748    1.4597    0.0000 C   0  0  0  0  0  0  0  0  0  0  0  0
    6.4880    1.0448    0.0000 C   0  0  0  0  0  0  0  0  0  0  0  0
    7.2040    1.4547    0.0000 C   0  0  0  0  0  0  0  0  0  0  0  0
    7.9172    1.0399    0.0000 C   0  0  0  0  0  0  0  0  0  0  0  0
    8.6333    1.4498    0.0000 C   0  0  0  0  0  0  0  0  0  0  0  0
    9.3464    1.0349    0.0000 C   0  0  0  0  0  0  0  0  0  0  0  0
   10.0625    1.4448    0.0000 N   0  0  0  0  0  0  0  0  0  0  0  0
   10.7756    1.0299    0.0000 C   0  0  0  0  0  0  0  0  0  0  0  0
   11.4917    1.4399    0.0000 C   0  0  0  0  0  0  0  0  0  0  0  0
   12.2048    1.0250    0.0000 N   0  0  0  0  0  0  0  0  0  0  0  0
   12.9208    1.4349    0.0000 C   0  0  0  0  0  0  0  0  0  0  0  0
   10.7773    2.6773    0.0000 C   0  0  0  0  0  0  0  0  0  0  0  0
   10.0629    2.2648    0.0000 C   0  0  0  0  0  0  0  0  0  0  0  0
   11.4917    2.2648    0.0000 O   0  5  0  0  0  0  0  0  0  0  0  0
    7.9184    2.6922    0.0000 C   0  0  0  0  0  0  0  0  0  0  0  0
    7.2040    2.2796    0.0000 C   0  0  0  0  0  0  0  0  0  0  0  0
    8.6328    2.2796    0.0000 C   0  0  0  0  0  0  0  0  0  0  0  0
   12.2065    0.1976    0.0000 C   0  0  0  0  0  0  0  0  0  0  0  0
   12.9208   -0.2149    0.0000 C   0  0  0  0  0  0  0  0  0  0  0  0
   13.6352    0.1976    0.0000 C   0  0  0  0  0  0  0  0  0  0  0  0
   12.9208   -1.0399    0.0000 C   0  0  0  0  0  0  0  0  0  0  0  0
   13.6352   -1.4523    0.0000 C   0  0  0  0  0  0  0  0  0  0  0  0
   14.3497   -1.0399    0.0000 C   0  0  0  0  0  0  0  0  0  0  0  0
   14.3497   -0.2149    0.0000 C   0  0  0  0  0  0  0  0  0  0  0  0
   15.0640    0.1976    0.0000 C   0  0  0  0  0  0  0  0  0  0  0  0
   15.7784   -0.2149    0.0000 C   0  0  0  0  0  0  0  0  0  0  0  0
   16.4928    0.1976    0.0000 C   0  0  0  0  0  0  0  0  0  0  0  0
   16.4928    1.0225    0.0000 O   0  0  0  0  0  0  0  0  0  0  0  0
   12.2065   -1.4523    0.0000 O   0  5  0  0  0  0  0  0  0  0  0  0
   12.2065    2.6723    0.0000 O   0  0  0  0  0  0  0  0  0  0  0  0
   12.9208    2.2598    0.0000 C   0  0  0  0  0  0  0  0  0  0  0  0
   17.2071   -0.2149    0.0000 O   0  0  0  0  0  0  0  0  0  0  0  0
   13.6352    2.6723    0.0000 O   0  5  0  0  0  0  0  0  0  0  0  0
   10.7773    3.5022    0.0000 O   0  0  0  0  0  0  0  0  0  0  0  0
    9.3471    2.6923    0.0000 O   0  5  0  0  0  0  0  0  0  0  0  0
    5.0559    0.2249    0.0000 O   0  0  0  0  0  0  0  0  0  0  0  0
    0.0608    2.3044    0.0000 O   0  0  0  0  0  0  0  0  0  0  0  0
   -4.2309    1.4919    0.0000 C   0  0  1  0  0  0  0  0  0  0  0  0
   -4.8853    0.9898    0.0000 C   0  0  0  0  0  0  0  0  0  0  0  0
   -5.5397    1.4919    0.0000 O   0  0  0  0  0  0  0  0  0  0  0  0
   -4.8853    0.1649    0.0000 O   0  0  0  0  0  0  0  0  0  0  0  0
   -4.2848    2.3150    0.0000 N   0  0  0  0  0  0  0  0  0  0  0  0
   -5.0124    2.7083    0.0000 C   0  0  0  0  0  0  0  0  0  0  0  0
   -5.7179    2.2768    0.0000 N   0  0  0  0  0  0  0  0  0  0  0  0
   -6.4455    2.6700    0.0000 C   0  0  1  0  0  0  0  0  0  0  0  0
   -7.1510    2.2385    0.0000 C   0  0  0  0  0  0  0  0  0  0  0  0
   -7.8785    2.6317    0.0000 C   0  0  0  0  0  0  0  0  0  0  0  0
   -8.5842    2.2002    0.0000 C   0  0  0  0  0  0  0  0  0  0  0  0
   -9.3117    2.5935    0.0000 O   0  0  0  0  0  0  0  0  0  0  0  0
   -5.0344    3.5329    0.0000 O   0  0  0  0  0  0  0  0  0  0  0  0
   -6.4455    3.4949    0.0000 C   0  0  0  0  0  0  0  0  0  0  0  0
   -7.1598    3.9073    0.0000 O   0  0  0  0  0  0  0  0  0  0  0  0
   -5.7311    3.9073    0.0000 O   0  0  0  0  0  0  0  0  0  0  0  0
   -8.5622    1.3756    0.0000 O   0  0  0  0  0  0  0  0  0  0  0  0
   15.9592    3.2711    0.0000 Ga  0  1  0  0  0  0  0  0  0  0  0  0
   17.8695    2.9246    0.0000 O   0  3  0  0  0  0  0  0  0  0  0  0
  1  2  1  0  0  0  0
  2  3  1  0  0  0  0
  3  4  1  0  0  0  0
  4  5  1  0  0  0  0
  5  6  1  0  0  0  0
  6  7  1  0  0  0  0
  7  8  1  0  0  0  0
  8  9  1  0  0  0  0
  9 10  1  0  0  0  0
 10 11  1  0  0  0  0
 11 12  1  0  0  0  0
 12 13  1  0  0  0  0
 13 14  1  0  0  0  0
 14 15  1  0  0  0  0
 15 16  1  0  0  0  0
 16 17  1  0  0  0  0
 17 18  2  0  0  0  0
 18 19  1  0  0  0  0
 19 20  1  0  0  0  0
 20 21  1  0  0  0  0
 21 22  1  0  0  0  0
 22 23  1  0  0  0  0
 23 24  1  0  0  0  0
 25 26  1  0  0  0  0
 25 27  1  0  0  0  0
 26 20  1  0  0  0  0
 28 29  1  0  0  0  0
 28 30  2  0  0  0  0
 29 16  2  0  0  0  0
 18 30  1  0  0  0  0
 31 32  1  0  0  0  0
 32 33  2  0  0  0  0
 23 31  1  0  0  0  0
 34 35  2  0  0  0  0
 35 36  1  0  0  0  0
 36 37  2  0  0  0  0
 32 34  1  0  0  0  0
 33 37  1  0  0  0  0
 38 39  1  0  0  0  0
 38 37  1  0  0  0  0
 40 41  2  0  0  0  0
 39 40  1  0  0  0  0
 42 34  1  0  0  0  0
 43 44  2  0  0  0  0
 24 44  1  0  0  0  0
 40 45  1  0  0  0  0
 44 46  1  0  0  0  0
 25 47  2  0  0  0  0
 30 48  1  0  0  0  0
 13 49  2  0  0  0  0
  6 50  2  0  0  0  0
  1 51  1  0  0  0  0
 51 52  1  0  0  0  0
 52 53  1  0  0  0  0
 52 54  2  0  0  0  0
 51 55  1  1  0  0  0
 56 57  1  0  0  0  0
 57 58  1  0  0  0  0
 58 59  1  0  0  0  0
 59 60  1  0  0  0  0
 60 61  1  0  0  0  0
 61 62  1  0  0  0  0
 55 56  1  0  0  0  0
 56 63  2  0  0  0  0
 58 64  1  1  0  0  0
 64 65  1  0  0  0  0
 64 66  2  0  0  0  0
 61 67  2  0  0  0  0
M  CHG  6  27  -1  42  -1  46  -1  48  -1  68   3  69   1
M  ISO  1  68  68
M  END
> <chembl_id>
CHEMBL5095039

> <chembl_pref_name>
GALLIUM GA 68 GOZETOTIDE
