
     RDKit          2D

 19 20  0  0  0  0  0  0  0  0999 V2000
    0.2042   -1.0167    0.0000 C   0  0  0  0  0  0  0  0  0  0  0  0
   -0.4083   -1.3667    0.0000 C   0  0  0  0  0  0  0  0  0  0  0  0
    0.8167   -1.3667    0.0000 C   0  0  0  0  0  0  0  0  0  0  0  0
    1.4292   -1.0167    0.0000 C   0  0  0  0  0  0  0  0  0  0  0  0
    2.6542   -1.0167    0.0000 C   0  0  0  0  0  0  0  0  0  0  0  0
    2.0417   -1.3667    0.0000 C   0  0  0  0  0  0  0  0  0  0  0  0
   -0.4083   -2.0792    0.0000 O   0  0  0  0  0  0  0  0  0  0  0  0
   -1.0208   -1.0167    0.0000 C   0  0  0  0  0  0  0  0  0  0  0  0
    2.6542   -0.3042    0.0000 O   0  0  0  0  0  0  0  0  0  0  0  0
    0.8167   -2.0792    0.0000 N   0  0  0  0  0  0  0  0  0  0  0  0
    3.2750   -1.3667    0.0000 N   0  0  0  0  0  0  0  0  0  0  0  0
    0.2042   -0.3042    0.0000 C   0  0  0  0  0  0  0  0  0  0  0  0
    1.4292   -0.3042    0.0000 C   0  0  0  0  0  0  0  0  0  0  0  0
    0.8125    0.0458    0.0000 C   0  0  0  0  0  0  0  0  0  0  0  0
   -1.0208   -0.3042    0.0000 C   0  0  0  0  0  0  0  0  0  0  0  0
   -1.6333   -1.3667    0.0000 C   0  0  0  0  0  0  0  0  0  0  0  0
   -1.6333    0.0458    0.0000 C   0  0  0  0  0  0  0  0  0  0  0  0
   -2.2458   -1.0167    0.0000 C   0  0  0  0  0  0  0  0  0  0  0  0
   -2.2458   -0.3042    0.0000 C   0  0  0  0  0  0  0  0  0  0  0  0
  2  1  1  0
  3  1  2  0
  4  3  1  0
  5  6  1  0
  6  4  1  0
  7  2  2  0
  8  2  1  0
  9  5  2  0
 10  3  1  0
 11  5  1  0
 12  1  1  0
 13 14  1  0
 14 12  2  0
 15  8  1  0
 16  8  2  0
 17 15  2  0
 18 16  1  0
 19 18  2  0
 13  4  2  0
 19 17  1  0
M  END
> <chembl_id>
CHEMBL1021

> <chembl_pref_name>
NEPAFENAC
