
     RDKit          2D

 15 17  0  0  0  0  0  0  0  0999 V2000
    5.7167   -6.1000    0.0000 C   0  0  0  0  0  0  0  0  0  0  0  0
    5.0917   -6.4542    0.0000 C   0  0  0  0  0  0  0  0  0  0  0  0
    4.4917   -6.0917    0.0000 C   0  0  0  0  0  0  0  0  0  0  0  0
    5.9292   -5.4250    0.0000 N   0  0  0  0  0  0  0  0  0  0  0  0
    6.2917   -6.5167    0.0000 N   0  0  0  0  0  0  0  0  0  0  0  0
    3.8667   -6.4417    0.0000 C   0  0  0  0  0  0  0  0  0  0  0  0
    5.0917   -7.1625    0.0000 C   0  0  0  0  0  0  0  0  0  0  0  0
    6.6417   -5.4292    0.0000 C   0  0  0  0  0  0  0  0  0  0  0  0
    4.4917   -5.3917    0.0000 C   0  0  0  0  0  0  0  0  0  0  0  0
    6.8667   -6.0917    0.0000 C   0  0  0  0  0  0  0  0  0  0  0  0
    4.4750   -7.5167    0.0000 C   0  0  0  0  0  0  0  0  0  0  0  0
    3.8667   -7.1542    0.0000 C   0  0  0  0  0  0  0  0  0  0  0  0
    3.2542   -6.0792    0.0000 C   0  0  0  0  0  0  0  0  0  0  0  0
    3.8792   -5.0250    0.0000 C   0  0  0  0  0  0  0  0  0  0  0  0
    3.2625   -5.3792    0.0000 C   0  0  0  0  0  0  0  0  0  0  0  0
  2  1  1  0
  3  2  1  0
  4  1  2  0
  5  1  1  0
  6  3  1  0
  7  2  1  0
  8  4  1  0
  9  3  2  0
 10  5  1  0
 11  7  1  0
 12 11  1  0
 13  6  2  0
 14  9  1  0
 15 14  2  0
  8 10  1  0
 12  6  1  0
 15 13  1  0
M  END
> <chembl_id>
CHEMBL1266

> <chembl_pref_name>
TETRAHYDROZOLINE
