
     RDKit          2D

 22 23  0  0  0  0  0  0  0  0999 V2000
    4.3292   -0.5667    0.0000 N   0  0  0  0  0  0  0  0  0  0  0  0
    3.1917   -0.5625    0.0000 N   0  0  0  0  0  0  0  0  0  0  0  0
    3.4292   -1.2292    0.0000 N   0  0  0  0  0  0  0  0  0  0  0  0
    0.7375   -0.5375    0.0000 C   0  0  0  0  0  0  0  0  0  0  0  0
    1.3542   -1.5917    0.0000 C   0  0  0  0  0  0  0  0  0  0  0  0
    2.5750   -3.0292    0.0000 N   0  0  0  0  0  0  0  0  0  0  0  0
   -1.1125   -0.8917    0.0000 N   0  0  0  0  0  0  0  0  0  0  0  0
    4.1167   -1.2292    0.0000 C   0  0  0  0  0  0  0  0  0  0  0  0
    3.7750   -0.1917    0.0000 C   0  0  0  0  0  0  0  0  0  0  0  0
    0.7417   -1.2542    0.0000 C   0  0  0  0  0  0  0  0  0  0  0  0
    1.3542   -2.3250    0.0000 C   0  0  0  0  0  0  0  0  0  0  0  0
    0.1167   -0.1875    0.0000 C   0  0  0  0  0  0  0  0  0  0  0  0
    1.9625   -2.6792    0.0000 C   0  0  0  0  0  0  0  0  0  0  0  0
   -0.4958   -0.5417    0.0000 C   0  0  0  0  0  0  0  0  0  0  0  0
    1.9792   -0.5417    0.0000 C   0  0  0  0  0  0  0  0  0  0  0  0
    1.3542   -0.1792    0.0000 C   0  0  0  0  0  0  0  0  0  0  0  0
    1.9792   -1.2417    0.0000 C   0  0  0  0  0  0  0  0  0  0  0  0
    2.5917   -0.1917    0.0000 C   0  0  0  0  0  0  0  0  0  0  0  0
    0.4667    0.4333    0.0000 C   0  0  0  0  0  0  0  0  0  0  0  0
   -0.2375    0.4333    0.0000 C   0  0  0  0  0  0  0  0  0  0  0  0
    0.9917   -2.9375    0.0000 C   0  0  0  0  0  0  0  0  0  0  0  0
    0.6417   -2.3250    0.0000 C   0  0  0  0  0  0  0  0  0  0  0  0
  2  9  1  0
  3  8  2  0
  4 16  1  0
  5 17  2  0
  6 13  3  0
  7 14  3  0
  8  1  1  0
  9  1  2  0
 10  5  1  0
 11  5  1  0
 12  4  1  0
 13 11  1  0
 14 12  1  0
 15 18  1  0
 16 15  2  0
 17 15  1  0
 18  2  1  0
 19 12  1  0
 20 12  1  0
 21 11  1  0
 22 11  1  0
  2  3  1  0
  4 10  2  0
M  END
> <chembl_id>
CHEMBL1399

> <chembl_pref_name>
ANASTROZOLE
