
     RDKit          2D

 23 24  0  0  0  0  0  0  0  0999 V2000
    3.0716   -5.5124    0.0000 C   0  0  0  0  0  0  0  0  0  0  0  0
    3.0716   -4.6681    0.0000 C   0  0  0  0  0  0  0  0  0  0  0  0
    2.3534   -5.9345    0.0000 N   0  0  0  0  0  0  0  0  0  0  0  0
    3.8868   -5.7599    0.0000 N   0  0  0  0  0  0  0  0  0  0  0  0
    1.6304   -4.6681    0.0000 N   0  0  0  0  0  0  0  0  0  0  0  0
    3.9014   -4.4206    0.0000 N   0  0  0  0  0  0  0  0  0  0  0  0
    2.3534   -4.2313    0.0000 C   0  0  0  0  0  0  0  0  0  0  0  0
    1.6304   -5.4978    0.0000 C   0  0  0  0  0  0  0  0  0  0  0  0
    4.3527   -5.0902    0.0000 C   0  0  0  0  0  0  0  0  0  0  0  0
    7.4825   -6.9681    0.0000 C   0  0  0  0  0  0  0  0  0  0  0  0
    8.2006   -6.5605    0.0000 C   0  0  0  0  0  0  0  0  0  0  0  0
    2.3534   -3.4307    0.0000 O   0  0  0  0  0  0  0  0  0  0  0  0
    3.8868   -6.5605    0.0000 C   0  0  0  0  0  0  0  0  0  0  0  0
    7.4825   -7.7833    0.0000 O   0  0  0  0  0  0  0  0  0  0  0  0
    0.9317   -5.9054    0.0000 N   0  0  0  0  0  0  0  0  0  0  0  0
    8.2006   -5.7355    0.0000 N   0  0  0  0  0  0  0  0  0  0  0  0
    8.9139   -6.9729    0.0000 C   0  0  0  0  0  0  0  0  0  0  0  0
    6.7692   -6.5605    0.0000 O   0  0  0  0  0  0  0  0  0  0  0  0
    4.6147   -6.9681    0.0000 O   0  0  0  0  0  0  0  0  0  0  0  0
    6.0413   -6.9681    0.0000 C   0  0  0  0  0  0  0  0  0  0  0  0
    8.9139   -7.7979    0.0000 C   0  0  0  0  0  0  0  0  0  0  0  0
    9.6273   -6.5605    0.0000 C   0  0  0  0  0  0  0  0  0  0  0  0
    5.3280   -6.5605    0.0000 C   0  0  0  0  0  0  0  0  0  0  0  0
  2  1  2  0
  3  1  1  0
  4  1  1  0
  5  8  2  0
  6  2  1  0
  7  2  1  0
  8  3  1  0
  9  4  1  0
 10 18  1  0
 11 10  1  0
 12  7  2  0
 13  4  1  0
 14 10  2  0
 15  8  1  0
 11 16  1  1
 17 11  1  0
 18 20  1  0
 19 13  1  0
 20 23  1  0
 21 17  1  0
 22 17  1  0
 23 19  1  0
  6  9  2  0
  7  5  1  0
M  END
> <chembl_id>
CHEMBL1349

> <chembl_pref_name>
VALACYCLOVIR
