
     RDKit          2D

 24 24  0  0  0  0  0  0  0  0999 V2000
    0.9417   -0.8667    0.0000 N   0  0  0  0  0  0  0  0  0  0  0  0
   -0.7958   -0.9042    0.0000 N   0  0  0  0  0  0  0  0  0  0  0  0
    0.0500    0.6208    0.0000 C   0  0  0  0  0  0  0  0  0  0  0  0
    0.0750   -1.3917    0.0000 C   0  0  0  0  0  0  0  0  0  0  0  0
   -0.7958    0.1208    0.0000 C   0  0  0  0  0  0  0  0  0  0  0  0
    0.9167    0.1458    0.0000 C   0  0  0  0  0  0  0  0  0  0  0  0
   -1.7250   -1.3917    0.0000 C   0  0  0  0  0  0  0  0  0  0  0  0
    1.8542   -1.3792    0.0000 C   0  0  0  0  0  0  0  0  0  0  0  0
    0.5875    1.4750    0.0000 N   0  0  0  0  0  0  0  0  0  0  0  0
   -0.6083    1.4083    0.0000 C   0  0  0  0  0  0  0  0  0  0  0  0
    2.6792   -0.8792    0.0000 C   0  0  0  0  0  0  0  0  0  0  0  0
   -2.5958   -0.8375    0.0000 C   0  0  0  0  0  0  0  0  0  0  0  0
    3.5792   -1.3375    0.0000 C   0  0  0  0  0  0  0  0  0  0  0  0
   -3.5000   -1.3250    0.0000 C   0  0  0  0  0  0  0  0  0  0  0  0
   -2.5958    0.1083    0.0000 C   0  0  0  0  0  0  0  0  0  0  0  0
    2.6917    0.2375    0.0000 C   0  0  0  0  0  0  0  0  0  0  0  0
    3.4792    1.7500    0.0000 C   0  0  0  0  0  0  0  0  0  0  0  0
   -1.6208    1.5583    0.0000 C   0  0  0  0  0  0  0  0  0  0  0  0
    3.5375    0.7500    0.0000 C   0  0  0  0  0  0  0  0  0  0  0  0
   -1.6708    0.5583    0.0000 C   0  0  0  0  0  0  0  0  0  0  0  0
    3.6042   -2.3375    0.0000 C   0  0  0  0  0  0  0  0  0  0  0  0
   -4.3458   -0.7875    0.0000 C   0  0  0  0  0  0  0  0  0  0  0  0
    4.3417    2.3458    0.0000 C   0  0  0  0  0  0  0  0  0  0  0  0
   -0.7208    2.0583    0.0000 C   0  0  0  0  0  0  0  0  0  0  0  0
  2  4  1  0
  3  6  1  0
  4  1  1  0
  5  3  1  0
  6  1  1  0
  7  2  1  0
  8  1  1  0
  9  3  1  0
 10  3  1  0
 11  8  1  0
 12  7  1  0
 13 11  1  0
 14 12  1  0
 15 12  1  0
 16 11  1  0
 17 19  1  0
 18 20  1  0
 19 16  1  0
 20 15  1  0
 21 13  1  0
 22 14  1  0
 23 17  1  0
 24 18  1  0
  2  5  1  0
M  END
> <chembl_id>
CHEMBL144673

> <chembl_pref_name>
HEXETIDINE
