
     RDKit          2D

 24 24  0  0  0  0  0  0  0  0999 V2000
    1.3375   -5.1542    0.0000 Na  0  0  0  0  0 15  0  0  0  0  0  0
    8.0375   -5.3292    0.0000 C   0  0  0  0  0  0  0  0  0  0  0  0
    8.0375   -6.0167    0.0000 C   0  0  0  0  0  0  0  0  0  0  0  0
    7.4417   -4.9917    0.0000 C   0  0  0  0  0  0  0  0  0  0  0  0
    6.8500   -5.3375    0.0000 C   0  0  0  0  0  0  0  0  0  0  0  0
    6.8500   -6.0167    0.0000 C   0  0  0  0  0  0  0  0  0  0  0  0
    7.4417   -6.3667    0.0000 C   0  0  0  0  0  0  0  0  0  0  0  0
    8.6292   -4.9792    0.0000 C   0  0  0  0  0  0  0  0  0  0  0  0
    9.2292   -5.3292    0.0000 O   0  0  0  0  0  0  0  0  0  0  0  0
    9.2292   -6.0167    0.0000 C   0  0  0  0  0  0  0  0  0  0  0  0
    6.2542   -4.9875    0.0000 C   0  0  0  0  0  0  0  0  0  0  0  0
    5.6542   -5.3375    0.0000 C   0  0  0  0  0  0  0  0  0  0  0  0
    3.2792   -5.3375    0.0000 C   0  0  0  0  0  0  0  0  0  0  0  0
    8.6292   -4.2917    0.0000 O   0  0  0  0  0  0  0  0  0  0  0  0
    5.0667   -4.9875    0.0000 C   0  0  0  0  0  0  0  0  0  0  0  0
    2.6792   -4.9875    0.0000 O   0  0  0  0  0  0  0  0  0  0  0  0
    3.2792   -6.0250    0.0000 O   0  0  0  0  0  0  0  0  0  0  0  0
    7.4417   -4.3042    0.0000 O   0  0  0  0  0  0  0  0  0  0  0  0
    6.2542   -6.3625    0.0000 O   0  0  0  0  0  0  0  0  0  0  0  0
    3.8750   -4.9875    0.0000 C   0  0  0  0  0  0  0  0  0  0  0  0
    4.4667   -5.3375    0.0000 C   0  0  0  0  0  0  0  0  0  0  0  0
    7.4417   -7.0542    0.0000 C   0  0  0  0  0  0  0  0  0  0  0  0
    5.0667   -4.3000    0.0000 C   0  0  0  0  0  0  0  0  0  0  0  0
    6.2542   -7.0500    0.0000 C   0  0  0  0  0  0  0  0  0  0  0  0
  3  2  1  0
  4  2  2  0
  5  4  1  0
  6  5  2  0
  7  3  2  0
  8  2  1  0
  9  8  1  0
 10  3  1  0
 11  5  1  0
 12 11  1  0
 13 20  1  0
 14  8  2  0
 15 12  2  0
 16 13  1  0
 17 13  2  0
 18  4  1  0
 19  6  1  0
 20 21  1  0
 21 15  1  0
 22  7  1  0
 23 15  1  0
 24 19  1  0
  9 10  1  0
  6  7  1  0
M  CHG  2   1   1  16  -1
M  END
> <chembl_id>
CHEMBL2106643

> <chembl_pref_name>
MYCOPHENOLATE SODIUM
