
     RDKit          2D

 19 20  0  0  0  0  0  0  0  0999 V2000
   -0.4333   -1.2792    0.0000 N   0  0  0  0  0  0  0  0  0  0  0  0
   -0.4375   -3.3917    0.0000 N   0  0  0  0  0  0  0  0  0  0  0  0
    0.4917    3.4708    0.0000 N   0  0  0  0  0  0  0  0  0  0  0  0
    0.4792    1.3583    0.0000 N   0  0  0  0  0  0  0  0  0  0  0  0
    0.4792   -2.8667    0.0000 C   0  0  0  0  0  0  0  0  0  0  0  0
   -1.3458   -2.8542    0.0000 C   0  0  0  0  0  0  0  0  0  0  0  0
   -0.4250    2.9458    0.0000 C   0  0  0  0  0  0  0  0  0  0  0  0
    1.4000    2.9333    0.0000 C   0  0  0  0  0  0  0  0  0  0  0  0
    0.4875   -1.8042    0.0000 C   0  0  0  0  0  0  0  0  0  0  0  0
   -1.3458   -1.8042    0.0000 C   0  0  0  0  0  0  0  0  0  0  0  0
   -0.4333   -0.2292    0.0000 C   0  0  0  0  0  0  0  0  0  0  0  0
    0.4792    0.3000    0.0000 C   0  0  0  0  0  0  0  0  0  0  0  0
    1.4000    1.8833    0.0000 C   0  0  0  0  0  0  0  0  0  0  0  0
   -0.4333    1.8833    0.0000 C   0  0  0  0  0  0  0  0  0  0  0  0
   -2.2625   -3.3792    0.0000 O   0  0  0  0  0  0  0  0  0  0  0  0
    1.3917   -3.4000    0.0000 O   0  0  0  0  0  0  0  0  0  0  0  0
   -1.3458    3.4708    0.0000 O   0  0  0  0  0  0  0  0  0  0  0  0
    2.3167    3.4583    0.0000 O   0  0  0  0  0  0  0  0  0  0  0  0
   -1.3458    0.3000    0.0000 C   0  0  0  0  0  0  0  0  0  0  0  0
  2  6  1  0
  3  7  1  0
  4 12  1  0
  5  9  1  0
  6 10  1  0
  7 14  1  0
  8 13  1  0
  9  1  1  0
 10  1  1  0
 11  1  1  0
 12 11  1  0
 13  4  1  0
 14  4  1  0
 15  6  2  0
 16  5  2  0
 17  7  2  0
 18  8  2  0
 19 11  1  0
  5  2  1  0
  8  3  1  0
M  END
> <chembl_id>
CHEMBL444186

> <chembl_pref_name>
RAZOXANE
