
     RDKit          2D

 28 31  0  0  0  0  0  0  0  0999 V2000
    3.1292   -5.0917    0.0000 N   0  0  0  0  0  0  0  0  0  0  0  0
    2.7792   -4.4792    0.0000 C   0  0  0  0  0  0  0  0  0  0  0  0
    2.7625   -5.7042    0.0000 C   0  0  0  0  0  0  0  0  0  0  0  0
    8.1417   -3.9292    0.0000 C   0  0  0  0  0  0  0  0  0  0  0  0
    7.4292   -3.9417    0.0000 N   0  0  0  0  0  0  0  0  0  0  0  0
    1.7000   -5.0917    0.0000 C   0  0  0  0  0  0  0  0  0  0  0  0
    2.0667   -4.4750    0.0000 C   0  0  0  0  0  0  0  0  0  0  0  0
    2.0500   -5.7125    0.0000 C   0  0  0  0  0  0  0  0  0  0  0  0
    6.0042   -3.9292    0.0000 N   0  0  0  0  0  0  0  0  0  0  0  0
    8.4917   -4.5625    0.0000 N   0  0  0  0  0  0  0  0  0  0  0  0
    8.5125   -3.3167    0.0000 N   0  0  0  0  0  0  0  0  0  0  0  0
    3.1625   -3.8625    0.0000 O   0  0  0  0  0  0  0  0  0  0  0  0
    3.1167   -6.3417    0.0000 O   0  0  0  0  0  0  0  0  0  0  0  0
    7.0792   -3.3167    0.0000 C   0  0  0  0  0  0  0  0  0  0  0  0
    7.0625   -4.5417    0.0000 C   0  0  0  0  0  0  0  0  0  0  0  0
    6.3667   -3.3042    0.0000 C   0  0  0  0  0  0  0  0  0  0  0  0
    6.3542   -4.5417    0.0000 C   0  0  0  0  0  0  0  0  0  0  0  0
    3.8417   -5.1042    0.0000 C   0  0  0  0  0  0  0  0  0  0  0  0
    9.5750   -3.9625    0.0000 C   0  0  0  0  0  0  0  0  0  0  0  0
    5.2792   -3.9417    0.0000 C   0  0  0  0  0  0  0  0  0  0  0  0
    9.2042   -4.5750    0.0000 C   0  0  0  0  0  0  0  0  0  0  0  0
    9.2167   -3.3417    0.0000 C   0  0  0  0  0  0  0  0  0  0  0  0
    1.2792   -4.5167    0.0000 C   0  0  0  0  0  0  0  0  0  0  0  0
    1.2750   -5.6542    0.0000 C   0  0  0  0  0  0  0  0  0  0  0  0
    4.2167   -4.5000    0.0000 C   0  0  0  0  0  0  0  0  0  0  0  0
    4.9167   -4.5000    0.0000 C   0  0  0  0  0  0  0  0  0  0  0  0
    0.6125   -4.7292    0.0000 C   0  0  0  0  0  0  0  0  0  0  0  0
    0.6125   -5.4250    0.0000 C   0  0  0  0  0  0  0  0  0  0  0  0
  2  1  1  0
  3  1  1  0
  4  5  1  0
  5 15  1  0
  6  8  1  0
  7  2  1  0
  8  3  1  0
  9 20  1  0
 10  4  1  0
 11  4  2  0
 12  2  2  0
 13  3  2  0
 14 16  1  0
 15 17  1  0
 16  9  1  0
 17  9  1  0
 18  1  1  0
 19 22  2  0
 20 26  1  0
 21 10  2  0
 22 11  1  0
 23  6  1  0
 24  6  1  0
 25 18  1  0
 26 25  1  0
 27 23  1  0
 28 24  1  0
  6  7  1  0
 28 27  1  0
  5 14  1  0
 19 21  1  0
M  END
> <chembl_id>
CHEMBL49

> <chembl_pref_name>
BUSPIRONE
