
     RDKit          2D

 31 34  0  0  0  0  0  0  0  0999 V2000
    3.5167   -1.6333    0.0000 C   0  0  0  0  0  0  0  0  0  0  0  0
    4.2708   -1.2958    0.0000 N   0  0  0  0  0  0  0  0  0  0  0  0
    3.6042   -2.4542    0.0000 N   0  0  0  0  0  0  0  0  0  0  0  0
   -1.5708    2.0750    0.0000 C   0  0  0  0  0  0  0  0  0  0  0  0
   -1.4833    1.2542    0.0000 N   0  0  0  0  0  0  0  0  0  0  0  0
    4.4125   -2.6250    0.0000 N   0  0  0  0  0  0  0  0  0  0  0  0
    4.8208   -1.9083    0.0000 N   0  0  0  0  0  0  0  0  0  0  0  0
   -4.9333    1.1208    0.0000 P   0  0  0  0  0  0  0  0  0  0  0  0
   -2.3750    2.2458    0.0000 O   0  0  0  0  0  0  0  0  0  0  0  0
   -0.7708    0.8417    0.0000 C   0  0  0  0  0  0  0  0  0  0  0  0
   -0.0542    1.2542    0.0000 C   0  0  0  0  0  0  0  0  0  0  0  0
    0.6583    0.8417    0.0000 C   0  0  0  0  0  0  0  0  0  0  0  0
    2.0875   -1.6333    0.0000 N   0  0  0  0  0  0  0  0  0  0  0  0
    2.8042   -1.2208    0.0000 C   0  0  0  0  0  0  0  0  0  0  0  0
    0.6583    0.0167    0.0000 C   0  0  0  0  0  0  0  0  0  0  0  0
   -2.7875    1.5333    0.0000 C   0  0  0  0  0  0  0  0  0  0  0  0
   -2.2375    0.9208    0.0000 C   0  0  0  0  0  0  0  0  0  0  0  0
   -0.0542   -0.3958    0.0000 C   0  0  0  0  0  0  0  0  0  0  0  0
   -0.9583    2.6292    0.0000 O   0  0  0  0  0  0  0  0  0  0  0  0
   -4.2167    1.5333    0.0000 O   0  0  0  0  0  0  0  0  0  0  0  0
    1.3750   -0.3958    0.0000 C   0  0  0  0  0  0  0  0  0  0  0  0
   -5.6458    1.5333    0.0000 O   0  0  0  0  0  0  0  0  0  0  0  0
   -0.7708    0.0167    0.0000 C   0  0  0  0  0  0  0  0  0  0  0  0
    1.3750   -1.2208    0.0000 C   0  0  0  0  0  0  0  0  0  0  0  0
   -3.5042    1.1208    0.0000 C   0  0  0  0  0  0  0  0  0  0  0  0
    2.8042   -0.3958    0.0000 C   0  0  0  0  0  0  0  0  0  0  0  0
    2.0875    0.0167    0.0000 C   0  0  0  0  0  0  0  0  0  0  0  0
   -5.5167    0.5375    0.0000 O   0  0  0  0  0  0  0  0  0  0  0  0
   -4.3500    0.5375    0.0000 O   0  0  0  0  0  0  0  0  0  0  0  0
    1.3750    1.2542    0.0000 F   0  0  0  0  0  0  0  0  0  0  0  0
    5.6417   -1.8250    0.0000 C   0  0  0  0  0  0  0  0  0  0  0  0
  2  1  2  0
  3  1  1  0
  4  5  1  0
  5 10  1  0
  6  3  2  0
  7  2  1  0
  8 20  1  0
  9  4  1  0
 10 11  2  0
 11 12  1  0
 12 15  2  0
 13 14  1  0
 14  1  1  0
 15 21  1  0
 16 17  1  0
 17  5  1  0
 18 15  1  0
 19  4  2  0
 20 25  1  0
 21 27  2  0
 22  8  2  0
 23 18  2  0
 24 13  2  0
 16 25  1  6
 26 14  2  0
 27 26  1  0
 28  8  1  0
 29  8  1  0
 30 12  1  0
 31  7  1  0
  7  6  1  0
 24 21  1  0
 23 10  1  0
 16  9  1  0
M  END
> <chembl_id>
CHEMBL2105669

> <chembl_pref_name>
TEDIZOLID PHOSPHATE
