
     RDKit          2D

 31 33  0  0  1  0  0  0  0  0999 V2000
    0.0042   -2.4542    0.0000 C   0  0  0  0  0  0  0  0  0  0  0  0
    2.4792   -1.8042    0.0000 C   0  0  0  0  0  0  0  0  0  0  0  0
    3.1000   -1.4625    0.0000 C   0  0  0  0  0  0  0  0  0  0  0  0
    1.2542   -1.7750    0.0000 N   0  0  0  0  0  0  0  0  0  0  0  0
   -0.6083   -2.7917    0.0000 C   0  0  0  0  0  0  0  0  0  0  0  0
    0.6167   -2.8167    0.0000 C   0  0  0  0  0  0  0  0  0  0  0  0
    1.8750   -1.4292    0.0000 C   0  0  0  0  0  0  0  0  0  0  0  0
    3.7042   -1.8292    0.0000 N   0  0  0  0  0  0  0  0  0  0  0  0
    0.0250   -1.7417    0.0000 C   0  0  0  0  0  0  0  0  0  0  0  0
    1.2375   -2.4792    0.0000 C   0  0  0  0  0  0  0  0  0  0  0  0
    4.9292   -1.8542    0.0000 C   0  0  0  0  0  0  0  0  0  0  0  0
    2.4625   -2.5042    0.0000 C   0  0  0  0  0  0  0  0  0  0  0  0
   -1.2208   -2.4292    0.0000 C   0  0  0  0  0  0  0  0  0  0  0  0
    3.1167   -0.7542    0.0000 O   0  0  0  0  0  0  0  0  0  0  0  0
    0.6417   -1.4042    0.0000 C   0  0  0  0  0  0  0  0  0  0  0  0
    4.9167   -2.5667    0.0000 O   0  0  0  0  0  0  0  0  0  0  0  0
    4.3292   -1.4917    0.0000 C   0  0  0  0  0  0  0  0  0  0  0  0
   -1.8458   -2.7667    0.0000 C   0  0  0  0  0  0  0  0  0  0  0  0
    5.5542   -1.5167    0.0000 O   0  0  0  0  0  0  0  0  0  0  0  0
    3.0667   -2.8792    0.0000 C   0  0  0  0  0  0  0  0  0  0  0  0
   -0.0083   -3.1625    0.0000 C   0  0  0  0  0  0  0  0  0  0  0  0
   -2.4458   -2.4000    0.0000 O   0  0  0  0  0  0  0  0  0  0  0  0
   -0.6250   -3.5042    0.0000 C   0  0  0  0  0  0  0  0  0  0  0  0
    0.6042   -3.5292    0.0000 C   0  0  0  0  0  0  0  0  0  0  0  0
   -1.2458   -3.8417    0.0000 C   0  0  0  0  0  0  0  0  0  0  0  0
   -1.8583   -3.4750    0.0000 C   0  0  0  0  0  0  0  0  0  0  0  0
    3.6875   -2.5375    0.0000 C   0  0  0  0  0  0  0  0  0  0  0  0
    3.0500   -3.5875    0.0000 C   0  0  0  0  0  0  0  0  0  0  0  0
    3.6542   -3.9542    0.0000 C   0  0  0  0  0  0  0  0  0  0  0  0
    4.2917   -2.9042    0.0000 C   0  0  0  0  0  0  0  0  0  0  0  0
    4.2750   -3.6125    0.0000 C   0  0  0  0  0  0  0  0  0  0  0  0
  2  7  1  0
  3  2  1  0
  4 15  1  0
  5  1  1  0
  6  1  1  0
  7  4  1  0
  8  3  1  0
  9  1  1  0
 10  6  1  0
 11 17  1  0
  2 12  1  1
 13  5  1  0
 14  3  2  0
 15  9  1  0
 16 11  2  0
 17  8  1  0
 18 13  2  0
 19 11  1  0
 20 12  1  0
  1 21  1  1
 22 18  1  0
 23  5  2  0
  6 24  1  6
 25 23  1  0
 26 25  2  0
 27 20  1  0
 28 20  2  0
 29 28  1  0
 30 27  2  0
 31 29  2  0
  4 10  1  0
 26 18  1  0
 31 30  1  0
M  END
> <chembl_id>
CHEMBL270190

> <chembl_pref_name>
ALVIMOPAN
