
     RDKit          2D

 41 45  0  0  1  0  0  0  0  0999 V2000
    5.2167  -19.4458    0.0000 C   0  0  0  0  0  0  0  0  0  0  0  0
    3.3708  -20.4917    0.0000 C   0  0  0  0  0  0  0  0  0  0  0  0
    7.7167  -18.1542    0.0000 C   0  0  0  0  0  0  0  0  0  0  0  0
    5.2083  -20.1500    0.0000 C   0  0  0  0  0  0  0  0  0  0  0  0
    3.9833  -20.1417    0.0000 C   0  0  0  0  0  0  0  0  0  0  0  0
    7.1125  -18.5125    0.0000 C   0  0  0  0  0  0  0  0  0  0  0  0
    5.8875  -18.5250    0.0000 C   0  0  0  0  0  0  0  0  0  0  0  0
    7.7083  -17.4458    0.0000 C   0  0  0  0  0  0  0  0  0  0  0  0
    4.5958  -20.5000    0.0000 C   0  0  0  0  0  0  0  0  0  0  0  0
    5.8917  -19.2333    0.0000 C   0  0  0  0  0  0  0  0  0  0  0  0
    7.7333  -20.2792    0.0000 C   0  0  0  0  0  0  0  0  0  0  0  0
    2.7583  -21.5542    0.0000 N   0  0  0  0  0  0  0  0  0  0  0  0
    6.4958  -18.1625    0.0000 N   0  0  0  0  0  0  0  0  0  0  0  0
    2.7583  -20.1417    0.0000 C   0  0  0  0  0  0  0  0  0  0  0  0
    3.3708  -21.2042    0.0000 C   0  0  0  0  0  0  0  0  0  0  0  0
    2.1500  -21.2042    0.0000 C   0  0  0  0  0  0  0  0  0  0  0  0
    7.7292  -19.5708    0.0000 C   0  0  0  0  0  0  0  0  0  0  0  0
    4.6042  -19.0833    0.0000 C   0  0  0  0  0  0  0  0  0  0  0  0
    7.1125  -19.2208    0.0000 C   0  0  0  0  0  0  0  0  0  0  0  0
    3.9875  -19.4333    0.0000 C   0  0  0  0  0  0  0  0  0  0  0  0
    5.8792  -20.3792    0.0000 C   0  0  0  0  0  0  0  0  0  0  0  0
    2.1500  -20.4917    0.0000 C   0  0  0  0  0  0  0  0  0  0  0  0
    8.3333  -18.5000    0.0000 C   0  0  0  0  0  0  0  0  0  0  0  0
    6.3000  -19.8083    0.0000 C   0  0  0  0  0  0  0  0  0  0  0  0
    4.5917  -21.2083    0.0000 C   0  0  0  0  0  0  0  0  0  0  0  0
    5.2708  -18.1750    0.0000 O   0  0  0  0  0  0  0  0  0  0  0  0
    3.9792  -21.5583    0.0000 C   0  0  0  0  0  0  0  0  0  0  0  0
    8.3417  -19.2125    0.0000 C   0  0  0  0  0  0  0  0  0  0  0  0
    1.5333  -21.5542    0.0000 O   0  0  0  0  0  0  0  0  0  0  0  0
    7.3500  -16.8292    0.0000 F   0  0  0  0  0  0  0  0  0  0  0  0
    7.0000  -17.4417    0.0000 F   0  0  0  0  0  0  0  0  0  0  0  0
    8.3167  -17.0833    0.0000 F   0  0  0  0  0  0  0  0  0  0  0  0
    8.3500  -20.6292    0.0000 F   0  0  0  0  0  0  0  0  0  0  0  0
    7.3750  -20.8917    0.0000 F   0  0  0  0  0  0  0  0  0  0  0  0
    7.0250  -20.2750    0.0000 F   0  0  0  0  0  0  0  0  0  0  0  0
    5.2125  -18.7375    0.0000 C   0  0  0  0  0  0  0  0  0  0  0  0
    3.3667  -19.7875    0.0000 C   0  0  0  0  0  0  0  0  0  0  0  0
    4.5917  -19.7917    0.0000 H   0  0  0  0  0  0  0  0  0  0  0  0
    3.3667  -21.9042    0.0000 H   0  0  0  0  0  0  0  0  0  0  0  0
    3.9792  -20.8500    0.0000 H   0  0  0  0  0  0  0  0  0  0  0  0
    5.2042  -20.8542    0.0000 H   0  0  0  0  0  0  0  0  0  0  0  0
  2  5  1  0
  3  6  1  0
  4  1  1  0
  5  9  1  0
  6 13  1  0
 10  7  1  1
  8  3  1  0
  9  4  1  0
 10  1  1  0
 11 17  1  0
 12 15  1  0
 13  7  1  0
 14  2  1  0
 15 27  1  0
 16 12  1  0
 17 19  1  0
 18  1  1  0
 19  6  2  0
 20 18  1  0
 21  4  1  0
 22 14  2  0
 23  3  2  0
 24 10  1  0
 25  9  1  0
 26  7  2  0
 27 25  1  0
 28 23  1  0
 29 16  2  0
 30  8  1  0
 31  8  1  0
 32  8  1  0
 33 11  1  0
 34 11  1  0
 35 11  1  0
  1 36  1  1
  2 37  1  1
  9 38  1  1
 15 39  1  6
  5 40  1  6
  4 41  1  6
 24 21  1  0
 20  5  1  0
 15  2  1  0
 16 22  1  0
 28 17  2  0
M  END
> <chembl_id>
CHEMBL1200969

> <chembl_pref_name>
DUTASTERIDE
