
     RDKit          2D

  3  2  0  0  0  0  0  0  0  0999 V2000
   -0.1125   -0.0542    0.0000 N   0  0  0  0  0  0  0  0  0  0  0  0
    1.3250   -0.0542    0.0000 N   0  0  0  0  0  0  0  0  0  0  0  0
   -1.5375   -0.0542    0.0000 O   0  0  0  0  0  0  0  0  0  0  0  0
  2  1  2  0
  3  1  2  0
M  CHG  2   1   1   2  -1
M  END
> <chembl_id>
CHEMBL1234579

> <chembl_pref_name>
NITROUS OXIDE
