
     RDKit          2D

 28 31  0  0  1  0  0  0  0  0999 V2000
    6.2417   -6.0292    0.0000 C   0  0  0  0  0  0  0  0  0  0  0  0
    8.0917   -4.9792    0.0000 C   0  0  0  0  0  0  0  0  0  0  0  0
    6.2417   -6.7375    0.0000 C   0  0  0  0  0  0  0  0  0  0  0  0
    6.8542   -5.6750    0.0000 C   0  0  0  0  0  0  0  0  0  0  0  0
    8.0792   -5.6792    0.0000 C   0  0  0  0  0  0  0  0  0  0  0  0
    7.4667   -6.0292    0.0000 C   0  0  0  0  0  0  0  0  0  0  0  0
    8.7667   -4.7667    0.0000 C   0  0  0  0  0  0  0  0  0  0  0  0
    5.6292   -7.0917    0.0000 C   0  0  0  0  0  0  0  0  0  0  0  0
    7.4792   -4.6167    0.0000 C   0  0  0  0  0  0  0  0  0  0  0  0
    6.8625   -4.9667    0.0000 C   0  0  0  0  0  0  0  0  0  0  0  0
    5.6292   -5.6750    0.0000 C   0  0  0  0  0  0  0  0  0  0  0  0
    7.4667   -6.7417    0.0000 C   0  0  0  0  0  0  0  0  0  0  0  0
    8.7542   -5.9125    0.0000 C   0  0  0  0  0  0  0  0  0  0  0  0
    8.7625   -4.0542    0.0000 O   0  0  0  0  0  0  0  0  0  0  0  0
    8.1417   -3.7042    0.0000 C   0  0  0  0  0  0  0  0  0  0  0  0
    6.8542   -7.0917    0.0000 C   0  0  0  0  0  0  0  0  0  0  0  0
    5.0250   -6.7375    0.0000 C   0  0  0  0  0  0  0  0  0  0  0  0
    9.1750   -5.3417    0.0000 C   0  0  0  0  0  0  0  0  0  0  0  0
    8.1375   -3.0000    0.0000 O   0  0  0  0  0  0  0  0  0  0  0  0
    4.4042   -7.0875    0.0000 O   0  0  0  0  0  0  0  0  0  0  0  0
    5.0250   -6.0292    0.0000 C   0  0  0  0  0  0  0  0  0  0  0  0
    6.2417   -5.3167    0.0000 C   0  0  0  0  0  0  0  0  0  0  0  0
    8.0875   -4.2667    0.0000 C   0  0  0  0  0  0  0  0  0  0  0  0
    7.5292   -4.0667    0.0000 C   0  0  0  0  0  0  0  0  0  0  0  0
    6.9167   -3.7167    0.0000 C   0  0  0  0  0  0  0  0  0  0  0  0
    7.4667   -5.3250    0.0000 H   0  0  0  0  0  0  0  0  0  0  0  0
    6.8542   -6.3792    0.0000 H   0  0  0  0  0  0  0  0  0  0  0  0
    8.0792   -6.3917    0.0000 H   0  0  0  0  0  0  0  0  0  0  0  0
  2  9  1  0
  3  1  1  0
  4  1  1  0
  5  6  1  0
  6  4  1  0
  7  2  1  0
  8  3  2  0
  9 10  1  0
 10  4  1  0
 11  1  1  0
 12  6  1  0
 13  5  1  0
  7 14  1  1
 15 14  1  0
 16  3  1  0
 17 21  1  0
 18 13  1  0
 19 15  2  0
 20 17  2  0
 21 11  1  0
  1 22  1  1
  2 23  1  1
 24 15  1  0
 25 24  1  0
  6 26  1  1
  4 27  1  6
  5 28  1  6
 12 16  1  0
 17  8  1  0
  5  2  1  0
  7 18  1  0
M  END
> <chembl_id>
CHEMBL1170

> <chembl_pref_name>
TESTOSTERONE PROPIONATE
