
     RDKit          2D

 22 25  0  0  0  0  0  0  0  0999 V2000
    5.4625   -5.4542    0.0000 C   0  0  0  0  0  0  0  0  0  0  0  0
    5.2625   -6.1667    0.0000 C   0  0  0  0  0  0  0  0  0  0  0  0
    5.0542   -4.8792    0.0000 C   0  0  0  0  0  0  0  0  0  0  0  0
    4.2875   -4.8792    0.0000 N   0  0  0  0  0  0  0  0  0  0  0  0
    4.6625   -6.4625    0.0000 N   0  0  0  0  0  0  0  0  0  0  0  0
    5.8792   -6.5417    0.0000 S   0  0  0  0  0  0  0  0  0  0  0  0
    5.6542   -4.4667    0.0000 N   0  0  0  0  0  0  0  0  0  0  0  0
    6.1667   -5.4542    0.0000 C   0  0  0  0  0  0  0  0  0  0  0  0
    6.4042   -6.0917    0.0000 C   0  0  0  0  0  0  0  0  0  0  0  0
    3.8667   -5.4792    0.0000 C   0  0  0  0  0  0  0  0  0  0  0  0
    4.0542   -6.1667    0.0000 C   0  0  0  0  0  0  0  0  0  0  0  0
    6.8667   -3.7542    0.0000 N   0  0  0  0  0  0  0  0  0  0  0  0
    6.2875   -4.8292    0.0000 C   0  0  0  0  0  0  0  0  0  0  0  0
    5.6542   -3.7875    0.0000 C   0  0  0  0  0  0  0  0  0  0  0  0
    6.8667   -4.4792    0.0000 C   0  0  0  0  0  0  0  0  0  0  0  0
    6.2625   -3.4167    0.0000 C   0  0  0  0  0  0  0  0  0  0  0  0
    7.4667   -3.3917    0.0000 C   0  0  0  0  0  0  0  0  0  0  0  0
    7.0917   -6.2542    0.0000 C   0  0  0  0  0  0  0  0  0  0  0  0
    3.1792   -5.2917    0.0000 C   0  0  0  0  0  0  0  0  0  0  0  0
    3.5417   -6.6750    0.0000 C   0  0  0  0  0  0  0  0  0  0  0  0
    2.6750   -5.7917    0.0000 C   0  0  0  0  0  0  0  0  0  0  0  0
    2.8542   -6.4917    0.0000 C   0  0  0  0  0  0  0  0  0  0  0  0
  2  1  2  0
  3  1  1  0
  4  3  2  0
  5  2  1  0
  6  2  1  0
  7  3  1  0
  8  1  1  0
  9  8  2  0
 10  4  1  0
 11  5  1  0
 12 16  1  0
 13  7  1  0
 14  7  1  0
 15 13  1  0
 16 14  1  0
 17 12  1  0
 18  9  1  0
 19 10  1  0
 20 11  1  0
 21 19  2  0
 22 20  2  0
  9  6  1  0
 11 10  2  0
 12 15  1  0
 22 21  1  0
M  END
> <chembl_id>
CHEMBL715

> <chembl_pref_name>
OLANZAPINE
