
     RDKit          2D

 12 12  0  0  0  0  0  0  0  0999 V2000
    5.9542   -5.7667    0.0000 C   0  0  0  0  0  0  0  0  0  0  0  0
    6.5292   -5.3917    0.0000 O   0  0  0  0  0  0  0  0  0  0  0  0
    5.9542   -6.4917    0.0000 O   0  0  0  0  0  0  0  0  0  0  0  0
    3.4917   -5.7792    0.0000 C   0  0  0  0  0  0  0  0  0  0  0  0
    5.3417   -5.4167    0.0000 C   0  0  0  0  0  0  0  0  0  0  0  0
    4.7292   -5.7792    0.0000 C   0  0  0  0  0  0  0  0  0  0  0  0
    4.1125   -5.4292    0.0000 C   0  0  0  0  0  0  0  0  0  0  0  0
    3.4917   -6.4917    0.0000 C   0  0  0  0  0  0  0  0  0  0  0  0
    2.8792   -5.4292    0.0000 C   0  0  0  0  0  0  0  0  0  0  0  0
    2.2667   -5.7792    0.0000 C   0  0  0  0  0  0  0  0  0  0  0  0
    2.8792   -6.8500    0.0000 C   0  0  0  0  0  0  0  0  0  0  0  0
    2.2667   -6.4917    0.0000 C   0  0  0  0  0  0  0  0  0  0  0  0
  2  1  1  0
  3  1  2  0
  4  7  1  0
  5  1  1  0
  6  5  1  0
  7  6  1  0
  8  4  2  0
  9  4  1  0
 10  9  2  0
 11  8  1  0
 12 11  2  0
 12 10  1  0
M  END
> <chembl_id>
CHEMBL1469

> <chembl_pref_name>
PHENYLBUTANOIC ACID
