
     RDKit          2D

 34 37  0  0  0  0  0  0  0  0999 V2000
    4.9875   -1.2417    0.0000 C   0  0  0  0  0  0  0  0  0  0  0  0
    5.4042   -1.8167    0.0000 N   0  0  0  0  0  0  0  0  0  0  0  0
    5.4042   -0.6667    0.0000 N   0  0  0  0  0  0  0  0  0  0  0  0
    6.0792   -0.8875    0.0000 C   0  0  0  0  0  0  0  0  0  0  0  0
    6.0792   -1.5917    0.0000 C   0  0  0  0  0  0  0  0  0  0  0  0
   -1.0333   -1.8542    0.0000 C   0  0  0  0  0  0  0  0  0  0  0  0
   -1.0333   -2.5625    0.0000 C   0  0  0  0  0  0  0  0  0  0  0  0
    2.8625   -1.2417    0.0000 N   0  0  0  0  0  0  0  0  0  0  0  0
    4.2792   -1.2417    0.0000 C   0  0  0  0  0  0  0  0  0  0  0  0
   -0.3250   -1.8542    0.0000 C   0  0  0  0  0  0  0  0  0  0  0  0
   -1.6458   -2.9167    0.0000 O   0  0  0  0  0  0  0  0  0  0  0  0
    3.9250   -1.8542    0.0000 C   0  0  0  0  0  0  0  0  0  0  0  0
    3.9250   -0.6292    0.0000 C   0  0  0  0  0  0  0  0  0  0  0  0
    0.0292   -1.2417    0.0000 C   0  0  0  0  0  0  0  0  0  0  0  0
    0.0292   -2.4667    0.0000 C   0  0  0  0  0  0  0  0  0  0  0  0
    3.2167   -1.8542    0.0000 C   0  0  0  0  0  0  0  0  0  0  0  0
    3.2167   -0.6292    0.0000 C   0  0  0  0  0  0  0  0  0  0  0  0
    5.1875    0.0083    0.0000 C   0  0  0  0  0  0  0  0  0  0  0  0
    2.1542   -1.2417    0.0000 C   0  0  0  0  0  0  0  0  0  0  0  0
   -0.4208   -2.9167    0.0000 O   0  0  0  0  0  0  0  0  0  0  0  0
    1.0917   -1.8542    0.0000 C   0  0  0  0  0  0  0  0  0  0  0  0
    0.7375   -1.2417    0.0000 C   0  0  0  0  0  0  0  0  0  0  0  0
    0.7375   -2.4667    0.0000 C   0  0  0  0  0  0  0  0  0  0  0  0
    1.8000   -1.8542    0.0000 C   0  0  0  0  0  0  0  0  0  0  0  0
    6.6917   -0.5292    0.0000 C   0  0  0  0  0  0  0  0  0  0  0  0
   -1.7375   -1.8542    0.0000 C   0  0  0  0  0  0  0  0  0  0  0  0
   -1.0333   -1.1417    0.0000 C   0  0  0  0  0  0  0  0  0  0  0  0
    6.6917   -1.9500    0.0000 C   0  0  0  0  0  0  0  0  0  0  0  0
    6.3542    0.3833    0.0000 O   0  0  0  0  0  0  0  0  0  0  0  0
    5.6625    0.5333    0.0000 C   0  0  0  0  0  0  0  0  0  0  0  0
    6.8292    0.9083    0.0000 C   0  0  0  0  0  0  0  0  0  0  0  0
    7.3042   -0.8875    0.0000 C   0  0  0  0  0  0  0  0  0  0  0  0
    7.3042   -1.5917    0.0000 C   0  0  0  0  0  0  0  0  0  0  0  0
    7.5167    0.7625    0.0000 C   0  0  0  0  0  0  0  0  0  0  0  0
  2  1  2  0
  3  1  1  0
  4  3  1  0
  5  2  1  0
  6 10  1  0
  7  6  1  0
  8 17  1  0
  9  1  1  0
 10 15  2  0
 11  7  2  0
 12  9  1  0
 13  9  1  0
 14 22  2  0
 15 23  1  0
 16 12  1  0
 17 13  1  0
 18  3  1  0
 19  8  1  0
 20  7  1  0
 21 24  1  0
 22 21  1  0
 23 21  2  0
 24 19  1  0
 25  4  2  0
 26  6  1  0
 27  6  1  0
 28  5  2  0
 29 30  1  0
 30 18  1  0
 31 29  1  0
 32 25  1  0
 33 28  1  0
 34 31  1  0
  4  5  1  0
  8 16  1  0
 32 33  2  0
 14 10  1  0
M  END
> <chembl_id>
CHEMBL1742423

> <chembl_pref_name>
BILASTINE
