
     RDKit          2D

 18 20  0  0  0  0  0  0  0  0999 V2000
   10.3250    0.5583    0.0000 C   0  0  0  0  0  0  0  0  0  0  0  0
    9.9125   -0.1583    0.0000 C   0  0  0  0  0  0  0  0  0  0  0  0
    9.5000    0.5583    0.0000 C   0  0  0  0  0  0  0  0  0  0  0  0
   11.0417    0.9708    0.0000 C   0  0  0  0  0  0  0  0  0  0  0  0
   11.0417    1.7958    0.0000 C   0  0  0  0  0  0  0  0  0  0  0  0
    7.3583    0.9708    0.0000 C   0  0  0  0  0  0  0  0  0  0  0  0
   11.7542    2.2083    0.0000 C   0  0  0  0  0  0  0  0  0  0  0  0
    8.7875    0.9708    0.0000 C   0  0  0  0  0  0  0  0  0  0  0  0
    8.0708    0.5583    0.0000 N   0  0  0  0  0  0  0  0  0  0  0  0
   11.5833    3.0125    0.0000 O   0  0  0  0  0  0  0  0  0  0  0  0
    7.3583    1.7958    0.0000 O   0  0  0  0  0  0  0  0  0  0  0  0
   11.7542    0.5583    0.0000 C   0  0  0  0  0  0  0  0  0  0  0  0
   10.7625    3.1000    0.0000 C   0  0  0  0  0  0  0  0  0  0  0  0
   10.4292    2.3458    0.0000 C   0  0  0  0  0  0  0  0  0  0  0  0
   12.4708    0.9708    0.0000 C   0  0  0  0  0  0  0  0  0  0  0  0
    6.6417    0.5583    0.0000 C   0  0  0  0  0  0  0  0  0  0  0  0
   12.4708    1.7958    0.0000 C   0  0  0  0  0  0  0  0  0  0  0  0
    5.9292    0.9708    0.0000 C   0  0  0  0  0  0  0  0  0  0  0  0
  2  1  1  0
  3  1  1  0
  1  4  1  6
  5  4  1  0
  6  9  1  0
  7  5  2  0
  3  8  1  1
  9  8  1  0
 10  7  1  0
 11  6  2  0
 12  4  2  0
 13 14  1  0
 14  5  1  0
 15 12  1  0
 16  6  1  0
 17  7  1  0
 18 16  1  0
  3  2  1  0
 10 13  1  0
 17 15  2  0
M  END
> <chembl_id>
CHEMBL2103822

> <chembl_pref_name>
TASIMELTEON
