
     RDKit          2D

 41 44  0  0  0  0  0  0  0  0999 V2000
   -0.9625   -1.2250    0.0000 N   0  0  0  0  0  0  0  0  0  0  0  0
   -0.3458   -0.8625    0.0000 C   0  0  0  0  0  0  0  0  0  0  0  0
   -0.9625    0.1958    0.0000 S   0  0  0  0  0  0  0  0  0  0  0  0
    1.5042   -1.2250    0.0000 C   0  0  0  0  0  0  0  0  0  0  0  0
   -0.3458   -0.1542    0.0000 C   0  0  0  0  0  0  0  0  0  0  0  0
   -1.5708   -0.8625    0.0000 C   0  0  0  0  0  0  0  0  0  0  0  0
   -1.5708   -0.1542    0.0000 C   0  0  0  0  0  0  0  0  0  0  0  0
    0.2667   -1.2250    0.0000 C   0  0  0  0  0  0  0  0  0  0  0  0
    0.8792   -0.8625    0.0000 C   0  0  0  0  0  0  0  0  0  0  0  0
    0.2667   -3.3542    0.0000 N   0  0  0  0  0  0  0  0  0  0  0  0
    1.5042   -4.0708    0.0000 N   0  0  0  0  0  0  0  0  0  0  0  0
    3.9542   -4.0708    0.0000 C   0  0  0  0  0  0  0  0  0  0  0  0
    0.2667    0.1958    0.0000 C   0  0  0  0  0  0  0  0  0  0  0  0
    0.8792   -0.1542    0.0000 C   0  0  0  0  0  0  0  0  0  0  0  0
    3.9542   -3.3542    0.0000 O   0  0  0  0  0  0  0  0  0  0  0  0
    2.1208   -0.8708    0.0000 F   0  0  0  0  0  0  0  0  0  0  0  0
    1.8542   -1.8375    0.0000 F   0  0  0  0  0  0  0  0  0  0  0  0
    1.1500   -1.8375    0.0000 F   0  0  0  0  0  0  0  0  0  0  0  0
   -0.9625   -1.9292    0.0000 C   0  0  0  0  0  0  0  0  0  0  0  0
    0.8792   -4.4167    0.0000 C   0  0  0  0  0  0  0  0  0  0  0  0
    1.5042   -3.3542    0.0000 C   0  0  0  0  0  0  0  0  0  0  0  0
    0.2667   -4.0708    0.0000 C   0  0  0  0  0  0  0  0  0  0  0  0
    0.8792   -3.0000    0.0000 C   0  0  0  0  0  0  0  0  0  0  0  0
   -0.3458   -2.2792    0.0000 C   0  0  0  0  0  0  0  0  0  0  0  0
    3.3417   -4.4167    0.0000 O   0  0  0  0  0  0  0  0  0  0  0  0
   -0.3458   -3.0000    0.0000 C   0  0  0  0  0  0  0  0  0  0  0  0
    2.1125   -4.4167    0.0000 C   0  0  0  0  0  0  0  0  0  0  0  0
   -2.1958   -1.2250    0.0000 C   0  0  0  0  0  0  0  0  0  0  0  0
    2.7375   -4.0708    0.0000 C   0  0  0  0  0  0  0  0  0  0  0  0
   -2.1958    0.1958    0.0000 C   0  0  0  0  0  0  0  0  0  0  0  0
    4.5625   -4.4167    0.0000 C   0  0  0  0  0  0  0  0  0  0  0  0
    5.1792   -4.0708    0.0000 C   0  0  0  0  0  0  0  0  0  0  0  0
    8.8667   -4.0708    0.0000 C   0  0  0  0  0  0  0  0  0  0  0  0
    8.2542   -4.4167    0.0000 C   0  0  0  0  0  0  0  0  0  0  0  0
    6.4042   -4.0708    0.0000 C   0  0  0  0  0  0  0  0  0  0  0  0
    7.0292   -4.4167    0.0000 C   0  0  0  0  0  0  0  0  0  0  0  0
    7.6417   -4.0708    0.0000 C   0  0  0  0  0  0  0  0  0  0  0  0
    5.8042   -4.4167    0.0000 C   0  0  0  0  0  0  0  0  0  0  0  0
   -2.8208   -0.8625    0.0000 C   0  0  0  0  0  0  0  0  0  0  0  0
   -2.8208   -0.1542    0.0000 C   0  0  0  0  0  0  0  0  0  0  0  0
    9.5000   -4.4167    0.0000 C   0  0  0  0  0  0  0  0  0  0  0  0
  2  1  1  0
  3  5  1  0
  4  9  1  0
  5  2  1  0
  6  1  1  0
  7  6  2  0
  8  2  2  0
  9  8  1  0
 10 26  1  0
 11 21  1  0
 12 25  1  0
 13  5  2  0
 14  9  2  0
 15 12  2  0
 16  4  1  0
 17  4  1  0
 18  4  1  0
 19  1  1  0
 20 22  1  0
 21 23  1  0
 22 10  1  0
 23 10  1  0
 24 19  1  0
 25 29  1  0
 26 24  1  0
 27 11  1  0
 28  6  1  0
 29 27  1  0
 30  7  1  0
 31 12  1  0
 32 31  1  0
 33 34  1  0
 34 37  1  0
 35 38  1  0
 36 35  1  0
 37 36  1  0
 38 32  1  0
 39 28  2  0
 40 39  1  0
 41 33  1  0
  7  3  1  0
 13 14  1  0
 30 40  2  0
 20 11  1  0
M  END
> <chembl_id>
CHEMBL1200854

> <chembl_pref_name>
FLUPHENAZINE DECANOATE
