
     RDKit          2D

 49 51  0  0  1  0  0  0  0  0999 V2000
    5.5375   -6.8625    0.0000 N   0  0  0  0  0  0  0  0  0  0  0  0
    4.8292   -6.8625    0.0000 C   0  0  0  0  0  0  0  0  0  0  0  0
    7.3583   -6.8542    0.0000 C   0  0  0  0  0  0  0  0  0  0  0  0
    6.4667   -6.5000    0.0000 C   0  0  0  0  0  0  0  0  0  0  0  0
    4.2125   -6.5042    0.0000 C   0  0  0  0  0  0  0  0  0  0  0  0
    3.9917   -7.8792    0.0000 S   0  0  0  0  0  0  0  0  0  0  0  0
    4.6125   -7.5333    0.0000 C   0  0  0  0  0  0  0  0  0  0  0  0
    7.9292   -6.4375    0.0000 N   0  0  0  0  0  0  0  0  0  0  0  0
    3.5958   -6.8583    0.0000 O   0  0  0  0  0  0  0  0  0  0  0  0
    8.5042   -6.8542    0.0000 C   0  0  0  0  0  0  0  0  0  0  0  0
    7.5750   -7.5292    0.0000 C   0  0  0  0  0  0  0  0  0  0  0  0
    5.1875   -7.9542    0.0000 C   0  0  0  0  0  0  0  0  0  0  0  0
    5.7583   -7.5333    0.0000 C   0  0  0  0  0  0  0  0  0  0  0  0
    2.9833   -6.5042    0.0000 C   0  0  0  0  0  0  0  0  0  0  0  0
    3.3833   -7.5208    0.0000 C   0  0  0  0  0  0  0  0  0  0  0  0
    8.2833   -7.5292    0.0000 O   0  0  0  0  0  0  0  0  0  0  0  0
    9.1167   -6.5000    0.0000 C   0  0  0  0  0  0  0  0  0  0  0  0
    4.2083   -4.3792    0.0000 C   0  0  0  0  0  0  0  0  0  0  0  0
    9.1167   -5.7917    0.0000 C   0  0  0  0  0  0  0  0  0  0  0  0
    3.5958   -5.4417    0.0000 C   0  0  0  0  0  0  0  0  0  0  0  0
    3.5958   -4.7333    0.0000 C   0  0  0  0  0  0  0  0  0  0  0  0
    7.8917   -4.3750    0.0000 C   0  0  0  0  0  0  0  0  0  0  0  0
    4.8250   -4.7292    0.0000 N   0  0  0  0  0  0  0  0  0  0  0  0
    3.6375   -8.4917    0.0000 O   0  0  0  0  0  0  0  0  0  0  0  0
    4.3417   -8.4917    0.0000 O   0  0  0  0  0  0  0  0  0  0  0  0
    4.2083   -5.7917    0.0000 O   0  0  0  0  0  0  0  0  0  0  0  0
    7.2792   -4.7292    0.0000 C   0  0  0  0  0  0  0  0  0  0  0  0
    6.4750   -5.7917    0.0000 O   0  0  0  0  0  0  0  0  0  0  0  0
    2.9833   -5.7958    0.0000 C   0  0  0  0  0  0  0  0  0  0  0  0
    8.5042   -5.4375    0.0000 C   0  0  0  0  0  0  0  0  0  0  0  0
    8.5042   -4.7292    0.0000 C   0  0  0  0  0  0  0  0  0  0  0  0
    6.6625   -4.3750    0.0000 C   0  0  0  0  0  0  0  0  0  0  0  0
    4.2083   -3.6667    0.0000 O   0  0  0  0  0  0  0  0  0  0  0  0
    9.7292   -5.4375    0.0000 O   0  0  0  0  0  0  0  0  0  0  0  0
    2.7625   -7.8667    0.0000 C   0  0  0  0  0  0  0  0  0  0  0  0
    6.0500   -4.7292    0.0000 C   0  0  0  0  0  0  0  0  0  0  0  0
    2.3708   -6.8583    0.0000 C   0  0  0  0  0  0  0  0  0  0  0  0
    2.7625   -8.5750    0.0000 N   0  0  0  0  0  0  0  0  0  0  0  0
    9.1167   -4.3750    0.0000 O   0  0  0  0  0  0  0  0  0  0  0  0
    5.4375   -4.3750    0.0000 C   0  0  0  0  0  0  0  0  0  0  0  0
    7.2792   -5.4375    0.0000 C   0  0  0  0  0  0  0  0  0  0  0  0
    2.3708   -5.4417    0.0000 C   0  0  0  0  0  0  0  0  0  0  0  0
    3.3708   -8.9333    0.0000 C   0  0  0  0  0  0  0  0  0  0  0  0
    2.1458   -8.9250    0.0000 C   0  0  0  0  0  0  0  0  0  0  0  0
    1.7583   -6.5042    0.0000 C   0  0  0  0  0  0  0  0  0  0  0  0
    2.3708   -7.5667    0.0000 C   0  0  0  0  0  0  0  0  0  0  0  0
    3.3667   -9.6417    0.0000 C   0  0  0  0  0  0  0  0  0  0  0  0
    2.1375   -9.6375    0.0000 C   0  0  0  0  0  0  0  0  0  0  0  0
    4.8250   -6.1500    0.0000 H   0  0  0  0  0  0  0  0  0  0  0  0
  2  1  1  0
  3  4  1  0
  4  1  1  0
  5  2  1  0
  7  6  1  1
  7  2  1  0
  8  3  1  0
  9  5  1  0
 10  8  2  0
 11  3  2  0
 12 13  1  0
 13  1  1  0
 14  9  1  0
 15  6  1  0
 16 11  1  0
 17 10  1  0
 18 21  1  0
 19 17  1  0
 20 29  1  0
 21 20  2  0
 22 31  1  0
 23 18  1  0
 24  6  2  0
 25  6  2  0
 26  5  2  0
 27 22  2  0
 28  4  2  0
 29 14  1  0
 30 19  1  0
 31 30  1  0
 32 27  1  0
 33 18  2  0
 34 19  2  0
 35 15  1  0
 36 40  1  0
 14 37  1  6
 38 35  1  0
 31 39  1  1
 40 23  1  0
 41 27  1  0
 29 42  1  6
 43 38  1  0
 44 38  1  0
 45 37  1  0
 46 37  1  0
 47 43  1  0
 48 44  1  0
  2 49  1  1
  7 12  1  0
 10 16  1  0
 32 36  2  0
M  END
> <chembl_id>
CHEMBL1200937

> <chembl_pref_name>
DALFOPRISTIN
