
     RDKit          2D

 19 19  0  0  0  0  0  0  0  0999 V2000
    0.4167    1.7708    0.0000 C   0  0  0  0  0  0  0  0  0  0  0  0
   -0.3958    1.2958    0.0000 C   0  0  0  0  0  0  0  0  0  0  0  0
    0.4167    2.7083    0.0000 O   0  0  0  0  0  0  0  0  0  0  0  0
   -1.1708    1.7458    0.0000 C   0  0  0  0  0  0  0  0  0  0  0  0
   -0.3958    0.3875    0.0000 C   0  0  0  0  0  0  0  0  0  0  0  0
    1.1917    1.2958    0.0000 O   0  0  0  0  0  0  0  0  0  0  0  0
   -1.9833    0.3875    0.0000 C   0  0  0  0  0  0  0  0  0  0  0  0
    3.5625    1.7708    0.0000 N   0  0  0  0  0  0  0  0  0  0  0  0
   -2.7833   -0.0625    0.0000 N   0  0  0  0  0  0  0  0  0  0  0  0
   -1.9833    1.2958    0.0000 C   0  0  0  0  0  0  0  0  0  0  0  0
   -1.1708   -0.0625    0.0000 C   0  0  0  0  0  0  0  0  0  0  0  0
    1.9792    1.7708    0.0000 C   0  0  0  0  0  0  0  0  0  0  0  0
    2.7542    1.2958    0.0000 C   0  0  0  0  0  0  0  0  0  0  0  0
   -2.7833   -0.9917    0.0000 C   0  0  0  0  0  0  0  0  0  0  0  0
    3.5625    2.6833    0.0000 C   0  0  0  0  0  0  0  0  0  0  0  0
    4.3417    1.2958    0.0000 C   0  0  0  0  0  0  0  0  0  0  0  0
   -3.5625   -1.4500    0.0000 C   0  0  0  0  0  0  0  0  0  0  0  0
   -3.5625   -2.3542    0.0000 C   0  0  0  0  0  0  0  0  0  0  0  0
   -4.3458   -2.8042    0.0000 C   0  0  0  0  0  0  0  0  0  0  0  0
  2  1  1  0
  3  1  2  0
  4  2  1  0
  5  2  2  0
  6  1  1  0
  7 11  2  0
  8 13  1  0
  9  7  1  0
 10  4  2  0
 11  5  1  0
 12  6  1  0
 13 12  1  0
 14  9  1  0
 15  8  1  0
 16  8  1  0
 17 14  1  0
 18 17  1  0
 19 18  1  0
 10  7  1  0
M  END
> <chembl_id>
CHEMBL698

> <chembl_pref_name>
TETRACAINE
