
     RDKit          2D

 28 30  0  0  0  0  0  0  0  0999 V2000
    5.1338   -0.8250    0.0000 O   0  0  0  0  0  0  0  0  0  0  0  0
    5.1338    0.0000    0.0000 P   0  0  0  0  0  0  0  0  0  0  0  0
    5.1338    0.8250    0.0000 O   0  0  0  0  0  0  0  0  0  0  0  0
    5.9588    0.0000    0.0000 O   0  0  0  0  0  0  0  0  0  0  0  0
    4.3088    0.0000    0.0000 O   0  0  0  0  0  0  0  0  0  0  0  0
   -0.2017   -3.0229    0.0000 N   0  0  0  0  0  0  0  0  0  0  0  0
   -0.9161   -2.6104    0.0000 C   0  0  0  0  0  0  0  0  0  0  0  0
   -0.2017   -1.3729    0.0000 C   0  0  0  0  0  0  0  0  0  0  0  0
    0.5128   -1.7854    0.0000 N   0  0  0  0  0  0  0  0  0  0  0  0
    0.5128   -2.6104    0.0000 C   0  0  0  0  0  0  0  0  0  0  0  0
   -0.2017   -0.5479    0.0000 C   0  0  0  0  0  0  0  0  0  0  0  0
    0.4658   -0.0630    0.0000 C   0  0  0  0  0  0  0  0  0  0  0  0
   -0.8691   -0.0630    0.0000 C   0  0  0  0  0  0  0  0  0  0  0  0
   -0.6142    0.7216    0.0000 N   0  0  0  0  0  0  0  0  0  0  0  0
    0.2108    0.7216    0.0000 N   0  0  0  0  0  0  0  0  0  0  0  0
    0.6958    1.3890    0.0000 C   0  0  0  0  0  0  0  0  0  0  0  0
    1.5162    1.3028    0.0000 C   0  0  0  0  0  0  0  0  0  0  0  0
    1.8518    0.5491    0.0000 C   0  0  0  0  0  0  0  0  0  0  0  0
    0.3602    2.1427    0.0000 C   0  0  0  0  0  0  0  0  0  0  0  0
    0.2207    3.4703    0.0000 C   0  0  0  0  0  0  0  0  0  0  0  0
    0.7727    2.8572    0.0000 C   0  0  0  0  0  0  0  0  0  0  0  0
   -0.4468    2.3143    0.0000 C   0  0  0  0  0  0  0  0  0  0  0  0
   -0.5330    3.1347    0.0000 C   0  0  0  0  0  0  0  0  0  0  0  0
   -1.7008   -2.8654    0.0000 N   0  0  0  0  0  0  0  0  0  0  0  0
   -2.1857   -2.1979    0.0000 C   0  0  0  0  0  0  0  0  0  0  0  0
   -1.7008   -1.5305    0.0000 C   0  0  0  0  0  0  0  0  0  0  0  0
   -0.9161   -1.7854    0.0000 C   0  0  0  0  0  0  0  0  0  0  0  0
    2.1873   -0.2045    0.0000 N   0  0  0  0  0  0  0  0  0  0  0  0
  1  2  1  0
  3  2  2  0
  2  4  1  0
  2  5  1  0
  6  7  1  0
  6 10  2  0
 27  8  1  0
  8  9  2  0
  9 10  1  0
 11 13  1  0
 12 11  2  0
 13 14  2  0
 12 15  1  0
 14 15  1  0
 15 16  1  0
 16 17  1  1
 17 18  1  0
 16 19  1  0
 21 19  1  0
 19 22  1  0
 20 21  1  0
 20 23  1  0
 22 23  1  0
  7 24  1  0
 24 25  1  0
 25 26  2  0
 26 27  1  0
  7 27  2  0
  8 11  1  0
 18 28  3  0
M  END
> <chembl_id>
CHEMBL1795071

> <chembl_pref_name>
RUXOLITINIB PHOSPHATE
