
     RDKit          2D

 19 19  0  0  0  0  0  0  0  0999 V2000
    1.3250   -2.3417    0.0000 Cl  0  0  0  0  0  0  0  0  0  0  0  0
    1.0542   -0.9625    0.0000 C   0  0  0  0  0  0  0  0  0  0  0  0
    1.6667   -1.3167    0.0000 N   0  0  0  0  0  0  0  0  0  0  0  0
    2.2792   -0.9625    0.0000 C   0  0  0  0  0  0  0  0  0  0  0  0
   -0.1750   -0.9625    0.0000 N   0  0  0  0  0  0  0  0  0  0  0  0
    0.4375   -1.3167    0.0000 C   0  0  0  0  0  0  0  0  0  0  0  0
    1.0542   -0.2542    0.0000 O   0  0  0  0  0  0  0  0  0  0  0  0
    2.2750   -0.2542    0.0000 C   0  0  0  0  0  0  0  0  0  0  0  0
    2.8917   -1.3167    0.0000 C   0  0  0  0  0  0  0  0  0  0  0  0
   -0.1750   -0.2542    0.0000 C   0  0  0  0  0  0  0  0  0  0  0  0
   -0.7833   -1.3167    0.0000 C   0  0  0  0  0  0  0  0  0  0  0  0
    3.5042   -0.2542    0.0000 C   0  0  0  0  0  0  0  0  0  0  0  0
    0.4375   -2.0250    0.0000 C   0  0  0  0  0  0  0  0  0  0  0  0
    3.5042   -0.9667    0.0000 C   0  0  0  0  0  0  0  0  0  0  0  0
    2.8875    0.0958    0.0000 C   0  0  0  0  0  0  0  0  0  0  0  0
    2.8875   -2.0292    0.0000 C   0  0  0  0  0  0  0  0  0  0  0  0
    1.6625    0.0958    0.0000 C   0  0  0  0  0  0  0  0  0  0  0  0
   -0.7833   -2.0250    0.0000 C   0  0  0  0  0  0  0  0  0  0  0  0
   -0.1750   -2.3792    0.0000 C   0  0  0  0  0  0  0  0  0  0  0  0
  3  2  1  0
  4  3  1  0
  5  6  1  0
  6  2  1  0
  7  2  2  0
  8  4  1  0
  9  4  2  0
 10  5  1  0
 11  5  1  0
 12 14  2  0
 13  6  1  0
 14  9  1  0
 15  8  2  0
 16  9  1  0
 17  8  1  0
 18 19  1  0
 19 13  1  0
 18 11  1  0
 12 15  1  0
M  END
> <chembl_id>
CHEMBL1200440

> <chembl_pref_name>
MEPIVACAINE HYDROCHLORIDE
