
     RDKit          2D

 26 28  0  0  0  0  0  0  0  0999 V2000
    4.2542   -7.6792    0.0000 N   0  0  0  0  0  0  0  0  0  0  0  0
    3.6417   -8.0375    0.0000 C   0  0  0  0  0  0  0  0  0  0  0  0
    5.4750   -6.9417    0.0000 N   0  0  0  0  0  0  0  0  0  0  0  0
    3.0167   -7.6917    0.0000 C   0  0  0  0  0  0  0  0  0  0  0  0
    4.2417   -6.9667    0.0000 C   0  0  0  0  0  0  0  0  0  0  0  0
    4.8792   -8.0167    0.0000 C   0  0  0  0  0  0  0  0  0  0  0  0
    3.6542   -8.7542    0.0000 C   0  0  0  0  0  0  0  0  0  0  0  0
    2.4125   -8.0625    0.0000 C   0  0  0  0  0  0  0  0  0  0  0  0
    3.0125   -6.9875    0.0000 C   0  0  0  0  0  0  0  0  0  0  0  0
    4.8542   -6.6042    0.0000 C   0  0  0  0  0  0  0  0  0  0  0  0
    5.4792   -7.6625    0.0000 C   0  0  0  0  0  0  0  0  0  0  0  0
    1.7750   -7.0125    0.0000 C   0  0  0  0  0  0  0  0  0  0  0  0
    2.3833   -6.6417    0.0000 C   0  0  0  0  0  0  0  0  0  0  0  0
    1.7792   -7.7292    0.0000 C   0  0  0  0  0  0  0  0  0  0  0  0
    1.1542   -6.6667    0.0000 Cl  0  0  0  0  0  0  0  0  0  0  0  0
    6.0875   -6.5875    0.0000 C   0  0  0  0  0  0  0  0  0  0  0  0
    9.1750   -6.8792    0.0000 O   0  0  0  0  0  0  0  0  0  0  0  0
    7.3167   -6.5542    0.0000 O   0  0  0  0  0  0  0  0  0  0  0  0
    3.0417   -9.1167    0.0000 C   0  0  0  0  0  0  0  0  0  0  0  0
    4.2792   -9.1000    0.0000 C   0  0  0  0  0  0  0  0  0  0  0  0
    8.5500   -6.5375    0.0000 C   0  0  0  0  0  0  0  0  0  0  0  0
    6.7000   -6.9250    0.0000 C   0  0  0  0  0  0  0  0  0  0  0  0
    7.9375   -6.9000    0.0000 C   0  0  0  0  0  0  0  0  0  0  0  0
    4.2875   -9.8125    0.0000 C   0  0  0  0  0  0  0  0  0  0  0  0
    3.0542   -9.8375    0.0000 C   0  0  0  0  0  0  0  0  0  0  0  0
    3.6792  -10.1792    0.0000 C   0  0  0  0  0  0  0  0  0  0  0  0
  2  1  1  0
  3 11  1  0
  4  2  1  0
  5  1  1  0
  6  1  1  0
  7  2  1  0
  8  4  1  0
  9  4  2  0
 10  5  1  0
 11  6  1  0
 12 13  2  0
 13  9  1  0
 14  8  2  0
 15 12  1  0
 16  3  1  0
 17 21  1  0
 18 22  1  0
 19  7  2  0
 20  7  1  0
 21 23  1  0
 22 16  1  0
 23 18  1  0
 24 20  2  0
 25 19  1  0
 26 25  2  0
 10  3  1  0
 14 12  1  0
 24 26  1  0
M  END
> <chembl_id>
CHEMBL896

> <chembl_pref_name>
HYDROXYZINE
