
     RDKit          2D

 31 32  0  0  0  0  0  0  0  0999 V2000
   -0.7583   -2.1625    0.0000 N   0  0  0  0  0  0  0  0  0  0  0  0
    0.0792   -1.6792    0.0000 C   0  0  0  0  0  0  0  0  0  0  0  0
   -1.5958   -1.6792    0.0000 C   0  0  0  0  0  0  0  0  0  0  0  0
   -2.4333   -2.1625    0.0000 C   0  0  0  0  0  0  0  0  0  0  0  0
    0.0792   -0.7167    0.0000 N   0  0  0  0  0  0  0  0  0  0  0  0
   -0.7583   -3.1167    0.0000 C   0  0  0  0  0  0  0  0  0  0  0  0
   -2.4333   -3.1167    0.0000 C   0  0  0  0  0  0  0  0  0  0  0  0
   -1.5958   -3.5917    0.0000 C   0  0  0  0  0  0  0  0  0  0  0  0
    0.9167   -2.1792    0.0000 N   0  0  0  0  0  0  0  0  0  0  0  0
   -3.2708   -1.6792    0.0000 C   0  0  0  0  0  0  0  0  0  0  0  0
   -3.2708   -3.5917    0.0000 C   0  0  0  0  0  0  0  0  0  0  0  0
   -4.1083   -2.1625    0.0000 C   0  0  0  0  0  0  0  0  0  0  0  0
   -4.1083   -3.1167    0.0000 C   0  0  0  0  0  0  0  0  0  0  0  0
    3.1042   -0.2375    0.0000 S   0  0  0  0  0  0  0  0  0  0  0  0
    3.3417    0.7000    0.0000 O   0  0  0  0  0  0  0  0  0  0  0  0
    2.1542    0.0458    0.0000 O   0  0  0  0  0  0  0  0  0  0  0  0
    2.8167   -1.1625    0.0000 O   0  0  0  0  0  0  0  0  0  0  0  0
    4.0375   -0.4750    0.0000 O   0  0  0  0  0  0  0  0  0  0  0  0
    1.1667    2.0250    0.0000 N   0  0  0  0  0  0  0  0  0  0  0  0
    2.0167    2.5208    0.0000 C   0  0  0  0  0  0  0  0  0  0  0  0
    0.3167    2.5208    0.0000 C   0  0  0  0  0  0  0  0  0  0  0  0
   -0.5375    2.0250    0.0000 C   0  0  0  0  0  0  0  0  0  0  0  0
    2.0167    3.4833    0.0000 N   0  0  0  0  0  0  0  0  0  0  0  0
    1.1667    1.0583    0.0000 C   0  0  0  0  0  0  0  0  0  0  0  0
   -0.5375    1.0583    0.0000 C   0  0  0  0  0  0  0  0  0  0  0  0
    0.3167    0.5708    0.0000 C   0  0  0  0  0  0  0  0  0  0  0  0
    2.8750    2.0250    0.0000 N   0  0  0  0  0  0  0  0  0  0  0  0
   -1.3875    2.5208    0.0000 C   0  0  0  0  0  0  0  0  0  0  0  0
   -1.3875    0.5708    0.0000 C   0  0  0  0  0  0  0  0  0  0  0  0
   -2.2458    2.0250    0.0000 C   0  0  0  0  0  0  0  0  0  0  0  0
   -2.2458    1.0583    0.0000 C   0  0  0  0  0  0  0  0  0  0  0  0
  2  1  1  0
  3  1  1  0
  4  3  1  0
  5  2  2  0
  6  1  1  0
  7  8  1  0
  8  6  1  0
  9  2  1  0
 10  4  1  0
 11  7  1  0
 12 10  2  0
 13 11  2  0
  4  7  2  0
 12 13  1  0
 15 14  2  0
 16 14  2  0
 17 14  1  0
 18 14  1  0
 20 19  1  0
 21 19  1  0
 22 21  1  0
 23 20  2  0
 24 19  1  0
 25 26  1  0
 26 24  1  0
 27 20  1  0
 28 22  1  0
 29 25  1  0
 30 28  2  0
 31 29  2  0
 22 25  2  0
 30 31  1  0
M  END
> <chembl_id>
CHEMBL1593558

> <chembl_pref_name>
DEBRISOQUIN SULFATE
