
     RDKit          2D

 24 27  0  0  0  0  0  0  0  0999 V2000
   -0.1625    0.5208    0.0000 C   0  0  0  0  0  0  0  0  0  0  0  0
    0.4542    1.4250    0.0000 O   0  0  0  0  0  0  0  0  0  0  0  0
   -0.1625    2.3458    0.0000 C   0  0  0  0  0  0  0  0  0  0  0  0
   -1.2375    0.8750    0.0000 C   0  0  0  0  0  0  0  0  0  0  0  0
   -1.2375    1.9833    0.0000 C   0  0  0  0  0  0  0  0  0  0  0  0
   -0.7625   -0.4417    0.0000 C   0  0  0  0  0  0  0  0  0  0  0  0
    0.8000   -0.3000    0.0000 C   0  0  0  0  0  0  0  0  0  0  0  0
    0.2000    3.4208    0.0000 O   0  0  0  0  0  0  0  0  0  0  0  0
   -0.2875   -1.4667    0.0000 C   0  0  0  0  0  0  0  0  0  0  0  0
   -1.8875   -0.4125    0.0000 C   0  0  0  0  0  0  0  0  0  0  0  0
    0.4375   -1.4042    0.0000 C   0  0  0  0  0  0  0  0  0  0  0  0
    1.8542   -0.0667    0.0000 C   0  0  0  0  0  0  0  0  0  0  0  0
    2.2667   -2.0042    0.0000 C   0  0  0  0  0  0  0  0  0  0  0  0
   -2.0333   -2.3167    0.0000 C   0  0  0  0  0  0  0  0  0  0  0  0
   -2.1833    0.3208    0.0000 C   0  0  0  0  0  0  0  0  0  0  0  0
   -2.5083   -1.3042    0.0000 C   0  0  0  0  0  0  0  0  0  0  0  0
    1.2042   -2.2042    0.0000 C   0  0  0  0  0  0  0  0  0  0  0  0
    2.6250   -1.0167    0.0000 C   0  0  0  0  0  0  0  0  0  0  0  0
   -0.9083   -2.4167    0.0000 C   0  0  0  0  0  0  0  0  0  0  0  0
    3.0292   -2.9042    0.0000 O   0  0  0  0  0  0  0  0  0  0  0  0
   -2.6583   -3.3167    0.0000 O   0  0  0  0  0  0  0  0  0  0  0  0
   -2.1833    2.5375    0.0000 C   0  0  0  0  0  0  0  0  0  0  0  0
   -3.1625    0.8750    0.0000 C   0  0  0  0  0  0  0  0  0  0  0  0
   -3.1625    1.9833    0.0000 C   0  0  0  0  0  0  0  0  0  0  0  0
  2  1  1  0
  3  2  1  0
  4  1  1  0
  5  4  2  0
  6  1  1  0
  7  1  1  0
  8  3  2  0
  9  6  1  0
 10  6  2  0
 11  7  2  0
 12  7  1  0
 13 18  1  0
 14 16  2  0
 15  4  1  0
 16 10  1  0
 17 11  1  0
 18 12  2  0
 19  9  2  0
 20 13  1  0
 21 14  1  0
 22  5  1  0
 23 15  2  0
 24 23  1  0
  5  3  1  0
 17 13  2  0
 19 14  1  0
 22 24  2  0
M  END
> <chembl_id>
CHEMBL63857

> <chembl_pref_name>
PHENOLPHTHALEIN
