
     RDKit          2D

 19 20  0  0  0  0  0  0  0  0999 V2000
    1.8042    0.4208    0.0000 C   0  0  0  0  0  0  0  0  0  0  0  0
   -0.1875    0.4625    0.0000 C   0  0  0  0  0  0  0  0  0  0  0  0
    0.8167    1.0208    0.0000 C   0  0  0  0  0  0  0  0  0  0  0  0
   -2.1833    0.4958    0.0000 N   0  0  0  0  0  0  0  0  0  0  0  0
   -1.1833    1.0583    0.0000 C   0  0  0  0  0  0  0  0  0  0  0  0
    1.7792   -0.7292    0.0000 C   0  0  0  0  0  0  0  0  0  0  0  0
   -0.2125   -0.6917    0.0000 C   0  0  0  0  0  0  0  0  0  0  0  0
   -4.2083   -0.6167    0.0000 N   0  0  0  0  0  0  0  0  0  0  0  0
    0.7792   -1.2792    0.0000 C   0  0  0  0  0  0  0  0  0  0  0  0
    2.8125    0.9833    0.0000 O   0  0  0  0  0  0  0  0  0  0  0  0
    0.8375    2.1708    0.0000 O   0  0  0  0  0  0  0  0  0  0  0  0
    2.7667   -1.3167    0.0000 O   0  0  0  0  0  0  0  0  0  0  0  0
   -2.2083   -0.6542    0.0000 C   0  0  0  0  0  0  0  0  0  0  0  0
   -3.1708    1.0958    0.0000 C   0  0  0  0  0  0  0  0  0  0  0  0
   -4.1833    0.5333    0.0000 C   0  0  0  0  0  0  0  0  0  0  0  0
   -3.2125   -1.2125    0.0000 C   0  0  0  0  0  0  0  0  0  0  0  0
    3.8000    0.3875    0.0000 C   0  0  0  0  0  0  0  0  0  0  0  0
    1.8417    2.7250    0.0000 C   0  0  0  0  0  0  0  0  0  0  0  0
    2.7500   -2.4750    0.0000 C   0  0  0  0  0  0  0  0  0  0  0  0
  2  3  2  0
  3  1  1  0
  4  5  1  0
  5  2  1  0
  6  1  2  0
  7  9  2  0
  8 15  1  0
  9  6  1  0
 10  1  1  0
 11  3  1  0
 12  6  1  0
 13  4  1  0
 14  4  1  0
 15 14  1  0
 16 13  1  0
 17 10  1  0
 18 11  1  0
 19 12  1  0
  2  7  1  0
 16  8  1  0
M  END
> <chembl_id>
CHEMBL203266

> <chembl_pref_name>
TRIMETAZIDINE
