
     RDKit          2D

 26 29  0  0  0  0  0  0  0  0999 V2000
    2.2167   -3.4292    0.0000 N   0  0  0  0  0  0  0  0  0  0  0  0
    2.8875   -3.6417    0.0000 C   0  0  0  0  0  0  0  0  0  0  0  0
    2.2167   -2.7167    0.0000 C   0  0  0  0  0  0  0  0  0  0  0  0
    2.8875   -2.5042    0.0000 N   0  0  0  0  0  0  0  0  0  0  0  0
    3.2792   -3.0625    0.0000 N   0  0  0  0  0  0  0  0  0  0  0  0
    6.1500   -5.4792    0.0000 N   0  0  0  0  0  0  0  0  0  0  0  0
    6.5000   -6.0917    0.0000 C   0  0  0  0  0  0  0  0  0  0  0  0
    1.6042   -3.7792    0.0000 C   0  0  0  0  0  0  0  0  0  0  0  0
    5.4167   -4.2542    0.0000 N   0  0  0  0  0  0  0  0  0  0  0  0
    3.1125   -4.3042    0.0000 O   0  0  0  0  0  0  0  0  0  0  0  0
    7.2167   -6.0875    0.0000 C   0  0  0  0  0  0  0  0  0  0  0  0
    1.6042   -2.3625    0.0000 C   0  0  0  0  0  0  0  0  0  0  0  0
    5.4125   -5.4917    0.0000 C   0  0  0  0  0  0  0  0  0  0  0  0
    6.4917   -4.8625    0.0000 C   0  0  0  0  0  0  0  0  0  0  0  0
    0.9792   -3.4417    0.0000 C   0  0  0  0  0  0  0  0  0  0  0  0
    0.9792   -2.7042    0.0000 C   0  0  0  0  0  0  0  0  0  0  0  0
    4.0000   -3.0542    0.0000 C   0  0  0  0  0  0  0  0  0  0  0  0
    5.0667   -4.8667    0.0000 C   0  0  0  0  0  0  0  0  0  0  0  0
    6.1375   -4.2542    0.0000 C   0  0  0  0  0  0  0  0  0  0  0  0
    7.5667   -6.7000    0.0000 C   0  0  0  0  0  0  0  0  0  0  0  0
    4.3542   -3.6625    0.0000 C   0  0  0  0  0  0  0  0  0  0  0  0
    5.0667   -3.6500    0.0000 C   0  0  0  0  0  0  0  0  0  0  0  0
    8.2792   -6.6792    0.0000 Cl  0  0  0  0  0  0  0  0  0  0  0  0
    6.1500   -6.7042    0.0000 C   0  0  0  0  0  0  0  0  0  0  0  0
    6.4917   -7.3250    0.0000 C   0  0  0  0  0  0  0  0  0  0  0  0
    7.2250   -7.3167    0.0000 C   0  0  0  0  0  0  0  0  0  0  0  0
  2  1  1  0
  3  1  1  0
  4  3  2  0
  5  2  1  0
  6 14  1  0
  7  6  1  0
  8  1  1  0
  9 22  1  0
 10  2  2  0
 11  7  1  0
 12  3  1  0
 13 18  1  0
 14 19  1  0
 15  8  2  0
 16 15  1  0
 17  5  1  0
 18  9  1  0
 19  9  1  0
 20 11  2  0
 21 17  1  0
 22 21  1  0
 23 20  1  0
 24  7  2  0
 25 24  1  0
 26 25  2  0
  5  4  1  0
 16 12  2  0
  6 13  1  0
 26 20  1  0
M  END
> <chembl_id>
CHEMBL621

> <chembl_pref_name>
TRAZODONE
