
     RDKit          2D

 25 27  0  0  1  0  0  0  0  0999 V2000
    1.8667   -4.9417    0.0000 C   0  0  0  0  0  0  0  0  0  0  0  0
    1.2375   -5.3167    0.0000 C   0  0  0  0  0  0  0  0  0  0  0  0
    1.8542   -4.2167    0.0000 C   0  0  0  0  0  0  0  0  0  0  0  0
    5.5750   -4.9500    0.0000 C   0  0  0  0  0  0  0  0  0  0  0  0
    1.2542   -3.7917    0.0000 C   0  0  0  0  0  0  0  0  0  0  0  0
    0.9792   -5.9542    0.0000 C   0  0  0  0  0  0  0  0  0  0  0  0
    6.1917   -5.3250    0.0000 C   0  0  0  0  0  0  0  0  0  0  0  0
    0.6542   -4.8792    0.0000 S   0  0  0  0  0  0  0  0  0  0  0  0
    2.4375   -3.7917    0.0000 S   0  0  0  0  0  0  0  0  0  0  0  0
    4.3500   -4.9500    0.0000 N   0  0  0  0  0  0  0  0  0  0  0  0
    4.9667   -5.3042    0.0000 C   0  0  0  0  0  0  0  0  0  0  0  0
    0.0750   -5.3000    0.0000 C   0  0  0  0  0  0  0  0  0  0  0  0
    2.1917   -3.1375    0.0000 C   0  0  0  0  0  0  0  0  0  0  0  0
    2.4750   -5.2917    0.0000 C   0  0  0  0  0  0  0  0  0  0  0  0
    1.5167   -3.1375    0.0000 C   0  0  0  0  0  0  0  0  0  0  0  0
    0.3000   -5.9542    0.0000 C   0  0  0  0  0  0  0  0  0  0  0  0
    6.1917   -6.0292    0.0000 O   0  0  0  0  0  0  0  0  0  0  0  0
    6.8000   -4.9875    0.0000 O   0  0  0  0  0  0  0  0  0  0  0  0
    3.0917   -4.9417    0.0000 C   0  0  0  0  0  0  0  0  0  0  0  0
    5.5750   -4.2292    0.0000 C   0  0  0  0  0  0  0  0  0  0  0  0
    3.7167   -5.3042    0.0000 C   0  0  0  0  0  0  0  0  0  0  0  0
    4.3500   -4.2583    0.0000 C   0  0  0  0  0  0  0  0  0  0  0  0
    1.3667   -6.5500    0.0000 C   0  0  0  0  0  0  0  0  0  0  0  0
    0.5750   -3.9792    0.0000 C   0  0  0  0  0  0  0  0  0  0  0  0
    4.9667   -3.8875    0.0000 C   0  0  0  0  0  0  0  0  0  0  0  0
  2  1  1  0
  3  1  1  0
  4 11  1  0
  5  3  2  0
  6  2  2  0
  4  7  1  1
  8  2  1  0
  9  3  1  0
 10 21  1  0
 11 10  1  0
 12  8  1  0
 13  9  1  0
 14  1  2  0
 15  5  1  0
 16  6  1  0
 17  7  2  0
 18  7  1  0
 19 14  1  0
 20 25  1  0
 21 19  1  0
 22 10  1  0
 23  6  1  0
 24  5  1  0
 25 22  1  0
 13 15  2  0
 12 16  2  0
 20  4  1  0
M  END
> <chembl_id>
CHEMBL1027

> <chembl_pref_name>
TIAGABINE
