
     RDKit          2D

 29 31  0  0  0  0  0  0  0  0999 V2000
    0.9056   -2.6613    0.0000 O   0  0  0  0  0  0  0  0  0  0  0  0
    1.7306   -2.6613    0.0000 C   0  0  0  0  0  0  0  0  0  0  0  0
    2.1431   -1.9468    0.0000 C   0  0  0  0  0  0  0  0  0  0  0  0
    1.7306   -1.2324    0.0000 O   0  0  0  0  0  0  0  0  0  0  0  0
    4.2056   -2.6613    0.0000 C   0  0  0  0  0  0  0  0  0  0  0  0
    5.8556   -1.2324    0.0000 O   0  0  0  0  0  0  0  0  0  0  0  0
    5.4431   -1.9468    0.0000 C   0  0  0  0  0  0  0  0  0  0  0  0
    5.8556   -2.6613    0.0000 C   0  0  0  0  0  0  0  0  0  0  0  0
    5.4431   -3.3758    0.0000 C   0  0  0  0  0  0  0  0  0  0  0  0
    4.6181   -3.3758    0.0000 N   0  0  0  0  0  0  0  0  0  0  0  0
    4.6181   -1.9468    0.0000 C   0  0  0  0  0  0  0  0  0  0  0  0
    3.3806   -2.6613    0.0000 C   0  0  0  0  0  0  0  0  0  0  0  0
    2.9681   -3.3758    0.0000 C   0  0  0  0  0  0  0  0  0  0  0  0
    4.2056   -4.0902    0.0000 C   0  0  0  0  0  0  0  0  0  0  0  0
    3.3806   -4.0902    0.0000 C   0  0  0  0  0  0  0  0  0  0  0  0
    2.1431   -3.3758    0.0000 C   0  0  0  0  0  0  0  0  0  0  0  0
    2.9681   -1.9468    0.0000 C   0  0  0  0  0  0  0  0  0  0  0  0
    6.6806   -2.6613    0.0000 C   0  0  0  0  0  0  0  0  0  0  0  0
    7.0931   -1.9468    0.0000 C   0  0  0  0  0  0  0  0  0  0  0  0
    7.9181   -1.9468    0.0000 C   0  0  0  0  0  0  0  0  0  0  0  0
    6.6806   -1.2324    0.0000 C   0  0  0  0  0  0  0  0  0  0  0  0
    2.1431   -0.5179    0.0000 C   0  0  0  0  0  0  0  0  0  0  0  0
    0.4931   -3.3758    0.0000 C   0  0  0  0  0  0  0  0  0  0  0  0
    2.8576   -0.9304    0.0000 H   0  0  0  0  0  0  0  0  0  0  0  0
    2.5556    0.1966    0.0000 H   0  0  0  0  0  0  0  0  0  0  0  0
    1.4287   -0.1054    0.0000 H   0  0  0  0  0  0  0  0  0  0  0  0
   -0.2213   -2.9633    0.0000 H   0  0  0  0  0  0  0  0  0  0  0  0
    0.0806   -4.0902    0.0000 H   0  0  0  0  0  0  0  0  0  0  0  0
    1.2076   -3.7883    0.0000 H   0  0  0  0  0  0  0  0  0  0  0  0
  1  2  1  0
  2 16  2  0
  3  2  1  0
  3 17  2  0
  4  3  1  0
  6  7  2  0
  8  7  1  0
  7 11  1  0
  8  9  1  0
  9 10  1  0
  5 10  1  0
 10 14  1  0
  5 11  1  0
  5 12  1  0
 13 12  2  0
 14 15  1  0
 15 13  1  0
 16 13  1  0
 17 12  1  0
 18 19  1  0
 19 21  1  0
 20 19  1  0
  8 18  1  0
  4 22  1  0
  1 23  1  0
 22 24  1  0
 22 25  1  0
 22 26  1  0
 23 27  1  0
 23 28  1  0
 23 29  1  0
M  ISO  6  24   2  25   2  26   2  27   2  28   2  29   2
M  END
> <chembl_id>
CHEMBL3137326

> <chembl_pref_name>
DEUTETRABENAZINE
