
     RDKit          2D

 38 39  0  0  0  0  0  0  0  0999 V2000
    3.9375   -0.2417    0.0000 Na  0  0  0  0  0 15  0  0  0  0  0  0
   -0.1125    0.8458    0.0000 S   0  0  0  0  0  0  0  0  0  0  0  0
    2.3542   -0.5750    0.0000 S   0  0  0  0  0  0  0  0  0  0  0  0
    0.5042   -0.2208    0.0000 C   0  0  0  0  0  0  0  0  0  0  0  0
    0.4917    0.4875    0.0000 C   0  0  0  0  0  0  0  0  0  0  0  0
   -0.0958   -0.5625    0.0000 C   0  0  0  0  0  0  0  0  0  0  0  0
   -0.7208   -0.2000    0.0000 C   0  0  0  0  0  0  0  0  0  0  0  0
    1.7500   -0.2167    0.0000 C   0  0  0  0  0  0  0  0  0  0  0  0
    1.1292   -0.5792    0.0000 C   0  0  0  0  0  0  0  0  0  0  0  0
   -2.5708    0.8833    0.0000 N   0  0  0  0  0  0  0  0  0  0  0  0
   -1.9500    0.5208    0.0000 C   0  0  0  0  0  0  0  0  0  0  0  0
   -1.3333   -0.5417    0.0000 C   0  0  0  0  0  0  0  0  0  0  0  0
   -0.7208    0.4958    0.0000 C   0  0  0  0  0  0  0  0  0  0  0  0
   -1.3708    0.8625    0.0000 C   0  0  0  0  0  0  0  0  0  0  0  0
   -1.9583   -0.1792    0.0000 C   0  0  0  0  0  0  0  0  0  0  0  0
   -0.7458    1.2083    0.0000 O   0  0  0  0  0  0  0  0  0  0  0  0
    2.9708   -0.2208    0.0000 O   0  0  0  0  0  0  0  0  0  0  0  0
    1.1125    0.8583    0.0000 C   0  0  0  0  0  0  0  0  0  0  0  0
    0.2542    1.4708    0.0000 O   0  0  0  0  0  0  0  0  0  0  0  0
   -0.4708    0.2333    0.0000 O   0  0  0  0  0  0  0  0  0  0  0  0
    2.7042   -1.1875    0.0000 O   0  0  0  0  0  0  0  0  0  0  0  0
    2.0000   -1.1875    0.0000 O   0  0  0  0  0  0  0  0  0  0  0  0
   -0.1208   -1.2917    0.0000 C   0  0  0  0  0  0  0  0  0  0  0  0
   -0.0833   -2.7042    0.0000 C   0  0  0  0  0  0  0  0  0  0  0  0
    1.7667    0.4708    0.0000 C   0  0  0  0  0  0  0  0  0  0  0  0
   -0.0583   -3.4292    0.0000 N   0  0  0  0  0  0  0  0  0  0  0  0
   -0.7333   -1.6417    0.0000 C   0  0  0  0  0  0  0  0  0  0  0  0
    0.5042   -1.6542    0.0000 C   0  0  0  0  0  0  0  0  0  0  0  0
    0.5042   -2.3667    0.0000 C   0  0  0  0  0  0  0  0  0  0  0  0
   -0.7208   -2.3500    0.0000 C   0  0  0  0  0  0  0  0  0  0  0  0
   -3.1750    0.5500    0.0000 C   0  0  0  0  0  0  0  0  0  0  0  0
   -2.5583    1.6000    0.0000 C   0  0  0  0  0  0  0  0  0  0  0  0
    0.5542   -3.7792    0.0000 C   0  0  0  0  0  0  0  0  0  0  0  0
   -0.6458   -3.8125    0.0000 C   0  0  0  0  0  0  0  0  0  0  0  0
   -3.1625    1.9708    0.0000 C   0  0  0  0  0  0  0  0  0  0  0  0
   -3.7833    0.9208    0.0000 C   0  0  0  0  0  0  0  0  0  0  0  0
    1.2000   -3.4875    0.0000 C   0  0  0  0  0  0  0  0  0  0  0  0
   -1.2750   -3.4917    0.0000 C   0  0  0  0  0  0  0  0  0  0  0  0
  3  8  1  0
  4  5  1  0
  5  2  1  0
  6  4  1  0
  7  6  2  0
  8  9  1  0
  9  4  2  0
 10 11  2  0
 11 14  1  0
 12  7  1  0
 13  7  1  0
 14 13  2  0
 15 12  2  0
 16  2  1  0
 17  3  1  0
 18  5  2  0
 19  2  2  0
 20  2  2  0
 21  3  2  0
 22  3  2  0
 23  6  1  0
 24 30  2  0
 25 18  1  0
 26 24  1  0
 27 23  2  0
 28 23  1  0
 29 28  2  0
 30 27  1  0
 31 10  1  0
 32 10  1  0
 33 26  1  0
 34 26  1  0
 35 32  1  0
 36 31  1  0
 37 33  1  0
 38 34  1  0
 25  8  2  0
 24 29  1  0
 11 15  1  0
M  CHG  4   1   1  10   1  16  -1  17  -1
M  END
> <chembl_id>
CHEMBL1200859

> <chembl_pref_name>
ISOSULFAN BLUE
