
     RDKit          2D

 27 28  0  0  0  0  0  0  0  0999 V2000
    1.6791   -2.1500    0.0000 C   0  0  0  0  0  0  0  0  0  0  0  0
    2.3875   -2.1500    0.0000 C   0  0  0  0  0  0  0  0  0  0  0  0
    2.6068   -1.4784    0.0000 C   0  0  0  0  0  0  0  0  0  0  0  0
    2.0333   -1.0583    0.0000 N   0  0  0  0  0  0  0  0  0  0  0  0
    1.4599   -1.4784    0.0000 C   0  0  0  0  0  0  0  0  0  0  0  0
    2.0333   -0.3500    0.0000 C   0  0  0  0  0  0  0  0  0  0  0  0
    2.6467    0.0042    0.0000 C   0  0  0  0  0  0  0  0  0  0  0  0
    2.6467    0.7125    0.0000 O   0  0  0  0  0  0  0  0  0  0  0  0
   -2.2667   -0.8416    0.0000 N   0  0  0  0  0  0  0  0  0  0  0  0
   -2.8792   -1.1958    0.0000 C   0  0  0  0  0  0  0  0  0  0  0  0
   -1.6542   -1.1958    0.0000 C   0  0  0  0  0  0  0  0  0  0  0  0
   -0.4417    0.2292    0.0000 C   0  0  0  0  0  0  0  0  0  0  0  0
   -1.0458   -0.8333    0.0000 C   0  0  0  0  0  0  0  0  0  0  0  0
   -2.8792   -1.9083    0.0000 C   0  0  0  0  0  0  0  0  0  0  0  0
   -3.4917   -0.8458    0.0000 C   0  0  0  0  0  0  0  0  0  0  0  0
   -1.0542   -0.1291    0.0000 C   0  0  0  0  0  0  0  0  0  0  0  0
    0.1708   -0.1208    0.0000 O   0  0  0  0  0  0  0  0  0  0  0  0
   -0.4542    0.9417    0.0000 O   0  0  0  0  0  0  0  0  0  0  0  0
   -2.2667   -2.2666    0.0000 Cl  0  0  0  0  0  0  0  0  0  0  0  0
   -3.4917   -0.1333    0.0000 Cl  0  0  0  0  0  0  0  0  0  0  0  0
   -4.1042   -1.9083    0.0000 C   0  0  0  0  0  0  0  0  0  0  0  0
   -1.6542   -1.9041    0.0000 C   0  0  0  0  0  0  0  0  0  0  0  0
   -3.4917   -2.2666    0.0000 C   0  0  0  0  0  0  0  0  0  0  0  0
   -4.1042   -1.1958    0.0000 C   0  0  0  0  0  0  0  0  0  0  0  0
   -0.4333   -1.1833    0.0000 C   0  0  0  0  0  0  0  0  0  0  0  0
   -1.0417   -2.2541    0.0000 C   0  0  0  0  0  0  0  0  0  0  0  0
   -0.4292   -1.8958    0.0000 C   0  0  0  0  0  0  0  0  0  0  0  0
  1  2  1  0
  2  3  1  0
  3  4  1  0
  4  5  1  0
  5  1  1  0
  4  6  1  0
  6  7  1  0
  7  8  1  0
 16 13  1  0
 17 12  1  0
 18 12  2  0
 19 14  1  0
 20 15  1  0
 21 24  2  0
 22 11  2  0
 23 14  2  0
 24 15  1  0
 25 13  2  0
 26 22  1  0
 27 26  2  0
 23 21  1  0
 27 25  1  0
 10  9  1  0
 11  9  1  0
 12 16  1  0
 13 11  1  0
 14 10  1  0
 15 10  2  0
M  END
> <chembl_id>
CHEMBL1201180

> <chembl_pref_name>
DICLOFENAC EPOLAMINE
