
     RDKit          2D

 30 33  0  0  0  0  0  0  0  0999 V2000
   -2.9151   -3.0217    0.0000 C   0  0  0  0  0  0  0  0  0  0  0  0
   -3.6296   -3.4342    0.0000 C   0  0  0  0  0  0  0  0  0  0  0  0
   -4.3441   -3.0217    0.0000 N   0  0  0  0  0  0  0  0  0  0  0  0
   -5.0585   -3.4342    0.0000 C   0  0  0  0  0  0  0  0  0  0  0  0
   -4.3441   -2.1967    0.0000 C   0  0  0  0  0  0  0  0  0  0  0  0
   -3.6296   -1.7842    0.0000 C   0  0  0  0  0  0  0  0  0  0  0  0
   -2.9151   -2.1967    0.0000 C   0  0  0  0  0  0  0  0  0  0  0  0
   -2.2006   -1.7842    0.0000 C   0  0  0  0  0  0  0  0  0  0  0  0
   -2.2006   -0.9592    0.0000 O   0  0  0  0  0  0  0  0  0  0  0  0
   -1.4862   -0.5467    0.0000 C   0  0  0  0  0  0  0  0  0  0  0  0
   -0.7717   -0.9592    0.0000 C   0  0  0  0  0  0  0  0  0  0  0  0
   -1.4862    0.2783    0.0000 C   0  0  0  0  0  0  0  0  0  0  0  0
   -2.2006    0.6908    0.0000 O   0  0  0  0  0  0  0  0  0  0  0  0
   -2.2006    1.5158    0.0000 C   0  0  0  0  0  0  0  0  0  0  0  0
   -0.7717    0.6908    0.0000 C   0  0  0  0  0  0  0  0  0  0  0  0
   -0.0572    0.2783    0.0000 C   0  0  0  0  0  0  0  0  0  0  0  0
   -0.0572   -0.5467    0.0000 C   0  0  0  0  0  0  0  0  0  0  0  0
    0.6572   -0.9592    0.0000 N   0  0  0  0  0  0  0  0  0  0  0  0
    1.3717   -0.5467    0.0000 C   0  0  0  0  0  0  0  0  0  0  0  0
    1.3717    0.2783    0.0000 N   0  0  0  0  0  0  0  0  0  0  0  0
    0.6572    0.6908    0.0000 C   0  0  0  0  0  0  0  0  0  0  0  0
    0.6572    1.5158    0.0000 N   0  0  0  0  0  0  0  0  0  0  0  0
    1.3717    1.9283    0.0000 C   0  0  0  0  0  0  0  0  0  0  0  0
    2.0862    1.5158    0.0000 C   0  0  0  0  0  0  0  0  0  0  0  0
    2.8007    1.9283    0.0000 C   0  0  0  0  0  0  0  0  0  0  0  0
    2.8007    2.7533    0.0000 C   0  0  0  0  0  0  0  0  0  0  0  0
    3.5151    3.1658    0.0000 Br  0  0  0  0  0  0  0  0  0  0  0  0
    2.0862    3.1658    0.0000 C   0  0  0  0  0  0  0  0  0  0  0  0
    1.3717    2.7533    0.0000 C   0  0  0  0  0  0  0  0  0  0  0  0
    0.6572    3.1658    0.0000 F   0  0  0  0  0  0  0  0  0  0  0  0
  1  2  1  0
  1  7  1  0
  2  3  1  0
  4  3  1  0
  5  3  1  0
  6  5  1  0
  6  7  1  0
  8  7  1  0
  8  9  1  0
 10  9  1  0
 11 10  2  0
 12 10  1  0
 17 11  1  0
 12 13  1  0
 15 12  2  0
 14 13  1  0
 16 15  1  0
 17 16  2  0
 16 21  1  0
 17 18  1  0
 19 18  1  0
 19 20  2  0
 21 20  1  0
 21 22  2  0
 23 22  1  0
 24 23  2  0
 29 23  1  0
 25 24  1  0
 25 26  2  0
 27 26  1  0
 28 26  1  0
 28 29  2  0
 29 30  1  0
M  END
> <chembl_id>
CHEMBL24828

> <chembl_pref_name>
VANDETANIB
