
     RDKit          2D

 36 39  0  0  1  0  0  0  0  0999 V2000
    5.0417   -6.1917    0.0000 C   0  0  0  0  0  0  0  0  0  0  0  0
    3.2000   -7.2417    0.0000 C   0  0  0  0  0  0  0  0  0  0  0  0
    5.7167   -5.9792    0.0000 C   0  0  0  0  0  0  0  0  0  0  0  0
    4.4250   -7.2417    0.0000 C   0  0  0  0  0  0  0  0  0  0  0  0
    5.0375   -6.8917    0.0000 C   0  0  0  0  0  0  0  0  0  0  0  0
    3.8125   -6.8875    0.0000 C   0  0  0  0  0  0  0  0  0  0  0  0
    3.2000   -7.9500    0.0000 C   0  0  0  0  0  0  0  0  0  0  0  0
    4.4292   -5.8292    0.0000 C   0  0  0  0  0  0  0  0  0  0  0  0
    3.8167   -6.1792    0.0000 C   0  0  0  0  0  0  0  0  0  0  0  0
    2.5875   -6.8875    0.0000 C   0  0  0  0  0  0  0  0  0  0  0  0
    5.7167   -5.2667    0.0000 C   0  0  0  0  0  0  0  0  0  0  0  0
    2.5875   -8.3042    0.0000 C   0  0  0  0  0  0  0  0  0  0  0  0
    6.1292   -6.5542    0.0000 C   0  0  0  0  0  0  0  0  0  0  0  0
    5.7042   -7.1250    0.0000 C   0  0  0  0  0  0  0  0  0  0  0  0
    4.4167   -7.9542    0.0000 C   0  0  0  0  0  0  0  0  0  0  0  0
    1.9792   -7.2417    0.0000 C   0  0  0  0  0  0  0  0  0  0  0  0
    1.9792   -7.9500    0.0000 C   0  0  0  0  0  0  0  0  0  0  0  0
    7.5542   -4.9000    0.0000 C   0  0  0  0  0  0  0  0  0  0  0  0
    3.8042   -8.3042    0.0000 C   0  0  0  0  0  0  0  0  0  0  0  0
    6.3250   -4.9042    0.0000 C   0  0  0  0  0  0  0  0  0  0  0  0
    5.1000   -4.9167    0.0000 O   0  0  0  0  0  0  0  0  0  0  0  0
    6.9417   -5.2542    0.0000 O   0  0  0  0  0  0  0  0  0  0  0  0
    7.5417   -4.1917    0.0000 O   0  0  0  0  0  0  0  0  0  0  0  0
    1.3625   -8.3000    0.0000 O   0  0  0  0  0  0  0  0  0  0  0  0
    6.3292   -5.6167    0.0000 O   0  0  0  0  0  0  0  0  0  0  0  0
    8.1667   -5.2500    0.0000 C   0  0  0  0  0  0  0  0  0  0  0  0
    8.7792   -4.8917    0.0000 C   0  0  0  0  0  0  0  0  0  0  0  0
    5.0417   -5.4792    0.0000 C   0  0  0  0  0  0  0  0  0  0  0  0
    3.2042   -5.8167    0.0000 O   0  0  0  0  0  0  0  0  0  0  0  0
    3.1917   -6.5292    0.0000 C   0  0  0  0  0  0  0  0  0  0  0  0
    8.4250   -4.2792    0.0000 C   0  0  0  0  0  0  0  0  0  0  0  0
    9.1292   -4.2792    0.0000 C   0  0  0  0  0  0  0  0  0  0  0  0
    9.3917   -5.2417    0.0000 C   0  0  0  0  0  0  0  0  0  0  0  0
    5.0292   -7.6042    0.0000 H   0  0  0  0  0  0  0  0  0  0  0  0
    4.4167   -6.5375    0.0000 H   0  0  0  0  0  0  0  0  0  0  0  0
    3.8042   -7.5917    0.0000 H   0  0  0  0  0  0  0  0  0  0  0  0
  2  6  1  0
  3  1  1  0
  4  5  1  0
  5  1  1  0
  6  9  1  0
  7  2  1  0
  8  1  1  0
  9  8  1  0
 10  2  1  0
 11  3  1  0
 12  7  2  0
 13  3  1  0
 14  5  1  0
 15  4  1  0
 16 10  2  0
 17 16  1  0
 18 22  1  0
 19 15  1  0
 20 11  1  0
 21 11  2  0
 22 20  1  0
 23 18  2  0
 24 17  2  0
  3 25  1  6
 26 18  1  0
 27 26  1  0
  1 28  1  1
  9 29  1  1
  2 30  1  1
 31 27  1  0
 32 27  1  0
 33 27  1  0
  5 34  1  6
  4 35  1  1
  6 36  1  6
 13 14  1  0
  6  4  1  0
 19  7  1  0
 17 12  1  0
M  END
> <chembl_id>
CHEMBL1200909

> <chembl_pref_name>
PREDNISOLONE TEBUTATE
