
     RDKit          2D

 24 25  0  0  0  0  0  0  0  0999 V2000
    2.4125   -0.9917    0.0000 C   0  0  0  0  0  0  0  0  0  0  0  0
    2.4125    0.1500    0.0000 N   0  0  0  0  0  0  0  0  0  0  0  0
    3.4042   -1.4792    0.0000 O   0  0  0  0  0  0  0  0  0  0  0  0
    1.5167   -1.6125    0.0000 N   0  0  0  0  0  0  0  0  0  0  0  0
    2.2375    2.1833    0.0000 O   0  0  0  0  0  0  0  0  0  0  0  0
   -1.3833   -1.1042    0.0000 O   0  0  0  0  0  0  0  0  0  0  0  0
   -1.3833    0.0333    0.0000 C   0  0  0  0  0  0  0  0  0  0  0  0
   -2.3458   -2.7792    0.0000 C   0  0  0  0  0  0  0  0  0  0  0  0
   -1.3833    2.2708    0.0000 C   0  0  0  0  0  0  0  0  0  0  0  0
   -2.3583   -1.6542    0.0000 C   0  0  0  0  0  0  0  0  0  0  0  0
   -0.4083   -2.8000    0.0000 N   0  0  0  0  0  0  0  0  0  0  0  0
   -0.3833    0.5875    0.0000 C   0  0  0  0  0  0  0  0  0  0  0  0
   -2.3458    0.5625    0.0000 C   0  0  0  0  0  0  0  0  0  0  0  0
   -0.3833    1.6875    0.0000 C   0  0  0  0  0  0  0  0  0  0  0  0
   -2.3458    1.7000    0.0000 C   0  0  0  0  0  0  0  0  0  0  0  0
    3.1792    0.6958    0.0000 C   0  0  0  0  0  0  0  0  0  0  0  0
    1.3792    0.6708    0.0000 C   0  0  0  0  0  0  0  0  0  0  0  0
   -3.3208   -3.3167    0.0000 O   0  0  0  0  0  0  0  0  0  0  0  0
   -1.3833    3.4208    0.0000 O   0  0  0  0  0  0  0  0  0  0  0  0
   -1.3458   -3.3542    0.0000 C   0  0  0  0  0  0  0  0  0  0  0  0
    1.3792    1.6458    0.0000 C   0  0  0  0  0  0  0  0  0  0  0  0
    3.1792    1.6208    0.0000 C   0  0  0  0  0  0  0  0  0  0  0  0
    1.5167   -2.7625    0.0000 C   0  0  0  0  0  0  0  0  0  0  0  0
    0.5542   -3.3417    0.0000 C   0  0  0  0  0  0  0  0  0  0  0  0
  2  1  1  0
  3  1  2  0
  4  1  1  0
  5 21  1  0
  6 10  1  0
  7  6  1  0
  8 20  1  0
  9 15  2  0
 10  8  1  0
 11 24  1  0
 12  7  1  0
 13  7  2  0
 14 12  2  0
 15 13  1  0
 16  2  1  0
 17  2  1  0
 18  8  1  0
 19  9  1  0
 20 11  1  0
 21 17  1  0
 22 16  1  0
 23  4  1  0
 24 23  1  0
 22  5  1  0
 14  9  1  0
M  END
> <chembl_id>
CHEMBL75753

> <chembl_pref_name>
XAMOTEROL
