
     RDKit          2D

 15 15  0  0  1  0  0  0  0  0999 V2000
   -4.3178   -3.5982    0.0000 C   0  0  0  0  0  0  0  0  0  0  0  0
   -5.0323   -3.1857    0.0000 C   0  0  0  0  0  0  0  0  0  0  0  0
   -5.7467   -3.5982    0.0000 C   0  0  0  0  0  0  0  0  0  0  0  0
   -2.8889   -4.4232    0.0000 C   0  0  0  0  0  0  0  0  0  0  0  0
   -5.7467   -4.4232    0.0000 C   0  0  0  0  0  0  0  0  0  0  0  0
   -4.3178   -4.4232    0.0000 C   0  0  0  0  0  0  0  0  0  0  0  0
   -5.0323   -4.8357    0.0000 C   0  0  0  0  0  0  0  0  0  0  0  0
   -3.6033   -3.1857    0.0000 C   0  0  0  0  0  0  0  0  0  0  0  0
   -2.8889   -3.5982    0.0000 C   0  0  0  0  0  0  0  0  0  0  0  0
   -5.0323   -2.3607    0.0000 F   0  0  0  0  0  0  0  0  0  0  0  0
   -2.1744   -4.8357    0.0000 O   0  0  0  0  0  0  0  0  0  0  0  0
   -2.1744   -3.1857    0.0000 N   0  0  0  0  0  0  0  0  0  0  0  0
   -3.6033   -4.8357    0.0000 O   0  0  0  0  0  0  0  0  0  0  0  0
   -6.4612   -4.8357    0.0000 O   0  0  0  0  0  0  0  0  0  0  0  0
   -5.0323   -5.6607    0.0000 O   0  0  0  0  0  0  0  0  0  0  0  0
  2  1  2  0
  3  2  1  0
  4  9  1  0
  5  7  1  0
  6  1  1  0
  7  6  2  0
  8  1  1  0
  9  8  1  0
 10  2  1  0
 11  4  2  0
  9 12  1  6
 13  4  1  0
 14  5  1  0
 15  7  1  0
  3  5  2  0
M  ISO  1  10  18
M  END
> <chembl_id>
CHEMBL3400972

> <chembl_pref_name>
FLUORODOPA F 18
