
     RDKit          2D

 36 39  0  0  1  0  0  0  0  0999 V2000
   10.7030   -8.2628    0.0000 N   0  0  0  0  0  0  0  0  0  0  0  0
   10.7030   -7.0809    0.0000 C   0  0  0  0  0  0  0  0  0  0  0  0
   11.7265   -6.4886    0.0000 C   0  0  0  0  0  0  0  0  0  0  0  0
   12.7471   -7.0809    0.0000 C   0  0  0  0  0  0  0  0  0  0  0  0
   13.7735   -6.4886    0.0000 C   0  0  0  0  0  0  0  0  0  0  0  0
   14.7970   -7.0809    0.0000 O   0  0  0  0  0  0  0  0  0  0  0  0
   15.8205   -6.4886    0.0000 C   0  0  0  0  0  0  0  0  0  0  0  0
   15.8205   -5.3067    0.0000 C   0  0  0  0  0  0  0  0  0  0  0  0
   16.8440   -4.7172    0.0000 O   0  0  0  0  0  0  0  0  0  0  0  0
   14.7970   -4.7172    0.0000 O   0  0  0  0  0  0  0  0  0  0  0  0
   16.8440   -7.0809    0.0000 C   0  0  0  0  0  0  0  0  0  0  0  0
   17.8675   -6.4886    0.0000 C   0  0  0  0  0  0  0  0  0  0  0  0
   13.7735   -5.3067    0.0000 C   0  0  0  0  0  0  0  0  0  0  0  0
   12.7471   -4.7172    0.0000 C   0  0  0  0  0  0  0  0  0  0  0  0
   11.7265   -5.3067    0.0000 C   0  0  0  0  0  0  0  0  0  0  0  0
   11.7265   -8.8523    0.0000 C   0  0  0  0  0  0  0  0  0  0  0  0
   12.7500   -8.2628    0.0000 C   0  0  0  0  0  0  0  0  0  0  0  0
   13.7735   -8.8523    0.0000 C   0  0  0  0  0  0  0  0  0  0  0  0
   14.7970   -8.2628    0.0000 O   0  0  0  0  0  0  0  0  0  0  0  0
   15.8205   -8.8523    0.0000 C   0  0  0  0  0  0  0  0  0  0  0  0
   15.8205  -10.0341    0.0000 C   0  0  0  0  0  0  0  0  0  0  0  0
   16.8469  -10.6265    0.0000 C   0  0  0  0  0  0  0  0  0  0  0  0
   17.8675  -10.0341    0.0000 C   0  0  0  0  0  0  0  0  0  0  0  0
   17.8675   -8.8523    0.0000 C   0  0  0  0  0  0  0  0  0  0  0  0
   16.8469   -8.2628    0.0000 C   0  0  0  0  0  0  0  0  0  0  0  0
   18.8910  -10.6265    0.0000 O   0  0  0  0  0  0  0  0  0  0  0  0
   19.9174  -10.0341    0.0000 C   0  0  0  0  0  0  0  0  0  0  0  0
    9.6795   -8.8523    0.0000 C   0  0  0  0  0  0  0  0  0  0  0  0
    9.6795  -10.0341    0.0000 N   0  0  0  0  0  0  0  0  0  0  0  0
    7.6325  -10.0341    0.0000 C   0  0  0  0  0  0  0  0  0  0  0  0
    7.6325   -8.8523    0.0000 C   0  0  0  0  0  0  0  0  0  0  0  0
    8.6560   -8.2628    0.0000 O   0  0  0  0  0  0  0  0  0  0  0  0
    6.6090   -8.2628    0.0000 C   0  0  0  0  0  0  0  0  0  0  0  0
    5.5826   -8.8523    0.0000 C   0  0  0  0  0  0  0  0  0  0  0  0
    5.5826  -10.0341    0.0000 C   0  0  0  0  0  0  0  0  0  0  0  0
    6.6090  -10.6265    0.0000 C   0  0  0  0  0  0  0  0  0  0  0  0
  1  2  1  0
  2  3  1  0
  3  4  2  0
  4  5  1  0
  5  6  1  0
  6  7  1  0
  7  8  1  1
  8  9  1  0
  8 10  2  0
  7 11  1  0
 11 12  1  0
  5 13  2  0
 14 13  1  0
  3 15  1  0
 15 14  2  0
  1 16  1  0
 16 17  1  0
 17 18  1  0
 18 19  1  0
 19 20  1  0
 20 21  2  0
 21 22  1  0
 22 23  2  0
 24 23  1  0
 20 25  1  0
 25 24  2  0
 23 26  1  0
 26 27  1  0
  1 28  1  0
 28 29  2  0
 29 30  1  0
 30 31  1  0
 28 32  1  0
 32 31  1  0
 31 33  2  0
 33 34  1  0
 35 34  2  0
 30 36  2  0
 36 35  1  0
M  END
> <chembl_id>
CHEMBL247951

> <chembl_pref_name>
PEMAFIBRATE
