
     RDKit          2D

 25 27  0  0  0  0  0  0  0  0999 V2000
   -4.4805   -0.6692    0.0000 Cl  0  0  0  0  0  0  0  0  0  0  0  0
   -3.7661   -0.2567    0.0000 C   0  0  0  0  0  0  0  0  0  0  0  0
   -3.7661    0.5684    0.0000 C   0  0  0  0  0  0  0  0  0  0  0  0
   -3.0516    0.9809    0.0000 C   0  0  0  0  0  0  0  0  0  0  0  0
   -3.0516   -0.6692    0.0000 C   0  0  0  0  0  0  0  0  0  0  0  0
   -2.3371   -0.2567    0.0000 C   0  0  0  0  0  0  0  0  0  0  0  0
   -2.3371    0.5684    0.0000 C   0  0  0  0  0  0  0  0  0  0  0  0
   -1.6227    0.9809    0.0000 N   0  0  0  0  0  0  0  0  0  0  0  0
   -1.6227   -0.6692    0.0000 C   0  0  0  0  0  0  0  0  0  0  0  0
   -0.9082   -0.2567    0.0000 C   0  0  0  0  0  0  0  0  0  0  0  0
   -0.9082    0.5684    0.0000 C   0  0  0  0  0  0  0  0  0  0  0  0
   -0.1937    0.9809    0.0000 O   0  0  0  0  0  0  0  0  0  0  0  0
   -0.1937   -0.6692    0.0000 C   0  0  0  0  0  0  0  0  0  0  0  0
    0.5207   -0.2567    0.0000 N   0  0  0  0  0  0  0  0  0  0  0  0
    1.2352   -0.6692    0.0000 C   0  0  0  0  0  0  0  0  0  0  0  0
    1.9497   -0.2567    0.0000 C   0  0  0  0  0  0  0  0  0  0  0  0
    1.9497    0.5684    0.0000 O   0  0  0  0  0  0  0  0  0  0  0  0
    1.2352   -1.4942    0.0000 C   0  0  0  0  0  0  0  0  0  0  0  0
    1.9497   -1.9067    0.0000 C   0  0  0  0  0  0  0  0  0  0  0  0
    2.6641   -1.4942    0.0000 C   0  0  0  0  0  0  0  0  0  0  0  0
    2.6641   -0.6692    0.0000 N   0  0  0  0  0  0  0  0  0  0  0  0
    3.3786   -0.2567    0.0000 C   0  0  0  0  0  0  0  0  0  0  0  0
    3.3786   -1.9067    0.0000 C   0  0  0  0  0  0  0  0  0  0  0  0
   -0.1937   -1.4942    0.0000 C   0  0  0  0  0  0  0  0  0  0  0  0
    4.0931   -2.3192    0.0000 N   0  0  0  0  0  0  0  0  0  0  0  0
  1  2  1  0
  2  3  1  0
  5  6  1  0
  6  7  2  0
  4  7  1  0
  2  5  2  0
  4  3  2  0
  9 10  2  0
 10 11  1  0
  8 11  1  0
  6  9  1  0
  8  7  1  0
 13 14  1  0
 10 13  1  0
 12 11  2  0
 15 16  1  0
 16 17  2  0
 14 15  1  0
 18 19  1  0
 19 20  2  0
 20 21  1  0
 15 18  2  0
 16 21  1  0
 20 23  1  0
 22 21  1  0
 13 24  1  1
 23 25  3  0
M  END
> <chembl_id>
CHEMBL4297610

> <chembl_pref_name>
OLUTASIDENIB
