
     RDKit          2D

 33 35  0  0  0  0  0  0  0  0999 V2000
    5.9642  -23.6054    0.0000 C   0  0  0  0  0  0  0  0  0  0  0  0
    5.9850  -25.2971    0.0000 C   0  0  0  0  0  0  0  0  0  0  0  0
    6.6767  -24.0262    0.0000 C   0  0  0  0  0  0  0  0  0  0  0  0
    5.9683  -22.7804    0.0000 C   0  0  0  0  0  0  0  0  0  0  0  0
    5.2558  -24.0221    0.0000 C   0  0  0  0  0  0  0  0  0  0  0  0
    6.6892  -22.3762    0.0000 C   0  0  0  0  0  0  0  0  0  0  0  0
    7.3892  -23.6179    0.0000 N   0  0  0  0  0  0  0  0  0  0  0  0
    5.2517  -24.8471    0.0000 C   0  0  0  0  0  0  0  0  0  0  0  0
    6.6975  -21.5554    0.0000 C   0  0  0  0  0  0  0  0  0  0  0  0
    6.6808  -24.8512    0.0000 C   0  0  0  0  0  0  0  0  0  0  0  0
    5.6558  -26.0471    0.0000 C   0  0  0  0  0  0  0  0  0  0  0  0
    4.7225  -26.0596    0.0000 N   0  0  0  0  0  0  0  0  0  0  0  0
    7.4017  -22.7929    0.0000 C   0  0  0  0  0  0  0  0  0  0  0  0
    7.4100  -21.1471    0.0000 N   0  0  0  0  0  0  0  0  0  0  0  0
    4.5475  -25.2596    0.0000 C   0  0  0  0  0  0  0  0  0  0  0  0
    5.9892  -21.1346    0.0000 O   0  0  0  0  0  0  0  0  0  0  0  0
    4.5392  -23.6096    0.0000 C   0  0  0  0  0  0  0  0  0  0  0  0
    8.0975  -24.0387    0.0000 C   0  0  0  0  0  0  0  0  0  0  0  0
    8.1225  -21.5679    0.0000 C   0  0  0  0  0  0  0  0  0  0  0  0
    9.5475  -21.5804    0.0000 O   0  0  0  0  0  0  0  0  0  0  0  0
    3.8267  -24.0262    0.0000 C   0  0  0  0  0  0  0  0  0  0  0  0
    3.8267  -24.8512    0.0000 C   0  0  0  0  0  0  0  0  0  0  0  0
    8.8350  -21.1596    0.0000 C   0  0  0  0  0  0  0  0  0  0  0  0
    8.1142  -22.3887    0.0000 C   0  0  0  0  0  0  0  0  0  0  0  0
    7.3850  -24.4346    0.0000 H   0  0  0  0  0  0  0  0  0  0  0  0
    5.8045  -18.0543    0.0000 C   0  0  0  0  0  0  0  0  0  0  0  0
    6.6295  -18.0543    0.0000 C   0  0  0  0  0  0  0  0  0  0  0  0
    5.3920  -18.7687    0.0000 C   0  0  0  0  0  0  0  0  0  0  0  0
    7.0420  -18.7687    0.0000 C   0  0  0  0  0  0  0  0  0  0  0  0
    7.8670  -18.7687    0.0000 O   0  0  0  0  0  0  0  0  0  0  0  0
    6.6295  -19.4832    0.0000 O   0  0  0  0  0  0  0  0  0  0  0  0
    4.5670  -18.7687    0.0000 O   0  0  0  0  0  0  0  0  0  0  0  0
    5.8045  -19.4832    0.0000 O   0  0  0  0  0  0  0  0  0  0  0  0
  2 10  1  0
  3  1  1  0
  4  1  2  0
  5  1  1  0
  6  4  1  0
  7  3  1  0
  8  5  2  0
  6  9  1  1
 10  3  1  0
 11  2  2  0
 12 15  1  0
 13  7  1  0
 14  9  1  0
 15  8  1  0
 16  9  2  0
 17  5  1  0
 18  7  1  0
 19 14  1  0
 20 23  1  0
 21 17  2  0
 22 15  2  0
 23 19  1  0
 19 24  1  6
  3 25  1  1
  8  2  1  0
  6 13  1  0
 22 21  1  0
 11 12  1  0
 26 27  2  0
 26 28  1  0
 27 29  1  0
 29 30  2  0
 29 31  1  0
 28 32  1  0
 28 33  2  0
M  END
> <chembl_id>
CHEMBL1213135

> <chembl_pref_name>
ERGONOVINE MALEATE
