
  SciTegic12091219252D

  7  6  0  0  0  0            999 V2000
    2.7365   -0.7459    0.0000 C   0  0
    2.0149   -1.1576    0.0000 C   0  0  1  0  0  0
    2.7365    0.0823    0.0000 O   0  0
    2.0149   -1.9810    0.0000 N   0  0
    3.4534   -1.1576    0.0000 O   0  0
    0.5910   -1.1576    0.0000 S   0  0
    1.3029   -0.7459    0.0000 C   0  0
  2  1  1  0
  3  1  2  0
  2  4  1  1
  5  1  1  0
  6  7  1  0
  7  2  1  0
M  END
> <chembl_id>
CHEMBL863

> <chembl_pref_name>
CYSTEINE
