
     RDKit          2D

 27 26  0  0  0  0  0  0  0  0999 V2000
    6.3667   -1.4375    0.0000 Na  0  0  0  0  0 15  0  0  0  0  0  0
    1.2667   -0.3875    0.0000 S   0  0  0  0  0  0  0  0  0  0  0  0
   -2.4125   -1.8125    0.0000 S   0  0  0  0  0  0  0  0  0  0  0  0
    4.9417   -1.7917    0.0000 S   0  0  0  0  0  0  0  0  0  0  0  0
    0.6542   -0.7417    0.0000 C   0  0  0  0  0  0  0  0  0  0  0  0
    1.8792   -0.7417    0.0000 C   0  0  0  0  0  0  0  0  0  0  0  0
    1.6167    0.2333    0.0000 O   0  0  0  0  0  0  0  0  0  0  0  0
    0.9042    0.2333    0.0000 O   0  0  0  0  0  0  0  0  0  0  0  0
    4.3292   -1.4375    0.0000 C   0  0  0  0  0  0  0  0  0  0  0  0
   -1.8000   -1.4542    0.0000 C   0  0  0  0  0  0  0  0  0  0  0  0
    5.5542   -1.4292    0.0000 O   0  0  0  0  0  0  0  0  0  0  0  0
   -3.0250   -1.4542    0.0000 O   0  0  0  0  0  0  0  0  0  0  0  0
   -2.4125   -2.5167    0.0000 O   0  0  0  0  0  0  0  0  0  0  0  0
    4.9500   -2.5000    0.0000 O   0  0  0  0  0  0  0  0  0  0  0  0
   -1.1833   -1.8125    0.0000 N   0  0  0  0  0  0  0  0  0  0  0  0
    3.7167   -1.7917    0.0000 N   0  0  0  0  0  0  0  0  0  0  0  0
    0.6542   -1.4542    0.0000 C   0  0  0  0  0  0  0  0  0  0  0  0
    0.0417   -0.3917    0.0000 C   0  0  0  0  0  0  0  0  0  0  0  0
    1.8792   -1.4500    0.0000 C   0  0  0  0  0  0  0  0  0  0  0  0
    2.4792   -0.3792    0.0000 C   0  0  0  0  0  0  0  0  0  0  0  0
    3.1042   -1.4417    0.0000 C   0  0  0  0  0  0  0  0  0  0  0  0
   -0.5708   -1.4542    0.0000 C   0  0  0  0  0  0  0  0  0  0  0  0
    2.4917   -1.8000    0.0000 C   0  0  0  0  0  0  0  0  0  0  0  0
   -0.5708   -0.7417    0.0000 C   0  0  0  0  0  0  0  0  0  0  0  0
    3.1000   -0.7292    0.0000 C   0  0  0  0  0  0  0  0  0  0  0  0
    0.0417   -1.8125    0.0000 C   0  0  0  0  0  0  0  0  0  0  0  0
   -3.9125   -1.5000    0.0000 Na  0  0  0  0  0 15  0  0  0  0  0  0
  3 10  1  0
  4  9  1  0
  5  2  1  0
  6  2  1  0
  7  2  2  0
  8  2  2  0
  9 16  1  0
 10 15  1  0
 11  4  1  0
 12  3  1  0
 13  3  2  0
 14  4  2  0
 15 22  1  0
 16 21  1  0
 17  5  1  0
 18  5  2  0
 19  6  2  0
 20  6  1  0
 21 25  1  0
 22 24  2  0
 23 19  1  0
 24 18  1  0
 25 20  2  0
 26 17  2  0
 21 23  2  0
 26 22  1  0
M  CHG  4   1   1  11  -1  12  -1  27   1
M  END
> <chembl_id>
CHEMBL1200580

> <chembl_pref_name>
SULFOXONE SODIUM
