
     RDKit          2D

 20 19  0  0  0  0  0  0  0  0999 V2000
    6.8042   -8.3083    0.0000 Na  0  0  0  0  0 15  0  0  0  0  0  0
    2.0583   -8.8958    0.0000 C   0  0  0  0  0  0  0  0  0  0  0  0
    2.6708   -9.2500    0.0000 C   0  0  0  0  0  0  0  0  0  0  0  0
    1.4458   -9.2500    0.0000 C   0  0  0  0  0  0  0  0  0  0  0  0
    3.2833   -8.8958    0.0000 C   0  0  0  0  0  0  0  0  0  0  0  0
    2.0583   -8.1875    0.0000 C   0  0  0  0  0  0  0  0  0  0  0  0
    0.8292   -8.8958    0.0000 C   0  0  0  0  0  0  0  0  0  0  0  0
    3.2833   -8.1833    0.0000 C   0  0  0  0  0  0  0  0  0  0  0  0
    5.1208   -7.8208    0.0000 C   0  0  0  0  0  0  0  0  0  0  0  0
    1.4458   -9.9583    0.0000 O   0  0  0  0  0  0  0  0  0  0  0  0
    3.8958   -7.8250    0.0000 O   0  0  0  0  0  0  0  0  0  0  0  0
    5.7375   -8.1750    0.0000 O   0  0  0  0  0  0  0  0  0  0  0  0
    2.6708   -7.8292    0.0000 C   0  0  0  0  0  0  0  0  0  0  0  0
    5.1208   -7.1125    0.0000 O   0  0  0  0  0  0  0  0  0  0  0  0
    2.6750   -9.9583    0.0000 Cl  0  0  0  0  0  0  0  0  0  0  0  0
    3.9000   -9.2500    0.0000 Cl  0  0  0  0  0  0  0  0  0  0  0  0
    0.8333   -8.1875    0.0000 C   0  0  0  0  0  0  0  0  0  0  0  0
    4.5083   -8.1792    0.0000 C   0  0  0  0  0  0  0  0  0  0  0  0
    0.2167   -9.2500    0.0000 C   0  0  0  0  0  0  0  0  0  0  0  0
   -0.3958   -8.8958    0.0000 C   0  0  0  0  0  0  0  0  0  0  0  0
  3  2  1  0
  4  2  1  0
  5  3  2  0
  6  2  2  0
  7  4  1  0
  8  5  1  0
  9 18  1  0
 10  4  2  0
 11  8  1  0
 12  9  1  0
 13  6  1  0
 14  9  2  0
 15  3  1  0
 16  5  1  0
 17  7  2  0
 18 11  1  0
 19  7  1  0
 20 19  1  0
 13  8  2  0
M  CHG  2   1   1  12  -1
M  END
> <chembl_id>
CHEMBL1200487

> <chembl_pref_name>
ETHACRYNATE SODIUM
