
     RDKit          2D

 72 75  0  0  0  0  0  0  0  0999 V2000
   -3.9539  -14.3886    0.0000 C   0  0  0  0  0  0  0  0  0  0  0  0
   -4.6684  -14.8011    0.0000 C   0  0  0  0  0  0  0  0  0  0  0  0
   -4.6684  -15.6261    0.0000 C   0  0  0  0  0  0  0  0  0  0  0  0
   -3.9539  -16.0386    0.0000 C   0  0  0  0  0  0  0  0  0  0  0  0
   -3.2394  -15.6261    0.0000 C   0  0  0  0  0  0  0  0  0  0  0  0
   -3.2394  -14.8011    0.0000 C   0  0  0  0  0  0  0  0  0  0  0  0
   -5.3829  -14.3886    0.0000 F   0  0  0  0  0  0  0  0  0  0  0  0
   -2.5249  -16.0386    0.0000 C   0  0  0  0  0  0  0  0  0  0  0  0
   -1.8104  -15.6261    0.0000 N   0  0  0  0  0  0  0  0  0  0  0  0
   -1.0960  -16.0386    0.0000 C   0  0  0  0  0  0  0  0  0  0  0  0
   -0.3815  -15.6261    0.0000 N   0  0  0  0  0  0  0  0  0  0  0  0
   -1.0960  -16.8636    0.0000 O   0  0  0  0  0  0  0  0  0  0  0  0
   -1.8104  -14.8011    0.0000 C   0  0  0  0  0  0  0  0  0  0  0  0
   -1.0960  -14.3886    0.0000 C   0  0  0  0  0  0  0  0  0  0  0  0
   -1.0960  -13.5636    0.0000 C   0  0  0  0  0  0  0  0  0  0  0  0
   -1.8104  -13.1511    0.0000 N   0  0  0  0  0  0  0  0  0  0  0  0
   -2.5249  -13.5636    0.0000 C   0  0  0  0  0  0  0  0  0  0  0  0
   -2.5249  -14.3886    0.0000 C   0  0  0  0  0  0  0  0  0  0  0  0
   -1.8104  -12.3261    0.0000 C   0  0  0  0  0  0  0  0  0  0  0  0
    0.3330  -16.0386    0.0000 C   0  0  0  0  0  0  0  0  0  0  0  0
    1.0474  -15.6261    0.0000 C   0  0  0  0  0  0  0  0  0  0  0  0
    1.7618  -16.0387    0.0000 C   0  0  0  0  0  0  0  0  0  0  0  0
    2.4763  -15.6262    0.0000 C   0  0  0  0  0  0  0  0  0  0  0  0
    2.4764  -14.8011    0.0000 C   0  0  0  0  0  0  0  0  0  0  0  0
    1.7619  -14.3886    0.0000 C   0  0  0  0  0  0  0  0  0  0  0  0
    1.0474  -14.8011    0.0000 C   0  0  0  0  0  0  0  0  0  0  0  0
    3.1909  -14.3887    0.0000 O   0  0  0  0  0  0  0  0  0  0  0  0
    3.9052  -14.8012    0.0000 C   0  0  0  0  0  0  0  0  0  0  0  0
    4.6197  -14.3887    0.0000 C   0  0  0  0  0  0  0  0  0  0  0  0
    5.3342  -14.8012    0.0000 C   0  0  0  0  0  0  0  0  0  0  0  0
    4.6198  -13.5637    0.0000 C   0  0  0  0  0  0  0  0  0  0  0  0
   -3.3919   -9.8538    0.0000 C   0  0  0  0  0  0  0  0  0  0  0  0
   -4.1064  -10.2663    0.0000 C   0  0  0  0  0  0  0  0  0  0  0  0
   -4.1064  -11.0913    0.0000 C   0  0  0  0  0  0  0  0  0  0  0  0
   -3.3919  -11.5038    0.0000 C   0  0  0  0  0  0  0  0  0  0  0  0
   -2.6774  -11.0913    0.0000 C   0  0  0  0  0  0  0  0  0  0  0  0
   -2.6774  -10.2663    0.0000 C   0  0  0  0  0  0  0  0  0  0  0  0
   -4.8209   -9.8538    0.0000 F   0  0  0  0  0  0  0  0  0  0  0  0
   -1.9629  -11.5038    0.0000 C   0  0  0  0  0  0  0  0  0  0  0  0
   -1.2484  -11.0913    0.0000 N   0  0  0  0  0  0  0  0  0  0  0  0
   -0.5340  -11.5038    0.0000 C   0  0  0  0  0  0  0  0  0  0  0  0
    0.1805  -11.0913    0.0000 N   0  0  0  0  0  0  0  0  0  0  0  0
   -0.5340  -12.3288    0.0000 O   0  0  0  0  0  0  0  0  0  0  0  0
   -1.2484  -10.2663    0.0000 C   0  0  0  0  0  0  0  0  0  0  0  0
   -0.5340   -9.8538    0.0000 C   0  0  0  0  0  0  0  0  0  0  0  0
   -0.5340   -9.0288    0.0000 C   0  0  0  0  0  0  0  0  0  0  0  0
   -1.2484   -8.6163    0.0000 N   0  0  0  0  0  0  0  0  0  0  0  0
   -1.9629   -9.0288    0.0000 C   0  0  0  0  0  0  0  0  0  0  0  0
   -1.9629   -9.8538    0.0000 C   0  0  0  0  0  0  0  0  0  0  0  0
   -1.2484   -7.7913    0.0000 C   0  0  0  0  0  0  0  0  0  0  0  0
    0.8950  -11.5038    0.0000 C   0  0  0  0  0  0  0  0  0  0  0  0
    1.6094  -11.0913    0.0000 C   0  0  0  0  0  0  0  0  0  0  0  0
    2.3238  -11.5039    0.0000 C   0  0  0  0  0  0  0  0  0  0  0  0
    3.0383  -11.0914    0.0000 C   0  0  0  0  0  0  0  0  0  0  0  0
    3.0384  -10.2663    0.0000 C   0  0  0  0  0  0  0  0  0  0  0  0
    2.3239   -9.8538    0.0000 C   0  0  0  0  0  0  0  0  0  0  0  0
    1.6094  -10.2663    0.0000 C   0  0  0  0  0  0  0  0  0  0  0  0
    3.7529   -9.8539    0.0000 O   0  0  0  0  0  0  0  0  0  0  0  0
    4.4672  -10.2664    0.0000 C   0  0  0  0  0  0  0  0  0  0  0  0
    5.1817   -9.8539    0.0000 C   0  0  0  0  0  0  0  0  0  0  0  0
    5.8962  -10.2664    0.0000 C   0  0  0  0  0  0  0  0  0  0  0  0
    5.1818   -9.0289    0.0000 C   0  0  0  0  0  0  0  0  0  0  0  0
    6.9984  -12.0503    0.0000 O   0  0  0  0  0  0  0  0  0  0  0  0
    7.7129  -13.2878    0.0000 O   0  0  0  0  0  0  0  0  0  0  0  0
    8.4273  -11.2253    0.0000 O   0  0  0  0  0  0  0  0  0  0  0  0
    9.1418  -13.2878    0.0000 O   0  0  0  0  0  0  0  0  0  0  0  0
   10.5708  -12.4628    0.0000 O   0  0  0  0  0  0  0  0  0  0  0  0
    9.8563  -11.2253    0.0000 O   0  0  0  0  0  0  0  0  0  0  0  0
    7.7129  -12.4628    0.0000 C   0  0  0  0  0  0  0  0  0  0  0  0
    8.4274  -12.0503    0.0000 C   0  0  0  0  0  0  0  0  0  0  0  0
    9.1418  -12.4628    0.0000 C   0  0  0  0  0  0  0  0  0  0  0  0
    9.8563  -12.0503    0.0000 C   0  0  0  0  0  0  0  0  0  0  0  0
  1  2  1  0
  1  6  2  0
  2  3  2  0
  3  4  1  0
  4  5  2  0
  5  6  1  0
  2  7  1  0
  5  8  1  0
  8  9  1  0
  9 10  1  0
 10 11  1  0
 10 12  2  0
  9 13  1  0
 13 14  1  0
 18 13  1  0
 14 15  1  0
 15 16  1  0
 16 17  1  0
 17 18  1  0
 16 19  1  0
 11 20  1  0
 20 21  1  0
 21 22  1  0
 21 26  2  0
 22 23  2  0
 23 24  1  0
 24 25  2  0
 25 26  1  0
 24 27  1  0
 27 28  1  0
 28 29  1  0
 29 30  1  0
 29 31  1  0
 32 33  1  0
 32 37  2  0
 33 34  2  0
 34 35  1  0
 35 36  2  0
 36 37  1  0
 33 38  1  0
 36 39  1  0
 39 40  1  0
 40 41  1  0
 41 42  1  0
 41 43  2  0
 40 44  1  0
 44 45  1  0
 49 44  1  0
 45 46  1  0
 46 47  1  0
 47 48  1  0
 48 49  1  0
 47 50  1  0
 42 51  1  0
 51 52  1  0
 52 53  1  0
 52 57  2  0
 53 54  2  0
 54 55  1  0
 55 56  2  0
 56 57  1  0
 55 58  1  0
 58 59  1  0
 59 60  1  0
 60 61  1  0
 60 62  1  0
 69 64  2  0
 70 65  1  0
 71 66  1  0
 69 63  1  0
 71 72  1  0
 70 71  1  0
 72 67  1  0
 69 70  1  0
 72 68  2  0
M  END
> <chembl_id>
CHEMBL2448613

> <chembl_pref_name>
PIMAVANSERIN TARTRATE
