
     RDKit          2D

 17 17  0  0  1  0  0  0  0  0999 V2000
    2.3750   -4.7917    0.0000 C   0  0  0  0  0  0  0  0  0  0  0  0
    2.9792   -4.4375    0.0000 C   0  0  0  0  0  0  0  0  0  0  0  0
    3.6000   -4.7750    0.0000 C   0  0  0  0  0  0  0  0  0  0  0  0
    2.3792   -5.5000    0.0000 C   0  0  0  0  0  0  0  0  0  0  0  0
    5.4500   -4.4167    0.0000 N   0  0  0  0  0  0  0  0  0  0  0  0
    3.6292   -5.4792    0.0000 C   0  0  0  0  0  0  0  0  0  0  0  0
    6.0500   -4.7542    0.0000 C   0  0  0  0  0  0  0  0  0  0  0  0
    3.0167   -5.8417    0.0000 C   0  0  0  0  0  0  0  0  0  0  0  0
    4.8292   -4.7542    0.0000 C   0  0  0  0  0  0  0  0  0  0  0  0
    4.2167   -4.4167    0.0000 C   0  0  0  0  0  0  0  0  0  0  0  0
    1.7792   -5.8917    0.0000 O   0  0  0  0  0  0  0  0  0  0  0  0
    1.7500   -4.4542    0.0000 C   0  0  0  0  0  0  0  0  0  0  0  0
    4.2167   -3.7167    0.0000 O   0  0  0  0  0  0  0  0  0  0  0  0
    1.1625   -4.8167    0.0000 O   0  0  0  0  0  0  0  0  0  0  0  0
    6.6667   -4.4167    0.0000 C   0  0  0  0  0  0  0  0  0  0  0  0
    6.0500   -5.5250    0.0000 C   0  0  0  0  0  0  0  0  0  0  0  0
    6.6667   -5.0917    0.0000 C   0  0  0  0  0  0  0  0  0  0  0  0
  2  1  1  0
  3  2  2  0
  4  1  2  0
  5  9  1  0
  6  8  2  0
  7  5  1  0
  8  4  1  0
  9 10  1  0
 10  3  1  0
 11  4  1  0
 12  1  1  0
 10 13  1  1
 14 12  1  0
 15  7  1  0
 16  7  1  0
 17  7  1  0
  6  3  1  0
M  END
> <chembl_id>
CHEMBL1002

> <chembl_pref_name>
LEVOSALBUTAMOL
