
     RDKit          2D

 40 44  0  0  0  0  0  0  0  0999 V2000
    7.7836    4.4585    0.0000 C   0  0  0  0  0  0  0  0  0  0  0  0
    7.3480    3.7579    0.0000 N   0  0  0  0  0  0  0  0  0  0  0  0
    7.7370    3.0303    0.0000 C   0  0  0  0  0  0  0  0  0  0  0  0
    7.3015    2.3297    0.0000 C   0  0  0  0  0  0  0  0  0  0  0  0
    7.6904    1.6021    0.0000 C   0  0  0  0  0  0  0  0  0  0  0  0
    7.2549    0.9015    0.0000 C   0  0  0  0  0  0  0  0  0  0  0  0
    6.4303    0.9284    0.0000 C   0  0  0  0  0  0  0  0  0  0  0  0
    6.0413    1.6559    0.0000 C   0  0  0  0  0  0  0  0  0  0  0  0
    6.4769    2.3566    0.0000 C   0  0  0  0  0  0  0  0  0  0  0  0
    5.9948    0.2277    0.0000 C   0  0  0  0  0  0  0  0  0  0  0  0
    6.3056   -0.5365    0.0000 C   0  0  0  0  0  0  0  0  0  0  0  0
    7.1146   -0.6981    0.0000 C   0  0  0  0  0  0  0  0  0  0  0  0
    7.4927   -1.4314    0.0000 C   0  0  0  0  0  0  0  0  0  0  0  0
    7.1551   -2.1841    0.0000 N   0  0  0  0  0  0  0  0  0  0  0  0
    6.3561   -2.3895    0.0000 C   0  0  0  0  0  0  0  0  0  0  0  0
    6.1945   -3.1986    0.0000 O   0  0  0  0  0  0  0  0  0  0  0  0
    5.6973   -1.8929    0.0000 C   0  0  0  0  0  0  0  0  0  0  0  0
    4.9204   -2.2818    0.0000 C   0  0  0  0  0  0  0  0  0  0  0  0
    4.2197   -1.8462    0.0000 C   0  0  0  0  0  0  0  0  0  0  0  0
    3.4922   -2.2352    0.0000 F   0  0  0  0  0  0  0  0  0  0  0  0
    4.2466   -1.0217    0.0000 C   0  0  0  0  0  0  0  0  0  0  0  0
    4.9742   -0.6327    0.0000 C   0  0  0  0  0  0  0  0  0  0  0  0
    5.1719    0.1683    0.0000 N   0  0  0  0  0  0  0  0  0  0  0  0
    5.6748   -1.0682    0.0000 C   0  0  0  0  0  0  0  0  0  0  0  0
   -0.5628   -1.7388    0.0000 H   0  0  0  0  0  0  0  0  0  0  0  0
   -0.5616   -0.9138    0.0000 C   0  0  0  0  0  0  0  0  0  0  0  0
   -1.3371   -1.3041    0.0000 C   0  0  0  0  0  0  0  0  0  0  0  0
   -0.9718   -0.6436    0.0000 C   0  0  0  0  0  0  0  0  0  0  0  0
   -0.3315   -0.1934    0.0000 C   0  0  0  0  0  0  0  0  0  0  0  0
    0.1851    0.6307    0.0000 C   0  0  0  0  0  0  0  0  0  0  0  0
    0.9252    0.8947    0.0000 S   0  0  0  0  0  0  0  0  0  0  0  0
    1.6949    1.1587    0.0000 O   0  0  0  0  0  0  0  0  0  0  0  0
    1.5428    0.3313    0.0000 O   0  0  0  0  0  0  0  0  0  0  0  0
    1.1327    1.8411    0.0000 O   0  0  0  0  0  0  0  0  0  0  0  0
    0.4640   -0.6587    0.0000 C   0  0  0  0  0  0  0  0  0  0  0  0
    1.2520   -0.4146    0.0000 O   0  0  0  0  0  0  0  0  0  0  0  0
    0.1689   -1.2841    0.0000 C   0  0  0  0  0  0  0  0  0  0  0  0
   -0.4915    0.6220    0.0000 C   0  0  0  0  0  0  0  0  0  0  0  0
   -0.1226    1.4649    0.0000 C   0  0  0  0  0  0  0  0  0  0  0  0
   -0.9534    1.3269    0.0000 C   0  0  0  0  0  0  0  0  0  0  0  0
  1  2  1  0
  2  3  1  0
  3  4  1  0
  4  5  2  0
  5  6  1  0
  6  7  2  0
  7  8  1  0
  8  9  2  0
  4  9  1  0
  7 10  1  0
 10 11  2  0
 11 12  1  0
 12 13  1  0
 13 14  1  0
 14 15  1  0
 15 16  2  0
 15 17  1  0
 17 18  2  0
 18 19  1  0
 19 20  1  0
 19 21  2  0
 21 22  1  0
 22 23  1  0
 10 23  1  0
 22 24  2  0
 11 24  1  0
 17 24  1  0
 26 25  1  6
 26 27  1  0
 27 28  1  0
 28 29  1  0
 29 30  1  1
 30 31  1  0
 31 32  1  0
 31 33  2  0
 31 34  2  0
 29 35  1  0
 35 36  2  0
 35 37  1  0
 26 37  1  0
 29 38  1  0
 26 38  1  0
 38 39  1  0
 38 40  1  0
M  END
> <chembl_id>
CHEMBL3833368

> <chembl_pref_name>
RUCAPARIB CAMSYLATE
