
     RDKit          2D

 16 17  0  0  0  0  0  0  0  0999 V2000
    3.0000   -6.0542    0.0000 C   0  0  0  0  0  0  0  0  0  0  0  0
    2.3792   -5.7000    0.0000 C   0  0  0  0  0  0  0  0  0  0  0  0
    3.0000   -6.7667    0.0000 C   0  0  0  0  0  0  0  0  0  0  0  0
    1.7667   -6.0542    0.0000 N   0  0  0  0  0  0  0  0  0  0  0  0
    2.3792   -7.1167    0.0000 N   0  0  0  0  0  0  0  0  0  0  0  0
    1.7667   -6.7667    0.0000 C   0  0  0  0  0  0  0  0  0  0  0  0
    3.3500   -5.4417    0.0000 C   0  0  0  0  0  0  0  0  0  0  0  0
    3.6125   -7.1167    0.0000 O   0  0  0  0  0  0  0  0  0  0  0  0
    2.3792   -4.9917    0.0000 O   0  0  0  0  0  0  0  0  0  0  0  0
    3.7042   -6.0167    0.0000 C   0  0  0  0  0  0  0  0  0  0  0  0
    3.0042   -4.8292    0.0000 C   0  0  0  0  0  0  0  0  0  0  0  0
    4.0625   -5.4417    0.0000 C   0  0  0  0  0  0  0  0  0  0  0  0
    4.0917   -6.6125    0.0000 C   0  0  0  0  0  0  0  0  0  0  0  0
    3.3542   -4.2125    0.0000 C   0  0  0  0  0  0  0  0  0  0  0  0
    4.4167   -4.8292    0.0000 C   0  0  0  0  0  0  0  0  0  0  0  0
    4.0667   -4.2125    0.0000 C   0  0  0  0  0  0  0  0  0  0  0  0
  2  1  1  0
  3  1  1  0
  4  2  1  0
  5  3  1  0
  6  5  1  0
  7  1  1  0
  8  3  2  0
  9  2  2  0
 10  1  1  0
 11  7  2  0
 12  7  1  0
 13 10  1  0
 14 11  1  0
 15 12  2  0
 16 15  1  0
  6  4  1  0
 16 14  2  0
M  END
> <chembl_id>
CHEMBL856

> <chembl_pref_name>
PRIMIDONE
