
     RDKit          2D

 29 27  0  0  0  0  0  0  0  0999 V2000
   -3.0583   -2.6667    0.0000 Na  0  0  0  0  0 15  0  0  0  0  0  0
   -1.5000   -1.6542    0.0000 S   0  0  0  0  0  0  0  0  0  0  0  0
   -0.8333   -1.2792    0.0000 C   0  0  0  0  0  0  0  0  0  0  0  0
   -0.8333   -0.5125    0.0000 C   0  0  0  0  0  0  0  0  0  0  0  0
   -0.1625   -1.6625    0.0000 C   0  0  0  0  0  0  0  0  0  0  0  0
   -0.1000   -0.2542    0.0000 C   0  0  0  0  0  0  0  0  0  0  0  0
   -1.0625   -2.2917    0.0000 O   0  0  0  0  0  0  0  0  0  0  0  0
   -2.0458   -1.1167    0.0000 O   0  0  0  0  0  0  0  0  0  0  0  0
   -2.0958   -2.1542    0.0000 O   0  0  0  0  0  0  0  0  0  0  0  0
    0.4792   -1.2792    0.0000 O   0  0  0  0  0  0  0  0  0  0  0  0
   -0.1625   -2.4375    0.0000 O   0  0  0  0  0  0  0  0  0  0  0  0
    0.5042   -0.7000    0.0000 O   0  0  0  0  0  0  0  0  0  0  0  0
   -0.1000    0.5083    0.0000 O   0  0  0  0  0  0  0  0  0  0  0  0
    1.1500   -1.6667    0.0000 C   0  0  0  0  0  0  0  0  0  0  0  0
    0.6042    0.7583    0.0000 C   0  0  0  0  0  0  0  0  0  0  0  0
    1.8125   -1.2792    0.0000 C   0  0  0  0  0  0  0  0  0  0  0  0
    0.6042    1.5250    0.0000 C   0  0  0  0  0  0  0  0  0  0  0  0
    1.8167   -0.5167    0.0000 C   0  0  0  0  0  0  0  0  0  0  0  0
   -0.0208    1.9708    0.0000 C   0  0  0  0  0  0  0  0  0  0  0  0
    1.3167    1.7708    0.0000 C   0  0  0  0  0  0  0  0  0  0  0  0
    2.4792   -1.6667    0.0000 C   0  0  0  0  0  0  0  0  0  0  0  0
    3.1500   -2.8250    0.0000 C   0  0  0  0  0  0  0  0  0  0  0  0
    2.0417    2.8375    0.0000 C   0  0  0  0  0  0  0  0  0  0  0  0
    1.3167    2.5625    0.0000 C   0  0  0  0  0  0  0  0  0  0  0  0
    2.4792   -2.4375    0.0000 C   0  0  0  0  0  0  0  0  0  0  0  0
    0.1917    2.7083    0.0000 C   0  0  0  0  0  0  0  0  0  0  0  0
    1.1500   -0.1292    0.0000 C   0  0  0  0  0  0  0  0  0  0  0  0
    3.1500   -3.5917    0.0000 C   0  0  0  0  0  0  0  0  0  0  0  0
    2.0250    3.5958    0.0000 C   0  0  0  0  0  0  0  0  0  0  0  0
  3  2  1  0
  4  3  1  0
  5  3  1  0
  6  4  1  0
  7  2  1  0
  8  2  2  0
  9  2  2  0
 10  5  1  0
 11  5  2  0
 12  6  2  0
 13  6  1  0
 14 10  1  0
 15 13  1  0
 16 14  1  0
 17 15  1  0
 18 16  1  0
 19 17  1  0
 20 17  1  0
 21 16  1  0
 22 25  1  0
 23 24  1  0
 24 20  1  0
 25 21  1  0
 26 19  1  0
 27 18  1  0
 28 22  1  0
 29 23  1  0
M  CHG  2   1   1   7  -1
M  END
> <chembl_id>
CHEMBL1905872

> <chembl_pref_name>
DOCUSATE SODIUM
