
     RDKit          2D

 53 58  0  0  0  0  0  0  0  0999 V2000
    9.9393    2.0286    0.0000 S   0  0  0  0  0  0  0  0  0  0  0  0
    3.6494   -1.5168    0.0000 S   0  0  0  0  0  0  0  0  0  0  0  0
   10.0855    2.8405    0.0000 O   0  0  0  0  0  0  0  0  0  0  0  0
    9.1274    2.1748    0.0000 O   0  0  0  0  0  0  0  0  0  0  0  0
   10.7512    1.8824    0.0000 O   0  0  0  0  0  0  0  0  0  0  0  0
    2.8731   -1.7961    0.0000 O   0  0  0  0  0  0  0  0  0  0  0  0
    3.3700   -0.7406    0.0000 O   0  0  0  0  0  0  0  0  0  0  0  0
    3.9287   -2.2931    0.0000 O   0  0  0  0  0  0  0  0  0  0  0  0
    7.9480   -0.9658    0.0000 N   0  0  0  0  0  0  0  0  0  0  0  0
    3.4581    1.4516    0.0000 N   0  0  0  0  0  0  0  0  0  0  0  0
    7.3170   -2.1422    0.0000 C   0  0  0  0  0  0  0  0  0  0  0  0
    8.1289   -2.2884    0.0000 C   0  0  0  0  0  0  0  0  0  0  0  0
    2.7548    2.5862    0.0000 C   0  0  0  0  0  0  0  0  0  0  0  0
    2.2222    1.9562    0.0000 C   0  0  0  0  0  0  0  0  0  0  0  0
    8.5189   -1.5614    0.0000 C   0  0  0  0  0  0  0  0  0  0  0  0
    2.6568    1.2549    0.0000 C   0  0  0  0  0  0  0  0  0  0  0  0
    7.2052   -1.3248    0.0000 C   0  0  0  0  0  0  0  0  0  0  0  0
    3.5186    2.2744    0.0000 C   0  0  0  0  0  0  0  0  0  0  0  0
    8.5635   -2.9896    0.0000 C   0  0  0  0  0  0  0  0  0  0  0  0
    1.3976    1.9304    0.0000 C   0  0  0  0  0  0  0  0  0  0  0  0
    9.3881   -2.9639    0.0000 C   0  0  0  0  0  0  0  0  0  0  0  0
    1.0076    1.2034    0.0000 C   0  0  0  0  0  0  0  0  0  0  0  0
    9.3435   -1.5356    0.0000 C   0  0  0  0  0  0  0  0  0  0  0  0
    2.2669    0.5279    0.0000 C   0  0  0  0  0  0  0  0  0  0  0  0
    6.4782   -0.9348    0.0000 C   0  0  0  0  0  0  0  0  0  0  0  0
    4.2199    2.7090    0.0000 C   0  0  0  0  0  0  0  0  0  0  0  0
    9.7781   -2.2369    0.0000 C   0  0  0  0  0  0  0  0  0  0  0  0
    1.4423    0.5022    0.0000 C   0  0  0  0  0  0  0  0  0  0  0  0
    7.0784   -2.9319    0.0000 C   0  0  0  0  0  0  0  0  0  0  0  0
    6.5179   -2.3472    0.0000 C   0  0  0  0  0  0  0  0  0  0  0  0
    2.1902    3.1877    0.0000 C   0  0  0  0  0  0  0  0  0  0  0  0
    2.9769    3.3808    0.0000 C   0  0  0  0  0  0  0  0  0  0  0  0
    8.0943   -0.1539    0.0000 C   0  0  0  0  0  0  0  0  0  0  0  0
    4.0881    0.9190    0.0000 C   0  0  0  0  0  0  0  0  0  0  0  0
    8.1736   -3.7166    0.0000 C   0  0  0  0  0  0  0  0  0  0  0  0
    0.9630    2.6317    0.0000 C   0  0  0  0  0  0  0  0  0  0  0  0
    9.8227   -3.6651    0.0000 C   0  0  0  0  0  0  0  0  0  0  0  0
    0.1830    1.1777    0.0000 C   0  0  0  0  0  0  0  0  0  0  0  0
    8.6082   -4.4179    0.0000 C   0  0  0  0  0  0  0  0  0  0  0  0
    0.1384    2.6059    0.0000 C   0  0  0  0  0  0  0  0  0  0  0  0
    6.4524   -0.1102    0.0000 C   0  0  0  0  0  0  0  0  0  0  0  0
    4.9469    2.3190    0.0000 C   0  0  0  0  0  0  0  0  0  0  0  0
    9.4328   -4.3921    0.0000 C   0  0  0  0  0  0  0  0  0  0  0  0
   -0.2516    1.8789    0.0000 C   0  0  0  0  0  0  0  0  0  0  0  0
    8.8705    0.1254    0.0000 C   0  0  0  0  0  0  0  0  0  0  0  0
    3.9419    0.1070    0.0000 C   0  0  0  0  0  0  0  0  0  0  0  0
    5.7254    0.2798    0.0000 C   0  0  0  0  0  0  0  0  0  0  0  0
    4.9726    1.4944    0.0000 C   0  0  0  0  0  0  0  0  0  0  0  0
    9.0168    0.9373    0.0000 C   0  0  0  0  0  0  0  0  0  0  0  0
    4.5719   -0.4256    0.0000 C   0  0  0  0  0  0  0  0  0  0  0  0
    5.6996    1.1044    0.0000 C   0  0  0  0  0  0  0  0  0  0  0  0
    9.7930    1.2167    0.0000 C   0  0  0  0  0  0  0  0  0  0  0  0
    4.4256   -1.2375    0.0000 C   0  0  0  0  0  0  0  0  0  0  0  0
  1  3  1  0
  1  4  2  0
  1  5  2  0
  1 52  1  0
  2  6  1  0
  2  7  2  0
  2  8  2  0
  2 53  1  0
  9 15  1  0
  9 17  2  0
  9 33  1  0
 10 16  1  0
 10 18  1  0
 10 34  1  0
 11 12  1  0
 11 17  1  0
 11 29  1  0
 11 30  1  0
 12 15  1  0
 12 19  2  0
 13 14  1  0
 13 18  1  0
 13 31  1  0
 13 32  1  0
 14 16  1  0
 14 20  2  0
 15 23  2  0
 16 24  2  0
 17 25  1  0
 18 26  2  0
 19 21  1  0
 19 35  1  0
 20 22  1  0
 20 36  1  0
 21 27  2  0
 21 37  1  0
 22 28  2  0
 22 38  1  0
 23 27  1  0
 24 28  1  0
 25 41  2  0
 26 42  1  0
 33 45  1  0
 34 46  1  0
 35 39  2  0
 36 40  2  0
 37 43  2  0
 38 44  2  0
 39 43  1  0
 40 44  1  0
 41 47  1  0
 42 48  2  0
 45 49  1  0
 46 50  1  0
 47 51  2  0
 48 51  1  0
 49 52  1  0
 50 53  1  0
M  CHG  2   3  -1   9   1
M  END
> <chembl_id>
CHEMBL1201304

> <chembl_pref_name>
INDOCYANINE GREEN ACID FORM
