
     RDKit          2D

 33 36  0  0  0  0  0  0  0  0999 V2000
   -6.8368  -59.4227    0.0000 C   0  0  0  0  0  0  0  0  0  0  0  0
   -7.5513  -59.8352    0.0000 C   0  0  0  0  0  0  0  0  0  0  0  0
   -7.5513  -60.6602    0.0000 C   0  0  0  0  0  0  0  0  0  0  0  0
   -6.8368  -61.0727    0.0000 C   0  0  0  0  0  0  0  0  0  0  0  0
   -6.1223  -60.6602    0.0000 C   0  0  0  0  0  0  0  0  0  0  0  0
   -6.1223  -59.8352    0.0000 C   0  0  0  0  0  0  0  0  0  0  0  0
   -5.3378  -60.9151    0.0000 N   0  0  0  0  0  0  0  0  0  0  0  0
   -4.8528  -60.2477    0.0000 C   0  0  0  0  0  0  0  0  0  0  0  0
   -5.3377  -59.5803    0.0000 C   0  0  0  0  0  0  0  0  0  0  0  0
   -4.0278  -60.2477    0.0000 O   0  0  0  0  0  0  0  0  0  0  0  0
   -5.0828  -61.6998    0.0000 C   0  0  0  0  0  0  0  0  0  0  0  0
   -4.2759  -61.8713    0.0000 O   0  0  0  0  0  0  0  0  0  0  0  0
   -5.6349  -62.3129    0.0000 C   0  0  0  0  0  0  0  0  0  0  0  0
   -5.7502  -58.8658    0.0000 C   0  0  0  0  0  0  0  0  0  0  0  0
   -4.6232  -59.1678    0.0000 C   0  0  0  0  0  0  0  0  0  0  0  0
   -3.9088  -59.5803    0.0000 C   0  0  0  0  0  0  0  0  0  0  0  0
   -3.1943  -59.1678    0.0000 C   0  0  0  0  0  0  0  0  0  0  0  0
   -3.1943  -58.3428    0.0000 C   0  0  0  0  0  0  0  0  0  0  0  0
   -3.9088  -57.9303    0.0000 C   0  0  0  0  0  0  0  0  0  0  0  0
   -4.6233  -58.3428    0.0000 C   0  0  0  0  0  0  0  0  0  0  0  0
   -5.3377  -58.1513    0.0000 C   0  0  0  0  0  0  0  0  0  0  0  0
   -5.7502  -57.4369    0.0000 C   0  0  0  0  0  0  0  0  0  0  0  0
   -6.5752  -57.4369    0.0000 C   0  0  0  0  0  0  0  0  0  0  0  0
   -6.9877  -58.1514    0.0000 C   0  0  0  0  0  0  0  0  0  0  0  0
   -6.5752  -58.8658    0.0000 C   0  0  0  0  0  0  0  0  0  0  0  0
   -6.9877  -56.7224    0.0000 O   0  0  0  0  0  0  0  0  0  0  0  0
   -7.8127  -56.7224    0.0000 C   0  0  0  0  0  0  0  0  0  0  0  0
   -8.2252  -56.0079    0.0000 C   0  0  0  0  0  0  0  0  0  0  0  0
   -8.2252  -57.4369    0.0000 O   0  0  0  0  0  0  0  0  0  0  0  0
   -2.4798  -57.9303    0.0000 O   0  0  0  0  0  0  0  0  0  0  0  0
   -1.7654  -58.3428    0.0000 C   0  0  0  0  0  0  0  0  0  0  0  0
   -1.0509  -57.9303    0.0000 C   0  0  0  0  0  0  0  0  0  0  0  0
   -1.7654  -59.1678    0.0000 O   0  0  0  0  0  0  0  0  0  0  0  0
  1  2  1  0
  1  6  2  0
  2  3  2  0
  3  4  1  0
  4  5  2  0
  5  7  1  0
  6  5  1  0
  6  9  1  0
  7  8  1  0
  8  9  1  0
  8 10  2  0
  7 11  1  0
 11 12  2  0
 11 13  1  0
  9 14  1  0
  9 15  1  0
 15 16  1  0
 15 20  2  0
 16 17  2  0
 17 18  1  0
 18 19  2  0
 19 20  1  0
 14 21  1  0
 14 25  2  0
 21 22  2  0
 22 23  1  0
 23 24  2  0
 24 25  1  0
 23 26  1  0
 26 27  1  0
 27 28  1  0
 27 29  2  0
 18 30  1  0
 30 31  1  0
 31 32  1  0
 31 33  2  0
M  END
> <chembl_id>
CHEMBL1909288

> <chembl_pref_name>
TRIACETYLDIPHENOLISATIN
