
     RDKit          2D

 34 36  0  0  0  0  0  0  0  0999 V2000
    6.3667   -6.7042    0.0000 C   0  0  0  0  0  0  0  0  0  0  0  0
    6.3667   -5.2875    0.0000 C   0  0  0  0  0  0  0  0  0  0  0  0
    5.7542   -6.3625    0.0000 C   0  0  0  0  0  0  0  0  0  0  0  0
    5.7542   -5.6500    0.0000 C   0  0  0  0  0  0  0  0  0  0  0  0
    6.3542   -4.5792    0.0000 O   0  0  0  0  0  0  0  0  0  0  0  0
    6.3667   -7.4167    0.0000 O   0  0  0  0  0  0  0  0  0  0  0  0
    6.9792   -6.3542    0.0000 O   0  0  0  0  0  0  0  0  0  0  0  0
    6.9875   -5.6417    0.0000 O   0  0  0  0  0  0  0  0  0  0  0  0
    2.6542   -6.0500    0.0000 C   0  0  0  0  0  0  0  0  0  0  0  0
    2.6667   -7.4750    0.0000 C   0  0  0  0  0  0  0  0  0  0  0  0
    3.2542   -6.3917    0.0000 C   0  0  0  0  0  0  0  0  0  0  0  0
    2.6250   -5.3500    0.0000 C   0  0  0  0  0  0  0  0  0  0  0  0
    2.0292   -6.4042    0.0000 C   0  0  0  0  0  0  0  0  0  0  0  0
    3.2167   -5.0042    0.0000 C   0  0  0  0  0  0  0  0  0  0  0  0
    3.8542   -6.0417    0.0000 N   0  0  0  0  0  0  0  0  0  0  0  0
    2.0417   -7.1125    0.0000 C   0  0  0  0  0  0  0  0  0  0  0  0
    3.1750   -4.2667    0.0000 C   0  0  0  0  0  0  0  0  0  0  0  0
    3.2667   -7.1167    0.0000 C   0  0  0  0  0  0  0  0  0  0  0  0
    2.5042   -8.1542    0.0000 C   0  0  0  0  0  0  0  0  0  0  0  0
    1.6042   -8.1542    0.0000 N   0  0  0  0  0  0  0  0  0  0  0  0
    3.8417   -5.3625    0.0000 C   0  0  0  0  0  0  0  0  0  0  0  0
    3.7542   -3.8542    0.0000 N   0  0  0  0  0  0  0  0  0  0  0  0
    1.4417   -7.5167    0.0000 C   0  0  0  0  0  0  0  0  0  0  0  0
    2.5375   -3.9625    0.0000 O   0  0  0  0  0  0  0  0  0  0  0  0
    1.4250   -6.0625    0.0000 C   0  0  0  0  0  0  0  0  0  0  0  0
    4.4667   -6.3667    0.0000 C   0  0  0  0  0  0  0  0  0  0  0  0
    3.7167   -3.1792    0.0000 C   0  0  0  0  0  0  0  0  0  0  0  0
    4.9167   -3.1292    0.0000 O   0  0  0  0  0  0  0  0  0  0  0  0
    0.8042   -6.4042    0.0000 C   0  0  0  0  0  0  0  0  0  0  0  0
    0.8042   -7.1292    0.0000 C   0  0  0  0  0  0  0  0  0  0  0  0
    4.3250   -2.7917    0.0000 C   0  0  0  0  0  0  0  0  0  0  0  0
    3.0750   -2.8667    0.0000 C   0  0  0  0  0  0  0  0  0  0  0  0
    2.4875   -3.2750    0.0000 C   0  0  0  0  0  0  0  0  0  0  0  0
    3.7667   -6.7667    0.0000 H   0  0  0  0  0  0  0  0  0  0  0  0
  2  4  1  0
  3  1  1  0
  4  3  2  0
  5  2  2  0
  6  1  2  0
  7  1  1  0
  8  2  1  0
 10 16  1  0
 11  9  1  0
 12  9  2  0
 13  9  1  0
 14 12  1  0
 15 11  1  0
 16 13  1  0
 14 17  1  1
 18 11  1  0
 19 10  2  0
 20 23  1  0
 21 14  1  0
 22 17  1  0
 23 16  2  0
 24 17  2  0
 25 13  2  0
 26 15  1  0
 27 22  1  0
 28 31  1  0
 29 25  1  0
 30 29  2  0
 31 27  1  0
 27 32  1  1
 33 32  1  0
 11 34  1  1
 18 10  1  0
 21 15  1  0
 30 23  1  0
 20 19  1  0
M  END
> <chembl_id>
CHEMBL1200843

> <chembl_pref_name>
METHYLERGONOVINE MALEATE
