
     RDKit          2D

  7  4  0  0  0  0  0  0  0  0999 V2000
    3.8667   -3.6250    0.0000 K   0  0  0  0  0 15  0  0  0  0  0  0
    2.6083   -4.2667    0.0000 P   0  0  0  0  0  0  0  0  0  0  0  0
    3.2208   -4.6250    0.0000 O   0  0  0  0  0  0  0  0  0  0  0  0
    2.9542   -3.6500    0.0000 O   0  0  0  0  0  0  0  0  0  0  0  0
    2.2500   -3.6500    0.0000 O   0  0  0  0  0  0  0  0  0  0  0  0
    1.9917   -4.6250    0.0000 O   0  0  0  0  0  0  0  0  0  0  0  0
    3.8667   -4.7167    0.0000 K   0  0  0  0  0 15  0  0  0  0  0  0
  3  2  1  0
  4  2  1  0
  5  2  2  0
  6  2  1  0
M  CHG  4   1   1   3  -1   4  -1   7   1
M  END
> <chembl_id>
CHEMBL1200459

> <chembl_pref_name>
POTASSIUM PHOSPHATE, DIBASIC
