
     RDKit          2D

 36 40  0  0  1  0  0  0  0  0999 V2000
    2.0000   -0.2792    0.0000 C   0  0  0  0  0  0  0  0  0  0  0  0
    0.9625   -0.5042    0.0000 C   0  0  0  0  0  0  0  0  0  0  0  0
    0.9625   -1.4750    0.0000 C   0  0  0  0  0  0  0  0  0  0  0  0
   -1.5375   -1.9542    0.0000 C   0  0  0  0  0  0  0  0  0  0  0  0
    2.5667    0.4958    0.0000 N   0  0  0  0  0  0  0  0  0  0  0  0
    0.1292   -1.9542    0.0000 C   0  0  0  0  0  0  0  0  0  0  0  0
    2.4375   -0.9875    0.0000 C   0  0  0  0  0  0  0  0  0  0  0  0
   -0.7083   -1.4750    0.0000 C   0  0  0  0  0  0  0  0  0  0  0  0
   -1.5375   -2.9167    0.0000 C   0  0  0  0  0  0  0  0  0  0  0  0
    0.1167   -0.0292    0.0000 C   0  0  0  0  0  0  0  0  0  0  0  0
   -0.7083   -0.5042    0.0000 C   0  0  0  0  0  0  0  0  0  0  0  0
   -2.3708   -1.4750    0.0000 C   0  0  0  0  0  0  0  0  0  0  0  0
    3.4792   -0.7542    0.0000 O   0  0  0  0  0  0  0  0  0  0  0  0
    1.8792   -1.7667    0.0000 C   0  0  0  0  0  0  0  0  0  0  0  0
    3.4875    0.1833    0.0000 C   0  0  0  0  0  0  0  0  0  0  0  0
    1.2750    0.9708    0.0000 C   0  0  0  0  0  0  0  0  0  0  0  0
   -2.3708   -3.4000    0.0000 C   0  0  0  0  0  0  0  0  0  0  0  0
    0.1292   -2.9167    0.0000 C   0  0  0  0  0  0  0  0  0  0  0  0
   -3.2000   -1.9542    0.0000 C   0  0  0  0  0  0  0  0  0  0  0  0
   -3.2000   -2.9167    0.0000 C   0  0  0  0  0  0  0  0  0  0  0  0
   -0.7083   -3.4000    0.0000 C   0  0  0  0  0  0  0  0  0  0  0  0
    3.1792    2.6500    0.0000 C   0  0  0  0  0  0  0  0  0  0  0  0
    1.7500    1.8083    0.0000 C   0  0  0  0  0  0  0  0  0  0  0  0
    0.3125    0.9625    0.0000 O   0  0  0  0  0  0  0  0  0  0  0  0
    2.7042    1.8083    0.0000 O   0  0  0  0  0  0  0  0  0  0  0  0
    2.7000    3.4833    0.0000 O   0  0  0  0  0  0  0  0  0  0  0  0
   -4.0458   -3.4125    0.0000 O   0  0  0  0  0  0  0  0  0  0  0  0
    0.9375    0.3000    0.0000 C   0  0  0  0  0  0  0  0  0  0  0  0
   -1.5458   -0.0125    0.0000 O   0  0  0  0  0  0  0  0  0  0  0  0
   -1.5375   -0.9875    0.0000 C   0  0  0  0  0  0  0  0  0  0  0  0
    4.1625    0.8125    0.0000 C   0  0  0  0  0  0  0  0  0  0  0  0
    4.1417    2.6583    0.0000 C   0  0  0  0  0  0  0  0  0  0  0  0
    3.0125   -1.7667    0.0000 H   0  0  0  0  0  0  0  0  0  0  0  0
    0.9792   -2.5000    0.0000 H   0  0  0  0  0  0  0  0  0  0  0  0
    0.1292   -0.9875    0.0000 H   0  0  0  0  0  0  0  0  0  0  0  0
   -0.7083   -2.4417    0.0000 H   0  0  0  0  0  0  0  0  0  0  0  0
  2  1  1  0
  3  2  1  0
  4  8  1  0
  5  1  1  0
  6  3  1  0
  7  1  1  0
  8 11  1  0
  9  4  1  0
 10  2  1  0
 11 10  1  0
 12  4  1  0
 13  7  1  0
 14  7  1  0
 15  5  2  0
  1 16  1  1
 17  9  2  0
 18  6  1  0
 19 12  2  0
 20 19  1  0
 21 18  1  0
 22 25  1  0
 23 16  1  0
 24 16  2  0
 25 23  1  0
 26 22  2  0
 27 20  2  0
  2 28  1  1
 11 29  1  1
  4 30  1  1
 31 15  1  0
 32 22  1  0
  7 33  1  1
  3 34  1  6
  6 35  1  1
  8 36  1  6
  3 14  1  0
 13 15  1  0
  6  8  1  0
 21  9  1  0
 17 20  1  0
M  END
> <chembl_id>
CHEMBL1201891

> <chembl_pref_name>
DEFLAZACORT
