
     RDKit          2D

 31 33  0  0  0  0  0  0  0  0999 V2000
   -3.3919   -9.8538    0.0000 C   0  0  0  0  0  0  0  0  0  0  0  0
   -4.1064  -10.2663    0.0000 C   0  0  0  0  0  0  0  0  0  0  0  0
   -4.1064  -11.0913    0.0000 C   0  0  0  0  0  0  0  0  0  0  0  0
   -3.3919  -11.5038    0.0000 C   0  0  0  0  0  0  0  0  0  0  0  0
   -2.6774  -11.0913    0.0000 C   0  0  0  0  0  0  0  0  0  0  0  0
   -2.6774  -10.2663    0.0000 C   0  0  0  0  0  0  0  0  0  0  0  0
   -4.8209   -9.8538    0.0000 F   0  0  0  0  0  0  0  0  0  0  0  0
   -1.9629  -11.5038    0.0000 C   0  0  0  0  0  0  0  0  0  0  0  0
   -1.2484  -11.0913    0.0000 N   0  0  0  0  0  0  0  0  0  0  0  0
   -0.5340  -11.5038    0.0000 C   0  0  0  0  0  0  0  0  0  0  0  0
    0.1805  -11.0913    0.0000 N   0  0  0  0  0  0  0  0  0  0  0  0
   -0.5340  -12.3288    0.0000 O   0  0  0  0  0  0  0  0  0  0  0  0
   -1.2484  -10.2663    0.0000 C   0  0  0  0  0  0  0  0  0  0  0  0
   -0.5340   -9.8538    0.0000 C   0  0  0  0  0  0  0  0  0  0  0  0
   -0.5340   -9.0288    0.0000 C   0  0  0  0  0  0  0  0  0  0  0  0
   -1.2484   -8.6163    0.0000 N   0  0  0  0  0  0  0  0  0  0  0  0
   -1.9629   -9.0288    0.0000 C   0  0  0  0  0  0  0  0  0  0  0  0
   -1.9629   -9.8538    0.0000 C   0  0  0  0  0  0  0  0  0  0  0  0
   -1.2484   -7.7913    0.0000 C   0  0  0  0  0  0  0  0  0  0  0  0
    0.8950  -11.5038    0.0000 C   0  0  0  0  0  0  0  0  0  0  0  0
    1.6094  -11.0913    0.0000 C   0  0  0  0  0  0  0  0  0  0  0  0
    2.3238  -11.5039    0.0000 C   0  0  0  0  0  0  0  0  0  0  0  0
    3.0383  -11.0914    0.0000 C   0  0  0  0  0  0  0  0  0  0  0  0
    3.0384  -10.2663    0.0000 C   0  0  0  0  0  0  0  0  0  0  0  0
    2.3239   -9.8538    0.0000 C   0  0  0  0  0  0  0  0  0  0  0  0
    1.6094  -10.2663    0.0000 C   0  0  0  0  0  0  0  0  0  0  0  0
    3.7529   -9.8539    0.0000 O   0  0  0  0  0  0  0  0  0  0  0  0
    4.4672  -10.2664    0.0000 C   0  0  0  0  0  0  0  0  0  0  0  0
    5.1817   -9.8539    0.0000 C   0  0  0  0  0  0  0  0  0  0  0  0
    5.8962  -10.2664    0.0000 C   0  0  0  0  0  0  0  0  0  0  0  0
    5.1818   -9.0289    0.0000 C   0  0  0  0  0  0  0  0  0  0  0  0
  1  2  1  0
  1  6  2  0
  2  3  2  0
  2  7  1  0
  3  4  1  0
  4  5  2  0
  5  6  1  0
  5  8  1  0
  8  9  1  0
  9 10  1  0
  9 13  1  0
 10 11  1  0
 10 12  2  0
 11 20  1  0
 13 14  1  0
 18 13  1  0
 14 15  1  0
 15 16  1  0
 16 17  1  0
 16 19  1  0
 17 18  1  0
 20 21  1  0
 21 22  1  0
 21 26  2  0
 22 23  2  0
 23 24  1  0
 24 25  2  0
 24 27  1  0
 25 26  1  0
 27 28  1  0
 28 29  1  0
 29 30  1  0
 29 31  1  0
M  END
> <chembl_id>
CHEMBL2111101

> <chembl_pref_name>
PIMAVANSERIN
