
     RDKit          2D

 17 18  0  0  0  0  0  0  0  0999 V2000
   -1.5458   -2.0375    0.0000 C   0  0  0  0  0  0  0  0  0  0  0  0
   -0.6750   -3.0167    0.0000 N   0  0  0  0  0  0  0  0  0  0  0  0
    0.5292   -2.4917    0.0000 N   0  0  0  0  0  0  0  0  0  0  0  0
    0.4042   -1.1917    0.0000 N   0  0  0  0  0  0  0  0  0  0  0  0
   -0.8750   -0.9042    0.0000 C   0  0  0  0  0  0  0  0  0  0  0  0
    1.3917    0.9833    0.0000 C   0  0  0  0  0  0  0  0  0  0  0  0
   -2.8458   -2.1542    0.0000 C   0  0  0  0  0  0  0  0  0  0  0  0
    1.4000   -0.2625    0.0000 C   0  0  0  0  0  0  0  0  0  0  0  0
    0.2667    1.6333    0.0000 C   0  0  0  0  0  0  0  0  0  0  0  0
    2.5292    1.6333    0.0000 C   0  0  0  0  0  0  0  0  0  0  0  0
   -3.3833   -3.3542    0.0000 O   0  0  0  0  0  0  0  0  0  0  0  0
   -3.5958   -1.1000    0.0000 N   0  0  0  0  0  0  0  0  0  0  0  0
    3.6625    0.9708    0.0000 F   0  0  0  0  0  0  0  0  0  0  0  0
   -0.8708    0.9833    0.0000 F   0  0  0  0  0  0  0  0  0  0  0  0
    1.4042    3.5958    0.0000 C   0  0  0  0  0  0  0  0  0  0  0  0
    2.5375    2.9333    0.0000 C   0  0  0  0  0  0  0  0  0  0  0  0
    0.2750    2.9458    0.0000 C   0  0  0  0  0  0  0  0  0  0  0  0
  2  1  1  0
  3  2  2  0
  4  5  1  0
  5  1  2  0
  6  8  1  0
  7  1  1  0
  8  4  1  0
  9  6  1  0
 10  6  2  0
 11  7  2  0
 12  7  1  0
 13 10  1  0
 14  9  1  0
 15 16  2  0
 16 10  1  0
 17  9  2  0
  4  3  1  0
 17 15  1  0
M  END
> <chembl_id>
CHEMBL1201754

> <chembl_pref_name>
RUFINAMIDE
