
     RDKit          2D

 22 23  0  0  0  0  0  0  0  0999 V2000
    4.1167   -6.5917    0.0000 Cl  0  0  0  0  0  0  0  0  0  0  0  0
    5.4167   -5.1875    0.0000 C   0  0  0  0  0  0  0  0  0  0  0  0
    2.9667   -5.9292    0.0000 N   0  0  0  0  0  0  0  0  0  0  0  0
    4.8000   -4.8375    0.0000 O   0  0  0  0  0  0  0  0  0  0  0  0
    6.0292   -4.8167    0.0000 C   0  0  0  0  0  0  0  0  0  0  0  0
    5.4167   -5.8875    0.0000 C   0  0  0  0  0  0  0  0  0  0  0  0
    4.1917   -5.1917    0.0000 C   0  0  0  0  0  0  0  0  0  0  0  0
    3.5667   -4.8542    0.0000 C   0  0  0  0  0  0  0  0  0  0  0  0
    4.1917   -5.9042    0.0000 C   0  0  0  0  0  0  0  0  0  0  0  0
    2.9542   -5.2167    0.0000 C   0  0  0  0  0  0  0  0  0  0  0  0
    3.5792   -6.2667    0.0000 C   0  0  0  0  0  0  0  0  0  0  0  0
    2.3542   -6.2917    0.0000 C   0  0  0  0  0  0  0  0  0  0  0  0
    6.0417   -6.2375    0.0000 C   0  0  0  0  0  0  0  0  0  0  0  0
    4.8167   -6.2500    0.0000 C   0  0  0  0  0  0  0  0  0  0  0  0
    6.0167   -4.1125    0.0000 C   0  0  0  0  0  0  0  0  0  0  0  0
    6.6500   -5.1625    0.0000 C   0  0  0  0  0  0  0  0  0  0  0  0
    7.2542   -4.7917    0.0000 C   0  0  0  0  0  0  0  0  0  0  0  0
    6.0542   -6.9500    0.0000 C   0  0  0  0  0  0  0  0  0  0  0  0
    4.8292   -6.9625    0.0000 C   0  0  0  0  0  0  0  0  0  0  0  0
    6.6292   -3.7417    0.0000 C   0  0  0  0  0  0  0  0  0  0  0  0
    5.4500   -7.3125    0.0000 C   0  0  0  0  0  0  0  0  0  0  0  0
    7.2542   -4.0917    0.0000 C   0  0  0  0  0  0  0  0  0  0  0  0
  3 11  1  0
  4  2  1  0
  5  2  1  0
  6  2  1  0
  7  4  1  0
  8  7  1  0
  9  7  1  0
 10  8  1  0
 11  9  1  0
 12  3  1  0
 13  6  1  0
 14  6  2  0
 15  5  1  0
 16  5  2  0
 17 16  1  0
 18 13  2  0
 19 14  1  0
 20 15  2  0
 21 19  2  0
 22 20  1  0
 21 18  1  0
 22 17  2  0
  3 10  1  0
M  END
> <chembl_id>
CHEMBL1564

> <chembl_pref_name>
DIPHENYLPYRALINE HYDROCHLORIDE
