
     RDKit          2D

 27 30  0  0  0  0  0  0  0  0999 V2000
   -0.3083    1.9000    0.0000 N   0  0  0  0  0  0  0  0  0  0  0  0
   -1.0583    1.4083    0.0000 C   0  0  0  0  0  0  0  0  0  0  0  0
   -0.5458    2.7708    0.0000 C   0  0  0  0  0  0  0  0  0  0  0  0
   -1.4500    2.8125    0.0000 C   0  0  0  0  0  0  0  0  0  0  0  0
   -1.7625    1.9583    0.0000 C   0  0  0  0  0  0  0  0  0  0  0  0
   -1.0583    0.4833    0.0000 O   0  0  0  0  0  0  0  0  0  0  0  0
   -1.8458    0.0458    0.0000 C   0  0  0  0  0  0  0  0  0  0  0  0
    0.5625    1.6083    0.0000 C   0  0  0  0  0  0  0  0  0  0  0  0
   -1.8458   -0.8542    0.0000 N   0  0  0  0  0  0  0  0  0  0  0  0
    0.6000    0.7083    0.0000 N   0  0  0  0  0  0  0  0  0  0  0  0
   -2.0083    3.4875    0.0000 N   0  0  0  0  0  0  0  0  0  0  0  0
   -2.6458    1.8208    0.0000 N   0  0  0  0  0  0  0  0  0  0  0  0
   -1.8500   -2.6792    0.0000 N   0  0  0  0  0  0  0  0  0  0  0  0
    0.0125    3.4875    0.0000 O   0  0  0  0  0  0  0  0  0  0  0  0
   -2.6208    0.5000    0.0000 O   0  0  0  0  0  0  0  0  0  0  0  0
   -1.0625   -1.3167    0.0000 C   0  0  0  0  0  0  0  0  0  0  0  0
   -2.6333   -1.3167    0.0000 C   0  0  0  0  0  0  0  0  0  0  0  0
    1.3167    2.0958    0.0000 C   0  0  0  0  0  0  0  0  0  0  0  0
   -1.0625   -2.2250    0.0000 C   0  0  0  0  0  0  0  0  0  0  0  0
   -2.6208   -2.2167    0.0000 C   0  0  0  0  0  0  0  0  0  0  0  0
    1.4000    0.2833    0.0000 C   0  0  0  0  0  0  0  0  0  0  0  0
    2.1625    0.7708    0.0000 C   0  0  0  0  0  0  0  0  0  0  0  0
    2.1292    1.6875    0.0000 C   0  0  0  0  0  0  0  0  0  0  0  0
    2.9792    0.3083    0.0000 Cl  0  0  0  0  0  0  0  0  0  0  0  0
   -1.8458   -3.5917    0.0000 C   0  0  0  0  0  0  0  0  0  0  0  0
   -2.9208    3.3458    0.0000 C   0  0  0  0  0  0  0  0  0  0  0  0
   -3.2333    2.5083    0.0000 C   0  0  0  0  0  0  0  0  0  0  0  0
  2  1  1  0
  3  1  1  0
  4  3  1  0
  5  2  1  0
  6  2  1  0
  7  6  1  0
  8  1  1  0
  9  7  1  0
 10  8  2  0
 11  4  1  0
 12  5  1  0
 13 20  1  0
 14  3  2  0
 15  7  2  0
 16  9  1  0
 17  9  1  0
 18  8  1  0
 19 16  1  0
 20 17  1  0
 21 10  1  0
 22 23  1  0
 23 18  2  0
 24 22  1  0
 25 13  1  0
 26 11  2  0
 27 12  2  0
  5  4  2  0
 21 22  2  0
 27 26  1  0
 19 13  1  0
M  END
> <chembl_id>
CHEMBL135400

> <chembl_pref_name>
ZOPICLONE
