
     RDKit          2D

 23 26  0  0  0  0  0  0  0  0999 V2000
    8.9610  -14.2763    0.0000 C   0  0  0  0  0  0  0  0  0  0  0  0
    9.7561  -14.0715    0.0000 C   0  0  0  0  0  0  0  0  0  0  0  0
    8.6232  -15.0326    0.0000 C   0  0  0  0  0  0  0  0  0  0  0  0
    9.0079  -15.7655    0.0000 O   0  0  0  0  0  0  0  0  0  0  0  0
   10.4145  -14.5618    0.0000 C   0  0  0  0  0  0  0  0  0  0  0  0
   11.8718  -15.3337    0.0000 C   0  0  0  0  0  0  0  0  0  0  0  0
   11.8411  -14.5088    0.0000 C   0  0  0  0  0  0  0  0  0  0  0  0
   11.1102  -14.1227    0.0000 C   0  0  0  0  0  0  0  0  0  0  0  0
   11.1714  -15.7725    0.0000 C   0  0  0  0  0  0  0  0  0  0  0  0
   10.4429  -15.3836    0.0000 C   0  0  0  0  0  0  0  0  0  0  0  0
    9.7513  -15.8203    0.0000 C   0  0  0  0  0  0  0  0  0  0  0  0
    9.7780  -16.6436    0.0000 O   0  0  0  0  0  0  0  0  0  0  0  0
   10.5025  -17.0284    0.0000 C   0  0  0  0  0  0  0  0  0  0  0  0
   11.2043  -16.5940    0.0000 C   0  0  0  0  0  0  0  0  0  0  0  0
    7.7986  -15.0587    0.0000 C   0  0  0  0  0  0  0  0  0  0  0  0
    9.6477  -15.2738    0.0000 O   0  0  0  0  0  0  0  0  0  0  0  0
    9.3989  -14.4902    0.0000 O   0  0  0  0  0  0  0  0  0  0  0  0
   10.4064  -13.7357    0.0000 H   0  0  0  0  0  0  0  0  0  0  0  0
   11.8824  -16.1817    0.0000 H   0  0  0  0  0  0  0  0  0  0  0  0
   10.5348  -17.8530    0.0000 O   0  0  0  0  0  0  0  0  0  0  0  0
    9.1585  -16.3974    0.0000 H   0  0  0  0  0  0  0  0  0  0  0  0
   11.0783  -13.2983    0.0000 C   0  0  0  0  0  0  0  0  0  0  0  0
   11.9339  -16.9781    0.0000 C   0  0  0  0  0  0  0  0  0  0  0  0
  2  5  1  0
  1  3  1  0
  9 14  1  0
 10 11  1  0
 11 12  1  0
 13 12  1  0
 13 14  1  0
  1  2  1  0
  3 15  1  1
  5  8  1  0
 10 16  1  6
  9  6  1  0
 16 17  1  0
  3 17  1  0
  6  7  1  0
  5 18  1  6
  7  8  1  0
  9 19  1  6
  9 10  1  0
 13 20  2  0
  3  4  1  0
 11 21  1  1
  4 11  1  0
  8 22  1  6
  5 10  1  0
 14 23  1  1
M  END
> <chembl_id>
CHEMBL567597

> <chembl_pref_name>
ARTEMISININ
