
     RDKit          2D

 16 16  0  0  0  0  0  0  0  0999 V2000
    6.2417   -8.2917    0.0000 C   0  0  0  0  0  0  0  0  0  0  0  0
    6.8500   -9.3542    0.0000 C   0  0  0  0  0  0  0  0  0  0  0  0
    6.2417   -9.0000    0.0000 C   0  0  0  0  0  0  0  0  0  0  0  0
    7.4625   -9.0000    0.0000 N   0  0  0  0  0  0  0  0  0  0  0  0
    6.8500   -7.9375    0.0000 N   0  0  0  0  0  0  0  0  0  0  0  0
    7.4625   -8.2917    0.0000 C   0  0  0  0  0  0  0  0  0  0  0  0
    6.8500  -10.0625    0.0000 O   0  0  0  0  0  0  0  0  0  0  0  0
    5.6250   -7.9375    0.0000 O   0  0  0  0  0  0  0  0  0  0  0  0
    8.0792   -7.9375    0.0000 O   0  0  0  0  0  0  0  0  0  0  0  0
    5.8792   -9.6125    0.0000 C   0  0  0  0  0  0  0  0  0  0  0  0
    5.5292   -9.0000    0.0000 C   0  0  0  0  0  0  0  0  0  0  0  0
    5.1792   -9.6125    0.0000 C   0  0  0  0  0  0  0  0  0  0  0  0
    6.2333  -10.2250    0.0000 C   0  0  0  0  0  0  0  0  0  0  0  0
    5.1792   -8.3833    0.0000 C   0  0  0  0  0  0  0  0  0  0  0  0
    4.8167  -10.2167    0.0000 C   0  0  0  0  0  0  0  0  0  0  0  0
    4.1083  -10.2125    0.0000 C   0  0  0  0  0  0  0  0  0  0  0  0
  2  3  1  0
  3  1  1  0
  4  2  1  0
  5  1  1  0
  6  5  1  0
  7  2  2  0
  8  1  2  0
  9  6  2  0
 10  3  1  0
 11  3  1  0
 12 10  1  0
 13 10  1  0
 14 11  1  0
 15 12  1  0
 16 15  1  0
  6  4  1  0
M  END
> <chembl_id>
CHEMBL448

> <chembl_pref_name>
PENTOBARBITAL
