
     RDKit          2D

 26 28  0  0  0  0  0  0  0  0999 V2000
    1.6792   -8.4875    0.0000 C   0  0  0  0  0  0  0  0  0  0  0  0
    1.3292   -7.8750    0.0000 C   0  0  0  0  0  0  0  0  0  0  0  0
    2.0375   -7.8750    0.0000 C   0  0  0  0  0  0  0  0  0  0  0  0
    0.7125   -7.5167    0.0000 C   0  0  0  0  0  0  0  0  0  0  0  0
    2.6500   -7.5167    0.0000 C   0  0  0  0  0  0  0  0  0  0  0  0
    0.0917   -7.8667    0.0000 C   0  0  0  0  0  0  0  0  0  0  0  0
    3.2667   -7.8750    0.0000 O   0  0  0  0  0  0  0  0  0  0  0  0
    2.6542   -6.8125    0.0000 O   0  0  0  0  0  0  0  0  0  0  0  0
    6.3292   -7.5167    0.0000 O   0  0  0  0  0  0  0  0  0  0  0  0
    5.7167   -7.8750    0.0000 C   0  0  0  0  0  0  0  0  0  0  0  0
    1.3250   -9.1000    0.0000 C   0  0  0  0  0  0  0  0  0  0  0  0
    2.0292   -9.1000    0.0000 C   0  0  0  0  0  0  0  0  0  0  0  0
   -0.5208   -7.5167    0.0000 Cl  0  0  0  0  0  0  0  0  0  0  0  0
    0.0917   -8.5792    0.0000 Cl  0  0  0  0  0  0  0  0  0  0  0  0
    5.1042   -7.5167    0.0000 C   0  0  0  0  0  0  0  0  0  0  0  0
    3.8792   -7.5167    0.0000 C   0  0  0  0  0  0  0  0  0  0  0  0
    4.4917   -7.8750    0.0000 C   0  0  0  0  0  0  0  0  0  0  0  0
    6.9417   -7.8667    0.0000 C   0  0  0  0  0  0  0  0  0  0  0  0
    5.1042   -8.9417    0.0000 C   0  0  0  0  0  0  0  0  0  0  0  0
    5.7167   -8.5875    0.0000 C   0  0  0  0  0  0  0  0  0  0  0  0
    4.4917   -8.5875    0.0000 C   0  0  0  0  0  0  0  0  0  0  0  0
    6.9417   -8.5792    0.0000 C   0  0  0  0  0  0  0  0  0  0  0  0
    7.5500   -7.5125    0.0000 C   0  0  0  0  0  0  0  0  0  0  0  0
    8.1625   -7.8625    0.0000 C   0  0  0  0  0  0  0  0  0  0  0  0
    7.5542   -8.9292    0.0000 C   0  0  0  0  0  0  0  0  0  0  0  0
    8.1667   -8.5750    0.0000 C   0  0  0  0  0  0  0  0  0  0  0  0
  2  1  1  0
  3  1  1  0
  4  2  1  0
  5  3  1  0
  6  4  2  0
  7  5  1  0
  8  5  2  0
  9 10  1  0
 10 15  2  0
 11  1  1  0
 12  1  1  0
 13  6  1  0
 14  6  1  0
 15 17  1  0
 16  7  1  0
 17 16  1  0
 18  9  1  0
 19 21  1  0
 20 19  2  0
 21 17  2  0
 22 18  2  0
 23 18  1  0
 24 23  2  0
 25 22  1  0
 26 24  1  0
  2  3  1  0
 10 20  1  0
 26 25  2  0
M  END
> <chembl_id>
CHEMBL1525

> <chembl_pref_name>
PERMETHRIN
