
     RDKit          2D

 25 28  0  0  1  0  0  0  0  0999 V2000
   -0.0625   -3.4500    0.0000 C   0  0  0  0  0  0  0  0  0  0  0  0
    1.7792   -2.4000    0.0000 C   0  0  0  0  0  0  0  0  0  0  0  0
   -0.0625   -4.1542    0.0000 C   0  0  0  0  0  0  0  0  0  0  0  0
    0.5500   -3.0917    0.0000 C   0  0  0  0  0  0  0  0  0  0  0  0
    1.7750   -3.1042    0.0000 C   0  0  0  0  0  0  0  0  0  0  0  0
    1.1625   -3.4542    0.0000 C   0  0  0  0  0  0  0  0  0  0  0  0
   -0.6750   -4.5042    0.0000 C   0  0  0  0  0  0  0  0  0  0  0  0
    2.4542   -2.1875    0.0000 C   0  0  0  0  0  0  0  0  0  0  0  0
    1.1667   -2.0375    0.0000 C   0  0  0  0  0  0  0  0  0  0  0  0
    0.5542   -2.3875    0.0000 C   0  0  0  0  0  0  0  0  0  0  0  0
   -0.6750   -3.0917    0.0000 C   0  0  0  0  0  0  0  0  0  0  0  0
    1.1542   -4.1625    0.0000 C   0  0  0  0  0  0  0  0  0  0  0  0
    2.4417   -3.3292    0.0000 C   0  0  0  0  0  0  0  0  0  0  0  0
    0.5417   -4.5083    0.0000 C   0  0  0  0  0  0  0  0  0  0  0  0
   -1.2833   -4.1542    0.0000 C   0  0  0  0  0  0  0  0  0  0  0  0
    2.8667   -2.7625    0.0000 C   0  0  0  0  0  0  0  0  0  0  0  0
   -1.9042   -4.5042    0.0000 O   0  0  0  0  0  0  0  0  0  0  0  0
   -1.2833   -3.4500    0.0000 C   0  0  0  0  0  0  0  0  0  0  0  0
    2.4542   -1.4792    0.0000 O   0  0  0  0  0  0  0  0  0  0  0  0
   -0.0708   -2.7417    0.0000 C   0  0  0  0  0  0  0  0  0  0  0  0
    1.7792   -1.6917    0.0000 C   0  0  0  0  0  0  0  0  0  0  0  0
    3.0667   -1.8292    0.0000 C   0  0  0  0  0  0  0  0  0  0  0  0
    1.7667   -3.8125    0.0000 H   0  0  0  0  0  0  0  0  0  0  0  0
    1.1542   -2.7417    0.0000 H   0  0  0  0  0  0  0  0  0  0  0  0
    0.5417   -3.8042    0.0000 H   0  0  0  0  0  0  0  0  0  0  0  0
  2  9  1  0
  3  1  1  0
  4  1  1  0
  5  6  1  0
  6  4  1  0
  7  3  2  0
  8  2  1  0
  9 10  1  0
 10  4  1  0
 11  1  1  0
 12  6  1  0
 13  5  1  0
 14  3  1  0
 15 18  1  0
 16 13  1  0
 17 15  2  0
 18 11  1  0
 19  8  1  0
  1 20  1  1
  2 21  1  1
  8 22  1  6
  5 23  1  6
  6 24  1  1
  4 25  1  6
 12 14  1  0
 15  7  1  0
  5  2  1  0
  8 16  1  0
M  END
> <chembl_id>
CHEMBL1395

> <chembl_pref_name>
METHYLTESTOSTERONE
