
     RDKit          2D

 21 23  0  0  0  0  0  0  0  0999 V2000
   -1.9958    0.2708    0.0000 C   0  0  0  0  0  0  0  0  0  0  0  0
   -0.6833    0.2708    0.0000 C   0  0  0  0  0  0  0  0  0  0  0  0
   -2.8333    1.2958    0.0000 N   0  0  0  0  0  0  0  0  0  0  0  0
    0.1250    1.2958    0.0000 C   0  0  0  0  0  0  0  0  0  0  0  0
   -0.1583    2.5833    0.0000 N   0  0  0  0  0  0  0  0  0  0  0  0
   -2.3833   -1.0042    0.0000 S   0  0  0  0  0  0  0  0  0  0  0  0
   -0.2458   -0.9792    0.0000 C   0  0  0  0  0  0  0  0  0  0  0  0
   -2.5833    2.5708    0.0000 C   0  0  0  0  0  0  0  0  0  0  0  0
    1.4542    1.1125    0.0000 C   0  0  0  0  0  0  0  0  0  0  0  0
   -1.3458   -1.7375    0.0000 C   0  0  0  0  0  0  0  0  0  0  0  0
   -1.3583    3.1708    0.0000 C   0  0  0  0  0  0  0  0  0  0  0  0
    2.2792    2.1458    0.0000 C   0  0  0  0  0  0  0  0  0  0  0  0
   -3.6458    3.3458    0.0000 O   0  0  0  0  0  0  0  0  0  0  0  0
   -4.1083    0.9708    0.0000 C   0  0  0  0  0  0  0  0  0  0  0  0
    1.8167    3.3958    0.0000 Cl  0  0  0  0  0  0  0  0  0  0  0  0
    1.9167   -0.1125    0.0000 C   0  0  0  0  0  0  0  0  0  0  0  0
   -1.3583   -3.0042    0.0000 C   0  0  0  0  0  0  0  0  0  0  0  0
    3.6000    1.9625    0.0000 C   0  0  0  0  0  0  0  0  0  0  0  0
   -2.5333   -3.5875    0.0000 C   0  0  0  0  0  0  0  0  0  0  0  0
    3.2542   -0.3042    0.0000 C   0  0  0  0  0  0  0  0  0  0  0  0
    4.1042    0.7208    0.0000 C   0  0  0  0  0  0  0  0  0  0  0  0
  2  1  2  0
  3  1  1  0
  4  2  1  0
  5  4  2  0
  6  1  1  0
  7  2  1  0
  8  3  1  0
  9  4  1  0
 10  6  1  0
 11  8  1  0
 12  9  1  0
 13  8  2  0
 14  3  1  0
 15 12  1  0
 16  9  2  0
 17 10  1  0
 18 12  2  0
 19 17  1  0
 20 16  1  0
 21 20  2  0
  7 10  2  0
  5 11  1  0
 18 21  1  0
M  END
> <chembl_id>
CHEMBL1697737

> <chembl_pref_name>
CLOTIAZEPAM
