
     RDKit          2D

 32 32  0  0  0  0  0  0  0  0999 V2000
   12.0080  -15.7982    0.0000 Na  0  0  0  0  0 15  0  0  0  0  0  0
    6.5585  -17.3748    0.0000 C   0  0  0  0  0  0  0  0  0  0  0  0
    6.5585  -18.2044    0.0000 C   0  0  0  0  0  0  0  0  0  0  0  0
    7.2730  -18.6169    0.0000 C   0  0  0  0  0  0  0  0  0  0  0  0
    7.2730  -16.9578    0.0000 C   0  0  0  0  0  0  0  0  0  0  0  0
    7.9920  -17.3748    0.0000 C   0  0  0  0  0  0  0  0  0  0  0  0
    7.9885  -18.2044    0.0000 C   0  0  0  0  0  0  0  0  0  0  0  0
    8.7012  -18.6199    0.0000 C   0  0  0  0  0  0  0  0  0  0  0  0
    9.4220  -18.2105    0.0000 C   0  0  0  0  0  0  0  0  0  0  0  0
    9.4255  -17.3810    0.0000 C   0  0  0  0  0  0  0  0  0  0  0  0
    8.7082  -16.9608    0.0000 C   0  0  0  0  0  0  0  0  0  0  0  0
    7.9839  -16.5499    0.0000 H   0  0  0  0  0  0  0  0  0  0  0  0
   10.1421  -16.9722    0.0000 C   0  0  0  0  0  0  0  0  0  0  0  0
    8.7106  -16.1358    0.0000 C   0  0  0  0  0  0  0  0  0  0  0  0
    9.4263  -15.7254    0.0000 C   0  0  0  0  0  0  0  0  0  0  0  0
    9.4286  -14.9005    0.0000 C   0  0  0  0  0  0  0  0  0  0  0  0
    7.2719  -16.1329    0.0000 O   0  0  0  0  0  0  0  0  0  0  0  0
    6.5568  -15.7214    0.0000 C   0  0  0  0  0  0  0  0  0  0  0  0
    6.5557  -14.8964    0.0000 O   0  0  0  0  0  0  0  0  0  0  0  0
    5.8429  -16.1348    0.0000 C   0  0  0  0  0  0  0  0  0  0  0  0
    5.1279  -15.7233    0.0000 C   0  0  0  0  0  0  0  0  0  0  0  0
    5.8441  -16.9598    0.0000 C   0  0  0  0  0  0  0  0  0  0  0  0
    4.4140  -16.1368    0.0000 C   0  0  0  0  0  0  0  0  0  0  0  0
    5.8441  -18.6169    0.0000 O   0  0  0  0  0  0  0  0  0  0  0  0
   10.1461  -14.4924    0.0000 C   0  0  0  0  0  0  0  0  0  0  0  0
   10.1504  -13.6709    0.0000 C   0  0  0  0  0  0  0  0  0  0  0  0
    9.4389  -13.2526    0.0000 C   0  0  0  0  0  0  0  0  0  0  0  0
    8.7155  -14.4894    0.0000 O   0  0  0  0  0  0  0  0  0  0  0  0
   10.8675  -13.2633    0.0000 O   0  0  0  0  0  0  0  0  0  0  0  0
    9.4455  -12.4276    0.0000 C   0  0  0  0  0  0  0  0  0  0  0  0
    8.7345  -12.0094    0.0000 O   0  0  0  0  0  0  0  0  0  0  0  0
   10.1632  -12.0209    0.0000 O   0  0  0  0  0  0  0  0  0  0  0  0
 16 15  1  1
  2  5  1  0
  5 17  1  6
  3  4  1  0
 17 18  1  0
  4  7  2  0
 18 19  2  0
  6 11  1  0
 18 20  1  0
  7  8  1  0
 20 21  1  0
  8  9  2  0
 20 22  1  1
  9 10  1  0
 21 23  1  0
 10 11  1  0
  3 24  1  1
 16 25  1  0
  6  5  1  0
  6 12  1  1
  6  7  1  0
 10 13  1  1
 16 28  1  0
 25 26  1  0
 26 27  1  0
 26 29  1  6
 11 14  1  1
 27 30  1  0
  2  3  1  0
 30 31  2  0
 14 15  1  0
 30 32  1  0
M  CHG  2   1   1  32  -1
M  END
> <chembl_id>
CHEMBL690

> <chembl_pref_name>
PRAVASTATIN SODIUM
