
     RDKit          2D

 51 53  0  0  0  0  0  0  0  0999 V2000
   -8.9571   -3.3295    0.0000 Na  0  0  0  0  0 15  0  0  0  0  0  0
  -16.7652   -0.1473    0.0000 C   0  0  0  0  0  0  0  0  0  0  0  0
  -16.3527   -0.8618    0.0000 C   0  0  0  0  0  0  0  0  0  0  0  0
  -15.5277   -0.8618    0.0000 O   0  0  0  0  0  0  0  0  0  0  0  0
  -14.8132   -1.2743    0.0000 C   0  0  0  0  0  0  0  0  0  0  0  0
  -14.0987   -0.8618    0.0000 C   0  0  0  0  0  0  0  0  0  0  0  0
  -14.0987   -0.0368    0.0000 C   0  0  0  0  0  0  0  0  0  0  0  0
  -13.6862   -1.5763    0.0000 C   0  0  0  0  0  0  0  0  0  0  0  0
  -14.8132    0.3757    0.0000 O   0  0  0  0  0  0  0  0  0  0  0  0
  -13.3843    0.3757    0.0000 C   0  0  0  0  0  0  0  0  0  0  0  0
  -13.3843    1.2007    0.0000 C   0  0  0  0  0  0  0  0  0  0  0  0
  -12.5874    0.1622    0.0000 C   0  0  0  0  0  0  0  0  0  0  0  0
  -12.3739   -0.6347    0.0000 O   0  0  0  0  0  0  0  0  0  0  0  0
  -11.7905    0.3757    0.0000 C   0  0  0  0  0  0  0  0  0  0  0  0
  -11.8447    1.2080    0.0000 C   0  0  0  0  0  0  0  0  0  0  0  0
  -10.9655    0.3757    0.0000 C   0  0  0  0  0  0  0  0  0  0  0  0
  -10.2510    0.7882    0.0000 C   0  0  0  0  0  0  0  0  0  0  0  0
   -9.5365    0.3757    0.0000 C   0  0  0  0  0  0  0  0  0  0  0  0
   -9.5365   -0.4493    0.0000 C   0  0  0  0  0  0  0  0  0  0  0  0
   -8.8221   -0.8618    0.0000 C   0  0  0  0  0  0  0  0  0  0  0  0
  -10.2510   -0.8618    0.0000 C   0  0  0  0  0  0  0  0  0  0  0  0
  -10.8344   -0.2784    0.0000 O   0  0  0  0  0  0  0  0  0  0  0  0
  -10.2510   -1.6868    0.0000 N   0  0  0  0  0  0  0  0  0  0  0  0
  -10.6635   -2.4013    0.0000 C   0  0  0  0  0  0  0  0  0  0  0  0
  -12.0925   -2.4013    0.0000 C   0  0  0  0  0  0  0  0  0  0  0  0
  -12.8069   -1.9888    0.0000 C   0  0  0  0  0  0  0  0  0  0  0  0
  -13.5215   -2.4013    0.0000 C   0  0  0  0  0  0  0  0  0  0  0  0
  -13.5215   -3.2263    0.0000 C   0  0  0  0  0  0  0  0  0  0  0  0
  -12.8069   -3.6388    0.0000 C   0  0  0  0  0  0  0  0  0  0  0  0
  -11.3780   -3.6388    0.0000 C   0  0  0  0  0  0  0  0  0  0  0  0
  -10.6635   -3.2263    0.0000 C   0  0  0  0  0  0  0  0  0  0  0  0
  -11.3780   -1.9888    0.0000 C   0  0  0  0  0  0  0  0  0  0  0  0
  -11.3780   -1.1638    0.0000 O   0  0  0  0  0  0  0  0  0  0  0  0
  -12.5934   -1.1919    0.0000 O   0  0  0  0  0  0  0  0  0  0  0  0
  -11.3780   -4.4638    0.0000 O   0  0  0  0  0  0  0  0  0  0  0  0
  -14.1345   -3.7783    0.0000 O   0  0  0  0  0  0  0  0  0  0  0  0
  -13.7989   -4.5320    0.0000 C   0  0  0  0  0  0  0  0  0  0  0  0
  -12.9785   -4.4457    0.0000 C   0  0  0  0  0  0  0  0  0  0  0  0
  -12.4264   -5.0588    0.0000 O   0  0  0  0  0  0  0  0  0  0  0  0
  -13.5854   -5.3288    0.0000 C   0  0  0  0  0  0  0  0  0  0  0  0
  -14.6239   -4.5320    0.0000 O   0  0  0  0  0  0  0  0  0  0  0  0
  -14.8375   -3.7351    0.0000 C   0  0  0  0  0  0  0  0  0  0  0  0
  -15.6344   -3.5215    0.0000 C   0  0  0  0  0  0  0  0  0  0  0  0
  -16.0469   -2.8071    0.0000 C   0  0  0  0  0  0  0  0  0  0  0  0
  -16.8438   -2.5935    0.0000 O   0  0  0  0  0  0  0  0  0  0  0  0
  -15.3324   -2.3946    0.0000 C   0  0  0  0  0  0  0  0  0  0  0  0
  -14.6179   -2.8071    0.0000 C   0  0  0  0  0  0  0  0  0  0  0  0
  -14.1048   -1.8179    0.0000 C   0  0  0  0  0  0  0  0  0  0  0  0
  -16.9360   -1.4452    0.0000 O   0  0  0  0  0  0  0  0  0  0  0  0
  -12.0925   -3.2263    0.0000 C   0  0  0  0  0  0  0  0  0  0  0  0
  -17.6407   -2.8070    0.0000 C   0  0  0  0  0  0  0  0  0  0  0  0
  2  3  1  0
  3  4  1  0
  5  4  1  1
  5  6  1  0
  6  7  1  0
  6  8  1  1
  7  9  1  6
  7 10  1  0
 10 11  1  6
 10 12  1  0
 12 13  1  6
 12 14  1  0
 14 15  1  1
 14 16  1  0
 16 17  2  0
 17 18  1  0
 18 19  2  0
 19 20  1  0
 19 21  1  0
 21 22  2  0
 21 23  1  0
 23 24  1  0
 31 24  1  0
 24 32  2  0
 25 26  1  0
 25 32  1  0
 26 27  2  0
 27 28  1  0
 30 31  2  0
 32 33  1  0
 26 34  1  0
 30 35  1  0
 28 36  1  0
 28 29  2  0
 38 29  1  0
 36 37  1  0
 37 38  1  0
 38 39  2  0
 37 40  1  6
 37 41  1  0
 41 42  1  0
 42 43  2  0
 43 44  1  0
 44 45  1  6
 44 46  1  0
  5 46  1  0
 46 47  1  6
 27 48  1  0
  3 49  2  0
 25 50  2  0
 29 50  1  0
 50 30  1  0
 45 51  1  0
M  CHG  2   1   1  34  -1
M  END
> <chembl_id>
CHEMBL2105680

> <chembl_pref_name>
RIFAMYCIN SODIUM
