
     RDKit          2D

 26 27  0  0  0  0  0  0  0  0999 V2000
    7.2042   -7.5625    0.0000 Cl  0  0  0  0  0  0  0  0  0  0  0  0
    5.3625   -6.7167    0.0000 C   0  0  0  0  0  0  0  0  0  0  0  0
    4.1167   -6.7167    0.0000 C   0  0  0  0  0  0  0  0  0  0  0  0
    4.7375   -5.6292    0.0000 N   0  0  0  0  0  0  0  0  0  0  0  0
    4.1167   -5.9917    0.0000 C   0  0  0  0  0  0  0  0  0  0  0  0
    4.7292   -7.0667    0.0000 C   0  0  0  0  0  0  0  0  0  0  0  0
    3.5000   -5.6417    0.0000 C   0  0  0  0  0  0  0  0  0  0  0  0
    5.3625   -5.9917    0.0000 C   0  0  0  0  0  0  0  0  0  0  0  0
    2.8875   -6.0000    0.0000 C   0  0  0  0  0  0  0  0  0  0  0  0
    2.2917   -5.7542    0.0000 N   0  0  0  0  0  0  0  0  0  0  0  0
    2.8875   -6.7125    0.0000 C   0  0  0  0  0  0  0  0  0  0  0  0
    3.5000   -7.0667    0.0000 C   0  0  0  0  0  0  0  0  0  0  0  0
    5.9667   -7.0667    0.0000 C   0  0  0  0  0  0  0  0  0  0  0  0
    2.2917   -5.0417    0.0000 C   0  0  0  0  0  0  0  0  0  0  0  0
    4.7292   -7.7792    0.0000 O   0  0  0  0  0  0  0  0  0  0  0  0
    1.0625   -5.0417    0.0000 N   0  0  0  0  0  0  0  0  0  0  0  0
    5.9667   -7.7875    0.0000 O   0  0  0  0  0  0  0  0  0  0  0  0
    3.5000   -4.9292    0.0000 F   0  0  0  0  0  0  0  0  0  0  0  0
    2.2667   -7.0667    0.0000 F   0  0  0  0  0  0  0  0  0  0  0  0
    1.6792   -6.1125    0.0000 C   0  0  0  0  0  0  0  0  0  0  0  0
    4.7375   -4.9167    0.0000 C   0  0  0  0  0  0  0  0  0  0  0  0
    1.6792   -4.6917    0.0000 C   0  0  0  0  0  0  0  0  0  0  0  0
    6.5917   -6.7250    0.0000 O   0  0  0  0  0  0  0  0  0  0  0  0
    1.0667   -5.7542    0.0000 C   0  0  0  0  0  0  0  0  0  0  0  0
    1.6667   -3.9792    0.0000 C   0  0  0  0  0  0  0  0  0  0  0  0
    5.3542   -4.5667    0.0000 C   0  0  0  0  0  0  0  0  0  0  0  0
  3  6  1  0
  4  8  1  0
  5  4  1  0
  6  2  1  0
  7  5  2  0
  8  2  2  0
  9  7  1  0
 10  9  1  0
 11 12  1  0
 12  3  2  0
 13  2  1  0
 14 10  1  0
 15  6  2  0
 16 24  1  0
 17 13  2  0
 18  7  1  0
 19 11  1  0
 20 10  1  0
 21  4  1  0
 22 14  1  0
 23 13  1  0
 24 20  1  0
 25 22  1  0
 26 21  1  0
  3  5  1  0
 11  9  2  0
 16 22  1  0
M  END
> <chembl_id>
CHEMBL1728

> <chembl_pref_name>
LOMEFLOXACIN HYDROCHLORIDE
