
     RDKit          2D

 25 28  0  0  1  0  0  0  0  0999 V2000
   -0.9583   -0.7375    0.0000 C   0  0  0  0  0  0  0  0  0  0  0  0
    2.2417    1.1208    0.0000 C   0  0  0  0  0  0  0  0  0  0  0  0
   -0.9583   -1.9792    0.0000 C   0  0  0  0  0  0  0  0  0  0  0  0
    0.1042   -0.1167    0.0000 C   0  0  0  0  0  0  0  0  0  0  0  0
    2.2417   -0.1167    0.0000 C   0  0  0  0  0  0  0  0  0  0  0  0
    1.1792   -0.7375    0.0000 C   0  0  0  0  0  0  0  0  0  0  0  0
   -2.0208   -0.1167    0.0000 C   0  0  0  0  0  0  0  0  0  0  0  0
   -2.0208   -2.5917    0.0000 C   0  0  0  0  0  0  0  0  0  0  0  0
    3.4167    1.5000    0.0000 C   0  0  0  0  0  0  0  0  0  0  0  0
    1.1792    1.7458    0.0000 C   0  0  0  0  0  0  0  0  0  0  0  0
    0.1042    1.1208    0.0000 C   0  0  0  0  0  0  0  0  0  0  0  0
    1.1792   -1.9792    0.0000 C   0  0  0  0  0  0  0  0  0  0  0  0
    3.4167   -0.5042    0.0000 C   0  0  0  0  0  0  0  0  0  0  0  0
   -3.0958   -0.7375    0.0000 C   0  0  0  0  0  0  0  0  0  0  0  0
   -3.0958   -1.9792    0.0000 C   0  0  0  0  0  0  0  0  0  0  0  0
    0.1042   -2.5917    0.0000 C   0  0  0  0  0  0  0  0  0  0  0  0
    4.1292    0.5083    0.0000 C   0  0  0  0  0  0  0  0  0  0  0  0
   -4.1875   -2.6250    0.0000 O   0  0  0  0  0  0  0  0  0  0  0  0
    3.1625    2.7125    0.0000 O   0  0  0  0  0  0  0  0  0  0  0  0
   -0.9583    0.5083    0.0000 C   0  0  0  0  0  0  0  0  0  0  0  0
    2.2250    2.3500    0.0000 C   0  0  0  0  0  0  0  0  0  0  0  0
    4.3417    2.3333    0.0000 C   0  0  0  0  0  0  0  0  0  0  0  0
    1.1667    0.4958    0.0000 H   0  0  0  0  0  0  0  0  0  0  0  0
    0.0917   -1.3542    0.0000 H   0  0  0  0  0  0  0  0  0  0  0  0
    2.1917   -1.3542    0.0000 H   0  0  0  0  0  0  0  0  0  0  0  0
  2 10  1  0
  3  1  1  0
  4  1  1  0
  5  6  1  0
  6  4  1  0
  7  1  1  0
  8  3  2  0
  9  2  1  0
 10 11  1  0
 11  4  1  0
 12  6  1  0
 13  5  1  0
 14  7  2  0
 15 14  1  0
 16  3  1  0
 17 13  1  0
 18 15  2  0
  9 19  1  1
  1 20  1  1
  2 21  1  1
 22  9  1  0
  6 23  1  1
  4 24  1  6
  5 25  1  6
 16 12  1  0
  8 15  1  0
  5  2  1  0
  9 17  1  0
M  END
> <chembl_id>
CHEMBL1418176

> <chembl_pref_name>
METHANDROSTENOLONE
