
     RDKit          2D

 26 29  0  0  0  0  0  0  0  0999 V2000
   -3.4083    1.3625    0.0000 C   0  0  0  0  0  0  0  0  0  0  0  0
    1.1375    0.1125    0.0000 N   0  0  0  0  0  0  0  0  0  0  0  0
    1.1542   -1.7542    0.0000 C   0  0  0  0  0  0  0  0  0  0  0  0
    0.4542   -0.8167    0.0000 C   0  0  0  0  0  0  0  0  0  0  0  0
   -3.6833    0.2583    0.0000 N   0  0  0  0  0  0  0  0  0  0  0  0
    2.2542   -1.4375    0.0000 C   0  0  0  0  0  0  0  0  0  0  0  0
   -1.1375   -2.3000    0.0000 N   0  0  0  0  0  0  0  0  0  0  0  0
    2.2542   -0.2792    0.0000 C   0  0  0  0  0  0  0  0  0  0  0  0
   -4.2083    2.1750    0.0000 O   0  0  0  0  0  0  0  0  0  0  0  0
   -2.2625    1.6708    0.0000 C   0  0  0  0  0  0  0  0  0  0  0  0
    0.7000   -2.8667    0.0000 C   0  0  0  0  0  0  0  0  0  0  0  0
   -2.8250   -0.6042    0.0000 C   0  0  0  0  0  0  0  0  0  0  0  0
   -3.0958   -1.7042    0.0000 C   0  0  0  0  0  0  0  0  0  0  0  0
   -1.6833   -0.2875    0.0000 C   0  0  0  0  0  0  0  0  0  0  0  0
   -0.3625   -3.1000    0.0000 C   0  0  0  0  0  0  0  0  0  0  0  0
   -2.2708   -2.5625    0.0000 C   0  0  0  0  0  0  0  0  0  0  0  0
   -0.8625   -1.1375    0.0000 C   0  0  0  0  0  0  0  0  0  0  0  0
    3.2917   -2.0417    0.0000 C   0  0  0  0  0  0  0  0  0  0  0  0
    3.3167    0.3333    0.0000 C   0  0  0  0  0  0  0  0  0  0  0  0
   -1.4458    0.8208    0.0000 C   0  0  0  0  0  0  0  0  0  0  0  0
   -1.9833    2.8083    0.0000 C   0  0  0  0  0  0  0  0  0  0  0  0
    4.3042   -1.4292    0.0000 C   0  0  0  0  0  0  0  0  0  0  0  0
    4.3417   -0.2375    0.0000 C   0  0  0  0  0  0  0  0  0  0  0  0
   -0.3458    1.1000    0.0000 C   0  0  0  0  0  0  0  0  0  0  0  0
   -0.8000    3.1083    0.0000 C   0  0  0  0  0  0  0  0  0  0  0  0
   -0.0375    2.2833    0.0000 C   0  0  0  0  0  0  0  0  0  0  0  0
  2  4  1  0
  3 11  1  0
  4  3  2  0
  5  1  1  0
  6  3  1  0
  7 17  1  0
  8  6  2  0
  9  1  2  0
 10  1  1  0
 11 15  1  0
 12  5  1  0
 13 12  1  0
 14 12  1  0
 15  7  1  0
 16 13  1  0
 17 14  1  0
 18  6  1  0
 19  8  1  0
 20 10  2  0
 21 10  1  0
 22 18  2  0
 23 22  1  0
 24 20  1  0
 25 21  2  0
 26 25  1  0
 24 26  2  0
 16  7  1  0
  8  2  1  0
 19 23  2  0
M  END
> <chembl_id>
CHEMBL279516

> <chembl_pref_name>
INDORAMIN
