
     RDKit          2D

 38 40  0  0  0  0  0  0  0  0999 V2000
    2.0250   -2.3125    0.0000 Cl  0  0  0  0  0  0  0  0  0  0  0  0
   -1.0083   -1.1750    0.0000 C   0  0  0  0  0  0  0  0  0  0  0  0
    5.7167    1.3083    0.0000 C   0  0  0  0  0  0  0  0  0  0  0  0
    6.3500    0.9583    0.0000 C   0  0  0  0  0  0  0  0  0  0  0  0
    0.8250   -0.1042    0.0000 N   0  0  0  0  0  0  0  0  0  0  0  0
    5.1250    0.9583    0.0000 C   0  0  0  0  0  0  0  0  0  0  0  0
   -0.4000   -0.8167    0.0000 C   0  0  0  0  0  0  0  0  0  0  0  0
    3.9042    0.2583    0.0000 C   0  0  0  0  0  0  0  0  0  0  0  0
    6.3500    0.2583    0.0000 O   0  0  0  0  0  0  0  0  0  0  0  0
   -1.6250   -0.8167    0.0000 C   0  0  0  0  0  0  0  0  0  0  0  0
   -1.0083   -1.8792    0.0000 C   0  0  0  0  0  0  0  0  0  0  0  0
    5.1250    0.2583    0.0000 C   0  0  0  0  0  0  0  0  0  0  0  0
    4.5167    1.3208    0.0000 C   0  0  0  0  0  0  0  0  0  0  0  0
    4.5167   -0.1042    0.0000 C   0  0  0  0  0  0  0  0  0  0  0  0
    3.9042    0.9583    0.0000 C   0  0  0  0  0  0  0  0  0  0  0  0
   -0.4000   -0.1042    0.0000 C   0  0  0  0  0  0  0  0  0  0  0  0
    0.2125   -1.1667    0.0000 C   0  0  0  0  0  0  0  0  0  0  0  0
    0.2000    0.2458    0.0000 C   0  0  0  0  0  0  0  0  0  0  0  0
    0.8250   -0.8167    0.0000 C   0  0  0  0  0  0  0  0  0  0  0  0
   -1.6208   -1.5542    0.0000 O   0  0  0  0  0  0  0  0  0  0  0  0
    3.2792   -0.0875    0.0000 C   0  0  0  0  0  0  0  0  0  0  0  0
    6.9500    1.3208    0.0000 O   0  0  0  0  0  0  0  0  0  0  0  0
    1.4542    0.2708    0.0000 C   0  0  0  0  0  0  0  0  0  0  0  0
    3.2792   -0.7792    0.0000 O   0  0  0  0  0  0  0  0  0  0  0  0
    5.3625    1.9208    0.0000 C   0  0  0  0  0  0  0  0  0  0  0  0
    6.0667    1.9208    0.0000 C   0  0  0  0  0  0  0  0  0  0  0  0
    2.0667   -0.0875    0.0000 C   0  0  0  0  0  0  0  0  0  0  0  0
    2.6792    0.2708    0.0000 C   0  0  0  0  0  0  0  0  0  0  0  0
   -1.6250   -0.1042    0.0000 C   0  0  0  0  0  0  0  0  0  0  0  0
   -2.2500   -1.1750    0.0000 C   0  0  0  0  0  0  0  0  0  0  0  0
   -1.6333   -2.2417    0.0000 C   0  0  0  0  0  0  0  0  0  0  0  0
   -0.4000   -2.2417    0.0000 C   0  0  0  0  0  0  0  0  0  0  0  0
   -1.6333   -2.9750    0.0000 C   0  0  0  0  0  0  0  0  0  0  0  0
   -0.4000   -2.9750    0.0000 C   0  0  0  0  0  0  0  0  0  0  0  0
   -2.2375    0.2583    0.0000 C   0  0  0  0  0  0  0  0  0  0  0  0
   -2.8583   -0.8125    0.0000 C   0  0  0  0  0  0  0  0  0  0  0  0
   -1.0083   -3.3250    0.0000 C   0  0  0  0  0  0  0  0  0  0  0  0
   -2.8583   -0.0917    0.0000 C   0  0  0  0  0  0  0  0  0  0  0  0
  3  6  1  0
  4  3  1  0
  5 19  1  0
  6 13  1  0
  7  2  1  0
  8 21  1  0
  9  4  2  0
 10  2  1  0
 11  2  1  0
 12 14  1  0
 13 15  2  0
 14  8  2  0
 15  8  1  0
 16  7  1  0
 17  7  1  0
 18 16  1  0
 19 17  1  0
 20  2  1  0
 21 28  1  0
 22  4  1  0
 23  5  1  0
 24 21  1  0
 25  3  1  0
 26  3  1  0
 27 23  1  0
 28 27  1  0
 29 10  2  0
 30 10  1  0
 31 11  2  0
 32 11  1  0
 33 31  1  0
 34 32  2  0
 35 29  1  0
 36 30  2  0
 37 34  1  0
 38 35  2  0
 18  5  1  0
 33 37  2  0
 36 38  1  0
 12  6  2  0
M  END
> <chembl_id>
CHEMBL1200618

> <chembl_pref_name>
FEXOFENADINE HYDROCHLORIDE
