
     RDKit          2D

 26 26  0  0  0  0  0  0  0  0999 V2000
   12.7667   -6.5542    0.0000 Br  0  0  0  0  0  0  0  0  0  0  0  0
    9.7917   -5.6917    0.0000 C   0  0  0  0  0  0  0  0  0  0  0  0
   10.4167   -5.3375    0.0000 C   0  0  0  0  0  0  0  0  0  0  0  0
   12.8667   -5.3375    0.0000 N   0  0  0  0  0  0  0  0  0  0  0  0
   10.4250   -4.6292    0.0000 O   0  0  0  0  0  0  0  0  0  0  0  0
    9.1792   -5.3292    0.0000 C   0  0  0  0  0  0  0  0  0  0  0  0
    9.4292   -6.3042    0.0000 C   0  0  0  0  0  0  0  0  0  0  0  0
   10.1417   -6.3042    0.0000 O   0  0  0  0  0  0  0  0  0  0  0  0
   11.0292   -5.6917    0.0000 O   0  0  0  0  0  0  0  0  0  0  0  0
   11.6417   -5.3375    0.0000 C   0  0  0  0  0  0  0  0  0  0  0  0
   12.2542   -5.6917    0.0000 C   0  0  0  0  0  0  0  0  0  0  0  0
   13.2167   -4.7167    0.0000 C   0  0  0  0  0  0  0  0  0  0  0  0
   12.5042   -4.7167    0.0000 C   0  0  0  0  0  0  0  0  0  0  0  0
   13.4792   -5.6917    0.0000 C   0  0  0  0  0  0  0  0  0  0  0  0
    9.1875   -4.6250    0.0000 C   0  0  0  0  0  0  0  0  0  0  0  0
    8.5667   -5.6833    0.0000 C   0  0  0  0  0  0  0  0  0  0  0  0
    8.7208   -6.2958    0.0000 C   0  0  0  0  0  0  0  0  0  0  0  0
    9.7833   -6.9167    0.0000 C   0  0  0  0  0  0  0  0  0  0  0  0
   11.8000   -4.7208    0.0000 C   0  0  0  0  0  0  0  0  0  0  0  0
   13.9250   -4.7125    0.0000 C   0  0  0  0  0  0  0  0  0  0  0  0
    7.9583   -5.3250    0.0000 C   0  0  0  0  0  0  0  0  0  0  0  0
    8.5792   -4.2667    0.0000 C   0  0  0  0  0  0  0  0  0  0  0  0
    9.4208   -7.5292    0.0000 C   0  0  0  0  0  0  0  0  0  0  0  0
    8.3625   -6.9042    0.0000 C   0  0  0  0  0  0  0  0  0  0  0  0
    7.9625   -4.6125    0.0000 C   0  0  0  0  0  0  0  0  0  0  0  0
    8.7125   -7.5250    0.0000 C   0  0  0  0  0  0  0  0  0  0  0  0
  3  2  1  0
  4 11  1  0
  5  3  2  0
  6  2  1  0
  7  2  1  0
  8  2  1  0
  9  3  1  0
 10  9  1  0
 11 10  1  0
 12  4  1  0
 13  4  1  0
 14  4  1  0
 15  6  2  0
 16  6  1  0
 17  7  1  0
 18  7  1  0
 19 13  1  0
 20 12  1  0
 21 16  2  0
 22 15  1  0
 23 18  1  0
 24 17  1  0
 25 21  1  0
 26 23  1  0
 26 24  1  0
 25 22  2  0
M  CHG  2   1  -1   4   1
M  END
> <chembl_id>
CHEMBL1200906

> <chembl_pref_name>
OXYPHENONIUM BROMIDE
