
     RDKit          2D

 25 28  0  0  1  0  0  0  0  0999 V2000
   -0.3833   -2.6417    0.0000 C   0  0  0  0  0  0  0  0  0  0  0  0
   -0.3833   -3.3292    0.0000 C   0  0  0  0  0  0  0  0  0  0  0  0
    1.4500   -1.5667    0.0000 C   0  0  0  0  0  0  0  0  0  0  0  0
    0.2250   -2.2750    0.0000 C   0  0  0  0  0  0  0  0  0  0  0  0
    0.8250   -2.6417    0.0000 C   0  0  0  0  0  0  0  0  0  0  0  0
    1.4500   -2.2750    0.0000 C   0  0  0  0  0  0  0  0  0  0  0  0
   -1.0083   -2.2750    0.0000 C   0  0  0  0  0  0  0  0  0  0  0  0
    2.0667   -1.2167    0.0000 O   0  0  0  0  0  0  0  0  0  0  0  0
   -1.0083   -3.7000    0.0000 C   0  0  0  0  0  0  0  0  0  0  0  0
    2.6792   -1.5667    0.0000 C   0  0  0  0  0  0  0  0  0  0  0  0
    0.2250   -1.5792    0.0000 C   0  0  0  0  0  0  0  0  0  0  0  0
    0.8250   -3.3542    0.0000 C   0  0  0  0  0  0  0  0  0  0  0  0
   -1.6083   -2.6417    0.0000 C   0  0  0  0  0  0  0  0  0  0  0  0
   -1.6083   -3.3292    0.0000 C   0  0  0  0  0  0  0  0  0  0  0  0
    2.0667   -2.6417    0.0000 C   0  0  0  0  0  0  0  0  0  0  0  0
    0.8500   -1.2000    0.0000 C   0  0  0  0  0  0  0  0  0  0  0  0
    0.2250   -3.7000    0.0000 C   0  0  0  0  0  0  0  0  0  0  0  0
    3.3042   -1.2000    0.0000 O   0  0  0  0  0  0  0  0  0  0  0  0
   -2.2333   -3.7000    0.0000 O   0  0  0  0  0  0  0  0  0  0  0  0
    2.6792   -2.2750    0.0000 C   0  0  0  0  0  0  0  0  0  0  0  0
   -0.4125   -1.9250    0.0000 C   0  0  0  0  0  0  0  0  0  0  0  0
    1.4417   -0.8500    0.0000 C   0  0  0  0  0  0  0  0  0  0  0  0
    0.3167   -2.9667    0.0000 H   0  0  0  0  0  0  0  0  0  0  0  0
    0.8500   -1.9125    0.0000 H   0  0  0  0  0  0  0  0  0  0  0  0
    1.4667   -2.9875    0.0000 H   0  0  0  0  0  0  0  0  0  0  0  0
  2  1  1  0
  3 16  1  0
  4  1  1  0
  5  4  1  0
  6  5  1  0
  7  1  1  0
  8  3  1  0
  9  2  2  0
 10  8  1  0
 11  4  1  0
 12  5  1  0
 13  7  2  0
 14 13  1  0
 15  6  1  0
 16 11  1  0
 17  2  1  0
 18 10  2  0
 19 14  2  0
 20 15  1  0
  1 21  1  1
  3 22  1  1
  4 23  1  6
  5 24  1  1
  6 25  1  6
 12 17  1  0
 14  9  1  0
  3  6  1  0
 10 20  1  0
M  END
> <chembl_id>
CHEMBL1571

> <chembl_pref_name>
TESTOLACTONE
