
     RDKit          2D

 14 14  0  0  0  0  0  0  0  0999 V2000
    1.3792    0.6500    0.0000 C   0  0  0  0  0  0  0  0  0  0  0  0
    0.8417   -0.3417    0.0000 C   0  0  0  0  0  0  0  0  0  0  0  0
    2.5667    0.6708    0.0000 O   0  0  0  0  0  0  0  0  0  0  0  0
   -0.2958   -0.3417    0.0000 C   0  0  0  0  0  0  0  0  0  0  0  0
    1.4250   -1.3292    0.0000 C   0  0  0  0  0  0  0  0  0  0  0  0
   -0.2583   -2.3292    0.0000 C   0  0  0  0  0  0  0  0  0  0  0  0
    0.7792    1.6333    0.0000 O   0  0  0  0  0  0  0  0  0  0  0  0
   -0.8125   -3.3042    0.0000 N   0  0  0  0  0  0  0  0  0  0  0  0
    0.8667   -2.3292    0.0000 C   0  0  0  0  0  0  0  0  0  0  0  0
   -0.8583   -1.3292    0.0000 C   0  0  0  0  0  0  0  0  0  0  0  0
   -0.3333    1.6333    0.0000 C   0  0  0  0  0  0  0  0  0  0  0  0
   -0.9333    2.6125    0.0000 C   0  0  0  0  0  0  0  0  0  0  0  0
   -2.0958    2.6125    0.0000 C   0  0  0  0  0  0  0  0  0  0  0  0
   -2.6958    3.5958    0.0000 C   0  0  0  0  0  0  0  0  0  0  0  0
  2  1  1  0
  3  1  2  0
  4  2  1  0
  5  2  2  0
  6  9  2  0
  7  1  1  0
  8  6  1  0
  9  5  1  0
 10  4  2  0
 11  7  1  0
 12 11  1  0
 13 12  1  0
 14 13  1  0
 10  6  1  0
M  END
> <chembl_id>
CHEMBL127516

> <chembl_pref_name>
BUTAMBEN
