
     RDKit          2D

 44 48  0  0  0  0  0  0  0  0999 V2000
    4.7028    0.8515    0.0000 C   0  0  0  0  0  0  0  0  0  0  0  0
    4.8990    0.0488    0.0000 C   0  0  0  0  0  0  0  0  0  0  0  0
    5.6906   -0.1812    0.0000 O   0  0  0  0  0  0  0  0  0  0  0  0
    5.8868   -0.9839    0.0000 N   0  0  0  0  0  0  0  0  0  0  0  0
    6.6765   -1.2103    0.0000 C   0  0  0  0  0  0  0  0  0  0  0  0
    6.8726   -2.0129    0.0000 C   0  0  0  0  0  0  0  0  0  0  0  0
    7.6366   -2.3248    0.0000 N   0  0  0  0  0  0  0  0  0  0  0  0
    7.5770   -3.1438    0.0000 S   0  0  0  0  0  0  0  0  0  0  0  0
    6.7742   -3.3399    0.0000 C   0  0  0  0  0  0  0  0  0  0  0  0
    6.3428   -2.6390    0.0000 N   0  0  0  0  0  0  0  0  0  0  0  0
    6.4660   -4.1019    0.0000 N   0  0  0  0  0  0  0  0  0  0  0  0
    5.6499   -4.2157    0.0000 P   0  0  0  0  0  0  0  0  0  0  0  0
    5.5361   -3.3996    0.0000 O   0  0  0  0  0  0  0  0  0  0  0  0
    5.7581   -5.0302    0.0000 O   0  0  0  0  0  0  0  0  0  0  0  0
    4.8319   -4.3259    0.0000 O   0  0  0  0  0  0  0  0  0  0  0  0
    7.2742   -0.6412    0.0000 C   0  0  0  0  0  0  0  0  0  0  0  0
    7.0745    0.1595    0.0000 O   0  0  0  0  0  0  0  0  0  0  0  0
    8.0623   -0.8733    0.0000 N   0  0  0  0  0  0  0  0  0  0  0  0
    8.6580   -0.3007    0.0000 C   0  0  0  0  0  0  0  0  0  0  0  0
    9.4994    0.5076    0.0000 N   0  0  0  0  0  0  0  0  0  0  0  0
    8.6746    0.5242    0.0000 C   0  0  0  0  0  0  0  0  0  0  0  0
    8.1039    1.1162    0.0000 O   0  0  0  0  0  0  0  0  0  0  0  0
   10.2213    0.9043    0.0000 C   0  0  0  0  0  0  0  0  0  0  0  0
   10.9266    0.4764    0.0000 C   0  0  0  0  0  0  0  0  0  0  0  0
   10.9099   -0.3484    0.0000 C   0  0  0  0  0  0  0  0  0  0  0  0
   10.1882   -0.7451    0.0000 S   0  0  0  0  0  0  0  0  0  0  0  0
   11.6485    0.8733    0.0000 S   0  0  0  0  0  0  0  0  0  0  0  0
   12.3538    0.4454    0.0000 C   0  0  0  0  0  0  0  0  0  0  0  0
   13.1104    0.7646    0.0000 N   0  0  0  0  0  0  0  0  0  0  0  0
   13.6490    0.1423    0.0000 C   0  0  0  0  0  0  0  0  0  0  0  0
   13.2210   -0.5631    0.0000 C   0  0  0  0  0  0  0  0  0  0  0  0
   12.4213   -0.3773    0.0000 S   0  0  0  0  0  0  0  0  0  0  0  0
   14.4715    0.2098    0.0000 C   0  0  0  0  0  0  0  0  0  0  0  0
   14.8206    0.9539    0.0000 C   0  0  0  0  0  0  0  0  0  0  0  0
   15.6410    1.0251    0.0000 C   0  0  0  0  0  0  0  0  0  0  0  0
   16.1109    0.3464    0.0000 N   0  0  0  0  0  0  0  0  0  0  0  0
   15.7618   -0.3978    0.0000 C   0  0  0  0  0  0  0  0  0  0  0  0
   14.9393   -0.4653    0.0000 C   0  0  0  0  0  0  0  0  0  0  0  0
   16.9314    0.4176    0.0000 C   0  0  0  0  0  0  0  0  0  0  0  0
   10.2399    1.7256    0.0000 C   0  0  0  0  0  0  0  0  0  0  0  0
    9.5346    2.1534    0.0000 O   0  0  0  0  0  0  0  0  0  0  0  0
   10.9618    2.1224    0.0000 O   0  0  0  0  0  0  0  0  0  0  0  0
    9.4828   -0.3173    0.0000 C   0  0  0  0  0  0  0  0  0  0  0  0
    9.4828   -1.1423    0.0000 H   0  0  0  0  0  0  0  0  0  0  0  0
  1  2  1  0
  2  3  1  0
  3  4  1  0
  4  5  2  0
  5  6  1  0
  6  7  2  0
  7  8  1  0
  8  9  1  0
  9 10  2  0
  6 10  1  0
  9 11  1  0
 11 12  1  0
 12 13  2  0
 12 14  1  0
 12 15  1  0
  5 16  1  0
 16 17  2  0
 16 18  1  0
 19 18  1  6
 19 43  1  0
 43 20  1  0
 20 21  1  0
 19 21  1  0
 21 22  2  0
 20 23  1  0
 23 24  2  0
 24 25  1  0
 25 26  1  0
 43 26  1  0
 24 27  1  0
 27 28  1  0
 28 29  2  0
 29 30  1  0
 30 31  2  0
 31 32  1  0
 28 32  1  0
 30 33  1  0
 33 34  2  0
 34 35  1  0
 35 36  2  0
 36 37  1  0
 37 38  2  0
 33 38  1  0
 36 39  1  0
 23 40  1  0
 40 41  2  0
 40 42  1  0
 43 44  1  1
M  CHG  2  36   1  42  -1
M  END
> <chembl_id>
CHEMBL501122

> <chembl_pref_name>
CEFTAROLINE FOSAMIL
