
     RDKit          2D

 32 34  0  0  0  0  0  0  0  0999 V2000
   -5.0042    3.0208    0.0000 C   0  0  0  0  0  0  0  0  0  0  0  0
   -5.7208    2.6083    0.0000 C   0  0  0  0  0  0  0  0  0  0  0  0
   -4.2917    2.6083    0.0000 C   0  0  0  0  0  0  0  0  0  0  0  0
   -3.5750   -1.9292    0.0000 C   0  0  0  0  0  0  0  0  0  0  0  0
   -3.5750    1.3708    0.0000 C   0  0  0  0  0  0  0  0  0  0  0  0
   -6.4292    3.0208    0.0000 N   0  0  0  0  0  0  0  0  0  0  0  0
   -4.2917    1.7833    0.0000 N   0  0  0  0  0  0  0  0  0  0  0  0
   -6.4292    3.8458    0.0000 C   0  0  0  0  0  0  0  0  0  0  0  0
   -7.1458    4.2542    0.0000 N   0  0  0  0  0  0  0  0  0  0  0  0
   -3.5750   -1.1042    0.0000 C   0  0  0  0  0  0  0  0  0  0  0  0
   -2.8625   -2.3417    0.0000 N   0  0  0  0  0  0  0  0  0  0  0  0
   -3.5750    0.5458    0.0000 C   0  0  0  0  0  0  0  0  0  0  0  0
   -5.0042    3.8458    0.0000 C   0  0  0  0  0  0  0  0  0  0  0  0
   -4.2917   -2.3417    0.0000 N   0  0  0  0  0  0  0  0  0  0  0  0
   -5.7208    1.7833    0.0000 O   0  0  0  0  0  0  0  0  0  0  0  0
   -2.8625    1.7833    0.0000 O   0  0  0  0  0  0  0  0  0  0  0  0
   -3.5750    3.0208    0.0000 C   0  0  0  0  0  0  0  0  0  0  0  0
   -2.8625   -0.6917    0.0000 C   0  0  0  0  0  0  0  0  0  0  0  0
   -4.2917   -0.6917    0.0000 C   0  0  0  0  0  0  0  0  0  0  0  0
   -2.8625    0.1333    0.0000 C   0  0  0  0  0  0  0  0  0  0  0  0
   -4.2917    0.1333    0.0000 C   0  0  0  0  0  0  0  0  0  0  0  0
   -7.1458    5.0792    0.0000 C   0  0  0  0  0  0  0  0  0  0  0  0
   -4.2917    4.2542    0.0000 C   0  0  0  0  0  0  0  0  0  0  0  0
   -6.4292    5.4917    0.0000 C   0  0  0  0  0  0  0  0  0  0  0  0
   -5.7208    4.2542    0.0000 C   0  0  0  0  0  0  0  0  0  0  0  0
   -3.5750    3.8458    0.0000 C   0  0  0  0  0  0  0  0  0  0  0  0
   -6.4292    6.3167    0.0000 Cl  0  0  0  0  0  0  0  0  0  0  0  0
   -5.7208    5.0792    0.0000 C   0  0  0  0  0  0  0  0  0  0  0  0
   -4.2917    5.0792    0.0000 O   0  0  0  0  0  0  0  0  0  0  0  0
   -5.0042   -1.9292    0.0000 C   0  0  0  0  0  0  0  0  0  0  0  0
   -4.2917   -3.1667    0.0000 C   0  0  0  0  0  0  0  0  0  0  0  0
   -5.0042    5.4917    0.0000 C   0  0  0  0  0  0  0  0  0  0  0  0
  2  1  1  0
  3  1  1  0
  4 10  1  0
  5  7  1  0
  6  2  1  0
  7  3  1  0
  8  6  1  0
  9  8  1  0
 10 19  1  0
 11  4  2  0
 12  5  1  0
 13  1  2  0
 14  4  1  0
 15  2  2  0
 16  5  2  0
 17  3  2  0
 18 20  1  0
 19 21  2  0
 20 12  2  0
 21 12  1  0
 22  9  2  0
 23 13  1  0
 24 22  1  0
 25  8  2  0
 26 23  2  0
 27 24  1  0
 28 25  1  0
 29 23  1  0
 30 14  1  0
 31 14  1  0
 32 29  1  0
 17 26  1  0
 24 28  2  0
 10 18  2  0
M  END
> <chembl_id>
CHEMBL512351

> <chembl_pref_name>
BETRIXABAN
