
     RDKit          2D

 19 21  0  0  0  0  0  0  0  0999 V2000
   14.3605   -8.5115    0.0000 C   0  0  0  0  0  0  0  0  0  0  0  0
   15.1867   -8.5127    0.0000 C   0  0  0  0  0  0  0  0  0  0  0  0
   15.5990   -7.7989    0.0000 C   0  0  0  0  0  0  0  0  0  0  0  0
   15.1862   -7.0835    0.0000 C   0  0  0  0  0  0  0  0  0  0  0  0
   14.3569   -7.0863    0.0000 C   0  0  0  0  0  0  0  0  0  0  0  0
   13.9483   -7.8007    0.0000 C   0  0  0  0  0  0  0  0  0  0  0  0
   16.4302   -7.7959    0.0000 C   0  0  0  0  0  0  0  0  0  0  0  0
   16.9167   -8.4659    0.0000 S   0  0  0  0  0  0  0  0  0  0  0  0
   16.9171   -7.1262    0.0000 N   0  0  0  0  0  0  0  0  0  0  0  0
   17.7045   -7.3821    0.0000 C   0  0  0  0  0  0  0  0  0  0  0  0
   17.7035   -8.2071    0.0000 C   0  0  0  0  0  0  0  0  0  0  0  0
   18.4164   -8.6188    0.0000 C   0  0  0  0  0  0  0  0  0  0  0  0
   19.1308   -8.2065    0.0000 C   0  0  0  0  0  0  0  0  0  0  0  0
   19.1277   -7.3783    0.0000 C   0  0  0  0  0  0  0  0  0  0  0  0
   18.4143   -6.9704    0.0000 C   0  0  0  0  0  0  0  0  0  0  0  0
   13.1203   -7.8032    0.0000 N   0  0  0  0  0  0  0  0  0  0  0  0
   12.7042   -7.0874    0.0000 C   0  0  0  0  0  0  0  0  0  0  0  0
   13.9466   -9.2288    0.0000 F   0  0  0  0  0  0  0  0  0  0  0  0
   19.8486   -8.6193    0.0000 O   0  0  0  0  0  0  0  0  0  0  0  0
  9  7  2  0
  3  7  1  0
  4  5  1  0
  2  3  1  0
 10 11  2  0
  5  6  2  0
 11 12  1  0
  6  1  1  0
 12 13  2  0
  7  8  1  0
 13 14  1  0
  1  2  2  0
 14 15  2  0
 15 10  1  0
  3  4  2  0
  6 16  1  0
 16 17  1  0
  8 11  1  0
  1 18  1  0
 10  9  1  0
 13 19  1  0
M  END
> <chembl_id>
CHEMBL579205

> <chembl_pref_name>
FLUTEMETAMOL
