
     RDKit          2D

 24 24  0  0  1  0  0  0  0  0999 V2000
    4.5250   -4.8542    0.0000 C   0  0  0  0  0  0  0  0  0  0  0  0
    5.7375   -4.8542    0.0000 C   0  0  0  0  0  0  0  0  0  0  0  0
    5.1292   -5.2042    0.0000 C   0  0  0  0  0  0  0  0  0  0  0  0
    4.5250   -4.1542    0.0000 C   0  0  0  0  0  0  0  0  0  0  0  0
    3.9042   -5.2000    0.0000 C   0  0  0  0  0  0  0  0  0  0  0  0
    5.7375   -4.1500    0.0000 C   0  0  0  0  0  0  0  0  0  0  0  0
    6.3500   -5.2042    0.0000 C   0  0  0  0  0  0  0  0  0  0  0  0
    3.9042   -3.1250    0.0000 C   0  0  0  0  0  0  0  0  0  0  0  0
    3.9167   -3.8167    0.0000 N   0  0  0  0  0  0  0  0  0  0  0  0
    3.3000   -4.8417    0.0000 N   0  0  0  0  0  0  0  0  0  0  0  0
    2.6875   -5.1792    0.0000 C   0  0  0  0  0  0  0  0  0  0  0  0
    4.5000   -2.7667    0.0000 N   0  0  0  0  0  0  0  0  0  0  0  0
    6.3417   -5.9000    0.0000 O   0  0  0  0  0  0  0  0  0  0  0  0
    2.6792   -5.7417    0.0000 O   0  0  0  0  0  0  0  0  0  0  0  0
    3.9000   -5.8917    0.0000 C   0  0  0  0  0  0  0  0  0  0  0  0
    5.1292   -5.9042    0.0000 O   0  0  0  0  0  0  0  0  0  0  0  0
    3.2875   -2.7792    0.0000 N   0  0  0  0  0  0  0  0  0  0  0  0
    6.9542   -4.8500    0.0000 O   0  0  0  0  0  0  0  0  0  0  0  0
    2.0792   -4.8167    0.0000 C   0  0  0  0  0  0  0  0  0  0  0  0
    4.5042   -6.2417    0.0000 C   0  0  0  0  0  0  0  0  0  0  0  0
    3.2875   -6.2417    0.0000 C   0  0  0  0  0  0  0  0  0  0  0  0
    4.5042   -6.8000    0.0000 C   0  0  0  0  0  0  0  0  0  0  0  0
    3.2875   -6.9500    0.0000 C   0  0  0  0  0  0  0  0  0  0  0  0
    4.5167   -5.5542    0.0000 H   0  0  0  0  0  0  0  0  0  0  0  0
  2  3  1  0
  3  1  1  0
  4  1  1  0
  5  1  1  0
  6  4  1  0
  2  7  1  6
  8  9  1  0
  4  9  1  6
  5 10  1  6
 11 10  1  0
 12  8  2  0
 13  7  2  0
 14 11  2  0
 15  5  1  0
  3 16  1  1
 17  8  1  0
 18  7  1  0
 19 11  1  0
 20 15  1  0
 21 15  1  0
 22 20  1  0
 23 21  1  0
  1 24  1  6
  2  6  1  0
M  END
> <chembl_id>
CHEMBL139367

> <chembl_pref_name>
PERAMIVIR ANHYDROUS
