
     RDKit          2D

 17 18  0  0  0  0  0  0  0  0999 V2000
    6.4667   -6.0375    0.0000 C   0  0  0  0  0  0  0  0  0  0  0  0
    7.1750   -6.0417    0.0000 N   0  0  0  0  0  0  0  0  0  0  0  0
    6.2417   -5.3667    0.0000 N   0  0  0  0  0  0  0  0  0  0  0  0
    3.6042   -4.2292    0.0000 C   0  0  0  0  0  0  0  0  0  0  0  0
    2.9917   -4.5667    0.0000 N   0  0  0  0  0  0  0  0  0  0  0  0
    7.4000   -5.3792    0.0000 C   0  0  0  0  0  0  0  0  0  0  0  0
    6.8167   -4.9542    0.0000 C   0  0  0  0  0  0  0  0  0  0  0  0
    4.1792   -4.6542    0.0000 O   0  0  0  0  0  0  0  0  0  0  0  0
    5.5667   -5.1542    0.0000 N   0  0  0  0  0  0  0  0  0  0  0  0
    3.8292   -3.5625    0.0000 C   0  0  0  0  0  0  0  0  0  0  0  0
    4.7542   -4.2417    0.0000 C   0  0  0  0  0  0  0  0  0  0  0  0
    5.4250   -4.4542    0.0000 C   0  0  0  0  0  0  0  0  0  0  0  0
    4.5417   -3.5625    0.0000 C   0  0  0  0  0  0  0  0  0  0  0  0
    2.9792   -5.2792    0.0000 O   0  0  0  0  0  0  0  0  0  0  0  0
    2.3750   -4.2250    0.0000 O   0  0  0  0  0  0  0  0  0  0  0  0
    6.0500   -6.6167    0.0000 O   0  0  0  0  0  0  0  0  0  0  0  0
    8.0750   -5.1625    0.0000 O   0  0  0  0  0  0  0  0  0  0  0  0
  2  1  1  0
  3  1  1  0
  4  8  1  0
  5  4  1  0
  6  2  1  0
  7  3  1  0
  8 11  1  0
  9  3  1  0
 10 13  1  0
 11 12  1  0
 12  9  2  0
 13 11  2  0
 14  5  1  0
 15  5  2  0
 16  1  2  0
 17  6  2  0
  6  7  1  0
 10  4  2  0
M  CHG  2   5   1  14  -1
M  END
> <chembl_id>
CHEMBL572

> <chembl_pref_name>
NITROFURANTOIN
