
     RDKit          2D

 20 20  0  0  0  0  0  0  0  0999 V2000
    5.7667  -15.6292    0.0000 Cl  0  0  0  0  0  0  0  0  0  0  0  0
    2.0500  -15.7042    0.0000 C   0  0  0  0  0  0  0  0  0  0  0  0
    1.4167  -16.0667    0.0000 S   0  0  0  0  0  0  0  0  0  0  0  0
    2.0500  -14.9792    0.0000 C   0  0  0  0  0  0  0  0  0  0  0  0
    2.7292  -15.9292    0.0000 S   0  0  0  0  0  0  0  0  0  0  0  0
    3.1625  -15.3292    0.0000 C   0  0  0  0  0  0  0  0  0  0  0  0
    3.8500  -15.3292    0.0000 S   0  0  0  0  0  0  0  0  0  0  0  0
    2.7042  -14.7667    0.0000 C   0  0  0  0  0  0  0  0  0  0  0  0
    0.8000  -15.7042    0.0000 C   0  0  0  0  0  0  0  0  0  0  0  0
    1.4167  -14.6167    0.0000 C   0  0  0  0  0  0  0  0  0  0  0  0
    0.8000  -14.9792    0.0000 C   0  0  0  0  0  0  0  0  0  0  0  0
    1.7667  -16.6792    0.0000 O   0  0  0  0  0  0  0  0  0  0  0  0
    1.0625  -16.6792    0.0000 O   0  0  0  0  0  0  0  0  0  0  0  0
    4.4625  -14.9667    0.0000 O   0  0  0  0  0  0  0  0  0  0  0  0
    3.8417  -14.6167    0.0000 O   0  0  0  0  0  0  0  0  0  0  0  0
    4.2000  -15.8792    0.0000 N   0  0  0  0  0  0  0  0  0  0  0  0
    1.4167  -13.9042    0.0000 N   0  0  0  0  0  0  0  0  0  0  0  0
    0.1875  -16.0542    0.0000 C   0  0  0  0  0  0  0  0  0  0  0  0
    2.0292  -13.5292    0.0000 C   0  0  0  0  0  0  0  0  0  0  0  0
    2.6625  -13.8875    0.0000 C   0  0  0  0  0  0  0  0  0  0  0  0
  3  2  1  0
  4  2  2  0
  5  2  1  0
  6  5  1  0
  7  6  1  0
  8  4  1  0
  9  3  1  0
 10  4  1  0
 11 10  1  0
 12  3  2  0
 13  3  2  0
 14  7  2  0
 15  7  2  0
 16  7  1  0
 10 17  1  6
  9 18  1  1
 19 17  1  0
 20 19  1  0
  8  6  2  0
  9 11  1  0
M  END
> <chembl_id>
CHEMBL1201162

> <chembl_pref_name>
DORZOLAMIDE HYDROCHLORIDE
