
     RDKit          2D

 14 13  0  0  1  0  0  0  0  0999 V2000
    2.4599    1.8293    0.0000 O   0  0  0  0  0  0  0  0  0  0  0  0
    1.2224    2.5438    0.0000 O   0  0  0  0  0  0  0  0  0  0  0  0
    4.9349    0.4004    0.0000 O   0  0  0  0  0  0  0  0  0  0  0  0
    3.6974   -0.3141    0.0000 O   0  0  0  0  0  0  0  0  0  0  0  0
    1.6349    0.4004    0.0000 N   0  0  0  0  0  0  0  0  0  0  0  0
    2.8724    1.1149    0.0000 C   0  0  0  0  0  0  0  0  0  0  0  0
    2.4599    0.4004    0.0000 C   0  0  0  0  0  0  0  0  0  0  0  0
    3.6974    1.1149    0.0000 C   0  0  0  0  0  0  0  0  0  0  0  0
    1.6349    1.8293    0.0000 C   0  0  0  0  0  0  0  0  0  0  0  0
    4.1099    0.4004    0.0000 C   0  0  0  0  0  0  0  0  0  0  0  0
    1.6349    1.2254    0.0000 C   0  0  0  0  0  0  0  0  0  0  0  0
    1.6349   -0.4246    0.0000 C   0  0  0  0  0  0  0  0  0  0  0  0
    0.8099    0.4004    0.0000 C   0  0  0  0  0  0  0  0  0  0  0  0
    1.2224    1.1149    0.0000 C   0  0  0  0  0  0  0  0  0  0  0  0
  6  1  1  6
  1  9  1  0
  2  9  2  0
  3 10  2  0
  4 10  1  0
  5  7  1  0
  5 11  1  0
  5 12  1  0
  5 13  1  0
  6  7  1  0
  6  8  1  0
  8 10  1  0
  9 14  1  0
M  CHG  2   4  -1   5   1
M  END
> <chembl_id>
CHEMBL1697733

> <chembl_pref_name>
ACETYLCARNITINE
