
     RDKit          2D

 16 16  0  0  0  0  0  0  0  0999 V2000
    1.2708   -5.5750    0.0000 C   0  0  0  0  0  0  0  0  0  0  0  0
    1.8792   -5.2125    0.0000 P   0  0  0  0  0  0  0  0  0  0  0  0
    1.6167   -6.1875    0.0000 P   0  0  0  0  0  0  0  0  0  0  0  0
    0.6542   -5.2292    0.0000 C   0  0  0  0  0  0  0  0  0  0  0  0
    0.0417   -5.5875    0.0000 N   0  0  0  0  0  0  0  0  0  0  0  0
   -1.1042   -5.5875    0.0000 N   0  0  0  0  0  0  0  0  0  0  0  0
   -0.5333   -5.1667    0.0000 C   0  0  0  0  0  0  0  0  0  0  0  0
    2.2292   -5.8292    0.0000 O   0  0  0  0  0  0  0  0  0  0  0  0
    1.5167   -4.5917    0.0000 O   0  0  0  0  0  0  0  0  0  0  0  0
    0.9125   -6.1875    0.0000 O   0  0  0  0  0  0  0  0  0  0  0  0
   -0.8875   -6.2625    0.0000 C   0  0  0  0  0  0  0  0  0  0  0  0
   -0.1750   -6.2625    0.0000 C   0  0  0  0  0  0  0  0  0  0  0  0
    2.2292   -6.5417    0.0000 O   0  0  0  0  0  0  0  0  0  0  0  0
    2.4958   -5.5583    0.0000 O   0  0  0  0  0  0  0  0  0  0  0  0
    2.2292   -4.5917    0.0000 O   0  0  0  0  0  0  0  0  0  0  0  0
    1.2625   -6.7958    0.0000 O   0  0  0  0  0  0  0  0  0  0  0  0
  2  1  1  0
  3  1  1  0
  4  1  1  0
  5  4  1  0
  6  7  2  0
  7  5  1  0
  8  3  2  0
  9  2  2  0
 10  1  1  0
 11 12  2  0
 12  5  1  0
 13  3  1  0
 14  2  1  0
 15  2  1  0
 16  3  1  0
 11  6  1  0
M  END
> <chembl_id>
CHEMBL924

> <chembl_pref_name>
ZOLEDRONIC ACID ANHYDROUS
