
     RDKit          2D

  5  3  0  0  0  0  0  0  0  0999 V2000
   -2.1208   -2.1125    0.0000 K   0  0  0  0  0 15  0  0  0  0  0  0
    1.1292    0.7083    0.0000 C   0  0  0  0  0  0  0  0  0  0  0  0
   -0.1458   -0.0250    0.0000 O   0  0  0  0  0  0  0  0  0  0  0  0
    1.1667    2.2083    0.0000 O   0  0  0  0  0  0  0  0  0  0  0  0
    2.1917   -0.0667    0.0000 O   0  0  0  0  0  0  0  0  0  0  0  0
  3  2  1  0
  4  2  2  0
  5  2  1  0
M  CHG  2   1   1   3  -1
M  END
> <chembl_id>
CHEMBL2106975

> <chembl_pref_name>
POTASSIUM BICARBONATE
