
     RDKit          2D

 15 15  0  0  0  0  0  0  0  0999 V2000
    4.7149   -7.2428    0.0000 O   0  0  0  0  0  0  0  0  0  0  0  0
    4.0380   -5.7090    0.0000 C   0  0  0  0  0  0  0  0  0  0  0  0
    4.7149   -5.2309    0.0000 O   0  0  0  0  0  0  0  0  0  0  0  0
    3.3232   -4.4499    0.0000 N   0  0  0  0  0  0  0  0  0  0  0  0
    5.0984   -6.5091    0.0000 S   0  0  0  0  0  0  0  0  0  0  0  0
    4.0380   -4.8617    0.0000 C   0  0  0  0  0  0  0  0  0  0  0  0
    4.3031   -6.5091    0.0000 C   0  0  0  0  0  0  0  0  0  0  0  0
    5.3730   -5.7232    0.0000 C   0  0  0  0  0  0  0  0  0  0  0  0
    3.3232   -6.1209    0.0000 C   0  0  0  0  0  0  0  0  0  0  0  0
    3.6120   -5.4960    0.0000 C   0  0  0  0  0  0  0  0  0  0  0  0
    2.6131   -5.7090    0.0000 C   0  0  0  0  0  0  0  0  0  0  0  0
    2.6131   -4.8901    0.0000 C   0  0  0  0  0  0  0  0  0  0  0  0
    3.0297   -5.1410    0.0000 C   0  0  0  0  0  0  0  0  0  0  0  0
    6.1635   -5.3019    0.0000 C   0  0  0  0  0  0  0  0  0  0  0  0
    3.7918   -7.2760    0.0000 Cl  0  0  0  0  0  0  0  0  0  0  0  0
  3  2  1  0
  4  6  1  0
  5  7  1  0
  2  6  1  0
  7  2  1  0
  8  3  1  0
  9  2  1  0
 10  9  1  0
 11  9  1  0
 12 11  1  0
 13 10  1  0
  8 14  1  0
  8  5  1  0
 12  4  1  0
 13  4  1  0
M  END
> <chembl_id>
CHEMBL2218917

> <chembl_pref_name>
CEVIMELINE HYDROCHLORIDE
