
     RDKit          2D

 23 22  0  0  0  0  0  0  0  0999 V2000
    7.6998   -2.2554    0.0000 Cl  0  0  0  0  0  0  0  0  0  0  0  0
    3.8933   -3.7570    0.0000 C   0  0  0  0  0  0  0  0  0  0  0  0
    4.9336   -3.1588    0.0000 N   0  0  0  0  0  0  0  0  0  0  0  0
    2.5951   -3.0039    0.0000 C   0  0  0  0  0  0  0  0  0  0  0  0
    1.2990   -0.7500    0.0000 C   0  0  0  0  0  0  0  0  0  0  0  0
   -1.2990    0.7500    0.0000 C   0  0  0  0  0  0  0  0  0  0  0  0
    2.5973   -1.5031    0.0000 C   0  0  0  0  0  0  0  0  0  0  0  0
    1.2990    0.7500    0.0000 C   0  0  0  0  0  0  0  0  0  0  0  0
    0.0000   -1.5000    0.0000 C   0  0  0  0  0  0  0  0  0  0  0  0
    0.0000    1.5000    0.0000 C   0  0  0  0  0  0  0  0  0  0  0  0
   -1.2990   -0.7500    0.0000 C   0  0  0  0  0  0  0  0  0  0  0  0
    3.8912   -5.2578    0.0000 C   0  0  0  0  0  0  0  0  0  0  0  0
    3.8982   -2.2270    0.0000 C   0  0  0  0  0  0  0  0  0  0  0  0
    4.9389   -1.6297    0.0000 O   0  0  0  0  0  0  0  0  0  0  0  0
    4.9292   -5.8600    0.0000 O   0  0  0  0  0  0  0  0  0  0  0  0
   -2.6003    1.4977    0.0000 C   0  0  0  0  0  0  0  0  0  0  0  0
   -3.8990    0.7455    0.0000 C   0  0  0  0  0  0  0  0  0  0  0  0
  -10.4003    1.4841    0.0000 C   0  0  0  0  0  0  0  0  0  0  0  0
   -9.0990    0.7364    0.0000 C   0  0  0  0  0  0  0  0  0  0  0  0
   -5.2003    1.4932    0.0000 C   0  0  0  0  0  0  0  0  0  0  0  0
   -6.4990    0.7409    0.0000 C   0  0  0  0  0  0  0  0  0  0  0  0
   -7.8003    1.4887    0.0000 C   0  0  0  0  0  0  0  0  0  0  0  0
  -11.4386    0.8826    0.0000 C   0  0  0  0  0  0  0  0  0  0  0  0
  2  3  1  0
  2  4  1  0
  4  7  1  0
  5  7  1  0
  5  8  2  0
  5  9  1  0
  6 10  2  0
  8 10  1  0
  6 11  1  0
  9 11  2  0
  2 12  1  0
  2 13  1  0
 13 14  1  0
 12 15  1  0
  6 16  1  0
 16 17  1  0
 18 19  1  0
 17 20  1  0
 20 21  1  0
 19 22  1  0
 21 22  1  0
 18 23  1  0
M  END
> <chembl_id>
CHEMBL544665

> <chembl_pref_name>
FINGOLIMOD HYDROCHLORIDE
