
     RDKit          2D

 12 13  0  0  1  0  0  0  0  0999 V2000
    3.3250   -3.3500    0.0000 N   0  0  0  0  0  0  0  0  0  0  0  0
    2.7500   -3.7500    0.0000 C   0  0  0  0  0  0  0  0  0  0  0  0
    2.1417   -3.3917    0.0000 C   0  0  0  0  0  0  0  0  0  0  0  0
    0.9042   -3.3792    0.0000 N   0  0  0  0  0  0  0  0  0  0  0  0
    1.5167   -3.7417    0.0000 C   0  0  0  0  0  0  0  0  0  0  0  0
    3.9042   -3.7750    0.0000 C   0  0  0  0  0  0  0  0  0  0  0  0
    3.3375   -2.6375    0.0000 C   0  0  0  0  0  0  0  0  0  0  0  0
    2.9542   -4.4292    0.0000 C   0  0  0  0  0  0  0  0  0  0  0  0
    3.6667   -4.4417    0.0000 C   0  0  0  0  0  0  0  0  0  0  0  0
    2.1417   -2.6875    0.0000 C   0  0  0  0  0  0  0  0  0  0  0  0
    0.9125   -2.6625    0.0000 C   0  0  0  0  0  0  0  0  0  0  0  0
    1.5292   -2.3250    0.0000 C   0  0  0  0  0  0  0  0  0  0  0  0
  2  1  1  0
  2  3  1  1
  4  5  2  0
  5  3  1  0
  6  1  1  0
  7  1  1  0
  8  2  1  0
  9  6  1  0
 10  3  2  0
 11 12  2  0
 12 10  1  0
  9  8  1  0
 11  4  1  0
M  END
> <chembl_id>
CHEMBL3

> <chembl_pref_name>
NICOTINE
