
     RDKit          2D

 21 22  0  0  0  0  0  0  0  0999 V2000
   -0.2583   -3.5917    0.0000 Cl  0  0  0  0  0  0  0  0  0  0  0  0
    2.4917   -2.5917    0.0000 C   0  0  0  0  0  0  0  0  0  0  0  0
    2.4917   -1.8875    0.0000 C   0  0  0  0  0  0  0  0  0  0  0  0
    3.1667   -1.6625    0.0000 N   0  0  0  0  0  0  0  0  0  0  0  0
    3.1667   -2.8167    0.0000 C   0  0  0  0  0  0  0  0  0  0  0  0
    1.8792   -2.9542    0.0000 C   0  0  0  0  0  0  0  0  0  0  0  0
    3.5875   -2.2417    0.0000 C   0  0  0  0  0  0  0  0  0  0  0  0
    1.2667   -2.5917    0.0000 C   0  0  0  0  0  0  0  0  0  0  0  0
    0.0292   -2.5917    0.0000 N   0  0  0  0  0  0  0  0  0  0  0  0
    0.6417   -2.9542    0.0000 C   0  0  0  0  0  0  0  0  0  0  0  0
    1.8792   -1.5292    0.0000 C   0  0  0  0  0  0  0  0  0  0  0  0
    1.8792   -3.6542    0.0000 O   0  0  0  0  0  0  0  0  0  0  0  0
    1.2667   -1.8875    0.0000 C   0  0  0  0  0  0  0  0  0  0  0  0
   -1.1958   -1.8625    0.0000 O   0  0  0  0  0  0  0  0  0  0  0  0
    3.3917   -3.4917    0.0000 C   0  0  0  0  0  0  0  0  0  0  0  0
    0.0292   -1.8792    0.0000 C   0  0  0  0  0  0  0  0  0  0  0  0
   -0.5958   -2.9417    0.0000 C   0  0  0  0  0  0  0  0  0  0  0  0
    4.2792   -2.2417    0.0000 C   0  0  0  0  0  0  0  0  0  0  0  0
   -0.5833   -1.5125    0.0000 C   0  0  0  0  0  0  0  0  0  0  0  0
   -1.1958   -2.5792    0.0000 C   0  0  0  0  0  0  0  0  0  0  0  0
    4.0875   -3.6417    0.0000 C   0  0  0  0  0  0  0  0  0  0  0  0
  3  2  2  0
  4  3  1  0
  5  2  1  0
  6  2  1  0
  7  5  2  0
  8  6  1  0
  9 10  1  0
 10  8  1  0
 11  3  1  0
 12  6  2  0
 13  8  1  0
 14 19  1  0
 15  5  1  0
 16  9  1  0
 17  9  1  0
 18  7  1  0
 19 16  1  0
 20 17  1  0
 21 15  1  0
  7  4  1  0
 13 11  1  0
 14 20  1  0
M  END
> <chembl_id>
CHEMBL1200419

> <chembl_pref_name>
MOLINDONE HYDROCHLORIDE
