
     RDKit          2D

 25 27  0  0  0  0  0  0  0  0999 V2000
   -0.9321   -2.0382    0.0000 C   0  0  0  0  0  0  0  0  0  0  0  0
   -1.5758    0.8682    0.0000 C   0  0  0  0  0  0  0  0  0  0  0  0
   -0.2104   -1.6403    0.0000 C   0  0  0  0  0  0  0  0  0  0  0  0
   -0.9555   -2.8574    0.0000 C   0  0  0  0  0  0  0  0  0  0  0  0
   -0.1870   -0.8210    0.0000 N   0  0  0  0  0  0  0  0  0  0  0  0
   -1.6733   -3.2554    0.0000 C   0  0  0  0  0  0  0  0  0  0  0  0
   -1.6343   -1.6052    0.0000 C   0  0  0  0  0  0  0  0  0  0  0  0
   -0.2533   -3.2905    0.0000 N   0  0  0  0  0  0  0  0  0  0  0  0
   -2.3014    0.4781    0.0000 C   0  0  0  0  0  0  0  0  0  0  0  0
   -0.8735    0.4430    0.0000 C   0  0  0  0  0  0  0  0  0  0  0  0
   -1.5446    1.6953    0.0000 C   0  0  0  0  0  0  0  0  0  0  0  0
   -0.8892   -0.3880    0.0000 C   0  0  0  0  0  0  0  0  0  0  0  0
   -2.3248   -0.3529    0.0000 C   0  0  0  0  0  0  0  0  0  0  0  0
   -2.3833   -2.8223    0.0000 C   0  0  0  0  0  0  0  0  0  0  0  0
   -0.8150    2.0815    0.0000 N   0  0  0  0  0  0  0  0  0  0  0  0
    0.4958   -2.0733    0.0000 C   0  0  0  0  0  0  0  0  0  0  0  0
   -2.3599   -2.0031    0.0000 C   0  0  0  0  0  0  0  0  0  0  0  0
    0.4724   -2.8926    0.0000 C   0  0  0  0  0  0  0  0  0  0  0  0
   -1.6226   -0.7859    0.0000 C   0  0  0  0  0  0  0  0  0  0  0  0
   -3.1089   -3.2280    0.0000 Cl  0  0  0  0  0  0  0  0  0  0  0  0
   -3.0153    0.9111    0.0000 O   0  0  0  0  0  0  0  0  0  0  0  0
   -0.1167    1.6367    0.0000 C   0  0  0  0  0  0  0  0  0  0  0  0
   -0.7916    2.9047    0.0000 C   0  0  0  0  0  0  0  0  0  0  0  0
   -0.1362    1.0164    0.0000 C   0  0  0  0  0  0  0  0  0  0  0  0
   -0.0582    3.2869    0.0000 C   0  0  0  0  0  0  0  0  0  0  0  0
  2 10  1  0
  3  1  2  0
  4  1  1  0
  5  3  1  0
  6  4  1  0
  7  1  1  0
  8  4  2  0
  9 13  1  0
 10 12  2  0
 11  2  1  0
 12  5  1  0
 13 19  2  0
 14 17  1  0
 15 11  1  0
 16  3  1  0
 17  7  2  0
 18  8  1  0
 19 12  1  0
 20 14  1  0
 21  9  1  0
 22 15  1  0
 23 15  1  0
 24 22  1  0
 25 23  1  0
  6 14  2  0
 16 18  2  0
  2  9  2  0
M  END
> <chembl_id>
CHEMBL682

> <chembl_pref_name>
AMODIAQUINE
