
     RDKit          2D

 27 30  0  0  0  0  0  0  0  0999 V2000
    3.0123    8.4105    0.0000 C   0  0  0  0  0  0  0  0  0  0  0  0
    3.6443    8.9408    0.0000 C   0  0  0  0  0  0  0  0  0  0  0  0
    4.4195    8.6586    0.0000 C   0  0  0  0  0  0  0  0  0  0  0  0
    4.5628    7.8462    0.0000 C   0  0  0  0  0  0  0  0  0  0  0  0
    3.9308    7.3159    0.0000 C   0  0  0  0  0  0  0  0  0  0  0  0
    3.1556    7.5980    0.0000 N   0  0  0  0  0  0  0  0  0  0  0  0
    4.0741    6.5034    0.0000 C   0  0  0  0  0  0  0  0  0  0  0  0
    4.4866    5.7889    0.0000 C   0  0  0  0  0  0  0  0  0  0  0  0
    4.0741    5.0745    0.0000 C   0  0  0  0  0  0  0  0  0  0  0  0
    3.2491    5.0745    0.0000 O   0  0  0  0  0  0  0  0  0  0  0  0
    2.8366    5.7889    0.0000 C   0  0  0  0  0  0  0  0  0  0  0  0
    3.2491    6.5034    0.0000 C   0  0  0  0  0  0  0  0  0  0  0  0
    4.8493    6.7856    0.0000 C   0  0  0  0  0  0  0  0  0  0  0  0
    5.4813    6.2553    0.0000 C   0  0  0  0  0  0  0  0  0  0  0  0
    6.2566    6.5374    0.0000 N   0  0  0  0  0  0  0  0  0  0  0  0
    6.8885    6.0071    0.0000 C   0  0  0  0  0  0  0  0  0  0  0  0
    7.6638    6.2893    0.0000 C   0  0  0  0  0  0  0  0  0  0  0  0
    7.8912    7.0823    0.0000 S   0  0  0  0  0  0  0  0  0  0  0  0
    8.7157    7.1111    0.0000 C   0  0  0  0  0  0  0  0  0  0  0  0
    8.9979    6.3359    0.0000 C   0  0  0  0  0  0  0  0  0  0  0  0
    8.3477    5.8280    0.0000 C   0  0  0  0  0  0  0  0  0  0  0  0
    8.3765    5.0035    0.0000 O   0  0  0  0  0  0  0  0  0  0  0  0
    9.1050    4.6162    0.0000 C   0  0  0  0  0  0  0  0  0  0  0  0
    2.3517    6.4564    0.0000 C   0  0  0  0  0  0  0  0  0  0  0  0
    2.3517    5.1215    0.0000 C   0  0  0  0  0  0  0  0  0  0  0  0
    1.5670    5.3764    0.0000 C   0  0  0  0  0  0  0  0  0  0  0  0
    1.5670    6.2014    0.0000 C   0  0  0  0  0  0  0  0  0  0  0  0
  1  2  1  0
  1  6  2  0
  2  3  2  0
  3  4  1  0
  4  5  2  0
  5  6  1  0
  7  5  1  6
  7  8  1  0
 12  7  1  0
  8  9  1  0
  9 10  1  0
 10 11  1  0
 11 12  1  0
  7 13  1  1
 13 14  1  0
 14 15  1  0
 15 16  1  0
 16 17  1  0
 17 18  1  0
 17 21  2  0
 18 19  1  0
 19 20  2  0
 20 21  1  0
 21 22  1  0
 22 23  1  0
 24 11  1  0
 11 25  1  0
 25 26  1  0
 26 27  1  0
 24 27  1  0
M  END
> <chembl_id>
CHEMBL2443262

> <chembl_pref_name>
OLICERIDINE
