
     RDKit          2D

 21 22  0  0  0  0  0  0  0  0999 V2000
    0.5208   -4.8833    0.0000 S   0  0  0  0  0  0  0  0  0  0  0  0
    1.1375   -4.5292    0.0000 N   0  0  0  0  0  0  0  0  0  0  0  0
    1.7500   -4.8792    0.0000 C   0  0  0  0  0  0  0  0  0  0  0  0
    1.7458   -5.5875    0.0000 C   0  0  0  0  0  0  0  0  0  0  0  0
    2.3583   -4.5208    0.0000 N   0  0  0  0  0  0  0  0  0  0  0  0
    2.3625   -5.9375    0.0000 C   0  0  0  0  0  0  0  0  0  0  0  0
    2.9750   -5.5833    0.0000 N   0  0  0  0  0  0  0  0  0  0  0  0
   -0.0917   -4.5292    0.0000 C   0  0  0  0  0  0  0  0  0  0  0  0
    0.1625   -5.4917    0.0000 O   0  0  0  0  0  0  0  0  0  0  0  0
    0.8667   -5.4917    0.0000 O   0  0  0  0  0  0  0  0  0  0  0  0
    2.9708   -4.8708    0.0000 C   0  0  0  0  0  0  0  0  0  0  0  0
   -0.0875   -3.8250    0.0000 C   0  0  0  0  0  0  0  0  0  0  0  0
   -0.6958   -4.8875    0.0000 C   0  0  0  0  0  0  0  0  0  0  0  0
    1.1333   -5.9417    0.0000 O   0  0  0  0  0  0  0  0  0  0  0  0
   -1.3167   -3.8250    0.0000 C   0  0  0  0  0  0  0  0  0  0  0  0
    2.3625   -6.6458    0.0000 O   0  0  0  0  0  0  0  0  0  0  0  0
   -1.9292   -3.4750    0.0000 N   0  0  0  0  0  0  0  0  0  0  0  0
   -0.7042   -3.4708    0.0000 C   0  0  0  0  0  0  0  0  0  0  0  0
   -1.3125   -4.5375    0.0000 C   0  0  0  0  0  0  0  0  0  0  0  0
    1.1333   -6.6500    0.0000 C   0  0  0  0  0  0  0  0  0  0  0  0
    1.7500   -7.0042    0.0000 C   0  0  0  0  0  0  0  0  0  0  0  0
  2  1  1  0
  3  2  1  0
  4  3  2  0
  5  3  1  0
  6  4  1  0
  7 11  1  0
  8  1  1  0
  9  1  2  0
 10  1  2  0
 11  5  2  0
 12  8  2  0
 13  8  1  0
 14  4  1  0
 15 19  1  0
 16  6  1  0
 17 15  1  0
 18 12  1  0
 19 13  2  0
 20 14  1  0
 21 16  1  0
 15 18  2  0
  7  6  2  0
M  END
> <chembl_id>
CHEMBL1539

> <chembl_pref_name>
SULFADOXINE
