
     RDKit          2D

 30 33  0  0  0  0  0  0  0  0999 V2000
   -7.6950    7.7121    0.0000 C   0  0  0  0  0  0  0  0  0  0  0  0
   -6.9805    7.2996    0.0000 C   0  0  0  0  0  0  0  0  0  0  0  0
   -6.9805    6.4746    0.0000 C   0  0  0  0  0  0  0  0  0  0  0  0
   -7.6950    6.0621    0.0000 C   0  0  0  0  0  0  0  0  0  0  0  0
   -8.4094    6.4746    0.0000 C   0  0  0  0  0  0  0  0  0  0  0  0
   -8.4094    7.2996    0.0000 C   0  0  0  0  0  0  0  0  0  0  0  0
   -9.1941    6.2197    0.0000 C   0  0  0  0  0  0  0  0  0  0  0  0
   -9.6790    6.8871    0.0000 C   0  0  0  0  0  0  0  0  0  0  0  0
   -9.1941    7.5546    0.0000 C   0  0  0  0  0  0  0  0  0  0  0  0
   -9.4490    8.3392    0.0000 N   0  0  0  0  0  0  0  0  0  0  0  0
  -10.2560    8.5107    0.0000 C   0  0  0  0  0  0  0  0  0  0  0  0
  -10.5109    9.2954    0.0000 C   0  0  0  0  0  0  0  0  0  0  0  0
  -11.3179    9.4669    0.0000 O   0  0  0  0  0  0  0  0  0  0  0  0
   -7.6950    5.2371    0.0000 C   0  0  0  0  0  0  0  0  0  0  0  0
   -7.0275    4.7522    0.0000 N   0  0  0  0  0  0  0  0  0  0  0  0
   -7.2825    3.9676    0.0000 O   0  0  0  0  0  0  0  0  0  0  0  0
   -8.1075    3.9676    0.0000 C   0  0  0  0  0  0  0  0  0  0  0  0
   -8.3624    4.7522    0.0000 N   0  0  0  0  0  0  0  0  0  0  0  0
   -8.5924    3.3002    0.0000 C   0  0  0  0  0  0  0  0  0  0  0  0
   -8.2568    2.5465    0.0000 C   0  0  0  0  0  0  0  0  0  0  0  0
   -8.7418    1.8791    0.0000 C   0  0  0  0  0  0  0  0  0  0  0  0
   -9.5622    1.9653    0.0000 C   0  0  0  0  0  0  0  0  0  0  0  0
   -9.8978    2.7190    0.0000 C   0  0  0  0  0  0  0  0  0  0  0  0
   -9.4129    3.3864    0.0000 C   0  0  0  0  0  0  0  0  0  0  0  0
  -10.0472    1.2978    0.0000 O   0  0  0  0  0  0  0  0  0  0  0  0
   -9.7116    0.5442    0.0000 C   0  0  0  0  0  0  0  0  0  0  0  0
   -8.8911    0.4579    0.0000 C   0  0  0  0  0  0  0  0  0  0  0  0
  -10.1965   -0.1233    0.0000 C   0  0  0  0  0  0  0  0  0  0  0  0
  -10.7183    2.8052    0.0000 C   0  0  0  0  0  0  0  0  0  0  0  0
  -11.5388    2.8914    0.0000 N   0  0  0  0  0  0  0  0  0  0  0  0
  1  2  2  0
  2  3  1  0
  3  4  2  0
  4  5  1  0
  6  1  1  0
  5  7  1  0
  6  5  2  0
  6  9  1  0
  7  8  1  0
  8  9  1  0
  9 10  1  6
 10 11  1  0
 11 12  1  0
 12 13  1  0
  4 14  1  0
 14 15  2  0
 14 18  1  0
 15 16  1  0
 16 17  1  0
 17 18  2  0
 17 19  1  0
 19 20  1  0
 19 24  2  0
 20 21  2  0
 21 22  1  0
 22 23  2  0
 23 24  1  0
 22 25  1  0
 25 26  1  0
 26 27  1  0
 26 28  1  0
 23 29  1  0
 29 30  3  0
M  END
> <chembl_id>
CHEMBL3707247

> <chembl_pref_name>
OZANIMOD
