
     RDKit          2D

 40 43  0  0  0  0  0  0  0  0999 V2000
    5.0384   -5.4804    0.0000 C   0  0  0  0  0  0  0  0  0  0  0  0
    4.3239   -5.8929    0.0000 C   0  0  0  0  0  0  0  0  0  0  0  0
    4.3239   -6.7179    0.0000 C   0  0  0  0  0  0  0  0  0  0  0  0
    5.0384   -7.1304    0.0000 C   0  0  0  0  0  0  0  0  0  0  0  0
    5.7529   -6.7179    0.0000 C   0  0  0  0  0  0  0  0  0  0  0  0
    5.7529   -5.8929    0.0000 C   0  0  0  0  0  0  0  0  0  0  0  0
    3.6094   -7.1304    0.0000 Cl  0  0  0  0  0  0  0  0  0  0  0  0
    6.4674   -5.4804    0.0000 C   0  0  0  0  0  0  0  0  0  0  0  0
    7.1818   -5.8928    0.0000 O   0  0  0  0  0  0  0  0  0  0  0  0
    6.8799   -4.7659    0.0000 C   0  0  0  0  0  0  0  0  0  0  0  0
    7.8963   -5.4803    0.0000 C   0  0  0  0  0  0  0  0  0  0  0  0
    8.6108   -5.8929    0.0000 C   0  0  0  0  0  0  0  0  0  0  0  0
    9.3253   -5.4804    0.0000 C   0  0  0  0  0  0  0  0  0  0  0  0
    9.3252   -4.6553    0.0000 N   0  0  0  0  0  0  0  0  0  0  0  0
    8.6108   -4.2428    0.0000 C   0  0  0  0  0  0  0  0  0  0  0  0
    7.8963   -4.6553    0.0000 N   0  0  0  0  0  0  0  0  0  0  0  0
    8.6108   -3.4178    0.0000 N   0  0  0  0  0  0  0  0  0  0  0  0
    6.2965   -4.1825    0.0000 F   0  0  0  0  0  0  0  0  0  0  0  0
    7.4632   -4.1825    0.0000 F   0  0  0  0  0  0  0  0  0  0  0  0
    6.8799   -3.9409    0.0000 F   0  0  0  0  0  0  0  0  0  0  0  0
   10.0397   -5.8929    0.0000 C   0  0  0  0  0  0  0  0  0  0  0  0
   10.0397   -6.7179    0.0000 C   0  0  0  0  0  0  0  0  0  0  0  0
   10.7542   -7.1304    0.0000 C   0  0  0  0  0  0  0  0  0  0  0  0
   11.4687   -6.7179    0.0000 C   0  0  0  0  0  0  0  0  0  0  0  0
   11.4687   -5.8928    0.0000 C   0  0  0  0  0  0  0  0  0  0  0  0
   10.7542   -5.4803    0.0000 C   0  0  0  0  0  0  0  0  0  0  0  0
   12.1832   -7.1303    0.0000 C   0  0  0  0  0  0  0  0  0  0  0  0
   12.8976   -6.7178    0.0000 C   0  0  0  0  0  0  0  0  0  0  0  0
   13.6121   -7.1303    0.0000 C   0  0  0  0  0  0  0  0  0  0  0  0
   14.3266   -6.7178    0.0000 O   0  0  0  0  0  0  0  0  0  0  0  0
   13.6121   -7.9553    0.0000 O   0  0  0  0  0  0  0  0  0  0  0  0
   13.3101   -6.0034    0.0000 N   0  0  0  0  0  0  0  0  0  0  0  0
    6.4674   -7.1304    0.0000 N   0  0  0  0  0  0  0  0  0  0  0  0
    6.5536   -7.9508    0.0000 C   0  0  0  0  0  0  0  0  0  0  0  0
    7.3605   -8.1224    0.0000 C   0  0  0  0  0  0  0  0  0  0  0  0
    7.7730   -7.4079    0.0000 C   0  0  0  0  0  0  0  0  0  0  0  0
    7.2210   -6.7948    0.0000 N   0  0  0  0  0  0  0  0  0  0  0  0
    8.5935   -7.3217    0.0000 C   0  0  0  0  0  0  0  0  0  0  0  0
   15.0410   -7.1303    0.0000 C   0  0  0  0  0  0  0  0  0  0  0  0
   15.7555   -6.7178    0.0000 C   0  0  0  0  0  0  0  0  0  0  0  0
  1  2  1  0
  1  6  2  0
  2  3  2  0
  3  4  1  0
  4  5  2  0
  5  6  1  0
  3  7  1  0
  6  8  1  0
  8  9  1  6
  8 10  1  0
  9 11  1  0
 11 12  1  0
 11 16  2  0
 12 13  2  0
 13 14  1  0
 14 15  2  0
 15 16  1  0
 15 17  1  0
 10 18  1  0
 10 19  1  0
 10 20  1  0
 13 21  1  0
 21 22  1  0
 21 26  2  0
 22 23  2  0
 23 24  1  0
 24 25  2  0
 25 26  1  0
 24 27  1  0
 27 28  1  0
 28 29  1  0
 29 30  1  0
 29 31  2  0
 28 32  1  6
  5 33  1  0
 33 34  1  0
 33 37  1  0
 34 35  2  0
 35 36  1  0
 36 37  2  0
 36 38  1  0
 30 39  1  0
 39 40  1  0
M  END
> <chembl_id>
CHEMBL2105695

> <chembl_pref_name>
TELOTRISTAT ETHYL
