
     RDKit          2D

 16 16  0  0  0  0  0  0  0  0999 V2000
   -1.2083    0.8958    0.0000 C   0  0  0  0  0  0  0  0  0  0  0  0
   -1.9250    0.4833    0.0000 C   0  0  0  0  0  0  0  0  0  0  0  0
    0.2208    0.8958    0.0000 N   0  0  0  0  0  0  0  0  0  0  0  0
   -0.4958    0.4833    0.0000 C   0  0  0  0  0  0  0  0  0  0  0  0
   -1.9250   -0.3417    0.0000 C   0  0  0  0  0  0  0  0  0  0  0  0
   -1.2083    1.7208    0.0000 O   0  0  0  0  0  0  0  0  0  0  0  0
    0.9333    0.4833    0.0000 C   0  0  0  0  0  0  0  0  0  0  0  0
   -2.6375   -0.7542    0.0000 C   0  0  0  0  0  0  0  0  0  0  0  0
   -2.6375   -1.5792    0.0000 Cl  0  0  0  0  0  0  0  0  0  0  0  0
   -2.6375    0.8958    0.0000 C   0  0  0  0  0  0  0  0  0  0  0  0
   -3.3542    0.4833    0.0000 C   0  0  0  0  0  0  0  0  0  0  0  0
    0.9333   -0.3417    0.0000 C   0  0  0  0  0  0  0  0  0  0  0  0
    1.6500    0.8958    0.0000 C   0  0  0  0  0  0  0  0  0  0  0  0
    0.9333    1.3083    0.0000 C   0  0  0  0  0  0  0  0  0  0  0  0
   -3.3542   -0.3417    0.0000 C   0  0  0  0  0  0  0  0  0  0  0  0
   -0.4968   -0.3417    0.0000 C   0  0  0  0  0  0  0  0  0  0  0  0
  2  1  1  0
  3  4  1  0
  4  1  1  0
  5  2  2  0
  6  1  2  0
  7  3  1  0
  8  5  1  0
  9  8  1  0
 10  2  1  0
 11 10  2  0
 12  7  1  0
 13  7  1  0
 14  7  1  0
 15 11  1  0
 15  8  2  0
  4 16  1  0
M  END
> <chembl_id>
CHEMBL894

> <chembl_pref_name>
BUPROPION
