
     RDKit          2D

  9  8  0  0  1  0  0  0  0  0999 V2000
    4.7375   -6.4250    0.0000 C   0  0  0  0  0  0  0  0  0  0  0  0
    5.3500   -6.0667    0.0000 C   0  0  0  0  0  0  0  0  0  0  0  0
    4.1167   -6.0667    0.0000 C   0  0  0  0  0  0  0  0  0  0  0  0
    5.3500   -5.3625    0.0000 O   0  0  0  0  0  0  0  0  0  0  0  0
    4.7375   -7.1292    0.0000 N   0  0  0  0  0  0  0  0  0  0  0  0
    3.5042   -6.4250    0.0000 S   0  0  0  0  0  0  0  0  0  0  0  0
    5.9542   -6.4250    0.0000 O   0  0  0  0  0  0  0  0  0  0  0  0
    3.7625   -5.4542    0.0000 C   0  0  0  0  0  0  0  0  0  0  0  0
    4.4667   -5.4542    0.0000 C   0  0  0  0  0  0  0  0  0  0  0  0
  2  1  1  0
  3  1  1  0
  4  2  2  0
  1  5  1  6
  6  3  1  0
  7  2  1  0
  8  3  1  0
  9  3  1  0
M  END
> <chembl_id>
CHEMBL1430

> <chembl_pref_name>
PENICILLAMINE
