
     RDKit          2D

 73 76  0  0  1  0  0  0  0  0999 V2000
    4.8667   -3.2667    0.0000 N   0  0  0  0  0  0  0  0  0  0  0  0
    4.2625   -2.9125    0.0000 C   0  0  0  0  0  0  0  0  0  0  0  0
    3.6417   -3.2667    0.0000 C   0  0  0  0  0  0  0  0  0  0  0  0
    3.0292   -2.9125    0.0000 N   0  0  0  0  0  0  0  0  0  0  0  0
    1.1792   -3.2667    0.0000 N   0  0  0  0  0  0  0  0  0  0  0  0
    3.6417   -6.0917    0.0000 N   0  0  0  0  0  0  0  0  0  0  0  0
    1.7917   -6.4417    0.0000 N   0  0  0  0  0  0  0  0  0  0  0  0
    0.5667   -5.0292    0.0000 N   0  0  0  0  0  0  0  0  0  0  0  0
    2.4167   -3.2667    0.0000 C   0  0  0  0  0  0  0  0  0  0  0  0
    4.2625   -6.4417    0.0000 C   0  0  0  0  0  0  0  0  0  0  0  0
    2.4167   -6.0917    0.0000 C   0  0  0  0  0  0  0  0  0  0  0  0
    1.1792   -5.3792    0.0000 C   0  0  0  0  0  0  0  0  0  0  0  0
    6.2042   -3.2542    0.0000 C   0  0  0  0  0  0  0  0  0  0  0  0
    1.1792   -3.9750    0.0000 C   0  0  0  0  0  0  0  0  0  0  0  0
    1.7917   -2.9125    0.0000 C   0  0  0  0  0  0  0  0  0  0  0  0
    5.5292   -2.8792    0.0000 C   0  0  0  0  0  0  0  0  0  0  0  0
    3.0292   -6.4417    0.0000 C   0  0  0  0  0  0  0  0  0  0  0  0
    1.1792   -6.0917    0.0000 C   0  0  0  0  0  0  0  0  0  0  0  0
    6.8167   -2.9125    0.0000 N   0  0  0  0  0  0  0  0  0  0  0  0
    1.7917   -2.2042    0.0000 C   0  0  0  0  0  0  0  0  0  0  0  0
    0.5667   -4.3292    0.0000 C   0  0  0  0  0  0  0  0  0  0  0  0
    4.8667   -6.0917    0.0000 C   0  0  0  0  0  0  0  0  0  0  0  0
    8.0417   -2.9042    0.0000 C   0  0  0  0  0  0  0  0  0  0  0  0
    2.4167   -1.8500    0.0000 C   0  0  0  0  0  0  0  0  0  0  0  0
    8.6625   -3.2542    0.0000 N   0  0  0  0  0  0  0  0  0  0  0  0
    4.2625   -4.3292    0.0000 S   0  0  0  0  0  0  0  0  0  0  0  0
    4.2625   -5.0292    0.0000 S   0  0  0  0  0  0  0  0  0  0  0  0
    7.4375   -3.2667    0.0000 C   0  0  0  0  0  0  0  0  0  0  0  0
    9.8792   -3.2417    0.0000 C   0  0  0  0  0  0  0  0  0  0  0  0
   -0.6625   -2.9125    0.0000 C   0  0  0  0  0  0  0  0  0  0  0  0
    4.2625   -2.2042    0.0000 O   0  0  0  0  0  0  0  0  0  0  0  0
    6.2042   -4.0417    0.0000 O   0  0  0  0  0  0  0  0  0  0  0  0
    4.2625   -7.1542    0.0000 O   0  0  0  0  0  0  0  0  0  0  0  0
    1.7917   -5.0292    0.0000 O   0  0  0  0  0  0  0  0  0  0  0  0
    2.4167   -3.9750    0.0000 O   0  0  0  0  0  0  0  0  0  0  0  0
    2.4167   -5.3792    0.0000 O   0  0  0  0  0  0  0  0  0  0  0  0
    1.7917   -4.3292    0.0000 O   0  0  0  0  0  0  0  0  0  0  0  0
    3.6417   -3.9750    0.0000 C   0  0  0  0  0  0  0  0  0  0  0  0
    3.0292   -7.1542    0.0000 C   0  0  0  0  0  0  0  0  0  0  0  0
    0.5667   -6.4417    0.0000 C   0  0  0  0  0  0  0  0  0  0  0  0
    8.0417   -2.1917    0.0000 O   0  0  0  0  0  0  0  0  0  0  0  0
    4.8667   -5.3792    0.0000 C   0  0  0  0  0  0  0  0  0  0  0  0
    2.4167   -1.1292    0.0000 O   0  0  0  0  0  0  0  0  0  0  0  0
   -0.6625   -2.2042    0.0000 O   0  0  0  0  0  0  0  0  0  0  0  0
    9.8917   -3.9417    0.0000 O   0  0  0  0  0  0  0  0  0  0  0  0
   -0.0458   -3.9750    0.0000 C   0  0  0  0  0  0  0  0  0  0  0  0
    9.2667   -2.8917    0.0000 C   0  0  0  0  0  0  0  0  0  0  0  0
    5.4750   -6.4417    0.0000 N   0  0  0  0  0  0  0  0  0  0  0  0
    4.8667   -3.9292    0.0000 C   0  0  0  0  0  0  0  0  0  0  0  0
    3.0292   -2.2042    0.0000 N   0  0  0  0  0  0  0  0  0  0  0  0
   -0.0458   -3.2667    0.0000 C   0  0  0  0  0  0  0  0  0  0  0  0
    2.4167   -7.5042    0.0000 C   0  0  0  0  0  0  0  0  0  0  0  0
   -1.2833   -3.2667    0.0000 N   0  0  0  0  0  0  0  0  0  0  0  0
   10.4917   -2.8792    0.0000 N   0  0  0  0  0  0  0  0  0  0  0  0
    1.1792   -8.2250    0.0000 C   0  0  0  0  0  0  0  0  0  0  0  0
   -0.0458   -6.0917    0.0000 C   0  0  0  0  0  0  0  0  0  0  0  0
    2.4167   -8.2250    0.0000 C   0  0  0  0  0  0  0  0  0  0  0  0
    1.7917   -7.1542    0.0000 C   0  0  0  0  0  0  0  0  0  0  0  0
    8.6792   -6.0917    0.0000 N   0  0  0  0  0  0  0  0  0  0  0  0
    1.7917   -8.5792    0.0000 C   0  0  0  0  0  0  0  0  0  0  0  0
    1.1792   -7.5042    0.0000 C   0  0  0  0  0  0  0  0  0  0  0  0
    5.8667   -3.4250    0.0000 C   0  0  0  0  0  0  0  0  0  0  0  0
    0.5667   -8.5792    0.0000 O   0  0  0  0  0  0  0  0  0  0  0  0
    5.6000   -4.0500    0.0000 C   0  0  0  0  0  0  0  0  0  0  0  0
    7.4375   -3.9750    0.0000 C   0  0  0  0  0  0  0  0  0  0  0  0
    8.6792   -5.3792    0.0000 C   0  0  0  0  0  0  0  0  0  0  0  0
   -0.0458   -5.3792    0.0000 C   0  0  0  0  0  0  0  0  0  0  0  0
   -0.6625   -6.4417    0.0000 C   0  0  0  0  0  0  0  0  0  0  0  0
    8.0417   -4.3292    0.0000 C   0  0  0  0  0  0  0  0  0  0  0  0
    8.0500   -5.0292    0.0000 C   0  0  0  0  0  0  0  0  0  0  0  0
   -0.6625   -5.0292    0.0000 C   0  0  0  0  0  0  0  0  0  0  0  0
   -1.2833   -6.0917    0.0000 C   0  0  0  0  0  0  0  0  0  0  0  0
   -1.2833   -5.3792    0.0000 C   0  0  0  0  0  0  0  0  0  0  0  0
  2  1  1  0
  3  2  1  0
  3  4  1  6
 15  5  1  1
  6 10  1  0
  7 11  1  0
 21  8  1  1
  9  4  1  0
 10 22  1  0
 11 17  1  0
 12  8  1  0
 13 16  1  0
 14  5  1  0
 15  9  1  0
 16  1  1  6
 17  6  1  1
 18 12  1  0
 19 13  1  0
 20 15  1  0
 21 14  1  0
 22 42  1  0
 23 28  1  0
 24 20  1  0
 25 23  1  0
 26 38  1  0
 27 26  1  0
 28 19  1  6
 29 47  1  0
 30 51  1  0
 31  2  2  0
 32 13  2  0
 33 10  2  0
 34 12  2  0
 35  9  2  0
 36 11  2  0
 37 14  2  0
 38  3  1  0
 39 17  1  0
 40 18  1  0
 41 23  2  0
 42 27  1  0
 43 24  2  0
 44 30  2  0
 45 29  2  0
 46 21  1  0
 47 25  1  0
 22 48  1  6
 49  1  1  0
 50 24  1  0
 51 46  1  0
 52 39  1  0
 53 30  1  0
 54 29  1  0
 55 61  1  0
 56 40  1  0
 57 52  2  0
 58 52  1  0
 59 66  1  0
 60 57  1  0
 61 58  2  0
 62 16  1  0
 63 55  1  0
 64 49  1  0
 65 28  1  0
 66 70  1  0
 67 56  2  0
 68 56  1  0
 69 65  1  0
 70 69  1  0
 71 67  1  0
 72 68  2  0
 73 72  1  0
 64 62  1  0
 18  7  1  1
 55 60  2  0
 73 71  2  0
M  END
> <chembl_id>
CHEMBL1200690

> <chembl_pref_name>
LYPRESSIN
