
     RDKit          2D

 28 30  0  0  0  0  0  0  0  0999 V2000
    0.2458   -7.8417    0.0000 Br  0  0  0  0  0  0  0  0  0  0  0  0
   -1.6500   -6.3292    0.0000 S   0  0  0  0  0  0  0  0  0  0  0  0
    2.0917   -6.2000    0.0000 C   0  0  0  0  0  0  0  0  0  0  0  0
    1.4167   -5.9792    0.0000 C   0  0  0  0  0  0  0  0  0  0  0  0
    2.0917   -5.0542    0.0000 N   0  0  0  0  0  0  0  0  0  0  0  0
    2.5083   -5.6250    0.0000 C   0  0  0  0  0  0  0  0  0  0  0  0
    2.9917   -7.8750    0.0000 N   0  0  0  0  0  0  0  0  0  0  0  0
    2.0875   -6.9042    0.0000 C   0  0  0  0  0  0  0  0  0  0  0  0
    1.4167   -5.2750    0.0000 C   0  0  0  0  0  0  0  0  0  0  0  0
    2.7667   -7.2042    0.0000 C   0  0  0  0  0  0  0  0  0  0  0  0
   -1.3000   -6.9417    0.0000 O   0  0  0  0  0  0  0  0  0  0  0  0
   -2.0125   -6.9417    0.0000 O   0  0  0  0  0  0  0  0  0  0  0  0
   -1.0375   -5.9792    0.0000 C   0  0  0  0  0  0  0  0  0  0  0  0
   -2.2625   -5.9792    0.0000 C   0  0  0  0  0  0  0  0  0  0  0  0
    0.8000   -6.3375    0.0000 C   0  0  0  0  0  0  0  0  0  0  0  0
    0.8000   -4.9125    0.0000 C   0  0  0  0  0  0  0  0  0  0  0  0
    0.1875   -5.9792    0.0000 C   0  0  0  0  0  0  0  0  0  0  0  0
   -0.4250   -6.3292    0.0000 C   0  0  0  0  0  0  0  0  0  0  0  0
    0.1875   -5.2750    0.0000 C   0  0  0  0  0  0  0  0  0  0  0  0
    3.7042   -7.8750    0.0000 C   0  0  0  0  0  0  0  0  0  0  0  0
    2.5792   -8.4500    0.0000 C   0  0  0  0  0  0  0  0  0  0  0  0
    3.3375   -6.7875    0.0000 C   0  0  0  0  0  0  0  0  0  0  0  0
    3.9250   -7.2167    0.0000 C   0  0  0  0  0  0  0  0  0  0  0  0
   -2.8833   -6.3292    0.0000 C   0  0  0  0  0  0  0  0  0  0  0  0
   -2.2625   -5.2667    0.0000 C   0  0  0  0  0  0  0  0  0  0  0  0
   -2.8750   -4.9125    0.0000 C   0  0  0  0  0  0  0  0  0  0  0  0
   -3.4958   -5.9750    0.0000 C   0  0  0  0  0  0  0  0  0  0  0  0
   -3.4958   -5.2667    0.0000 C   0  0  0  0  0  0  0  0  0  0  0  0
  3  4  1  0
  4 15  1  0
  5  9  1  0
  6  3  2  0
  7 10  1  0
  8  3  1  0
  9 16  1  0
 10  8  1  1
 11  2  2  0
 12  2  2  0
 13  2  1  0
 14  2  1  0
 15 17  2  0
 16 19  2  0
 17 18  1  0
 18 13  1  0
 19 17  1  0
 20  7  1  0
 21  7  1  0
 22 10  1  0
 23 22  1  0
 24 14  2  0
 25 14  1  0
 26 25  2  0
 27 24  1  0
 28 26  1  0
 28 27  2  0
  4  9  2  0
  6  5  1  0
 23 20  1  0
M  END
> <chembl_id>
CHEMBL1201003

> <chembl_pref_name>
ELETRIPTAN HYDROBROMIDE
