
     RDKit          2D

  9  9  0  0  0  0  0  0  0  0999 V2000
   -1.2500   -0.0792    0.0000 O   0  0  0  0  0  0  0  0  0  0  0  0
    1.2417   -0.0667    0.0000 O   0  0  0  0  0  0  0  0  0  0  0  0
   -0.0083    2.0708    0.0000 O   0  0  0  0  0  0  0  0  0  0  0  0
   -1.2500    1.3375    0.0000 C   0  0  0  0  0  0  0  0  0  0  0  0
    1.2417    1.3458    0.0000 C   0  0  0  0  0  0  0  0  0  0  0  0
    0.0042   -0.8000    0.0000 C   0  0  0  0  0  0  0  0  0  0  0  0
    0.0167   -2.2292    0.0000 C   0  0  0  0  0  0  0  0  0  0  0  0
   -2.5000    2.0208    0.0000 C   0  0  0  0  0  0  0  0  0  0  0  0
    2.5000    2.0333    0.0000 C   0  0  0  0  0  0  0  0  0  0  0  0
  2  6  1  0
  3  4  1  0
  4  1  1  0
  5  2  1  0
  6  1  1  0
  7  6  1  0
  8  4  1  0
  9  5  1  0
  3  5  1  0
M  END
> <chembl_id>
CHEMBL1410743

> <chembl_pref_name>
PARALDEHYDE
