
     RDKit          2D

 44 47  0  0  0  0  0  0  0  0999 V2000
   -2.7956   -0.3439    0.0000 C   0  0  0  0  0  0  0  0  0  0  0  0
   -3.5100   -0.7564    0.0000 C   0  0  0  0  0  0  0  0  0  0  0  0
   -3.5100   -1.5814    0.0000 C   0  0  0  0  0  0  0  0  0  0  0  0
   -2.7956   -1.9939    0.0000 C   0  0  0  0  0  0  0  0  0  0  0  0
   -2.0811   -1.5814    0.0000 C   0  0  0  0  0  0  0  0  0  0  0  0
   -1.3666   -1.9939    0.0000 C   0  0  0  0  0  0  0  0  0  0  0  0
   -2.0811   -0.7564    0.0000 C   0  0  0  0  0  0  0  0  0  0  0  0
   -4.2245   -0.3439    0.0000 O   0  0  0  0  0  0  0  0  0  0  0  0
   -4.2245   -1.9939    0.0000 O   0  0  0  0  0  0  0  0  0  0  0  0
   -2.7956   -2.8189    0.0000 O   0  0  0  0  0  0  0  0  0  0  0  0
   -0.6521   -1.5814    0.0000 O   0  0  0  0  0  0  0  0  0  0  0  0
   -0.6521    1.7186    0.0000 C   0  0  0  0  0  0  0  0  0  0  0  0
   -1.3666    2.1311    0.0000 C   0  0  0  0  0  0  0  0  0  0  0  0
   -2.0811    1.7186    0.0000 C   0  0  0  0  0  0  0  0  0  0  0  0
   -2.0811    0.8936    0.0000 C   0  0  0  0  0  0  0  0  0  0  0  0
   -1.3666    0.4811    0.0000 C   0  0  0  0  0  0  0  0  0  0  0  0
   -1.3666   -0.3439    0.0000 C   0  0  0  0  0  0  0  0  0  0  0  0
   -2.7956    0.4811    0.0000 N   0  0  0  0  0  0  0  0  0  0  0  0
   -1.3666    2.9561    0.0000 O   0  0  0  0  0  0  0  0  0  0  0  0
   -2.7956    2.1311    0.0000 O   0  0  0  0  0  0  0  0  0  0  0  0
   -0.6521    0.8936    0.0000 O   0  0  0  0  0  0  0  0  0  0  0  0
    2.2057    0.8936    0.0000 C   0  0  0  0  0  0  0  0  0  0  0  0
    2.2057    1.7186    0.0000 C   0  0  0  0  0  0  0  0  0  0  0  0
    1.4913    2.1311    0.0000 C   0  0  0  0  0  0  0  0  0  0  0  0
    0.7768    1.7186    0.0000 C   0  0  0  0  0  0  0  0  0  0  0  0
    0.7768    0.8936    0.0000 C   0  0  0  0  0  0  0  0  0  0  0  0
    0.0623    0.4811    0.0000 C   0  0  0  0  0  0  0  0  0  0  0  0
    2.9202    2.1311    0.0000 O   0  0  0  0  0  0  0  0  0  0  0  0
    1.4913    2.9561    0.0000 O   0  0  0  0  0  0  0  0  0  0  0  0
    0.0623    2.1311    0.0000 O   0  0  0  0  0  0  0  0  0  0  0  0
    1.4913    0.4811    0.0000 O   0  0  0  0  0  0  0  0  0  0  0  0
    0.0623   -0.3439    0.0000 O   0  0  0  0  0  0  0  0  0  0  0  0
    2.9202   -1.9939    0.0000 C   0  0  0  0  0  0  0  0  0  0  0  0
    3.6347   -1.5814    0.0000 C   0  0  0  0  0  0  0  0  0  0  0  0
    3.6347   -0.7564    0.0000 C   0  0  0  0  0  0  0  0  0  0  0  0
    2.9202   -0.3439    0.0000 C   0  0  0  0  0  0  0  0  0  0  0  0
    2.2057   -0.7564    0.0000 C   0  0  0  0  0  0  0  0  0  0  0  0
    1.4913   -0.3439    0.0000 C   0  0  0  0  0  0  0  0  0  0  0  0
    2.9202   -2.8189    0.0000 O   0  0  0  0  0  0  0  0  0  0  0  0
    4.3492   -1.9939    0.0000 O   0  0  0  0  0  0  0  0  0  0  0  0
    4.3492   -0.3439    0.0000 O   0  0  0  0  0  0  0  0  0  0  0  0
    2.9202    0.4811    0.0000 O   0  0  0  0  0  0  0  0  0  0  0  0
    2.2057   -1.5814    0.0000 O   0  0  0  0  0  0  0  0  0  0  0  0
    0.7768   -0.7564    0.0000 O   0  0  0  0  0  0  0  0  0  0  0  0
  1  7  1  0
  1  2  1  0
  1 18  1  1
  2  3  1  0
  2  8  1  1
  3  4  1  0
  3  9  1  6
  4 10  1  1
  4  5  1  0
  5  6  1  0
  5  7  2  0
  6 11  1  0
 12 21  1  0
 12 30  1  1
 12 13  1  0
 13 14  1  0
 13 19  1  1
 14 15  1  0
 14 20  1  6
 15 18  1  1
 15 16  1  0
 16 17  1  6
 16 21  1  0
 22 31  1  0
 22 42  1  1
 22 23  1  0
 23 24  1  0
 23 28  1  1
 24 25  1  0
 24 29  1  6
 25 26  1  0
 25 30  1  1
 26 27  1  6
 26 31  1  0
 27 32  1  0
 33 39  1  6
 33 43  1  0
 33 34  1  0
 34 40  1  1
 34 35  1  0
 35 36  1  0
 35 41  1  6
 36 37  1  0
 36 42  1  1
 37 43  1  0
 37 38  1  6
 38 44  1  0
M  END
> <chembl_id>
CHEMBL1566

> <chembl_pref_name>
ACARBOSE
