
     RDKit          2D

 11 11  0  0  0  0  0  0  0  0999 V2000
    6.1836   -7.1679    0.0000 O   0  0  0  0  0  0  0  0  0  0  0  0
    6.1836   -5.3017    0.0000 C   0  0  0  0  0  0  0  0  0  0  0  0
    6.9925   -6.3688    0.0000 N   0  0  0  0  0  0  0  0  0  0  0  0
    6.1982   -6.1203    0.0000 C   0  0  0  0  0  0  0  0  0  0  0  0
    5.4673   -4.8924    0.0000 C   0  0  0  0  0  0  0  0  0  0  0  0
    6.9730   -5.0336    0.0000 N   0  0  0  0  0  0  0  0  0  0  0  0
    5.4868   -6.5442    0.0000 N   0  0  0  0  0  0  0  0  0  0  0  0
    7.4700   -5.6964    0.0000 C   0  0  0  0  0  0  0  0  0  0  0  0
    4.7510   -5.3163    0.0000 N   0  0  0  0  0  0  0  0  0  0  0  0
    4.7559   -6.1495    0.0000 C   0  0  0  0  0  0  0  0  0  0  0  0
    5.4527   -4.0591    0.0000 S   0  0  0  0  0  0  0  0  0  0  0  0
  3  4  1  0
  4  2  2  0
  5  2  1  0
  6  2  1  0
  7  4  1  0
  8  6  1  0
  9  5  1  0
 10  9  1  0
 11  5  2  0
  8  3  2  0
 10  7  2  0
M  END
> <chembl_id>
CHEMBL1200751

> <chembl_pref_name>
MERCAPTOPURINE
