
     RDKit          2D

 25 27  0  0  1  0  0  0  0  0999 V2000
    1.8417   -0.4542    0.0000 N   0  0  0  0  0  0  0  0  0  0  0  0
    1.8167    0.5250    0.0000 C   0  0  0  0  0  0  0  0  0  0  0  0
    0.8792   -0.4542    0.0000 C   0  0  0  0  0  0  0  0  0  0  0  0
    0.8750    0.5333    0.0000 C   0  0  0  0  0  0  0  0  0  0  0  0
    2.7917   -0.7542    0.0000 C   0  0  0  0  0  0  0  0  0  0  0  0
    2.7667    0.8333    0.0000 S   0  0  0  0  0  0  0  0  0  0  0  0
    3.3667    0.0583    0.0000 C   0  0  0  0  0  0  0  0  0  0  0  0
    0.1792    1.1833    0.0000 N   0  0  0  0  0  0  0  0  0  0  0  0
   -0.7458    0.8833    0.0000 C   0  0  0  0  0  0  0  0  0  0  0  0
    3.1250   -1.7042    0.0000 C   0  0  0  0  0  0  0  0  0  0  0  0
   -1.4958    1.5458    0.0000 C   0  0  0  0  0  0  0  0  0  0  0  0
    0.1875   -1.1375    0.0000 O   0  0  0  0  0  0  0  0  0  0  0  0
   -0.9375   -0.0667    0.0000 O   0  0  0  0  0  0  0  0  0  0  0  0
    2.4792   -2.4375    0.0000 O   0  0  0  0  0  0  0  0  0  0  0  0
   -2.4458    1.2500    0.0000 C   0  0  0  0  0  0  0  0  0  0  0  0
   -1.3083    2.5083    0.0000 N   0  0  0  0  0  0  0  0  0  0  0  0
    4.1167   -1.9042    0.0000 O   0  0  0  0  0  0  0  0  0  0  0  0
    4.3417   -0.1792    0.0000 C   0  0  0  0  0  0  0  0  0  0  0  0
    4.3042    0.3333    0.0000 C   0  0  0  0  0  0  0  0  0  0  0  0
   -3.1875    1.9125    0.0000 C   0  0  0  0  0  0  0  0  0  0  0  0
   -2.6375    0.2833    0.0000 C   0  0  0  0  0  0  0  0  0  0  0  0
   -4.1333    1.6083    0.0000 C   0  0  0  0  0  0  0  0  0  0  0  0
   -3.5958   -0.0167    0.0000 C   0  0  0  0  0  0  0  0  0  0  0  0
   -4.3458    0.6333    0.0000 C   0  0  0  0  0  0  0  0  0  0  0  0
    1.7875    1.5083    0.0000 H   0  0  0  0  0  0  0  0  0  0  0  0
  2  1  1  0
  3  1  1  0
  4  3  1  0
  5  1  1  0
  6  2  1  0
  7  5  1  0
  4  8  1  1
  9  8  1  0
  5 10  1  6
 11  9  1  0
 12  3  2  0
 13  9  2  0
 14 10  2  0
 15 11  1  0
 11 16  1  1
 17 10  1  0
 18  7  1  0
 19  7  1  0
 20 15  2  0
 21 15  1  0
 22 20  1  0
 23 21  2  0
 24 23  1  0
  2 25  1  6
  6  7  1  0
  2  4  1  0
 22 24  2  0
M  END
> <chembl_id>
CHEMBL174

> <chembl_pref_name>
AMPICILLIN
