
     RDKit          2D

 77 84  0  0  0  0  0  0  0  0999 V2000
  -15.9500   -1.9916    0.0000 C   0  0  0  0  0  0  0  0  0  0  0  0
  -16.3625   -1.2771    0.0000 O   0  0  0  0  0  0  0  0  0  0  0  0
  -17.1875   -1.2771    0.0000 C   0  0  0  0  0  0  0  0  0  0  0  0
  -17.6000   -1.9916    0.0000 C   0  0  0  0  0  0  0  0  0  0  0  0
  -17.1875   -2.7060    0.0000 C   0  0  0  0  0  0  0  0  0  0  0  0
  -16.3625   -2.7060    0.0000 C   0  0  0  0  0  0  0  0  0  0  0  0
  -15.1250   -1.9916    0.0000 O   0  0  0  0  0  0  0  0  0  0  0  0
  -18.4250   -1.9916    0.0000 O   0  0  0  0  0  0  0  0  0  0  0  0
  -17.6000   -0.5626    0.0000 C   0  0  0  0  0  0  0  0  0  0  0  0
  -17.6000   -3.4205    0.0000 O   0  0  0  0  0  0  0  0  0  0  0  0
  -14.7125   -1.2771    0.0000 C   0  0  0  0  0  0  0  0  0  0  0  0
  -13.8875   -1.2771    0.0000 C   0  0  0  0  0  0  0  0  0  0  0  0
  -13.4750   -0.5626    0.0000 C   0  0  0  0  0  0  0  0  0  0  0  0
  -13.8875    0.1519    0.0000 O   0  0  0  0  0  0  0  0  0  0  0  0
  -14.7125    0.1519    0.0000 C   0  0  0  0  0  0  0  0  0  0  0  0
  -15.1250   -0.5626    0.0000 C   0  0  0  0  0  0  0  0  0  0  0  0
  -15.1250    0.8663    0.0000 C   0  0  0  0  0  0  0  0  0  0  0  0
  -12.6500   -0.5626    0.0000 O   0  0  0  0  0  0  0  0  0  0  0  0
  -15.9500   -0.5626    0.0000 O   0  0  0  0  0  0  0  0  0  0  0  0
  -12.0666   -1.1460    0.0000 C   0  0  0  0  0  0  0  0  0  0  0  0
  -12.0666   -1.9710    0.0000 C   0  0  0  0  0  0  0  0  0  0  0  0
  -11.3521   -2.3835    0.0000 C   0  0  0  0  0  0  0  0  0  0  0  0
  -10.6376   -1.9710    0.0000 C   0  0  0  0  0  0  0  0  0  0  0  0
  -10.6376   -1.1460    0.0000 C   0  0  0  0  0  0  0  0  0  0  0  0
  -11.3521   -0.7335    0.0000 C   0  0  0  0  0  0  0  0  0  0  0  0
   -9.9232   -0.7334    0.0000 C   0  0  0  0  0  0  0  0  0  0  0  0
   -9.2087   -1.1459    0.0000 C   0  0  0  0  0  0  0  0  0  0  0  0
   -9.2087   -1.9709    0.0000 C   0  0  0  0  0  0  0  0  0  0  0  0
   -9.9231   -2.3834    0.0000 C   0  0  0  0  0  0  0  0  0  0  0  0
   -8.4942   -0.7334    0.0000 C   0  0  0  0  0  0  0  0  0  0  0  0
   -7.7797   -1.1459    0.0000 C   0  0  0  0  0  0  0  0  0  0  0  0
   -7.7797   -1.9709    0.0000 C   0  0  0  0  0  0  0  0  0  0  0  0
   -8.4942   -2.3834    0.0000 C   0  0  0  0  0  0  0  0  0  0  0  0
   -9.9231   -3.2084    0.0000 O   0  0  0  0  0  0  0  0  0  0  0  0
  -11.3521   -3.2085    0.0000 O   0  0  0  0  0  0  0  0  0  0  0  0
   -8.4942   -3.2084    0.0000 O   0  0  0  0  0  0  0  0  0  0  0  0
   -7.0653   -0.7333    0.0000 C   0  0  0  0  0  0  0  0  0  0  0  0
   -6.3508   -1.1458    0.0000 C   0  0  0  0  0  0  0  0  0  0  0  0
   -7.0653    0.0917    0.0000 O   0  0  0  0  0  0  0  0  0  0  0  0
   -5.6363   -0.7333    0.0000 C   0  0  0  0  0  0  0  0  0  0  0  0
   -4.9218   -1.1458    0.0000 C   0  0  0  0  0  0  0  0  0  0  0  0
   -6.3508   -1.9708    0.0000 O   0  0  0  0  0  0  0  0  0  0  0  0
   -4.2074   -0.7333    0.0000 C   0  0  0  0  0  0  0  0  0  0  0  0
   -4.9218   -1.9708    0.0000 O   0  0  0  0  0  0  0  0  0  0  0  0
   -5.6363    0.0917    0.0000 O   0  0  0  0  0  0  0  0  0  0  0  0
  -12.7811   -2.3835    0.0000 C   0  0  0  0  0  0  0  0  0  0  0  0
   -7.0652   -2.3833    0.0000 O   0  0  0  0  0  0  0  0  0  0  0  0
   -7.0652   -3.2083    0.0000 C   0  0  0  0  0  0  0  0  0  0  0  0
   -7.7797   -3.6209    0.0000 O   0  0  0  0  0  0  0  0  0  0  0  0
   -7.7797   -4.4459    0.0000 C   0  0  0  0  0  0  0  0  0  0  0  0
   -7.0652   -4.8584    0.0000 C   0  0  0  0  0  0  0  0  0  0  0  0
   -6.3508   -4.4459    0.0000 C   0  0  0  0  0  0  0  0  0  0  0  0
   -6.3508   -3.6209    0.0000 C   0  0  0  0  0  0  0  0  0  0  0  0
   -8.4942   -4.8584    0.0000 C   0  0  0  0  0  0  0  0  0  0  0  0
   -7.0652   -5.6834    0.0000 O   0  0  0  0  0  0  0  0  0  0  0  0
   -5.6363   -4.8584    0.0000 O   0  0  0  0  0  0  0  0  0  0  0  0
   -4.8113   -4.8584    0.0000 C   0  0  0  0  0  0  0  0  0  0  0  0
   -4.3988   -5.5728    0.0000 O   0  0  0  0  0  0  0  0  0  0  0  0
   -3.5738   -5.5728    0.0000 C   0  0  0  0  0  0  0  0  0  0  0  0
   -3.1613   -4.8584    0.0000 C   0  0  0  0  0  0  0  0  0  0  0  0
   -3.5738   -4.1439    0.0000 C   0  0  0  0  0  0  0  0  0  0  0  0
   -4.3988   -4.1439    0.0000 C   0  0  0  0  0  0  0  0  0  0  0  0
   -3.1613   -3.4294    0.0000 O   0  0  0  0  0  0  0  0  0  0  0  0
   -2.3363   -4.8584    0.0000 O   0  0  0  0  0  0  0  0  0  0  0  0
   -3.1613   -6.2873    0.0000 C   0  0  0  0  0  0  0  0  0  0  0  0
   -1.5113   -4.8584    0.0000 C   0  0  0  0  0  0  0  0  0  0  0  0
   -1.0987   -5.5728    0.0000 O   0  0  0  0  0  0  0  0  0  0  0  0
   -0.2737   -5.5728    0.0000 C   0  0  0  0  0  0  0  0  0  0  0  0
    0.1388   -4.8584    0.0000 C   0  0  0  0  0  0  0  0  0  0  0  0
   -0.2737   -4.1439    0.0000 C   0  0  0  0  0  0  0  0  0  0  0  0
   -1.0987   -4.1439    0.0000 C   0  0  0  0  0  0  0  0  0  0  0  0
   -0.2737   -3.3189    0.0000 C   0  0  0  0  0  0  0  0  0  0  0  0
    0.5232   -3.9304    0.0000 O   0  0  0  0  0  0  0  0  0  0  0  0
    0.9638   -4.8584    0.0000 O   0  0  0  0  0  0  0  0  0  0  0  0
    0.1388   -6.2873    0.0000 C   0  0  0  0  0  0  0  0  0  0  0  0
   -7.7798    0.5041    0.0000 C   0  0  0  0  0  0  0  0  0  0  0  0
   -7.0653   -1.5584    0.0000 H   0  0  0  0  0  0  0  0  0  0  0  0
  1  2  1  0
  2  3  1  0
  3  4  1  0
  4  5  1  0
  5  6  1  0
  6  1  1  0
  1  7  1  6
  4  8  1  6
  3  9  1  1
  5 10  1  1
 11  7  1  1
 11 12  1  0
 16 11  1  0
 12 13  1  0
 13 14  1  0
 14 15  1  0
 15 16  1  0
 15 17  1  1
 13 18  1  1
 16 19  1  6
 18 20  1  0
 20 21  2  0
 25 20  1  0
 21 22  1  0
 22 23  2  0
 24 25  2  0
 29 23  1  0
 23 24  1  0
 24 26  1  0
 26 27  2  0
 28 29  2  0
 33 28  1  0
 28 27  1  0
 27 30  1  0
 30 31  1  0
 31 32  1  0
 32 33  1  0
 29 34  1  0
 22 35  1  0
 33 36  2  0
 31 37  1  0
 37 38  1  0
 37 39  1  6
 38 40  1  0
 40 41  1  0
 38 42  2  0
 41 43  1  0
 41 44  1  1
 40 45  1  1
 21 46  1  0
 32 47  1  6
 48 47  1  1
 48 49  1  0
 53 48  1  0
 49 50  1  0
 50 51  1  0
 51 52  1  0
 52 53  1  0
 50 54  1  1
 51 55  1  6
 52 56  1  1
 57 56  1  6
 57 58  1  0
 62 57  1  0
 58 59  1  0
 59 60  1  0
 60 61  1  0
 61 62  1  0
 61 63  1  1
 60 64  1  1
 59 65  1  1
 66 64  1  6
 66 67  1  0
 71 66  1  0
 67 68  1  0
 68 69  1  0
 69 70  1  0
 70 71  1  0
 70 72  1  1
 70 73  1  6
 69 74  1  6
 68 75  1  1
 39 76  1  0
 31 77  1  6
M  END
> <chembl_id>
CHEMBL1237054

> <chembl_pref_name>
PLICAMYCIN
