
     RDKit          2D

 11 12  0  0  0  0  0  0  0  0999 V2000
    3.8917   -4.7875    0.0000 C   0  0  0  0  0  0  0  0  0  0  0  0
    4.3167   -4.2125    0.0000 N   0  0  0  0  0  0  0  0  0  0  0  0
    4.3042   -5.3542    0.0000 O   0  0  0  0  0  0  0  0  0  0  0  0
    4.9917   -4.4292    0.0000 C   0  0  0  0  0  0  0  0  0  0  0  0
    4.9917   -5.1375    0.0000 C   0  0  0  0  0  0  0  0  0  0  0  0
    5.6000   -4.0792    0.0000 C   0  0  0  0  0  0  0  0  0  0  0  0
    3.1792   -4.7875    0.0000 O   0  0  0  0  0  0  0  0  0  0  0  0
    5.6000   -5.4917    0.0000 C   0  0  0  0  0  0  0  0  0  0  0  0
    6.2167   -4.4417    0.0000 C   0  0  0  0  0  0  0  0  0  0  0  0
    6.2167   -5.1417    0.0000 C   0  0  0  0  0  0  0  0  0  0  0  0
    6.8417   -4.0792    0.0000 Cl  0  0  0  0  0  0  0  0  0  0  0  0
  2  1  1  0
  3  1  1  0
  4  2  1  0
  5  3  1  0
  6  4  1  0
  7  1  2  0
  8  5  1  0
  9  6  2  0
 10  8  2  0
 11  9  1  0
  4  5  2  0
  9 10  1  0
M  END
> <chembl_id>
CHEMBL1371

> <chembl_pref_name>
CHLORZOXAZONE
