
     RDKit          2D

 33 36  0  0  0  0  0  0  0  0999 V2000
   -4.9796    0.2500    0.0000 C   0  0  0  0  0  0  0  0  0  0  0  0
   -4.9796    1.0750    0.0000 C   0  0  0  0  0  0  0  0  0  0  0  0
   -4.2652    1.4875    0.0000 C   0  0  0  0  0  0  0  0  0  0  0  0
   -3.5507    1.0750    0.0000 C   0  0  0  0  0  0  0  0  0  0  0  0
   -3.5507    0.2500    0.0000 N   0  0  0  0  0  0  0  0  0  0  0  0
   -4.2652   -0.1625    0.0000 C   0  0  0  0  0  0  0  0  0  0  0  0
   -2.8362   -0.1625    0.0000 C   0  0  0  0  0  0  0  0  0  0  0  0
   -2.1218    0.2500    0.0000 C   0  0  0  0  0  0  0  0  0  0  0  0
   -1.4073   -0.1625    0.0000 C   0  0  0  0  0  0  0  0  0  0  0  0
   -0.6928    0.2500    0.0000 C   0  0  0  0  0  0  0  0  0  0  0  0
   -0.6928    1.0750    0.0000 O   0  0  0  0  0  0  0  0  0  0  0  0
    0.0217   -0.1625    0.0000 N   0  0  0  0  0  0  0  0  0  0  0  0
    0.7361    0.2500    0.0000 C   0  0  0  0  0  0  0  0  0  0  0  0
    1.4506    1.4875    0.0000 C   0  0  0  0  0  0  0  0  0  0  0  0
    0.7361    1.0750    0.0000 C   0  0  0  0  0  0  0  0  0  0  0  0
    1.4506   -0.1625    0.0000 C   0  0  0  0  0  0  0  0  0  0  0  0
    2.1651    0.2500    0.0000 C   0  0  0  0  0  0  0  0  0  0  0  0
    2.1651    1.0750    0.0000 C   0  0  0  0  0  0  0  0  0  0  0  0
    0.0217    1.4875    0.0000 O   0  0  0  0  0  0  0  0  0  0  0  0
    2.8795    1.4875    0.0000 N   0  0  0  0  0  0  0  0  0  0  0  0
    2.8795   -0.1625    0.0000 C   0  0  0  0  0  0  0  0  0  0  0  0
    3.5940    0.2500    0.0000 N   0  0  0  0  0  0  0  0  0  0  0  0
    3.5940    1.0750    0.0000 C   0  0  0  0  0  0  0  0  0  0  0  0
    2.8795   -0.9875    0.0000 N   0  0  0  0  0  0  0  0  0  0  0  0
    2.1651   -1.4000    0.0000 C   0  0  0  0  0  0  0  0  0  0  0  0
    2.1651   -2.2250    0.0000 C   0  0  0  0  0  0  0  0  0  0  0  0
    1.4506   -2.6375    0.0000 C   0  0  0  0  0  0  0  0  0  0  0  0
    0.7361   -2.2250    0.0000 C   0  0  0  0  0  0  0  0  0  0  0  0
    0.7361   -1.4000    0.0000 C   0  0  0  0  0  0  0  0  0  0  0  0
    1.4506   -0.9875    0.0000 C   0  0  0  0  0  0  0  0  0  0  0  0
    0.0217   -0.9875    0.0000 Cl  0  0  0  0  0  0  0  0  0  0  0  0
    0.0217   -2.6375    0.0000 F   0  0  0  0  0  0  0  0  0  0  0  0
    0.0217    2.3125    0.0000 C   0  0  0  0  0  0  0  0  0  0  0  0
  1  2  1  0
  2  3  1  0
  3  4  1  0
  4  5  1  0
  5  6  1  0
  1  6  1  0
  5  7  1  0
  7  8  1  0
  8  9  2  0
  9 10  1  0
 10 11  2  0
 10 12  1  0
 12 13  1  0
 15 13  1  0
 13 16  2  0
 14 15  2  0
 16 17  1  0
 14 18  1  0
 15 19  1  0
 20 18  1  0
 17 18  2  0
 17 21  1  0
 21 22  2  0
 22 23  1  0
 20 23  2  0
 21 24  1  0
 24 25  1  0
 25 26  1  0
 25 30  2  0
 26 27  2  0
 27 28  1  0
 28 29  2  0
 29 30  1  0
 29 31  1  0
 28 32  1  0
 19 33  1  0
M  END
> <chembl_id>
CHEMBL2110732

> <chembl_pref_name>
DACOMITINIB ANHYDROUS
