
     RDKit          2D

 25 27  0  0  0  0  0  0  0  0999 V2000
   10.4030   -9.0150    0.0000 C   0  0  0  0  0  0  0  0  0  0  0  0
   11.1435   -8.6814    0.0000 N   0  0  0  0  0  0  0  0  0  0  0  0
   10.4863   -9.8298    0.0000 N   0  0  0  0  0  0  0  0  0  0  0  0
    9.6811   -8.6006    0.0000 S   0  0  0  0  0  0  0  0  0  0  0  0
    8.2577   -8.6016    0.0000 C   0  0  0  0  0  0  0  0  0  0  0  0
    8.9798   -9.0159    0.0000 C   0  0  0  0  0  0  0  0  0  0  0  0
   11.6981   -9.2852    0.0000 C   0  0  0  0  0  0  0  0  0  0  0  0
    7.5516   -9.0266    0.0000 C   0  0  0  0  0  0  0  0  0  0  0  0
   11.2932   -9.9926    0.0000 C   0  0  0  0  0  0  0  0  0  0  0  0
    8.2517   -7.7766    0.0000 N   0  0  0  0  0  0  0  0  0  0  0  0
    6.8297   -8.6122    0.0000 C   0  0  0  0  0  0  0  0  0  0  0  0
    9.6845   -7.7756    0.0000 O   0  0  0  0  0  0  0  0  0  0  0  0
    7.5394   -7.3718    0.0000 C   0  0  0  0  0  0  0  0  0  0  0  0
    6.8236   -7.7872    0.0000 C   0  0  0  0  0  0  0  0  0  0  0  0
    6.1188   -9.0373    0.0000 O   0  0  0  0  0  0  0  0  0  0  0  0
    4.6908   -9.0479    0.0000 C   0  0  0  0  0  0  0  0  0  0  0  0
    7.5578   -9.8516    0.0000 C   0  0  0  0  0  0  0  0  0  0  0  0
   12.5182   -9.2743    0.0000 C   0  0  0  0  0  0  0  0  0  0  0  0
   11.7037  -10.7036    0.0000 C   0  0  0  0  0  0  0  0  0  0  0  0
    3.2675   -9.0585    0.0000 O   0  0  0  0  0  0  0  0  0  0  0  0
    5.4065   -8.6228    0.0000 C   0  0  0  0  0  0  0  0  0  0  0  0
    3.9736   -8.6335    0.0000 C   0  0  0  0  0  0  0  0  0  0  0  0
    2.5456   -8.6441    0.0000 C   0  0  0  0  0  0  0  0  0  0  0  0
   12.9335   -9.9852    0.0000 C   0  0  0  0  0  0  0  0  0  0  0  0
   12.5287  -10.6975    0.0000 C   0  0  0  0  0  0  0  0  0  0  0  0
  2  1  1  0
  3  1  2  0
  4  1  1  0
  5  6  1  0
  6  4  1  0
  7  2  1  0
  8  5  2  0
  9  3  1  0
 10  5  1  0
 11  8  1  0
 12  4  1  0
 13 10  2  0
 14 13  1  0
 15 11  1  0
 16 21  1  0
 17  8  1  0
 18  7  2  0
 19  9  2  0
 20 22  1  0
 21 15  1  0
 22 16  1  0
 23 20  1  0
 24 18  1  0
 25 19  1  0
  9  7  1  0
 25 24  2  0
 14 11  2  0
M  CHG  2   4   1  12  -1
M  END
> <chembl_id>
CHEMBL1219

> <chembl_pref_name>
RABEPRAZOLE
