
     RDKit          2D

 28 29  0  0  0  0  0  0  0  0999 V2000
   -3.1750   -2.1625    0.0000 C   0  0  0  0  0  0  0  0  0  0  0  0
   -1.0833   -1.8875    0.0000 C   0  0  0  0  0  0  0  0  0  0  0  0
   -2.7583   -1.1917    0.0000 C   0  0  0  0  0  0  0  0  0  0  0  0
   -1.7083   -1.0542    0.0000 C   0  0  0  0  0  0  0  0  0  0  0  0
   -2.5458   -3.0000    0.0000 O   0  0  0  0  0  0  0  0  0  0  0  0
   -0.0458   -1.7542    0.0000 O   0  0  0  0  0  0  0  0  0  0  0  0
   -1.5000   -2.8542    0.0000 O   0  0  0  0  0  0  0  0  0  0  0  0
   -4.2208   -2.2917    0.0000 O   0  0  0  0  0  0  0  0  0  0  0  0
    0.5417    1.6958    0.0000 C   0  0  0  0  0  0  0  0  0  0  0  0
    3.0417    2.9458    0.0000 N   0  0  0  0  0  0  0  0  0  0  0  0
    1.2792    2.4583    0.0000 C   0  0  0  0  0  0  0  0  0  0  0  0
   -0.4708    1.9458    0.0000 C   0  0  0  0  0  0  0  0  0  0  0  0
    0.8375    0.6833    0.0000 C   0  0  0  0  0  0  0  0  0  0  0  0
    2.3000    2.1958    0.0000 C   0  0  0  0  0  0  0  0  0  0  0  0
    4.0625    2.6750    0.0000 C   0  0  0  0  0  0  0  0  0  0  0  0
    0.1167   -0.0625    0.0000 C   0  0  0  0  0  0  0  0  0  0  0  0
   -0.7625    2.9458    0.0000 C   0  0  0  0  0  0  0  0  0  0  0  0
   -1.1958    1.1750    0.0000 C   0  0  0  0  0  0  0  0  0  0  0  0
    1.8500    0.4375    0.0000 C   0  0  0  0  0  0  0  0  0  0  0  0
    2.5792    1.1833    0.0000 C   0  0  0  0  0  0  0  0  0  0  0  0
    4.3417    1.6625    0.0000 C   0  0  0  0  0  0  0  0  0  0  0  0
   -1.7833    3.1958    0.0000 C   0  0  0  0  0  0  0  0  0  0  0  0
   -2.2125    1.4208    0.0000 C   0  0  0  0  0  0  0  0  0  0  0  0
    2.1417   -0.5750    0.0000 C   0  0  0  0  0  0  0  0  0  0  0  0
    0.4042   -1.0542    0.0000 C   0  0  0  0  0  0  0  0  0  0  0  0
    3.6000    0.9250    0.0000 C   0  0  0  0  0  0  0  0  0  0  0  0
    1.4375   -1.3125    0.0000 C   0  0  0  0  0  0  0  0  0  0  0  0
   -2.5208    2.4208    0.0000 C   0  0  0  0  0  0  0  0  0  0  0  0
  2  4  1  0
  3  1  1  0
  4  3  2  0
  5  1  2  0
  6  2  2  0
  7  2  1  0
  8  1  1  0
 10 14  1  0
 11  9  1  0
 12  9  1  0
 13  9  1  0
 14 11  1  0
 15 10  1  0
 16 13  1  0
 17 12  1  0
 18 12  1  0
 19 13  1  0
 20 14  1  0
 21 15  1  0
 22 17  1  0
 23 18  1  0
 24 19  1  0
 25 16  1  0
 26 20  1  0
 27 24  1  0
 28 23  1  0
 25 27  1  0
 22 28  1  0
 26 21  1  0
M  END
> <chembl_id>
CHEMBL1334033

> <chembl_pref_name>
PERHEXILINE MALEATE
