
     RDKit          2D

 31 33  0  0  1  0  0  0  0  0999 V2000
    6.3250   -6.3958    0.0000 N   0  0  0  0  0  0  0  0  0  0  0  0
    5.6167   -6.4000    0.0000 C   0  0  0  0  0  0  0  0  0  0  0  0
    5.6167   -5.6875    0.0000 C   0  0  0  0  0  0  0  0  0  0  0  0
    6.3250   -5.6875    0.0000 C   0  0  0  0  0  0  0  0  0  0  0  0
    6.9292   -6.7458    0.0000 C   0  0  0  0  0  0  0  0  0  0  0  0
    3.1583   -5.6875    0.0000 C   0  0  0  0  0  0  0  0  0  0  0  0
    3.7708   -5.3333    0.0000 C   0  0  0  0  0  0  0  0  0  0  0  0
    2.9375   -6.3583    0.0000 N   0  0  0  0  0  0  0  0  0  0  0  0
    5.0000   -5.3292    0.0000 N   0  0  0  0  0  0  0  0  0  0  0  0
    4.3833   -5.6875    0.0000 C   0  0  0  0  0  0  0  0  0  0  0  0
    6.9375   -5.3375    0.0000 S   0  0  0  0  0  0  0  0  0  0  0  0
    2.2292   -6.3583    0.0000 C   0  0  0  0  0  0  0  0  0  0  0  0
    7.5417   -6.4000    0.0000 C   0  0  0  0  0  0  0  0  0  0  0  0
    2.5833   -5.2667    0.0000 C   0  0  0  0  0  0  0  0  0  0  0  0
    2.0125   -5.6875    0.0000 S   0  0  0  0  0  0  0  0  0  0  0  0
    6.9250   -7.4542    0.0000 C   0  0  0  0  0  0  0  0  0  0  0  0
    3.7708   -4.6250    0.0000 N   0  0  0  0  0  0  0  0  0  0  0  0
    7.5458   -5.6958    0.0000 C   0  0  0  0  0  0  0  0  0  0  0  0
    5.1208   -6.9000    0.0000 O   0  0  0  0  0  0  0  0  0  0  0  0
    4.9958   -3.2042    0.0000 C   0  0  0  0  0  0  0  0  0  0  0  0
    8.1500   -6.7583    0.0000 C   0  0  0  0  0  0  0  0  0  0  0  0
    4.3833   -6.3958    0.0000 O   0  0  0  0  0  0  0  0  0  0  0  0
    4.3833   -3.5625    0.0000 C   0  0  0  0  0  0  0  0  0  0  0  0
    6.3083   -7.8042    0.0000 O   0  0  0  0  0  0  0  0  0  0  0  0
    4.3833   -4.2708    0.0000 O   0  0  0  0  0  0  0  0  0  0  0  0
    4.9958   -2.5000    0.0000 O   0  0  0  0  0  0  0  0  0  0  0  0
    1.6125   -6.7042    0.0000 N   0  0  0  0  0  0  0  0  0  0  0  0
    8.7667   -6.4083    0.0000 C   0  0  0  0  0  0  0  0  0  0  0  0
    7.5333   -7.8125    0.0000 O   0  0  0  0  0  0  0  0  0  0  0  0
    5.6125   -3.5583    0.0000 O   0  0  0  0  0  0  0  0  0  0  0  0
    6.3167   -4.9792    0.0000 H   0  0  0  0  0  0  0  0  0  0  0  0
  2  1  1  0
  3  2  1  0
  4  1  1  0
  5  1  1  0
  6  7  1  0
  7 10  1  0
  8  6  1  0
  3  9  1  1
 10  9  1  0
 11  4  1  0
 12  8  2  0
 13  5  2  0
 14  6  2  0
 15 14  1  0
 16  5  1  0
 17  7  2  0
 18 13  1  0
 19  2  2  0
 20 23  1  0
 21 13  1  0
 22 10  2  0
 23 25  1  0
 24 16  2  0
 25 17  1  0
 26 20  2  0
 27 12  1  0
 28 21  2  0
 29 16  1  0
 30 20  1  0
  4 31  1  6
  3  4  1  0
 11 18  1  0
 12 15  1  0
M  END
> <chembl_id>
CHEMBL1541

> <chembl_pref_name>
CEFIXIME
