
     RDKit          2D

 35 36  0  0  0  0  0  0  0  0999 V2000
    3.9542    0.8333    0.0000 Ca  0  0  0  0  0 15  0  0  0  0  0  0
   -2.7708   -0.4125    0.0000 C   0  0  0  0  0  0  0  0  0  0  0  0
   -2.7708    0.1750    0.0000 C   0  0  0  0  0  0  0  0  0  0  0  0
   -3.7625   -0.4125    0.0000 N   0  0  0  0  0  0  0  0  0  0  0  0
   -3.2625   -0.6917    0.0000 C   0  0  0  0  0  0  0  0  0  0  0  0
   -3.2833    0.4625    0.0000 N   0  0  0  0  0  0  0  0  0  0  0  0
   -2.2833   -0.6917    0.0000 N   0  0  0  0  0  0  0  0  0  0  0  0
   -3.7625    0.1750    0.0000 C   0  0  0  0  0  0  0  0  0  0  0  0
   -2.2833    0.4625    0.0000 N   0  0  0  0  0  0  0  0  0  0  0  0
    1.1500    0.7000    0.0000 C   0  0  0  0  0  0  0  0  0  0  0  0
    1.6417    0.4208    0.0000 N   0  0  0  0  0  0  0  0  0  0  0  0
   -1.7875   -0.4125    0.0000 C   0  0  0  0  0  0  0  0  0  0  0  0
    2.4417    1.1083    0.0000 C   0  0  0  0  0  0  0  0  0  0  0  0
   -2.2833   -1.2792    0.0000 C   0  0  0  0  0  0  0  0  0  0  0  0
    2.1250    0.7000    0.0000 C   0  0  0  0  0  0  0  0  0  0  0  0
    3.1750   -0.3542    0.0000 C   0  0  0  0  0  0  0  0  0  0  0  0
   -3.2625   -1.2792    0.0000 O   0  0  0  0  0  0  0  0  0  0  0  0
    0.6542    0.4208    0.0000 C   0  0  0  0  0  0  0  0  0  0  0  0
   -1.7875    0.1750    0.0000 C   0  0  0  0  0  0  0  0  0  0  0  0
    3.0167    1.1083    0.0000 O   0  0  0  0  0  0  0  0  0  0  0  0
    1.1500    1.2625    0.0000 O   0  0  0  0  0  0  0  0  0  0  0  0
   -1.3000   -0.1167    0.0000 C   0  0  0  0  0  0  0  0  0  0  0  0
   -0.8208   -0.4292    0.0000 N   0  0  0  0  0  0  0  0  0  0  0  0
    3.5167    0.1000    0.0000 O   0  0  0  0  0  0  0  0  0  0  0  0
    2.2500    1.6083    0.0000 O   0  0  0  0  0  0  0  0  0  0  0  0
   -4.2708    0.4625    0.0000 N   0  0  0  0  0  0  0  0  0  0  0  0
   -1.7875   -1.5667    0.0000 O   0  0  0  0  0  0  0  0  0  0  0  0
    3.1750   -0.9375    0.0000 O   0  0  0  0  0  0  0  0  0  0  0  0
    2.6250    0.4208    0.0000 C   0  0  0  0  0  0  0  0  0  0  0  0
    0.6542   -0.1417    0.0000 C   0  0  0  0  0  0  0  0  0  0  0  0
    0.1792    0.7333    0.0000 C   0  0  0  0  0  0  0  0  0  0  0  0
   -0.3083   -0.1667    0.0000 C   0  0  0  0  0  0  0  0  0  0  0  0
    2.6167   -0.1542    0.0000 C   0  0  0  0  0  0  0  0  0  0  0  0
   -0.3083    0.4458    0.0000 C   0  0  0  0  0  0  0  0  0  0  0  0
    0.1667   -0.4292    0.0000 C   0  0  0  0  0  0  0  0  0  0  0  0
  3  2  2  0
  4  5  1  0
  5  2  1  0
  6  3  1  0
  7  2  1  0
  8  4  2  0
  9  3  1  0
 10 18  1  0
 11 10  1  0
 12  7  1  0
 13 15  1  0
 14  7  1  0
 15 11  1  6
 16 33  1  0
 17  5  2  0
 18 30  2  0
 19 12  1  0
 20 13  1  0
 21 10  2  0
 12 22  1  6
 23 22  1  0
 24 16  1  0
 25 13  2  0
 26  8  1  0
 27 14  2  0
 28 16  2  0
 29 15  1  0
 30 35  1  0
 31 34  2  0
 32 23  1  0
 33 29  1  0
 34 32  1  0
 35 32  2  0
  9 19  1  0
  6  8  1  0
 31 18  1  0
M  CHG  3   1   2  20  -1  24  -1
M  END
> <chembl_id>
CHEMBL1908361

> <chembl_pref_name>
LEVOLEUCOVORIN CALCIUM
