
     RDKit          2D

 30 34  0  0  0  0  0  0  0  0999 V2000
   13.9480  -20.5803    0.0000 N   0  0  0  0  0  0  0  0  0  0  0  0
   13.5327  -21.2943    0.0000 C   0  0  0  0  0  0  0  0  0  0  0  0
   13.9411  -22.0070    0.0000 C   0  0  0  0  0  0  0  0  0  0  0  0
   14.7665  -22.0119    0.0000 N   0  0  0  0  0  0  0  0  0  0  0  0
   15.1817  -21.2979    0.0000 C   0  0  0  0  0  0  0  0  0  0  0  0
   14.7717  -20.5790    0.0000 C   0  0  0  0  0  0  0  0  0  0  0  0
   15.2510  -22.6857    0.0000 C   0  0  0  0  0  0  0  0  0  0  0  0
   14.9927  -23.4692    0.0000 C   0  0  0  0  0  0  0  0  0  0  0  0
   15.6580  -23.9570    0.0000 N   0  0  0  0  0  0  0  0  0  0  0  0
   16.3266  -23.4754    0.0000 C   0  0  0  0  0  0  0  0  0  0  0  0
   16.0759  -22.6893    0.0000 C   0  0  0  0  0  0  0  0  0  0  0  0
   17.0322  -23.9030    0.0000 C   0  0  0  0  0  0  0  0  0  0  0  0
   17.0147  -24.7278    0.0000 O   0  0  0  0  0  0  0  0  0  0  0  0
   17.7013  -23.4196    0.0000 N   0  0  0  0  0  0  0  0  0  0  0  0
   18.4837  -23.6756    0.0000 C   0  0  0  0  0  0  0  0  0  0  0  0
   18.9705  -23.0096    0.0000 C   0  0  0  0  0  0  0  0  0  0  0  0
   18.4875  -22.3407    0.0000 S   0  0  0  0  0  0  0  0  0  0  0  0
   17.7022  -22.5935    0.0000 C   0  0  0  0  0  0  0  0  0  0  0  0
   13.4724  -19.9061    0.0000 C   0  0  0  0  0  0  0  0  0  0  0  0
   13.7340  -19.1268    0.0000 C   0  0  0  0  0  0  0  0  0  0  0  0
   13.0733  -18.6327    0.0000 C   0  0  0  0  0  0  0  0  0  0  0  0
   12.3992  -19.1084    0.0000 N   0  0  0  0  0  0  0  0  0  0  0  0
   12.6435  -19.8963    0.0000 N   0  0  0  0  0  0  0  0  0  0  0  0
   12.2227  -20.6022    0.0000 C   0  0  0  0  0  0  0  0  0  0  0  0
   11.3967  -20.5870    0.0000 C   0  0  0  0  0  0  0  0  0  0  0  0
   10.9724  -21.2937    0.0000 C   0  0  0  0  0  0  0  0  0  0  0  0
   11.3729  -22.0159    0.0000 C   0  0  0  0  0  0  0  0  0  0  0  0
   12.2021  -22.0272    0.0000 C   0  0  0  0  0  0  0  0  0  0  0  0
   12.6227  -21.3199    0.0000 C   0  0  0  0  0  0  0  0  0  0  0  0
   13.0847  -17.8078    0.0000 C   0  0  0  0  0  0  0  0  0  0  0  0
  7  8  1  0
  1  2  1  0
 15 16  1  0
 16 17  1  0
 17 18  1  0
 18 14  1  0
  1  6  1  0
  1 19  1  0
 19 20  2  0
  2  3  1  0
  8  9  1  0
  9 10  1  0
 10 11  1  0
 20 21  1  0
 21 22  2  0
 22 23  1  0
 23 19  1  0
 11  7  1  0
  7  4  1  1
 24 25  2  0
  3  4  1  0
 25 26  1  0
 10 12  1  1
 26 27  2  0
  4  5  1  0
 27 28  1  0
 12 13  2  0
 28 29  2  0
 29 24  1  0
 23 24  1  0
  5  6  1  0
 21 30  1  0
 12 14  1  0
 14 15  1  0
M  END
> <chembl_id>
CHEMBL2147777

> <chembl_pref_name>
TENELIGLIPTIN
