
     RDKit          2D

 25 27  0  0  0  0  0  0  0  0999 V2000
    5.7625   -5.1125    0.0000 N   0  0  0  0  0  0  0  0  0  0  0  0
    5.6625   -6.7375    0.0000 C   0  0  0  0  0  0  0  0  0  0  0  0
    5.1292   -6.2750    0.0000 C   0  0  0  0  0  0  0  0  0  0  0  0
    5.1292   -5.5417    0.0000 C   0  0  0  0  0  0  0  0  0  0  0  0
    6.4167   -6.6167    0.0000 N   0  0  0  0  0  0  0  0  0  0  0  0
    6.4167   -5.2667    0.0000 C   0  0  0  0  0  0  0  0  0  0  0  0
    5.6625   -7.4292    0.0000 C   0  0  0  0  0  0  0  0  0  0  0  0
    5.1375   -4.1125    0.0000 C   0  0  0  0  0  0  0  0  0  0  0  0
    5.7625   -4.4542    0.0000 C   0  0  0  0  0  0  0  0  0  0  0  0
    6.7750   -5.9625    0.0000 C   0  0  0  0  0  0  0  0  0  0  0  0
    4.5125   -5.1500    0.0000 C   0  0  0  0  0  0  0  0  0  0  0  0
    4.5125   -6.6167    0.0000 C   0  0  0  0  0  0  0  0  0  0  0  0
    6.9125   -4.8417    0.0000 S   0  0  0  0  0  0  0  0  0  0  0  0
    6.2500   -7.7667    0.0000 C   0  0  0  0  0  0  0  0  0  0  0  0
    4.5250   -4.4542    0.0000 F   0  0  0  0  0  0  0  0  0  0  0  0
    5.4875   -3.4917    0.0000 F   0  0  0  0  0  0  0  0  0  0  0  0
    4.7792   -3.4917    0.0000 F   0  0  0  0  0  0  0  0  0  0  0  0
    3.8750   -6.2750    0.0000 C   0  0  0  0  0  0  0  0  0  0  0  0
    3.8750   -5.5417    0.0000 C   0  0  0  0  0  0  0  0  0  0  0  0
    6.8542   -7.4000    0.0000 F   0  0  0  0  0  0  0  0  0  0  0  0
    3.3250   -6.6167    0.0000 Cl  0  0  0  0  0  0  0  0  0  0  0  0
    5.0625   -7.7667    0.0000 C   0  0  0  0  0  0  0  0  0  0  0  0
    6.2500   -8.4542    0.0000 C   0  0  0  0  0  0  0  0  0  0  0  0
    5.0625   -8.4542    0.0000 C   0  0  0  0  0  0  0  0  0  0  0  0
    5.6625   -8.8042    0.0000 C   0  0  0  0  0  0  0  0  0  0  0  0
  2  3  1  0
  3  4  2  0
  4  1  1  0
  5 10  1  0
  6  1  1  0
  7  2  1  0
  8  9  1  0
  9  1  1  0
 10  6  1  0
 11  4  1  0
 12  3  1  0
 13  6  2  0
 14  7  1  0
 15  8  1  0
 16  8  1  0
 17  8  1  0
 18 19  1  0
 19 11  2  0
 20 14  1  0
 21 18  1  0
 22  7  2  0
 23 14  2  0
 24 22  1  0
 25 24  2  0
  5  2  2  0
 18 12  2  0
 25 23  1  0
M  END
> <chembl_id>
CHEMBL1200472

> <chembl_pref_name>
QUAZEPAM
