
     RDKit          2D

208216  0  0  1  0  0  0  0  0999 V2000
    7.1466   -8.2921    0.0000 N   0  0  0  0  0  0  0  0  0  0  0  0
   16.4239   -2.5503    0.0000 N   0  0  0  0  0  0  0  0  0  0  0  0
   -3.7429   -8.5419    0.0000 N   0  0  0  0  0  0  0  0  0  0  0  0
   -3.0217   -8.1648    0.0000 C   0  0  0  0  0  0  0  0  0  0  0  0
    7.8772   -8.6409    0.0000 C   0  0  0  0  0  0  0  0  0  0  0  0
   16.3956   -1.7395    0.0000 C   0  0  0  0  0  0  0  0  0  0  0  0
    5.6003   -8.2921    0.0000 C   0  0  0  0  0  0  0  0  0  0  0  0
   17.1310   -3.7666    0.0000 C   0  0  0  0  0  0  0  0  0  0  0  0
   -0.8627   -8.5891    0.0000 C   0  0  0  0  0  0  0  0  0  0  0  0
    3.4413   -8.6409    0.0000 C   0  0  0  0  0  0  0  0  0  0  0  0
    4.8697   -8.6409    0.0000 N   0  0  0  0  0  0  0  0  0  0  0  0
   12.9024    1.1597    0.0000 C   0  0  0  0  0  0  0  0  0  0  0  0
   17.8239   -4.2191    0.0000 N   0  0  0  0  0  0  0  0  0  0  0  0
    0.5657   -8.6174    0.0000 N   0  0  0  0  0  0  0  0  0  0  0  0
   -0.0141   -0.4950    0.0000 C   0  0  0  0  0  0  0  0  0  0  0  0
   -2.2910   -8.5608    0.0000 C   0  0  0  0  0  0  0  0  0  0  0  0
    6.3499   -8.6881    0.0000 C   0  0  0  0  0  0  0  0  0  0  0  0
   17.0979   -2.9888    0.0000 C   0  0  0  0  0  0  0  0  0  0  0  0
    1.3152   -8.2355    0.0000 C   0  0  0  0  0  0  0  0  0  0  0  0
   -4.3228   -0.4950    0.0000 C   0  0  0  0  0  0  0  0  0  0  0  0
   -2.1920   -0.1179    0.0000 C   0  0  0  0  0  0  0  0  0  0  0  0
    6.4206   -0.0707    0.0000 C   0  0  0  0  0  0  0  0  0  0  0  0
    8.6032   -0.4149    0.0000 C   0  0  0  0  0  0  0  0  0  0  0  0
   -1.5933   -8.1931    0.0000 N   0  0  0  0  0  0  0  0  0  0  0  0
    4.2898   -0.4432    0.0000 C   0  0  0  0  0  0  0  0  0  0  0  0
    2.1402   -0.0896    0.0000 C   0  0  0  0  0  0  0  0  0  0  0  0
   10.0033   -8.2921    0.0000 C   0  0  0  0  0  0  0  0  0  0  0  0
   10.7528   -0.0330    0.0000 C   0  0  0  0  0  0  0  0  0  0  0  0
   12.1812   -8.6692    0.0000 C   0  0  0  0  0  0  0  0  0  0  0  0
   14.2884   -8.2921    0.0000 C   0  0  0  0  0  0  0  0  0  0  0  0
   -1.4425   -0.4950    0.0000 N   0  0  0  0  0  0  0  0  0  0  0  0
   -4.4218   -8.1648    0.0000 C   0  0  0  0  0  0  0  0  0  0  0  0
   -0.7165   -0.1179    0.0000 C   0  0  0  0  0  0  0  0  0  0  0  0
   14.2318    1.2398    0.0000 N   0  0  0  0  0  0  0  0  0  0  0  0
   -3.6015   -0.1179    0.0000 N   0  0  0  0  0  0  0  0  0  0  0  0
    4.9970   -0.0707    0.0000 N   0  0  0  0  0  0  0  0  0  0  0  0
    4.1437   -8.2638    0.0000 C   0  0  0  0  0  0  0  0  0  0  0  0
    7.1466   -0.4432    0.0000 N   0  0  0  0  0  0  0  0  0  0  0  0
   -0.1367   -8.2166    0.0000 C   0  0  0  0  0  0  0  0  0  0  0  0
   11.4741   -0.4149    0.0000 N   0  0  0  0  0  0  0  0  0  0  0  0
    9.2773   -8.6692    0.0000 N   0  0  0  0  0  0  0  0  0  0  0  0
    2.7436   -8.2638    0.0000 N   0  0  0  0  0  0  0  0  0  0  0  0
   13.5813    0.7071    0.0000 C   0  0  0  0  0  0  0  0  0  0  0  0
    0.7119   -0.0896    0.0000 N   0  0  0  0  0  0  0  0  0  0  0  0
    2.8615   -0.4714    0.0000 N   0  0  0  0  0  0  0  0  0  0  0  0
    9.2962   -0.0330    0.0000 N   0  0  0  0  0  0  0  0  0  0  0  0
   13.5813   -8.6692    0.0000 N   0  0  0  0  0  0  0  0  0  0  0  0
   11.4599   -8.2921    0.0000 N   0  0  0  0  0  0  0  0  0  0  0  0
    5.7182   -0.4432    0.0000 C   0  0  0  0  0  0  0  0  0  0  0  0
   17.8192   -4.9828    0.0000 C   0  0  0  0  0  0  0  0  0  0  0  0
   17.1451   -5.4165    0.0000 C   0  0  0  0  0  0  0  0  0  0  0  0
   12.9024   -0.4432    0.0000 C   0  0  0  0  0  0  0  0  0  0  0  0
   12.1812   -0.0707    0.0000 C   0  0  0  0  0  0  0  0  0  0  0  0
    6.5243   -2.4938    0.0000 N   0  0  0  0  0  0  0  0  0  0  0  0
   -2.8944   -0.4950    0.0000 C   0  0  0  0  0  0  0  0  0  0  0  0
    7.8678   -0.0330    0.0000 C   0  0  0  0  0  0  0  0  0  0  0  0
    8.5749   -8.2921    0.0000 C   0  0  0  0  0  0  0  0  0  0  0  0
    7.1466   -5.0111    0.0000 C   0  0  0  0  0  0  0  0  0  0  0  0
    9.2773  -11.9973    0.0000 C   0  0  0  0  0  0  0  0  0  0  0  0
   11.4741   -3.7524    0.0000 C   0  0  0  0  0  0  0  0  0  0  0  0
   -5.1478   -8.5184    0.0000 C   0  0  0  0  0  0  0  0  0  0  0  0
   15.7309   -1.3152    0.0000 C   0  0  0  0  0  0  0  0  0  0  0  0
   13.0815    1.9893    0.0000 C   0  0  0  0  0  0  0  0  0  0  0  0
   12.1812    0.7306    0.0000 C   0  0  0  0  0  0  0  0  0  0  0  0
    6.4488   -1.6735    0.0000 C   0  0  0  0  0  0  0  0  0  0  0  0
   15.7026   -0.4997    0.0000 N   0  0  0  0  0  0  0  0  0  0  0  0
   -5.0205   -0.1179    0.0000 C   0  0  0  0  0  0  0  0  0  0  0  0
   15.7403   -8.3156    0.0000 N   0  0  0  0  0  0  0  0  0  0  0  0
    3.5921   -0.0896    0.0000 C   0  0  0  0  0  0  0  0  0  0  0  0
    5.7465   -1.2728    0.0000 C   0  0  0  0  0  0  0  0  0  0  0  0
    1.4331   -0.4714    0.0000 C   0  0  0  0  0  0  0  0  0  0  0  0
   15.0379   -0.0707    0.0000 C   0  0  0  0  0  0  0  0  0  0  0  0
   16.4380   -8.6881    0.0000 C   0  0  0  0  0  0  0  0  0  0  0  0
   17.1310   -6.2132    0.0000 N   0  0  0  0  0  0  0  0  0  0  0  0
    2.0129   -8.6409    0.0000 C   0  0  0  0  0  0  0  0  0  0  0  0
   13.6096   -0.0707    0.0000 N   0  0  0  0  0  0  0  0  0  0  0  0
    7.7499   -1.9705    0.0000 N   0  0  0  0  0  0  0  0  0  0  0  0
   10.7057   -8.6692    0.0000 C   0  0  0  0  0  0  0  0  0  0  0  0
   12.8600   -8.2921    0.0000 C   0  0  0  0  0  0  0  0  0  0  0  0
   10.0268   -0.4149    0.0000 C   0  0  0  0  0  0  0  0  0  0  0  0
    7.3446   -2.6729    0.0000 C   0  0  0  0  0  0  0  0  0  0  0  0
   13.9348    2.0082    0.0000 C   0  0  0  0  0  0  0  0  0  0  0  0
   15.0096   -8.6881    0.0000 C   0  0  0  0  0  0  0  0  0  0  0  0
    8.5466  -12.3933    0.0000 N   0  0  0  0  0  0  0  0  0  0  0  0
    6.4253   -4.5868    0.0000 N   0  0  0  0  0  0  0  0  0  0  0  0
   12.2095   -4.1012    0.0000 N   0  0  0  0  0  0  0  0  0  0  0  0
    4.2616    2.0082    0.0000 C   0  0  0  0  0  0  0  0  0  0  0  0
   -3.0217   -7.3398    0.0000 O   0  0  0  0  0  0  0  0  0  0  0  0
    7.8772   -9.4942    0.0000 O   0  0  0  0  0  0  0  0  0  0  0  0
   17.1168   -1.3341    0.0000 O   0  0  0  0  0  0  0  0  0  0  0  0
    5.6003   -7.3587    0.0000 O   0  0  0  0  0  0  0  0  0  0  0  0
   16.4191   -4.1720    0.0000 O   0  0  0  0  0  0  0  0  0  0  0  0
   -2.2910   -9.3952    0.0000 C   0  0  0  0  0  0  0  0  0  0  0  0
   -0.8627   -9.4187    0.0000 O   0  0  0  0  0  0  0  0  0  0  0  0
    3.4413   -9.4376    0.0000 O   0  0  0  0  0  0  0  0  0  0  0  0
    7.1984   -1.3483    0.0000 C   0  0  0  0  0  0  0  0  0  0  0  0
   -0.0141   -1.2917    0.0000 O   0  0  0  0  0  0  0  0  0  0  0  0
   -4.3228   -1.3200    0.0000 O   0  0  0  0  0  0  0  0  0  0  0  0
    1.3152   -7.4153    0.0000 O   0  0  0  0  0  0  0  0  0  0  0  0
   -2.1920    0.7071    0.0000 O   0  0  0  0  0  0  0  0  0  0  0  0
    6.4206    0.7306    0.0000 O   0  0  0  0  0  0  0  0  0  0  0  0
    8.6032   -1.2728    0.0000 O   0  0  0  0  0  0  0  0  0  0  0  0
   12.1340   -9.4942    0.0000 O   0  0  0  0  0  0  0  0  0  0  0  0
   10.0033   -7.4671    0.0000 O   0  0  0  0  0  0  0  0  0  0  0  0
   14.2884   -7.4860    0.0000 O   0  0  0  0  0  0  0  0  0  0  0  0
   10.7528    0.7589    0.0000 O   0  0  0  0  0  0  0  0  0  0  0  0
    4.2898   -1.2917    0.0000 O   0  0  0  0  0  0  0  0  0  0  0  0
    2.1402    0.7071    0.0000 O   0  0  0  0  0  0  0  0  0  0  0  0
   -2.8709   -1.2917    0.0000 C   0  0  0  0  0  0  0  0  0  0  0  0
    7.8678    0.7589    0.0000 C   0  0  0  0  0  0  0  0  0  0  0  0
   16.4239   -5.0111    0.0000 O   0  0  0  0  0  0  0  0  0  0  0  0
   12.9024   -1.2728    0.0000 O   0  0  0  0  0  0  0  0  0  0  0  0
   -5.1478   -9.3669    0.0000 O   0  0  0  0  0  0  0  0  0  0  0  0
   16.4380   -9.4942    0.0000 O   0  0  0  0  0  0  0  0  0  0  0  0
   15.0379    0.7306    0.0000 O   0  0  0  0  0  0  0  0  0  0  0  0
    3.5686    2.4136    0.0000 O   0  0  0  0  0  0  0  0  0  0  0  0
    3.5921    0.7306    0.0000 C   0  0  0  0  0  0  0  0  0  0  0  0
    9.2773  -11.1723    0.0000 N   0  0  0  0  0  0  0  0  0  0  0  0
    7.1466   -5.8124    0.0000 N   0  0  0  0  0  0  0  0  0  0  0  0
   11.4741   -2.8992    0.0000 N   0  0  0  0  0  0  0  0  0  0  0  0
   17.1686   -8.3156    0.0000 C   0  0  0  0  0  0  0  0  0  0  0  0
   14.3119   -0.4432    0.0000 C   0  0  0  0  0  0  0  0  0  0  0  0
    7.8961   -4.5868    0.0000 N   0  0  0  0  0  0  0  0  0  0  0  0
   10.0033  -12.3933    0.0000 N   0  0  0  0  0  0  0  0  0  0  0  0
   10.7528   -4.1012    0.0000 N   0  0  0  0  0  0  0  0  0  0  0  0
    7.1749   -7.5143    0.0000 C   0  0  0  0  0  0  0  0  0  0  0  0
   -3.7429   -9.3669    0.0000 C   0  0  0  0  0  0  0  0  0  0  0  0
   15.7450   -2.9322    0.0000 C   0  0  0  0  0  0  0  0  0  0  0  0
   -5.7511   -0.4950    0.0000 N   0  0  0  0  0  0  0  0  0  0  0  0
    4.1720   -7.4388    0.0000 C   0  0  0  0  0  0  0  0  0  0  0  0
   -0.1367   -7.3870    0.0000 C   0  0  0  0  0  0  0  0  0  0  0  0
   18.5169   -5.3788    0.0000 C   0  0  0  0  0  0  0  0  0  0  0  0
    4.2616    1.1597    0.0000 C   0  0  0  0  0  0  0  0  0  0  0  0
   -2.8426  -10.0174    0.0000 C   0  0  0  0  0  0  0  0  0  0  0  0
   -2.1449   -1.7160    0.0000 C   0  0  0  0  0  0  0  0  0  0  0  0
   -5.8218   -8.1648    0.0000 O   0  0  0  0  0  0  0  0  0  0  0  0
    1.4331   -1.2917    0.0000 C   0  0  0  0  0  0  0  0  0  0  0  0
   -3.8702  -11.3185    0.0000 C   0  0  0  0  0  0  0  0  0  0  0  0
   -0.7165   -2.5503    0.0000 C   0  0  0  0  0  0  0  0  0  0  0  0
    4.9970    2.4419    0.0000 O   0  0  0  0  0  0  0  0  0  0  0  0
    8.5749    1.1832    0.0000 C   0  0  0  0  0  0  0  0  0  0  0  0
    2.1402   -2.5503    0.0000 S   0  0  0  0  0  0  0  0  0  0  0  0
   -0.7165    0.7071    0.0000 C   0  0  0  0  0  0  0  0  0  0  0  0
   -2.5408  -10.8235    0.0000 C   0  0  0  0  0  0  0  0  0  0  0  0
   -3.6439   -9.8902    0.0000 C   0  0  0  0  0  0  0  0  0  0  0  0
   -1.4425   -1.2917    0.0000 C   0  0  0  0  0  0  0  0  0  0  0  0
   -2.1449   -2.5503    0.0000 C   0  0  0  0  0  0  0  0  0  0  0  0
   11.4741   -4.9828    0.0000 N   0  0  0  0  0  0  0  0  0  0  0  0
    0.5374  -11.9219    0.0000 N   0  0  0  0  0  0  0  0  0  0  0  0
   13.5624  -11.9973    0.0000 N   0  0  0  0  0  0  0  0  0  0  0  0
   13.5388   -4.1767    0.0000 N   0  0  0  0  0  0  0  0  0  0  0  0
   -3.0406  -11.4458    0.0000 C   0  0  0  0  0  0  0  0  0  0  0  0
   -4.1672  -10.5218    0.0000 C   0  0  0  0  0  0  0  0  0  0  0  0
   -0.7165   -1.7160    0.0000 C   0  0  0  0  0  0  0  0  0  0  0  0
   -1.4425   -2.9746    0.0000 C   0  0  0  0  0  0  0  0  0  0  0  0
    5.9728   -8.0893    0.0000 C   0  0  0  0  0  0  0  0  0  0  0  0
   16.8764   -3.7100    0.0000 C   0  0  0  0  0  0  0  0  0  0  0  0
   -4.9450   -8.7446    0.0000 C   0  0  0  0  0  0  0  0  0  0  0  0
   -5.0205    0.7071    0.0000 C   0  0  0  0  0  0  0  0  0  0  0  0
   -4.3935  -11.9502    0.0000 O   0  0  0  0  0  0  0  0  0  0  0  0
   -0.0141   -2.9463    0.0000 O   0  0  0  0  0  0  0  0  0  0  0  0
   -0.0141    1.1314    0.0000 O   0  0  0  0  0  0  0  0  0  0  0  0
   -4.3228    1.1125    0.0000 O   0  0  0  0  0  0  0  0  0  0  0  0
    6.2980   -7.3398    0.0000 C   0  0  0  0  0  0  0  0  0  0  0  0
   -4.5679   -9.4942    0.0000 C   0  0  0  0  0  0  0  0  0  0  0  0
   15.9996   -3.7477    0.0000 C   0  0  0  0  0  0  0  0  0  0  0  0
    8.5749   -7.4671    0.0000 C   0  0  0  0  0  0  0  0  0  0  0  0
   12.6573    2.6587    0.0000 C   0  0  0  0  0  0  0  0  0  0  0  0
   15.0096   -1.7160    0.0000 C   0  0  0  0  0  0  0  0  0  0  0  0
    2.1402   -1.6971    0.0000 C   0  0  0  0  0  0  0  0  0  0  0  0
   10.7057   -9.4942    0.0000 C   0  0  0  0  0  0  0  0  0  0  0  0
    1.9941   -9.4376    0.0000 C   0  0  0  0  0  0  0  0  0  0  0  0
   12.8836   -7.4671    0.0000 C   0  0  0  0  0  0  0  0  0  0  0  0
   10.0268   -1.2445    0.0000 C   0  0  0  0  0  0  0  0  0  0  0  0
   15.0096   -9.4942    0.0000 C   0  0  0  0  0  0  0  0  0  0  0  0
   14.3119    2.7671    0.0000 C   0  0  0  0  0  0  0  0  0  0  0  0
   10.0033  -10.7481    0.0000 C   0  0  0  0  0  0  0  0  0  0  0  0
    7.8772   -6.2367    0.0000 C   0  0  0  0  0  0  0  0  0  0  0  0
   10.7528   -2.4938    0.0000 C   0  0  0  0  0  0  0  0  0  0  0  0
   11.4599   -5.7889    0.0000 C   0  0  0  0  0  0  0  0  0  0  0  0
   13.5624  -11.1723    0.0000 C   0  0  0  0  0  0  0  0  0  0  0  0
    0.5374  -11.1205    0.0000 C   0  0  0  0  0  0  0  0  0  0  0  0
   14.2412   -3.7807    0.0000 C   0  0  0  0  0  0  0  0  0  0  0  0
    1.4331   -2.9463    0.0000 C   0  0  0  0  0  0  0  0  0  0  0  0
    4.8980   -7.0145    0.0000 C   0  0  0  0  0  0  0  0  0  0  0  0
    3.4696   -7.0145    0.0000 C   0  0  0  0  0  0  0  0  0  0  0  0
   -0.8627   -6.9627    0.0000 C   0  0  0  0  0  0  0  0  0  0  0  0
    0.6129   -6.9910    0.0000 C   0  0  0  0  0  0  0  0  0  0  0  0
   19.2193   -4.9970    0.0000 C   0  0  0  0  0  0  0  0  0  0  0  0
   18.5310   -6.2226    0.0000 C   0  0  0  0  0  0  0  0  0  0  0  0
    9.2962    0.7589    0.0000 C   0  0  0  0  0  0  0  0  0  0  0  0
    8.5749    2.0082    0.0000 C   0  0  0  0  0  0  0  0  0  0  0  0
    7.8772   -7.0617    0.0000 C   0  0  0  0  0  0  0  0  0  0  0  0
   10.0033   -9.8902    0.0000 C   0  0  0  0  0  0  0  0  0  0  0  0
   10.7528   -1.6452    0.0000 C   0  0  0  0  0  0  0  0  0  0  0  0
   14.9814   -2.5362    0.0000 C   0  0  0  0  0  0  0  0  0  0  0  0
    1.3152   -9.8430    0.0000 C   0  0  0  0  0  0  0  0  0  0  0  0
   12.1812   -7.0334    0.0000 C   0  0  0  0  0  0  0  0  0  0  0  0
   14.2884   -9.9184    0.0000 C   0  0  0  0  0  0  0  0  0  0  0  0
   14.2884  -10.7670    0.0000 C   0  0  0  0  0  0  0  0  0  0  0  0
   12.1812   -6.2367    0.0000 C   0  0  0  0  0  0  0  0  0  0  0  0
    1.2917  -10.6963    0.0000 C   0  0  0  0  0  0  0  0  0  0  0  0
   14.2601   -2.9416    0.0000 C   0  0  0  0  0  0  0  0  0  0  0  0
   13.0108    3.4177    0.0000 C   0  0  0  0  0  0  0  0  0  0  0  0
   13.8594    3.4601    0.0000 C   0  0  0  0  0  0  0  0  0  0  0  0
   10.0268    1.1832    0.0000 C   0  0  0  0  0  0  0  0  0  0  0  0
    9.2962    2.4419    0.0000 C   0  0  0  0  0  0  0  0  0  0  0  0
   10.0268    2.0082    0.0000 C   0  0  0  0  0  0  0  0  0  0  0  0
 18  2  1  6
  3  4  1  0
  4 16  1  0
  5  1  1  0
  6  2  1  0
  7 17  1  0
  8 13  1  0
  9 39  1  0
 10 37  1  0
 11  7  1  0
 12 64  1  0
 50 13  1  1
 14 19  1  0
 15 44  1  0
 16 24  1  1
 17  1  1  6
 18  8  1  0
 19 75  1  0
 20 35  1  0
 21 31  1  0
 22 38  1  0
 23 46  1  0
 24  9  1  0
 25 36  1  0
 26 45  1  0
 27 41  1  0
 28 40  1  0
 29 48  1  0
 30 47  1  0
 33 31  1  1
 32  3  1  1
 33 15  1  0
 34 43  1  0
 55 35  1  6
 49 36  1  6
 37 11  1  6
 56 38  1  1
 39 14  1  6
 53 40  1  1
 57 41  1  6
 42 10  1  0
 43 12  2  0
 71 44  1  6
 69 45  1  1
 80 46  1  6
 79 47  1  6
 78 48  1  1
 49 22  1  0
 50 51  1  0
 51 74  1  0
 52 76  1  0
 53 52  1  0
 54 65  1  0
 55 21  1  0
 56 23  1  0
 57  5  1  0
 58119  1  0
 59118  1  0
 60120  1  0
 61 32  1  0
 62  6  1  0
 63 12  1  0
 64 53  1  0
 65 70  1  0
 62 66  1  6
 67 20  1  0
 83 68  1  1
 69 25  1  0
 70 49  1  0
 71 26  1  0
 72 66  1  0
 73 68  1  0
 74121  1  0
 75 42  1  1
 76122  1  0
 77 96  1  0
 78 27  1  0
 79 29  1  0
 80 28  1  0
 81 54  2  0
 82 63  2  0
 83 30  1  0
 84 59  2  0
 85 58  2  0
 86 60  2  0
 87133  1  0
 88  4  2  0
 89  5  2  0
 90  6  2  0
 91  7  2  0
 92  8  2  0
 93 16  1  0
 94  9  2  0
 95 10  2  0
 96 65  2  0
 97 15  2  0
 98 20  2  0
 99 19  2  0
100 21  2  0
101 22  2  0
102 23  2  0
103 29  2  0
104 27  2  0
105 30  2  0
106 28  2  0
107 25  2  0
108 26  2  0
109 55  1  0
110 56  1  0
111 51  2  0
112 52  2  0
113 61  2  0
114 73  2  0
115 72  2  0
116 87  2  0
117 69  1  0
118177  1  0
119178  1  0
120179  1  0
121 73  1  0
122 72  1  0
123 58  1  0
124 59  1  0
125 60  1  0
126  1  1  0
127  3  1  0
128  2  1  0
 67129  1  1
130 37  1  0
131 39  1  0
132 50  1  0
133117  1  0
134 93  1  0
135109  1  0
136 61  1  0
137 71  1  0
138153  1  0
139155  2  0
140 87  1  0
141110  1  0
142170  1  0
143 33  1  0
144134  2  0
145134  1  0
146135  1  0
147135  2  0
148180  1  0
149182  1  0
150181  1  0
151183  1  0
152144  1  0
153145  2  0
154146  2  0
155147  1  0
156 17  1  0
157 18  1  0
158 32  1  0
159 67  1  0
160138  1  0
161139  1  0
162143  1  0
163159  1  0
164126  1  0
165127  1  0
166157  1  0
167 57  1  0
168 63  1  0
169 62  1  0
170137  1  0
171 78  1  0
172 75  1  0
173 79  1  0
174 80  1  0
175 83  1  0
176 82  1  0
177194  1  0
178193  1  0
179195  1  0
180201  1  0
181200  1  0
182202  1  0
183203  1  0
184142  1  0
185130  1  0
186130  1  0
187131  1  0
188131  1  0
189132  1  0
190132  1  0
191141  1  0
192141  2  0
193167  1  0
194171  1  0
195174  1  0
196169  1  0
197172  1  0
198173  1  0
199175  1  0
200199  1  0
201198  1  0
202197  1  0
203196  1  0
204168  2  0
205204  1  0
206191  2  0
207192  1  0
208207  2  0
164156  1  0
138152  2  0
165158  1  0
128166  1  0
 34 82  1  0
205176  2  0
208206  1  0
 81 77  1  0
139154  1  0
M  END
> <chembl_id>
CHEMBL2103784

> <chembl_pref_name>
COSYNTROPIN
