
     RDKit          2D

 18 19  0  0  1  0  0  0  0  0999 V2000
    1.0125    0.4125    0.0000 N   0  0  0  0  0  0  0  0  0  0  0  0
   -0.7250   -1.3917    0.0000 C   0  0  0  0  0  0  0  0  0  0  0  0
   -0.2875   -0.0292    0.0000 C   0  0  0  0  0  0  0  0  0  0  0  0
    1.2750    1.7583    0.0000 C   0  0  0  0  0  0  0  0  0  0  0  0
    2.5667    2.2083    0.0000 N   0  0  0  0  0  0  0  0  0  0  0  0
   -2.1458   -1.3917    0.0000 C   0  0  0  0  0  0  0  0  0  0  0  0
   -1.3625    0.7083    0.0000 O   0  0  0  0  0  0  0  0  0  0  0  0
    2.0417   -0.4917    0.0000 C   0  0  0  0  0  0  0  0  0  0  0  0
   -2.4625   -0.0292    0.0000 C   0  0  0  0  0  0  0  0  0  0  0  0
    3.3417   -0.0417    0.0000 C   0  0  0  0  0  0  0  0  0  0  0  0
    3.6042    1.3000    0.0000 C   0  0  0  0  0  0  0  0  0  0  0  0
    0.2375    2.6625    0.0000 O   0  0  0  0  0  0  0  0  0  0  0  0
   -0.9875   -2.6917    0.0000 F   0  0  0  0  0  0  0  0  0  0  0  0
    0.2875   -2.0917    0.0000 F   0  0  0  0  0  0  0  0  0  0  0  0
   -2.9958   -2.4667    0.0000 O   0  0  0  0  0  0  0  0  0  0  0  0
    4.9250    1.7583    0.0000 N   0  0  0  0  0  0  0  0  0  0  0  0
   -3.7458    0.4625    0.0000 C   0  0  0  0  0  0  0  0  0  0  0  0
   -4.6458   -0.5750    0.0000 O   0  0  0  0  0  0  0  0  0  0  0  0
  2  3  1  0
  3  1  1  1
  4  1  1  0
  5  4  1  0
  6  2  1  0
  7  3  1  0
  8  1  1  0
  9  7  1  0
 10  8  2  0
 11 10  1  0
 12  4  2  0
 13  2  1  0
 14  2  1  0
  6 15  1  6
 16 11  1  0
  9 17  1  1
 18 17  1  0
  5 11  2  0
  6  9  1  0
M  END
> <chembl_id>
CHEMBL888

> <chembl_pref_name>
GEMCITABINE
