
     RDKit          2D

 19 18  0  0  0  0  0  0  0  0999 V2000
    0.1667  -10.3125    0.0000 C   0  0  0  0  0  0  0  0  0  0  0  0
    2.6167  -10.2667    0.0000 N   0  0  0  0  0  0  0  0  0  0  0  0
    0.1750  -11.0167    0.0000 N   0  0  0  0  0  0  0  0  0  0  0  0
    0.7750   -9.9500    0.0000 N   0  0  0  0  0  0  0  0  0  0  0  0
   -0.4583   -9.9667    0.0000 N   0  0  0  0  0  0  0  0  0  0  0  0
    1.4000  -10.2917    0.0000 C   0  0  0  0  0  0  0  0  0  0  0  0
    1.9917   -9.9250    0.0000 C   0  0  0  0  0  0  0  0  0  0  0  0
    3.1167   -9.7625    0.0000 C   0  0  0  0  0  0  0  0  0  0  0  0
    2.6167  -10.9792    0.0000 C   0  0  0  0  0  0  0  0  0  0  0  0
    3.1250  -11.4792    0.0000 C   0  0  0  0  0  0  0  0  0  0  0  0
    3.8250   -9.7667    0.0000 C   0  0  0  0  0  0  0  0  0  0  0  0
    4.3375  -10.9667    0.0000 C   0  0  0  0  0  0  0  0  0  0  0  0
    4.3292  -10.2625    0.0000 C   0  0  0  0  0  0  0  0  0  0  0  0
    3.8375  -11.4792    0.0000 C   0  0  0  0  0  0  0  0  0  0  0  0
    5.9583  -10.8167    0.0000 S   0  0  0  0  0  0  0  0  0  0  0  0
    5.6000  -10.1917    0.0000 O   0  0  0  0  0  0  0  0  0  0  0  0
    6.3042  -10.1917    0.0000 O   0  0  0  0  0  0  0  0  0  0  0  0
    6.5708  -11.1667    0.0000 O   0  0  0  0  0  0  0  0  0  0  0  0
    5.3417  -11.1667    0.0000 O   0  0  0  0  0  0  0  0  0  0  0  0
  2  7  1  0
  3  1  2  0
  4  1  1  0
  5  1  1  0
  6  4  1  0
  7  6  1  0
  8  2  1  0
  9  2  1  0
 10  9  1  0
 11  8  1  0
 12 14  1  0
 13 11  1  0
 14 10  1  0
 13 12  1  0
 16 15  2  0
 17 15  2  0
 18 15  1  0
 19 15  1  0
M  END
> <chembl_id>
CHEMBL1345

> <chembl_pref_name>
GUANETHIDINE MONOSULFATE
