
     RDKit          2D

 15 14  0  0  0  0  0  0  0  0999 V2000
   -0.7375   -0.8042    0.0000 N   0  0  0  0  0  0  0  0  0  0  0  0
   -1.3583   -1.1667    0.0000 N   0  0  0  0  0  0  0  0  0  0  0  0
    1.1167   -1.1667    0.0000 C   0  0  0  0  0  0  0  0  0  0  0  0
   -0.1208   -1.1625    0.0000 C   0  0  0  0  0  0  0  0  0  0  0  0
    0.5000   -0.8042    0.0000 C   0  0  0  0  0  0  0  0  0  0  0  0
    1.1167   -1.8792    0.0000 C   0  0  0  0  0  0  0  0  0  0  0  0
    1.7292   -0.8042    0.0000 C   0  0  0  0  0  0  0  0  0  0  0  0
    2.3500   -1.1625    0.0000 C   0  0  0  0  0  0  0  0  0  0  0  0
    1.7292   -2.2292    0.0000 C   0  0  0  0  0  0  0  0  0  0  0  0
    2.3417   -1.8792    0.0000 C   0  0  0  0  0  0  0  0  0  0  0  0
   -2.5750   -1.5250    0.0000 S   0  0  0  0  0  0  0  0  0  0  0  0
   -2.2250   -0.9042    0.0000 O   0  0  0  0  0  0  0  0  0  0  0  0
   -2.9333   -0.9042    0.0000 O   0  0  0  0  0  0  0  0  0  0  0  0
   -3.1875   -1.8792    0.0000 O   0  0  0  0  0  0  0  0  0  0  0  0
   -1.9625   -1.8792    0.0000 O   0  0  0  0  0  0  0  0  0  0  0  0
  2  1  1  0
  3  5  1  0
  4  1  1  0
  5  4  1  0
  6  3  2  0
  7  3  1  0
  8  7  2  0
  9  6  1  0
 10  9  2  0
 10  8  1  0
 12 11  2  0
 13 11  2  0
 14 11  1  0
 15 11  1  0
M  END
> <chembl_id>
CHEMBL1200895

> <chembl_pref_name>
PHENELZINE SULFATE
