
     RDKit          2D

 18 17  0  0  0  0  0  0  0  0999 V2000
    9.3704   -4.4374    0.0000 Na  0  0  0  0  0 15  0  0  0  0  0  0
    7.5223   -5.4095    0.0000 N   0  0  0  0  0  0  0  0  0  0  0  0
    6.8052   -5.8041    0.0000 C   0  0  0  0  0  0  0  0  0  0  0  0
    6.1122   -4.5673    0.0000 C   0  0  0  0  0  0  0  0  0  0  0  0
    6.1073   -5.3854    0.0000 C   0  0  0  0  0  0  0  0  0  0  0  0
    6.8293   -4.1678    0.0000 N   0  0  0  0  0  0  0  0  0  0  0  0
    7.5367   -4.5818    0.0000 C   0  0  0  0  0  0  0  0  0  0  0  0
    6.8052   -6.6367    0.0000 O   0  0  0  0  0  0  0  0  0  0  0  0
    5.3999   -4.1582    0.0000 O   0  0  0  0  0  0  0  0  0  0  0  0
    8.2586   -4.1775    0.0000 O   0  0  0  0  0  0  0  0  0  0  0  0
    5.6598   -6.0785    0.0000 C   0  0  0  0  0  0  0  0  0  0  0  0
    4.6731   -5.3614    0.0000 C   0  0  0  0  0  0  0  0  0  0  0  0
    5.3950   -4.9619    0.0000 C   0  0  0  0  0  0  0  0  0  0  0  0
    3.9656   -4.9379    0.0000 C   0  0  0  0  0  0  0  0  0  0  0  0
    4.8319   -6.0400    0.0000 C   0  0  0  0  0  0  0  0  0  0  0  0
    6.0207   -6.8052    0.0000 C   0  0  0  0  0  0  0  0  0  0  0  0
    4.3844   -6.7330    0.0000 C   0  0  0  0  0  0  0  0  0  0  0  0
    3.5566   -6.6897    0.0000 C   0  0  0  0  0  0  0  0  0  0  0  0
  3  2  1  0
  4  6  1  0
  5  3  1  0
  6  7  1  0
  7  2  1  0
  8  3  2  0
  9  4  2  0
 10  7  2  0
 11  5  1  0
 12 13  1  0
 13  5  1  0
 14 12  2  0
 15 11  1  0
 16 11  1  0
 17 15  1  0
 18 17  1  0
  4  5  1  0
M  CHG  2   1   1   2  -1
M  END
> <chembl_id>
CHEMBL1200903

> <chembl_pref_name>
SECOBARBITAL SODIUM
