
     RDKit          2D

 34 36  0  0  0  0  0  0  0  0999 V2000
    2.5167   -2.0000    0.0000 C   0  0  0  0  0  0  0  0  0  0  0  0
    1.8792   -0.2292    0.0000 C   0  0  0  0  0  0  0  0  0  0  0  0
    1.2750   -2.0125    0.0000 C   0  0  0  0  0  0  0  0  0  0  0  0
    1.9125   -2.3667    0.0000 O   0  0  0  0  0  0  0  0  0  0  0  0
    1.8917   -0.9417    0.0000 O   0  0  0  0  0  0  0  0  0  0  0  0
    1.2792   -1.3042    0.0000 C   0  0  0  0  0  0  0  0  0  0  0  0
    0.6667   -2.3792    0.0000 C   0  0  0  0  0  0  0  0  0  0  0  0
    0.0500   -2.0292    0.0000 C   0  0  0  0  0  0  0  0  0  0  0  0
    3.1375   -2.3542    0.0000 C   0  0  0  0  0  0  0  0  0  0  0  0
    2.4917    0.1458    0.0000 C   0  0  0  0  0  0  0  0  0  0  0  0
   -1.7958   -2.4167    0.0000 N   0  0  0  0  0  0  0  0  0  0  0  0
    2.5167   -1.2875    0.0000 O   0  0  0  0  0  0  0  0  0  0  0  0
    1.2667    0.1208    0.0000 O   0  0  0  0  0  0  0  0  0  0  0  0
    0.6500   -0.9542    0.0000 C   0  0  0  0  0  0  0  0  0  0  0  0
    0.0375   -1.3125    0.0000 C   0  0  0  0  0  0  0  0  0  0  0  0
   -2.4167   -2.0708    0.0000 C   0  0  0  0  0  0  0  0  0  0  0  0
   -1.1833   -2.0542    0.0000 C   0  0  0  0  0  0  0  0  0  0  0  0
   -0.5583   -2.3917    0.0000 C   0  0  0  0  0  0  0  0  0  0  0  0
    3.7500   -1.9875    0.0000 C   0  0  0  0  0  0  0  0  0  0  0  0
    3.1250   -0.2042    0.0000 C   0  0  0  0  0  0  0  0  0  0  0  0
    2.4875    0.8458    0.0000 C   0  0  0  0  0  0  0  0  0  0  0  0
    3.1500   -3.0667    0.0000 C   0  0  0  0  0  0  0  0  0  0  0  0
    3.0917    1.2208    0.0000 C   0  0  0  0  0  0  0  0  0  0  0  0
    3.7708   -3.4042    0.0000 C   0  0  0  0  0  0  0  0  0  0  0  0
    4.3625   -2.3333    0.0000 C   0  0  0  0  0  0  0  0  0  0  0  0
    3.7292    0.1583    0.0000 C   0  0  0  0  0  0  0  0  0  0  0  0
    3.7250    0.8583    0.0000 C   0  0  0  0  0  0  0  0  0  0  0  0
    4.3875   -3.0375    0.0000 C   0  0  0  0  0  0  0  0  0  0  0  0
   -0.5583   -3.1042    0.0000 O   0  0  0  0  0  0  0  0  0  0  0  0
   -2.7750   -1.4542    0.0000 C   0  0  0  0  0  0  0  0  0  0  0  0
   -3.0250   -2.4333    0.0000 C   0  0  0  0  0  0  0  0  0  0  0  0
   -2.0708   -1.4542    0.0000 C   0  0  0  0  0  0  0  0  0  0  0  0
    5.0000   -3.3958    0.0000 C   0  0  0  0  0  0  0  0  0  0  0  0
    4.3292    1.2250    0.0000 C   0  0  0  0  0  0  0  0  0  0  0  0
  2  5  1  0
  3  4  1  0
  4  1  1  0
  5  6  1  0
  6  3  2  0
  7  3  1  0
  8  7  2  0
  9  1  1  0
 10  2  1  0
 11 17  1  0
 12  1  2  0
 13  2  2  0
 14  6  1  0
 15  8  1  0
 16 11  1  0
 17 18  1  0
 18  8  1  0
 19  9  2  0
 20 10  2  0
 21 10  1  0
 22  9  1  0
 23 21  2  0
 24 22  2  0
 25 19  1  0
 26 20  1  0
 27 23  1  0
 28 25  2  0
 29 18  1  0
 30 16  1  0
 31 16  1  0
 32 16  1  0
 33 28  1  0
 34 27  1  0
 24 28  1  0
 14 15  2  0
 26 27  2  0
M  END
> <chembl_id>
CHEMBL1201295

> <chembl_pref_name>
BITOLTEROL
