
     RDKit          2D

 28 31  0  0  1  0  0  0  0  0999 V2000
   -1.2083   -1.7042    0.0000 C   0  0  0  0  0  0  0  0  0  0  0  0
   -1.2083   -0.5792    0.0000 C   0  0  0  0  0  0  0  0  0  0  0  0
    1.7542    1.1208    0.0000 C   0  0  0  0  0  0  0  0  0  0  0  0
    0.7292   -0.5542    0.0000 C   0  0  0  0  0  0  0  0  0  0  0  0
    0.7500   -1.7042    0.0000 C   0  0  0  0  0  0  0  0  0  0  0  0
   -0.2125    0.0083    0.0000 C   0  0  0  0  0  0  0  0  0  0  0  0
    1.7542   -0.0125    0.0000 C   0  0  0  0  0  0  0  0  0  0  0  0
    2.8125    1.4833    0.0000 C   0  0  0  0  0  0  0  0  0  0  0  0
   -0.2208   -2.2667    0.0000 C   0  0  0  0  0  0  0  0  0  0  0  0
   -2.1750   -2.2792    0.0000 C   0  0  0  0  0  0  0  0  0  0  0  0
    0.7375    1.7000    0.0000 C   0  0  0  0  0  0  0  0  0  0  0  0
    3.5000    0.5958    0.0000 C   0  0  0  0  0  0  0  0  0  0  0  0
   -0.2000    1.1125    0.0000 C   0  0  0  0  0  0  0  0  0  0  0  0
   -2.1958   -0.0292    0.0000 C   0  0  0  0  0  0  0  0  0  0  0  0
    2.8167   -0.3417    0.0000 C   0  0  0  0  0  0  0  0  0  0  0  0
    3.1667    2.5500    0.0000 C   0  0  0  0  0  0  0  0  0  0  0  0
   -3.2000   -1.7375    0.0000 C   0  0  0  0  0  0  0  0  0  0  0  0
    4.2542    2.8958    0.0000 O   0  0  0  0  0  0  0  0  0  0  0  0
   -4.2083   -2.3167    0.0000 O   0  0  0  0  0  0  0  0  0  0  0  0
   -3.2000   -0.6167    0.0000 C   0  0  0  0  0  0  0  0  0  0  0  0
   -1.2083    0.5250    0.0000 C   0  0  0  0  0  0  0  0  0  0  0  0
    1.6667    2.2458    0.0000 C   0  0  0  0  0  0  0  0  0  0  0  0
    4.3250    1.5333    0.0000 C   0  0  0  0  0  0  0  0  0  0  0  0
   -0.2333   -3.4375    0.0000 C   0  0  0  0  0  0  0  0  0  0  0  0
    2.4417    3.4458    0.0000 C   0  0  0  0  0  0  0  0  0  0  0  0
    0.7375    0.6458    0.0000 H   0  0  0  0  0  0  0  0  0  0  0  0
    2.2917   -1.1542    0.0000 H   0  0  0  0  0  0  0  0  0  0  0  0
   -0.1833   -1.0125    0.0000 H   0  0  0  0  0  0  0  0  0  0  0  0
  2  1  1  0
  3  7  1  0
  4  5  1  0
  5  9  2  0
  6  2  1  0
  7  4  1  0
  8  3  1  0
  9  1  1  0
 10  1  2  0
 11 13  1  0
 12 15  1  0
 13  6  1  0
 14  2  1  0
 15  7  1  0
  8 16  1  1
 17 10  1  0
 18 16  2  0
 19 17  2  0
 20 17  1  0
  2 21  1  1
  3 22  1  1
  8 23  1  6
 24  9  1  0
 25 16  1  0
  4 26  1  1
  7 27  1  6
  6 28  1  6
  4  6  1  0
 14 20  1  0
  3 11  1  0
  8 12  1  0
M  END
> <chembl_id>
CHEMBL2106825

> <chembl_pref_name>
MEDROGESTONE
