
     RDKit          2D

 21 23  0  0  0  0  0  0  0  0999 V2000
    4.4125   -3.7183    0.0000 C   0  0  0  0  0  0  0  0  0  0  0  0
    3.6917   -4.1391    0.0000 C   0  0  0  0  0  0  0  0  0  0  0  0
    4.4125   -2.8891    0.0000 C   0  0  0  0  0  0  0  0  0  0  0  0
    3.6917   -2.4766    0.0000 O   0  0  0  0  0  0  0  0  0  0  0  0
    2.9792   -3.7183    0.0000 C   0  0  0  0  0  0  0  0  0  0  0  0
    2.9792   -2.8933    0.0000 C   0  0  0  0  0  0  0  0  0  0  0  0
    5.1292   -4.1266    0.0000 C   0  0  0  0  0  0  0  0  0  0  0  0
    5.1250   -2.4766    0.0000 O   0  0  0  0  0  0  0  0  0  0  0  0
    3.6917   -4.9641    0.0000 O   0  0  0  0  0  0  0  0  0  0  0  0
    5.8417   -3.7141    0.0000 C   0  0  0  0  0  0  0  0  0  0  0  0
    2.2667   -4.1308    0.0000 C   0  0  0  0  0  0  0  0  0  0  0  0
    2.2667   -2.4766    0.0000 C   0  0  0  0  0  0  0  0  0  0  0  0
    5.1292   -4.9516    0.0000 C   0  0  0  0  0  0  0  0  0  0  0  0
    5.8375   -2.8891    0.0000 C   0  0  0  0  0  0  0  0  0  0  0  0
    6.5542   -4.1266    0.0000 C   0  0  0  0  0  0  0  0  0  0  0  0
    5.8417   -5.3641    0.0000 C   0  0  0  0  0  0  0  0  0  0  0  0
    1.5542   -3.7183    0.0000 C   0  0  0  0  0  0  0  0  0  0  0  0
    1.5542   -2.8891    0.0000 C   0  0  0  0  0  0  0  0  0  0  0  0
    7.2667   -3.7141    0.0000 C   0  0  0  0  0  0  0  0  0  0  0  0
    6.5500   -2.4766    0.0000 C   0  0  0  0  0  0  0  0  0  0  0  0
    7.2667   -2.8891    0.0000 C   0  0  0  0  0  0  0  0  0  0  0  0
  2  1  2  0
  3  1  1  0
  4  3  1  0
  5  2  1  0
  6  4  1  0
  7  1  1  0
  8  3  2  0
  9  2  1  0
 10  7  1  0
 11  5  2  0
 12  6  2  0
 13  7  1  0
 14 10  2  0
 15 10  1  0
 16 13  1  0
 17 11  1  0
 18 12  1  0
 19 15  2  0
 20 14  1  0
 21 19  1  0
  5  6  1  0
 20 21  2  0
 17 18  2  0
M  END
> <chembl_id>
CHEMBL1465

> <chembl_pref_name>
PHENPROCOUMON
