
     RDKit          2D

 39 42  0  0  0  0  0  0  0  0999 V2000
    1.8268   -4.5510    0.0000 N   0  0  0  0  0  0  0  0  0  0  0  0
    1.0018   -4.5510    0.0000 C   0  0  0  0  0  0  0  0  0  0  0  0
    1.0018   -5.3760    0.0000 C   0  0  0  0  0  0  0  0  0  0  0  0
    1.8268   -5.3760    0.0000 C   0  0  0  0  0  0  0  0  0  0  0  0
    2.5393   -4.1385    0.0000 C   0  0  0  0  0  0  0  0  0  0  0  0
   -1.7607   -6.1177    0.0000 C   0  0  0  0  0  0  0  0  0  0  0  0
   -0.9607   -6.3302    0.0000 C   0  0  0  0  0  0  0  0  0  0  0  0
   -2.3982   -6.6344    0.0000 N   0  0  0  0  0  0  0  0  0  0  0  0
    0.4184   -5.9594    0.0000 N   0  0  0  0  0  0  0  0  0  0  0  0
    5.4851   -3.3177    0.0000 N   0  0  0  0  0  0  0  0  0  0  0  0
    5.3976   -4.1385    0.0000 C   0  0  0  0  0  0  0  0  0  0  0  0
    6.7059   -3.8594    0.0000 C   0  0  0  0  0  0  0  0  0  0  0  0
   -0.3774   -5.7469    0.0000 C   0  0  0  0  0  0  0  0  0  0  0  0
    2.5393   -5.7885    0.0000 S   0  0  0  0  0  0  0  0  0  0  0  0
    3.2559   -4.5510    0.0000 C   0  0  0  0  0  0  0  0  0  0  0  0
    6.1518   -4.4760    0.0000 S   0  0  0  0  0  0  0  0  0  0  0  0
   -3.0941   -6.1844    0.0000 C   0  0  0  0  0  0  0  0  0  0  0  0
    6.2934   -3.1469    0.0000 C   0  0  0  0  0  0  0  0  0  0  0  0
    7.5268   -3.9469    0.0000 C   0  0  0  0  0  0  0  0  0  0  0  0
   -2.0566   -5.3469    0.0000 C   0  0  0  0  0  0  0  0  0  0  0  0
   -2.8774   -5.3885    0.0000 S   0  0  0  0  0  0  0  0  0  0  0  0
    2.5393   -3.3135    0.0000 C   0  0  0  0  0  0  0  0  0  0  0  0
    3.2559   -5.3760    0.0000 C   0  0  0  0  0  0  0  0  0  0  0  0
    8.0101   -3.2802    0.0000 C   0  0  0  0  0  0  0  0  0  0  0  0
   -0.7482   -7.1260    0.0000 N   0  0  0  0  0  0  0  0  0  0  0  0
    0.4184   -3.9677    0.0000 O   0  0  0  0  0  0  0  0  0  0  0  0
    4.6851   -4.5510    0.0000 S   0  0  0  0  0  0  0  0  0  0  0  0
    3.9684   -4.1385    0.0000 C   0  0  0  0  0  0  0  0  0  0  0  0
   -0.5941   -4.9510    0.0000 O   0  0  0  0  0  0  0  0  0  0  0  0
    3.2559   -2.9010    0.0000 O   0  0  0  0  0  0  0  0  0  0  0  0
    8.8309   -3.3677    0.0000 O   0  0  0  0  0  0  0  0  0  0  0  0
   -3.8566   -6.4802    0.0000 N   0  0  0  0  0  0  0  0  0  0  0  0
    1.8268   -2.9010    0.0000 O   0  0  0  0  0  0  0  0  0  0  0  0
    7.6726   -2.5260    0.0000 O   0  0  0  0  0  0  0  0  0  0  0  0
    6.6268   -2.3927    0.0000 C   0  0  0  0  0  0  0  0  0  0  0  0
    1.8309   -6.2010    0.0000 H   0  0  0  0  0  0  0  0  0  0  0  0
    1.3184   -6.1385    0.0000 H   0  0  0  0  0  0  0  0  0  0  0  0
    0.0486   -7.3395    0.0000 O   0  0  0  0  0  0  0  0  0  0  0  0
    0.2622   -8.1364    0.0000 C   0  0  0  0  0  0  0  0  0  0  0  0
  2  1  1  0
  3  2  1  0
  4  1  1  0
  5  1  1  0
  6  7  1  0
  7 13  1  0
  8  6  1  0
  3  9  1  6
 10 11  2  0
 11 27  1  0
 12 16  1  0
 13  9  1  0
 14  4  1  0
 15  5  2  0
 16 11  1  0
 17  8  2  0
 18 10  1  0
 19 12  1  0
 20  6  2  0
 21 20  1  0
 22  5  1  0
 23 15  1  0
 24 19  1  0
 25  7  2  0
 26  2  2  0
 27 28  1  0
 28 15  1  0
 29 13  2  0
 30 22  2  0
 31 24  2  0
 32 17  1  0
 33 22  1  0
 34 24  1  0
 35 18  1  0
  4 36  1  1
  3 37  1  1
  3  4  1  0
 23 14  1  0
 18 12  2  0
 17 21  1  0
 25 38  1  0
 38 39  1  0
M  END
> <chembl_id>
CHEMBL2303613

> <chembl_pref_name>
CEFODIZIME
