
     RDKit          2D

 31 35  0  0  1  0  0  0  0  0999 V2000
    2.9125    2.1958    0.0000 C   0  0  0  0  0  0  0  0  0  0  0  0
    2.9167    1.2458    0.0000 C   0  0  0  0  0  0  0  0  0  0  0  0
    2.1167    0.7708    0.0000 C   0  0  0  0  0  0  0  0  0  0  0  0
    1.3125    1.2333    0.0000 C   0  0  0  0  0  0  0  0  0  0  0  0
    0.5042    0.7625    0.0000 C   0  0  0  0  0  0  0  0  0  0  0  0
   -1.9333   -1.5917    0.0000 C   0  0  0  0  0  0  0  0  0  0  0  0
    0.5167   -0.1792    0.0000 C   0  0  0  0  0  0  0  0  0  0  0  0
    2.1167    2.6333    0.0000 C   0  0  0  0  0  0  0  0  0  0  0  0
    1.3125    2.1708    0.0000 C   0  0  0  0  0  0  0  0  0  0  0  0
    2.1167   -0.1542    0.0000 C   0  0  0  0  0  0  0  0  0  0  0  0
    3.8042    0.9625    0.0000 C   0  0  0  0  0  0  0  0  0  0  0  0
   -1.9208   -0.6417    0.0000 O   0  0  0  0  0  0  0  0  0  0  0  0
   -0.3000    1.2208    0.0000 C   0  0  0  0  0  0  0  0  0  0  0  0
    3.8000    2.4708    0.0000 C   0  0  0  0  0  0  0  0  0  0  0  0
   -0.2875   -0.6417    0.0000 C   0  0  0  0  0  0  0  0  0  0  0  0
    1.3125   -0.6250    0.0000 C   0  0  0  0  0  0  0  0  0  0  0  0
   -1.0958   -0.1750    0.0000 C   0  0  0  0  0  0  0  0  0  0  0  0
   -1.1208   -2.0542    0.0000 O   0  0  0  0  0  0  0  0  0  0  0  0
   -2.7333   -2.0667    0.0000 C   0  0  0  0  0  0  0  0  0  0  0  0
    4.3417    1.7250    0.0000 C   0  0  0  0  0  0  0  0  0  0  0  0
   -1.1000    0.7500    0.0000 C   0  0  0  0  0  0  0  0  0  0  0  0
    2.9167    3.1208    0.0000 C   0  0  0  0  0  0  0  0  0  0  0  0
    4.0875    3.3708    0.0000 O   0  0  0  0  0  0  0  0  0  0  0  0
   -3.5458   -1.6000    0.0000 C   0  0  0  0  0  0  0  0  0  0  0  0
   -2.7208   -3.0125    0.0000 C   0  0  0  0  0  0  0  0  0  0  0  0
   -4.3458   -2.0792    0.0000 C   0  0  0  0  0  0  0  0  0  0  0  0
   -3.5333   -3.4750    0.0000 C   0  0  0  0  0  0  0  0  0  0  0  0
   -4.3458   -3.0000    0.0000 C   0  0  0  0  0  0  0  0  0  0  0  0
    2.1167    1.7083    0.0000 H   0  0  0  0  0  0  0  0  0  0  0  0
    1.3125    0.3000    0.0000 H   0  0  0  0  0  0  0  0  0  0  0  0
    2.9292    0.3208    0.0000 H   0  0  0  0  0  0  0  0  0  0  0  0
  2  1  1  0
  3  2  1  0
  4  9  1  0
  5  4  1  0
  6 12  1  0
  7  5  2  0
  8  1  1  0
  9  8  1  0
 10  3  1  0
 11  2  1  0
 12 17  1  0
 13  5  1  0
 14  1  1  0
 15  7  1  0
 16 10  1  0
 17 21  1  0
 18  6  2  0
 19  6  1  0
 20 14  1  0
 21 13  2  0
  1 22  1  1
 14 23  1  1
 24 19  2  0
 25 19  1  0
 26 24  1  0
 27 25  2  0
 28 27  1  0
  3 29  1  1
  4 30  1  6
  2 31  1  6
 11 20  1  0
  3  4  1  0
 16  7  1  0
 15 17  2  0
 26 28  2  0
M  END
> <chembl_id>
CHEMBL282575

> <chembl_pref_name>
ESTRADIOL BENZOATE
