
     RDKit          2D

 19 20  0  0  0  0  0  0  0  0999 V2000
    0.0000    0.0083    0.0000 C   0  0  0  0  0  0  0  0  0  0  0  0
    0.7875   -0.6000    0.0000 N   0  0  0  0  0  0  0  0  0  0  0  0
    1.6042   -0.0292    0.0000 C   0  0  0  0  0  0  0  0  0  0  0  0
    0.3375    0.9583    0.0000 C   0  0  0  0  0  0  0  0  0  0  0  0
   -0.9208   -0.3417    0.0000 C   0  0  0  0  0  0  0  0  0  0  0  0
    2.5417   -0.3625    0.0000 C   0  0  0  0  0  0  0  0  0  0  0  0
    1.3292    0.9333    0.0000 C   0  0  0  0  0  0  0  0  0  0  0  0
    3.4042    0.1458    0.0000 C   0  0  0  0  0  0  0  0  0  0  0  0
   -1.7708    0.1333    0.0000 C   0  0  0  0  0  0  0  0  0  0  0  0
   -0.9208   -1.3542    0.0000 O   0  0  0  0  0  0  0  0  0  0  0  0
    3.4000    1.1333    0.0000 O   0  0  0  0  0  0  0  0  0  0  0  0
   -2.6125   -0.3667    0.0000 C   0  0  0  0  0  0  0  0  0  0  0  0
   -1.7833    1.1208    0.0000 C   0  0  0  0  0  0  0  0  0  0  0  0
    0.7542   -1.5917    0.0000 C   0  0  0  0  0  0  0  0  0  0  0  0
    4.2667   -0.3542    0.0000 O   0  0  0  0  0  0  0  0  0  0  0  0
   -3.4708    0.1083    0.0000 C   0  0  0  0  0  0  0  0  0  0  0  0
   -2.6458    1.6000    0.0000 C   0  0  0  0  0  0  0  0  0  0  0  0
   -3.4875    1.0958    0.0000 C   0  0  0  0  0  0  0  0  0  0  0  0
   -4.3458    1.5833    0.0000 C   0  0  0  0  0  0  0  0  0  0  0  0
  2  1  1  0
  3  2  1  0
  4  1  2  0
  5  1  1  0
  6  3  1  0
  7  4  1  0
  8  6  1  0
  9  5  1  0
 10  5  2  0
 11  8  2  0
 12  9  1  0
 13  9  2  0
 14  2  1  0
 15  8  1  0
 16 12  2  0
 17 13  1  0
 18 17  2  0
 19 18  1  0
  3  7  2  0
 16 18  1  0
M  END
> <chembl_id>
CHEMBL1020

> <chembl_pref_name>
TOLMETIN
