
     RDKit          2D

 66 68  0  0  0  0  0  0  0  0999 V2000
    7.4708   -8.4000    0.0000 N   0  0  0  0  0  0  0  0  0  0  0  0
    7.4708   -7.6917    0.0000 C   0  0  0  0  0  0  0  0  0  0  0  0
    8.6542   -8.4667    0.0000 C   0  0  0  0  0  0  0  0  0  0  0  0
    5.6292   -7.3375    0.0000 C   0  0  0  0  0  0  0  0  0  0  0  0
    1.9458   -7.3375    0.0000 C   0  0  0  0  0  0  0  0  0  0  0  0
    4.4042   -7.3375    0.0000 N   0  0  0  0  0  0  0  0  0  0  0  0
    0.7167   -7.3375    0.0000 N   0  0  0  0  0  0  0  0  0  0  0  0
    6.8542   -7.3375    0.0000 C   0  0  0  0  0  0  0  0  0  0  0  0
    3.7875   -7.6875    0.0000 C   0  0  0  0  0  0  0  0  0  0  0  0
    8.0417   -8.8167    0.0000 C   0  0  0  0  0  0  0  0  0  0  0  0
    0.1042   -7.6875    0.0000 C   0  0  0  0  0  0  0  0  0  0  0  0
    6.2417   -7.6875    0.0000 N   0  0  0  0  0  0  0  0  0  0  0  0
    2.5583   -7.6875    0.0000 N   0  0  0  0  0  0  0  0  0  0  0  0
    5.0125   -7.6917    0.0000 C   0  0  0  0  0  0  0  0  0  0  0  0
    1.3292   -7.6917    0.0000 C   0  0  0  0  0  0  0  0  0  0  0  0
    9.2667   -8.8167    0.0000 N   0  0  0  0  0  0  0  0  0  0  0  0
    3.1708   -7.3333    0.0000 C   0  0  0  0  0  0  0  0  0  0  0  0
    8.6167   -6.3042    0.0000 N   0  0  0  0  0  0  0  0  0  0  0  0
    0.7167   -4.5000    0.0000 C   0  0  0  0  0  0  0  0  0  0  0  0
    6.8542   -6.6250    0.0000 C   0  0  0  0  0  0  0  0  0  0  0  0
   10.4958   -8.8167    0.0000 C   0  0  0  0  0  0  0  0  0  0  0  0
    7.4708   -6.2750    0.0000 C   0  0  0  0  0  0  0  0  0  0  0  0
   -1.1250   -7.6875    0.0000 N   0  0  0  0  0  0  0  0  0  0  0  0
    7.7083   -5.6083    0.0000 N   0  0  0  0  0  0  0  0  0  0  0  0
    8.4167   -5.6250    0.0000 C   0  0  0  0  0  0  0  0  0  0  0  0
   -1.7375   -7.3375    0.0000 C   0  0  0  0  0  0  0  0  0  0  0  0
   -0.5125   -7.3333    0.0000 C   0  0  0  0  0  0  0  0  0  0  0  0
    9.8792   -8.4667    0.0000 C   0  0  0  0  0  0  0  0  0  0  0  0
    0.1042   -4.1458    0.0000 N   0  0  0  0  0  0  0  0  0  0  0  0
    8.0333   -6.7042    0.0000 C   0  0  0  0  0  0  0  0  0  0  0  0
    8.0833   -7.3375    0.0000 O   0  0  0  0  0  0  0  0  0  0  0  0
    8.6542   -7.7583    0.0000 O   0  0  0  0  0  0  0  0  0  0  0  0
    1.9458   -6.6292    0.0000 O   0  0  0  0  0  0  0  0  0  0  0  0
    5.6292   -6.6292    0.0000 O   0  0  0  0  0  0  0  0  0  0  0  0
    3.7875   -8.3958    0.0000 O   0  0  0  0  0  0  0  0  0  0  0  0
    0.1042   -8.3958    0.0000 O   0  0  0  0  0  0  0  0  0  0  0  0
    3.1708   -6.6250    0.0000 C   0  0  0  0  0  0  0  0  0  0  0  0
   10.4958   -9.5292    0.0000 O   0  0  0  0  0  0  0  0  0  0  0  0
   -1.7375   -6.6292    0.0000 O   0  0  0  0  0  0  0  0  0  0  0  0
    0.7167   -5.2083    0.0000 N   0  0  0  0  0  0  0  0  0  0  0  0
    1.3292   -4.1458    0.0000 N   0  0  0  0  0  0  0  0  0  0  0  0
    6.8958   -8.8167    0.0000 C   0  0  0  0  0  0  0  0  0  0  0  0
    5.0125   -8.4000    0.0000 C   0  0  0  0  0  0  0  0  0  0  0  0
    1.3292   -8.4000    0.0000 C   0  0  0  0  0  0  0  0  0  0  0  0
    3.7875   -6.2708    0.0000 C   0  0  0  0  0  0  0  0  0  0  0  0
   11.1083   -8.4625    0.0000 O   0  0  0  0  0  0  0  0  0  0  0  0
    5.0125   -5.5625    0.0000 C   0  0  0  0  0  0  0  0  0  0  0  0
   -2.9625   -7.3375    0.0000 N   0  0  0  0  0  0  0  0  0  0  0  0
    4.4000   -6.6250    0.0000 C   0  0  0  0  0  0  0  0  0  0  0  0
    3.7875   -5.5625    0.0000 C   0  0  0  0  0  0  0  0  0  0  0  0
    4.4000   -5.2083    0.0000 C   0  0  0  0  0  0  0  0  0  0  0  0
    5.0125   -6.2708    0.0000 C   0  0  0  0  0  0  0  0  0  0  0  0
    7.8250   -9.4917    0.0000 C   0  0  0  0  0  0  0  0  0  0  0  0
    5.6292   -5.2083    0.0000 O   0  0  0  0  0  0  0  0  0  0  0  0
   -2.3500   -7.6917    0.0000 C   0  0  0  0  0  0  0  0  0  0  0  0
    7.1167   -9.4917    0.0000 C   0  0  0  0  0  0  0  0  0  0  0  0
   -0.5125   -6.6250    0.0000 C   0  0  0  0  0  0  0  0  0  0  0  0
    9.8792   -7.7542    0.0000 C   0  0  0  0  0  0  0  0  0  0  0  0
    0.1042   -5.5625    0.0000 C   0  0  0  0  0  0  0  0  0  0  0  0
   -3.5792   -7.6917    0.0000 C   0  0  0  0  0  0  0  0  0  0  0  0
    1.9458   -8.7542    0.0000 C   0  0  0  0  0  0  0  0  0  0  0  0
    5.6292   -8.7542    0.0000 C   0  0  0  0  0  0  0  0  0  0  0  0
    4.4042   -8.7542    0.0000 C   0  0  0  0  0  0  0  0  0  0  0  0
    0.7167   -8.7542    0.0000 C   0  0  0  0  0  0  0  0  0  0  0  0
    0.1042   -6.2708    0.0000 C   0  0  0  0  0  0  0  0  0  0  0  0
    8.6542   -9.1667    0.0000 H   0  0  0  0  0  0  0  0  0  0  0  0
  2  1  1  0
  3 10  1  0
  4 12  1  0
  5 13  1  0
  6 14  1  0
  7 15  1  0
  8  2  1  0
  9  6  1  0
 10  1  1  0
 11  7  1  0
 12  8  1  0
 13 17  1  0
 14  4  1  0
 15  5  1  0
 16  3  1  0
 17  9  1  0
 18 30  1  0
 19 40  1  0
  8 20  1  1
 21 28  1  0
 22 20  1  0
 23 27  1  0
 24 22  1  0
 25 24  1  0
 26 23  1  0
 27 11  1  0
 28 16  1  0
 29 19  2  0
 30 22  2  0
 31  2  2  0
 32  3  2  0
 33  5  2  0
 34  4  2  0
 35  9  2  0
 36 11  2  0
 17 37  1  1
 38 21  2  0
 39 26  2  0
 40 59  1  0
 41 19  1  0
 42  1  1  0
 14 43  1  6
 15 44  1  6
 45 37  1  0
 46 21  1  0
 47 52  2  0
 48 55  1  0
 49 45  2  0
 50 45  1  0
 51 50  2  0
 52 49  1  0
 53 10  1  0
 54 47  1  0
 55 26  1  0
 56 42  1  0
 27 57  1  1
 28 58  1  1
 59 65  1  0
 60 48  1  0
 61 44  1  0
 62 43  1  0
 63 43  1  0
 64 44  1  0
 65 57  1  0
 10 66  1  1
 56 53  1  0
 25 18  2  0
 47 51  1  0
M  END
> <chembl_id>
CHEMBL938

> <chembl_pref_name>
SARALASIN
