
     RDKit          2D

 28 28  0  0  0  0  0  0  0  0999 V2000
    8.5741  -10.3420    0.0000 O   0  0  0  0  0  0  0  0  0  0  0  0
   10.4245   -9.0308    0.0000 C   0  0  0  0  0  0  0  0  0  0  0  0
   11.1783   -8.6930    0.0000 N   0  0  0  0  0  0  0  0  0  0  0  0
   10.5153   -9.8568    0.0000 N   0  0  0  0  0  0  0  0  0  0  0  0
    9.7085   -8.6208    0.0000 S   0  0  0  0  0  0  0  0  0  0  0  0
    8.2783   -8.6269    0.0000 C   0  0  0  0  0  0  0  0  0  0  0  0
   11.3240  -10.0238    0.0000 C   0  0  0  0  0  0  0  0  0  0  0  0
    8.9943   -9.0367    0.0000 C   0  0  0  0  0  0  0  0  0  0  0  0
   11.7339   -9.3079    0.0000 C   0  0  0  0  0  0  0  0  0  0  0  0
    8.2808   -7.8033    0.0000 C   0  0  0  0  0  0  0  0  0  0  0  0
   11.7442  -10.7404    0.0000 C   0  0  0  0  0  0  0  0  0  0  0  0
    7.5683   -9.0452    0.0000 N   0  0  0  0  0  0  0  0  0  0  0  0
   13.8148  -11.4362    0.0000 C   0  0  0  0  0  0  0  0  0  0  0  0
    7.5691   -7.3957    0.0000 C   0  0  0  0  0  0  0  0  0  0  0  0
    9.7067   -7.7950    0.0000 O   0  0  0  0  0  0  0  0  0  0  0  0
   12.5682  -10.7321    0.0000 C   0  0  0  0  0  0  0  0  0  0  0  0
   12.9865  -11.4421    0.0000 O   0  0  0  0  0  0  0  0  0  0  0  0
   12.5580   -9.2995    0.0000 C   0  0  0  0  0  0  0  0  0  0  0  0
   14.2163  -10.7154    0.0000 F   0  0  0  0  0  0  0  0  0  0  0  0
   14.2332  -12.1462    0.0000 F   0  0  0  0  0  0  0  0  0  0  0  0
    8.9969   -7.3941    0.0000 O   0  0  0  0  0  0  0  0  0  0  0  0
    6.8523   -8.6352    0.0000 C   0  0  0  0  0  0  0  0  0  0  0  0
   12.9763  -10.0095    0.0000 C   0  0  0  0  0  0  0  0  0  0  0  0
    6.8506   -7.8092    0.0000 C   0  0  0  0  0  0  0  0  0  0  0  0
    7.5674   -6.5699    0.0000 O   0  0  0  0  0  0  0  0  0  0  0  0
    8.9952   -6.5681    0.0000 C   0  0  0  0  0  0  0  0  0  0  0  0
    8.2859   -6.1563    0.0000 C   0  0  0  0  0  0  0  0  0  0  0  0
   11.7171   -7.8770    0.0000 Na  0  0  0  0  0 15  0  0  0  0  0  0
  3  2  1  0
  4  2  2  0
  5  2  1  0
  6  8  1  0
  7  4  1  0
  8  5  1  0
  9  3  1  0
 10  6  1  0
 11  7  2  0
 12  6  2  0
 13 17  1  0
 14 10  2  0
 15  5  1  0
 16 11  1  0
 17 16  1  0
 18  9  2  0
 19 13  1  0
 20 13  1  0
 21 10  1  0
 22 12  1  0
 23 18  1  0
 24 14  1  0
 25 14  1  0
 26 21  1  0
 27 25  1  0
  7  9  1  0
 16 23  2  0
 24 22  2  0
M  CHG  4   3  -1   5   1  15  -1  28   1
M  END
> <chembl_id>
CHEMBL3989559

> <chembl_pref_name>
PANTOPRAZOLE SODIUM
