
     RDKit          2D

 31 33  0  0  0  0  0  0  0  0999 V2000
  -11.8459    4.5003    0.0000 C   0  0  0  0  0  0  0  0  0  0  0  0
  -12.5604    4.0878    0.0000 C   0  0  0  0  0  0  0  0  0  0  0  0
  -12.5604    3.2628    0.0000 C   0  0  0  0  0  0  0  0  0  0  0  0
  -11.8459    2.8503    0.0000 C   0  0  0  0  0  0  0  0  0  0  0  0
  -11.1314    3.2628    0.0000 C   0  0  0  0  0  0  0  0  0  0  0  0
  -11.1314    4.0878    0.0000 C   0  0  0  0  0  0  0  0  0  0  0  0
  -11.8459    2.0253    0.0000 C   0  0  0  0  0  0  0  0  0  0  0  0
  -10.4170    2.8503    0.0000 N   0  0  0  0  0  0  0  0  0  0  0  0
  -10.3307    2.0298    0.0000 C   0  0  0  0  0  0  0  0  0  0  0  0
   -9.5238    1.8583    0.0000 S   0  0  0  0  0  0  0  0  0  0  0  0
   -9.1113    2.5727    0.0000 C   0  0  0  0  0  0  0  0  0  0  0  0
   -9.6633    3.1858    0.0000 C   0  0  0  0  0  0  0  0  0  0  0  0
   -9.4917    3.9928    0.0000 O   0  0  0  0  0  0  0  0  0  0  0  0
  -10.9438    1.4778    0.0000 N   0  0  0  0  0  0  0  0  0  0  0  0
  -10.7723    0.6708    0.0000 C   0  0  0  0  0  0  0  0  0  0  0  0
   -9.9754    0.4573    0.0000 C   0  0  0  0  0  0  0  0  0  0  0  0
   -9.7619   -0.3396    0.0000 C   0  0  0  0  0  0  0  0  0  0  0  0
   -8.2908    2.6590    0.0000 C   0  0  0  0  0  0  0  0  0  0  0  0
   -7.8783    1.9445    0.0000 C   0  0  0  0  0  0  0  0  0  0  0  0
   -8.2908    1.2300    0.0000 C   0  0  0  0  0  0  0  0  0  0  0  0
   -7.8783    0.5155    0.0000 C   0  0  0  0  0  0  0  0  0  0  0  0
   -7.0533    0.5155    0.0000 C   0  0  0  0  0  0  0  0  0  0  0  0
   -6.6408    1.2300    0.0000 C   0  0  0  0  0  0  0  0  0  0  0  0
   -7.0533    1.9445    0.0000 C   0  0  0  0  0  0  0  0  0  0  0  0
   -5.8158    1.2300    0.0000 Cl  0  0  0  0  0  0  0  0  0  0  0  0
   -6.6408   -0.1989    0.0000 O   0  0  0  0  0  0  0  0  0  0  0  0
   -5.8158   -0.1989    0.0000 C   0  0  0  0  0  0  0  0  0  0  0  0
   -5.4033   -0.9134    0.0000 C   0  0  0  0  0  0  0  0  0  0  0  0
   -4.5783   -0.9134    0.0000 C   0  0  0  0  0  0  0  0  0  0  0  0
   -5.8158   -1.6279    0.0000 O   0  0  0  0  0  0  0  0  0  0  0  0
   -4.1658   -1.6279    0.0000 O   0  0  0  0  0  0  0  0  0  0  0  0
  1  2  1  0
  1  6  2  0
  2  3  2  0
  3  4  1  0
  4  5  2  0
  5  6  1  0
  4  7  1  0
  5  8  1  0
  8  9  1  0
  8 12  1  0
  9 10  1  0
 10 11  1  0
 11 12  1  0
 12 13  2  0
  9 14  2  0
 14 15  1  0
 15 16  1  0
 16 17  1  0
 11 18  2  0
 18 19  1  0
 19 20  1  0
 19 24  2  0
 20 21  2  0
 21 22  1  0
 22 23  2  0
 23 24  1  0
 23 25  1  0
 22 26  1  0
 26 27  1  0
 27 28  1  0
 28 29  1  0
 28 30  1  1
 29 31  1  0
M  END
> <chembl_id>
CHEMBL1096146

> <chembl_pref_name>
PONESIMOD
