
     RDKit          2D

 17 17  0  0  0  0  0  0  0  0999 V2000
   -1.0208    0.4875    0.0000 C   0  0  0  0  0  0  0  0  0  0  0  0
   -0.4083    0.8458    0.0000 N   0  0  0  0  0  0  0  0  0  0  0  0
    0.2000    0.5000    0.0000 C   0  0  0  0  0  0  0  0  0  0  0  0
   -1.6458    0.8375    0.0000 C   0  0  0  0  0  0  0  0  0  0  0  0
   -1.0208   -0.2167    0.0000 C   0  0  0  0  0  0  0  0  0  0  0  0
    0.2042   -0.2125    0.0000 O   0  0  0  0  0  0  0  0  0  0  0  0
    0.8167    0.8458    0.0000 C   0  0  0  0  0  0  0  0  0  0  0  0
    1.4375    0.5000    0.0000 N   0  0  0  0  0  0  0  0  0  0  0  0
   -2.2583   -0.2167    0.0000 C   0  0  0  0  0  0  0  0  0  0  0  0
   -1.6375   -0.5750    0.0000 C   0  0  0  0  0  0  0  0  0  0  0  0
   -2.2583    0.4833    0.0000 C   0  0  0  0  0  0  0  0  0  0  0  0
   -0.4000   -0.5667    0.0000 C   0  0  0  0  0  0  0  0  0  0  0  0
   -1.6458    1.5583    0.0000 C   0  0  0  0  0  0  0  0  0  0  0  0
    2.0542    0.8458    0.0000 C   0  0  0  0  0  0  0  0  0  0  0  0
    1.4417   -0.2167    0.0000 C   0  0  0  0  0  0  0  0  0  0  0  0
    2.6667    0.4875    0.0000 C   0  0  0  0  0  0  0  0  0  0  0  0
    2.0542   -0.5750    0.0000 C   0  0  0  0  0  0  0  0  0  0  0  0
  2  1  1  0
  3  2  1  0
  4  1  2  0
  5  1  1  0
  6  3  2  0
  7  3  1  0
  8  7  1  0
  9 10  1  0
 10  5  2  0
 11  4  1  0
 12  5  1  0
 13  4  1  0
 14  8  1  0
 15  8  1  0
 16 14  1  0
 17 15  1  0
  9 11  2  0
M  END
> <chembl_id>
CHEMBL79

> <chembl_pref_name>
LIDOCAINE
