
     RDKit          2D

 28 31  0  0  0  0  0  0  0  0999 V2000
    5.4344   -5.2404    0.0000 N   0  0  0  0  0  0  0  0  0  0  0  0
    6.2190   -4.9855    0.0000 C   0  0  0  0  0  0  0  0  0  0  0  0
    5.1795   -6.0251    0.0000 C   0  0  0  0  0  0  0  0  0  0  0  0
    6.9335   -5.3980    0.0000 N   0  0  0  0  0  0  0  0  0  0  0  0
    7.6480   -4.9855    0.0000 C   0  0  0  0  0  0  0  0  0  0  0  0
    6.2190   -4.1605    0.0000 C   0  0  0  0  0  0  0  0  0  0  0  0
    7.6480   -4.1605    0.0000 N   0  0  0  0  0  0  0  0  0  0  0  0
    5.4344   -3.9056    0.0000 N   0  0  0  0  0  0  0  0  0  0  0  0
    8.3624   -5.3980    0.0000 N   0  0  0  0  0  0  0  0  0  0  0  0
    4.3948   -6.2800    0.0000 C   0  0  0  0  0  0  0  0  0  0  0  0
    4.9495   -4.5730    0.0000 C   0  0  0  0  0  0  0  0  0  0  0  0
    5.6644   -6.6925    0.0000 O   0  0  0  0  0  0  0  0  0  0  0  0
    9.6681   -5.6755    0.0000 C   0  0  0  0  0  0  0  0  0  0  0  0
    6.9335   -3.7480    0.0000 C   0  0  0  0  0  0  0  0  0  0  0  0
    8.4487   -6.2185    0.0000 N   0  0  0  0  0  0  0  0  0  0  0  0
    9.1161   -5.0625    0.0000 C   0  0  0  0  0  0  0  0  0  0  0  0
    4.3948   -7.1050    0.0000 C   0  0  0  0  0  0  0  0  0  0  0  0
    5.1795   -7.3599    0.0000 C   0  0  0  0  0  0  0  0  0  0  0  0
   10.4886   -5.5893    0.0000 C   0  0  0  0  0  0  0  0  0  0  0  0
    9.2556   -6.3900    0.0000 C   0  0  0  0  0  0  0  0  0  0  0  0
   10.8242   -4.8356    0.0000 O   0  0  0  0  0  0  0  0  0  0  0  0
    6.9335   -2.9230    0.0000 N   0  0  0  0  0  0  0  0  0  0  0  0
    3.7274   -5.7951    0.0000 O   0  0  0  0  0  0  0  0  0  0  0  0
   10.9735   -6.2568    0.0000 N   0  0  0  0  0  0  0  0  0  0  0  0
    3.7274   -7.5899    0.0000 O   0  0  0  0  0  0  0  0  0  0  0  0
    5.4344   -8.1446    0.0000 C   0  0  0  0  0  0  0  0  0  0  0  0
    4.8824   -8.7577    0.0000 O   0  0  0  0  0  0  0  0  0  0  0  0
   11.7940   -6.1705    0.0000 C   0  0  0  0  0  0  0  0  0  0  0  0
  2  1  1  0
  3  1  1  6
  4  2  1  0
  5  4  2  0
  6  2  2  0
  7 14  2  0
  8 11  2  0
  9  5  1  0
 10  3  1  0
 11  1  1  0
 12  3  1  0
 13 16  2  0
 14  6  1  0
 15  9  1  0
 16  9  1  0
 17 10  1  0
 18 12  1  0
 19 13  1  0
 20 15  2  0
 21 19  2  0
 22 14  1  0
 10 23  1  1
 24 19  1  0
 17 25  1  1
 18 26  1  6
 27 26  1  0
 28 24  1  0
  8  6  1  0
 18 17  1  0
  7  5  1  0
 13 20  1  0
M  END
> <chembl_id>
CHEMBL317052

> <chembl_pref_name>
REGADENOSON ANHYDROUS
