
     RDKit          2D

 21 23  0  0  0  0  0  0  0  0999 V2000
    0.1000    0.2583    0.0000 N   0  0  0  0  0  0  0  0  0  0  0  0
    0.5667   -0.3917    0.0000 C   0  0  0  0  0  0  0  0  0  0  0  0
    0.1000   -1.0917    0.0000 O   0  0  0  0  0  0  0  0  0  0  0  0
   -0.6875    0.0083    0.0000 C   0  0  0  0  0  0  0  0  0  0  0  0
   -0.6875   -0.8417    0.0000 C   0  0  0  0  0  0  0  0  0  0  0  0
   -2.1250    0.0083    0.0000 C   0  0  0  0  0  0  0  0  0  0  0  0
   -3.5625    0.0625    0.0000 C   0  0  0  0  0  0  0  0  0  0  0  0
   -1.4083    0.4125    0.0000 C   0  0  0  0  0  0  0  0  0  0  0  0
    1.4542   -0.4042    0.0000 C   0  0  0  0  0  0  0  0  0  0  0  0
   -2.8333    0.4458    0.0000 C   0  0  0  0  0  0  0  0  0  0  0  0
   -2.1250   -0.8417    0.0000 C   0  0  0  0  0  0  0  0  0  0  0  0
   -3.5625   -0.8000    0.0000 O   0  0  0  0  0  0  0  0  0  0  0  0
   -1.4083   -1.2500    0.0000 C   0  0  0  0  0  0  0  0  0  0  0  0
    1.8792   -1.1375    0.0000 C   0  0  0  0  0  0  0  0  0  0  0  0
    1.8792    0.3083    0.0000 C   0  0  0  0  0  0  0  0  0  0  0  0
   -4.1833    0.5583    0.0000 O   0  0  0  0  0  0  0  0  0  0  0  0
    3.1667   -0.4292    0.0000 C   0  0  0  0  0  0  0  0  0  0  0  0
    2.7167    0.3083    0.0000 C   0  0  0  0  0  0  0  0  0  0  0  0
    2.7375   -1.1375    0.0000 C   0  0  0  0  0  0  0  0  0  0  0  0
    4.0000   -0.4292    0.0000 Cl  0  0  0  0  0  0  0  0  0  0  0  0
   -2.8333    1.3000    0.0000 C   0  0  0  0  0  0  0  0  0  0  0  0
  2  1  2  0
  3  2  1  0
  4  1  1  0
  5  4  2  0
  6  8  2  0
  7 10  1  0
  8  4  1  0
  9  2  1  0
 10  6  1  0
 11  6  1  0
 12  7  2  0
 13  5  1  0
 14  9  2  0
 15  9  1  0
 16  7  1  0
 17 18  1  0
 18 15  2  0
 19 14  1  0
 20 17  1  0
 21 10  1  0
  5  3  1  0
 13 11  2  0
 19 17  2  0
M  END
> <chembl_id>
CHEMBL340978

> <chembl_pref_name>
BENOXAPROFEN
