
     RDKit          2D

 26 28  0  0  0  0  0  0  0  0999 V2000
   -1.4958    0.2333    0.0000 C   0  0  0  0  0  0  0  0  0  0  0  0
   -2.2458   -0.0917    0.0000 C   0  0  0  0  0  0  0  0  0  0  0  0
   -0.0625   -0.5792    0.0000 N   0  0  0  0  0  0  0  0  0  0  0  0
   -0.7833    0.6583    0.0000 C   0  0  0  0  0  0  0  0  0  0  0  0
   -1.4958   -0.5792    0.0000 C   0  0  0  0  0  0  0  0  0  0  0  0
   -1.7083    1.0375    0.0000 C   0  0  0  0  0  0  0  0  0  0  0  0
   -2.3375   -0.9375    0.0000 O   0  0  0  0  0  0  0  0  0  0  0  0
   -0.0625    0.2333    0.0000 C   0  0  0  0  0  0  0  0  0  0  0  0
   -0.7833   -1.0042    0.0000 C   0  0  0  0  0  0  0  0  0  0  0  0
    0.6500   -1.0167    0.0000 C   0  0  0  0  0  0  0  0  0  0  0  0
    3.5375   -1.8417    0.0000 C   0  0  0  0  0  0  0  0  0  0  0  0
   -2.9125    0.3708    0.0000 O   0  0  0  0  0  0  0  0  0  0  0  0
    2.1000   -1.0167    0.0000 C   0  0  0  0  0  0  0  0  0  0  0  0
    4.2542   -2.2625    0.0000 N   0  0  0  0  0  0  0  0  0  0  0  0
    1.3792   -0.6000    0.0000 C   0  0  0  0  0  0  0  0  0  0  0  0
    2.8167   -2.2625    0.0000 C   0  0  0  0  0  0  0  0  0  0  0  0
    3.5375   -1.0167    0.0000 C   0  0  0  0  0  0  0  0  0  0  0  0
    2.1000   -1.8417    0.0000 C   0  0  0  0  0  0  0  0  0  0  0  0
    2.8167   -0.6000    0.0000 C   0  0  0  0  0  0  0  0  0  0  0  0
   -1.2500    1.7208    0.0000 C   0  0  0  0  0  0  0  0  0  0  0  0
   -2.5250    1.0375    0.0000 C   0  0  0  0  0  0  0  0  0  0  0  0
   -3.6833    0.0458    0.0000 C   0  0  0  0  0  0  0  0  0  0  0  0
   -4.3458    0.5333    0.0000 C   0  0  0  0  0  0  0  0  0  0  0  0
   -1.6208    2.4708    0.0000 C   0  0  0  0  0  0  0  0  0  0  0  0
   -2.8958    1.8208    0.0000 C   0  0  0  0  0  0  0  0  0  0  0  0
   -2.4750    2.4708    0.0000 C   0  0  0  0  0  0  0  0  0  0  0  0
  2  1  1  0
  3  9  1  0
  4  1  1  0
  5  1  1  0
  6  1  1  0
  7  2  2  0
  8  4  1  0
  9  5  1  0
 10  3  1  0
 11 17  1  0
 12  2  1  0
 13 15  1  0
 14 11  1  0
 15 10  1  0
 16 18  1  0
 17 19  2  0
 18 13  2  0
 19 13  1  0
 20  6  2  0
 21  6  1  0
 22 12  1  0
 23 22  1  0
 24 20  1  0
 25 21  2  0
 26 25  1  0
  8  3  1  0
 24 26  2  0
 16 11  2  0
M  END
> <chembl_id>
CHEMBL1201347

> <chembl_pref_name>
ANILERIDINE
