
     RDKit          2D

 36 39  0  0  1  0  0  0  0  0999 V2000
   -0.0208   -0.1125    0.0000 C   0  0  0  0  0  0  0  0  0  0  0  0
    0.7625    0.1458    0.0000 C   0  0  0  0  0  0  0  0  0  0  0  0
   -2.1625   -1.3500    0.0000 C   0  0  0  0  0  0  0  0  0  0  0  0
   -0.7375   -1.3542    0.0000 C   0  0  0  0  0  0  0  0  0  0  0  0
   -0.0208   -0.9375    0.0000 C   0  0  0  0  0  0  0  0  0  0  0  0
   -1.4458   -0.9375    0.0000 C   0  0  0  0  0  0  0  0  0  0  0  0
   -2.1625   -2.1792    0.0000 C   0  0  0  0  0  0  0  0  0  0  0  0
   -0.7333    0.3000    0.0000 C   0  0  0  0  0  0  0  0  0  0  0  0
   -1.4458   -0.1125    0.0000 C   0  0  0  0  0  0  0  0  0  0  0  0
    0.4667    0.9208    0.0000 C   0  0  0  0  0  0  0  0  0  0  0  0
   -2.8833   -2.5917    0.0000 C   0  0  0  0  0  0  0  0  0  0  0  0
    1.2500   -0.5167    0.0000 C   0  0  0  0  0  0  0  0  0  0  0  0
    0.7667   -1.1917    0.0000 C   0  0  0  0  0  0  0  0  0  0  0  0
   -0.7375   -2.1792    0.0000 C   0  0  0  0  0  0  0  0  0  0  0  0
   -2.8833   -0.9375    0.0000 C   0  0  0  0  0  0  0  0  0  0  0  0
   -1.4458   -2.5917    0.0000 C   0  0  0  0  0  0  0  0  0  0  0  0
    2.3125    2.0833    0.0000 C   0  0  0  0  0  0  0  0  0  0  0  0
   -3.5958   -2.1792    0.0000 C   0  0  0  0  0  0  0  0  0  0  0  0
    4.4542    2.4625    0.0000 C   0  0  0  0  0  0  0  0  0  0  0  0
    0.9792    1.5625    0.0000 C   0  0  0  0  0  0  0  0  0  0  0  0
   -0.3625    1.2708    0.0000 O   0  0  0  0  0  0  0  0  0  0  0  0
    1.7917    1.4333    0.0000 O   0  0  0  0  0  0  0  0  0  0  0  0
    2.0042    2.8458    0.0000 O   0  0  0  0  0  0  0  0  0  0  0  0
    4.9750    3.1083    0.0000 O   0  0  0  0  0  0  0  0  0  0  0  0
   -4.3208   -2.6000    0.0000 O   0  0  0  0  0  0  0  0  0  0  0  0
    1.5375    0.4458    0.0000 O   0  0  0  0  0  0  0  0  0  0  0  0
   -0.0500    0.6458    0.0000 C   0  0  0  0  0  0  0  0  0  0  0  0
   -3.5958   -1.3500    0.0000 C   0  0  0  0  0  0  0  0  0  0  0  0
   -2.1708    0.3125    0.0000 O   0  0  0  0  0  0  0  0  0  0  0  0
    3.1250    1.9458    0.0000 C   0  0  0  0  0  0  0  0  0  0  0  0
    3.6375    2.5833    0.0000 C   0  0  0  0  0  0  0  0  0  0  0  0
   -2.1625   -0.5167    0.0000 C   0  0  0  0  0  0  0  0  0  0  0  0
    4.7542    1.6875    0.0000 O   0  0  0  0  0  0  0  0  0  0  0  0
   -0.0208   -1.7542    0.0000 H   0  0  0  0  0  0  0  0  0  0  0  0
   -0.7458   -0.5125    0.0000 H   0  0  0  0  0  0  0  0  0  0  0  0
   -1.4250   -1.7625    0.0000 H   0  0  0  0  0  0  0  0  0  0  0  0
  2  1  1  0
  3  6  1  0
  4  5  1  0
  5  1  1  0
  6  9  1  0
  7  3  1  0
  8  1  1  0
  9  8  1  0
  2 10  1  1
 11  7  2  0
 12  2  1  0
 13  5  1  0
 14  4  1  0
 15  3  1  0
 16 14  1  0
 17 22  1  0
 18 28  1  0
 19 31  1  0
 20 10  1  0
 21 10  2  0
 22 20  1  0
 23 17  2  0
 24 19  2  0
 25 18  2  0
 26  2  1  0
  1 27  1  1
 28 15  1  0
  9 29  1  1
 30 17  1  0
 31 30  1  0
  3 32  1  1
 33 19  1  0
  5 34  1  6
  4 35  1  1
  6 36  1  6
 13 12  1  0
  4  6  1  0
 16  7  1  0
 11 18  1  0
M  END
> <chembl_id>
CHEMBL977

> <chembl_pref_name>
HYDROCORTISONE HEMISUCCINATE ANHYDROUS
