
     RDKit          2D

 40 45  0  0  0  0  0  0  0  0999 V2000
    0.6720   -0.9695    0.0000 Cl  0  0  0  0  0  0  0  0  0  0  0  0
   -5.1528   -2.4367    0.0000 S   0  0  0  0  0  0  0  0  0  0  0  0
    1.6545    0.2977    0.0000 O   0  0  0  0  0  0  0  0  0  0  0  0
    0.2064    2.8059    0.0000 O   0  0  0  0  0  0  0  0  0  0  0  0
    0.7355    1.4392    0.0000 N   0  0  0  0  0  0  0  0  0  0  0  0
   -2.1225   -0.2108    0.0000 N   0  0  0  0  0  0  0  0  0  0  0  0
   -3.5515   -1.0359    0.0000 N   0  0  0  0  0  0  0  0  0  0  0  0
   -4.3510   -2.2641    0.0000 N   0  0  0  0  0  0  0  0  0  0  0  0
    2.0347    1.7130    0.0000 C   0  0  0  0  0  0  0  0  0  0  0  0
    1.6222    2.4276    0.0000 C   0  0  0  0  0  0  0  0  0  0  0  0
    1.4844    1.1050    0.0000 C   0  0  0  0  0  0  0  0  0  0  0  0
    0.8205    2.2550    0.0000 C   0  0  0  0  0  0  0  0  0  0  0  0
    0.0210    1.0267    0.0000 C   0  0  0  0  0  0  0  0  0  0  0  0
   -0.6935    1.4392    0.0000 C   0  0  0  0  0  0  0  0  0  0  0  0
   -1.4080    1.0267    0.0000 C   0  0  0  0  0  0  0  0  0  0  0  0
   -0.6935    2.2642    0.0000 C   0  0  0  0  0  0  0  0  0  0  0  0
   -2.1225    1.4392    0.0000 C   0  0  0  0  0  0  0  0  0  0  0  0
   -1.4080    2.6767    0.0000 C   0  0  0  0  0  0  0  0  0  0  0  0
   -1.4080    0.2017    0.0000 C   0  0  0  0  0  0  0  0  0  0  0  0
   -2.1225    2.2642    0.0000 C   0  0  0  0  0  0  0  0  0  0  0  0
   -2.1225   -1.0359    0.0000 C   0  0  0  0  0  0  0  0  0  0  0  0
   -2.8370    0.2017    0.0000 C   0  0  0  0  0  0  0  0  0  0  0  0
   -2.8370   -1.4484    0.0000 C   0  0  0  0  0  0  0  0  0  0  0  0
   -3.5515   -0.2108    0.0000 C   0  0  0  0  0  0  0  0  0  0  0  0
   -4.2660   -1.4484    0.0000 C   0  0  0  0  0  0  0  0  0  0  0  0
   -5.0149   -1.1141    0.0000 C   0  0  0  0  0  0  0  0  0  0  0  0
   -5.5659   -1.7281    0.0000 C   0  0  0  0  0  0  0  0  0  0  0  0
   -5.2712   -0.3299    0.0000 C   0  0  0  0  0  0  0  0  0  0  0  0
   -6.3731   -1.5580    0.0000 C   0  0  0  0  0  0  0  0  0  0  0  0
   -6.0785   -0.1598    0.0000 C   0  0  0  0  0  0  0  0  0  0  0  0
   -6.6295   -0.7738    0.0000 C   0  0  0  0  0  0  0  0  0  0  0  0
    2.0348    3.1419    0.0000 C   0  0  0  0  0  0  0  0  0  0  0  0
    2.8598    3.1419    0.0000 C   0  0  0  0  0  0  0  0  0  0  0  0
    3.2723    2.4274    0.0000 C   0  0  0  0  0  0  0  0  0  0  0  0
    2.8597    1.7129    0.0000 C   0  0  0  0  0  0  0  0  0  0  0  0
    2.6182    2.5586    0.0000 C   0  0  0  0  0  0  0  0  0  0  0  0
    2.3598    2.5790    0.0000 H   0  0  0  0  0  0  0  0  0  0  0  0
    2.5347    2.2758    0.0000 H   0  0  0  0  0  0  0  0  0  0  0  0
    1.0334    3.2359    0.0000 H   0  0  0  0  0  0  0  0  0  0  0  0
    2.4402    0.7989    0.0000 H   0  0  0  0  0  0  0  0  0  0  0  0
  2  8  1  0
  2 27  1  0
  3 11  2  0
  4 12  2  0
  5 11  1  0
  5 12  1  0
  5 13  1  0
  6 19  1  0
  6 21  1  0
  6 22  1  0
  7 23  1  0
  7 24  1  0
  7 25  1  0
  8 25  2  0
  9 11  1  0
 10 12  1  0
 14 13  1  1
 14 15  1  0
 14 16  1  0
 15 17  1  0
 15 19  1  6
 16 18  1  0
 17 20  1  0
 18 20  1  0
 21 23  1  0
 22 24  1  0
 25 26  1  0
 26 27  1  0
 26 28  2  0
 27 29  2  0
 28 30  1  0
 29 31  1  0
 30 31  2  0
 35  9  1  0
  9 10  1  0
 10 32  1  0
 32 33  1  0
 33 34  1  0
 34 35  1  0
 32 36  1  0
 35 36  1  0
 35 37  1  1
 32 38  1  1
 10 39  1  6
  9 40  1  6
M  END
> <chembl_id>
CHEMBL1615372

> <chembl_pref_name>
LURASIDONE HYDROCHLORIDE
