
     RDKit          2D

 18 19  0  0  0  0  0  0  0  0999 V2000
    1.0542   -0.9625    0.0000 C   0  0  0  0  0  0  0  0  0  0  0  0
    1.6667   -1.3167    0.0000 N   0  0  0  0  0  0  0  0  0  0  0  0
    2.2792   -0.9625    0.0000 C   0  0  0  0  0  0  0  0  0  0  0  0
   -0.1750   -0.9625    0.0000 N   0  0  0  0  0  0  0  0  0  0  0  0
    0.4375   -1.3167    0.0000 C   0  0  0  0  0  0  0  0  0  0  0  0
    1.0542   -0.2542    0.0000 O   0  0  0  0  0  0  0  0  0  0  0  0
    2.2750   -0.2542    0.0000 C   0  0  0  0  0  0  0  0  0  0  0  0
    2.8917   -1.3167    0.0000 C   0  0  0  0  0  0  0  0  0  0  0  0
   -0.1750   -0.2542    0.0000 C   0  0  0  0  0  0  0  0  0  0  0  0
   -0.7833   -1.3167    0.0000 C   0  0  0  0  0  0  0  0  0  0  0  0
    3.5042   -0.2542    0.0000 C   0  0  0  0  0  0  0  0  0  0  0  0
    0.4375   -2.0250    0.0000 C   0  0  0  0  0  0  0  0  0  0  0  0
    3.5042   -0.9667    0.0000 C   0  0  0  0  0  0  0  0  0  0  0  0
    2.8875    0.0958    0.0000 C   0  0  0  0  0  0  0  0  0  0  0  0
    2.8875   -2.0292    0.0000 C   0  0  0  0  0  0  0  0  0  0  0  0
    1.6625    0.0958    0.0000 C   0  0  0  0  0  0  0  0  0  0  0  0
   -0.7833   -2.0250    0.0000 C   0  0  0  0  0  0  0  0  0  0  0  0
   -0.1750   -2.3792    0.0000 C   0  0  0  0  0  0  0  0  0  0  0  0
  2  1  1  0
  3  2  1  0
  4  5  1  0
  5  1  1  0
  6  1  2  0
  7  3  1  0
  8  3  2  0
  9  4  1  0
 10  4  1  0
 11 13  2  0
 12  5  1  0
 13  8  1  0
 14  7  2  0
 15  8  1  0
 16  7  1  0
 17 18  1  0
 18 12  1  0
 17 10  1  0
 11 14  1  0
M  END
> <chembl_id>
CHEMBL1087

> <chembl_pref_name>
MEPIVACAINE
