
     RDKit          2D

 19 20  0  0  0  0  0  0  0  0999 V2000
    5.4250   -5.5042    0.0000 C   0  0  0  0  0  0  0  0  0  0  0  0
    6.0292   -5.1375    0.0000 C   0  0  0  0  0  0  0  0  0  0  0  0
    5.4292   -6.2042    0.0000 C   0  0  0  0  0  0  0  0  0  0  0  0
    2.9625   -5.5167    0.0000 N   0  0  0  0  0  0  0  0  0  0  0  0
    4.8125   -5.1417    0.0000 O   0  0  0  0  0  0  0  0  0  0  0  0
    4.1917   -5.5125    0.0000 C   0  0  0  0  0  0  0  0  0  0  0  0
    3.5792   -5.1625    0.0000 C   0  0  0  0  0  0  0  0  0  0  0  0
    6.0417   -6.5500    0.0000 C   0  0  0  0  0  0  0  0  0  0  0  0
    4.8250   -6.5625    0.0000 C   0  0  0  0  0  0  0  0  0  0  0  0
    6.0292   -4.4292    0.0000 C   0  0  0  0  0  0  0  0  0  0  0  0
    6.6542   -5.4792    0.0000 C   0  0  0  0  0  0  0  0  0  0  0  0
    2.3417   -5.1667    0.0000 C   0  0  0  0  0  0  0  0  0  0  0  0
    2.9667   -6.2167    0.0000 C   0  0  0  0  0  0  0  0  0  0  0  0
    4.8292   -7.2750    0.0000 C   0  0  0  0  0  0  0  0  0  0  0  0
    6.6417   -4.0667    0.0000 C   0  0  0  0  0  0  0  0  0  0  0  0
    7.2750   -5.1292    0.0000 C   0  0  0  0  0  0  0  0  0  0  0  0
    6.0500   -7.2667    0.0000 C   0  0  0  0  0  0  0  0  0  0  0  0
    7.2667   -4.4167    0.0000 C   0  0  0  0  0  0  0  0  0  0  0  0
    5.4375   -7.6292    0.0000 C   0  0  0  0  0  0  0  0  0  0  0  0
  2  1  1  0
  3  1  1  0
  4  7  1  0
  5  1  1  0
  6  5  1  0
  7  6  1  0
  8  3  1  0
  9  3  2  0
 10  2  1  0
 11  2  2  0
 12  4  1  0
 13  4  1  0
 14  9  1  0
 15 10  2  0
 16 11  1  0
 17  8  2  0
 18 15  1  0
 19 14  2  0
 19 17  1  0
 18 16  2  0
M  END
> <chembl_id>
CHEMBL657

> <chembl_pref_name>
DIPHENHYDRAMINE
