
     RDKit          2D

 28 31  0  0  0  0  0  0  0  0999 V2000
    1.4000    0.8583    0.0000 N   0  0  0  0  0  0  0  0  0  0  0  0
    2.1542    0.4250    0.0000 C   0  0  0  0  0  0  0  0  0  0  0  0
   -0.0208    1.7000    0.0000 N   0  0  0  0  0  0  0  0  0  0  0  0
   -1.4958    1.7000    0.0000 C   0  0  0  0  0  0  0  0  0  0  0  0
    0.6875    0.4500    0.0000 C   0  0  0  0  0  0  0  0  0  0  0  0
    1.4000    1.7000    0.0000 C   0  0  0  0  0  0  0  0  0  0  0  0
   -2.2083    2.1250    0.0000 C   0  0  0  0  0  0  0  0  0  0  0  0
    2.1542   -0.4417    0.0000 C   0  0  0  0  0  0  0  0  0  0  0  0
    2.8792    0.8708    0.0000 C   0  0  0  0  0  0  0  0  0  0  0  0
    0.6875    2.1000    0.0000 C   0  0  0  0  0  0  0  0  0  0  0  0
   -0.0208    0.8583    0.0000 C   0  0  0  0  0  0  0  0  0  0  0  0
   -0.7583    2.1250    0.0000 C   0  0  0  0  0  0  0  0  0  0  0  0
   -2.9208    1.7000    0.0000 C   0  0  0  0  0  0  0  0  0  0  0  0
    2.9000   -0.8625    0.0000 C   0  0  0  0  0  0  0  0  0  0  0  0
    3.6292    0.4708    0.0000 C   0  0  0  0  0  0  0  0  0  0  0  0
    2.8750    1.6958    0.0000 C   0  0  0  0  0  0  0  0  0  0  0  0
    1.4167   -0.8542    0.0000 C   0  0  0  0  0  0  0  0  0  0  0  0
   -2.9208    0.8750    0.0000 C   0  0  0  0  0  0  0  0  0  0  0  0
   -3.6333    2.1250    0.0000 C   0  0  0  0  0  0  0  0  0  0  0  0
    2.9000   -1.6917    0.0000 C   0  0  0  0  0  0  0  0  0  0  0  0
    4.3417    0.8958    0.0000 C   0  0  0  0  0  0  0  0  0  0  0  0
    3.5667    2.1333    0.0000 C   0  0  0  0  0  0  0  0  0  0  0  0
    1.4167   -1.6875    0.0000 C   0  0  0  0  0  0  0  0  0  0  0  0
   -3.6333    0.4500    0.0000 C   0  0  0  0  0  0  0  0  0  0  0  0
   -4.3458    1.7000    0.0000 C   0  0  0  0  0  0  0  0  0  0  0  0
    4.3125    1.7250    0.0000 C   0  0  0  0  0  0  0  0  0  0  0  0
    2.1667   -2.1250    0.0000 C   0  0  0  0  0  0  0  0  0  0  0  0
   -4.3458    0.8750    0.0000 C   0  0  0  0  0  0  0  0  0  0  0  0
  2  1  1  0
  3 10  1  0
  4 12  1  0
  5  1  1  0
  6  1  1  0
  7  4  2  0
  8  2  1  0
  9  2  1  0
 10  6  1  0
 11  5  1  0
 12  3  1  0
 13  7  1  0
 14  8  1  0
 15  9  2  0
 16  9  1  0
 17  8  2  0
 18 13  1  0
 19 13  2  0
 20 14  2  0
 21 15  1  0
 22 16  2  0
 23 17  1  0
 24 18  2  0
 25 19  1  0
 26 22  1  0
 27 23  2  0
 28 25  2  0
 11  3  1  0
 21 26  2  0
 20 27  1  0
 24 28  1  0
M  END
> <chembl_id>
CHEMBL43064

> <chembl_pref_name>
CINNARIZINE
