
     RDKit          2D

 27 30  0  0  0  0  0  0  0  0999 V2000
    8.1572   -0.1134    0.0000 S   0  0  0  0  0  0  0  0  0  0  0  0
    2.1347   -0.0412    0.0000 S   0  0  0  0  0  0  0  0  0  0  0  0
    7.4353   -1.3303    0.0000 N   0  0  0  0  0  0  0  0  0  0  0  0
    2.8463   -1.2581    0.0000 N   0  0  0  0  0  0  0  0  0  0  0  0
    8.8791   -1.3303    0.0000 C   0  0  0  0  0  0  0  0  0  0  0  0
    1.4231   -1.2581    0.0000 C   0  0  0  0  0  0  0  0  0  0  0  0
    8.8791   -0.5259    0.0000 C   0  0  0  0  0  0  0  0  0  0  0  0
    1.4231   -0.4331    0.0000 C   0  0  0  0  0  0  0  0  0  0  0  0
    7.4353   -0.5053    0.0000 C   0  0  0  0  0  0  0  0  0  0  0  0
    2.8463   -0.4331    0.0000 C   0  0  0  0  0  0  0  0  0  0  0  0
    9.5803   -1.7015    0.0000 C   0  0  0  0  0  0  0  0  0  0  0  0
    0.7219   -1.6293    0.0000 C   0  0  0  0  0  0  0  0  0  0  0  0
    9.5803   -0.0928    0.0000 C   0  0  0  0  0  0  0  0  0  0  0  0
    0.7219   -0.0412    0.0000 C   0  0  0  0  0  0  0  0  0  0  0  0
    6.6619   -0.0310    0.0000 C   0  0  0  0  0  0  0  0  0  0  0  0
    3.6094    0.0000    0.0000 C   0  0  0  0  0  0  0  0  0  0  0  0
    6.6928   -1.7634    0.0000 C   0  0  0  0  0  0  0  0  0  0  0  0
    3.5990   -1.6707    0.0000 C   0  0  0  0  0  0  0  0  0  0  0  0
   10.3125   -1.3097    0.0000 C   0  0  0  0  0  0  0  0  0  0  0  0
    0.0000   -1.2581    0.0000 C   0  0  0  0  0  0  0  0  0  0  0  0
   10.3125   -0.4847    0.0000 C   0  0  0  0  0  0  0  0  0  0  0  0
    0.0000   -0.4331    0.0000 C   0  0  0  0  0  0  0  0  0  0  0  0
    5.8781   -0.4641    0.0000 C   0  0  0  0  0  0  0  0  0  0  0  0
    4.3622   -0.4434    0.0000 C   0  0  0  0  0  0  0  0  0  0  0  0
    5.1150    0.0000    0.0000 C   0  0  0  0  0  0  0  0  0  0  0  0
    6.6928   -2.5781    0.0000 C   0  0  0  0  0  0  0  0  0  0  0  0
    3.5990   -2.5678    0.0000 C   0  0  0  0  0  0  0  0  0  0  0  0
  1  7  1  0
  1  9  1  0
  2  8  1  0
  2 10  1  0
  3  5  1  0
  3  9  2  0
  3 17  1  0
  4  6  1  0
  4 10  1  0
  4 18  1  0
  5  7  2  0
  5 11  1  0
  6  8  2  0
  6 12  1  0
  7 13  1  0
  8 14  1  0
  9 15  1  0
 10 16  2  3
 11 19  2  0
 12 20  2  0
 13 21  2  0
 14 22  2  0
 15 23  2  3
 16 24  1  0
 17 26  1  0
 18 27  1  0
 19 21  1  0
 20 22  1  0
 23 25  1  0
 24 25  2  3
M  CHG  1   3   1
M  END
> <chembl_id>
CHEMBL1185568

> <chembl_pref_name>
DITHIAZANINE
