
     RDKit          2D

 22 23  0  0  0  0  0  0  0  0999 V2000
    2.3167   -0.7917    0.0000 C   0  0  0  0  0  0  0  0  0  0  0  0
   -0.0750    2.5708    0.0000 C   0  0  0  0  0  0  0  0  0  0  0  0
   -0.8750    2.1000    0.0000 N   0  0  0  0  0  0  0  0  0  0  0  0
    3.2167   -0.3250    0.0000 O   0  0  0  0  0  0  0  0  0  0  0  0
    0.7250    2.1125    0.0000 C   0  0  0  0  0  0  0  0  0  0  0  0
    2.3375   -3.4167    0.0000 N   0  0  0  0  0  0  0  0  0  0  0  0
    2.3375   -1.5917    0.0000 C   0  0  0  0  0  0  0  0  0  0  0  0
   -0.0833    3.4875    0.0000 O   0  0  0  0  0  0  0  0  0  0  0  0
    1.5292   -0.3500    0.0000 N   0  0  0  0  0  0  0  0  0  0  0  0
    1.5292    0.7333    0.0000 N   0  0  0  0  0  0  0  0  0  0  0  0
   -0.8833    1.1750    0.0000 C   0  0  0  0  0  0  0  0  0  0  0  0
   -1.6833    0.7208    0.0000 C   0  0  0  0  0  0  0  0  0  0  0  0
    0.7292    1.1958    0.0000 C   0  0  0  0  0  0  0  0  0  0  0  0
    1.5292   -2.9625    0.0000 C   0  0  0  0  0  0  0  0  0  0  0  0
    3.1375   -2.9625    0.0000 C   0  0  0  0  0  0  0  0  0  0  0  0
    1.5292   -2.0500    0.0000 C   0  0  0  0  0  0  0  0  0  0  0  0
    3.1375   -2.0500    0.0000 C   0  0  0  0  0  0  0  0  0  0  0  0
   -2.4750    1.1875    0.0000 C   0  0  0  0  0  0  0  0  0  0  0  0
   -1.6833   -0.2000    0.0000 C   0  0  0  0  0  0  0  0  0  0  0  0
   -3.2833    0.7333    0.0000 C   0  0  0  0  0  0  0  0  0  0  0  0
   -2.4833   -0.6542    0.0000 C   0  0  0  0  0  0  0  0  0  0  0  0
   -3.2833   -0.1917    0.0000 C   0  0  0  0  0  0  0  0  0  0  0  0
  2  5  1  0
  3  2  1  0
  4  1  2  0
  5 13  1  0
  6 15  1  0
  7  1  1  0
  8  2  2  0
  9  1  1  0
 10  9  1  0
 11  3  1  0
 12 11  1  0
 13 10  1  0
 14 16  1  0
 15 17  2  0
 16  7  2  0
 17  7  1  0
 18 12  2  0
 19 12  1  0
 20 18  1  0
 21 19  2  0
 22 21  1  0
 14  6  2  0
 20 22  2  0
M  END
> <chembl_id>
CHEMBL1256841

> <chembl_pref_name>
NIALAMIDE
