
     RDKit          2D

 23 24  0  0  0  0  0  0  0  0999 V2000
    6.1125   -5.6417    0.0000 C   0  0  0  0  0  0  0  0  0  0  0  0
    5.7542   -5.0250    0.0000 C   0  0  0  0  0  0  0  0  0  0  0  0
    5.7500   -3.7917    0.0000 N   0  0  0  0  0  0  0  0  0  0  0  0
    5.5000   -6.0000    0.0000 C   0  0  0  0  0  0  0  0  0  0  0  0
    6.1042   -4.4042    0.0000 C   0  0  0  0  0  0  0  0  0  0  0  0
    6.7250   -5.9917    0.0000 C   0  0  0  0  0  0  0  0  0  0  0  0
    6.4625   -5.0250    0.0000 O   0  0  0  0  0  0  0  0  0  0  0  0
    5.1292   -3.4417    0.0000 C   0  0  0  0  0  0  0  0  0  0  0  0
    5.1292   -4.1417    0.0000 C   0  0  0  0  0  0  0  0  0  0  0  0
    6.1042   -3.1792    0.0000 C   0  0  0  0  0  0  0  0  0  0  0  0
    5.5000   -6.7125    0.0000 C   0  0  0  0  0  0  0  0  0  0  0  0
    4.8875   -5.6417    0.0000 C   0  0  0  0  0  0  0  0  0  0  0  0
    6.7250   -6.7042    0.0000 C   0  0  0  0  0  0  0  0  0  0  0  0
    7.3292   -5.6375    0.0000 C   0  0  0  0  0  0  0  0  0  0  0  0
    5.7500   -2.5667    0.0000 C   0  0  0  0  0  0  0  0  0  0  0  0
    5.1250   -4.8500    0.0000 C   0  0  0  0  0  0  0  0  0  0  0  0
    5.1292   -2.7292    0.0000 C   0  0  0  0  0  0  0  0  0  0  0  0
    4.2750   -6.0000    0.0000 C   0  0  0  0  0  0  0  0  0  0  0  0
    4.8875   -7.0667    0.0000 C   0  0  0  0  0  0  0  0  0  0  0  0
    7.3292   -7.0542    0.0000 C   0  0  0  0  0  0  0  0  0  0  0  0
    7.9500   -5.9917    0.0000 C   0  0  0  0  0  0  0  0  0  0  0  0
    7.9500   -6.7000    0.0000 C   0  0  0  0  0  0  0  0  0  0  0  0
    4.2750   -6.7125    0.0000 C   0  0  0  0  0  0  0  0  0  0  0  0
  2  1  1  0
  3  5  1  0
  4  1  1  0
  5  2  1  0
  6  1  1  0
  7  1  1  0
  8  3  1  0
  9  3  1  0
 10  3  1  0
 11  4  1  0
 12  4  2  0
 13  6  1  0
 14  6  1  0
 15 10  1  0
 16  9  1  0
 17  8  1  0
 18 12  1  0
 19 11  2  0
 20 13  1  0
 21 14  1  0
 22 20  1  0
 23 19  1  0
 21 22  1  0
 23 18  2  0
M  CHG  1   3   1
M  END
> <chembl_id>
CHEMBL1201354

> <chembl_pref_name>
TRIDIHEXETHYL
