
     RDKit          2D

 33 35  0  0  0  0  0  0  0  0999 V2000
    3.4519   -1.3808    0.0000 O   0  0  0  0  0  0  0  0  0  0  0  0
    1.3006   -0.9631    0.0000 C   0  0  0  0  0  0  0  0  0  0  0  0
    0.5858   -1.3749    0.0000 C   0  0  0  0  0  0  0  0  0  0  0  0
    0.1740   -0.6600    0.0000 C   0  0  0  0  0  0  0  0  0  0  0  0
   -0.1291   -1.7867    0.0000 O   0  0  0  0  0  0  0  0  0  0  0  0
    0.9976   -2.0897    0.0000 C   0  0  0  0  0  0  0  0  0  0  0  0
    1.8180   -2.1768    0.0000 S   0  0  0  0  0  0  0  0  0  0  0  0
    1.9887   -2.9839    0.0000 C   0  0  0  0  0  0  0  0  0  0  0  0
    1.2738   -3.3957    0.0000 C   0  0  0  0  0  0  0  0  0  0  0  0
    0.6613   -2.8431    0.0000 C   0  0  0  0  0  0  0  0  0  0  0  0
    1.3877   -0.1427    0.0000 S   0  0  0  0  0  0  0  0  0  0  0  0
    2.1948    0.0281    0.0000 C   0  0  0  0  0  0  0  0  0  0  0  0
    2.6066   -0.6868    0.0000 C   0  0  0  0  0  0  0  0  0  0  0  0
    2.0540   -1.2994    0.0000 C   0  0  0  0  0  0  0  0  0  0  0  0
    0.5872    0.0541    0.0000 O   0  0  0  0  0  0  0  0  0  0  0  0
   -0.6510   -0.6592    0.0000 O   0  0  0  0  0  0  0  0  0  0  0  0
    0.1754    0.7690    0.0000 C   0  0  0  0  0  0  0  0  0  0  0  0
   -1.4522    2.0108    0.0000 N   0  0  0  0  0  0  0  0  0  0  0  0
   -0.8916    1.5709    0.0000 C   0  0  0  0  0  0  0  0  0  0  0  0
    0.0372    1.5864    0.0000 C   0  0  0  0  0  0  0  0  0  0  0  0
   -0.3408    1.1977    0.0000 C   0  0  0  0  0  0  0  0  0  0  0  0
   -1.3125    1.1977    0.0000 C   0  0  0  0  0  0  0  0  0  0  0  0
   -1.2121    0.8623    0.0000 C   0  0  0  0  0  0  0  0  0  0  0  0
   -1.9172    0.4339    0.0000 C   0  0  0  0  0  0  0  0  0  0  0  0
   -1.1936    0.0375    0.0000 O   0  0  0  0  0  0  0  0  0  0  0  0
   -1.3621    2.8308    0.0000 C   0  0  0  0  0  0  0  0  0  0  0  0
   -2.2166    2.3212    0.0000 C   0  0  0  0  0  0  0  0  0  0  0  0
   -1.0815    2.3737    0.0000 H   0  0  0  0  0  0  0  0  0  0  0  0
   -1.9041    1.7727    0.0000 H   0  0  0  0  0  0  0  0  0  0  0  0
   -0.4038    0.6974    0.0000 H   0  0  0  0  0  0  0  0  0  0  0  0
   -2.7257    0.2700    0.0000 H   0  0  0  0  0  0  0  0  0  0  0  0
    0.9517    1.0480    0.0000 H   0  0  0  0  0  0  0  0  0  0  0  0
    4.8459    0.0000    0.0000 Br  0  0  0  0  0  0  0  0  0  0  0  0
  2  3  1  0
  3  4  1  0
  3  5  1  0
  3  6  1  0
  6  7  1  0
  6 10  2  0
  7  8  1  0
  8  9  2  0
  9 10  1  0
  2 11  1  0
  2 14  2  0
 11 12  1  0
 12 13  2  0
 13 14  1  0
  4 15  1  0
  4 16  2  0
 17 15  1  1
 20 17  1  0
 17 21  1  0
 18 19  1  0
 19 20  1  6
 22 21  1  6
 22 18  1  0
 19 23  1  0
 22 24  1  0
 24 23  1  0
 23 25  1  1
 24 25  1  1
 18 26  1  0
 18 27  1  0
 19 28  1  1
 22 29  1  6
 23 30  1  6
 24 31  1  6
 17 32  1  6
M  CHG  2  18   1  33  -1
M  END
> <chembl_id>
CHEMBL3545181

> <chembl_pref_name>
TIOTROPIUM BROMIDE
