
     RDKit          2D

 20 21  0  0  0  0  0  0  0  0999 V2000
    5.8514  -20.9963    0.0000 C   0  0  0  0  0  0  0  0  0  0  0  0
    5.8500  -21.8239    0.0000 C   0  0  0  0  0  0  0  0  0  0  0  0
    6.5631  -22.2368    0.0000 C   0  0  0  0  0  0  0  0  0  0  0  0
    7.2824  -21.8234    0.0000 C   0  0  0  0  0  0  0  0  0  0  0  0
    7.2793  -20.9923    0.0000 C   0  0  0  0  0  0  0  0  0  0  0  0
    6.5611  -20.5835    0.0000 C   0  0  0  0  0  0  0  0  0  0  0  0
    6.5572  -19.7585    0.0000 O   0  0  0  0  0  0  0  0  0  0  0  0
    7.9916  -20.5762    0.0000 C   0  0  0  0  0  0  0  0  0  0  0  0
    8.7082  -20.9852    0.0000 N   0  0  0  0  0  0  0  0  0  0  0  0
    7.9876  -19.7512    0.0000 O   0  0  0  0  0  0  0  0  0  0  0  0
    9.4207  -20.5692    0.0000 C   0  0  0  0  0  0  0  0  0  0  0  0
   10.1329  -20.9808    0.0000 C   0  0  0  0  0  0  0  0  0  0  0  0
   10.8448  -20.5656    0.0000 C   0  0  0  0  0  0  0  0  0  0  0  0
   10.8412  -19.7397    0.0000 C   0  0  0  0  0  0  0  0  0  0  0  0
   10.1197  -19.3308    0.0000 C   0  0  0  0  0  0  0  0  0  0  0  0
    9.4108  -19.7486    0.0000 C   0  0  0  0  0  0  0  0  0  0  0  0
   11.5531  -19.3227    0.0000 Cl  0  0  0  0  0  0  0  0  0  0  0  0
   11.5612  -20.9748    0.0000 Cl  0  0  0  0  0  0  0  0  0  0  0  0
    6.5616  -23.0618    0.0000 Cl  0  0  0  0  0  0  0  0  0  0  0  0
    5.1366  -20.5844    0.0000 Cl  0  0  0  0  0  0  0  0  0  0  0  0
  8 10  2  0
  2  3  1  0
  9 11  1  0
  5  6  2  0
 11 12  2  0
  6  1  1  0
 12 13  1  0
  1  2  2  0
 13 14  2  0
  6  7  1  0
 14 15  1  0
  3  4  2  0
 15 16  2  0
 16 11  1  0
  5  8  1  0
 14 17  1  0
 13 18  1  0
  8  9  1  0
  3 19  1  0
  4  5  1  0
  1 20  1  0
M  END
> <chembl_id>
CHEMBL291338

> <chembl_pref_name>
3,3',4',5-TETRACHLOROSALICYLANILIDE
