
     RDKit          2D

 12 12  0  0  0  0  0  0  0  0999 V2000
    0.6792    2.3000    0.0000 S   0  0  0  0  0  0  0  0  0  0  0  0
    0.0167    1.1625    0.0000 C   0  0  0  0  0  0  0  0  0  0  0  0
    1.8167    1.6333    0.0000 O   0  0  0  0  0  0  0  0  0  0  0  0
   -0.4333    2.9458    0.0000 O   0  0  0  0  0  0  0  0  0  0  0  0
    1.3417    3.4458    0.0000 N   0  0  0  0  0  0  0  0  0  0  0  0
    0.6667    0.0458    0.0000 C   0  0  0  0  0  0  0  0  0  0  0  0
   -1.2583    1.1625    0.0000 C   0  0  0  0  0  0  0  0  0  0  0  0
   -1.9208    0.0458    0.0000 C   0  0  0  0  0  0  0  0  0  0  0  0
    0.0167   -1.0875    0.0000 C   0  0  0  0  0  0  0  0  0  0  0  0
   -1.2625   -1.0875    0.0000 C   0  0  0  0  0  0  0  0  0  0  0  0
   -1.2625   -3.3542    0.0000 N   0  0  0  0  0  0  0  0  0  0  0  0
   -1.9208   -2.2167    0.0000 C   0  0  0  0  0  0  0  0  0  0  0  0
  2  1  1  0
  3  1  2  0
  4  1  2  0
  5  1  1  0
  6  2  2  0
  7  2  1  0
  8  7  2  0
  9  6  1  0
 10  8  1  0
 11 12  1  0
 12 10  1  0
  9 10  2  0
M  END
> <chembl_id>
CHEMBL419

> <chembl_pref_name>
MAFENIDE
