
     RDKit          2D

 16 17  0  0  1  0  0  0  0  0999 V2000
    3.9417   -0.6292    0.0000 S   0  0  0  0  0  0  0  0  0  0  0  0
    3.2667   -1.5542    0.0000 N   0  0  0  0  0  0  0  0  0  0  0  0
    4.3583   -1.2042    0.0000 C   0  0  0  0  0  0  0  0  0  0  0  0
    3.2667   -0.8500    0.0000 C   0  0  0  0  0  0  0  0  0  0  0  0
    3.9417   -1.7750    0.0000 C   0  0  0  0  0  0  0  0  0  0  0  0
    2.5625   -1.5542    0.0000 C   0  0  0  0  0  0  0  0  0  0  0  0
    2.5625   -0.8500    0.0000 C   0  0  0  0  0  0  0  0  0  0  0  0
    3.9375   -2.4792    0.0000 C   0  0  0  0  0  0  0  0  0  0  0  0
    3.5792   -0.0125    0.0000 O   0  0  0  0  0  0  0  0  0  0  0  0
    4.2917   -0.0125    0.0000 O   0  0  0  0  0  0  0  0  0  0  0  0
    2.0583   -2.0583    0.0000 O   0  0  0  0  0  0  0  0  0  0  0  0
    4.5458   -2.8417    0.0000 O   0  0  0  0  0  0  0  0  0  0  0  0
    3.3167   -2.8292    0.0000 O   0  0  0  0  0  0  0  0  0  0  0  0
    4.9667   -1.5542    0.0000 C   0  0  0  0  0  0  0  0  0  0  0  0
    4.9667   -0.8417    0.0000 C   0  0  0  0  0  0  0  0  0  0  0  0
    3.2625   -0.1375    0.0000 H   0  0  0  0  0  0  0  0  0  0  0  0
  2  4  1  0
  3  1  1  0
  4  1  1  0
  5  3  1  0
  6  7  1  0
  7  4  1  0
  5  8  1  6
  9  1  2  0
 10  1  2  0
 11  6  2  0
 12  8  1  0
 13  8  2  0
 14  3  1  0
 15  3  1  0
  4 16  1  6
  5  2  1  0
  2  6  1  0
M  END
> <chembl_id>
CHEMBL403

> <chembl_pref_name>
SULBACTAM
