
     RDKit          2D

 87 87  0  0  0  0  0  0  0  0999 V2000
  -17.5607  -11.1670    0.0000 N   0  0  0  0  0  0  0  0  0  0  0  0
  -16.8462  -10.7545    0.0000 C   0  0  0  0  0  0  0  0  0  0  0  0
  -16.1318  -11.1670    0.0000 C   0  0  0  0  0  0  0  0  0  0  0  0
  -15.3068  -11.1670    0.0000 N   0  0  0  0  0  0  0  0  0  0  0  0
  -16.3453  -11.9639    0.0000 O   0  0  0  0  0  0  0  0  0  0  0  0
  -15.3068  -11.9920    0.0000 C   0  0  0  0  0  0  0  0  0  0  0  0
  -14.5923  -10.7545    0.0000 C   0  0  0  0  0  0  0  0  0  0  0  0
  -13.8778  -11.1670    0.0000 C   0  0  0  0  0  0  0  0  0  0  0  0
  -13.0528  -11.1670    0.0000 N   0  0  0  0  0  0  0  0  0  0  0  0
  -14.0914  -11.9639    0.0000 O   0  0  0  0  0  0  0  0  0  0  0  0
  -12.3384  -10.7545    0.0000 C   0  0  0  0  0  0  0  0  0  0  0  0
  -11.6239  -11.1670    0.0000 C   0  0  0  0  0  0  0  0  0  0  0  0
  -10.7989  -11.1670    0.0000 N   0  0  0  0  0  0  0  0  0  0  0  0
  -11.8374  -11.9639    0.0000 O   0  0  0  0  0  0  0  0  0  0  0  0
  -12.3384   -9.9295    0.0000 C   0  0  0  0  0  0  0  0  0  0  0  0
  -11.6239   -9.5170    0.0000 C   0  0  0  0  0  0  0  0  0  0  0  0
  -14.5923   -9.9295    0.0000 C   0  0  0  0  0  0  0  0  0  0  0  0
  -13.8778   -9.5170    0.0000 O   0  0  0  0  0  0  0  0  0  0  0  0
  -15.3068   -9.5170    0.0000 C   0  0  0  0  0  0  0  0  0  0  0  0
  -15.3068   -8.6920    0.0000 C   0  0  0  0  0  0  0  0  0  0  0  0
  -14.5099   -8.4784    0.0000 C   0  0  0  0  0  0  0  0  0  0  0  0
  -14.2964   -7.6815    0.0000 C   0  0  0  0  0  0  0  0  0  0  0  0
  -13.4995   -7.4680    0.0000 C   0  0  0  0  0  0  0  0  0  0  0  0
  -13.2859   -6.6711    0.0000 C   0  0  0  0  0  0  0  0  0  0  0  0
  -16.0212   -9.9295    0.0000 C   0  0  0  0  0  0  0  0  0  0  0  0
  -16.8462   -9.9295    0.0000 C   0  0  0  0  0  0  0  0  0  0  0  0
  -16.2629   -9.3461    0.0000 C   0  0  0  0  0  0  0  0  0  0  0  0
  -17.4296   -9.3461    0.0000 C   0  0  0  0  0  0  0  0  0  0  0  0
  -18.3857  -11.1670    0.0000 C   0  0  0  0  0  0  0  0  0  0  0  0
  -19.1002  -10.7545    0.0000 C   0  0  0  0  0  0  0  0  0  0  0  0
  -19.8147  -11.1670    0.0000 N   0  0  0  0  0  0  0  0  0  0  0  0
  -18.5992  -11.9639    0.0000 O   0  0  0  0  0  0  0  0  0  0  0  0
  -20.5291  -10.7545    0.0000 C   0  0  0  0  0  0  0  0  0  0  0  0
  -19.8147  -11.9920    0.0000 C   0  0  0  0  0  0  0  0  0  0  0  0
  -19.1002   -9.9295    0.0000 C   0  0  0  0  0  0  0  0  0  0  0  0
  -19.8147   -9.5170    0.0000 C   0  0  0  0  0  0  0  0  0  0  0  0
  -19.8147   -8.6920    0.0000 C   0  0  0  0  0  0  0  0  0  0  0  0
  -20.5291   -9.9295    0.0000 C   0  0  0  0  0  0  0  0  0  0  0  0
  -20.2272  -12.7064    0.0000 C   0  0  0  0  0  0  0  0  0  0  0  0
  -19.0178  -12.2055    0.0000 O   0  0  0  0  0  0  0  0  0  0  0  0
  -21.0522  -12.7064    0.0000 C   0  0  0  0  0  0  0  0  0  0  0  0
  -20.0136  -13.5033    0.0000 N   0  0  0  0  0  0  0  0  0  0  0  0
  -20.0136  -14.3283    0.0000 C   0  0  0  0  0  0  0  0  0  0  0  0
  -19.2992  -14.7408    0.0000 C   0  0  0  0  0  0  0  0  0  0  0  0
  -20.7281  -14.7408    0.0000 O   0  0  0  0  0  0  0  0  0  0  0  0
  -19.2992  -15.5658    0.0000 C   0  0  0  0  0  0  0  0  0  0  0  0
  -18.5847  -14.3283    0.0000 N   0  0  0  0  0  0  0  0  0  0  0  0
  -17.7597  -14.3283    0.0000 C   0  0  0  0  0  0  0  0  0  0  0  0
  -17.7597  -13.5033    0.0000 O   0  0  0  0  0  0  0  0  0  0  0  0
  -17.0452  -14.7408    0.0000 C   0  0  0  0  0  0  0  0  0  0  0  0
  -16.3307  -14.3283    0.0000 N   0  0  0  0  0  0  0  0  0  0  0  0
  -15.5057  -14.3283    0.0000 C   0  0  0  0  0  0  0  0  0  0  0  0
  -15.5057  -13.5033    0.0000 O   0  0  0  0  0  0  0  0  0  0  0  0
  -14.7913  -14.7408    0.0000 C   0  0  0  0  0  0  0  0  0  0  0  0
  -14.0768  -14.3283    0.0000 N   0  0  0  0  0  0  0  0  0  0  0  0
  -17.0452  -15.5658    0.0000 C   0  0  0  0  0  0  0  0  0  0  0  0
  -14.7913  -15.5658    0.0000 C   0  0  0  0  0  0  0  0  0  0  0  0
  -15.3746  -16.1492    0.0000 C   0  0  0  0  0  0  0  0  0  0  0  0
  -15.1611  -16.9461    0.0000 C   0  0  0  0  0  0  0  0  0  0  0  0
  -16.1715  -15.9357    0.0000 C   0  0  0  0  0  0  0  0  0  0  0  0
  -14.0768  -13.5033    0.0000 C   0  0  0  0  0  0  0  0  0  0  0  0
  -13.2518  -14.3283    0.0000 C   0  0  0  0  0  0  0  0  0  0  0  0
  -13.2518  -13.5033    0.0000 O   0  0  0  0  0  0  0  0  0  0  0  0
  -12.5373  -14.7408    0.0000 C   0  0  0  0  0  0  0  0  0  0  0  0
  -11.8229  -14.3283    0.0000 N   0  0  0  0  0  0  0  0  0  0  0  0
  -10.9979  -14.3283    0.0000 C   0  0  0  0  0  0  0  0  0  0  0  0
  -12.5373  -15.5658    0.0000 C   0  0  0  0  0  0  0  0  0  0  0  0
  -11.8229  -15.9783    0.0000 C   0  0  0  0  0  0  0  0  0  0  0  0
  -13.2518  -15.9783    0.0000 C   0  0  0  0  0  0  0  0  0  0  0  0
  -10.5854  -13.6139    0.0000 C   0  0  0  0  0  0  0  0  0  0  0  0
  -10.5854  -15.0428    0.0000 O   0  0  0  0  0  0  0  0  0  0  0  0
  -10.9979  -12.8994    0.0000 N   0  0  0  0  0  0  0  0  0  0  0  0
  -10.5854  -10.3701    0.0000 C   0  0  0  0  0  0  0  0  0  0  0  0
  -10.0844  -11.5795    0.0000 C   0  0  0  0  0  0  0  0  0  0  0  0
  -10.0844  -12.4045    0.0000 C   0  0  0  0  0  0  0  0  0  0  0  0
   -9.3756  -12.8266    0.0000 O   0  0  0  0  0  0  0  0  0  0  0  0
   -9.7604  -13.6139    0.0000 C   0  0  0  0  0  0  0  0  0  0  0  0
   -9.3479  -14.3283    0.0000 C   0  0  0  0  0  0  0  0  0  0  0  0
   -8.5229  -14.3283    0.0000 C   0  0  0  0  0  0  0  0  0  0  0  0
   -9.7604  -15.0428    0.0000 C   0  0  0  0  0  0  0  0  0  0  0  0
  -21.4647  -13.4209    0.0000 C   0  0  0  0  0  0  0  0  0  0  0  0
  -22.2897  -13.4209    0.0000 C   0  0  0  0  0  0  0  0  0  0  0  0
  -21.0522  -14.1354    0.0000 C   0  0  0  0  0  0  0  0  0  0  0  0
  -17.3472  -11.9639    0.0000 C   0  0  0  0  0  0  0  0  0  0  0  0
  -11.8229  -12.8994    0.0000 C   0  0  0  0  0  0  0  0  0  0  0  0
  -19.1957  -13.3956    0.0000 C   0  0  0  0  0  0  0  0  0  0  0  0
  -15.4583  -10.2545    0.0000 H   0  0  0  0  0  0  0  0  0  0  0  0
  1  2  1  0
  2  3  1  0
  3  4  1  0
  3  5  2  0
  4  6  1  0
  4  7  1  0
  7  8  1  0
  8  9  1  0
  8 10  2  0
  9 11  1  0
 11 12  1  0
 12 13  1  0
 12 14  2  0
 11 15  1  1
 15 16  1  0
  7 17  1  0
 17 18  1  1
 17 19  1  0
 19 20  1  0
 20 21  1  0
 21 22  2  0
 22 23  1  0
 23 24  2  0
 19 25  1  6
  2 26  1  1
 26 27  1  0
 26 28  1  0
  1 29  1  0
 29 30  1  0
 30 31  1  0
 29 32  2  0
 31 33  1  0
 31 34  1  0
 30 35  1  1
 35 36  1  0
 36 37  1  0
 36 38  1  0
 34 39  1  0
 34 40  2  0
 39 41  1  1
 39 42  1  0
 42 43  1  0
 43 44  1  0
 43 45  2  0
 44 46  1  6
 44 47  1  0
 47 48  1  0
 48 49  2  0
 48 50  1  0
 50 51  1  0
 51 52  1  0
 52 53  2  0
 52 54  1  0
 54 55  1  0
 50 56  1  1
 54 57  1  1
 57 58  1  0
 58 59  1  0
 58 60  1  0
 55 61  1  0
 55 62  1  0
 62 63  2  0
 62 64  1  0
 64 65  1  0
 65 66  1  0
 64 67  1  1
 67 68  1  0
 67 69  1  0
 66 70  1  0
 66 71  2  0
 70 72  1  0
 13 73  1  0
 13 74  1  0
 74 75  1  0
 72 75  1  0
 75 76  2  0
 70 77  1  1
 77 78  1  0
 78 79  1  0
 78 80  1  0
 41 81  1  0
 81 82  1  0
 81 83  1  0
  1 84  1  0
 72 85  1  0
 42 86  1  0
  7 87  1  6
M  END
> <chembl_id>
CHEMBL5314379

> <chembl_pref_name>
VOCLOSPORIN
