
     RDKit          2D

 23 23  0  0  0  0  0  0  0  0999 V2000
    6.8571   -5.5446    0.0000 O   0  0  0  0  0  0  0  0  0  0  0  0
    3.7846   -6.4382    0.0000 C   0  0  0  0  0  0  0  0  0  0  0  0
    4.4952   -6.8491    0.0000 C   0  0  0  0  0  0  0  0  0  0  0  0
    5.9211   -6.8443    0.0000 N   0  0  0  0  0  0  0  0  0  0  0  0
    3.7846   -5.6117    0.0000 C   0  0  0  0  0  0  0  0  0  0  0  0
    3.0741   -6.8491    0.0000 C   0  0  0  0  0  0  0  0  0  0  0  0
    2.3540   -6.4431    0.0000 N   0  0  0  0  0  0  0  0  0  0  0  0
    5.2106   -6.4382    0.0000 C   0  0  0  0  0  0  0  0  0  0  0  0
    4.5000   -5.2057    0.0000 C   0  0  0  0  0  0  0  0  0  0  0  0
    3.0645   -5.2106    0.0000 C   0  0  0  0  0  0  0  0  0  0  0  0
    3.0645   -4.3840    0.0000 C   0  0  0  0  0  0  0  0  0  0  0  0
    4.5000   -4.3792    0.0000 C   0  0  0  0  0  0  0  0  0  0  0  0
    3.7846   -3.9635    0.0000 C   0  0  0  0  0  0  0  0  0  0  0  0
    6.1531   -7.6322    0.0000 C   0  0  0  0  0  0  0  0  0  0  0  0
    6.6026   -6.3851    0.0000 C   0  0  0  0  0  0  0  0  0  0  0  0
    1.6434   -6.8588    0.0000 C   0  0  0  0  0  0  0  0  0  0  0  0
    3.0741   -7.6853    0.0000 C   0  0  0  0  0  0  0  0  0  0  0  0
    3.7750   -3.1370    0.0000 C   0  0  0  0  0  0  0  0  0  0  0  0
    6.9748   -7.6612    0.0000 C   0  0  0  0  0  0  0  0  0  0  0  0
    7.2503   -6.8878    0.0000 C   0  0  0  0  0  0  0  0  0  0  0  0
    1.6434   -7.6853    0.0000 C   0  0  0  0  0  0  0  0  0  0  0  0
    2.3540   -8.0962    0.0000 C   0  0  0  0  0  0  0  0  0  0  0  0
    5.5731   -5.4812    0.0000 Cl  0  0  0  0  0  0  0  0  0  0  0  0
  3  2  2  0
  4  8  1  0
  5  2  1  0
  6  2  1  0
  7  6  2  0
  8  3  1  0
  9  5  2  0
 10  5  1  0
 11 10  2  0
 12  9  1  0
 13 11  1  0
 14  4  1  0
 15  4  1  0
 16  7  1  0
 17  6  1  0
 18 13  1  0
 19 14  1  0
 20 15  1  0
 21 22  1  0
 22 17  2  0
 21 16  2  0
 13 12  2  0
 20 19  1  0
M  END
> <chembl_id>
CHEMBL3188034

> <chembl_pref_name>
TRIPROLIDINE HYDROCHLORIDE
