
     RDKit          2D

 55 55  0  0  0  0  0  0  0  0999 V2000
   -0.1117   -3.6292    0.0000 S   0  0  0  0  0  0  0  0  0  0  0  0
    0.2964   -2.9053    0.0000 O   0  0  0  0  0  0  0  0  0  0  0  0
   -0.5344   -2.9053    0.0000 O   0  0  0  0  0  0  0  0  0  0  0  0
   -0.8259   -4.0422    0.0000 O   0  0  0  0  0  0  0  0  0  0  0  0
    0.6025   -4.0422    0.0000 O   0  0  0  0  0  0  0  0  0  0  0  0
    5.3782   -4.1539    0.0000 C   0  0  0  0  0  0  0  0  0  0  0  0
    3.9548   -4.1588    0.0000 N   0  0  0  0  0  0  0  0  0  0  0  0
    3.2406   -3.7507    0.0000 C   0  0  0  0  0  0  0  0  0  0  0  0
    5.3782   -4.9750    0.0000 N   0  0  0  0  0  0  0  0  0  0  0  0
    4.6640   -3.7458    0.0000 C   0  0  0  0  0  0  0  0  0  0  0  0
    3.9353   -1.6665    0.0000 C   0  0  0  0  0  0  0  0  0  0  0  0
    3.2114   -1.2680    0.0000 N   0  0  0  0  0  0  0  0  0  0  0  0
    5.3831   -6.6171    0.0000 N   0  0  0  0  0  0  0  0  0  0  0  0
    3.2406   -6.2139    0.0000 N   0  0  0  0  0  0  0  0  0  0  0  0
    3.2260   -2.9199    0.0000 C   0  0  0  0  0  0  0  0  0  0  0  0
    6.0924   -5.3831    0.0000 C   0  0  0  0  0  0  0  0  0  0  0  0
    4.6689   -6.2090    0.0000 C   0  0  0  0  0  0  0  0  0  0  0  0
    2.5361   -6.6220    0.0000 C   0  0  0  0  0  0  0  0  0  0  0  0
    3.9402   -2.4972    0.0000 N   0  0  0  0  0  0  0  0  0  0  0  0
    3.9548   -6.6220    0.0000 C   0  0  0  0  0  0  0  0  0  0  0  0
    6.0924   -6.1993    0.0000 C   0  0  0  0  0  0  0  0  0  0  0  0
    2.5264   -4.1588    0.0000 C   0  0  0  0  0  0  0  0  0  0  0  0
    1.8219   -6.2139    0.0000 C   0  0  0  0  0  0  0  0  0  0  0  0
    2.5264   -4.9847    0.0000 N   0  0  0  0  0  0  0  0  0  0  0  0
    2.5118   -2.5069    0.0000 C   0  0  0  0  0  0  0  0  0  0  0  0
    6.0924   -3.7361    0.0000 C   0  0  0  0  0  0  0  0  0  0  0  0
    2.4972   -1.6907    0.0000 C   0  0  0  0  0  0  0  0  0  0  0  0
    0.3839   -6.2139    0.0000 C   0  0  0  0  0  0  0  0  0  0  0  0
    1.0980   -6.6317    0.0000 N   0  0  0  0  0  0  0  0  0  0  0  0
    7.5208   -3.7361    0.0000 C   0  0  0  0  0  0  0  0  0  0  0  0
   -0.3303   -6.6317    0.0000 C   0  0  0  0  0  0  0  0  0  0  0  0
    6.8066   -4.1442    0.0000 N   0  0  0  0  0  0  0  0  0  0  0  0
    4.6398   -1.2438    0.0000 N   0  0  0  0  0  0  0  0  0  0  0  0
    1.8219   -5.3928    0.0000 C   0  0  0  0  0  0  0  0  0  0  0  0
    4.6544   -2.9199    0.0000 O   0  0  0  0  0  0  0  0  0  0  0  0
    2.5361   -7.4528    0.0000 O   0  0  0  0  0  0  0  0  0  0  0  0
    6.8066   -4.9604    0.0000 O   0  0  0  0  0  0  0  0  0  0  0  0
    4.6640   -5.3831    0.0000 O   0  0  0  0  0  0  0  0  0  0  0  0
    1.8122   -3.7507    0.0000 O   0  0  0  0  0  0  0  0  0  0  0  0
    7.5208   -2.9053    0.0000 O   0  0  0  0  0  0  0  0  0  0  0  0
    0.3839   -5.3928    0.0000 O   0  0  0  0  0  0  0  0  0  0  0  0
    8.2349   -4.1442    0.0000 N   0  0  0  0  0  0  0  0  0  0  0  0
    1.7831   -1.2826    0.0000 O   0  0  0  0  0  0  0  0  0  0  0  0
    3.9548   -7.4479    0.0000 C   0  0  0  0  0  0  0  0  0  0  0  0
    6.8066   -6.6074    0.0000 C   0  0  0  0  0  0  0  0  0  0  0  0
   -1.0445   -6.2236    0.0000 C   0  0  0  0  0  0  0  0  0  0  0  0
   -1.0445   -5.3977    0.0000 N   0  0  0  0  0  0  0  0  0  0  0  0
   -3.9012   -6.2285    0.0000 N   0  0  0  0  0  0  0  0  0  0  0  0
    7.5208   -6.1993    0.0000 O   0  0  0  0  0  0  0  0  0  0  0  0
    3.2406   -7.8609    0.0000 O   0  0  0  0  0  0  0  0  0  0  0  0
   -3.1871   -6.6366    0.0000 C   0  0  0  0  0  0  0  0  0  0  0  0
   -1.7587   -6.6366    0.0000 C   0  0  0  0  0  0  0  0  0  0  0  0
   -2.4729   -6.2236    0.0000 C   0  0  0  0  0  0  0  0  0  0  0  0
    2.5118   -3.3280    0.0000 H   0  0  0  0  0  0  0  0  0  0  0  0
    3.9548   -3.3280    0.0000 H   0  0  0  0  0  0  0  0  0  0  0  0
  2  1  2  0
  3  1  2  0
  4  1  1  0
  5  1  1  0
  7 10  1  0
  8  7  1  0
  9  6  1  0
 10  6  1  0
 11 19  2  0
 12 27  1  0
 13 21  1  0
 14 20  1  0
 15  8  1  0
 16  9  1  0
 17 13  1  0
 18 23  1  0
 19 15  1  0
 20 17  1  0
 21 16  1  0
 22  8  1  0
 23 34  1  0
 24 22  1  0
 25 15  1  0
 26  6  2  0
 27 25  1  0
 28 29  1  0
 23 29  1  1
 30 32  1  0
 31 28  1  0
 32 26  1  0
 33 11  1  0
 34 24  1  0
 35 10  2  0
 36 18  2  0
 37 16  2  0
 38 17  2  0
 39 22  2  0
 40 30  2  0
 41 28  2  0
 42 30  1  0
 27 43  1  6
 20 44  1  6
 21 45  1  6
 46 31  1  0
 46 47  1  6
 48 51  1  0
 49 45  1  0
 50 44  1  0
 51 53  1  0
 52 46  1  0
 53 52  1  0
 15 54  1  6
  8 55  1  1
 11 12  1  0
 14 18  1  0
M  END
> <chembl_id>
CHEMBL3989823

> <chembl_pref_name>
VIOMYCIN SULFATE
