
     RDKit          2D

 22 22  0  0  0  0  0  0  0  0999 V2000
    0.7750   -3.3750    0.0000 Na  0  0  0  0  0 15  0  0  0  0  0  0
    2.6292   -3.4292    0.0000 S   0  0  0  0  0  0  0  0  0  0  0  0
    2.0250   -3.7667    0.0000 N   0  0  0  0  0  0  0  0  0  0  0  0
    1.4042   -4.8292    0.0000 N   0  0  0  0  0  0  0  0  0  0  0  0
    2.0250   -4.4750    0.0000 C   0  0  0  0  0  0  0  0  0  0  0  0
    2.0250   -5.9000    0.0000 N   0  0  0  0  0  0  0  0  0  0  0  0
    1.4042   -5.5417    0.0000 C   0  0  0  0  0  0  0  0  0  0  0  0
    2.6292   -5.5417    0.0000 C   0  0  0  0  0  0  0  0  0  0  0  0
    2.6292   -4.8292    0.0000 C   0  0  0  0  0  0  0  0  0  0  0  0
    2.4417   -2.7375    0.0000 C   0  0  0  0  0  0  0  0  0  0  0  0
    3.3042   -3.1792    0.0000 O   0  0  0  0  0  0  0  0  0  0  0  0
    2.9292   -4.0542    0.0000 O   0  0  0  0  0  0  0  0  0  0  0  0
    1.7667   -2.5500    0.0000 C   0  0  0  0  0  0  0  0  0  0  0  0
    2.9542   -2.2375    0.0000 C   0  0  0  0  0  0  0  0  0  0  0  0
    0.7917   -5.9000    0.0000 O   0  0  0  0  0  0  0  0  0  0  0  0
    2.0917   -1.3542    0.0000 C   0  0  0  0  0  0  0  0  0  0  0  0
    3.2417   -5.9000    0.0000 O   0  0  0  0  0  0  0  0  0  0  0  0
    1.9000   -0.6792    0.0000 N   0  0  0  0  0  0  0  0  0  0  0  0
    2.7542   -1.5417    0.0000 C   0  0  0  0  0  0  0  0  0  0  0  0
    1.5875   -1.8625    0.0000 C   0  0  0  0  0  0  0  0  0  0  0  0
    0.7917   -6.6125    0.0000 C   0  0  0  0  0  0  0  0  0  0  0  0
    3.8667   -5.5417    0.0000 C   0  0  0  0  0  0  0  0  0  0  0  0
  3  2  1  0
  4  5  1  0
  5  3  1  0
  6  8  2  0
  7  4  2  0
  8  9  1  0
  9  5  2  0
 10  2  1  0
 11  2  2  0
 12  2  2  0
 13 10  1  0
 14 10  2  0
 15  7  1  0
 16 19  2  0
 17  8  1  0
 18 16  1  0
 19 14  1  0
 20 13  2  0
 21 15  1  0
 22 17  1  0
 20 16  1  0
  7  6  1  0
M  CHG  2   1   1   3  -1
M  END
> <chembl_id>
CHEMBL2107253

> <chembl_pref_name>
SULFADIMETHOXINE SODIUM
