
     RDKit          2D

 27 29  0  0  0  0  0  0  0  0999 V2000
    9.1375   -3.5417    0.0000 Cl  0  0  0  0  0  0  0  0  0  0  0  0
    2.2167   -3.4292    0.0000 N   0  0  0  0  0  0  0  0  0  0  0  0
    2.8875   -3.6417    0.0000 C   0  0  0  0  0  0  0  0  0  0  0  0
    2.2167   -2.7167    0.0000 C   0  0  0  0  0  0  0  0  0  0  0  0
    2.8875   -2.5042    0.0000 N   0  0  0  0  0  0  0  0  0  0  0  0
    3.2792   -3.0625    0.0000 N   0  0  0  0  0  0  0  0  0  0  0  0
    6.1500   -5.4792    0.0000 N   0  0  0  0  0  0  0  0  0  0  0  0
    6.5000   -6.0917    0.0000 C   0  0  0  0  0  0  0  0  0  0  0  0
    1.6042   -3.7792    0.0000 C   0  0  0  0  0  0  0  0  0  0  0  0
    5.4167   -4.2542    0.0000 N   0  0  0  0  0  0  0  0  0  0  0  0
    3.1125   -4.3042    0.0000 O   0  0  0  0  0  0  0  0  0  0  0  0
    7.2167   -6.0875    0.0000 C   0  0  0  0  0  0  0  0  0  0  0  0
    1.6042   -2.3625    0.0000 C   0  0  0  0  0  0  0  0  0  0  0  0
    5.4125   -5.4917    0.0000 C   0  0  0  0  0  0  0  0  0  0  0  0
    6.4917   -4.8625    0.0000 C   0  0  0  0  0  0  0  0  0  0  0  0
    0.9792   -3.4417    0.0000 C   0  0  0  0  0  0  0  0  0  0  0  0
    0.9792   -2.7042    0.0000 C   0  0  0  0  0  0  0  0  0  0  0  0
    4.0000   -3.0542    0.0000 C   0  0  0  0  0  0  0  0  0  0  0  0
    5.0667   -4.8667    0.0000 C   0  0  0  0  0  0  0  0  0  0  0  0
    6.1375   -4.2542    0.0000 C   0  0  0  0  0  0  0  0  0  0  0  0
    7.5667   -6.7000    0.0000 C   0  0  0  0  0  0  0  0  0  0  0  0
    4.3542   -3.6625    0.0000 C   0  0  0  0  0  0  0  0  0  0  0  0
    5.0667   -3.6500    0.0000 C   0  0  0  0  0  0  0  0  0  0  0  0
    8.2792   -6.6792    0.0000 Cl  0  0  0  0  0  0  0  0  0  0  0  0
    6.1500   -6.7042    0.0000 C   0  0  0  0  0  0  0  0  0  0  0  0
    6.4917   -7.3250    0.0000 C   0  0  0  0  0  0  0  0  0  0  0  0
    7.2250   -7.3167    0.0000 C   0  0  0  0  0  0  0  0  0  0  0  0
  3  2  1  0
  4  2  1  0
  5  4  2  0
  6  3  1  0
  7 15  1  0
  8  7  1  0
  9  2  1  0
 10 23  1  0
 11  3  2  0
 12  8  1  0
 13  4  1  0
 14 19  1  0
 15 20  1  0
 16  9  2  0
 17 16  1  0
 18  6  1  0
 19 10  1  0
 20 10  1  0
 21 12  2  0
 22 18  1  0
 23 22  1  0
 24 21  1  0
 25  8  2  0
 26 25  1  0
 27 26  2  0
  6  5  1  0
 17 13  2  0
  7 14  1  0
 27 21  1  0
M  END
> <chembl_id>
CHEMBL1200798

> <chembl_pref_name>
TRAZODONE HYDROCHLORIDE
