
     RDKit          2D

 72 70  0  0  0  0  0  0  0  0999 V2000
   11.5496    3.5519    0.0000 Cl  0  0  0  0  0  0  0  0  0  0  0  0
   -6.7724    1.9114    0.0000 C   0  0  0  0  0  0  0  0  0  0  0  0
    8.2315   -0.1511    0.0000 C   0  0  0  0  0  0  0  0  0  0  0  0
    3.2302    1.0864    0.0000 C   0  0  0  0  0  0  0  0  0  0  0  0
   -0.3421   -1.8011    0.0000 C   0  0  0  0  0  0  0  0  0  0  0  0
   -1.0566    1.0864    0.0000 C   0  0  0  0  0  0  0  0  0  0  0  0
    7.5170   -0.5636    0.0000 C   0  0  0  0  0  0  0  0  0  0  0  0
    4.6592   -1.3886    0.0000 C   0  0  0  0  0  0  0  0  0  0  0  0
    2.5157    0.6739    0.0000 C   0  0  0  0  0  0  0  0  0  0  0  0
    0.3723   -1.3886    0.0000 C   0  0  0  0  0  0  0  0  0  0  0  0
   -1.7711    0.6739    0.0000 C   0  0  0  0  0  0  0  0  0  0  0  0
    8.9460   -0.5636    0.0000 C   0  0  0  0  0  0  0  0  0  0  0  0
    3.2302    1.9114    0.0000 C   0  0  0  0  0  0  0  0  0  0  0  0
   -0.3421   -2.6261    0.0000 C   0  0  0  0  0  0  0  0  0  0  0  0
   -1.0566    1.9114    0.0000 C   0  0  0  0  0  0  0  0  0  0  0  0
   -8.9158   -0.1511    0.0000 C   0  0  0  0  0  0  0  0  0  0  0  0
   -6.7724   -0.5636    0.0000 C   0  0  0  0  0  0  0  0  0  0  0  0
   -6.7724    1.0864    0.0000 C   0  0  0  0  0  0  0  0  0  0  0  0
   -9.6303   -0.5636    0.0000 C   0  0  0  0  0  0  0  0  0  0  0  0
    6.8026   -0.1511    0.0000 C   0  0  0  0  0  0  0  0  0  0  0  0
    4.6592   -0.5636    0.0000 C   0  0  0  0  0  0  0  0  0  0  0  0
    2.5157   -0.1511    0.0000 C   0  0  0  0  0  0  0  0  0  0  0  0
    0.3723   -0.5636    0.0000 C   0  0  0  0  0  0  0  0  0  0  0  0
   -1.7711   -0.1511    0.0000 C   0  0  0  0  0  0  0  0  0  0  0  0
   -6.0579   -0.1511    0.0000 C   0  0  0  0  0  0  0  0  0  0  0  0
    6.8026    0.6739    0.0000 C   0  0  0  0  0  0  0  0  0  0  0  0
    5.3736   -0.1511    0.0000 C   0  0  0  0  0  0  0  0  0  0  0  0
    3.2302   -0.5636    0.0000 C   0  0  0  0  0  0  0  0  0  0  0  0
    1.0868   -0.1511    0.0000 C   0  0  0  0  0  0  0  0  0  0  0  0
   -1.0566   -0.5636    0.0000 C   0  0  0  0  0  0  0  0  0  0  0  0
   -5.3434   -0.5636    0.0000 C   0  0  0  0  0  0  0  0  0  0  0  0
  -10.3447   -0.1511    0.0000 C   0  0  0  0  0  0  0  0  0  0  0  0
   10.3749   -0.5636    0.0000 C   0  0  0  0  0  0  0  0  0  0  0  0
    3.9447    3.1489    0.0000 C   0  0  0  0  0  0  0  0  0  0  0  0
   -1.0566   -3.8636    0.0000 C   0  0  0  0  0  0  0  0  0  0  0  0
   -0.3421    3.1489    0.0000 C   0  0  0  0  0  0  0  0  0  0  0  0
   -9.6303   -1.3886    0.0000 N   0  0  0  0  0  0  0  0  0  0  0  0
    6.0881    1.0864    0.0000 N   0  0  0  0  0  0  0  0  0  0  0  0
   11.0894   -0.1511    0.0000 N   0  0  0  0  0  0  0  0  0  0  0  0
   10.3749   -1.3886    0.0000 N   0  0  0  0  0  0  0  0  0  0  0  0
    3.2302    3.5614    0.0000 N   0  0  0  0  0  0  0  0  0  0  0  0
    4.6592    3.5614    0.0000 N   0  0  0  0  0  0  0  0  0  0  0  0
   -0.3421   -4.2761    0.0000 N   0  0  0  0  0  0  0  0  0  0  0  0
   -1.7711   -4.2761    0.0000 N   0  0  0  0  0  0  0  0  0  0  0  0
   -1.0566    3.5614    0.0000 N   0  0  0  0  0  0  0  0  0  0  0  0
    0.3723    3.5614    0.0000 N   0  0  0  0  0  0  0  0  0  0  0  0
    9.6605   -0.1511    0.0000 N   0  0  0  0  0  0  0  0  0  0  0  0
    3.9447    2.3239    0.0000 N   0  0  0  0  0  0  0  0  0  0  0  0
   -1.0566   -3.0386    0.0000 N   0  0  0  0  0  0  0  0  0  0  0  0
   -0.3421    2.3239    0.0000 N   0  0  0  0  0  0  0  0  0  0  0  0
   -6.0579    0.6739    0.0000 N   0  0  0  0  0  0  0  0  0  0  0  0
    6.0881   -0.5636    0.0000 N   0  0  0  0  0  0  0  0  0  0  0  0
    3.9447   -0.1511    0.0000 N   0  0  0  0  0  0  0  0  0  0  0  0
    1.8013   -0.5636    0.0000 N   0  0  0  0  0  0  0  0  0  0  0  0
   -0.3421   -0.1511    0.0000 N   0  0  0  0  0  0  0  0  0  0  0  0
   -4.6290   -0.1511    0.0000 N   0  0  0  0  0  0  0  0  0  0  0  0
   -7.4869    0.6739    0.0000 O   0  0  0  0  0  0  0  0  0  0  0  0
    7.5170    1.0864    0.0000 O   0  0  0  0  0  0  0  0  0  0  0  0
    5.3736    0.6739    0.0000 O   0  0  0  0  0  0  0  0  0  0  0  0
    3.2302   -1.3886    0.0000 O   0  0  0  0  0  0  0  0  0  0  0  0
    1.0868    0.6739    0.0000 O   0  0  0  0  0  0  0  0  0  0  0  0
   -1.0566   -1.3886    0.0000 O   0  0  0  0  0  0  0  0  0  0  0  0
   -5.3434   -1.3886    0.0000 O   0  0  0  0  0  0  0  0  0  0  0  0
  -11.0592   -0.5636    0.0000 O   0  0  0  0  0  0  0  0  0  0  0  0
  -10.3447    0.6739    0.0000 O   0  0  0  0  0  0  0  0  0  0  0  0
   -8.2013   -0.5636    0.0000 S   0  0  0  0  0  0  0  0  0  0  0  0
   -7.4869   -0.1511    0.0000 S   0  0  0  0  0  0  0  0  0  0  0  0
   -3.9145   -0.5636    0.0000 C   0  0  0  0  0  0  0  0  0  0  0  0
   -3.2000   -0.1511    0.0000 C   0  0  0  0  0  0  0  0  0  0  0  0
   -3.9145   -1.3886    0.0000 C   0  0  0  0  0  0  0  0  0  0  0  0
   -2.4856   -0.5636    0.0000 N   0  0  0  0  0  0  0  0  0  0  0  0
   -3.2000    0.6739    0.0000 O   0  0  0  0  0  0  0  0  0  0  0  0
  7  3  1  0
  9  4  1  0
 10  5  1  0
 11  6  1  0
 12  3  1  0
 13  4  1  0
 14  5  1  0
 15  6  1  0
 18  2  1  0
 19 16  1  0
 20  7  1  0
 21  8  1  0
 22  9  1  0
 23 10  1  0
 24 11  1  6
 25 17  1  0
 20 26  1  0
 21 27  1  0
 22 28  1  0
 23 29  1  0
 24 30  1  0
 25 31  1  0
 19 32  1  0
 19 37  1  6
 38 26  1  0
 39 33  2  0
 40 33  1  0
 41 34  2  0
 42 34  1  0
 43 35  2  0
 44 35  1  0
 45 36  2  0
 46 36  1  0
 47 12  1  0
 47 33  1  0
 48 13  1  0
 48 34  1  0
 49 14  1  0
 49 35  1  0
 50 15  1  0
 50 36  1  0
 51 18  1  0
 25 51  1  1
 20 52  1  1
 52 27  1  0
 21 53  1  1
 53 28  1  0
 22 54  1  6
 54 29  1  0
 23 55  1  1
 55 30  1  0
 56 31  1  0
 57 18  2  0
 58 26  2  0
 27 59  2  0
 28 60  2  0
 29 61  2  0
 30 62  2  0
 31 63  2  0
 64 32  2  0
 65 32  1  0
 66 16  1  0
 67 17  1  0
 67 66  1  0
 56 68  1  0
 68 69  1  0
 68 70  1  1
 69 71  1  0
 69 72  2  0
 71 24  1  0
M  END
> <chembl_id>
CHEMBL3545183

> <chembl_pref_name>
ETELCALCETIDE HYDROCHLORIDE
