
     RDKit          2D

 13 13  0  0  1  0  0  0  0  0999 V2000
    3.8917   -5.1417    0.0000 C   0  0  0  0  0  0  0  0  0  0  0  0
    3.2792   -4.7875    0.0000 C   0  0  0  0  0  0  0  0  0  0  0  0
    4.5042   -4.7875    0.0000 C   0  0  0  0  0  0  0  0  0  0  0  0
    3.2667   -4.0708    0.0000 C   0  0  0  0  0  0  0  0  0  0  0  0
    4.5042   -4.0708    0.0000 C   0  0  0  0  0  0  0  0  0  0  0  0
    3.8875   -3.7167    0.0000 C   0  0  0  0  0  0  0  0  0  0  0  0
    5.1125   -5.1292    0.0000 C   0  0  0  0  0  0  0  0  0  0  0  0
    2.6542   -5.1417    0.0000 O   0  0  0  0  0  0  0  0  0  0  0  0
    6.3500   -5.1375    0.0000 N   0  0  0  0  0  0  0  0  0  0  0  0
    2.6500   -3.7292    0.0000 O   0  0  0  0  0  0  0  0  0  0  0  0
    5.1167   -5.8417    0.0000 O   0  0  0  0  0  0  0  0  0  0  0  0
    5.7292   -4.7792    0.0000 C   0  0  0  0  0  0  0  0  0  0  0  0
    6.9667   -4.7792    0.0000 C   0  0  0  0  0  0  0  0  0  0  0  0
  2  1  1  0
  3  1  2  0
  4  2  2  0
  5  3  1  0
  6  5  2  0
  7  3  1  0
  8  2  1  0
  9 12  1  0
 10  4  1  0
  7 11  1  6
 12  7  1  0
 13  9  1  0
  6  4  1  0
M  END
> <chembl_id>
CHEMBL679

> <chembl_pref_name>
EPINEPHRINE
