
     RDKit          2D

 47 50  0  0  0  0  0  0  0  0999 V2000
   -2.7083    1.8333    0.0000 S   0  0  0  0  0  0  0  0  0  0  0  0
   -3.2833    1.8333    0.0000 O   0  0  0  0  0  0  0  0  0  0  0  0
   -2.7083    2.4625    0.0000 O   0  0  0  0  0  0  0  0  0  0  0  0
   -2.1625    1.8375    0.0000 O   0  0  0  0  0  0  0  0  0  0  0  0
   -2.7083    1.2625    0.0000 O   0  0  0  0  0  0  0  0  0  0  0  0
   -1.6458   -1.2500    0.0000 C   0  0  0  0  0  0  0  0  0  0  0  0
   -1.6458   -0.2917    0.0000 N   0  0  0  0  0  0  0  0  0  0  0  0
   -1.3000   -0.7667    0.0000 C   0  0  0  0  0  0  0  0  0  0  0  0
   -2.2000   -1.0667    0.0000 C   0  0  0  0  0  0  0  0  0  0  0  0
   -2.2000   -0.4750    0.0000 C   0  0  0  0  0  0  0  0  0  0  0  0
   -0.7458   -0.9375    0.0000 N   0  0  0  0  0  0  0  0  0  0  0  0
   -1.2708   -1.7125    0.0000 C   0  0  0  0  0  0  0  0  0  0  0  0
   -3.7708   -1.9042    0.0000 C   0  0  0  0  0  0  0  0  0  0  0  0
   -2.7208   -0.1792    0.0000 C   0  0  0  0  0  0  0  0  0  0  0  0
   -2.7208   -1.3625    0.0000 C   0  0  0  0  0  0  0  0  0  0  0  0
   -0.7250   -1.5042    0.0000 C   0  0  0  0  0  0  0  0  0  0  0  0
   -3.7583   -1.3292    0.0000 O   0  0  0  0  0  0  0  0  0  0  0  0
   -3.2375   -1.0542    0.0000 C   0  0  0  0  0  0  0  0  0  0  0  0
   -3.2833   -2.2000    0.0000 O   0  0  0  0  0  0  0  0  0  0  0  0
   -4.2708   -2.1542    0.0000 N   0  0  0  0  0  0  0  0  0  0  0  0
   -1.4583    0.2458    0.0000 C   0  0  0  0  0  0  0  0  0  0  0  0
   -1.9708   -1.7167    0.0000 C   0  0  0  0  0  0  0  0  0  0  0  0
   -3.2375   -0.4792    0.0000 C   0  0  0  0  0  0  0  0  0  0  0  0
   -0.2833   -0.6042    0.0000 C   0  0  0  0  0  0  0  0  0  0  0  0
   -4.3083   -2.7375    0.0000 C   0  0  0  0  0  0  0  0  0  0  0  0
   -1.0125   -0.2542    0.0000 H   0  0  0  0  0  0  0  0  0  0  0  0
    2.9792    1.2458    0.0000 C   0  0  0  0  0  0  0  0  0  0  0  0
    2.9792    2.2083    0.0000 N   0  0  0  0  0  0  0  0  0  0  0  0
    3.3167    1.7208    0.0000 C   0  0  0  0  0  0  0  0  0  0  0  0
    2.4167    1.4208    0.0000 C   0  0  0  0  0  0  0  0  0  0  0  0
    2.4167    2.0208    0.0000 C   0  0  0  0  0  0  0  0  0  0  0  0
    3.8750    1.5583    0.0000 N   0  0  0  0  0  0  0  0  0  0  0  0
    3.3417    0.7833    0.0000 C   0  0  0  0  0  0  0  0  0  0  0  0
    0.8500    0.5833    0.0000 C   0  0  0  0  0  0  0  0  0  0  0  0
    1.9042    2.3125    0.0000 C   0  0  0  0  0  0  0  0  0  0  0  0
    1.9042    1.1250    0.0000 C   0  0  0  0  0  0  0  0  0  0  0  0
    3.8917    0.9833    0.0000 C   0  0  0  0  0  0  0  0  0  0  0  0
    0.8667    1.1625    0.0000 O   0  0  0  0  0  0  0  0  0  0  0  0
    1.3792    1.4333    0.0000 C   0  0  0  0  0  0  0  0  0  0  0  0
    1.3375    0.2875    0.0000 O   0  0  0  0  0  0  0  0  0  0  0  0
    0.3417    0.3333    0.0000 N   0  0  0  0  0  0  0  0  0  0  0  0
    3.1667    2.7458    0.0000 C   0  0  0  0  0  0  0  0  0  0  0  0
    2.6417    0.7708    0.0000 C   0  0  0  0  0  0  0  0  0  0  0  0
    1.3792    2.0208    0.0000 C   0  0  0  0  0  0  0  0  0  0  0  0
    4.3417    1.8833    0.0000 C   0  0  0  0  0  0  0  0  0  0  0  0
    0.3167   -0.2417    0.0000 C   0  0  0  0  0  0  0  0  0  0  0  0
    3.6042    2.2333    0.0000 H   0  0  0  0  0  0  0  0  0  0  0  0
  2  1  2  0
  3  1  2  0
  4  1  1  0
  5  1  1  0
  7  8  1  0
  8  6  1  0
  9  6  1  0
 10  9  2  0
 11  8  1  0
 12  6  1  0
 13 17  1  0
 14 10  1  0
 15  9  1  0
 16 12  1  0
 17 18  1  0
 18 15  2  0
 19 13  2  0
 20 13  1  0
 21  7  1  0
  6 22  1  6
 23 18  1  0
 24 11  1  0
 25 20  1  0
  8 26  1  6
 11 16  1  0
 10  7  1  0
 14 23  2  0
 28 29  1  0
 29 27  1  0
 30 27  1  0
 31 30  2  0
 32 29  1  0
 33 27  1  0
 34 38  1  0
 35 31  1  0
 36 30  1  0
 37 33  1  0
 38 39  1  0
 39 36  2  0
 40 34  2  0
 41 34  1  0
 42 28  1  0
 27 43  1  6
 44 39  1  0
 45 32  1  0
 46 41  1  0
 29 47  1  6
 32 37  1  0
 31 28  1  0
 35 44  2  0
M  END
> <chembl_id>
CHEMBL2105891

> <chembl_pref_name>
PHYSOSTIGMINE SULFATE
