
     RDKit          2D

 28 30  0  0  0  0  0  0  0  0999 V2000
    6.4542   -4.4375    0.0000 S   0  0  0  0  0  0  0  0  0  0  0  0
    7.0667   -4.0833    0.0000 N   0  0  0  0  0  0  0  0  0  0  0  0
    1.5542   -3.0333    0.0000 C   0  0  0  0  0  0  0  0  0  0  0  0
    0.9417   -3.3875    0.0000 C   0  0  0  0  0  0  0  0  0  0  0  0
    5.8375   -4.0833    0.0000 C   0  0  0  0  0  0  0  0  0  0  0  0
    3.3875   -3.3792    0.0000 N   0  0  0  0  0  0  0  0  0  0  0  0
    4.0000   -3.0250    0.0000 N   0  0  0  0  0  0  0  0  0  0  0  0
    7.6792   -4.4375    0.0000 C   0  0  0  0  0  0  0  0  0  0  0  0
    6.8042   -5.0500    0.0000 O   0  0  0  0  0  0  0  0  0  0  0  0
    6.0917   -5.0500    0.0000 O   0  0  0  0  0  0  0  0  0  0  0  0
    1.5500   -2.3208    0.0000 C   0  0  0  0  0  0  0  0  0  0  0  0
    2.1667   -3.3833    0.0000 C   0  0  0  0  0  0  0  0  0  0  0  0
    8.2917   -4.0833    0.0000 N   0  0  0  0  0  0  0  0  0  0  0  0
    0.9458   -4.0958    0.0000 O   0  0  0  0  0  0  0  0  0  0  0  0
    2.7750   -3.0292    0.0000 C   0  0  0  0  0  0  0  0  0  0  0  0
    5.8417   -3.3792    0.0000 C   0  0  0  0  0  0  0  0  0  0  0  0
    5.2292   -4.4417    0.0000 C   0  0  0  0  0  0  0  0  0  0  0  0
    2.1625   -1.9667    0.0000 C   0  0  0  0  0  0  0  0  0  0  0  0
    4.6167   -3.3792    0.0000 C   0  0  0  0  0  0  0  0  0  0  0  0
    0.3250   -3.0375    0.0000 O   0  0  0  0  0  0  0  0  0  0  0  0
    2.7750   -2.3167    0.0000 C   0  0  0  0  0  0  0  0  0  0  0  0
    5.2292   -3.0250    0.0000 C   0  0  0  0  0  0  0  0  0  0  0  0
    4.6167   -4.0917    0.0000 C   0  0  0  0  0  0  0  0  0  0  0  0
    0.9375   -1.9667    0.0000 O   0  0  0  0  0  0  0  0  0  0  0  0
    8.9042   -4.4375    0.0000 C   0  0  0  0  0  0  0  0  0  0  0  0
    7.6792   -5.1500    0.0000 C   0  0  0  0  0  0  0  0  0  0  0  0
    8.9042   -5.1500    0.0000 C   0  0  0  0  0  0  0  0  0  0  0  0
    8.2917   -5.5042    0.0000 C   0  0  0  0  0  0  0  0  0  0  0  0
  2  1  1  0
  3 12  2  0
  4  3  1  0
  5  1  1  0
  6  7  2  0
  7 19  1  0
  8  2  1  0
  9  1  2  0
 10  1  2  0
 11  3  1  0
 12 15  1  0
 13  8  1  0
 14  4  2  0
 15  6  1  0
 16  5  2  0
 17  5  1  0
 18 21  1  0
 19 22  2  0
 20  4  1  0
 21 15  2  0
 22 16  1  0
 23 17  2  0
 24 11  1  0
 25 13  2  0
 26  8  2  0
 27 28  2  0
 28 26  1  0
 23 19  1  0
 25 27  1  0
 11 18  2  0
M  END
> <chembl_id>
CHEMBL421

> <chembl_pref_name>
SULFASALAZINE
