
     RDKit          2D

 13  4  0  0  0  0  0  0  0  0999 V2000
   -0.2411   -4.3393    0.0000 O   0  0  0  0  0  0  0  0  0  0  0  0
   -1.6809   -0.3537    0.0000 S   0  0  0  0  0  0  0  0  0  0  0  0
   -2.3930   -0.7702    0.0000 O   0  0  0  0  0  0  0  0  0  0  0  0
   -0.9688   -0.7702    0.0000 O   0  0  0  0  0  0  0  0  0  0  0  0
   -1.2740    0.3633    0.0000 O   0  0  0  0  0  0  0  0  0  0  0  0
   -2.1024    0.3633    0.0000 O   0  0  0  0  0  0  0  0  0  0  0  0
   -1.9280   -1.5599    0.0000 Mg  0  0  0  0  0 15  0  0  0  0  0  0
   -1.6373   -2.5336    0.0000 O   0  0  0  0  0  0  0  0  0  0  0  0
   -0.4286   -2.6786    0.0000 O   0  0  0  0  0  0  0  0  0  0  0  0
    0.5625   -2.5982    0.0000 O   0  0  0  0  0  0  0  0  0  0  0  0
   -1.5000   -3.5625    0.0000 O   0  0  0  0  0  0  0  0  0  0  0  0
   -0.4554   -3.6964    0.0000 O   0  0  0  0  0  0  0  0  0  0  0  0
    0.9375   -3.5893    0.0000 O   0  0  0  0  0  0  0  0  0  0  0  0
  3  2  1  0
  4  2  1  0
  5  2  2  0
  6  2  2  0
M  CHG  3   3  -1   4  -1   7   2
M  END
> <chembl_id>
CHEMBL3989857

> <chembl_pref_name>
MAGNESIUM SULFATE
