
     RDKit          2D

 10 10  0  0  0  0  0  0  0  0999 V2000
    1.2125    0.1333    0.0000 C   0  0  0  0  0  0  0  0  0  0  0  0
    0.0542   -0.7167    0.0000 O   0  0  0  0  0  0  0  0  0  0  0  0
    0.7542    1.4833    0.0000 O   0  0  0  0  0  0  0  0  0  0  0  0
   -1.1125    0.1208    0.0000 C   0  0  0  0  0  0  0  0  0  0  0  0
    2.5792   -0.3042    0.0000 C   0  0  0  0  0  0  0  0  0  0  0  0
   -0.6833    1.4833    0.0000 C   0  0  0  0  0  0  0  0  0  0  0  0
    3.6500    0.6458    0.0000 I   0  0  0  0  0  0  0  0  0  0  0  0
   -3.5333    0.6125    0.0000 O   0  0  0  0  0  0  0  0  0  0  0  0
   -2.4708   -0.3250    0.0000 C   0  0  0  0  0  0  0  0  0  0  0  0
    2.9000   -1.7000    0.0000 C   0  0  0  0  0  0  0  0  0  0  0  0
  2  1  1  0
  3  1  1  0
  4  2  1  0
  5  1  1  0
  6  3  1  0
  7  5  1  0
  8  9  1  0
  9  4  1  0
 10  5  1  0
  4  6  1  0
M  END
> <chembl_id>
CHEMBL2105827

> <chembl_pref_name>
GLYCEROL, IODINATED
