
     RDKit          2D

 22 24  0  0  0  0  0  0  0  0999 V2000
    1.7250   -3.8417    0.0000 C   0  0  0  0  0  0  0  0  0  0  0  0
    2.1125   -4.4375    0.0000 C   0  0  0  0  0  0  0  0  0  0  0  0
    1.0542   -4.0500    0.0000 C   0  0  0  0  0  0  0  0  0  0  0  0
    1.0542   -4.7875    0.0000 C   0  0  0  0  0  0  0  0  0  0  0  0
    1.7250   -4.9875    0.0000 C   0  0  0  0  0  0  0  0  0  0  0  0
    1.9500   -3.1750    0.0000 C   0  0  0  0  0  0  0  0  0  0  0  0
    2.8292   -4.4375    0.0000 C   0  0  0  0  0  0  0  0  0  0  0  0
    1.4792   -2.6417    0.0000 C   0  0  0  0  0  0  0  0  0  0  0  0
    0.7875   -2.7875    0.0000 N   0  0  0  0  0  0  0  0  0  0  0  0
    3.9125   -5.0500    0.0000 N   0  0  0  0  0  0  0  0  0  0  0  0
    3.1917   -5.0500    0.0000 C   0  0  0  0  0  0  0  0  0  0  0  0
    0.4417   -3.7042    0.0000 C   0  0  0  0  0  0  0  0  0  0  0  0
    0.4417   -5.1292    0.0000 C   0  0  0  0  0  0  0  0  0  0  0  0
    2.6417   -3.0292    0.0000 C   0  0  0  0  0  0  0  0  0  0  0  0
    0.3167   -2.2542    0.0000 C   0  0  0  0  0  0  0  0  0  0  0  0
    1.7042   -1.9667    0.0000 C   0  0  0  0  0  0  0  0  0  0  0  0
    4.2542   -5.6625    0.0000 C   0  0  0  0  0  0  0  0  0  0  0  0
    4.2792   -4.4375    0.0000 C   0  0  0  0  0  0  0  0  0  0  0  0
   -0.1958   -4.0500    0.0000 C   0  0  0  0  0  0  0  0  0  0  0  0
   -0.1958   -4.7875    0.0000 C   0  0  0  0  0  0  0  0  0  0  0  0
    0.5417   -1.5792    0.0000 C   0  0  0  0  0  0  0  0  0  0  0  0
    1.2375   -1.4375    0.0000 C   0  0  0  0  0  0  0  0  0  0  0  0
  2  1  2  0
  3  1  1  0
  4  3  2  0
  5  2  1  0
  6  1  1  0
  7  2  1  0
  8  6  1  0
  9  8  2  0
 10 11  1  0
 11  7  1  0
 12  3  1  0
 13  4  1  0
 14  6  1  0
 15  9  1  0
 16  8  1  0
 17 10  1  0
 18 10  1  0
 19 12  2  0
 20 13  2  0
 21 22  1  0
 22 16  2  0
  4  5  1  0
 20 19  1  0
 21 15  2  0
M  END
> <chembl_id>
CHEMBL22108

> <chembl_pref_name>
DIMETHINDENE
