
     RDKit          2D

 23 23  0  0  0  0  0  0  0  0999 V2000
    4.0292   -6.3625    0.0000 Cl  0  0  0  0  0  0  0  0  0  0  0  0
    1.7417   -4.8792    0.0000 C   0  0  0  0  0  0  0  0  0  0  0  0
    1.7417   -5.5917    0.0000 C   0  0  0  0  0  0  0  0  0  0  0  0
    2.3542   -4.5250    0.0000 C   0  0  0  0  0  0  0  0  0  0  0  0
    2.3542   -5.9500    0.0000 C   0  0  0  0  0  0  0  0  0  0  0  0
    2.9750   -4.8792    0.0000 C   0  0  0  0  0  0  0  0  0  0  0  0
    4.8042   -4.5417    0.0000 N   0  0  0  0  0  0  0  0  0  0  0  0
    8.4500   -3.7042    0.0000 C   0  0  0  0  0  0  0  0  0  0  0  0
    7.1917   -4.4667    0.0000 C   0  0  0  0  0  0  0  0  0  0  0  0
    1.1292   -4.5417    0.0000 O   0  0  0  0  0  0  0  0  0  0  0  0
    2.9750   -5.5917    0.0000 C   0  0  0  0  0  0  0  0  0  0  0  0
    1.1292   -5.9292    0.0000 O   0  0  0  0  0  0  0  0  0  0  0  0
    6.6000   -4.8375    0.0000 C   0  0  0  0  0  0  0  0  0  0  0  0
    8.4500   -4.4792    0.0000 C   0  0  0  0  0  0  0  0  0  0  0  0
    7.8292   -3.3792    0.0000 C   0  0  0  0  0  0  0  0  0  0  0  0
    7.8750   -4.8292    0.0000 C   0  0  0  0  0  0  0  0  0  0  0  0
    7.2042   -3.7542    0.0000 C   0  0  0  0  0  0  0  0  0  0  0  0
    4.2000   -4.8917    0.0000 C   0  0  0  0  0  0  0  0  0  0  0  0
    5.9917   -4.5042    0.0000 C   0  0  0  0  0  0  0  0  0  0  0  0
    9.0167   -3.2917    0.0000 O   0  0  0  0  0  0  0  0  0  0  0  0
    5.4042   -4.8792    0.0000 C   0  0  0  0  0  0  0  0  0  0  0  0
    3.5792   -4.5417    0.0000 C   0  0  0  0  0  0  0  0  0  0  0  0
    5.4042   -5.5917    0.0000 C   0  0  0  0  0  0  0  0  0  0  0  0
  3  2  1  0
  4  2  2  0
  5  3  2  0
  6  4  1  0
  7 18  1  0
  8 14  1  0
  9 13  1  0
 10  2  1  0
 11  6  2  0
 12  3  1  0
 13 19  1  0
 14 16  2  0
 15 17  1  0
 16  9  1  0
 17  9  2  0
 18 22  1  0
 19 21  1  0
 20  8  1  0
 21  7  1  0
 22  6  1  0
 23 21  1  0
 11  5  1  0
  8 15  2  0
M  END
> <chembl_id>
CHEMBL1200418

> <chembl_pref_name>
DOBUTAMINE HYDROCHLORIDE
