
     RDKit          2D

 26 28  0  0  1  0  0  0  0  0999 V2000
    2.0667   -0.4667    0.0000 N   0  0  0  0  0  0  0  0  0  0  0  0
    1.2042   -0.4667    0.0000 C   0  0  0  0  0  0  0  0  0  0  0  0
    1.2042    0.4125    0.0000 C   0  0  0  0  0  0  0  0  0  0  0  0
    2.0667    0.4125    0.0000 C   0  0  0  0  0  0  0  0  0  0  0  0
    2.8292   -0.9000    0.0000 C   0  0  0  0  0  0  0  0  0  0  0  0
    0.5917    1.0333    0.0000 N   0  0  0  0  0  0  0  0  0  0  0  0
    2.8292    0.8458    0.0000 S   0  0  0  0  0  0  0  0  0  0  0  0
   -0.2333    0.8208    0.0000 C   0  0  0  0  0  0  0  0  0  0  0  0
    3.5875   -0.4667    0.0000 C   0  0  0  0  0  0  0  0  0  0  0  0
    2.8292   -1.7792    0.0000 C   0  0  0  0  0  0  0  0  0  0  0  0
   -0.8458    1.4375    0.0000 C   0  0  0  0  0  0  0  0  0  0  0  0
    3.5875    0.4125    0.0000 C   0  0  0  0  0  0  0  0  0  0  0  0
    0.5917   -1.0875    0.0000 O   0  0  0  0  0  0  0  0  0  0  0  0
   -0.4625   -0.0292    0.0000 O   0  0  0  0  0  0  0  0  0  0  0  0
   -1.7000    1.2125    0.0000 C   0  0  0  0  0  0  0  0  0  0  0  0
    3.5875   -2.2167    0.0000 O   0  0  0  0  0  0  0  0  0  0  0  0
   -2.3000    1.8500    0.0000 C   0  0  0  0  0  0  0  0  0  0  0  0
   -1.9208    0.3750    0.0000 C   0  0  0  0  0  0  0  0  0  0  0  0
   -0.6083    2.2833    0.0000 N   0  0  0  0  0  0  0  0  0  0  0  0
    2.0667   -2.2167    0.0000 O   0  0  0  0  0  0  0  0  0  0  0  0
   -3.3958    0.7708    0.0000 C   0  0  0  0  0  0  0  0  0  0  0  0
   -2.7750    0.1500    0.0000 C   0  0  0  0  0  0  0  0  0  0  0  0
   -3.1625    1.6208    0.0000 C   0  0  0  0  0  0  0  0  0  0  0  0
    4.3417   -0.9000    0.0000 C   0  0  0  0  0  0  0  0  0  0  0  0
   -4.2375    0.5458    0.0000 O   0  0  0  0  0  0  0  0  0  0  0  0
    1.7917    1.2458    0.0000 H   0  0  0  0  0  0  0  0  0  0  0  0
  2  1  1  0
  3  4  1  0
  4  1  1  0
  5  1  1  0
  3  6  1  1
  7  4  1  0
  8  6  1  0
  9  5  2  0
 10  5  1  0
 11  8  1  0
 12  9  1  0
 13  2  2  0
 14  8  2  0
 15 11  1  0
 16 10  2  0
 17 15  2  0
 18 15  1  0
 11 19  1  1
 20 10  1  0
 21 22  1  0
 22 18  2  0
 23 17  1  0
 24  9  1  0
 25 21  1  0
  4 26  1  6
  2  3  1  0
  7 12  1  0
 23 21  2  0
M  END
> <chembl_id>
CHEMBL1644

> <chembl_pref_name>
CEFADROXIL
