
     RDKit          2D

 36 40  0  0  0  0  0  0  0  0999 V2000
   -0.1875   -0.5500    0.0000 C   0  0  0  0  0  0  0  0  0  0  0  0
    0.0875    0.3000    0.0000 C   0  0  0  0  0  0  0  0  0  0  0  0
   -1.4125    2.1750    0.0000 C   0  0  0  0  0  0  0  0  0  0  0  0
   -1.0833   -0.5500    0.0000 C   0  0  0  0  0  0  0  0  0  0  0  0
   -0.6375    0.8333    0.0000 C   0  0  0  0  0  0  0  0  0  0  0  0
   -0.6375    1.7250    0.0000 C   0  0  0  0  0  0  0  0  0  0  0  0
    0.4125   -1.2167    0.0000 C   0  0  0  0  0  0  0  0  0  0  0  0
   -1.3625    0.3000    0.0000 O   0  0  0  0  0  0  0  0  0  0  0  0
    0.9667    0.4875    0.0000 C   0  0  0  0  0  0  0  0  0  0  0  0
   -2.1958    1.7250    0.0000 C   0  0  0  0  0  0  0  0  0  0  0  0
    1.2875   -1.0292    0.0000 C   0  0  0  0  0  0  0  0  0  0  0  0
    1.5667   -0.1792    0.0000 C   0  0  0  0  0  0  0  0  0  0  0  0
   -2.9708    2.1750    0.0000 C   0  0  0  0  0  0  0  0  0  0  0  0
   -1.4125    3.0708    0.0000 C   0  0  0  0  0  0  0  0  0  0  0  0
    0.1375    2.1750    0.0000 N   0  0  0  0  0  0  0  0  0  0  0  0
   -2.9708    3.0708    0.0000 C   0  0  0  0  0  0  0  0  0  0  0  0
   -2.1958    3.5208    0.0000 C   0  0  0  0  0  0  0  0  0  0  0  0
   -3.8208    1.9000    0.0000 O   0  0  0  0  0  0  0  0  0  0  0  0
   -3.8208    3.3458    0.0000 O   0  0  0  0  0  0  0  0  0  0  0  0
   -1.6125   -1.2792    0.0000 O   0  0  0  0  0  0  0  0  0  0  0  0
   -0.6375    3.5208    0.0000 C   0  0  0  0  0  0  0  0  0  0  0  0
   -4.3458    2.6208    0.0000 C   0  0  0  0  0  0  0  0  0  0  0  0
    0.1375    3.0708    0.0000 C   0  0  0  0  0  0  0  0  0  0  0  0
    0.1292   -2.0667    0.0000 N   0  0  0  0  0  0  0  0  0  0  0  0
    1.2417    1.3458    0.0000 O   0  0  0  0  0  0  0  0  0  0  0  0
   -2.1958    0.8333    0.0000 O   0  0  0  0  0  0  0  0  0  0  0  0
    2.4417    0.0083    0.0000 O   0  0  0  0  0  0  0  0  0  0  0  0
    1.8875   -1.7000    0.0000 O   0  0  0  0  0  0  0  0  0  0  0  0
    1.0375    2.1875    0.0000 C   0  0  0  0  0  0  0  0  0  0  0  0
    2.1167    1.5250    0.0000 C   0  0  0  0  0  0  0  0  0  0  0  0
    3.0417   -0.6542    0.0000 C   0  0  0  0  0  0  0  0  0  0  0  0
    1.6125   -2.5500    0.0000 C   0  0  0  0  0  0  0  0  0  0  0  0
   -2.9708    0.3833    0.0000 C   0  0  0  0  0  0  0  0  0  0  0  0
    2.2125   -3.2167    0.0000 C   0  0  0  0  0  0  0  0  0  0  0  0
    3.9167   -0.4667    0.0000 C   0  0  0  0  0  0  0  0  0  0  0  0
    2.4000    2.3833    0.0000 C   0  0  0  0  0  0  0  0  0  0  0  0
  2  1  2  0
  3  6  1  0
  4  1  1  0
  5  2  1  0
  6  5  1  0
  7  1  1  0
  8  4  1  0
  9  2  1  0
 10  3  1  0
 11  7  2  0
 12 11  1  0
 13 10  2  0
 14  3  2  0
 15  6  1  0
 16 17  2  0
 17 14  1  0
 18 13  1  0
 19 16  1  0
 20  4  2  0
 21 23  1  0
 22 18  1  0
 23 15  1  0
 24  7  1  0
 25  9  1  0
 26 10  1  0
 27 12  1  0
 28 11  1  0
 29 15  1  0
 30 25  1  0
 31 27  1  0
 32 28  1  0
 33 26  1  0
 34 32  1  0
 35 31  1  0
 36 30  1  0
  5  8  1  0
  9 12  2  0
 14 21  1  0
 13 16  1  0
 19 22  1  0
M  END
> <chembl_id>
CHEMBL2104445

> <chembl_pref_name>
TRITOQUALINE
