
     RDKit          2D

 34 35  0  0  0  0  0  0  0  0999 V2000
   23.0307    3.6693    0.0000 Ca  0  0  0  0  0 15  0  0  0  0  0  0
    4.8518    4.2011    0.0000 C   0  0  0  0  0  0  0  0  0  0  0  0
    0.0000    0.0000    0.0000 N   0  0  0  0  0  0  0  0  0  0  0  0
   18.1907    0.7002    0.0000 O   0  0  0  0  0  0  0  0  0  0  0  0
   15.7649    7.3202    0.0000 O   0  0  0  0  0  0  0  0  0  0  0  0
   13.3389    6.3017    0.0000 O   0  0  0  0  0  0  0  0  0  0  0  0
    2.4258    4.2011    0.0000 O   0  0  0  0  0  0  0  0  0  0  0  0
   19.4001    2.8008    0.0000 O   0  0  0  0  0  0  0  0  0  0  0  0
   17.8655    6.1108    0.0000 O   0  0  0  0  0  0  0  0  0  0  0  0
   10.9130    2.1006    0.0000 C   0  0  0  0  0  0  0  0  0  0  0  0
    9.7035    4.2011    0.0000 C   0  0  0  0  0  0  0  0  0  0  0  0
   12.1224    2.8008    0.0000 C   0  0  0  0  0  0  0  0  0  0  0  0
   10.9130    4.9013    0.0000 C   0  0  0  0  0  0  0  0  0  0  0  0
   16.9743    2.8008    0.0000 C   0  0  0  0  0  0  0  0  0  0  0  0
   16.9743    4.2011    0.0000 C   0  0  0  0  0  0  0  0  0  0  0  0
    7.2777    2.8008    0.0000 C   0  0  0  0  0  0  0  0  0  0  0  0
    6.0612    0.7002    0.0000 C   0  0  0  0  0  0  0  0  0  0  0  0
    1.2094    2.1006    0.0000 N   0  0  0  0  0  0  0  0  0  0  0  0
    8.4872    2.1006    0.0000 N   0  0  0  0  0  0  0  0  0  0  0  0
    4.8518    0.0000    0.0000 N   0  0  0  0  0  0  0  0  0  0  0  0
   14.5484    4.2011    0.0000 N   0  0  0  0  0  0  0  0  0  0  0  0
    2.4258    0.0000    0.0000 N   0  0  0  0  0  0  0  0  0  0  0  0
   18.1837    2.1006    0.0000 C   0  0  0  0  0  0  0  0  0  0  0  0
   16.4651    6.1108    0.0000 C   0  0  0  0  0  0  0  0  0  0  0  0
   13.3389    4.9013    0.0000 C   0  0  0  0  0  0  0  0  0  0  0  0
    1.2094    0.7002    0.0000 C   0  0  0  0  0  0  0  0  0  0  0  0
    9.7035    2.8008    0.0000 C   0  0  0  0  0  0  0  0  0  0  0  0
   12.1224    4.2011    0.0000 C   0  0  0  0  0  0  0  0  0  0  0  0
    3.6352    0.7002    0.0000 C   0  0  0  0  0  0  0  0  0  0  0  0
    3.6352    2.1006    0.0000 C   0  0  0  0  0  0  0  0  0  0  0  0
    2.4258    2.8008    0.0000 C   0  0  0  0  0  0  0  0  0  0  0  0
    4.8518    2.8008    0.0000 N   0  0  0  0  0  0  0  0  0  0  0  0
   15.7649    4.9013    0.0000 C   0  0  0  0  0  0  0  0  0  0  0  0
    6.0612    2.1006    0.0000 C   0  0  0  0  0  0  0  0  0  0  0  0
  2 32  1  0
  3 26  1  0
  4 23  2  0
  5 24  2  0
  6 25  2  0
  7 31  2  0
  8 23  1  0
  9 24  1  0
 10 12  1  0
 10 27  2  0
 11 13  2  0
 11 27  1  0
 12 28  2  0
 13 28  1  0
 14 15  1  0
 14 23  1  0
 33 15  1  6
 16 19  1  0
 34 16  1  1
 17 20  1  0
 17 34  1  0
 18 26  2  0
 18 31  1  0
 19 27  1  0
 20 29  1  0
 21 25  1  0
 21 33  1  0
 22 26  1  0
 22 29  1  0
 33 24  1  0
 25 28  1  0
 29 30  2  0
 30 31  1  0
 30 32  1  0
 32 34  1  0
M  CHG  3   1   2   8  -1   9  -1
M  END
> <chembl_id>
CHEMBL1615371

> <chembl_pref_name>
LEVOMEFOLATE CALCIUM
