
     RDKit          2D

 34 36  0  0  1  0  0  0  0  0999 V2000
    0.4625   -5.2750    0.0000 C   0  0  0  0  0  0  0  0  0  0  0  0
    0.4625   -4.5917    0.0000 C   0  0  0  0  0  0  0  0  0  0  0  0
   -0.7208   -5.2417    0.0000 N   0  0  0  0  0  0  0  0  0  0  0  0
   -0.1333   -5.5875    0.0000 C   0  0  0  0  0  0  0  0  0  0  0  0
   -0.1250   -4.2417    0.0000 N   0  0  0  0  0  0  0  0  0  0  0  0
    1.0500   -5.6042    0.0000 N   0  0  0  0  0  0  0  0  0  0  0  0
   -0.7208   -4.5917    0.0000 C   0  0  0  0  0  0  0  0  0  0  0  0
    1.0500   -4.2542    0.0000 N   0  0  0  0  0  0  0  0  0  0  0  0
    5.1542   -6.6667    0.0000 C   0  0  0  0  0  0  0  0  0  0  0  0
    5.7750   -6.3208    0.0000 N   0  0  0  0  0  0  0  0  0  0  0  0
    1.6417   -5.2792    0.0000 C   0  0  0  0  0  0  0  0  0  0  0  0
    6.3750   -7.3917    0.0000 C   0  0  0  0  0  0  0  0  0  0  0  0
    1.0417   -6.2792    0.0000 C   0  0  0  0  0  0  0  0  0  0  0  0
    6.3833   -6.6833    0.0000 C   0  0  0  0  0  0  0  0  0  0  0  0
    8.2167   -6.3417    0.0000 C   0  0  0  0  0  0  0  0  0  0  0  0
   -0.1333   -6.2917    0.0000 O   0  0  0  0  0  0  0  0  0  0  0  0
    4.5542   -6.3167    0.0000 C   0  0  0  0  0  0  0  0  0  0  0  0
    1.6417   -4.6000    0.0000 C   0  0  0  0  0  0  0  0  0  0  0  0
    6.9833   -7.7542    0.0000 O   0  0  0  0  0  0  0  0  0  0  0  0
    5.1417   -7.3292    0.0000 O   0  0  0  0  0  0  0  0  0  0  0  0
    2.2292   -5.6292    0.0000 C   0  0  0  0  0  0  0  0  0  0  0  0
    2.8167   -5.2917    0.0000 N   0  0  0  0  0  0  0  0  0  0  0  0
    8.8375   -6.6875    0.0000 O   0  0  0  0  0  0  0  0  0  0  0  0
    5.7542   -7.7375    0.0000 O   0  0  0  0  0  0  0  0  0  0  0  0
   -1.3125   -4.2375    0.0000 N   0  0  0  0  0  0  0  0  0  0  0  0
    1.6292   -6.6375    0.0000 O   0  0  0  0  0  0  0  0  0  0  0  0
    8.2125   -5.6333    0.0000 O   0  0  0  0  0  0  0  0  0  0  0  0
    7.0000   -6.3375    0.0000 C   0  0  0  0  0  0  0  0  0  0  0  0
    4.5625   -5.6417    0.0000 C   0  0  0  0  0  0  0  0  0  0  0  0
    3.9667   -6.6500    0.0000 C   0  0  0  0  0  0  0  0  0  0  0  0
    3.3792   -5.6292    0.0000 C   0  0  0  0  0  0  0  0  0  0  0  0
    7.6083   -6.7000    0.0000 C   0  0  0  0  0  0  0  0  0  0  0  0
    3.9792   -5.2917    0.0000 C   0  0  0  0  0  0  0  0  0  0  0  0
    3.3875   -6.3042    0.0000 C   0  0  0  0  0  0  0  0  0  0  0  0
  2  1  2  0
  3  4  1  0
  4  1  1  0
  5  2  1  0
  6  1  1  0
  7  3  2  0
  8  2  1  0
  9 17  1  0
 10  9  1  0
 11  6  1  0
 14 12  1  0
 13  6  1  0
 14 10  1  1
 15 32  1  0
 16  4  2  0
 17 30  2  0
 18 11  1  0
 19 12  1  0
 20  9  2  0
 21 11  1  0
 22 21  1  0
 23 15  1  0
 24 12  2  0
 25  7  1  0
 26 13  2  0
 27 15  2  0
 28 14  1  0
 29 33  2  0
 30 34  1  0
 31 22  1  0
 32 28  1  0
 33 31  1  0
 34 31  2  0
  7  5  1  0
 18  8  1  0
 17 29  1  0
M  END
> <chembl_id>
CHEMBL1679

> <chembl_pref_name>
LEUCOVORIN
