
     RDKit          2D

 52 55  0  0  1  0  0  0  0  0999 V2000
    2.1250   -2.5000    0.0000 C   0  0  0  0  0  0  0  0  0  0  0  0
    0.5125   -2.5000    0.0000 C   0  0  0  0  0  0  0  0  0  0  0  0
    2.6542   -2.6125    0.0000 C   0  0  0  0  0  0  0  0  0  0  0  0
    1.3292   -2.9750    0.0000 C   0  0  0  0  0  0  0  0  0  0  0  0
    1.8542   -2.9542    0.0000 C   0  0  0  0  0  0  0  0  0  0  0  0
    1.0500   -2.5042    0.0000 C   0  0  0  0  0  0  0  0  0  0  0  0
    0.2292   -2.9792    0.0000 C   0  0  0  0  0  0  0  0  0  0  0  0
    1.8500   -2.0375    0.0000 C   0  0  0  0  0  0  0  0  0  0  0  0
    1.3000   -2.0375    0.0000 C   0  0  0  0  0  0  0  0  0  0  0  0
    0.2417   -2.0417    0.0000 C   0  0  0  0  0  0  0  0  0  0  0  0
    2.8542   -2.1625    0.0000 C   0  0  0  0  0  0  0  0  0  0  0  0
   -0.2875   -2.9750    0.0000 C   0  0  0  0  0  0  0  0  0  0  0  0
    2.7167   -3.1292    0.0000 C   0  0  0  0  0  0  0  0  0  0  0  0
    2.2292   -3.3542    0.0000 C   0  0  0  0  0  0  0  0  0  0  0  0
    1.0625   -3.4375    0.0000 C   0  0  0  0  0  0  0  0  0  0  0  0
   -0.2875   -2.0375    0.0000 C   0  0  0  0  0  0  0  0  0  0  0  0
   -0.5708   -2.5042    0.0000 C   0  0  0  0  0  0  0  0  0  0  0  0
    0.5167   -3.4375    0.0000 C   0  0  0  0  0  0  0  0  0  0  0  0
    3.4375   -1.3125    0.0000 C   0  0  0  0  0  0  0  0  0  0  0  0
    2.1500   -1.0042    0.0000 C   0  0  0  0  0  0  0  0  0  0  0  0
    3.3000   -2.2375    0.0000 C   0  0  0  0  0  0  0  0  0  0  0  0
    2.7042   -1.6917    0.0000 O   0  0  0  0  0  0  0  0  0  0  0  0
    3.5750   -1.8292    0.0000 O   0  0  0  0  0  0  0  0  0  0  0  0
    3.9375   -1.1792    0.0000 O   0  0  0  0  0  0  0  0  0  0  0  0
    2.2917   -0.5167    0.0000 O   0  0  0  0  0  0  0  0  0  0  0  0
   -1.1208   -2.5042    0.0000 O   0  0  0  0  0  0  0  0  0  0  0  0
    2.6042   -1.3250    0.0000 O   0  0  0  0  0  0  0  0  0  0  0  0
    3.1042   -2.9042    0.0000 O   0  0  0  0  0  0  0  0  0  0  0  0
    2.1917   -1.9417    0.0000 C   0  0  0  0  0  0  0  0  0  0  0  0
    1.0292   -1.5667    0.0000 O   0  0  0  0  0  0  0  0  0  0  0  0
    3.0000   -1.0167    0.0000 C   0  0  0  0  0  0  0  0  0  0  0  0
    0.7792   -2.0375    0.0000 C   0  0  0  0  0  0  0  0  0  0  0  0
    1.6792   -1.1417    0.0000 C   0  0  0  0  0  0  0  0  0  0  0  0
    1.1500   -1.0750    0.0000 C   0  0  0  0  0  0  0  0  0  0  0  0
   -3.8083    3.0875    0.0000 C   0  0  0  0  0  0  0  0  0  0  0  0
   -3.2750    3.0000    0.0000 C   0  0  0  0  0  0  0  0  0  0  0  0
    0.2500   -0.0125    0.0000 C   0  0  0  0  0  0  0  0  0  0  0  0
   -0.2833    0.1083    0.0000 C   0  0  0  0  0  0  0  0  0  0  0  0
   -0.4708    0.6083    0.0000 C   0  0  0  0  0  0  0  0  0  0  0  0
   -1.0000    0.7000    0.0000 C   0  0  0  0  0  0  0  0  0  0  0  0
   -1.1708    1.1958    0.0000 C   0  0  0  0  0  0  0  0  0  0  0  0
   -1.7000    1.3000    0.0000 C   0  0  0  0  0  0  0  0  0  0  0  0
   -1.8833    1.8125    0.0000 C   0  0  0  0  0  0  0  0  0  0  0  0
   -2.4083    1.9083    0.0000 C   0  0  0  0  0  0  0  0  0  0  0  0
   -2.5750    2.4083    0.0000 C   0  0  0  0  0  0  0  0  0  0  0  0
   -3.1083    2.5000    0.0000 C   0  0  0  0  0  0  0  0  0  0  0  0
    0.9542   -0.5542    0.0000 C   0  0  0  0  0  0  0  0  0  0  0  0
    0.4250   -0.4792    0.0000 C   0  0  0  0  0  0  0  0  0  0  0  0
   -3.9833    3.5958    0.0000 C   0  0  0  0  0  0  0  0  0  0  0  0
    1.7125   -3.4917    0.0000 H   0  0  0  0  0  0  0  0  0  0  0  0
    1.5792   -2.5000    0.0000 H   0  0  0  0  0  0  0  0  0  0  0  0
    0.7792   -2.9750    0.0000 H   0  0  0  0  0  0  0  0  0  0  0  0
  2  6  1  0
  3  1  1  0
  4  5  1  0
  5  1  1  0
  6  9  1  0
  7  2  1  0
  8  1  1  0
  9  8  1  0
 10  2  1  0
  3 11  1  1
 12  7  2  0
 13  3  1  0
 14  5  1  0
 15  4  1  0
 16 10  2  0
 17 16  1  0
 18 15  1  0
 19 23  1  0
 20 27  1  0
 21 11  1  0
 22 11  2  0
 23 21  1  0
 24 19  2  0
 25 20  2  0
 26 17  2  0
 27 31  1  0
  3 28  1  6
  1 29  1  1
  9 30  1  1
 31 19  1  0
  2 32  1  1
 33 20  1  0
 34 33  1  0
 35 36  1  0
 36 46  1  0
 37 48  1  0
 38 37  1  0
 39 38  1  0
 40 39  1  0
 41 40  1  0
 42 41  1  0
 43 42  1  0
 44 43  1  0
 45 44  1  0
 46 45  1  0
 47 34  1  0
 48 47  1  0
 49 35  1  0
  5 50  1  6
  4 51  1  1
  6 52  1  6
 14 13  1  0
  4  6  1  0
 18  7  1  0
 12 17  1  0
M  END
> <chembl_id>
CHEMBL2105774

> <chembl_pref_name>
PREDNISOLONE STEAGLATE
