
     RDKit          2D

 33 35  0  0  0  0  0  0  0  0999 V2000
   18.9250  -24.7417    0.0000 C   0  0  0  0  0  0  0  0  0  0  0  0
   23.2083  -24.7458    0.0000 C   0  0  0  0  0  0  0  0  0  0  0  0
   21.7750  -24.7458    0.0000 C   0  0  0  0  0  0  0  0  0  0  0  0
   20.3500  -24.7417    0.0000 C   0  0  0  0  0  0  0  0  0  0  0  0
   23.9208  -24.3333    0.0000 C   0  0  0  0  0  0  0  0  0  0  0  0
   18.9250  -25.5708    0.0000 C   0  0  0  0  0  0  0  0  0  0  0  0
   21.0625  -24.3292    0.0000 C   0  0  0  0  0  0  0  0  0  0  0  0
   24.6333  -24.7583    0.0000 C   0  0  0  0  0  0  0  0  0  0  0  0
   18.2000  -25.9833    0.0000 C   0  0  0  0  0  0  0  0  0  0  0  0
   18.2000  -24.3208    0.0000 O   0  0  0  0  0  0  0  0  0  0  0  0
   23.2000  -25.5708    0.0000 O   0  0  0  0  0  0  0  0  0  0  0  0
   19.6375  -24.3292    0.0000 O   0  0  0  0  0  0  0  0  0  0  0  0
   22.4958  -24.3333    0.0000 O   0  0  0  0  0  0  0  0  0  0  0  0
   24.6250  -25.5833    0.0000 C   0  0  0  0  0  0  0  0  0  0  0  0
   17.4875  -25.5708    0.0000 C   0  0  0  0  0  0  0  0  0  0  0  0
   17.4875  -24.7417    0.0000 C   0  0  0  0  0  0  0  0  0  0  0  0
   23.9083  -25.9917    0.0000 C   0  0  0  0  0  0  0  0  0  0  0  0
   21.7750  -25.5708    0.0000 C   0  0  0  0  0  0  0  0  0  0  0  0
   20.3500  -25.5667    0.0000 C   0  0  0  0  0  0  0  0  0  0  0  0
   21.0583  -25.9792    0.0000 C   0  0  0  0  0  0  0  0  0  0  0  0
   25.3500  -24.3542    0.0000 N   0  0  0  0  0  0  0  0  0  0  0  0
   23.9250  -23.5167    0.0000 O   0  0  0  0  0  0  0  0  0  0  0  0
   18.9125  -26.3958    0.0000 O   0  0  0  0  0  0  0  0  0  0  0  0
   21.0625  -23.5042    0.0000 O   0  0  0  0  0  0  0  0  0  0  0  0
   18.2000  -26.8083    0.0000 O   0  0  0  0  0  0  0  0  0  0  0  0
   22.4875  -25.9833    0.0000 N   0  0  0  0  0  0  0  0  0  0  0  0
   19.6333  -25.9708    0.0000 N   0  0  0  0  0  0  0  0  0  0  0  0
   25.3375  -26.0042    0.0000 O   0  0  0  0  0  0  0  0  0  0  0  0
   16.7750  -25.9833    0.0000 O   0  0  0  0  0  0  0  0  0  0  0  0
   16.7750  -24.3292    0.0000 C   0  0  0  0  0  0  0  0  0  0  0  0
   23.9000  -26.8167    0.0000 C   0  0  0  0  0  0  0  0  0  0  0  0
   16.7750  -23.5042    0.0000 N   0  0  0  0  0  0  0  0  0  0  0  0
   23.1833  -27.2208    0.0000 O   0  0  0  0  0  0  0  0  0  0  0  0
  2 13  1  6
  3  7  1  0
  4 12  1  1
  5  2  1  0
  6  1  1  0
  7  4  1  0
  8  5  1  0
  9  6  1  0
 10  1  1  0
 11  2  1  0
  1 12  1  6
  3 13  1  1
 14 17  1  0
 15 16  1  0
 16 10  1  0
 17 11  1  0
 18 20  1  0
 19  4  1  0
 20 19  1  0
  8 21  1  1
  5 22  1  6
  6 23  1  6
  7 24  1  6
  9 25  1  1
 18 26  1  6
 19 27  1  6
 14 28  1  6
 15 29  1  6
 16 30  1  1
 17 31  1  1
 32 30  1  0
 33 31  1  0
 15  9  1  0
 18  3  1  0
 14  8  1  0
M  END
> <chembl_id>
CHEMBL1384

> <chembl_pref_name>
KANAMYCIN
