
     RDKit          2D

 69 74  0  0  0  0  0  0  0  0999 V2000
   18.8068   -1.2557    0.0000 C   0  0  0  0  0  0  0  0  0  0  0  0
   17.3800   -1.2557    0.0000 C   0  0  0  0  0  0  0  0  0  0  0  0
   18.8116   -0.4307    0.0000 C   0  0  0  0  0  0  0  0  0  0  0  0
   20.2287   -1.2654    0.0000 C   0  0  0  0  0  0  0  0  0  0  0  0
   18.0885   -1.6683    0.0000 C   0  0  0  0  0  0  0  0  0  0  0  0
   19.5104   -1.6683    0.0000 C   0  0  0  0  0  0  0  0  0  0  0  0
   20.2336   -0.4404    0.0000 C   0  0  0  0  0  0  0  0  0  0  0  0
   16.6617   -1.6683    0.0000 C   0  0  0  0  0  0  0  0  0  0  0  0
   17.3800   -0.4258    0.0000 C   0  0  0  0  0  0  0  0  0  0  0  0
   19.5250   -0.0231    0.0000 C   0  0  0  0  0  0  0  0  0  0  0  0
   18.0934   -0.0085    0.0000 C   0  0  0  0  0  0  0  0  0  0  0  0
   15.9483   -1.2557    0.0000 C   0  0  0  0  0  0  0  0  0  0  0  0
   15.9483   -0.4258    0.0000 C   0  0  0  0  0  0  0  0  0  0  0  0
   16.6617   -0.0085    0.0000 C   0  0  0  0  0  0  0  0  0  0  0  0
   20.9372   -1.6828    0.0000 C   0  0  0  0  0  0  0  0  0  0  0  0
   18.0885   -2.4932    0.0000 O   0  0  0  0  0  0  0  0  0  0  0  0
   20.9518   -0.0327    0.0000 O   0  0  0  0  0  0  0  0  0  0  0  0
   19.5299    0.8068    0.0000 N   0  0  0  0  0  0  0  0  0  0  0  0
   15.2349   -1.6683    0.0000 C   0  0  0  0  0  0  0  0  0  0  0  0
   19.5056   -2.4932    0.0000 O   0  0  0  0  0  0  0  0  0  0  0  0
   16.6617   -2.4932    0.0000 O   0  0  0  0  0  0  0  0  0  0  0  0
   18.0934    0.8117    0.0000 O   0  0  0  0  0  0  0  0  0  0  0  0
   18.8019   -2.0759    0.0000 O   0  0  0  0  0  0  0  0  0  0  0  0
   20.9324   -2.5078    0.0000 O   0  0  0  0  0  0  0  0  0  0  0  0
   15.2398   -2.4932    0.0000 O   0  0  0  0  0  0  0  0  0  0  0  0
   21.6555   -1.2799    0.0000 N   0  0  0  0  0  0  0  0  0  0  0  0
   15.2349   -0.0133    0.0000 C   0  0  0  0  0  0  0  0  0  0  0  0
   16.6617    0.8166    0.0000 C   0  0  0  0  0  0  0  0  0  0  0  0
   14.5215   -0.4258    0.0000 C   0  0  0  0  0  0  0  0  0  0  0  0
   14.5215   -1.2557    0.0000 C   0  0  0  0  0  0  0  0  0  0  0  0
   20.2482    1.2145    0.0000 C   0  0  0  0  0  0  0  0  0  0  0  0
   18.8165    1.2194    0.0000 C   0  0  0  0  0  0  0  0  0  0  0  0
   17.3751    0.3992    0.0000 H   0  0  0  0  0  0  0  0  0  0  0  0
   18.8068    0.3992    0.0000 H   0  0  0  0  0  0  0  0  0  0  0  0
    9.2937   -1.4850    0.0000 C   0  0  0  0  0  0  0  0  0  0  0  0
    7.8669   -1.4850    0.0000 C   0  0  0  0  0  0  0  0  0  0  0  0
    9.2985   -0.6601    0.0000 C   0  0  0  0  0  0  0  0  0  0  0  0
   10.7156   -1.4947    0.0000 C   0  0  0  0  0  0  0  0  0  0  0  0
    8.5754   -1.8976    0.0000 C   0  0  0  0  0  0  0  0  0  0  0  0
    9.9973   -1.8976    0.0000 C   0  0  0  0  0  0  0  0  0  0  0  0
   10.7205   -0.6697    0.0000 C   0  0  0  0  0  0  0  0  0  0  0  0
    7.1486   -1.8976    0.0000 C   0  0  0  0  0  0  0  0  0  0  0  0
    7.8669   -0.6552    0.0000 C   0  0  0  0  0  0  0  0  0  0  0  0
   10.0119   -0.2524    0.0000 C   0  0  0  0  0  0  0  0  0  0  0  0
    8.5803   -0.2378    0.0000 C   0  0  0  0  0  0  0  0  0  0  0  0
    6.4352   -1.4850    0.0000 C   0  0  0  0  0  0  0  0  0  0  0  0
    6.4352   -0.6552    0.0000 C   0  0  0  0  0  0  0  0  0  0  0  0
    7.1486   -0.2378    0.0000 C   0  0  0  0  0  0  0  0  0  0  0  0
   11.4241   -1.9122    0.0000 C   0  0  0  0  0  0  0  0  0  0  0  0
    8.5754   -2.7226    0.0000 O   0  0  0  0  0  0  0  0  0  0  0  0
   11.4387   -0.2621    0.0000 O   0  0  0  0  0  0  0  0  0  0  0  0
   10.0168    0.5775    0.0000 N   0  0  0  0  0  0  0  0  0  0  0  0
    5.7218   -1.8976    0.0000 C   0  0  0  0  0  0  0  0  0  0  0  0
    9.9925   -2.7226    0.0000 O   0  0  0  0  0  0  0  0  0  0  0  0
    7.1486   -2.7226    0.0000 O   0  0  0  0  0  0  0  0  0  0  0  0
    8.5803    0.5824    0.0000 O   0  0  0  0  0  0  0  0  0  0  0  0
    9.2888   -2.3053    0.0000 O   0  0  0  0  0  0  0  0  0  0  0  0
   11.4194   -2.7371    0.0000 O   0  0  0  0  0  0  0  0  0  0  0  0
    5.7267   -2.7226    0.0000 O   0  0  0  0  0  0  0  0  0  0  0  0
   12.1424   -1.5093    0.0000 N   0  0  0  0  0  0  0  0  0  0  0  0
    5.7218   -0.2426    0.0000 C   0  0  0  0  0  0  0  0  0  0  0  0
    7.1486    0.5873    0.0000 C   0  0  0  0  0  0  0  0  0  0  0  0
    5.0084   -0.6552    0.0000 C   0  0  0  0  0  0  0  0  0  0  0  0
    5.0084   -1.4850    0.0000 C   0  0  0  0  0  0  0  0  0  0  0  0
   10.7351    0.9851    0.0000 C   0  0  0  0  0  0  0  0  0  0  0  0
    9.3034    0.9900    0.0000 C   0  0  0  0  0  0  0  0  0  0  0  0
    7.8620    0.1698    0.0000 H   0  0  0  0  0  0  0  0  0  0  0  0
    9.2937    0.1698    0.0000 H   0  0  0  0  0  0  0  0  0  0  0  0
    7.4884   -4.0766    0.0000 Ca  0  0  0  0  0 15  0  0  0  0  0  0
  2  5  2  0
  3  1  1  0
  4  6  1  0
  5  1  1  0
  6  1  1  0
  7 10  1  0
  8  2  1  0
  9 11  1  0
 10  3  1  0
 11  3  1  0
 12  8  1  0
 13 14  1  0
 14  9  1  0
 15  4  1  0
 16  5  1  0
 17  7  1  0
 10 18  1  6
 19 12  2  0
 20  6  2  0
 21  8  2  0
 11 22  1  6
  1 23  1  6
 24 15  2  0
 25 19  1  0
 26 15  1  0
 27 13  2  0
 14 28  1  6
 29 27  1  0
 30 19  1  0
 31 18  1  0
 32 18  1  0
  9 33  1  6
  3 34  1  6
  2  9  1  0
  7  4  2  0
 12 13  1  0
 30 29  2  0
 36 39  2  0
 37 35  1  0
 38 40  1  0
 39 35  1  0
 40 35  1  0
 41 44  1  0
 42 36  1  0
 43 45  1  0
 44 37  1  0
 45 37  1  0
 46 42  1  0
 47 48  1  0
 48 43  1  0
 49 38  1  0
 50 39  1  0
 51 41  1  0
 44 52  1  6
 53 46  2  0
 54 40  2  0
 55 42  2  0
 45 56  1  6
 35 57  1  6
 58 49  2  0
 59 53  1  0
 60 49  1  0
 61 47  2  0
 48 62  1  6
 63 61  1  0
 64 53  1  0
 65 52  1  0
 66 52  1  0
 43 67  1  6
 37 68  1  6
 36 43  1  0
 41 38  2  0
 46 47  1  0
 64 63  2  0
M  CHG  3  25  -1  59  -1  69   2
M  END
> <chembl_id>
CHEMBL2364574

> <chembl_pref_name>
DOXYCYCLINE CALCIUM
