
     RDKit          2D

 32  3  0  0  0  0  0  0  0  0999 V2000
   -4.6848  -11.2554    0.0000 Mg  0  0  0  0  0 15  0  0  0  0  0  0
    3.2631  -10.5176    0.0000 C   0  0  0  0  0  0  0  0  0  0  0  0
    3.9623  -10.9012    0.0000 O   0  0  0  0  0  0  0  0  0  0  0  0
    2.5493  -10.9401    0.0000 O   0  0  0  0  0  0  0  0  0  0  0  0
    3.2631   -9.6581    0.0000 O   0  0  0  0  0  0  0  0  0  0  0  0
    6.1814  -11.2168    0.0000 O   0  0  0  0  0  0  0  0  0  0  0  0
    8.0703  -11.1440    0.0000 O   0  0  0  0  0  0  0  0  0  0  0  0
    2.5784  -12.0521    0.0000 O   0  0  0  0  0  0  0  0  0  0  0  0
    6.8370  -11.7995    0.0000 Mg  0  0  0  0  0 15  0  0  0  0  0  0
    3.5253  -11.9792    0.0000 Mg  0  0  0  0  0 15  0  0  0  0  0  0
    9.8912  -10.7070    0.0000 O   0  0  0  0  0  0  0  0  0  0  0  0
    0.7661  -12.0509    0.0000 O   0  0  0  0  0  0  0  0  0  0  0  0
   -0.3536  -12.1688    0.0000 O   0  0  0  0  0  0  0  0  0  0  0  0
   -2.0625  -12.1688    0.0000 O   0  0  0  0  0  0  0  0  0  0  0  0
   -2.0625  -13.0821    0.0000 O   0  0  0  0  0  0  0  0  0  0  0  0
   -0.5009  -13.2295    0.0000 O   0  0  0  0  0  0  0  0  0  0  0  0
    0.8839  -13.2295    0.0000 O   0  0  0  0  0  0  0  0  0  0  0  0
    1.1196  -13.8777    0.0000 O   0  0  0  0  0  0  0  0  0  0  0  0
    0.0295  -13.9071    0.0000 O   0  0  0  0  0  0  0  0  0  0  0  0
   -1.8562  -13.9366    0.0000 O   0  0  0  0  0  0  0  0  0  0  0  0
    2.3571  -14.0545    0.0000 O   0  0  0  0  0  0  0  0  0  0  0  0
    2.3277  -12.9348    0.0000 O   0  0  0  0  0  0  0  0  0  0  0  0
    4.0366  -12.9348    0.0000 O   0  0  0  0  0  0  0  0  0  0  0  0
    3.9188  -13.8188    0.0000 O   0  0  0  0  0  0  0  0  0  0  0  0
    9.6348  -12.1393    0.0000 O   0  0  0  0  0  0  0  0  0  0  0  0
    8.9571  -10.1062    0.0000 O   0  0  0  0  0  0  0  0  0  0  0  0
    8.8098  -13.8482    0.0000 O   0  0  0  0  0  0  0  0  0  0  0  0
   -1.2964  -10.5188    0.0000 Al  0  0  0  0  0 15  0  0  0  0  0  0
    0.3241  -10.5482    0.0000 Al  0  0  0  0  0 15  0  0  0  0  0  0
   -3.0643  -11.1080    0.0000 Mg  0  0  0  0  0 15  0  0  0  0  0  0
   -3.1232  -10.1357    0.0000 Mg  0  0  0  0  0 15  0  0  0  0  0  0
   -4.8321  -10.3420    0.0000 Mg  0  0  0  0  0 15  0  0  0  0  0  0
  3  2  1  0
  4  2  1  0
  5  2  2  0
M  CHG  8   1   2   3  -1   4  -1   6  -1   7  -1   8  -1   9   2  10   2
M  CHG  8  12  -1  13  -1  14  -1  15  -1  16  -1  17  -1  18  -1  19  -1
M  CHG  8  20  -1  21  -1  22  -1  23  -1  24  -1  28   3  29   3  30   2
M  CHG  2  31   2  32   2
M  END
> <chembl_id>
CHEMBL3833351

> <chembl_pref_name>
HYDROTALCITE
