
     RDKit          2D

 28 31  0  0  0  0  0  0  0  0999 V2000
    1.0042   -1.4250    0.0000 C   0  0  0  0  0  0  0  0  0  0  0  0
   -2.4333    2.5833    0.0000 S   0  0  0  0  0  0  0  0  0  0  0  0
    1.0042   -0.4375    0.0000 N   0  0  0  0  0  0  0  0  0  0  0  0
    1.0042   -3.4042    0.0000 N   0  0  0  0  0  0  0  0  0  0  0  0
    1.8542   -1.9167    0.0000 C   0  0  0  0  0  0  0  0  0  0  0  0
    0.1500   -1.9167    0.0000 C   0  0  0  0  0  0  0  0  0  0  0  0
    0.1500   -2.9042    0.0000 C   0  0  0  0  0  0  0  0  0  0  0  0
    1.8542   -2.9042    0.0000 C   0  0  0  0  0  0  0  0  0  0  0  0
    0.1500    0.0583    0.0000 C   0  0  0  0  0  0  0  0  0  0  0  0
   -2.4333    1.5708    0.0000 N   0  0  0  0  0  0  0  0  0  0  0  0
    0.1500    1.0625    0.0000 C   0  0  0  0  0  0  0  0  0  0  0  0
   -0.7000    1.5625    0.0000 C   0  0  0  0  0  0  0  0  0  0  0  0
   -3.4458    2.5708    0.0000 O   0  0  0  0  0  0  0  0  0  0  0  0
   -1.4208    2.5833    0.0000 O   0  0  0  0  0  0  0  0  0  0  0  0
   -1.5583    1.0625    0.0000 C   0  0  0  0  0  0  0  0  0  0  0  0
   -0.7000   -0.4375    0.0000 C   0  0  0  0  0  0  0  0  0  0  0  0
   -2.4458    3.5958    0.0000 C   0  0  0  0  0  0  0  0  0  0  0  0
   -1.5583    0.0583    0.0000 C   0  0  0  0  0  0  0  0  0  0  0  0
    1.0042    1.5625    0.0000 O   0  0  0  0  0  0  0  0  0  0  0  0
    2.7167   -1.4250    0.0000 C   0  0  0  0  0  0  0  0  0  0  0  0
   -0.7000   -1.4250    0.0000 C   0  0  0  0  0  0  0  0  0  0  0  0
    2.7167   -3.4042    0.0000 C   0  0  0  0  0  0  0  0  0  0  0  0
   -0.7000   -3.4042    0.0000 C   0  0  0  0  0  0  0  0  0  0  0  0
    1.8792    1.0625    0.0000 C   0  0  0  0  0  0  0  0  0  0  0  0
   -1.5583   -1.9167    0.0000 C   0  0  0  0  0  0  0  0  0  0  0  0
    3.5667   -1.9167    0.0000 C   0  0  0  0  0  0  0  0  0  0  0  0
   -1.5583   -2.9042    0.0000 C   0  0  0  0  0  0  0  0  0  0  0  0
    3.5667   -2.9042    0.0000 C   0  0  0  0  0  0  0  0  0  0  0  0
  2 10  1  0
  3  1  1  0
  4  7  2  0
  5  1  1  0
  6  1  2  0
  7  6  1  0
  8  5  2  0
  9  3  1  0
 10 15  1  0
 11  9  2  0
 12 11  1  0
 13  2  2  0
 14  2  2  0
 15 18  1  0
 16  9  1  0
 17  2  1  0
 18 16  2  0
 19 11  1  0
 20  5  1  0
 21  6  1  0
 22  8  1  0
 23  7  1  0
 24 19  1  0
 25 21  2  0
 26 20  2  0
 27 25  1  0
 28 26  1  0
  8  4  1  0
 23 27  2  0
 22 28  2  0
 12 15  2  0
M  END
> <chembl_id>
CHEMBL43

> <chembl_pref_name>
AMSACRINE
