
     RDKit          2D

 20 20  0  0  0  0  0  0  0  0999 V2000
    0.4792   -2.1042    0.0000 C   0  0  0  0  0  0  0  0  0  0  0  0
   -0.4833   -1.5375    0.0000 C   0  0  0  0  0  0  0  0  0  0  0  0
    1.4375   -1.5500    0.0000 O   0  0  0  0  0  0  0  0  0  0  0  0
   -2.3833   -0.4417    0.0000 C   0  0  0  0  0  0  0  0  0  0  0  0
   -3.3833    0.1083    0.0000 N   0  0  0  0  0  0  0  0  0  0  0  0
    0.4667   -3.2250    0.0000 O   0  0  0  0  0  0  0  0  0  0  0  0
   -0.4833   -0.4375    0.0000 C   0  0  0  0  0  0  0  0  0  0  0  0
   -1.4583   -2.1042    0.0000 C   0  0  0  0  0  0  0  0  0  0  0  0
   -1.4333    0.0958    0.0000 C   0  0  0  0  0  0  0  0  0  0  0  0
   -2.4000   -1.5500    0.0000 C   0  0  0  0  0  0  0  0  0  0  0  0
    1.4375   -0.4375    0.0000 C   0  0  0  0  0  0  0  0  0  0  0  0
   -3.3833    1.2208    0.0000 C   0  0  0  0  0  0  0  0  0  0  0  0
   -4.3458   -0.4375    0.0000 C   0  0  0  0  0  0  0  0  0  0  0  0
    2.4167    0.1458    0.0000 C   0  0  0  0  0  0  0  0  0  0  0  0
    3.3792   -0.4250    0.0000 C   0  0  0  0  0  0  0  0  0  0  0  0
    2.4167    1.2583    0.0000 C   0  0  0  0  0  0  0  0  0  0  0  0
    3.3542    2.9333    0.0000 C   0  0  0  0  0  0  0  0  0  0  0  0
    3.3792    1.8208    0.0000 C   0  0  0  0  0  0  0  0  0  0  0  0
    3.3750   -1.5500    0.0000 C   0  0  0  0  0  0  0  0  0  0  0  0
    4.3375    3.5000    0.0000 C   0  0  0  0  0  0  0  0  0  0  0  0
  2  1  1  0
  3  1  1  0
  4 10  1  0
  5  4  1  0
  6  1  2  0
  7  2  2  0
  8  2  1  0
  9  7  1  0
 10  8  2  0
 11  3  1  0
 12  5  1  0
 13  5  1  0
 14 11  1  0
 15 14  1  0
 16 14  1  0
 17 18  1  0
 18 16  1  0
 19 15  1  0
 20 17  1  0
  9  4  2  0
M  END
> <chembl_id>
CHEMBL1323699

> <chembl_pref_name>
PADIMATE O
