
     RDKit          2D

 44 45  0  0  0  0  0  0  0  0999 V2000
   -2.5958    1.7958    0.0000 C   0  0  0  0  0  0  0  0  0  0  0  0
   -3.0625   -1.4000    0.0000 C   0  0  0  0  0  0  0  0  0  0  0  0
   -2.5500   -0.7792    0.0000 C   0  0  0  0  0  0  0  0  0  0  0  0
   -2.0458    2.1250    0.0000 C   0  0  0  0  0  0  0  0  0  0  0  0
   -1.4458    1.7958    0.0000 C   0  0  0  0  0  0  0  0  0  0  0  0
   -1.6875   -0.9000    0.0000 C   0  0  0  0  0  0  0  0  0  0  0  0
   -2.5958    1.1208    0.0000 C   0  0  0  0  0  0  0  0  0  0  0  0
   -2.8833   -2.0792    0.0000 C   0  0  0  0  0  0  0  0  0  0  0  0
   -1.4458    1.1375    0.0000 C   0  0  0  0  0  0  0  0  0  0  0  0
   -1.5583   -1.6042    0.0000 C   0  0  0  0  0  0  0  0  0  0  0  0
   -2.1000   -2.1917    0.0000 C   0  0  0  0  0  0  0  0  0  0  0  0
   -2.0333    0.8208    0.0000 C   0  0  0  0  0  0  0  0  0  0  0  0
   -3.2083    2.1000    0.0000 C   0  0  0  0  0  0  0  0  0  0  0  0
   -3.8458   -1.2292    0.0000 C   0  0  0  0  0  0  0  0  0  0  0  0
   -1.0833   -0.3375    0.0000 N   0  0  0  0  0  0  0  0  0  0  0  0
   -0.8583    2.5458    0.0000 N   0  0  0  0  0  0  0  0  0  0  0  0
    0.0042    1.9833    0.0000 C   0  0  0  0  0  0  0  0  0  0  0  0
   -0.1208   -1.0750    0.0000 C   0  0  0  0  0  0  0  0  0  0  0  0
   -3.7833    1.7708    0.0000 O   0  0  0  0  0  0  0  0  0  0  0  0
   -4.1833   -0.6125    0.0000 O   0  0  0  0  0  0  0  0  0  0  0  0
    0.5167    2.7708    0.0000 C   0  0  0  0  0  0  0  0  0  0  0  0
    0.4917   -0.4250    0.0000 C   0  0  0  0  0  0  0  0  0  0  0  0
   -2.0333    2.8208    0.0000 I   0  0  0  0  0  0  0  0  0  0  0  0
   -2.7500   -0.1125    0.0000 I   0  0  0  0  0  0  0  0  0  0  0  0
    0.0042   -2.0167    0.0000 O   0  0  0  0  0  0  0  0  0  0  0  0
    0.3375    1.0375    0.0000 O   0  0  0  0  0  0  0  0  0  0  0  0
   -3.3583   -2.7792    0.0000 I   0  0  0  0  0  0  0  0  0  0  0  0
   -3.3208    0.5875    0.0000 I   0  0  0  0  0  0  0  0  0  0  0  0
   -0.6958    0.5875    0.0000 I   0  0  0  0  0  0  0  0  0  0  0  0
   -0.7958   -2.0167    0.0000 I   0  0  0  0  0  0  0  0  0  0  0  0
   -4.0708   -1.8500    0.0000 O   0  0  0  0  0  0  0  0  0  0  0  0
   -3.2208    2.7708    0.0000 O   0  0  0  0  0  0  0  0  0  0  0  0
    1.7417    2.8583    0.0000 O   0  0  0  0  0  0  0  0  0  0  0  0
    1.9000   -0.4542    0.0000 O   0  0  0  0  0  0  0  0  0  0  0  0
    1.2667    2.2125    0.0000 C   0  0  0  0  0  0  0  0  0  0  0  0
    1.1667   -1.1417    0.0000 C   0  0  0  0  0  0  0  0  0  0  0  0
    3.7375    1.5708    0.0000 O   0  0  0  0  0  0  0  0  0  0  0  0
    3.1917    0.3000    0.0000 O   0  0  0  0  0  0  0  0  0  0  0  0
    2.7792    2.5708    0.0000 C   0  0  0  0  0  0  0  0  0  0  0  0
    4.3417    1.0083    0.0000 C   0  0  0  0  0  0  0  0  0  0  0  0
    4.0542    0.2750    0.0000 C   0  0  0  0  0  0  0  0  0  0  0  0
    2.7792    1.7083    0.0000 C   0  0  0  0  0  0  0  0  0  0  0  0
    3.3792   -0.4792    0.0000 C   0  0  0  0  0  0  0  0  0  0  0  0
    2.6750   -0.9875    0.0000 C   0  0  0  0  0  0  0  0  0  0  0  0
  2  3  2  0
  3  6  1  0
  4  1  1  0
  5  4  2  0
  6 15  1  0
  7  1  2  0
  8 11  2  0
  9 12  2  0
 10  6  2  0
 11 10  1  0
 12  7  1  0
 13  1  1  0
 14  2  1  0
 15 18  1  0
 16  5  1  0
 17 16  1  0
 18 22  1  0
 19 13  2  0
 20 14  2  0
 21 17  1  0
 22 36  1  0
 23  4  1  0
 24  3  1  0
 25 18  2  0
 26 17  2  0
 27  8  1  0
 28  7  1  0
 29  9  1  0
 30 10  1  0
 31 14  1  0
 32 13  1  0
 33 35  1  0
 34 44  1  0
 35 21  1  0
 36 34  1  0
 37 42  1  0
 38 41  1  0
 39 33  1  0
 40 37  1  0
 41 40  1  0
 42 39  1  0
 43 38  1  0
 44 43  1  0
  5  9  1  0
  2  8  1  0
M  END
> <chembl_id>
CHEMBL1615487

> <chembl_pref_name>
IODOXAMIC ACID
