
     RDKit          2D

 28 31  0  0  0  0  0  0  0  0999 V2000
    6.0083   -0.9917    0.0000 C   0  0  0  0  0  0  0  0  0  0  0  0
    6.5792   -1.4125    0.0000 C   0  0  0  0  0  0  0  0  0  0  0  0
    6.2250   -0.3167    0.0000 N   0  0  0  0  0  0  0  0  0  0  0  0
    7.1542   -0.9917    0.0000 C   0  0  0  0  0  0  0  0  0  0  0  0
    6.9375   -0.3167    0.0000 C   0  0  0  0  0  0  0  0  0  0  0  0
    8.9250   -0.3875    0.0000 N   0  0  0  0  0  0  0  0  0  0  0  0
    5.3000   -1.0000    0.0000 O   0  0  0  0  0  0  0  0  0  0  0  0
    5.9625   -1.7625    0.0000 C   0  0  0  0  0  0  0  0  0  0  0  0
    7.2000   -1.7458    0.0000 C   0  0  0  0  0  0  0  0  0  0  0  0
    7.8625   -0.9917    0.0000 C   0  0  0  0  0  0  0  0  0  0  0  0
   10.3375   -0.3875    0.0000 O   0  0  0  0  0  0  0  0  0  0  0  0
    8.2167   -0.3833    0.0000 C   0  0  0  0  0  0  0  0  0  0  0  0
    5.6042    0.0375    0.0000 C   0  0  0  0  0  0  0  0  0  0  0  0
    9.2792    0.2250    0.0000 C   0  0  0  0  0  0  0  0  0  0  0  0
    9.2708   -1.0042    0.0000 C   0  0  0  0  0  0  0  0  0  0  0  0
    9.9833   -1.0042    0.0000 C   0  0  0  0  0  0  0  0  0  0  0  0
    9.9833    0.2250    0.0000 C   0  0  0  0  0  0  0  0  0  0  0  0
    7.2167   -2.4500    0.0000 C   0  0  0  0  0  0  0  0  0  0  0  0
    7.7958   -1.3750    0.0000 C   0  0  0  0  0  0  0  0  0  0  0  0
    5.3458   -1.3958    0.0000 C   0  0  0  0  0  0  0  0  0  0  0  0
    5.9542   -2.4708    0.0000 C   0  0  0  0  0  0  0  0  0  0  0  0
    4.9833   -0.3083    0.0000 C   0  0  0  0  0  0  0  0  0  0  0  0
    4.7250   -1.7458    0.0000 C   0  0  0  0  0  0  0  0  0  0  0  0
    5.3375   -2.8208    0.0000 C   0  0  0  0  0  0  0  0  0  0  0  0
    7.8375   -2.7833    0.0000 C   0  0  0  0  0  0  0  0  0  0  0  0
    8.4167   -1.7083    0.0000 C   0  0  0  0  0  0  0  0  0  0  0  0
    8.4375   -2.4125    0.0000 C   0  0  0  0  0  0  0  0  0  0  0  0
    4.7208   -2.4583    0.0000 C   0  0  0  0  0  0  0  0  0  0  0  0
  2  1  1  0
  3  1  1  0
  4  2  1  0
  5  3  1  0
  6 12  1  0
  7  1  2  0
  8  2  1  0
  9  2  1  0
 10  4  1  0
 11 16  1  0
 12 10  1  0
 13  3  1  0
 14  6  1  0
 15  6  1  0
 16 15  1  0
 17 14  1  0
 18  9  2  0
 19  9  1  0
 20  8  2  0
 21  8  1  0
 22 13  1  0
 23 20  1  0
 24 21  2  0
 25 18  1  0
 26 19  2  0
 27 26  1  0
 28 24  1  0
  4  5  1  0
 27 25  2  0
 28 23  2  0
 11 17  1  0
M  END
> <chembl_id>
CHEMBL1754

> <chembl_pref_name>
DOXAPRAM
