
     RDKit          2D

 33 35  0  0  1  0  0  0  0  0999 V2000
    2.2542   -2.3167    0.0000 N   0  0  0  0  0  0  0  0  0  0  0  0
    2.8875   -2.5792    0.0000 C   0  0  0  0  0  0  0  0  0  0  0  0
    2.2542   -1.4417    0.0000 C   0  0  0  0  0  0  0  0  0  0  0  0
    1.7875   -2.8292    0.0000 C   0  0  0  0  0  0  0  0  0  0  0  0
    2.8292   -3.3000    0.0000 C   0  0  0  0  0  0  0  0  0  0  0  0
    3.4750   -2.2292    0.0000 C   0  0  0  0  0  0  0  0  0  0  0  0
    1.0042   -1.4667    0.0000 N   0  0  0  0  0  0  0  0  0  0  0  0
    2.1333   -3.4542    0.0000 C   0  0  0  0  0  0  0  0  0  0  0  0
    1.6125   -1.1125    0.0000 C   0  0  0  0  0  0  0  0  0  0  0  0
    0.3792   -0.4292    0.0000 C   0  0  0  0  0  0  0  0  0  0  0  0
    0.3792   -1.1375    0.0000 C   0  0  0  0  0  0  0  0  0  0  0  0
    2.8542   -1.0792    0.0000 O   0  0  0  0  0  0  0  0  0  0  0  0
    3.4667   -1.5250    0.0000 O   0  0  0  0  0  0  0  0  0  0  0  0
    0.9625   -0.0667    0.0000 O   0  0  0  0  0  0  0  0  0  0  0  0
   -0.2208   -1.5042    0.0000 C   0  0  0  0  0  0  0  0  0  0  0  0
    4.0542   -2.5500    0.0000 O   0  0  0  0  0  0  0  0  0  0  0  0
   -0.2333   -0.1042    0.0000 O   0  0  0  0  0  0  0  0  0  0  0  0
   -0.8458   -1.1542    0.0000 C   0  0  0  0  0  0  0  0  0  0  0  0
   -1.4583   -1.5167    0.0000 C   0  0  0  0  0  0  0  0  0  0  0  0
    1.0750   -2.8417    0.0000 C   0  0  0  0  0  0  0  0  0  0  0  0
    1.8042   -4.0708    0.0000 C   0  0  0  0  0  0  0  0  0  0  0  0
    1.6125   -0.3792    0.0000 C   0  0  0  0  0  0  0  0  0  0  0  0
   -0.8458   -0.4667    0.0000 C   0  0  0  0  0  0  0  0  0  0  0  0
   -1.4583   -2.2375    0.0000 C   0  0  0  0  0  0  0  0  0  0  0  0
   -2.0708   -1.1542    0.0000 C   0  0  0  0  0  0  0  0  0  0  0  0
    0.7292   -3.4792    0.0000 C   0  0  0  0  0  0  0  0  0  0  0  0
    1.1125   -4.0667    0.0000 C   0  0  0  0  0  0  0  0  0  0  0  0
   -1.4500   -0.1167    0.0000 C   0  0  0  0  0  0  0  0  0  0  0  0
   -2.0708   -2.5917    0.0000 C   0  0  0  0  0  0  0  0  0  0  0  0
   -2.6833   -1.5167    0.0000 C   0  0  0  0  0  0  0  0  0  0  0  0
   -2.6833   -2.2375    0.0000 C   0  0  0  0  0  0  0  0  0  0  0  0
    1.4292   -2.2792    0.0000 H   0  0  0  0  0  0  0  0  0  0  0  0
    2.5167   -4.0292    0.0000 H   0  0  0  0  0  0  0  0  0  0  0  0
  2  1  1  0
  3  1  1  0
  4  1  1  0
  5  2  1  0
  2  6  1  6
  7  9  1  0
  8  4  1  0
  9  3  1  0
 11 10  1  1
 11  7  1  0
 12  3  2  0
 13  6  2  0
 14 10  2  0
 15 11  1  0
 16  6  1  0
 17 10  1  0
 18 15  1  0
 19 18  1  0
 20  4  1  0
 21  8  1  0
  9 22  1  1
 23 17  1  0
 24 19  2  0
 25 19  1  0
 26 20  1  0
 27 26  1  0
 28 23  1  0
 29 24  1  0
 30 25  2  0
 31 30  1  0
  4 32  1  1
  8 33  1  6
  5  8  1  0
 27 21  1  0
 31 29  2  0
M  END
> <chembl_id>
CHEMBL1519

> <chembl_pref_name>
TRANDOLAPRIL
