
     RDKit          2D

 14 14  0  0  0  0  0  0  0  0999 V2000
   -1.3000    0.8708    0.0000 C   0  0  0  0  0  0  0  0  0  0  0  0
    0.0625    0.8708    0.0000 N   0  0  0  0  0  0  0  0  0  0  0  0
   -2.1333   -0.3167    0.0000 N   0  0  0  0  0  0  0  0  0  0  0  0
   -1.7458    2.2083    0.0000 C   0  0  0  0  0  0  0  0  0  0  0  0
   -0.6458    3.0083    0.0000 N   0  0  0  0  0  0  0  0  0  0  0  0
    0.5125    2.2083    0.0000 C   0  0  0  0  0  0  0  0  0  0  0  0
    0.9000   -0.3167    0.0000 C   0  0  0  0  0  0  0  0  0  0  0  0
   -1.5458   -1.6000    0.0000 O   0  0  0  0  0  0  0  0  0  0  0  0
   -3.5333   -0.2000    0.0000 O   0  0  0  0  0  0  0  0  0  0  0  0
    0.3000   -1.6000    0.0000 C   0  0  0  0  0  0  0  0  0  0  0  0
   -0.2875   -2.8792    0.0000 O   0  0  0  0  0  0  0  0  0  0  0  0
    3.2167   -1.8542    0.0000 Cl  0  0  0  0  0  0  0  0  0  0  0  0
    1.8500    2.6583    0.0000 C   0  0  0  0  0  0  0  0  0  0  0  0
    1.8500   -2.2792    0.0000 C   0  0  0  0  0  0  0  0  0  0  0  0
  2  1  1  0
  3  1  1  0
  4  1  2  0
  5  4  1  0
  6  2  1  0
  7  2  1  0
  8  3  1  0
  9  3  2  0
 10  7  1  0
 11 10  1  0
 12 14  1  0
 13  6  1  0
 14 10  1  0
  6  5  2  0
M  CHG  2   3   1   8  -1
M  END
> <chembl_id>
CHEMBL1449676

> <chembl_pref_name>
ORNIDAZOLE
