
     RDKit          2D

 42 47  0  0  0  0  0  0  0  0999 V2000
   -1.8208    0.4500    0.0000 N   0  0  0  0  0  0  0  0  0  0  0  0
   -2.3042   -0.2208    0.0000 C   0  0  0  0  0  0  0  0  0  0  0  0
   -1.8208   -0.8875    0.0000 N   0  0  0  0  0  0  0  0  0  0  0  0
   -5.0083    3.3167    0.0000 C   0  0  0  0  0  0  0  0  0  0  0  0
   -4.1875    3.2292    0.0000 N   0  0  0  0  0  0  0  0  0  0  0  0
   -1.0375    0.1917    0.0000 C   0  0  0  0  0  0  0  0  0  0  0  0
   -0.3208    0.6042    0.0000 C   0  0  0  0  0  0  0  0  0  0  0  0
   -5.1792    4.1208    0.0000 N   0  0  0  0  0  0  0  0  0  0  0  0
    1.1083    3.0792    0.0000 C   0  0  0  0  0  0  0  0  0  0  0  0
    2.0000    4.0708    0.0000 C   0  0  0  0  0  0  0  0  0  0  0  0
   -1.0375   -0.6333    0.0000 C   0  0  0  0  0  0  0  0  0  0  0  0
   -3.8500    3.9833    0.0000 C   0  0  0  0  0  0  0  0  0  0  0  0
    1.1917    3.9000    0.0000 O   0  0  0  0  0  0  0  0  0  0  0  0
    2.4125    3.3583    0.0000 O   0  0  0  0  0  0  0  0  0  0  0  0
    1.8625    2.7458    0.0000 C   0  0  0  0  0  0  0  0  0  0  0  0
   -5.5583    2.7042    0.0000 C   0  0  0  0  0  0  0  0  0  0  0  0
   -0.3208    1.4292    0.0000 C   0  0  0  0  0  0  0  0  0  0  0  0
   -4.4625    4.5333    0.0000 O   0  0  0  0  0  0  0  0  0  0  0  0
   -5.3042    1.9208    0.0000 C   0  0  0  0  0  0  0  0  0  0  0  0
   -2.0750    1.2333    0.0000 C   0  0  0  0  0  0  0  0  0  0  0  0
    0.3917    1.8417    0.0000 O   0  0  0  0  0  0  0  0  0  0  0  0
    0.3917    2.6667    0.0000 C   0  0  0  0  0  0  0  0  0  0  0  0
   -4.4958    1.7458    0.0000 C   0  0  0  0  0  0  0  0  0  0  0  0
    2.3375    4.8208    0.0000 O   0  0  0  0  0  0  0  0  0  0  0  0
   -3.0417    4.1500    0.0000 O   0  0  0  0  0  0  0  0  0  0  0  0
   -1.0375    1.8417    0.0000 O   0  0  0  0  0  0  0  0  0  0  0  0
   -3.1292   -0.2208    0.0000 O   0  0  0  0  0  0  0  0  0  0  0  0
   -4.2417    0.9625    0.0000 C   0  0  0  0  0  0  0  0  0  0  0  0
   -3.9458    2.3625    0.0000 C   0  0  0  0  0  0  0  0  0  0  0  0
   -2.8833    1.4042    0.0000 C   0  0  0  0  0  0  0  0  0  0  0  0
    0.3917    0.1917    0.0000 C   0  0  0  0  0  0  0  0  0  0  0  0
   -3.4333    0.7917    0.0000 C   0  0  0  0  0  0  0  0  0  0  0  0
   -3.1375    2.1875    0.0000 C   0  0  0  0  0  0  0  0  0  0  0  0
   -0.3208   -1.0458    0.0000 C   0  0  0  0  0  0  0  0  0  0  0  0
    2.0333    1.9375    0.0000 C   0  0  0  0  0  0  0  0  0  0  0  0
   -6.3625    2.8750    0.0000 C   0  0  0  0  0  0  0  0  0  0  0  0
   -5.8542    1.3083    0.0000 C   0  0  0  0  0  0  0  0  0  0  0  0
    0.3917   -0.6333    0.0000 C   0  0  0  0  0  0  0  0  0  0  0  0
   -3.5417   -0.9333    0.0000 C   0  0  0  0  0  0  0  0  0  0  0  0
   -6.9125    2.2625    0.0000 C   0  0  0  0  0  0  0  0  0  0  0  0
   -6.6583    1.4792    0.0000 C   0  0  0  0  0  0  0  0  0  0  0  0
   -4.3667   -0.9333    0.0000 C   0  0  0  0  0  0  0  0  0  0  0  0
  2  1  1  0
  3  2  2  0
  4 16  1  0
  5  4  1  0
  6  1  1  0
  7  6  2  0
  8  4  2  0
  9 22  1  0
 10 13  1  0
 11  6  1  0
 12  5  1  0
 13  9  1  0
 14 15  1  0
 15  9  2  0
 16 19  1  0
 17  7  1  0
 18  8  1  0
 19 23  1  0
 20  1  1  0
 21 17  1  0
 22 21  1  0
 23 28  1  0
 24 10  2  0
 25 12  2  0
 26 17  2  0
 27  2  1  0
 28 32  2  0
 29 33  1  0
 30 20  1  0
 31  7  1  0
 32 30  1  0
 33 30  2  0
 34 11  2  0
 35 15  1  0
 36 16  2  0
 37 19  2  0
 38 34  1  0
 39 27  1  0
 40 41  2  0
 41 37  1  0
 42 39  1  0
  3 11  1  0
 29 23  2  0
 38 31  2  0
 14 10  1  0
 36 40  1  0
 18 12  1  0
M  END
> <chembl_id>
CHEMBL2028661

> <chembl_pref_name>
AZILSARTAN MEDOXOMIL
