
     RDKit          2D

  8  8  0  0  0  0  0  0  0  0999 V2000
    6.3958   -1.4042    0.0000 N   0  0  0  0  0  0  0  0  0  0  0  0
    5.8208   -0.9875    0.0000 N   0  0  0  0  0  0  0  0  0  0  0  0
    6.1792   -2.0792    0.0000 C   0  0  0  0  0  0  0  0  0  0  0  0
    5.4667   -2.0792    0.0000 C   0  0  0  0  0  0  0  0  0  0  0  0
    5.2500   -1.4083    0.0000 C   0  0  0  0  0  0  0  0  0  0  0  0
    6.7958   -2.4333    0.0000 C   0  0  0  0  0  0  0  0  0  0  0  0
    8.0292   -2.4208    0.0000 N   0  0  0  0  0  0  0  0  0  0  0  0
    7.4083   -2.0708    0.0000 C   0  0  0  0  0  0  0  0  0  0  0  0
  2  1  1  0
  3  1  2  0
  4  3  1  0
  5  2  1  0
  6  3  1  0
  7  8  1  0
  8  6  1  0
  5  4  2  0
M  END
> <chembl_id>
CHEMBL1201323

> <chembl_pref_name>
BETAZOLE
