
     RDKit          2D

 23 25  0  0  0  0  0  0  0  0999 V2000
    0.6375    0.5625    0.0000 C   0  0  0  0  0  0  0  0  0  0  0  0
    1.5417   -0.1542    0.0000 C   0  0  0  0  0  0  0  0  0  0  0  0
    1.5417    2.4750    0.0000 N   0  0  0  0  0  0  0  0  0  0  0  0
    0.6417    1.7583    0.0000 C   0  0  0  0  0  0  0  0  0  0  0  0
    2.6917    0.1000    0.0000 N   0  0  0  0  0  0  0  0  0  0  0  0
   -2.3750   -0.0292    0.0000 N   0  0  0  0  0  0  0  0  0  0  0  0
    1.2792   -1.3000    0.0000 C   0  0  0  0  0  0  0  0  0  0  0  0
    2.6917    2.2208    0.0000 C   0  0  0  0  0  0  0  0  0  0  0  0
   -0.3708   -0.0042    0.0000 C   0  0  0  0  0  0  0  0  0  0  0  0
   -1.4000    0.5750    0.0000 C   0  0  0  0  0  0  0  0  0  0  0  0
   -0.3833    2.3333    0.0000 C   0  0  0  0  0  0  0  0  0  0  0  0
    3.1792    1.1625    0.0000 C   0  0  0  0  0  0  0  0  0  0  0  0
   -3.3625    0.5458    0.0000 O   0  0  0  0  0  0  0  0  0  0  0  0
   -2.3833   -1.1917    0.0000 O   0  0  0  0  0  0  0  0  0  0  0  0
    2.1250   -2.1000    0.0000 C   0  0  0  0  0  0  0  0  0  0  0  0
   -1.4125    1.7708    0.0000 C   0  0  0  0  0  0  0  0  0  0  0  0
    3.4167    3.1125    0.0000 O   0  0  0  0  0  0  0  0  0  0  0  0
    1.2542    3.5958    0.0000 C   0  0  0  0  0  0  0  0  0  0  0  0
    3.2375   -1.7417    0.0000 F   0  0  0  0  0  0  0  0  0  0  0  0
    0.1792   -1.6250    0.0000 C   0  0  0  0  0  0  0  0  0  0  0  0
    1.8500   -3.2542    0.0000 C   0  0  0  0  0  0  0  0  0  0  0  0
   -0.1000   -2.7667    0.0000 C   0  0  0  0  0  0  0  0  0  0  0  0
    0.7292   -3.5917    0.0000 C   0  0  0  0  0  0  0  0  0  0  0  0
  2  1  1  0
  3  4  1  0
  4  1  2  0
  5  2  2  0
  6 10  1  0
  7  2  1  0
  8  3  1  0
  9  1  1  0
 10  9  2  0
 11  4  1  0
 12  5  1  0
 13  6  1  0
 14  6  2  0
 15  7  1  0
 16 10  1  0
 17  8  2  0
 18  3  1  0
 19 15  1  0
 20  7  2  0
 21 15  2  0
 22 20  1  0
 23 22  2  0
 11 16  2  0
 12  8  1  0
 21 23  1  0
M  CHG  2   6   1  13  -1
M  END
> <chembl_id>
CHEMBL13280

> <chembl_pref_name>
FLUNITRAZEPAM
