
     RDKit          2D

 14 16  0  0  1  0  0  0  0  0999 V2000
    5.2042   -2.9083    0.0000 C   0  0  0  0  0  0  0  0  0  0  0  0
    4.6292   -2.4917    0.0000 N   0  0  0  0  0  0  0  0  0  0  0  0
    4.9875   -3.5833    0.0000 N   0  0  0  0  0  0  0  0  0  0  0  0
    4.0583   -2.9083    0.0000 C   0  0  0  0  0  0  0  0  0  0  0  0
    4.2750   -3.5833    0.0000 C   0  0  0  0  0  0  0  0  0  0  0  0
    5.9125   -2.9125    0.0000 S   0  0  0  0  0  0  0  0  0  0  0  0
    3.4417   -2.5542    0.0000 C   0  0  0  0  0  0  0  0  0  0  0  0
    5.5583   -3.9958    0.0000 C   0  0  0  0  0  0  0  0  0  0  0  0
    6.1292   -3.5833    0.0000 C   0  0  0  0  0  0  0  0  0  0  0  0
    3.4417   -1.8417    0.0000 C   0  0  0  0  0  0  0  0  0  0  0  0
    2.8292   -2.9083    0.0000 C   0  0  0  0  0  0  0  0  0  0  0  0
    2.8292   -1.4875    0.0000 C   0  0  0  0  0  0  0  0  0  0  0  0
    2.2167   -2.5542    0.0000 C   0  0  0  0  0  0  0  0  0  0  0  0
    2.2167   -1.8417    0.0000 C   0  0  0  0  0  0  0  0  0  0  0  0
  2  1  2  0
  3  1  1  0
  4  2  1  0
  5  3  1  0
  6  1  1  0
  4  7  1  6
  8  3  1  0
  9  6  1  0
 10  7  1  0
 11  7  2  0
 12 10  2  0
 13 11  1  0
 14 12  1  0
  9  8  1  0
  5  4  1  0
 13 14  2  0
M  END
> <chembl_id>
CHEMBL1454

> <chembl_pref_name>
LEVAMISOLE
