
     RDKit          2D

 17 18  0  0  0  0  0  0  0  0999 V2000
    0.6167   -0.8667    0.0000 C   0  0  0  0  0  0  0  0  0  0  0  0
    1.9500   -0.4917    0.0000 C   0  0  0  0  0  0  0  0  0  0  0  0
    0.7000    1.3708    0.0000 N   0  0  0  0  0  0  0  0  0  0  0  0
    1.9667    0.8958    0.0000 C   0  0  0  0  0  0  0  0  0  0  0  0
   -0.1708    0.3083    0.0000 N   0  0  0  0  0  0  0  0  0  0  0  0
    3.0875   -1.3625    0.0000 N   0  0  0  0  0  0  0  0  0  0  0  0
    0.1667   -2.2000    0.0000 O   0  0  0  0  0  0  0  0  0  0  0  0
   -1.5375    0.3083    0.0000 C   0  0  0  0  0  0  0  0  0  0  0  0
    0.3542    2.7333    0.0000 C   0  0  0  0  0  0  0  0  0  0  0  0
    3.2792    1.5958    0.0000 C   0  0  0  0  0  0  0  0  0  0  0  0
    3.1042   -2.7292    0.0000 C   0  0  0  0  0  0  0  0  0  0  0  0
    4.3375   -0.7917    0.0000 C   0  0  0  0  0  0  0  0  0  0  0  0
   -2.2583    1.5208    0.0000 C   0  0  0  0  0  0  0  0  0  0  0  0
   -2.2583   -0.9042    0.0000 C   0  0  0  0  0  0  0  0  0  0  0  0
   -3.6208    1.5208    0.0000 C   0  0  0  0  0  0  0  0  0  0  0  0
   -3.6208   -0.9042    0.0000 C   0  0  0  0  0  0  0  0  0  0  0  0
   -4.3458    0.3083    0.0000 C   0  0  0  0  0  0  0  0  0  0  0  0
  2  1  1  0
  3  5  1  0
  4  2  2  0
  5  1  1  0
  6  2  1  0
  7  1  2  0
  8  5  1  0
  9  3  1  0
 10  4  1  0
 11  6  1  0
 12  6  1  0
 13  8  2  0
 14  8  1  0
 15 13  1  0
 16 14  2  0
 17 16  1  0
  3  4  1  0
 15 17  2  0
M  END
> <chembl_id>
CHEMBL288470

> <chembl_pref_name>
AMINOPYRINE
