
     RDKit          2D

 31 34  0  0  1  0  0  0  0  0999 V2000
   -1.9292   -4.9917    0.0000 C   0  0  0  0  0  0  0  0  0  0  0  0
   -0.0833   -3.9458    0.0000 C   0  0  0  0  0  0  0  0  0  0  0  0
    0.5917   -3.7333    0.0000 C   0  0  0  0  0  0  0  0  0  0  0  0
   -1.9292   -5.7042    0.0000 C   0  0  0  0  0  0  0  0  0  0  0  0
   -0.7042   -5.0000    0.0000 C   0  0  0  0  0  0  0  0  0  0  0  0
   -1.3167   -4.6417    0.0000 C   0  0  0  0  0  0  0  0  0  0  0  0
   -0.0917   -4.6500    0.0000 C   0  0  0  0  0  0  0  0  0  0  0  0
   -0.7083   -5.7083    0.0000 C   0  0  0  0  0  0  0  0  0  0  0  0
   -2.5417   -6.0542    0.0000 C   0  0  0  0  0  0  0  0  0  0  0  0
   -1.3208   -6.0583    0.0000 C   0  0  0  0  0  0  0  0  0  0  0  0
   -0.6958   -3.5833    0.0000 C   0  0  0  0  0  0  0  0  0  0  0  0
    1.0000   -4.3083    0.0000 C   0  0  0  0  0  0  0  0  0  0  0  0
    1.2042   -3.3750    0.0000 O   0  0  0  0  0  0  0  0  0  0  0  0
   -1.3125   -3.9333    0.0000 C   0  0  0  0  0  0  0  0  0  0  0  0
    0.5792   -4.8792    0.0000 C   0  0  0  0  0  0  0  0  0  0  0  0
   -2.5417   -4.6417    0.0000 C   0  0  0  0  0  0  0  0  0  0  0  0
    0.5875   -3.0250    0.0000 C   0  0  0  0  0  0  0  0  0  0  0  0
    1.8208   -3.7208    0.0000 C   0  0  0  0  0  0  0  0  0  0  0  0
   -3.1500   -5.7042    0.0000 C   0  0  0  0  0  0  0  0  0  0  0  0
    1.8250   -4.4292    0.0000 O   0  0  0  0  0  0  0  0  0  0  0  0
   -0.0292   -2.6750    0.0000 O   0  0  0  0  0  0  0  0  0  0  0  0
   -3.7667   -6.0542    0.0000 O   0  0  0  0  0  0  0  0  0  0  0  0
   -3.1500   -4.9917    0.0000 C   0  0  0  0  0  0  0  0  0  0  0  0
   -1.9333   -4.2875    0.0000 C   0  0  0  0  0  0  0  0  0  0  0  0
   -0.0875   -3.2375    0.0000 C   0  0  0  0  0  0  0  0  0  0  0  0
   -1.3250   -6.7667    0.0000 C   0  0  0  0  0  0  0  0  0  0  0  0
    2.4292   -3.3625    0.0000 C   0  0  0  0  0  0  0  0  0  0  0  0
    1.1958   -2.6625    0.0000 C   0  0  0  0  0  0  0  0  0  0  0  0
   -0.7083   -4.2917    0.0000 H   0  0  0  0  0  0  0  0  0  0  0  0
   -0.0958   -5.3542    0.0000 H   0  0  0  0  0  0  0  0  0  0  0  0
   -1.3208   -5.3500    0.0000 H   0  0  0  0  0  0  0  0  0  0  0  0
  2 11  1  0
  3  2  1  0
  4  1  1  0
  5  6  1  0
  6  1  1  0
  7  5  1  0
  8 10  1  0
  9  4  2  0
 10  4  1  0
 11 14  1  0
 12 15  1  0
 13  3  1  0
 14  6  1  0
 15  7  1  0
 16  1  1  0
  3 17  1  1
 18 13  1  0
 19  9  1  0
 20 18  2  0
 21 17  2  0
 22 19  2  0
 23 16  1  0
  1 24  1  1
  2 25  1  1
 10 26  1  6
 27 18  1  0
 28 17  1  0
  5 29  1  1
  7 30  1  6
  6 31  1  6
 19 23  1  0
  5  8  1  0
  7  2  1  0
  3 12  1  0
M  END
> <chembl_id>
CHEMBL717

> <chembl_pref_name>
MEDROXYPROGESTERONE ACETATE
