
     RDKit          2D

124134  0  0  0  0  0  0  0  0999 V2000
   12.5875   -0.4375    0.0000 N   0  0  0  0  0  0  0  0  0  0  0  0
   11.9750   -0.7792    0.0000 C   0  0  0  0  0  0  0  0  0  0  0  0
    8.0542    0.7875    0.0000 C   0  0  0  0  0  0  0  0  0  0  0  0
    2.3917   -1.6167    0.0000 C   0  0  0  0  0  0  0  0  0  0  0  0
    4.3167   -0.5667    0.0000 C   0  0  0  0  0  0  0  0  0  0  0  0
    2.4917   -0.1792    0.0000 C   0  0  0  0  0  0  0  0  0  0  0  0
    0.6417   -0.5167    0.0000 C   0  0  0  0  0  0  0  0  0  0  0  0
    8.0125   -0.6167    0.0000 C   0  0  0  0  0  0  0  0  0  0  0  0
    6.1667   -0.2417    0.0000 C   0  0  0  0  0  0  0  0  0  0  0  0
   10.1292   -0.4292    0.0000 C   0  0  0  0  0  0  0  0  0  0  0  0
   -1.1875   -0.1417    0.0000 C   0  0  0  0  0  0  0  0  0  0  0  0
   -2.3625   -0.1167    0.0000 N   0  0  0  0  0  0  0  0  0  0  0  0
   13.1625   -0.8542    0.0000 C   0  0  0  0  0  0  0  0  0  0  0  0
    3.1000   -0.5500    0.0000 N   0  0  0  0  0  0  0  0  0  0  0  0
    3.7167   -0.1917    0.0000 C   0  0  0  0  0  0  0  0  0  0  0  0
    3.5250   -1.6375    0.0000 N   0  0  0  0  0  0  0  0  0  0  0  0
    9.2042    0.7625    0.0000 N   0  0  0  0  0  0  0  0  0  0  0  0
    4.9500   -0.2167    0.0000 N   0  0  0  0  0  0  0  0  0  0  0  0
    6.7792   -0.6000    0.0000 N   0  0  0  0  0  0  0  0  0  0  0  0
    1.2667   -0.1667    0.0000 N   0  0  0  0  0  0  0  0  0  0  0  0
   -0.5833   -0.4917    0.0000 N   0  0  0  0  0  0  0  0  0  0  0  0
    8.6292   -0.2750    0.0000 N   0  0  0  0  0  0  0  0  0  0  0  0
   10.7500   -0.7792    0.0000 N   0  0  0  0  0  0  0  0  0  0  0  0
    8.6167    0.3583    0.0000 C   0  0  0  0  0  0  0  0  0  0  0  0
    2.9625   -1.2167    0.0000 C   0  0  0  0  0  0  0  0  0  0  0  0
    0.0375   -0.1542    0.0000 C   0  0  0  0  0  0  0  0  0  0  0  0
    7.4000   -0.2542    0.0000 C   0  0  0  0  0  0  0  0  0  0  0  0
    1.8667   -0.5375    0.0000 C   0  0  0  0  0  0  0  0  0  0  0  0
   13.1625   -1.4875    0.0000 C   0  0  0  0  0  0  0  0  0  0  0  0
    1.2167    0.5833    0.0000 N   0  0  0  0  0  0  0  0  0  0  0  0
    5.5292   -0.5750    0.0000 C   0  0  0  0  0  0  0  0  0  0  0  0
    9.5167   -0.7792    0.0000 C   0  0  0  0  0  0  0  0  0  0  0  0
   11.3625   -0.4292    0.0000 C   0  0  0  0  0  0  0  0  0  0  0  0
   -1.8083   -0.5292    0.0000 C   0  0  0  0  0  0  0  0  0  0  0  0
   13.2042    1.3458    0.0000 C   0  0  0  0  0  0  0  0  0  0  0  0
   -2.9458   -0.5125    0.0000 C   0  0  0  0  0  0  0  0  0  0  0  0
    2.6000   -2.2917    0.0000 C   0  0  0  0  0  0  0  0  0  0  0  0
    8.2917    1.4500    0.0000 C   0  0  0  0  0  0  0  0  0  0  0  0
    1.8667   -1.2292    0.0000 C   0  0  0  0  0  0  0  0  0  0  0  0
    7.3750    0.4500    0.0000 C   0  0  0  0  0  0  0  0  0  0  0  0
    0.6292    0.9833    0.0000 C   0  0  0  0  0  0  0  0  0  0  0  0
    0.0292    0.6208    0.0000 C   0  0  0  0  0  0  0  0  0  0  0  0
   13.7750   -1.8417    0.0000 N   0  0  0  0  0  0  0  0  0  0  0  0
    1.5417    1.6500    0.0000 N   0  0  0  0  0  0  0  0  0  0  0  0
    1.7750    1.0125    0.0000 C   0  0  0  0  0  0  0  0  0  0  0  0
    8.9917    1.4708    0.0000 C   0  0  0  0  0  0  0  0  0  0  0  0
    3.3042   -2.2917    0.0000 C   0  0  0  0  0  0  0  0  0  0  0  0
   15.0042   -1.8417    0.0000 C   0  0  0  0  0  0  0  0  0  0  0  0
   13.2042    0.6375    0.0000 N   0  0  0  0  0  0  0  0  0  0  0  0
   11.9750   -1.4875    0.0000 O   0  0  0  0  0  0  0  0  0  0  0  0
    0.8375    1.6500    0.0000 C   0  0  0  0  0  0  0  0  0  0  0  0
    4.3167   -1.2625    0.0000 O   0  0  0  0  0  0  0  0  0  0  0  0
   10.1292    0.2750    0.0000 O   0  0  0  0  0  0  0  0  0  0  0  0
    0.6375   -1.2250    0.0000 O   0  0  0  0  0  0  0  0  0  0  0  0
    2.5000    0.5250    0.0000 O   0  0  0  0  0  0  0  0  0  0  0  0
    8.0167   -1.3375    0.0000 O   0  0  0  0  0  0  0  0  0  0  0  0
    6.1875    0.4708    0.0000 O   0  0  0  0  0  0  0  0  0  0  0  0
   -1.1958    0.5708    0.0000 O   0  0  0  0  0  0  0  0  0  0  0  0
    5.5042   -1.3875    0.0000 C   0  0  0  0  0  0  0  0  0  0  0  0
   12.7000   -1.7292    0.0000 O   0  0  0  0  0  0  0  0  0  0  0  0
    9.5167   -1.4917    0.0000 C   0  0  0  0  0  0  0  0  0  0  0  0
   -3.6125   -0.2750    0.0000 O   0  0  0  0  0  0  0  0  0  0  0  0
   15.0042   -2.5542    0.0000 O   0  0  0  0  0  0  0  0  0  0  0  0
   -2.0250   -1.1792    0.0000 C   0  0  0  0  0  0  0  0  0  0  0  0
   12.5792    1.7000    0.0000 N   0  0  0  0  0  0  0  0  0  0  0  0
   14.3875   -1.4875    0.0000 C   0  0  0  0  0  0  0  0  0  0  0  0
   13.8167    1.7083    0.0000 N   0  0  0  0  0  0  0  0  0  0  0  0
   12.8125    0.2333    0.0000 C   0  0  0  0  0  0  0  0  0  0  0  0
   -2.7458   -1.1875    0.0000 C   0  0  0  0  0  0  0  0  0  0  0  0
   15.5875   -1.5125    0.0000 N   0  0  0  0  0  0  0  0  0  0  0  0
    6.1042   -1.7542    0.0000 C   0  0  0  0  0  0  0  0  0  0  0  0
    7.3542   -2.4875    0.0000 C   0  0  0  0  0  0  0  0  0  0  0  0
    3.7167    0.4833    0.0000 C   0  0  0  0  0  0  0  0  0  0  0  0
    6.7292   -1.3875    0.0000 C   0  0  0  0  0  0  0  0  0  0  0  0
    6.1042   -2.4667    0.0000 C   0  0  0  0  0  0  0  0  0  0  0  0
    6.7125   -2.8292    0.0000 C   0  0  0  0  0  0  0  0  0  0  0  0
    7.3417   -1.7750    0.0000 C   0  0  0  0  0  0  0  0  0  0  0  0
   13.7292   -0.4375    0.0000 C   0  0  0  0  0  0  0  0  0  0  0  0
    7.9417   -2.8417    0.0000 O   0  0  0  0  0  0  0  0  0  0  0  0
    4.3375    0.8375    0.0000 O   0  0  0  0  0  0  0  0  0  0  0  0
   13.5167    0.2333    0.0000 C   0  0  0  0  0  0  0  0  0  0  0  0
   11.3542    0.2833    0.0000 C   0  0  0  0  0  0  0  0  0  0  0  0
    2.2167   -2.8917    0.0000 C   0  0  0  0  0  0  0  0  0  0  0  0
    7.9417    2.0792    0.0000 C   0  0  0  0  0  0  0  0  0  0  0  0
   10.1375   -1.8542    0.0000 C   0  0  0  0  0  0  0  0  0  0  0  0
    9.3542    2.0458    0.0000 C   0  0  0  0  0  0  0  0  0  0  0  0
    3.6417   -2.9292    0.0000 C   0  0  0  0  0  0  0  0  0  0  0  0
   11.9667    1.3458    0.0000 C   0  0  0  0  0  0  0  0  0  0  0  0
   11.9667    0.6375    0.0000 C   0  0  0  0  0  0  0  0  0  0  0  0
   10.7500   -1.4917    0.0000 C   0  0  0  0  0  0  0  0  0  0  0  0
   10.1417   -2.5625    0.0000 C   0  0  0  0  0  0  0  0  0  0  0  0
    2.5625   -3.5167    0.0000 C   0  0  0  0  0  0  0  0  0  0  0  0
    8.3125    2.6708    0.0000 C   0  0  0  0  0  0  0  0  0  0  0  0
    3.2792   -3.5042    0.0000 C   0  0  0  0  0  0  0  0  0  0  0  0
    9.0250    2.6708    0.0000 C   0  0  0  0  0  0  0  0  0  0  0  0
    5.3792   -4.5708    0.0000 C   0  0  0  0  0  0  0  0  0  0  0  0
    8.9875   -5.5583    0.0000 C   0  0  0  0  0  0  0  0  0  0  0  0
    6.4458   -5.1833    0.0000 C   0  0  0  0  0  0  0  0  0  0  0  0
    7.7625   -5.5458    0.0000 C   0  0  0  0  0  0  0  0  0  0  0  0
    6.0917   -4.5667    0.0000 C   0  0  0  0  0  0  0  0  0  0  0  0
    8.3792   -5.2000    0.0000 C   0  0  0  0  0  0  0  0  0  0  0  0
    7.1542   -5.1833    0.0000 C   0  0  0  0  0  0  0  0  0  0  0  0
    5.0250   -5.1833    0.0000 C   0  0  0  0  0  0  0  0  0  0  0  0
    8.9833   -6.2708    0.0000 C   0  0  0  0  0  0  0  0  0  0  0  0
    9.6042   -5.2083    0.0000 C   0  0  0  0  0  0  0  0  0  0  0  0
    5.0208   -3.9583    0.0000 C   0  0  0  0  0  0  0  0  0  0  0  0
    7.7542   -6.2542    0.0000 C   0  0  0  0  0  0  0  0  0  0  0  0
    6.0917   -5.7958    0.0000 C   0  0  0  0  0  0  0  0  0  0  0  0
    5.3792   -5.7958    0.0000 C   0  0  0  0  0  0  0  0  0  0  0  0
    8.3625   -6.6167    0.0000 C   0  0  0  0  0  0  0  0  0  0  0  0
   10.2167   -5.5667    0.0000 O   0  0  0  0  0  0  0  0  0  0  0  0
    4.3125   -3.9583    0.0000 O   0  0  0  0  0  0  0  0  0  0  0  0
    8.3875   -4.4917    0.0000 O   0  0  0  0  0  0  0  0  0  0  0  0
    6.4458   -3.9542    0.0000 O   0  0  0  0  0  0  0  0  0  0  0  0
    9.6125   -4.5000    0.0000 O   0  0  0  0  0  0  0  0  0  0  0  0
    5.3750   -3.3417    0.0000 O   0  0  0  0  0  0  0  0  0  0  0  0
    6.4458   -6.4083    0.0000 C   0  0  0  0  0  0  0  0  0  0  0  0
    7.1375   -6.6000    0.0000 C   0  0  0  0  0  0  0  0  0  0  0  0
    5.0292   -6.4042    0.0000 C   0  0  0  0  0  0  0  0  0  0  0  0
    8.3542   -7.3208    0.0000 C   0  0  0  0  0  0  0  0  0  0  0  0
    6.0917   -7.0208    0.0000 C   0  0  0  0  0  0  0  0  0  0  0  0
    7.1292   -7.3083    0.0000 C   0  0  0  0  0  0  0  0  0  0  0  0
    5.3792   -7.0167    0.0000 C   0  0  0  0  0  0  0  0  0  0  0  0
    7.7417   -7.6708    0.0000 C   0  0  0  0  0  0  0  0  0  0  0  0
  2  1  1  0
  3 40  1  0
  4 39  1  0
  5 18  1  0
  6 14  1  0
  7 20  1  0
  8 22  1  0
  9 19  1  0
 10 23  1  0
 11 21  1  0
 12 34  1  0
 13  1  1  0
 15 14  1  1
 15  5  1  0
 16 25  1  0
 17 24  1  0
 31 18  1  6
 27 19  1  6
 28 20  1  6
 26 21  1  1
 32 22  1  6
 33 23  1  1
 24  3  2  0
 25  4  2  0
 26  7  1  0
 27  8  1  0
 28  6  1  0
 13 29  1  1
 30 41  1  0
 31  9  1  0
 32 10  1  0
 33  2  1  0
 34 11  1  6
 35 65  1  0
 36 12  1  0
 37  4  1  0
 38  3  1  0
 28 39  1  0
 27 40  1  0
 41 42  1  0
 26 42  1  0
 43 29  1  0
 44 51  1  0
 45 30  2  0
 46 38  2  0
 47 37  2  0
 48 66  1  0
 49 35  2  0
 50  2  2  0
 51 41  2  0
 52  5  2  0
 53 10  2  0
 54  7  2  0
 55  6  2  0
 56  8  2  0
 57  9  2  0
 58 11  2  0
 31 59  1  0
 60 29  2  0
 32 61  1  0
 62 36  2  0
 63 48  2  0
 64 34  1  0
 65 88  1  0
 66 43  1  0
 67 35  1  0
 68  1  1  0
 69 64  1  0
 70 48  1  0
 71 59  1  0
 72 76  1  0
 15 73  1  0
 74 71  2  0
 75 71  1  0
 76 75  2  0
 77 74  1  0
 78 13  1  0
 79 72  1  0
 80 73  1  0
 81 68  1  0
 33 82  1  0
 83 37  1  0
 84 38  1  0
 85 61  1  0
 86 46  1  0
 87 47  1  0
 88 89  1  0
 89 82  1  0
 90 85  1  0
 91 85  1  0
 92 83  2  0
 93 84  2  0
 94 92  1  0
 95 93  1  0
 81 78  1  0
 46 17  1  0
 95 86  2  0
 77 72  2  0
 47 16  1  0
 94 87  2  0
 45 44  1  0
 69 36  1  0
 97101  2  0
 98100  2  0
 99102  1  0
100 96  1  0
101 99  1  0
102 98  1  0
103 96  2  0
104 97  1  0
105 97  1  0
106 96  1  0
107 99  2  0
108109  1  0
109103  1  0
110107  1  0
111105  2  0
112106  2  0
113101  1  0
114100  1  0
115105  1  0
116106  1  0
117108  2  0
118107  1  0
119109  2  0
120110  1  0
121123  2  0
122118  2  0
123119  1  0
124122  1  0
 98108  1  0
117121  1  0
104110  2  0
120124  2  0
M  END
> <chembl_id>
CHEMBL1200554

> <chembl_pref_name>
TRIPTORELIN PAMOATE
