
     RDKit          2D

104113  0  0  0  0  0  0  0  0999 V2000
   -6.6659   -5.5018    0.0000 C   0  0  0  0  0  0  0  0  0  0  0  0
   -6.1976   -6.1810    0.0000 N   0  0  0  0  0  0  0  0  0  0  0  0
   -5.3752   -6.1150    0.0000 C   0  0  0  0  0  0  0  0  0  0  0  0
   -4.9069   -6.7942    0.0000 C   0  0  0  0  0  0  0  0  0  0  0  0
   -5.2609   -7.5394    0.0000 C   0  0  0  0  0  0  0  0  0  0  0  0
   -4.7926   -8.2186    0.0000 C   0  0  0  0  0  0  0  0  0  0  0  0
   -6.0833   -7.6054    0.0000 C   0  0  0  0  0  0  0  0  0  0  0  0
   -5.0212   -5.3698    0.0000 C   0  0  0  0  0  0  0  0  0  0  0  0
   -4.1989   -5.3038    0.0000 O   0  0  0  0  0  0  0  0  0  0  0  0
   -5.4895   -4.6906    0.0000 N   0  0  0  0  0  0  0  0  0  0  0  0
   -5.1355   -3.9455    0.0000 C   0  0  0  0  0  0  0  0  0  0  0  0
   -5.7880   -3.4079    0.0000 C   0  0  0  0  0  0  0  0  0  0  0  0
   -6.5020   -3.8212    0.0000 O   0  0  0  0  0  0  0  0  0  0  0  0
   -5.9306   -2.5661    0.0000 C   0  0  0  0  0  0  0  0  0  0  0  0
   -5.1219   -2.3478    0.0000 C   0  0  0  0  0  0  0  0  0  0  0  0
   -4.8889   -1.5580    0.0000 C   0  0  0  0  0  0  0  0  0  0  0  0
   -4.0853   -1.3715    0.0000 Cl  0  0  0  0  0  0  0  0  0  0  0  0
   -5.4552   -0.9412    0.0000 C   0  0  0  0  0  0  0  0  0  0  0  0
   -4.9690   -0.2480    0.0000 O   0  0  0  0  0  0  0  0  0  0  0  0
   -6.2723   -1.1390    0.0000 C   0  0  0  0  0  0  0  0  0  0  0  0
   -6.5006   -1.9415    0.0000 C   0  0  0  0  0  0  0  0  0  0  0  0
   -4.3120   -4.1106    0.0000 C   0  0  0  0  0  0  0  0  0  0  0  0
   -4.3468   -4.9348    0.0000 O   0  0  0  0  0  0  0  0  0  0  0  0
   -3.4802   -4.0159    0.0000 N   0  0  0  0  0  0  0  0  0  0  0  0
   -2.7488   -3.6160    0.0000 C   0  0  0  0  0  0  0  0  0  0  0  0
   -2.1537   -4.1873    0.0000 C   0  0  0  0  0  0  0  0  0  0  0  0
   -2.3510   -4.9884    0.0000 C   0  0  0  0  0  0  0  0  0  0  0  0
   -3.1433   -5.2181    0.0000 O   0  0  0  0  0  0  0  0  0  0  0  0
   -1.7558   -5.5598    0.0000 N   0  0  0  0  0  0  0  0  0  0  0  0
   -2.3790   -2.8690    0.0000 C   0  0  0  0  0  0  0  0  0  0  0  0
   -1.5669   -3.0141    0.0000 O   0  0  0  0  0  0  0  0  0  0  0  0
   -2.4678   -2.0353    0.0000 N   0  0  0  0  0  0  0  0  0  0  0  0
   -2.3246   -1.1981    0.0000 C   0  0  0  0  0  0  0  0  0  0  0  0
   -2.7842   -0.4726    0.0000 C   0  0  0  0  0  0  0  0  0  0  0  0
   -3.6118   -0.5884    0.0000 C   0  0  0  0  0  0  0  0  0  0  0  0
   -4.1699    0.0406    0.0000 C   0  0  0  0  0  0  0  0  0  0  0  0
   -3.8754    0.8275    0.0000 C   0  0  0  0  0  0  0  0  0  0  0  0
   -4.4071    1.4583    0.0000 O   0  0  0  0  0  0  0  0  0  0  0  0
   -3.0509    0.9843    0.0000 C   0  0  0  0  0  0  0  0  0  0  0  0
   -2.5288    0.3263    0.0000 C   0  0  0  0  0  0  0  0  0  0  0  0
   -1.4789   -1.1527    0.0000 C   0  0  0  0  0  0  0  0  0  0  0  0
   -1.3647   -0.3356    0.0000 O   0  0  0  0  0  0  0  0  0  0  0  0
   -0.6865   -1.4254    0.0000 N   0  0  0  0  0  0  0  0  0  0  0  0
    0.1587   -1.3516    0.0000 C   0  0  0  0  0  0  0  0  0  0  0  0
    0.7349   -1.9966    0.0000 C   0  0  0  0  0  0  0  0  0  0  0  0
    1.5398   -1.7527    0.0000 C   0  0  0  0  0  0  0  0  0  0  0  0
    2.1879   -2.2864    0.0000 C   0  0  0  0  0  0  0  0  0  0  0  0
    2.0023   -3.1073    0.0000 C   0  0  0  0  0  0  0  0  0  0  0  0
    2.6170   -3.6576    0.0000 O   0  0  0  0  0  0  0  0  0  0  0  0
    1.2146   -3.3797    0.0000 C   0  0  0  0  0  0  0  0  0  0  0  0
    0.5925   -2.8274    0.0000 C   0  0  0  0  0  0  0  0  0  0  0  0
    0.3300   -0.5175    0.0000 C   0  0  0  0  0  0  0  0  0  0  0  0
   -0.4486   -0.2447    0.0000 O   0  0  0  0  0  0  0  0  0  0  0  0
    0.7144    0.2363    0.0000 N   0  0  0  0  0  0  0  0  0  0  0  0
    1.1668    0.9612    0.0000 C   0  0  0  0  0  0  0  0  0  0  0  0
    0.6565    1.6493    0.0000 C   0  0  0  0  0  0  0  0  0  0  0  0
    1.1829    2.2845    0.0000 O   0  0  0  0  0  0  0  0  0  0  0  0
   -0.1150    2.0232    0.0000 C   0  0  0  0  0  0  0  0  0  0  0  0
   -0.5389    2.7546    0.0000 C   0  0  0  0  0  0  0  0  0  0  0  0
   -1.3749    2.7724    0.0000 C   0  0  0  0  0  0  0  0  0  0  0  0
   -1.8166    2.0565    0.0000 C   0  0  0  0  0  0  0  0  0  0  0  0
   -2.5845    1.6944    0.0000 O   0  0  0  0  0  0  0  0  0  0  0  0
   -1.3953    1.3336    0.0000 C   0  0  0  0  0  0  0  0  0  0  0  0
   -1.8107    0.6208    0.0000 Cl  0  0  0  0  0  0  0  0  0  0  0  0
   -0.5714    1.3235    0.0000 C   0  0  0  0  0  0  0  0  0  0  0  0
    2.0198    0.9811    0.0000 C   0  0  0  0  0  0  0  0  0  0  0  0
    2.2632    1.7693    0.0000 O   0  0  0  0  0  0  0  0  0  0  0  0
    2.7056    0.4891    0.0000 N   0  0  0  0  0  0  0  0  0  0  0  0
    3.0493   -0.2788    0.0000 C   0  0  0  0  0  0  0  0  0  0  0  0
    3.2573   -1.0934    0.0000 C   0  0  0  0  0  0  0  0  0  0  0  0
    2.9400   -1.8549    0.0000 C   0  0  0  0  0  0  0  0  0  0  0  0
    3.4408   -2.5105    0.0000 C   0  0  0  0  0  0  0  0  0  0  0  0
    3.1236   -3.2720    0.0000 O   0  0  0  0  0  0  0  0  0  0  0  0
    4.2590   -2.4045    0.0000 C   0  0  0  0  0  0  0  0  0  0  0  0
    4.5763   -1.6429    0.0000 C   0  0  0  0  0  0  0  0  0  0  0  0
    5.3945   -1.5369    0.0000 O   0  0  0  0  0  0  0  0  0  0  0  0
    4.0754   -0.9874    0.0000 C   0  0  0  0  0  0  0  0  0  0  0  0
    3.8283   -0.0073    0.0000 C   0  0  0  0  0  0  0  0  0  0  0  0
    4.4530   -0.5462    0.0000 O   0  0  0  0  0  0  0  0  0  0  0  0
    3.9827    0.8031    0.0000 O   0  0  0  0  0  0  0  0  0  0  0  0
   -4.1266    2.2342    0.0000 C   0  0  0  0  0  0  0  0  0  0  0  0
   -4.6583    2.8650    0.0000 C   0  0  0  0  0  0  0  0  0  0  0  0
   -5.4704    2.7200    0.0000 O   0  0  0  0  0  0  0  0  0  0  0  0
   -4.3778    3.6408    0.0000 C   0  0  0  0  0  0  0  0  0  0  0  0
   -4.9095    4.2717    0.0000 O   0  0  0  0  0  0  0  0  0  0  0  0
   -3.5656    3.7859    0.0000 C   0  0  0  0  0  0  0  0  0  0  0  0
   -3.2851    4.5617    0.0000 O   0  0  0  0  0  0  0  0  0  0  0  0
   -3.0339    3.1550    0.0000 C   0  0  0  0  0  0  0  0  0  0  0  0
   -3.3144    2.3792    0.0000 O   0  0  0  0  0  0  0  0  0  0  0  0
   -2.2218    3.3001    0.0000 C   0  0  0  0  0  0  0  0  0  0  0  0
   -1.9413    4.0759    0.0000 O   0  0  0  0  0  0  0  0  0  0  0  0
   -6.0021    3.3508    0.0000 C   0  0  0  0  0  0  0  0  0  0  0  0
   -6.8142    3.2058    0.0000 C   0  0  0  0  0  0  0  0  0  0  0  0
   -7.3459    3.8366    0.0000 C   0  0  0  0  0  0  0  0  0  0  0  0
   -7.8748    3.2034    0.0000 N   0  0  0  0  0  0  0  0  0  0  0  0
   -8.0613    4.2475    0.0000 C   0  0  0  0  0  0  0  0  0  0  0  0
   -7.0654    4.6124    0.0000 C   0  0  0  0  0  0  0  0  0  0  0  0
   -7.5971    5.2433    0.0000 O   0  0  0  0  0  0  0  0  0  0  0  0
   -6.2533    4.7575    0.0000 C   0  0  0  0  0  0  0  0  0  0  0  0
   -5.7216    4.1266    0.0000 O   0  0  0  0  0  0  0  0  0  0  0  0
   -5.9728    5.5333    0.0000 C   0  0  0  0  0  0  0  0  0  0  0  0
    1.6060    1.8596    0.0000 H   0  0  0  0  0  0  0  0  0  0  0  0
   -0.2097   -2.2813    0.0000 H   0  0  0  0  0  0  0  0  0  0  0  0
   -1.6596   -1.9449    0.0000 H   0  0  0  0  0  0  0  0  0  0  0  0
  1  2  1  0
  3  2  1  1
  3  4  1  0
  3  8  1  0
  4  5  1  0
  5  6  1  0
  5  7  1  0
  8  9  2  0
  8 10  1  0
 11 10  1  6
 11 12  1  0
 11 22  1  0
 12 13  1  6
 12 14  1  0
 14 15  2  0
 14 21  1  0
 15 16  1  0
 16 17  1  0
 16 18  2  0
 18 19  1  0
 20 18  1  0
 36 19  1  0
 21 20  2  0
 22 23  2  0
 22 24  1  0
 25 24  1  0
 25 26  1  6
 25 30  1  0
 26 27  1  0
 27 28  2  0
 27 29  1  0
 30 31  2  0
 30 32  1  0
 33 32  1  0
 33 34  1  0
 33 41  1  0
 34 35  2  0
 34 40  1  0
 35 36  1  0
 36 37  2  0
 37 38  1  0
 39 37  1  0
 81 38  1  1
 40 39  2  0
 39 62  1  0
 41 42  2  0
 41 43  1  0
 44 43  1  0
 44 45  1  0
 44 52  1  0
 45 46  2  0
 45 51  1  0
 46 47  1  0
 47 48  2  0
 47 71  1  0
 48 49  1  0
 50 48  1  0
 51 50  2  0
 52 53  2  0
 52 54  1  0
 55 54  1  0
 55 56  1  0
 55 66  1  0
 56 57  1  1
 56 58  1  0
 58 59  2  0
 58 65  1  0
 59 60  1  0
 60 61  2  0
 61 62  1  0
 63 61  1  0
 63 64  1  0
 65 63  2  0
 66 67  2  0
 66 68  1  0
 69 68  1  0
 69 70  1  0
 69 78  1  6
 70 71  2  0
 70 77  1  0
 71 72  1  0
 72 73  1  0
 72 74  2  0
 74 75  1  0
 75 76  1  0
 77 75  2  0
 78 79  2  0
 78 80  1  0
 81 82  1  0
 81 89  1  0
 82 83  1  6
 82 84  1  0
 92 83  1  1
 84 85  1  1
 84 86  1  0
 86 87  1  6
 86 88  1  0
 88 89  1  0
 88 90  1  1
 90 91  1  0
 92 93  1  0
 92100  1  0
 93 94  1  0
 94 95  1  6
 94 96  1  0
 94 97  1  0
 97 98  1  6
 97 99  1  0
 99100  1  0
 99101  1  6
 55102  1  6
 44103  1  6
 33104  1  1
M  END
> <chembl_id>
CHEMBL262777

> <chembl_pref_name>
VANCOMYCIN
