
     RDKit          2D

110103  0  0  0  0  0  0  0  0999 V2000
   -7.1525    4.8616    0.0000 C   0  0  0  0  0  0  0  0  0  0  0  0
   -7.8670    5.2741    0.0000 C   0  0  0  0  0  0  0  0  0  0  0  0
   -8.5814    4.8616    0.0000 C   0  0  0  0  0  0  0  0  0  0  0  0
   -8.5815    4.0366    0.0000 C   0  0  0  0  0  0  0  0  0  0  0  0
   -7.8670    3.6241    0.0000 O   0  0  0  0  0  0  0  0  0  0  0  0
   -7.1525    4.0366    0.0000 C   0  0  0  0  0  0  0  0  0  0  0  0
   -9.2959    5.2741    0.0000 O   0  0  0  0  0  0  0  0  0  0  0  0
   -7.8670    6.0991    0.0000 O   0  0  0  0  0  0  0  0  0  0  0  0
   -6.4380    5.2741    0.0000 O   0  0  0  0  0  0  0  0  0  0  0  0
   -6.4380    3.6241    0.0000 O   0  0  0  0  0  0  0  0  0  0  0  0
   -9.2959    3.6241    0.0000 C   0  0  0  0  0  0  0  0  0  0  0  0
   -6.4380    2.7991    0.0000 C   0  0  0  0  0  0  0  0  0  0  0  0
   -7.2585    2.7129    0.0000 O   0  0  0  0  0  0  0  0  0  0  0  0
   -7.4300    1.9059    0.0000 C   0  0  0  0  0  0  0  0  0  0  0  0
   -6.7155    1.4934    0.0000 C   0  0  0  0  0  0  0  0  0  0  0  0
   -6.1025    2.0454    0.0000 C   0  0  0  0  0  0  0  0  0  0  0  0
   -5.6411    3.0126    0.0000 C   0  0  0  0  0  0  0  0  0  0  0  0
   -5.2955    1.8739    0.0000 O   0  0  0  0  0  0  0  0  0  0  0  0
   -6.6293    0.6729    0.0000 O   0  0  0  0  0  0  0  0  0  0  0  0
   -8.1837    1.5704    0.0000 O   0  0  0  0  0  0  0  0  0  0  0  0
  -10.0104    4.0366    0.0000 O   0  0  0  0  0  0  0  0  0  0  0  0
  -10.7249    3.6241    0.0000 S   0  0  0  0  0  0  0  0  0  0  0  0
  -11.1374    4.3386    0.0000 O   0  0  0  0  0  0  0  0  0  0  0  0
  -11.4393    3.2116    0.0000 O   0  0  0  0  0  0  0  0  0  0  0  0
  -10.3124    2.9096    0.0000 O   0  0  0  0  0  0  0  0  0  0  0  0
  -12.1538    2.7991    0.0000 Al  0  0  0  0  0  3  0  0  0  0  0  0
  -12.8683    3.2116    0.0000 O   0  0  0  0  0  0  0  0  0  0  0  0
  -12.1538    1.9741    0.0000 O   0  0  0  0  0  0  0  0  0  0  0  0
   -5.2286    3.7271    0.0000 O   0  0  0  0  0  0  0  0  0  0  0  0
   -4.4036    3.7271    0.0000 S   0  0  0  0  0  0  0  0  0  0  0  0
   -3.5786    3.7271    0.0000 O   0  0  0  0  0  0  0  0  0  0  0  0
   -4.4036    4.5521    0.0000 O   0  0  0  0  0  0  0  0  0  0  0  0
   -4.4036    2.9021    0.0000 O   0  0  0  0  0  0  0  0  0  0  0  0
   -2.9953    3.1437    0.0000 Al  0  0  0  0  0  3  0  0  0  0  0  0
   -2.1703    3.1437    0.0000 O   0  0  0  0  0  0  0  0  0  0  0  0
   -3.2088    2.3469    0.0000 O   0  0  0  0  0  0  0  0  0  0  0  0
   -4.8830    1.1594    0.0000 S   0  0  0  0  0  0  0  0  0  0  0  0
   -5.5975    0.7469    0.0000 O   0  0  0  0  0  0  0  0  0  0  0  0
   -4.2996    1.7428    0.0000 O   0  0  0  0  0  0  0  0  0  0  0  0
   -4.4705    0.4450    0.0000 O   0  0  0  0  0  0  0  0  0  0  0  0
   -3.6455    0.4450    0.0000 Al  0  0  0  0  0  3  0  0  0  0  0  0
   -3.0621    1.0283    0.0000 O   0  0  0  0  0  0  0  0  0  0  0  0
   -3.6455   -0.3800    0.0000 O   0  0  0  0  0  0  0  0  0  0  0  0
   -7.2127    0.0896    0.0000 S   0  0  0  0  0  0  0  0  0  0  0  0
   -7.7960   -0.4938    0.0000 O   0  0  0  0  0  0  0  0  0  0  0  0
   -7.7960    0.6729    0.0000 O   0  0  0  0  0  0  0  0  0  0  0  0
   -6.8002   -0.6249    0.0000 O   0  0  0  0  0  0  0  0  0  0  0  0
   -6.8002   -1.4499    0.0000 Al  0  0  0  0  0  3  0  0  0  0  0  0
   -6.2168   -2.0333    0.0000 O   0  0  0  0  0  0  0  0  0  0  0  0
   -7.5146   -1.8624    0.0000 O   0  0  0  0  0  0  0  0  0  0  0  0
   -8.7671    2.1537    0.0000 S   0  0  0  0  0  0  0  0  0  0  0  0
   -8.9806    2.9506    0.0000 O   0  0  0  0  0  0  0  0  0  0  0  0
   -8.0526    2.5662    0.0000 O   0  0  0  0  0  0  0  0  0  0  0  0
   -9.4815    1.7412    0.0000 O   0  0  0  0  0  0  0  0  0  0  0  0
   -9.6951    0.9443    0.0000 Al  0  0  0  0  0  3  0  0  0  0  0  0
  -10.5201    0.9443    0.0000 O   0  0  0  0  0  0  0  0  0  0  0  0
   -9.4815    0.1475    0.0000 O   0  0  0  0  0  0  0  0  0  0  0  0
   -9.7084    5.9886    0.0000 S   0  0  0  0  0  0  0  0  0  0  0  0
   -8.9939    6.4011    0.0000 O   0  0  0  0  0  0  0  0  0  0  0  0
  -10.4229    5.5761    0.0000 O   0  0  0  0  0  0  0  0  0  0  0  0
   -9.9219    6.7855    0.0000 O   0  0  0  0  0  0  0  0  0  0  0  0
  -10.7188    6.9990    0.0000 Al  0  0  0  0  0  3  0  0  0  0  0  0
  -11.3022    6.4156    0.0000 O   0  0  0  0  0  0  0  0  0  0  0  0
  -10.7188    7.8240    0.0000 O   0  0  0  0  0  0  0  0  0  0  0  0
   -7.8670    6.9241    0.0000 S   0  0  0  0  0  0  0  0  0  0  0  0
   -8.6920    6.9241    0.0000 O   0  0  0  0  0  0  0  0  0  0  0  0
   -7.0420    6.9241    0.0000 O   0  0  0  0  0  0  0  0  0  0  0  0
   -7.8670    7.7491    0.0000 O   0  0  0  0  0  0  0  0  0  0  0  0
   -7.2836    8.3325    0.0000 Al  0  0  0  0  0  3  0  0  0  0  0  0
   -6.4586    8.3325    0.0000 O   0  0  0  0  0  0  0  0  0  0  0  0
   -7.4971    9.1294    0.0000 O   0  0  0  0  0  0  0  0  0  0  0  0
   -6.0255    5.9886    0.0000 S   0  0  0  0  0  0  0  0  0  0  0  0
   -6.7400    6.4011    0.0000 O   0  0  0  0  0  0  0  0  0  0  0  0
   -5.2286    5.7751    0.0000 O   0  0  0  0  0  0  0  0  0  0  0  0
   -5.8120    6.7855    0.0000 O   0  0  0  0  0  0  0  0  0  0  0  0
   -5.0151    6.9990    0.0000 Al  0  0  0  0  0  3  0  0  0  0  0  0
   -4.4317    6.4156    0.0000 O   0  0  0  0  0  0  0  0  0  0  0  0
   -4.8016    7.7959    0.0000 O   0  0  0  0  0  0  0  0  0  0  0  0
    0.5009    6.8062    0.0000 Al  0  0  0  0  0  3  0  0  0  0  0  0
    0.5009    5.9812    0.0000 O   0  0  0  0  0  0  0  0  0  0  0  0
    1.2154    7.2187    0.0000 O   0  0  0  0  0  0  0  0  0  0  0  0
   -0.2136    7.2187    0.0000 O   0  0  0  0  0  0  0  0  0  0  0  0
    0.5893    4.2134    0.0000 Al  0  0  0  0  0  3  0  0  0  0  0  0
    0.5893    3.3884    0.0000 O   0  0  0  0  0  0  0  0  0  0  0  0
    1.3038    4.6259    0.0000 O   0  0  0  0  0  0  0  0  0  0  0  0
   -0.1252    4.6259    0.0000 O   0  0  0  0  0  0  0  0  0  0  0  0
    0.7366    2.0036    0.0000 Al  0  0  0  0  0  3  0  0  0  0  0  0
    0.9501    1.2067    0.0000 O   0  0  0  0  0  0  0  0  0  0  0  0
    1.3200    2.5869    0.0000 O   0  0  0  0  0  0  0  0  0  0  0  0
   -0.0603    2.2171    0.0000 O   0  0  0  0  0  0  0  0  0  0  0  0
    0.7661   -0.2946    0.0000 Al  0  0  0  0  0  3  0  0  0  0  0  0
    0.7661   -1.1196    0.0000 O   0  0  0  0  0  0  0  0  0  0  0  0
    1.4805    0.1179    0.0000 O   0  0  0  0  0  0  0  0  0  0  0  0
    0.0516    0.1179    0.0000 O   0  0  0  0  0  0  0  0  0  0  0  0
    3.7420   -0.3536    0.0000 Al  0  0  0  0  0  3  0  0  0  0  0  0
    3.7420   -1.1786    0.0000 O   0  0  0  0  0  0  0  0  0  0  0  0
    4.4564    0.0589    0.0000 O   0  0  0  0  0  0  0  0  0  0  0  0
    3.0275    0.0589    0.0000 O   0  0  0  0  0  0  0  0  0  0  0  0
    3.6536    2.4161    0.0000 Al  0  0  0  0  0  3  0  0  0  0  0  0
    3.6536    1.5911    0.0000 O   0  0  0  0  0  0  0  0  0  0  0  0
    4.3680    2.8286    0.0000 O   0  0  0  0  0  0  0  0  0  0  0  0
    2.9391    2.8286    0.0000 O   0  0  0  0  0  0  0  0  0  0  0  0
    3.6536    4.3902    0.0000 Al  0  0  0  0  0  3  0  0  0  0  0  0
    3.6536    3.5652    0.0000 O   0  0  0  0  0  0  0  0  0  0  0  0
    4.3680    4.8027    0.0000 O   0  0  0  0  0  0  0  0  0  0  0  0
    2.9391    4.8027    0.0000 O   0  0  0  0  0  0  0  0  0  0  0  0
    3.4473    7.0420    0.0000 Al  0  0  0  0  0  3  0  0  0  0  0  0
    3.4473    6.2170    0.0000 O   0  0  0  0  0  0  0  0  0  0  0  0
    4.1618    7.4545    0.0000 O   0  0  0  0  0  0  0  0  0  0  0  0
    2.7329    7.4545    0.0000 O   0  0  0  0  0  0  0  0  0  0  0  0
  1  2  1  0
  6  1  1  0
  2  3  1  0
  3  4  1  0
  4  5  1  0
  5  6  1  0
  3  7  1  1
  2  8  1  6
  1  9  1  1
  6 10  1  6
  4 11  1  6
 12 10  1  1
 12 13  1  0
 12 16  1  0
 13 14  1  0
 14 15  1  0
 15 16  1  0
 12 17  1  6
 16 18  1  1
 15 19  1  6
 14 20  1  1
 11 21  1  0
 21 22  1  0
 22 23  2  0
 22 24  1  0
 22 25  2  0
 24 26  1  0
 26 27  1  0
 26 28  1  0
 17 29  1  0
 29 30  1  0
 30 31  1  0
 30 32  2  0
 30 33  2  0
 31 34  1  0
 34 35  1  0
 34 36  1  0
 18 37  1  0
 37 38  2  0
 37 39  2  0
 37 40  1  0
 40 41  1  0
 41 42  1  0
 41 43  1  0
 19 44  1  0
 44 45  2  0
 44 46  2  0
 44 47  1  0
 47 48  1  0
 48 49  1  0
 48 50  1  0
 20 51  1  0
 51 52  2  0
 51 53  2  0
 51 54  1  0
 54 55  1  0
 55 56  1  0
 55 57  1  0
  7 58  1  0
 58 59  2  0
 58 60  2  0
 58 61  1  0
 61 62  1  0
 62 63  1  0
 62 64  1  0
  8 65  1  0
 65 66  2  0
 65 67  2  0
 65 68  1  0
 68 69  1  0
 69 70  1  0
 69 71  1  0
  9 72  1  0
 72 73  2  0
 72 74  2  0
 72 75  1  0
 75 76  1  0
 76 77  1  0
 76 78  1  0
 79 80  1  0
 79 81  1  0
 79 82  1  0
 83 84  1  0
 83 85  1  0
 83 86  1  0
 87 88  1  0
 87 89  1  0
 87 90  1  0
 91 92  1  0
 91 93  1  0
 91 94  1  0
 95 96  1  0
 95 97  1  0
 95 98  1  0
 99100  1  0
 99101  1  0
 99102  1  0
103104  1  0
103105  1  0
103106  1  0
107108  1  0
107109  1  0
107110  1  0
M  END
> <chembl_id>
CHEMBL2367706

> <chembl_pref_name>
SUCRALFATE
