
     RDKit          2D

 55 58  0  0  0  0  0  0  0  0999 V2000
   -4.1839   -1.4437    0.0000 C   0  0  0  0  0  0  0  0  0  0  0  0
   -3.4695   -1.0312    0.0000 C   0  0  0  0  0  0  0  0  0  0  0  0
   -2.7550   -1.4437    0.0000 O   0  0  0  0  0  0  0  0  0  0  0  0
   -3.4695   -0.2062    0.0000 O   0  0  0  0  0  0  0  0  0  0  0  0
   -4.8984   -1.0312    0.0000 O   0  0  0  0  0  0  0  0  0  0  0  0
   -4.1839   -2.2687    0.0000 O   0  0  0  0  0  0  0  0  0  0  0  0
   -7.9253   -3.4536    0.0000 O   0  0  0  0  0  0  0  0  0  0  0  0
   -9.5415   -3.1842    0.0000 O   0  0  0  0  0  0  0  0  0  0  0  0
   -8.7451   -2.6565    0.0000 C   0  0  0  0  0  0  0  0  0  0  0  0
   -9.1322   -1.9460    0.0000 C   0  0  0  0  0  0  0  0  0  0  0  0
   -9.9794   -1.9483    0.0000 C   0  0  0  0  0  0  0  0  0  0  0  0
  -10.3769   -2.6393    0.0000 C   0  0  0  0  0  0  0  0  0  0  0  0
  -11.2348   -2.6449    0.0000 C   0  0  0  0  0  0  0  0  0  0  0  0
  -11.6655   -1.9424    0.0000 C   0  0  0  0  0  0  0  0  0  0  0  0
  -11.2466   -1.2303    0.0000 C   0  0  0  0  0  0  0  0  0  0  0  0
  -10.3858   -1.2095    0.0000 C   0  0  0  0  0  0  0  0  0  0  0  0
   -9.9833   -0.5180    0.0000 C   0  0  0  0  0  0  0  0  0  0  0  0
   -9.2891   -0.5112    0.0000 C   0  0  0  0  0  0  0  0  0  0  0  0
   -8.7546   -1.2360    0.0000 C   0  0  0  0  0  0  0  0  0  0  0  0
   -7.8834   -1.2168    0.0000 C   0  0  0  0  0  0  0  0  0  0  0  0
   -7.9050   -2.7069    0.0000 C   0  0  0  0  0  0  0  0  0  0  0  0
   -7.4928   -1.9399    0.0000 C   0  0  0  0  0  0  0  0  0  0  0  0
   -7.0835   -2.6791    0.0000 H   0  0  0  0  0  0  0  0  0  0  0  0
   -8.7671   -3.4536    0.0000 H   0  0  0  0  0  0  0  0  0  0  0  0
   -7.9908    0.6020    0.0000 C   0  0  0  0  0  0  0  0  0  0  0  0
   -7.2643    0.1153    0.0000 C   0  0  0  0  0  0  0  0  0  0  0  0
   -6.4102    0.6204    0.0000 C   0  0  0  0  0  0  0  0  0  0  0  0
   -9.9447   -0.0104    0.0000 H   0  0  0  0  0  0  0  0  0  0  0  0
   -8.7515    0.2560    0.0000 N   0  0  0  0  0  0  0  0  0  0  0  0
   -9.5795   -1.2360    0.0000 O   0  0  0  0  0  0  0  0  0  0  0  0
    5.1250   -5.5597    0.0000 C   0  0  0  0  0  0  0  0  0  0  0  0
    5.8394   -5.1473    0.0000 C   0  0  0  0  0  0  0  0  0  0  0  0
    6.5539   -5.5597    0.0000 O   0  0  0  0  0  0  0  0  0  0  0  0
   10.3835   -4.9851    0.0000 C   0  0  0  0  0  0  0  0  0  0  0  0
   -8.1601   -1.6219    0.0000 C   0  0  0  0  0  0  0  0  0  0  0  0
   -8.1683   -0.3271    0.0000 C   0  0  0  0  0  0  0  0  0  0  0  0
   -7.2111   -4.6025    0.0000 C   0  0  0  0  0  0  0  0  0  0  0  0
   -6.4967   -4.1901    0.0000 C   0  0  0  0  0  0  0  0  0  0  0  0
   -5.7822   -4.6025    0.0000 O   0  0  0  0  0  0  0  0  0  0  0  0
   -4.7438   -4.7939    0.0000 C   0  0  0  0  0  0  0  0  0  0  0  0
   -4.0295   -4.3816    0.0000 C   0  0  0  0  0  0  0  0  0  0  0  0
   -3.3150   -4.7939    0.0000 O   0  0  0  0  0  0  0  0  0  0  0  0
   -2.2766   -4.9854    0.0000 C   0  0  0  0  0  0  0  0  0  0  0  0
   -1.5623   -4.5730    0.0000 C   0  0  0  0  0  0  0  0  0  0  0  0
   -0.8477   -4.9854    0.0000 O   0  0  0  0  0  0  0  0  0  0  0  0
    0.1906   -5.1768    0.0000 C   0  0  0  0  0  0  0  0  0  0  0  0
    0.9049   -4.7644    0.0000 C   0  0  0  0  0  0  0  0  0  0  0  0
    1.6195   -5.1768    0.0000 O   0  0  0  0  0  0  0  0  0  0  0  0
    2.6578   -5.3682    0.0000 C   0  0  0  0  0  0  0  0  0  0  0  0
    3.3721   -4.9559    0.0000 C   0  0  0  0  0  0  0  0  0  0  0  0
    4.0867   -5.3682    0.0000 O   0  0  0  0  0  0  0  0  0  0  0  0
    7.5922   -5.7511    0.0000 C   0  0  0  0  0  0  0  0  0  0  0  0
    8.3066   -5.3388    0.0000 C   0  0  0  0  0  0  0  0  0  0  0  0
    9.0211   -5.7511    0.0000 O   0  0  0  0  0  0  0  0  0  0  0  0
  -11.6354   -3.3660    0.0000 O   0  0  0  0  0  0  0  0  0  0  0  0
  1  2  1  0
  2  3  1  0
  2  4  2  0
  1  5  1  0
  1  6  2  0
  9 10  1  0
  9 21  1  0
 10 19  1  0
 11 10  1  0
 12 11  1  0
 12  8  1  0
 13 12  2  0
 14 13  1  0
 14 15  2  0
 15 16  1  0
 16 11  2  0
 17 16  1  0
 18 19  1  0
 18 17  1  0
 19 20  1  0
 20 22  1  0
 21  7  1  6
 21 22  1  0
 25 26  1  0
 26 27  2  0
 18 28  1  6
 18 29  1  1
  9  8  1  6
  9 24  1  1
 21 23  1  1
 19 30  1  1
 29 25  1  0
 31 32  1  0
 32 33  1  0
 10 35  1  1
 29 36  1  0
 36 35  1  0
 37 38  1  0
 38 39  1  0
 40 41  1  0
 41 42  1  0
 43 44  1  0
 44 45  1  0
 46 47  1  0
 47 48  1  0
 49 50  1  0
 50 51  1  0
 52 53  1  0
 53 54  1  0
 52 33  1  0
 31 51  1  0
 49 48  1  0
 46 45  1  0
 43 42  1  0
 40 39  1  0
  7 37  1  0
 34 54  1  0
 13 55  1  0
M  END
> <chembl_id>
CHEMBL2219416

> <chembl_pref_name>
NALOXEGOL OXALATE
