
     RDKit          2D

 23 24  0  0  0  0  0  0  0  0999 V2000
   -1.8333   -1.6000    0.0000 C   0  0  0  0  0  0  0  0  0  0  0  0
   -1.2208   -1.2417    0.0000 C   0  0  0  0  0  0  0  0  0  0  0  0
   -1.8333   -2.3125    0.0000 C   0  0  0  0  0  0  0  0  0  0  0  0
   -1.2208   -0.5292    0.0000 N   0  0  0  0  0  0  0  0  0  0  0  0
   -2.4583   -2.6667    0.0000 C   0  0  0  0  0  0  0  0  0  0  0  0
   -2.4500   -1.2375    0.0000 C   0  0  0  0  0  0  0  0  0  0  0  0
   -1.2208   -2.6667    0.0000 N   0  0  0  0  0  0  0  0  0  0  0  0
   -3.0708   -2.3042    0.0000 C   0  0  0  0  0  0  0  0  0  0  0  0
   -0.6083   -1.6042    0.0000 C   0  0  0  0  0  0  0  0  0  0  0  0
   -3.0708   -1.5875    0.0000 C   0  0  0  0  0  0  0  0  0  0  0  0
   -0.6083   -2.3250    0.0000 C   0  0  0  0  0  0  0  0  0  0  0  0
    1.8542   -0.1792    0.0000 N   0  0  0  0  0  0  0  0  0  0  0  0
   -3.6833   -2.6750    0.0000 Cl  0  0  0  0  0  0  0  0  0  0  0  0
   -0.6000   -0.1667    0.0000 C   0  0  0  0  0  0  0  0  0  0  0  0
    3.7000   -0.5417    0.0000 O   0  0  0  0  0  0  0  0  0  0  0  0
    0.6292   -0.1750    0.0000 C   0  0  0  0  0  0  0  0  0  0  0  0
    1.2375   -0.5292    0.0000 C   0  0  0  0  0  0  0  0  0  0  0  0
    2.4667   -0.5375    0.0000 C   0  0  0  0  0  0  0  0  0  0  0  0
    1.8625    0.5375    0.0000 C   0  0  0  0  0  0  0  0  0  0  0  0
    0.0042   -0.5292    0.0000 C   0  0  0  0  0  0  0  0  0  0  0  0
    3.0875   -0.1875    0.0000 C   0  0  0  0  0  0  0  0  0  0  0  0
   -0.6000    0.5458    0.0000 C   0  0  0  0  0  0  0  0  0  0  0  0
    1.2417    0.8833    0.0000 C   0  0  0  0  0  0  0  0  0  0  0  0
  2  1  1  0
  3  1  1  0
  4  2  1  0
  5  3  2  0
  6  1  2  0
  7  3  1  0
  8 10  2  0
  9  2  2  0
 10  6  1  0
 11  7  2  0
 12 17  1  0
 13  8  1  0
 14  4  1  0
 15 21  1  0
 16 20  1  0
 17 16  1  0
 18 12  1  0
 19 12  1  0
 20 14  1  0
 21 18  1  0
 22 14  1  0
 23 19  1  0
  5  8  1  0
  9 11  1  0
M  END
> <chembl_id>
CHEMBL1535

> <chembl_pref_name>
HYDROXYCHLOROQUINE
