
     RDKit          2D

 30 30  0  0  0  0  0  0  0  0999 V2000
   -4.9540   -8.4793    0.0000 C   0  0  0  0  0  0  0  0  0  0  0  0
   -4.9588   -7.6543    0.0000 C   0  0  0  0  0  0  0  0  0  0  0  0
   -4.2468   -7.2376    0.0000 C   0  0  0  0  0  0  0  0  0  0  0  0
   -4.2517   -6.4127    0.0000 O   0  0  0  0  0  0  0  0  0  0  0  0
   -3.5300   -7.6459    0.0000 O   0  0  0  0  0  0  0  0  0  0  0  0
   -4.2372   -8.8876    0.0000 C   0  0  0  0  0  0  0  0  0  0  0  0
   -4.2323   -9.7126    0.0000 O   0  0  0  0  0  0  0  0  0  0  0  0
   -3.5251   -8.4709    0.0000 O   0  0  0  0  0  0  0  0  0  0  0  0
   -1.0333  -12.2917    0.0000 C   0  0  0  0  0  0  0  0  0  0  0  0
   -1.8208  -12.5500    0.0000 C   0  0  0  0  0  0  0  0  0  0  0  0
   -1.0250  -13.6292    0.0000 N   0  0  0  0  0  0  0  0  0  0  0  0
   -0.5458  -12.9542    0.0000 C   0  0  0  0  0  0  0  0  0  0  0  0
    1.4292  -10.8375    0.0000 C   0  0  0  0  0  0  0  0  0  0  0  0
   -1.8208  -13.3792    0.0000 C   0  0  0  0  0  0  0  0  0  0  0  0
    0.2000  -11.5667    0.0000 N   0  0  0  0  0  0  0  0  0  0  0  0
    1.8292  -10.1167    0.0000 N   0  0  0  0  0  0  0  0  0  0  0  0
   -2.5375  -12.1417    0.0000 C   0  0  0  0  0  0  0  0  0  0  0  0
    0.6042  -10.8417    0.0000 N   0  0  0  0  0  0  0  0  0  0  0  0
   -0.6250  -11.5667    0.0000 C   0  0  0  0  0  0  0  0  0  0  0  0
    1.8417  -11.5500    0.0000 N   0  0  0  0  0  0  0  0  0  0  0  0
   -2.5375  -13.7917    0.0000 C   0  0  0  0  0  0  0  0  0  0  0  0
   -3.2500  -12.5542    0.0000 C   0  0  0  0  0  0  0  0  0  0  0  0
   -3.2500  -13.3792    0.0000 C   0  0  0  0  0  0  0  0  0  0  0  0
   -3.9625  -12.1417    0.0000 O   0  0  0  0  0  0  0  0  0  0  0  0
    2.6667  -11.5417    0.0000 C   0  0  0  0  0  0  0  0  0  0  0  0
   -4.6833  -12.5542    0.0000 C   0  0  0  0  0  0  0  0  0  0  0  0
    3.0917  -12.2542    0.0000 C   0  0  0  0  0  0  0  0  0  0  0  0
    4.3292  -12.9542    0.0000 C   0  0  0  0  0  0  0  0  0  0  0  0
    3.9167  -12.2417    0.0000 C   0  0  0  0  0  0  0  0  0  0  0  0
    5.1542  -12.9500    0.0000 C   0  0  0  0  0  0  0  0  0  0  0  0
  1  2  2  0
  2  3  1  0
  3  4  2  0
  3  5  1  0
  1  6  1  0
  6  7  2  0
  6  8  1  0
 10  9  1  0
 11 12  1  0
 12  9  2  0
 13 18  1  0
 14 10  1  0
 15 19  2  0
 16 13  2  0
 17 10  2  0
 18 15  1  0
 19  9  1  0
 20 13  1  0
 21 14  2  0
 22 17  1  0
 23 22  2  0
 24 22  1  0
 25 20  1  0
 26 24  1  0
 27 25  1  0
 28 29  1  0
 29 27  1  0
 30 28  1  0
 11 14  1  0
 21 23  1  0
M  END
> <chembl_id>
CHEMBL1516474

> <chembl_pref_name>
TEGASEROD MALEATE
