
     RDKit          2D

 25 26  0  0  0  0  0  0  0  0999 V2000
    3.5458   -3.7292    0.0000 S   0  0  0  0  0  0  0  0  0  0  0  0
    3.5417   -3.0250    0.0000 C   0  0  0  0  0  0  0  0  0  0  0  0
    2.9167   -2.6667    0.0000 C   0  0  0  0  0  0  0  0  0  0  0  0
    4.1625   -2.6542    0.0000 C   0  0  0  0  0  0  0  0  0  0  0  0
    4.1542   -1.9375    0.0000 C   0  0  0  0  0  0  0  0  0  0  0  0
    2.9042   -1.9542    0.0000 C   0  0  0  0  0  0  0  0  0  0  0  0
    4.7750   -1.5750    0.0000 C   0  0  0  0  0  0  0  0  0  0  0  0
    3.5292   -1.5875    0.0000 C   0  0  0  0  0  0  0  0  0  0  0  0
    2.3042   -3.0292    0.0000 O   0  0  0  0  0  0  0  0  0  0  0  0
    3.8917   -4.3417    0.0000 O   0  0  0  0  0  0  0  0  0  0  0  0
    4.2542   -3.7292    0.0000 O   0  0  0  0  0  0  0  0  0  0  0  0
    2.9375   -4.0917    0.0000 N   0  0  0  0  0  0  0  0  0  0  0  0
    4.7625   -0.8667    0.0000 O   0  0  0  0  0  0  0  0  0  0  0  0
    2.2917   -1.6042    0.0000 N   0  0  0  0  0  0  0  0  0  0  0  0
    5.3792   -1.9292    0.0000 O   0  0  0  0  0  0  0  0  0  0  0  0
    1.6917   -2.6875    0.0000 C   0  0  0  0  0  0  0  0  0  0  0  0
    2.2792   -0.8875    0.0000 C   0  0  0  0  0  0  0  0  0  0  0  0
    1.6917   -1.9792    0.0000 C   0  0  0  0  0  0  0  0  0  0  0  0
    1.0792   -3.0500    0.0000 C   0  0  0  0  0  0  0  0  0  0  0  0
    1.6667   -0.5542    0.0000 C   0  0  0  0  0  0  0  0  0  0  0  0
    1.0750   -0.9167    0.0000 C   0  0  0  0  0  0  0  0  0  0  0  0
    0.4542   -0.5917    0.0000 C   0  0  0  0  0  0  0  0  0  0  0  0
    0.4667   -2.7042    0.0000 C   0  0  0  0  0  0  0  0  0  0  0  0
    1.0667   -1.6167    0.0000 C   0  0  0  0  0  0  0  0  0  0  0  0
    0.4542   -1.9917    0.0000 C   0  0  0  0  0  0  0  0  0  0  0  0
  2  1  1  0
  3  2  1  0
  4  2  2  0
  5  4  1  0
  6  3  2  0
  7  5  1  0
  8  5  2  0
  9  3  1  0
 10  1  2  0
 11  1  2  0
 12  1  1  0
 13  7  2  0
 14  6  1  0
 15  7  1  0
 16  9  1  0
 17 14  1  0
 18 16  1  0
 19 16  2  0
 20 17  1  0
 21 20  1  0
 22 21  1  0
 23 19  1  0
 24 18  2  0
 25 23  2  0
  6  8  1  0
 24 25  1  0
M  END
> <chembl_id>
CHEMBL1072

> <chembl_pref_name>
BUMETANIDE
