
     RDKit          2D

 10 10  0  0  0  0  0  0  0  0999 V2000
    5.0679  -73.0714    0.0000 C   0  0  0  0  0  0  0  0  0  0  0  0
    4.3534  -73.4839    0.0000 C   0  0  0  0  0  0  0  0  0  0  0  0
    4.3534  -74.3089    0.0000 C   0  0  0  0  0  0  0  0  0  0  0  0
    5.0679  -74.7214    0.0000 C   0  0  0  0  0  0  0  0  0  0  0  0
    5.7824  -74.3089    0.0000 C   0  0  0  0  0  0  0  0  0  0  0  0
    5.7824  -73.4839    0.0000 C   0  0  0  0  0  0  0  0  0  0  0  0
    6.4968  -73.0714    0.0000 O   0  0  0  0  0  0  0  0  0  0  0  0
    7.2113  -73.4839    0.0000 C   0  0  0  0  0  0  0  0  0  0  0  0
    7.9258  -73.0714    0.0000 C   0  0  0  0  0  0  0  0  0  0  0  0
    8.6402  -73.4839    0.0000 O   0  0  0  0  0  0  0  0  0  0  0  0
  1  2  1  0
  1  6  2  0
  2  3  2  0
  3  4  1  0
  4  5  2  0
  5  6  1  0
  6  7  1  0
  7  8  1  0
  8  9  1  0
  9 10  1  0
M  END
> <chembl_id>
CHEMBL1229846

> <chembl_pref_name>
PHENOXYETHANOL
