
     RDKit          2D

 33 36  0  0  0  0  0  0  0  0999 V2000
    1.3481    8.4882    0.0000 C   0  0  0  0  0  0  0  0  0  0  0  0
    2.1672    7.6113    0.0000 C   0  0  0  0  0  0  0  0  0  0  0  0
    1.7305    6.1754    0.0000 C   0  0  0  0  0  0  0  0  0  0  0  0
    2.7550    5.0786    0.0000 C   0  0  0  0  0  0  0  0  0  0  0  0
    3.9240    5.3499    0.0000 O   0  0  0  0  0  0  0  0  0  0  0  0
    2.3184    3.6427    0.0000 O   0  0  0  0  0  0  0  0  0  0  0  0
    3.3032    2.5367    0.0000 C   0  0  0  0  0  0  0  0  0  0  0  0
    4.5625    1.8067    0.0000 C   0  0  0  0  0  0  0  0  0  0  0  0
    5.4289    2.3060    0.0000 C   0  0  0  0  0  0  0  0  0  0  0  0
    4.5625    0.3285    0.0000 C   0  0  0  0  0  0  0  0  0  0  0  0
    2.0440    0.3467    0.0000 C   0  0  0  0  0  0  0  0  0  0  0  0
    0.8030   -0.3650    0.0000 C   0  0  0  0  0  0  0  0  0  0  0  0
    0.8212   -1.8067    0.0000 C   0  0  0  0  0  0  0  0  0  0  0  0
   -0.4197   -2.5550    0.0000 C   0  0  0  0  0  0  0  0  0  0  0  0
   -1.6790   -1.8250    0.0000 C   0  0  0  0  0  0  0  0  0  0  0  0
   -2.9382   -2.5732    0.0000 C   0  0  0  0  0  0  0  0  0  0  0  0
   -4.1792   -1.8432    0.0000 C   0  0  0  0  0  0  0  0  0  0  0  0
   -5.2209   -2.4390    0.0000 O   0  0  0  0  0  0  0  0  0  0  0  0
   -4.1792   -0.4015    0.0000 C   0  0  0  0  0  0  0  0  0  0  0  0
   -2.9565    0.3102    0.0000 C   0  0  0  0  0  0  0  0  0  0  0  0
   -1.6790   -0.3832    0.0000 C   0  0  0  0  0  0  0  0  0  0  0  0
   -1.6907    0.6167    0.0000 C   0  0  0  0  0  0  0  0  0  0  0  0
   -0.4380    0.3285    0.0000 C   0  0  0  0  0  0  0  0  0  0  0  0
   -0.4332   -0.6715    0.0000 F   0  0  0  0  0  0  0  0  0  0  0  0
   -0.4562    1.7885    0.0000 C   0  0  0  0  0  0  0  0  0  0  0  0
   -1.3258    2.2823    0.0000 O   0  0  0  0  0  0  0  0  0  0  0  0
    0.8030    2.5185    0.0000 C   0  0  0  0  0  0  0  0  0  0  0  0
    2.0440    1.7885    0.0000 C   0  0  0  0  0  0  0  0  0  0  0  0
    2.0418    2.7885    0.0000 C   0  0  0  0  0  0  0  0  0  0  0  0
    4.5995    3.2535    0.0000 C   0  0  0  0  0  0  0  0  0  0  0  0
    4.5928    4.4535    0.0000 O   0  0  0  0  0  0  0  0  0  0  0  0
    5.9037    2.5108    0.0000 C   0  0  0  0  0  0  0  0  0  0  0  0
    6.9398    3.1163    0.0000 Cl  0  0  0  0  0  0  0  0  0  0  0  0
  1  2  1  0
  2  3  1  0
  3  4  1  0
  4  5  2  0
  4  6  1  0
  7  6  1  6
  7  8  1  0
  8  9  1  6
  8 10  1  0
 11 10  1  6
 11 12  1  0
 12 13  1  6
 13 14  1  0
 14 15  1  0
 15 16  2  0
 16 17  1  0
 17 18  2  0
 17 19  1  0
 19 20  2  0
 20 21  1  0
 21 15  1  0
 21 22  1  1
 21 23  1  0
 23 12  1  0
 23 24  1  1
 23 25  1  0
 25 26  2  0
 25 27  1  0
 27 28  1  0
 28  7  1  0
 28 11  1  0
 28 29  1  1
  7 30  1  0
 30 31  2  0
 30 32  1  0
 32 33  1  0
M  END
> <chembl_id>
CHEMBL2308885

> <chembl_pref_name>
CLOBETASONE BUTYRATE
