
     RDKit          2D

 30 30  0  0  0  0  0  0  0  0999 V2000
    0.1250   -2.6708    0.0000 C   0  0  0  0  0  0  0  0  0  0  0  0
   -0.9625   -2.3167    0.0000 C   0  0  0  0  0  0  0  0  0  0  0  0
    0.1292   -1.9667    0.0000 C   0  0  0  0  0  0  0  0  0  0  0  0
   -0.5458   -2.8875    0.0000 C   0  0  0  0  0  0  0  0  0  0  0  0
   -0.5458   -1.7417    0.0000 C   0  0  0  0  0  0  0  0  0  0  0  0
    0.7375   -3.0250    0.0000 C   0  0  0  0  0  0  0  0  0  0  0  0
    4.5167   -1.9458    0.0000 C   0  0  0  0  0  0  0  0  0  0  0  0
    4.5208   -2.6542    0.0000 O   0  0  0  0  0  0  0  0  0  0  0  0
    5.1250   -1.5875    0.0000 O   0  0  0  0  0  0  0  0  0  0  0  0
    1.9625   -3.7292    0.0000 O   0  0  0  0  0  0  0  0  0  0  0  0
    1.3542   -1.9625    0.0000 C   0  0  0  0  0  0  0  0  0  0  0  0
    2.0625   -1.9625    0.0000 C   0  0  0  0  0  0  0  0  0  0  0  0
    1.9625   -3.0208    0.0000 C   0  0  0  0  0  0  0  0  0  0  0  0
    1.3500   -2.6667    0.0000 C   0  0  0  0  0  0  0  0  0  0  0  0
   -0.7667   -3.5625    0.0000 O   0  0  0  0  0  0  0  0  0  0  0  0
   -0.7625   -1.0667    0.0000 O   0  0  0  0  0  0  0  0  0  0  0  0
    0.7417   -1.6042    0.0000 C   0  0  0  0  0  0  0  0  0  0  0  0
    5.7417   -1.9375    0.0000 C   0  0  0  0  0  0  0  0  0  0  0  0
    3.9000   -1.5958    0.0000 C   0  0  0  0  0  0  0  0  0  0  0  0
    2.6750   -1.6042    0.0000 C   0  0  0  0  0  0  0  0  0  0  0  0
    2.5750   -2.6667    0.0000 C   0  0  0  0  0  0  0  0  0  0  0  0
    3.2875   -1.9542    0.0000 C   0  0  0  0  0  0  0  0  0  0  0  0
    3.1833   -3.0167    0.0000 C   0  0  0  0  0  0  0  0  0  0  0  0
    5.0000   -4.1208    0.0000 C   0  0  0  0  0  0  0  0  0  0  0  0
    6.3542   -1.5792    0.0000 C   0  0  0  0  0  0  0  0  0  0  0  0
    5.7458   -2.6458    0.0000 C   0  0  0  0  0  0  0  0  0  0  0  0
    4.3958   -3.7500    0.0000 C   0  0  0  0  0  0  0  0  0  0  0  0
    3.1750   -3.7250    0.0000 C   0  0  0  0  0  0  0  0  0  0  0  0
    3.7750   -4.0875    0.0000 C   0  0  0  0  0  0  0  0  0  0  0  0
    5.6208   -3.7833    0.0000 C   0  0  0  0  0  0  0  0  0  0  0  0
  2  4  1  0
  3  1  1  0
  4  1  1  0
  5  3  1  0
  1  6  1  1
  7 19  1  0
  8  7  2  0
  9  7  1  0
 10 13  2  0
 11 17  1  0
 12 11  2  0
 13 14  1  0
 14  6  1  0
  4 15  1  6
  5 16  1  6
  3 17  1  6
 18  9  1  0
 19 22  1  0
 20 12  1  0
 21 13  1  0
 22 20  1  0
 23 21  1  0
 24 27  1  0
 25 18  1  0
 26 18  1  0
 27 29  1  0
 28 23  1  0
 29 28  1  0
 30 24  1  0
  2  5  1  0
M  END
> <chembl_id>
CHEMBL1200661

> <chembl_pref_name>
UNOPROSTONE ISOPROPYL
