
     RDKit          2D

 44 51  0  0  0  0  0  0  0  0999 V2000
   -1.6500   -1.1418    0.0000 C   0  0  0  0  0  0  0  0  0  0  0  0
   -2.0625   -1.8562    0.0000 C   0  0  0  0  0  0  0  0  0  0  0  0
   -1.6500   -2.5707    0.0000 C   0  0  0  0  0  0  0  0  0  0  0  0
   -0.8250   -2.5707    0.0000 C   0  0  0  0  0  0  0  0  0  0  0  0
   -0.8250   -1.1418    0.0000 C   0  0  0  0  0  0  0  0  0  0  0  0
    0.4125   -0.4273    0.0000 C   0  0  0  0  0  0  0  0  0  0  0  0
   -0.4125   -0.4273    0.0000 C   0  0  0  0  0  0  0  0  0  0  0  0
   -0.4125   -1.8563    0.0000 C   0  0  0  0  0  0  0  0  0  0  0  0
    0.8250   -1.1418    0.0000 C   0  0  0  0  0  0  0  0  0  0  0  0
    0.0000    0.2872    0.0000 H   0  0  0  0  0  0  0  0  0  0  0  0
    0.9959    0.1561    0.0000 N   0  0  0  0  0  0  0  0  0  0  0  0
    0.9959    0.9811    0.0000 C   0  0  0  0  0  0  0  0  0  0  0  0
    0.2814    1.3936    0.0000 C   0  0  0  0  0  0  0  0  0  0  0  0
    0.0679    2.1905    0.0000 C   0  0  0  0  0  0  0  0  0  0  0  0
   -0.3446    1.4760    0.0000 C   0  0  0  0  0  0  0  0  0  0  0  0
    1.5792   -0.4273    0.0000 C   0  0  0  0  0  0  0  0  0  0  0  0
    0.0000   -1.1418    0.0000 O   0  0  0  0  0  0  0  0  0  0  0  0
    1.6500   -1.1417    0.0000 C   0  0  0  0  0  0  0  0  0  0  0  0
    0.4125   -1.8562    0.0000 C   0  0  0  0  0  0  0  0  0  0  0  0
    0.8250   -2.5707    0.0000 C   0  0  0  0  0  0  0  0  0  0  0  0
    1.6500   -2.5707    0.0000 C   0  0  0  0  0  0  0  0  0  0  0  0
    2.0625   -1.8562    0.0000 C   0  0  0  0  0  0  0  0  0  0  0  0
    1.2094   -1.6427    0.0000 C   0  0  0  0  0  0  0  0  0  0  0  0
    2.8875   -1.8562    0.0000 C   0  0  0  0  0  0  0  0  0  0  0  0
    3.3000   -1.1417    0.0000 O   0  0  0  0  0  0  0  0  0  0  0  0
    3.3000   -2.5707    0.0000 N   0  0  0  0  0  0  0  0  0  0  0  0
    2.2333   -3.1541    0.0000 O   0  0  0  0  0  0  0  0  0  0  0  0
   -0.1105   -2.9832    0.0000 O   0  0  0  0  0  0  0  0  0  0  0  0
    1.0385   -3.3676    0.0000 H   0  0  0  0  0  0  0  0  0  0  0  0
   -2.0625   -3.2852    0.0000 O   0  0  0  0  0  0  0  0  0  0  0  0
    4.1250   -2.5707    0.0000 C   0  0  0  0  0  0  0  0  0  0  0  0
    4.5375   -3.2852    0.0000 C   0  0  0  0  0  0  0  0  0  0  0  0
    4.9500   -2.5707    0.0000 C   0  0  0  0  0  0  0  0  0  0  0  0
    4.5375   -1.8562    0.0000 C   0  0  0  0  0  0  0  0  0  0  0  0
    4.9500   -0.5867    0.0000 N   0  0  0  0  0  0  0  0  0  0  0  0
    4.2826   -1.0716    0.0000 O   0  0  0  0  0  0  0  0  0  0  0  0
    5.3625   -1.8562    0.0000 N   0  0  0  0  0  0  0  0  0  0  0  0
    5.6174   -1.0716    0.0000 C   0  0  0  0  0  0  0  0  0  0  0  0
    6.4143   -0.8581    0.0000 C   0  0  0  0  0  0  0  0  0  0  0  0
    7.4247    0.1523    0.0000 C   0  0  0  0  0  0  0  0  0  0  0  0
    6.6278   -0.0612    0.0000 C   0  0  0  0  0  0  0  0  0  0  0  0
    6.9977   -1.4415    0.0000 C   0  0  0  0  0  0  0  0  0  0  0  0
    7.7945   -1.2279    0.0000 C   0  0  0  0  0  0  0  0  0  0  0  0
    8.0081   -0.4310    0.0000 C   0  0  0  0  0  0  0  0  0  0  0  0
  1  2  2  0
  1  5  1  0
  2  3  1  0
  3  4  2  0
  4  8  1  0
  7  5  1  0
  6  7  1  0
  6  9  1  0
  8 19  1  0
  5  8  2  0
  6 10  1  6
  6 11  1  0
 11 12  1  0
 12 13  1  0
 13 14  1  0
 14 15  1  0
 15 13  1  0
 11 16  1  0
  9 17  1  1
 18  9  1  0
 18 22  1  0
 19 20  1  0
 20 21  1  0
 21 22  2  0
  9 19  1  0
 19 23  1  1
 16 23  1  0
 22 24  1  0
 24 25  2  0
 24 26  1  0
 21 27  1  0
  4 28  1  0
 20 28  1  0
 20 29  1  1
  3 30  1  0
 26 31  1  0
 31 32  1  0
 31 33  1  0
 31 34  1  0
 36 34  1  0
 34 37  2  0
 35 36  1  0
 35 38  2  0
 37 38  1  0
 38 39  1  0
 41 39  1  0
 39 42  2  0
 40 41  2  0
 40 44  1  0
 42 43  1  0
 43 44  2  0
M  END
> <chembl_id>
CHEMBL2105755

> <chembl_pref_name>
NALDEMEDINE
