
     RDKit          2D

 25 24  0  0  0  0  0  0  0  0999 V2000
    1.0815   -3.8043    0.0000 C   0  0  0  0  0  0  0  0  0  0  0  0
    1.7947   -5.0525    0.0000 N   0  0  0  0  0  0  0  0  0  0  0  0
    0.3586   -4.2187    0.0000 C   0  0  0  0  0  0  0  0  0  0  0  0
    1.8045   -4.2332    0.0000 C   0  0  0  0  0  0  0  0  0  0  0  0
   -0.3548   -3.8043    0.0000 C   0  0  0  0  0  0  0  0  0  0  0  0
    0.3586   -5.0477    0.0000 C   0  0  0  0  0  0  0  0  0  0  0  0
    2.5177   -3.8235    0.0000 C   0  0  0  0  0  0  0  0  0  0  0  0
   -1.0584   -4.2332    0.0000 C   0  0  0  0  0  0  0  0  0  0  0  0
   -0.3548   -5.4526    0.0000 C   0  0  0  0  0  0  0  0  0  0  0  0
   -1.0584   -5.0622    0.0000 C   0  0  0  0  0  0  0  0  0  0  0  0
    4.2413   -1.7978    0.0000 S   0  0  0  0  0  0  0  0  0  0  0  0
    4.6462   -1.0748    0.0000 O   0  0  0  0  0  0  0  0  0  0  0  0
    3.8220   -1.0748    0.0000 O   0  0  0  0  0  0  0  0  0  0  0  0
    3.5328   -2.2026    0.0000 O   0  0  0  0  0  0  0  0  0  0  0  0
    4.9498   -2.2026    0.0000 O   0  0  0  0  0  0  0  0  0  0  0  0
    1.1760   -0.9013    0.0000 C   0  0  0  0  0  0  0  0  0  0  0  0
    1.8893   -2.1495    0.0000 N   0  0  0  0  0  0  0  0  0  0  0  0
    0.4531   -1.3158    0.0000 C   0  0  0  0  0  0  0  0  0  0  0  0
    1.8990   -1.3302    0.0000 C   0  0  0  0  0  0  0  0  0  0  0  0
   -0.2603   -0.9013    0.0000 C   0  0  0  0  0  0  0  0  0  0  0  0
    0.4531   -2.1448    0.0000 C   0  0  0  0  0  0  0  0  0  0  0  0
    2.6122   -0.9205    0.0000 C   0  0  0  0  0  0  0  0  0  0  0  0
   -0.9639   -1.3302    0.0000 C   0  0  0  0  0  0  0  0  0  0  0  0
   -0.2603   -2.5496    0.0000 C   0  0  0  0  0  0  0  0  0  0  0  0
   -0.9639   -2.1592    0.0000 C   0  0  0  0  0  0  0  0  0  0  0  0
  4  2  1  6
  3  1  1  0
  4  1  1  0
  5  3  1  0
  6  3  2  0
  7  4  1  0
  8  5  2  0
  9  6  1  0
 10  8  1  0
  9 10  2  0
 12 11  2  0
 13 11  2  0
 14 11  1  0
 15 11  1  0
 19 17  1  6
 18 16  1  0
 19 16  1  0
 20 18  1  0
 21 18  2  0
 22 19  1  0
 23 20  2  0
 24 21  1  0
 25 23  1  0
 24 25  2  0
M  END
> <chembl_id>
CHEMBL3544971

> <chembl_pref_name>
DEXTROAMPHETAMINE SULFATE
