
     RDKit          2D

 41 45  0  0  1  0  0  0  0  0999 V2000
   -0.8708   -2.5125    0.0000 N   0  0  0  0  0  0  0  0  0  0  0  0
    4.0000   -0.1875    0.0000 C   0  0  0  0  0  0  0  0  0  0  0  0
   -1.4625   -2.1625    0.0000 C   0  0  0  0  0  0  0  0  0  0  0  0
    5.3125   -3.2000    0.0000 C   0  0  0  0  0  0  0  0  0  0  0  0
   -2.0750   -2.5250    0.0000 C   0  0  0  0  0  0  0  0  0  0  0  0
    4.6625    0.9625    0.0000 C   0  0  0  0  0  0  0  0  0  0  0  0
    3.3375   -0.1875    0.0000 C   0  0  0  0  0  0  0  0  0  0  0  0
    3.7000    0.4208    0.0000 C   0  0  0  0  0  0  0  0  0  0  0  0
    4.7000   -3.5375    0.0000 C   0  0  0  0  0  0  0  0  0  0  0  0
    0.3167   -2.5125    0.0000 C   0  0  0  0  0  0  0  0  0  0  0  0
    0.9417   -2.1917    0.0000 C   0  0  0  0  0  0  0  0  0  0  0  0
    3.4167   -1.3792    0.0000 S   0  0  0  0  0  0  0  0  0  0  0  0
    2.7625   -2.5250    0.0000 C   0  0  0  0  0  0  0  0  0  0  0  0
   -0.2625   -2.1625    0.0000 C   0  0  0  0  0  0  0  0  0  0  0  0
   -1.4625   -1.5000    0.0000 C   0  0  0  0  0  0  0  0  0  0  0  0
    5.3125   -2.5125    0.0000 C   0  0  0  0  0  0  0  0  0  0  0  0
    4.6625    0.2333    0.0000 C   0  0  0  0  0  0  0  0  0  0  0  0
    3.4167   -2.1167    0.0000 C   0  0  0  0  0  0  0  0  0  0  0  0
    5.3375    1.3583    0.0000 O   0  0  0  0  0  0  0  0  0  0  0  0
    2.1417   -2.1625    0.0000 C   0  0  0  0  0  0  0  0  0  0  0  0
    4.0000   -1.0250    0.0000 C   0  0  0  0  0  0  0  0  0  0  0  0
    3.9667    1.3583    0.0000 O   0  0  0  0  0  0  0  0  0  0  0  0
    4.6750   -2.1750    0.0000 C   0  0  0  0  0  0  0  0  0  0  0  0
    4.0625   -2.5125    0.0000 C   0  0  0  0  0  0  0  0  0  0  0  0
   -2.6875   -2.1750    0.0000 C   0  0  0  0  0  0  0  0  0  0  0  0
   -2.0750   -1.1250    0.0000 C   0  0  0  0  0  0  0  0  0  0  0  0
   -0.8708   -1.1625    0.0000 C   0  0  0  0  0  0  0  0  0  0  0  0
    1.5625   -2.5125    0.0000 C   0  0  0  0  0  0  0  0  0  0  0  0
    4.3417   -4.1500    0.0000 O   0  0  0  0  0  0  0  0  0  0  0  0
   -0.2625   -1.5000    0.0000 C   0  0  0  0  0  0  0  0  0  0  0  0
   -2.6875   -1.4750    0.0000 C   0  0  0  0  0  0  0  0  0  0  0  0
   -3.3000   -2.5250    0.0000 Cl  0  0  0  0  0  0  0  0  0  0  0  0
    2.7625   -3.2125    0.0000 C   0  0  0  0  0  0  0  0  0  0  0  0
    2.1417   -3.5750    0.0000 C   0  0  0  0  0  0  0  0  0  0  0  0
    5.9250   -3.5750    0.0000 C   0  0  0  0  0  0  0  0  0  0  0  0
    4.1000   -3.2000    0.0000 C   0  0  0  0  0  0  0  0  0  0  0  0
    5.0500   -4.1500    0.0000 C   0  0  0  0  0  0  0  0  0  0  0  0
    5.9250   -2.1625    0.0000 C   0  0  0  0  0  0  0  0  0  0  0  0
    1.5625   -3.2125    0.0000 C   0  0  0  0  0  0  0  0  0  0  0  0
    6.5167   -3.2000    0.0000 C   0  0  0  0  0  0  0  0  0  0  0  0
    6.5167   -2.5125    0.0000 C   0  0  0  0  0  0  0  0  0  0  0  0
  2 21  1  0
  3  1  2  0
  4 16  1  0
  5  3  1  0
  6 17  1  0
  7  2  1  0
  8  2  1  0
  9  4  1  0
 10 14  1  0
 11 10  2  0
 18 12  1  6
 13 20  1  0
 14  1  1  0
 15  3  1  0
 16 23  1  0
 17  2  1  0
 18 13  1  0
 19  6  1  0
 20 28  2  0
 21 12  1  0
 22  6  2  0
 23 24  1  0
 24 18  1  0
 25  5  2  0
 26 15  1  0
 27 30  1  0
 28 11  1  0
 29  9  1  0
 30 14  2  0
 31 26  2  0
 32 25  1  0
 33 34  1  0
 34 39  2  0
 35  4  2  0
 36  9  1  0
 37  9  1  0
 38 16  2  0
 39 28  1  0
 40 41  2  0
 41 38  1  0
 27 15  2  0
 31 25  1  0
 33 13  2  0
  7  8  1  0
 40 35  1  0
M  END
> <chembl_id>
CHEMBL787

> <chembl_pref_name>
MONTELUKAST
