
     RDKit          2D

 15 14  0  0  0  0  0  0  0  0999 V2000
    5.6000   -5.7875    0.0000 N   0  0  0  0  0  0  0  0  0  0  0  0
    6.8375   -4.3667    0.0000 N   0  0  0  0  0  0  0  0  0  0  0  0
    3.1417   -4.3792    0.0000 N   0  0  0  0  0  0  0  0  0  0  0  0
    4.9875   -5.4292    0.0000 O   0  0  0  0  0  0  0  0  0  0  0  0
    5.6000   -6.4917    0.0000 O   0  0  0  0  0  0  0  0  0  0  0  0
    7.4292   -4.7417    0.0000 O   0  0  0  0  0  0  0  0  0  0  0  0
    3.1417   -3.6667    0.0000 O   0  0  0  0  0  0  0  0  0  0  0  0
    6.2250   -4.7250    0.0000 O   0  0  0  0  0  0  0  0  0  0  0  0
    3.7542   -4.7250    0.0000 O   0  0  0  0  0  0  0  0  0  0  0  0
    4.9875   -4.7250    0.0000 C   0  0  0  0  0  0  0  0  0  0  0  0
    6.2125   -5.4167    0.0000 O   0  0  0  0  0  0  0  0  0  0  0  0
    2.5292   -4.7417    0.0000 O   0  0  0  0  0  0  0  0  0  0  0  0
    6.8292   -3.6542    0.0000 O   0  0  0  0  0  0  0  0  0  0  0  0
    5.6042   -4.3667    0.0000 C   0  0  0  0  0  0  0  0  0  0  0  0
    4.3667   -4.3667    0.0000 C   0  0  0  0  0  0  0  0  0  0  0  0
  2  8  1  0
  3  9  1  0
  4  1  1  0
  5  1  1  0
  6  2  1  0
  7  3  1  0
  8 14  1  0
  9 15  1  0
 10  4  1  0
 11  1  2  0
 12  3  2  0
 13  2  2  0
 14 10  1  0
 15 10  1  0
M  CHG  6   1   1   2   1   3   1   5  -1   6  -1   7  -1
M  END
> <chembl_id>
CHEMBL730

> <chembl_pref_name>
NITROGLYCERIN
