
     RDKit          2D

  9  6  0  0  0  0  0  0  0  0999 V2000
    0.4000   -5.7792    0.0000 Zn  0  0  0  0  0 15  0  0  0  0  0  0
   -0.5458   -5.6875    0.0000 C   0  0  0  0  0  0  0  0  0  0  0  0
   -0.1958   -5.0750    0.0000 O   0  0  0  0  0  0  0  0  0  0  0  0
   -1.2583   -5.6875    0.0000 O   0  0  0  0  0  0  0  0  0  0  0  0
   -0.1958   -6.3042    0.0000 C   0  0  0  0  0  0  0  0  0  0  0  0
    1.8500   -5.6875    0.0000 C   0  0  0  0  0  0  0  0  0  0  0  0
    1.4917   -5.0750    0.0000 O   0  0  0  0  0  0  0  0  0  0  0  0
    2.5542   -5.6875    0.0000 O   0  0  0  0  0  0  0  0  0  0  0  0
    1.4917   -6.3042    0.0000 C   0  0  0  0  0  0  0  0  0  0  0  0
  3  2  1  0
  4  2  2  0
  5  2  1  0
  7  6  1  0
  8  6  2  0
  9  6  1  0
M  CHG  3   1   2   3  -1   7  -1
M  END
> <chembl_id>
CHEMBL1200928

> <chembl_pref_name>
ZINC ACETATE ANHYDROUS
