
     RDKit          2D

 19 21  0  0  0  0  0  0  0  0999 V2000
    5.1125   -5.5292    0.0000 N   0  0  0  0  0  0  0  0  0  0  0  0
    4.4917   -5.2500    0.0000 C   0  0  0  0  0  0  0  0  0  0  0  0
    4.2917   -4.5417    0.0000 C   0  0  0  0  0  0  0  0  0  0  0  0
    5.1125   -6.3167    0.0000 C   0  0  0  0  0  0  0  0  0  0  0  0
    5.7042   -5.2500    0.0000 C   0  0  0  0  0  0  0  0  0  0  0  0
    4.6917   -3.9542    0.0000 C   0  0  0  0  0  0  0  0  0  0  0  0
    5.8917   -4.5042    0.0000 C   0  0  0  0  0  0  0  0  0  0  0  0
    5.4667   -3.9500    0.0000 C   0  0  0  0  0  0  0  0  0  0  0  0
    4.5625   -6.6625    0.0000 O   0  0  0  0  0  0  0  0  0  0  0  0
    4.3167   -3.3542    0.0000 O   0  0  0  0  0  0  0  0  0  0  0  0
    5.6917   -6.6667    0.0000 N   0  0  0  0  0  0  0  0  0  0  0  0
    3.9667   -5.7625    0.0000 C   0  0  0  0  0  0  0  0  0  0  0  0
    3.5917   -4.3667    0.0000 C   0  0  0  0  0  0  0  0  0  0  0  0
    6.2042   -5.7292    0.0000 C   0  0  0  0  0  0  0  0  0  0  0  0
    6.5625   -4.3667    0.0000 C   0  0  0  0  0  0  0  0  0  0  0  0
    3.2792   -5.5542    0.0000 C   0  0  0  0  0  0  0  0  0  0  0  0
    3.0917   -4.8750    0.0000 C   0  0  0  0  0  0  0  0  0  0  0  0
    6.8875   -5.5542    0.0000 C   0  0  0  0  0  0  0  0  0  0  0  0
    7.0542   -4.8750    0.0000 C   0  0  0  0  0  0  0  0  0  0  0  0
  2  1  1  0
  3  2  1  0
  4  1  1  0
  5  1  1  0
  6  3  1  0
  7  5  1  0
  8  7  1  0
  9  4  2  0
 10  6  2  0
 11  4  1  0
 12  2  2  0
 13  3  2  0
 14  5  2  0
 15  7  2  0
 16 12  1  0
 17 16  2  0
 18 14  1  0
 19 18  2  0
  8  6  1  0
 19 15  1  0
 17 13  1  0
M  END
> <chembl_id>
CHEMBL1068

> <chembl_pref_name>
OXCARBAZEPINE
