
     RDKit          2D

 27 29  0  0  0  0  0  0  0  0999 V2000
   -1.1083   -0.8917    0.0000 C   0  0  0  0  0  0  0  0  0  0  0  0
   -1.7083   -0.5417    0.0000 C   0  0  0  0  0  0  0  0  0  0  0  0
   -0.4958   -0.5417    0.0000 C   0  0  0  0  0  0  0  0  0  0  0  0
   -1.1083   -1.6042    0.0000 C   0  0  0  0  0  0  0  0  0  0  0  0
   -1.7083    0.1625    0.0000 C   0  0  0  0  0  0  0  0  0  0  0  0
    0.1167   -0.9000    0.0000 C   0  0  0  0  0  0  0  0  0  0  0  0
   -0.5083    0.1500    0.0000 C   0  0  0  0  0  0  0  0  0  0  0  0
    0.7167    0.1708    0.0000 C   0  0  0  0  0  0  0  0  0  0  0  0
    0.7292   -0.5375    0.0000 C   0  0  0  0  0  0  0  0  0  0  0  0
    0.1042    0.5208    0.0000 C   0  0  0  0  0  0  0  0  0  0  0  0
   -2.3208   -0.8917    0.0000 C   0  0  0  0  0  0  0  0  0  0  0  0
   -3.5333   -0.9125    0.0000 Cl  0  0  0  0  0  0  0  0  0  0  0  0
    1.3167    0.5375    0.0000 O   0  0  0  0  0  0  0  0  0  0  0  0
    3.1500    0.2333    0.0000 O   0  0  0  0  0  0  0  0  0  0  0  0
   -2.3208    0.5125    0.0000 C   0  0  0  0  0  0  0  0  0  0  0  0
   -0.4958   -1.9500    0.0000 C   0  0  0  0  0  0  0  0  0  0  0  0
   -1.7083   -1.9542    0.0000 C   0  0  0  0  0  0  0  0  0  0  0  0
   -1.0958    0.5208    0.0000 C   0  0  0  0  0  0  0  0  0  0  0  0
   -2.9250   -0.5500    0.0000 C   0  0  0  0  0  0  0  0  0  0  0  0
    2.5375    0.5625    0.0000 C   0  0  0  0  0  0  0  0  0  0  0  0
    1.9292    0.2083    0.0000 C   0  0  0  0  0  0  0  0  0  0  0  0
   -0.4833   -2.6542    0.0000 C   0  0  0  0  0  0  0  0  0  0  0  0
   -1.7083   -2.6542    0.0000 C   0  0  0  0  0  0  0  0  0  0  0  0
   -1.1000    1.2208    0.0000 C   0  0  0  0  0  0  0  0  0  0  0  0
   -2.3250    1.2208    0.0000 C   0  0  0  0  0  0  0  0  0  0  0  0
   -1.0958   -3.0042    0.0000 C   0  0  0  0  0  0  0  0  0  0  0  0
   -1.7125    1.5750    0.0000 C   0  0  0  0  0  0  0  0  0  0  0  0
  2  1  2  0
  3  1  1  0
  4  1  1  0
  5  2  1  0
  6  3  1  0
  7  3  2  0
  8 10  2  0
  9  6  2  0
 10  7  1  0
 11  2  1  0
 12 19  1  0
 13  8  1  0
 14 20  1  0
 15  5  1  0
 16  4  1  0
 17  4  2  0
 18  5  2  0
 19 11  1  0
 20 21  1  0
 21 13  1  0
 22 16  2  0
 23 17  1  0
 24 18  1  0
 25 15  2  0
 26 23  2  0
 27 24  2  0
  9  8  1  0
 26 22  1  0
 27 25  1  0
M  END
> <chembl_id>
CHEMBL2105395

> <chembl_pref_name>
OSPEMIFENE
