
     RDKit          2D

 36 41  0  0  0  0  0  0  0  0999 V2000
    9.4513   -4.2641    0.0000 N   0  0  0  0  0  0  0  0  0  0  0  0
   10.0704   -3.7188    0.0000 C   0  0  0  0  0  0  0  0  0  0  0  0
   10.8522   -3.9824    0.0000 C   0  0  0  0  0  0  0  0  0  0  0  0
   11.0148   -4.7912    0.0000 O   0  0  0  0  0  0  0  0  0  0  0  0
   10.3957   -5.3365    0.0000 C   0  0  0  0  0  0  0  0  0  0  0  0
    9.6139   -5.0729    0.0000 C   0  0  0  0  0  0  0  0  0  0  0  0
    8.6695   -4.0005    0.0000 C   0  0  0  0  0  0  0  0  0  0  0  0
    8.0504   -4.5457    0.0000 C   0  0  0  0  0  0  0  0  0  0  0  0
    7.2686   -4.2822    0.0000 C   0  0  0  0  0  0  0  0  0  0  0  0
    7.1060   -3.4734    0.0000 N   0  0  0  0  0  0  0  0  0  0  0  0
    7.7251   -2.9281    0.0000 C   0  0  0  0  0  0  0  0  0  0  0  0
    8.5069   -3.1917    0.0000 C   0  0  0  0  0  0  0  0  0  0  0  0
    4.3042   -4.0367    0.0000 C   0  0  0  0  0  0  0  0  0  0  0  0
    4.9233   -3.4914    0.0000 C   0  0  0  0  0  0  0  0  0  0  0  0
    5.7051   -3.7550    0.0000 C   0  0  0  0  0  0  0  0  0  0  0  0
    6.3242   -3.2098    0.0000 C   0  0  0  0  0  0  0  0  0  0  0  0
    7.5625   -2.1193    0.0000 C   0  0  0  0  0  0  0  0  0  0  0  0
    6.7808   -1.8557    0.0000 C   0  0  0  0  0  0  0  0  0  0  0  0
    6.1616   -2.4010    0.0000 C   0  0  0  0  0  0  0  0  0  0  0  0
    5.3798   -2.1374    0.0000 C   0  0  0  0  0  0  0  0  0  0  0  0
    4.7607   -2.6826    0.0000 C   0  0  0  0  0  0  0  0  0  0  0  0
    3.8163   -1.6102    0.0000 O   0  0  0  0  0  0  0  0  0  0  0  0
    3.9789   -2.4191    0.0000 C   0  0  0  0  0  0  0  0  0  0  0  0
    2.0628   -2.1963    0.0000 C   0  0  0  0  0  0  0  0  0  0  0  0
    2.5403   -2.8690    0.0000 C   0  0  0  0  0  0  0  0  0  0  0  0
    1.2414   -2.2735    0.0000 C   0  0  0  0  0  0  0  0  0  0  0  0
    0.8976   -3.0234    0.0000 C   0  0  0  0  0  0  0  0  0  0  0  0
   -0.7452   -3.1778    0.0000 N   0  0  0  0  0  0  0  0  0  0  0  0
    0.0762   -3.1006    0.0000 C   0  0  0  0  0  0  0  0  0  0  0  0
    1.3751   -3.6961    0.0000 C   0  0  0  0  0  0  0  0  0  0  0  0
    2.1965   -3.6189    0.0000 C   0  0  0  0  0  0  0  0  0  0  0  0
    2.8034   -4.1777    0.0000 N   0  0  0  0  0  0  0  0  0  0  0  0
    3.3598   -2.9643    0.0000 C   0  0  0  0  0  0  0  0  0  0  0  0
    3.5224   -3.7731    0.0000 C   0  0  0  0  0  0  0  0  0  0  0  0
    4.9486   -4.5517    0.0000 C   0  0  0  0  0  0  0  0  0  0  0  0
    3.9089   -4.7608    0.0000 C   0  0  0  0  0  0  0  0  0  0  0  0
  1  2  1  0
  1  6  1  0
  2  3  1  0
  3  4  1  0
  4  5  1  0
  5  6  1  0
  7  1  1  0
  7  8  1  0
  8  9  1  0
  9 10  1  0
 10 11  1  0
 10 16  1  0
 11 12  1  0
 12  7  1  0
 13 14  1  0
 13 35  1  0
 13 34  1  0
 14 21  2  0
 15 14  1  0
 16 15  2  0
 17 18  1  0
 18 19  1  0
 19 20  2  0
 19 16  1  0
 20 21  1  0
 21 23  1  0
 22 23  2  0
 24 25  1  0
 24 26  2  0
 25 31  2  0
 27 26  1  0
 27 29  1  0
 29 28  3  0
 30 27  2  0
 31 32  1  0
 31 30  1  0
 32 34  1  0
 33 25  1  0
 33 23  1  0
 34 33  2  0
 36 13  1  0
M  END
> <chembl_id>
CHEMBL1738797

> <chembl_pref_name>
ALECTINIB
