
     RDKit          2D

 36 38  0  0  0  0  0  0  0  0999 V2000
    9.9885   -7.7787    0.0000 Cl  0  0  0  0  0  0  0  0  0  0  0  0
    6.0622   -5.8692    0.0000 C   0  0  0  0  0  0  0  0  0  0  0  0
    4.6518   -5.8692    0.0000 C   0  0  0  0  0  0  0  0  0  0  0  0
    7.5172   -5.8395    0.0000 C   0  0  0  0  0  0  0  0  0  0  0  0
    5.3595   -5.4535    0.0000 C   0  0  0  0  0  0  0  0  0  0  0  0
    6.7749   -5.4535    0.0000 C   0  0  0  0  0  0  0  0  0  0  0  0
    3.9392   -5.4535    0.0000 C   0  0  0  0  0  0  0  0  0  0  0  0
    6.0622   -6.7105    0.0000 C   0  0  0  0  0  0  0  0  0  0  0  0
    3.2266   -6.7105    0.0000 C   0  0  0  0  0  0  0  0  0  0  0  0
    3.2266   -5.8692    0.0000 C   0  0  0  0  0  0  0  0  0  0  0  0
    7.4875   -6.7105    0.0000 C   0  0  0  0  0  0  0  0  0  0  0  0
    3.9392   -7.1015    0.0000 C   0  0  0  0  0  0  0  0  0  0  0  0
    4.6518   -6.7105    0.0000 C   0  0  0  0  0  0  0  0  0  0  0  0
    6.7749   -7.1015    0.0000 C   0  0  0  0  0  0  0  0  0  0  0  0
    5.3595   -7.1015    0.0000 C   0  0  0  0  0  0  0  0  0  0  0  0
    8.2595   -5.4090    0.0000 C   0  0  0  0  0  0  0  0  0  0  0  0
    2.5140   -7.1015    0.0000 C   0  0  0  0  0  0  0  0  0  0  0  0
    2.5140   -5.4535    0.0000 C   0  0  0  0  0  0  0  0  0  0  0  0
    6.7749   -4.6370    0.0000 O   0  0  0  0  0  0  0  0  0  0  0  0
    3.9392   -4.6370    0.0000 O   0  0  0  0  0  0  0  0  0  0  0  0
    6.7749   -7.9130    0.0000 N   0  0  0  0  0  0  0  0  0  0  0  0
    6.0474   -4.9289    0.0000 O   0  0  0  0  0  0  0  0  0  0  0  0
    8.2595   -4.5479    0.0000 O   0  0  0  0  0  0  0  0  0  0  0  0
    5.3595   -4.3401    0.0000 O   0  0  0  0  0  0  0  0  0  0  0  0
    8.1704   -7.1312    0.0000 O   0  0  0  0  0  0  0  0  0  0  0  0
    3.5978   -7.9724    0.0000 O   0  0  0  0  0  0  0  0  0  0  0  0
    1.8112   -6.7105    0.0000 C   0  0  0  0  0  0  0  0  0  0  0  0
    1.8112   -5.8692    0.0000 C   0  0  0  0  0  0  0  0  0  0  0  0
    9.0018   -5.8346    0.0000 N   0  0  0  0  0  0  0  0  0  0  0  0
    4.4143   -8.1259    0.0000 C   0  0  0  0  0  0  0  0  0  0  0  0
    2.5140   -7.9477    0.0000 Cl  0  0  0  0  0  0  0  0  0  0  0  0
    2.5140   -4.6370    0.0000 O   0  0  0  0  0  0  0  0  0  0  0  0
    7.4726   -8.3139    0.0000 C   0  0  0  0  0  0  0  0  0  0  0  0
    6.0771   -8.3189    0.0000 C   0  0  0  0  0  0  0  0  0  0  0  0
    4.6469   -7.4825    0.0000 H   0  0  0  0  0  0  0  0  0  0  0  0
    6.0474   -7.5023    0.0000 H   0  0  0  0  0  0  0  0  0  0  0  0
  3  5  2  0
  4  6  1  0
  5  2  1  0
  6  2  1  0
  7  3  1  0
  8  2  1  0
  9 12  1  0
 10  7  1  0
 11 14  1  0
 12 13  1  0
 13  3  1  0
 14  8  1  0
 15  8  1  0
 16  4  1  0
 17  9  1  0
 18 10  1  0
 19  6  2  0
 20  7  2  0
 14 21  1  1
  2 22  1  1
 23 16  2  0
 24  5  1  0
 25 11  1  0
 12 26  1  6
 27 17  2  0
 28 18  2  0
 29 16  1  0
 30 12  1  0
 31 17  1  0
 32 18  1  0
 33 21  1  0
 34 21  1  0
 13 35  1  1
  8 36  1  1
 13 15  1  0
  4 11  2  0
  9 10  2  0
 27 28  1  0
M  END
> <chembl_id>
CHEMBL2146063

> <chembl_pref_name>
CHLORTETRACYCLINE HYDROCHLORIDE
