
     RDKit          2D

 44 48  0  0  0  0  0  0  0  0999 V2000
   -2.9896   -4.2683    0.0000 N   0  0  0  0  0  0  0  0  0  0  0  0
   -3.3989   -3.5562    0.0000 C   0  0  0  0  0  0  0  0  0  0  0  0
   -2.9896   -2.8398    0.0000 O   0  0  0  0  0  0  0  0  0  0  0  0
   -4.2258   -3.5562    0.0000 N   0  0  0  0  0  0  0  0  0  0  0  0
   -4.6349   -2.8398    0.0000 O   0  0  0  0  0  0  0  0  0  0  0  0
   -5.4618   -2.8398    0.0000 C   0  0  0  0  0  0  0  0  0  0  0  0
   -2.1628   -4.2683    0.0000 C   0  0  0  0  0  0  0  0  0  0  0  0
   -1.7493   -3.5562    0.0000 C   0  0  0  0  0  0  0  0  0  0  0  0
   -0.9267   -3.5562    0.0000 C   0  0  0  0  0  0  0  0  0  0  0  0
   -0.5132   -4.2683    0.0000 C   0  0  0  0  0  0  0  0  0  0  0  0
   -0.9267   -4.9805    0.0000 C   0  0  0  0  0  0  0  0  0  0  0  0
   -1.7493   -4.9805    0.0000 C   0  0  0  0  0  0  0  0  0  0  0  0
    3.0063   -4.6818    0.0000 C   0  0  0  0  0  0  0  0  0  0  0  0
    2.2942   -5.0909    0.0000 N   0  0  0  0  0  0  0  0  0  0  0  0
    1.5778   -4.6818    0.0000 C   0  0  0  0  0  0  0  0  0  0  0  0
    1.5778   -3.8549    0.0000 C   0  0  0  0  0  0  0  0  0  0  0  0
    2.2942   -3.4415    0.0000 C   0  0  0  0  0  0  0  0  0  0  0  0
    3.0063   -3.8549    0.0000 N   0  0  0  0  0  0  0  0  0  0  0  0
    0.7960   -3.5988    0.0000 C   0  0  0  0  0  0  0  0  0  0  0  0
    0.3094   -4.2683    0.0000 C   0  0  0  0  0  0  0  0  0  0  0  0
    0.7960   -4.9336    0.0000 S   0  0  0  0  0  0  0  0  0  0  0  0
    2.2942   -2.6188    0.0000 O   0  0  0  0  0  0  0  0  0  0  0  0
    3.7186   -5.0909    0.0000 O   0  0  0  0  0  0  0  0  0  0  0  0
    2.2942   -6.1626    0.0000 C   0  0  0  0  0  0  0  0  0  0  0  0
    1.3629   -6.6983    0.0000 C   0  0  0  0  0  0  0  0  0  0  0  0
    0.6609   -6.3079    0.0000 C   0  0  0  0  0  0  0  0  0  0  0  0
   -0.0562   -6.6731    0.0000 C   0  0  0  0  0  0  0  0  0  0  0  0
   -0.0812   -7.4993    0.0000 C   0  0  0  0  0  0  0  0  0  0  0  0
    0.6201   -7.9325    0.0000 C   0  0  0  0  0  0  0  0  0  0  0  0
    1.3379   -7.5494    0.0000 C   0  0  0  0  0  0  0  0  0  0  0  0
    2.0543   -7.9629    0.0000 F   0  0  0  0  0  0  0  0  0  0  0  0
    0.6609   -5.4853    0.0000 F   0  0  0  0  0  0  0  0  0  0  0  0
    0.3713   -2.8729    0.0000 C   0  0  0  0  0  0  0  0  0  0  0  0
    0.7847   -2.1471    0.0000 N   0  0  0  0  0  0  0  0  0  0  0  0
    1.6158   -2.1432    0.0000 C   0  0  0  0  0  0  0  0  0  0  0  0
    0.3631   -1.4260    0.0000 C   0  0  0  0  0  0  0  0  0  0  0  0
    3.7303   -3.4382    0.0000 C   0  0  0  0  0  0  0  0  0  0  0  0
    4.4456   -2.1876    0.0000 C   0  0  0  0  0  0  0  0  0  0  0  0
    3.7252   -2.6062    0.0000 C   0  0  0  0  0  0  0  0  0  0  0  0
    5.1736   -2.6060    0.0000 C   0  0  0  0  0  0  0  0  0  0  0  0
    6.6054   -2.6060    0.0000 C   0  0  0  0  0  0  0  0  0  0  0  0
    5.8895   -2.1927    0.0000 O   0  0  0  0  0  0  0  0  0  0  0  0
    5.1721   -3.4422    0.0000 N   0  0  0  0  0  0  0  0  0  0  0  0
    4.4487   -3.8583    0.0000 N   0  0  0  0  0  0  0  0  0  0  0  0
 14 15  1  0
 15 16  2  0
 16 17  1  0
 17 18  1  0
 13 18  1  0
 20 21  1  0
 15 21  1  0
 16 19  1  0
 17 22  2  0
 13 23  2  0
 24 25  1  0
 25 26  1  0
 26 27  2  0
 27 28  1  0
 28 29  2  0
 29 30  1  0
 25 30  2  0
 30 31  1  0
 26 32  1  0
 14 24  1  0
 10 20  1  0
  1  7  1  0
 20 19  2  0
 19 33  1  0
  1  2  1  0
 33 34  1  0
  2  3  2  0
 34 35  1  0
  2  4  1  0
 34 36  1  0
  5  6  1  0
  4  5  1  0
  7  8  1  0
  8  9  2  0
 18 37  1  0
  9 10  1  0
 37 44  2  0
 10 11  2  0
 44 43  1  0
 11 12  1  0
 43 40  2  0
  7 12  2  0
 40 38  1  0
 13 14  1  0
 38 39  2  0
 39 37  1  0
 40 42  1  0
 42 41  1  0
M  END
> <chembl_id>
CHEMBL1800159

> <chembl_pref_name>
RELUGOLIX
