
     RDKit          2D

 42 45  0  0  0  0  0  0  0  0999 V2000
    3.8893   -4.5375    0.0000 Cl  0  0  0  0  0  0  0  0  0  0  0  0
    5.7970    1.8272    0.0000 C   0  0  0  0  0  0  0  0  0  0  0  0
    6.0365    2.6167    0.0000 C   0  0  0  0  0  0  0  0  0  0  0  0
    6.8399    2.8041    0.0000 O   0  0  0  0  0  0  0  0  0  0  0  0
    7.4039    2.2020    0.0000 C   0  0  0  0  0  0  0  0  0  0  0  0
    7.1645    1.4126    0.0000 C   0  0  0  0  0  0  0  0  0  0  0  0
    6.3610    1.2251    0.0000 N   0  0  0  0  0  0  0  0  0  0  0  0
    6.1216    0.4357    0.0000 C   0  0  0  0  0  0  0  0  0  0  0  0
    5.3182    0.2483    0.0000 C   0  0  0  0  0  0  0  0  0  0  0  0
    5.0788   -0.5412    0.0000 O   0  0  0  0  0  0  0  0  0  0  0  0
    4.2753   -0.7286    0.0000 C   0  0  0  0  0  0  0  0  0  0  0  0
    3.7113   -0.1266    0.0000 C   0  0  0  0  0  0  0  0  0  0  0  0
    4.0359   -1.5181    0.0000 C   0  0  0  0  0  0  0  0  0  0  0  0
    3.2325   -1.7055    0.0000 C   0  0  0  0  0  0  0  0  0  0  0  0
    2.6685   -1.1034    0.0000 C   0  0  0  0  0  0  0  0  0  0  0  0
    2.9079   -0.3140    0.0000 C   0  0  0  0  0  0  0  0  0  0  0  0
    1.8436   -1.1197    0.0000 N   0  0  0  0  0  0  0  0  0  0  0  0
    1.5733   -0.3403    0.0000 C   0  0  0  0  0  0  0  0  0  0  0  0
    2.2310    0.1577    0.0000 S   0  0  0  0  0  0  0  0  0  0  0  0
    1.1859   -1.6177    0.0000 C   0  0  0  0  0  0  0  0  0  0  0  0
    0.5090   -1.1460    0.0000 C   0  0  0  0  0  0  0  0  0  0  0  0
    0.7484   -0.3565    0.0000 N   0  0  0  0  0  0  0  0  0  0  0  0
   -0.2704   -1.4164    0.0000 C   0  0  0  0  0  0  0  0  0  0  0  0
   -0.8943   -0.8765    0.0000 C   0  0  0  0  0  0  0  0  0  0  0  0
   -0.4260   -2.2266    0.0000 C   0  0  0  0  0  0  0  0  0  0  0  0
   -1.2055   -2.4969    0.0000 C   0  0  0  0  0  0  0  0  0  0  0  0
   -1.8293   -1.9571    0.0000 C   0  0  0  0  0  0  0  0  0  0  0  0
   -1.6737   -1.1469    0.0000 C   0  0  0  0  0  0  0  0  0  0  0  0
   -2.6088   -2.2275    0.0000 N   0  0  0  0  0  0  0  0  0  0  0  0
   -2.7644   -3.0376    0.0000 C   0  0  0  0  0  0  0  0  0  0  0  0
   -2.1405   -3.5775    0.0000 O   0  0  0  0  0  0  0  0  0  0  0  0
   -3.5438   -3.3080    0.0000 N   0  0  0  0  0  0  0  0  0  0  0  0
   -3.6994   -4.1182    0.0000 C   0  0  0  0  0  0  0  0  0  0  0  0
   -4.3439   -5.2872    0.0000 C   0  0  0  0  0  0  0  0  0  0  0  0
   -4.4463   -4.4686    0.0000 C   0  0  0  0  0  0  0  0  0  0  0  0
   -3.1354   -4.7203    0.0000 N   0  0  0  0  0  0  0  0  0  0  0  0
   -3.5337   -5.4428    0.0000 O   0  0  0  0  0  0  0  0  0  0  0  0
   -4.9460   -5.8512    0.0000 C   0  0  0  0  0  0  0  0  0  0  0  0
   -5.5481   -6.4152    0.0000 C   0  0  0  0  0  0  0  0  0  0  0  0
   -5.5100   -5.2491    0.0000 C   0  0  0  0  0  0  0  0  0  0  0  0
   -4.3820   -6.4533    0.0000 C   0  0  0  0  0  0  0  0  0  0  0  0
    1.7679   -4.5375    0.0000 Cl  0  0  0  0  0  0  0  0  0  0  0  0
  2  3  1  0
  2  7  1  0
  3  4  1  0
  4  5  1  0
  5  6  1  0
  6  7  1  0
  7  8  1  0
  8  9  1  0
  9 10  1  0
 10 11  1  0
 12 11  2  0
 11 13  1  0
 12 16  1  0
 13 14  2  0
 14 15  1  0
 15 17  1  0
 15 16  2  0
 16 19  1  0
 18 19  1  0
 17 20  1  0
 18 17  1  0
 18 22  2  0
 20 21  2  0
 21 22  1  0
 21 23  1  0
 24 23  1  0
 23 25  2  0
 24 28  2  0
 25 26  1  0
 26 27  2  0
 27 28  1  0
 27 29  1  0
 29 30  1  0
 30 31  2  0
 30 32  1  0
 32 33  1  0
 35 33  1  0
 33 36  2  0
 34 35  2  0
 34 37  1  0
 36 37  1  0
 34 38  1  0
 38 39  1  0
 38 40  1  0
 38 41  1  0
M  END
> <chembl_id>
CHEMBL2105709

> <chembl_pref_name>
QUIZARTINIB DIHYDROCHLORIDE
