
     RDKit          2D

 30 31  0  0  0  0  0  0  0  0999 V2000
    6.8914   -1.8496    0.0000 N   0  0  0  0  0  0  0  0  0  0  0  0
    4.3018    0.2857    0.0000 N   0  0  0  0  0  0  0  0  0  0  0  0
    6.8492    0.3327    0.0000 C   0  0  0  0  0  0  0  0  0  0  0  0
    7.6338    0.5876    0.0000 C   0  0  0  0  0  0  0  0  0  0  0  0
    6.3643    1.0001    0.0000 C   0  0  0  0  0  0  0  0  0  0  0  0
    7.6338    1.4126    0.0000 C   0  0  0  0  0  0  0  0  0  0  0  0
    6.5943   -0.4519    0.0000 C   0  0  0  0  0  0  0  0  0  0  0  0
    6.8492    1.6676    0.0000 C   0  0  0  0  0  0  0  0  0  0  0  0
    7.1463   -1.0650    0.0000 C   0  0  0  0  0  0  0  0  0  0  0  0
    8.3483    0.1751    0.0000 C   0  0  0  0  0  0  0  0  0  0  0  0
    8.3483    1.8251    0.0000 C   0  0  0  0  0  0  0  0  0  0  0  0
    5.5393    1.0001    0.0000 C   0  0  0  0  0  0  0  0  0  0  0  0
    9.0628    0.5876    0.0000 C   0  0  0  0  0  0  0  0  0  0  0  0
    9.0628    1.4126    0.0000 C   0  0  0  0  0  0  0  0  0  0  0  0
    5.7873   -0.6235    0.0000 C   0  0  0  0  0  0  0  0  0  0  0  0
    7.9533   -0.8935    0.0000 C   0  0  0  0  0  0  0  0  0  0  0  0
    5.1268    0.2857    0.0000 C   0  0  0  0  0  0  0  0  0  0  0  0
    7.4434   -2.4627    0.0000 C   0  0  0  0  0  0  0  0  0  0  0  0
    8.5053   -1.5066    0.0000 C   0  0  0  0  0  0  0  0  0  0  0  0
    8.2504   -2.2912    0.0000 C   0  0  0  0  0  0  0  0  0  0  0  0
    3.8893   -0.4288    0.0000 C   0  0  0  0  0  0  0  0  0  0  0  0
    3.8893    1.0001    0.0000 C   0  0  0  0  0  0  0  0  0  0  0  0
    1.6500    0.0000    0.0000 O   0  0  0  0  0  0  0  0  0  0  0  0
   -0.4125   -0.7145    0.0000 O   0  0  0  0  0  0  0  0  0  0  0  0
    0.4125   -0.7145    0.0000 O   0  0  0  0  0  0  0  0  0  0  0  0
   -1.6500    0.0000    0.0000 O   0  0  0  0  0  0  0  0  0  0  0  0
    0.8250    0.0000    0.0000 C   0  0  0  0  0  0  0  0  0  0  0  0
   -0.8250    0.0000    0.0000 C   0  0  0  0  0  0  0  0  0  0  0  0
    0.4125    0.7145    0.0000 C   0  0  0  0  0  0  0  0  0  0  0  0
   -0.4125    0.7145    0.0000 C   0  0  0  0  0  0  0  0  0  0  0  0
  1  9  1  0
  1 18  2  0
  2 17  1  0
  2 21  1  0
  2 22  1  0
  3  4  1  0
  3  5  2  0
  3  7  1  0
  4  6  1  0
  4 10  2  0
  5  8  1  0
  5 12  1  0
  6  8  1  0
  6 11  2  0
  7  9  1  0
  7 15  1  0
  9 16  2  0
 10 13  1  0
 11 14  1  0
 12 17  1  0
 13 14  2  0
 16 19  1  0
 18 20  1  0
 19 20  2  0
 23 27  2  0
 24 28  2  0
 25 27  1  0
 26 28  1  0
 27 29  1  0
 28 30  1  0
 29 30  2  0
M  END
> <chembl_id>
CHEMBL1870768

> <chembl_pref_name>
DIMETHINDENE MALEATE
