
     RDKit          2D

 24 27  0  0  1  0  0  0  0  0999 V2000
    1.5000    1.0708    0.0000 C   0  0  0  0  0  0  0  0  0  0  0  0
    1.5000   -0.0500    0.0000 C   0  0  0  0  0  0  0  0  0  0  0  0
    0.5542   -0.6000    0.0000 C   0  0  0  0  0  0  0  0  0  0  0  0
   -0.4000   -0.0500    0.0000 C   0  0  0  0  0  0  0  0  0  0  0  0
   -1.3625   -0.6000    0.0000 C   0  0  0  0  0  0  0  0  0  0  0  0
    2.5417    1.3708    0.0000 C   0  0  0  0  0  0  0  0  0  0  0  0
    2.5417   -0.3917    0.0000 C   0  0  0  0  0  0  0  0  0  0  0  0
   -1.3625   -1.6792    0.0000 C   0  0  0  0  0  0  0  0  0  0  0  0
    3.1792    0.5125    0.0000 C   0  0  0  0  0  0  0  0  0  0  0  0
    0.5542    1.5958    0.0000 C   0  0  0  0  0  0  0  0  0  0  0  0
   -0.4000    1.0708    0.0000 C   0  0  0  0  0  0  0  0  0  0  0  0
    0.5542   -1.6792    0.0000 C   0  0  0  0  0  0  0  0  0  0  0  0
   -2.3083   -0.0500    0.0000 C   0  0  0  0  0  0  0  0  0  0  0  0
   -0.4000   -2.2292    0.0000 C   0  0  0  0  0  0  0  0  0  0  0  0
   -2.3083   -2.2292    0.0000 C   0  0  0  0  0  0  0  0  0  0  0  0
   -3.2458   -1.6792    0.0000 C   0  0  0  0  0  0  0  0  0  0  0  0
    2.6542    2.2833    0.0000 O   0  0  0  0  0  0  0  0  0  0  0  0
   -3.2458   -0.6000    0.0000 C   0  0  0  0  0  0  0  0  0  0  0  0
    1.5000    2.0833    0.0000 C   0  0  0  0  0  0  0  0  0  0  0  0
    4.2625    0.5208    0.0000 O   0  0  0  0  0  0  0  0  0  0  0  0
   -4.2083   -2.2042    0.0000 O   0  0  0  0  0  0  0  0  0  0  0  0
    1.5000   -1.0667    0.0000 H   0  0  0  0  0  0  0  0  0  0  0  0
    0.5542    0.4958    0.0000 H   0  0  0  0  0  0  0  0  0  0  0  0
   -0.4125   -1.0667    0.0000 H   0  0  0  0  0  0  0  0  0  0  0  0
  2  1  1  0
  3  2  1  0
  4 11  1  0
  5  4  1  0
  6  1  1  0
  7  2  1  0
  8  5  2  0
  9  6  1  0
 10  1  1  0
 11 10  1  0
 12  3  1  0
 13  5  1  0
 14 12  1  0
 15  8  1  0
 16 18  1  0
  6 17  1  1
 18 13  2  0
  1 19  1  1
  9 20  1  6
 21 16  1  0
  2 22  1  6
  3 23  1  1
  4 24  1  6
  7  9  1  0
  3  4  1  0
 14  8  1  0
 15 16  2  0
M  END
> <chembl_id>
CHEMBL193482

> <chembl_pref_name>
ESTRIOL
