
     RDKit          2D

 35 38  0  0  0  0  0  0  0  0999 V2000
    9.3199  -11.8573    0.0000 O   0  0  0  0  0  0  0  0  0  0  0  0
   11.4706   -9.7749    0.0000 O   0  0  0  0  0  0  0  0  0  0  0  0
   10.0400   -9.8105    0.0000 O   0  0  0  0  0  0  0  0  0  0  0  0
   10.7456  -11.8606    0.0000 O   0  0  0  0  0  0  0  0  0  0  0  0
    8.5784  -10.6002    0.0000 O   0  0  0  0  0  0  0  0  0  0  0  0
   12.1830  -11.0173    0.0000 O   0  0  0  0  0  0  0  0  0  0  0  0
    9.2857  -11.0329    0.0000 C   0  0  0  0  0  0  0  0  0  0  0  0
   10.0219  -10.6079    0.0000 C   0  0  0  0  0  0  0  0  0  0  0  0
   10.7579  -11.0329    0.0000 C   0  0  0  0  0  0  0  0  0  0  0  0
   11.4941  -10.6079    0.0000 C   0  0  0  0  0  0  0  0  0  0  0  0
   16.0517  -10.7976    0.0000 C   0  0  0  0  0  0  0  0  0  0  0  0
   15.6397  -10.0863    0.0000 C   0  0  0  0  0  0  0  0  0  0  0  0
   16.0501   -9.3769    0.0000 C   0  0  0  0  0  0  0  0  0  0  0  0
   15.6382   -8.6607    0.0000 N   0  0  0  0  0  0  0  0  0  0  0  0
   16.8740  -10.8044    0.0000 C   0  0  0  0  0  0  0  0  0  0  0  0
   17.2844  -10.0902    0.0000 C   0  0  0  0  0  0  0  0  0  0  0  0
   16.8773   -9.3739    0.0000 C   0  0  0  0  0  0  0  0  0  0  0  0
   16.6466  -10.2103    0.0000 C   0  0  0  0  0  0  0  0  0  0  0  0
   16.6357   -8.6630    0.0000 C   0  0  0  0  0  0  0  0  0  0  0  0
   14.9240   -8.2454    0.0000 C   0  0  0  0  0  0  0  0  0  0  0  0
   17.2811  -11.5157    0.0000 C   0  0  0  0  0  0  0  0  0  0  0  0
   18.1115  -10.0920    0.0000 C   0  0  0  0  0  0  0  0  0  0  0  0
   15.2327   -9.3604    0.0000 O   0  0  0  0  0  0  0  0  0  0  0  0
   18.1081  -11.5177    0.0000 C   0  0  0  0  0  0  0  0  0  0  0  0
   14.8175  -10.0893    0.0000 C   0  0  0  0  0  0  0  0  0  0  0  0
   15.6462  -11.5071    0.0000 C   0  0  0  0  0  0  0  0  0  0  0  0
   18.5186  -10.8083    0.0000 C   0  0  0  0  0  0  0  0  0  0  0  0
   14.2077   -8.6573    0.0000 C   0  0  0  0  0  0  0  0  0  0  0  0
   18.5201  -12.2339    0.0000 O   0  0  0  0  0  0  0  0  0  0  0  0
   13.1943   -9.2388    0.0000 C   0  0  0  0  0  0  0  0  0  0  0  0
   13.9966   -9.4548    0.0000 C   0  0  0  0  0  0  0  0  0  0  0  0
   13.4102   -8.4413    0.0000 C   0  0  0  0  0  0  0  0  0  0  0  0
   14.4119  -10.8036    0.0000 C   0  0  0  0  0  0  0  0  0  0  0  0
   14.8239  -11.5149    0.0000 C   0  0  0  0  0  0  0  0  0  0  0  0
   16.5644   -8.4841    0.0000 H   0  0  0  0  0  0  0  0  0  0  0  0
  7  1  2  0
  8  3  1  0
  9  4  1  0
  7  5  1  0
  9 10  1  0
  8  9  1  0
 10  6  1  0
  7  8  1  0
 10  2  2  0
 12 11  1  0
 13 12  1  0
 14 19  1  0
 15 11  1  0
 16 15  2  0
 17 13  1  0
 11 18  1  6
 19 18  1  0
 20 14  1  0
 21 15  1  0
 22 16  1  0
 12 23  1  6
 24 21  2  0
 25 12  1  0
 26 11  1  0
 27 22  2  0
 28 20  1  0
 29 24  1  0
 30 32  1  0
 31 28  1  0
 32 28  1  0
 33 34  1  0
 34 26  1  0
 13 14  1  0
 25 33  1  0
 17 16  1  0
 24 27  1  0
 30 31  1  0
 13 35  1  1
M  END
> <chembl_id>
CHEMBL299400

> <chembl_pref_name>
BUTORPHANOL TARTRATE
