
     RDKit          2D

 23 26  0  0  0  0  0  0  0  0999 V2000
    5.8500   -8.6042    0.0000 C   0  0  0  0  0  0  0  0  0  0  0  0
    5.8500   -9.4292    0.0000 N   0  0  0  0  0  0  0  0  0  0  0  0
    6.4917   -8.0917    0.0000 C   0  0  0  0  0  0  0  0  0  0  0  0
    5.0667   -8.3500    0.0000 N   0  0  0  0  0  0  0  0  0  0  0  0
    5.0667   -9.6792    0.0000 C   0  0  0  0  0  0  0  0  0  0  0  0
    4.5792   -9.0167    0.0000 C   0  0  0  0  0  0  0  0  0  0  0  0
    7.3000   -8.2750    0.0000 C   0  0  0  0  0  0  0  0  0  0  0  0
    6.3125   -7.2875    0.0000 C   0  0  0  0  0  0  0  0  0  0  0  0
    6.4917   -9.9417    0.0000 C   0  0  0  0  0  0  0  0  0  0  0  0
    5.9417   -5.6792    0.0000 N   0  0  0  0  0  0  0  0  0  0  0  0
    7.6542   -9.0167    0.0000 C   0  0  0  0  0  0  0  0  0  0  0  0
    7.3000   -9.7625    0.0000 C   0  0  0  0  0  0  0  0  0  0  0  0
    4.8125  -10.4667    0.0000 C   0  0  0  0  0  0  0  0  0  0  0  0
    5.5250   -7.0417    0.0000 C   0  0  0  0  0  0  0  0  0  0  0  0
    6.9167   -6.7250    0.0000 C   0  0  0  0  0  0  0  0  0  0  0  0
    4.0042  -10.6417    0.0000 O   0  0  0  0  0  0  0  0  0  0  0  0
    5.3417   -6.2417    0.0000 C   0  0  0  0  0  0  0  0  0  0  0  0
    6.7292   -5.9167    0.0000 C   0  0  0  0  0  0  0  0  0  0  0  0
    7.7667   -7.5917    0.0000 C   0  0  0  0  0  0  0  0  0  0  0  0
    5.7625   -4.8750    0.0000 C   0  0  0  0  0  0  0  0  0  0  0  0
    8.4792   -9.0792    0.0000 C   0  0  0  0  0  0  0  0  0  0  0  0
    8.5875   -7.6542    0.0000 C   0  0  0  0  0  0  0  0  0  0  0  0
    8.9417   -8.4000    0.0000 C   0  0  0  0  0  0  0  0  0  0  0  0
  2  1  1  0
  3  1  1  0
  4  1  2  0
  5  2  1  0
  6  4  1  0
  7  3  1  0
  8  3  2  0
  9  2  1  0
 10 18  1  0
 11  7  2  0
 12  9  1  0
 13  5  1  0
 14  8  1  0
 15  8  1  0
 16 13  2  0
 17 14  1  0
 18 15  1  0
 19  7  1  0
 20 10  1  0
 21 11  1  0
 22 19  2  0
 23 22  1  0
  5  6  2  0
 11 12  1  0
 10 17  1  0
 23 21  2  0
M  END
> <chembl_id>
CHEMBL1201747

> <chembl_pref_name>
ALCAFTADINE
