
     RDKit          2D

 20 20  0  0  0  0  0  0  0  0999 V2000
    5.7750  -24.2083    0.0000 Na  0  0  0  0  0 15  0  0  0  0  0  0
    7.9800  -24.5470    0.0000 C   0  0  0  0  0  0  0  0  0  0  0  0
    8.3925  -25.2628    0.0000 C   0  0  0  0  0  0  0  0  0  0  0  0
    9.2175  -25.2628    0.0000 C   0  0  0  0  0  0  0  0  0  0  0  0
    9.6300  -24.5470    0.0000 C   0  0  0  0  0  0  0  0  0  0  0  0
    9.2175  -23.8353    0.0000 C   0  0  0  0  0  0  0  0  0  0  0  0
    8.3925  -23.8353    0.0000 C   0  0  0  0  0  0  0  0  0  0  0  0
    9.6300  -25.9787    0.0000 Cl  0  0  0  0  0  0  0  0  0  0  0  0
    9.6300  -23.1194    0.0000 Cl  0  0  0  0  0  0  0  0  0  0  0  0
   10.8675  -25.2626    0.0000 C   0  0  0  0  0  0  0  0  0  0  0  0
   10.4550  -25.9785    0.0000 C   0  0  0  0  0  0  0  0  0  0  0  0
   10.8675  -26.6902    0.0000 C   0  0  0  0  0  0  0  0  0  0  0  0
   11.6925  -26.6902    0.0000 C   0  0  0  0  0  0  0  0  0  0  0  0
   12.1050  -25.9785    0.0000 C   0  0  0  0  0  0  0  0  0  0  0  0
   11.6925  -25.2626    0.0000 C   0  0  0  0  0  0  0  0  0  0  0  0
   12.1050  -24.5468    0.0000 C   0  0  0  0  0  0  0  0  0  0  0  0
   12.9300  -24.5468    0.0000 C   0  0  0  0  0  0  0  0  0  0  0  0
   13.3425  -23.8351    0.0000 O   0  0  0  0  0  0  0  0  0  0  0  0
   13.3425  -25.2626    0.0000 O   0  0  0  0  0  0  0  0  0  0  0  0
   10.4550  -24.5481    0.0000 N   0  0  0  0  0  0  0  0  0  0  0  0
  2  3  2  0
  3  4  1  0
  4  5  2  0
  5  6  1  0
  6  7  2  0
  7  2  1  0
  4  8  1  0
  6  9  1  0
 10 11  2  0
 11 12  1  0
 12 13  2  0
 13 14  1  0
 14 15  2  0
 15 10  1  0
 15 16  1  0
 16 17  1  0
 17 18  1  0
 17 19  2  0
  5 20  1  0
 20 10  1  0
M  CHG  2   1   1  18  -1
M  END
> <chembl_id>
CHEMBL1034

> <chembl_pref_name>
DICLOFENAC SODIUM
