
     RDKit          2D

 24 23  0  0  0  0  0  0  0  0999 V2000
   -6.1286    0.1768    0.0000 O   0  0  0  0  0  0  0  0  0  0  0  0
   -5.4141    0.5893    0.0000 C   0  0  0  0  0  0  0  0  0  0  0  0
   -4.6996    0.1768    0.0000 C   0  0  0  0  0  0  0  0  0  0  0  0
   -3.9852    0.5893    0.0000 C   0  0  0  0  0  0  0  0  0  0  0  0
   -3.2707    0.1768    0.0000 C   0  0  0  0  0  0  0  0  0  0  0  0
   -2.5562    0.5893    0.0000 C   0  0  0  0  0  0  0  0  0  0  0  0
   -1.8417    0.1768    0.0000 C   0  0  0  0  0  0  0  0  0  0  0  0
   -1.1273    0.5893    0.0000 C   0  0  0  0  0  0  0  0  0  0  0  0
   -0.4128    0.1768    0.0000 C   0  0  0  0  0  0  0  0  0  0  0  0
    0.3017    0.5893    0.0000 C   0  0  0  0  0  0  0  0  0  0  0  0
    1.0161    0.1768    0.0000 C   0  0  0  0  0  0  0  0  0  0  0  0
    1.7306    0.5893    0.0000 C   0  0  0  0  0  0  0  0  0  0  0  0
    2.4451    0.1768    0.0000 C   0  0  0  0  0  0  0  0  0  0  0  0
    3.1596    0.5893    0.0000 C   0  0  0  0  0  0  0  0  0  0  0  0
    3.8740    0.1768    0.0000 C   0  0  0  0  0  0  0  0  0  0  0  0
    4.5885    0.5893    0.0000 C   0  0  0  0  0  0  0  0  0  0  0  0
    5.3030    0.1768    0.0000 O   0  0  0  0  0  0  0  0  0  0  0  0
   -5.4141    1.4143    0.0000 O   0  0  0  0  0  0  0  0  0  0  0  0
   -5.1121   -0.5377    0.0000 C   0  0  0  0  0  0  0  0  0  0  0  0
   -4.2871   -0.5377    0.0000 C   0  0  0  0  0  0  0  0  0  0  0  0
   -0.4128   -0.6482    0.0000 O   0  0  0  0  0  0  0  0  0  0  0  0
    3.4615   -0.5377    0.0000 C   0  0  0  0  0  0  0  0  0  0  0  0
    4.4574   -0.4066    0.0000 C   0  0  0  0  0  0  0  0  0  0  0  0
    4.5885    1.4143    0.0000 O   0  0  0  0  0  0  0  0  0  0  0  0
  1  2  1  0
  2  3  1  0
  3  4  1  0
  4  5  1  0
  5  6  1  0
  6  7  1  0
  7  8  1  0
  8  9  1  0
  9 10  1  0
 10 11  1  0
 11 12  1  0
 12 13  1  0
 13 14  1  0
 14 15  1  0
 15 16  1  0
 16 17  1  0
  2 18  2  0
  3 19  1  0
  3 20  1  0
  9 21  1  0
 15 22  1  0
 15 23  1  0
 16 24  2  0
M  END
> <chembl_id>
CHEMBL3545313

> <chembl_pref_name>
BEMPEDOIC ACID
