
     RDKit          2D

 17 18  0  0  0  0  0  0  0  0999 V2000
    4.2250    1.2458    0.0000 N   0  0  0  0  0  0  0  0  0  0  0  0
    2.9375    0.0833    0.0000 N   0  0  0  0  0  0  0  0  0  0  0  0
    4.0375    0.2125    0.0000 C   0  0  0  0  0  0  0  0  0  0  0  0
   -3.5375    0.1125    0.0000 C   0  0  0  0  0  0  0  0  0  0  0  0
   -2.4708    0.1125    0.0000 C   0  0  0  0  0  0  0  0  0  0  0  0
   -1.9500   -0.8167    0.0000 C   0  0  0  0  0  0  0  0  0  0  0  0
    3.3000    1.7875    0.0000 C   0  0  0  0  0  0  0  0  0  0  0  0
    2.4792    1.0458    0.0000 C   0  0  0  0  0  0  0  0  0  0  0  0
   -4.1458   -0.8167    0.0000 O   0  0  0  0  0  0  0  0  0  0  0  0
    2.3917   -0.8542    0.0000 C   0  0  0  0  0  0  0  0  0  0  0  0
   -0.8708   -0.8292    0.0000 C   0  0  0  0  0  0  0  0  0  0  0  0
    1.2917   -0.8542    0.0000 C   0  0  0  0  0  0  0  0  0  0  0  0
   -3.9250    1.0833    0.0000 O   0  0  0  0  0  0  0  0  0  0  0  0
   -0.3375   -1.7792    0.0000 C   0  0  0  0  0  0  0  0  0  0  0  0
   -0.3208    0.1000    0.0000 C   0  0  0  0  0  0  0  0  0  0  0  0
    0.7667    0.1000    0.0000 C   0  0  0  0  0  0  0  0  0  0  0  0
    0.7417   -1.7792    0.0000 C   0  0  0  0  0  0  0  0  0  0  0  0
  2  3  1  0
  3  1  2  0
  4  5  1  0
  5  6  2  0
  6 11  1  0
  7  1  1  0
  8  7  2  0
  9  4  2  0
 10  2  1  0
 11 14  1  0
 12 10  1  0
 13  4  1  0
 14 17  2  0
 15 16  1  0
 16 12  2  0
 17 12  1  0
  2  8  1  0
 15 11  2  0
M  END
> <chembl_id>
CHEMBL11662

> <chembl_pref_name>
OZAGREL
