
     RDKit          2D

 31 31  0  0  1  0  0  0  0  0999 V2000
    0.3250   -2.3792    0.0000 C   0  0  0  0  0  0  0  0  0  0  0  0
    0.9375   -1.3125    0.0000 C   0  0  0  0  0  0  0  0  0  0  0  0
   -0.2875   -1.3125    0.0000 C   0  0  0  0  0  0  0  0  0  0  0  0
    0.9375   -2.0250    0.0000 C   0  0  0  0  0  0  0  0  0  0  0  0
   -0.2875   -2.0250    0.0000 C   0  0  0  0  0  0  0  0  0  0  0  0
    0.3250   -0.9542    0.0000 C   0  0  0  0  0  0  0  0  0  0  0  0
    1.5500   -0.9542    0.0000 C   0  0  0  0  0  0  0  0  0  0  0  0
    0.3292   -3.0875    0.0000 C   0  0  0  0  0  0  0  0  0  0  0  0
   -0.9000   -0.9542    0.0000 N   0  0  0  0  0  0  0  0  0  0  0  0
   -1.5125   -1.3125    0.0000 C   0  0  0  0  0  0  0  0  0  0  0  0
    2.1625   -1.3042    0.0000 N   0  0  0  0  0  0  0  0  0  0  0  0
    0.9417   -3.4417    0.0000 N   0  0  0  0  0  0  0  0  0  0  0  0
   -0.2833   -3.4417    0.0000 O   0  0  0  0  0  0  0  0  0  0  0  0
    1.5417   -0.2417    0.0000 O   0  0  0  0  0  0  0  0  0  0  0  0
   -1.5125   -2.0167    0.0000 O   0  0  0  0  0  0  0  0  0  0  0  0
    0.3250   -0.2500    0.0000 I   0  0  0  0  0  0  0  0  0  0  0  0
    1.5542   -2.3792    0.0000 I   0  0  0  0  0  0  0  0  0  0  0  0
   -0.9000   -2.3792    0.0000 I   0  0  0  0  0  0  0  0  0  0  0  0
   -2.1250   -0.9542    0.0000 C   0  0  0  0  0  0  0  0  0  0  0  0
    2.7750   -0.9500    0.0000 C   0  0  0  0  0  0  0  0  0  0  0  0
    0.9417   -4.1500    0.0000 C   0  0  0  0  0  0  0  0  0  0  0  0
   -2.7458   -1.3125    0.0000 O   0  0  0  0  0  0  0  0  0  0  0  0
    3.3792    0.1125    0.0000 O   0  0  0  0  0  0  0  0  0  0  0  0
    4.0042   -0.9417    0.0000 O   0  0  0  0  0  0  0  0  0  0  0  0
    2.1667   -4.1500    0.0000 O   0  0  0  0  0  0  0  0  0  0  0  0
   -0.2833   -4.1500    0.0000 O   0  0  0  0  0  0  0  0  0  0  0  0
    1.5542   -4.5042    0.0000 C   0  0  0  0  0  0  0  0  0  0  0  0
    3.3917   -1.3042    0.0000 C   0  0  0  0  0  0  0  0  0  0  0  0
    0.3292   -4.5042    0.0000 C   0  0  0  0  0  0  0  0  0  0  0  0
    2.7750   -0.2417    0.0000 C   0  0  0  0  0  0  0  0  0  0  0  0
   -2.1250   -0.2500    0.0000 C   0  0  0  0  0  0  0  0  0  0  0  0
  2  4  1  0
  3  5  2  0
  4  1  2  0
  5  1  1  0
  6  3  1  0
  7  2  1  0
  8  1  1  0
  9  3  1  0
 10  9  1  0
 11  7  1  0
 12  8  1  0
 13  8  2  0
 14  7  2  0
 15 10  2  0
 16  6  1  0
 17  4  1  0
 18  5  1  0
 19 10  1  0
 20 11  1  0
 21 12  1  0
 22 19  1  0
 23 30  1  0
 24 28  1  0
 25 27  1  0
 26 29  1  0
 27 21  1  0
 28 20  1  0
 29 21  1  0
 30 20  1  0
 19 31  1  1
  6  2  2  0
M  END
> <chembl_id>
CHEMBL1200932

> <chembl_pref_name>
IOPAMIDOL
