
     RDKit          2D

 31 34  0  0  1  0  0  0  0  0999 V2000
    0.3167   -3.1917    0.0000 C   0  0  0  0  0  0  0  0  0  0  0  0
    0.3167   -3.9000    0.0000 C   0  0  0  0  0  0  0  0  0  0  0  0
   -0.2958   -4.2542    0.0000 N   0  0  0  0  0  0  0  0  0  0  0  0
   -0.2958   -2.8375    0.0000 C   0  0  0  0  0  0  0  0  0  0  0  0
    0.9375   -2.8375    0.0000 C   0  0  0  0  0  0  0  0  0  0  0  0
    0.9375   -4.2542    0.0000 C   0  0  0  0  0  0  0  0  0  0  0  0
   -0.9083   -3.9000    0.0000 C   0  0  0  0  0  0  0  0  0  0  0  0
   -0.9083   -3.1917    0.0000 C   0  0  0  0  0  0  0  0  0  0  0  0
    1.2917   -4.8667    0.0000 C   0  0  0  0  0  0  0  0  0  0  0  0
    1.6417   -4.2542    0.0000 C   0  0  0  0  0  0  0  0  0  0  0  0
    4.0042   -3.1917    0.0000 C   0  0  0  0  0  0  0  0  0  0  0  0
    4.6167   -2.8375    0.0000 C   0  0  0  0  0  0  0  0  0  0  0  0
   -0.2958   -2.1292    0.0000 C   0  0  0  0  0  0  0  0  0  0  0  0
    1.5500   -3.1917    0.0000 C   0  0  0  0  0  0  0  0  0  0  0  0
    4.6167   -2.1292    0.0000 O   0  0  0  0  0  0  0  0  0  0  0  0
    3.3875   -2.8375    0.0000 C   0  0  0  0  0  0  0  0  0  0  0  0
    2.7750   -3.1917    0.0000 C   0  0  0  0  0  0  0  0  0  0  0  0
   -0.9083   -1.7750    0.0000 C   0  0  0  0  0  0  0  0  0  0  0  0
    0.3167   -1.7750    0.0000 C   0  0  0  0  0  0  0  0  0  0  0  0
   -0.2958   -0.7125    0.0000 C   0  0  0  0  0  0  0  0  0  0  0  0
    2.1625   -2.8375    0.0000 C   0  0  0  0  0  0  0  0  0  0  0  0
    5.2292   -3.1917    0.0000 O   0  0  0  0  0  0  0  0  0  0  0  0
    0.3167   -1.0667    0.0000 C   0  0  0  0  0  0  0  0  0  0  0  0
   -0.9083   -1.0667    0.0000 C   0  0  0  0  0  0  0  0  0  0  0  0
   -0.2958   -0.0042    0.0000 F   0  0  0  0  0  0  0  0  0  0  0  0
    3.3875   -2.1292    0.0000 O   0  0  0  0  0  0  0  0  0  0  0  0
    2.1625   -2.1292    0.0000 O   0  0  0  0  0  0  0  0  0  0  0  0
   -1.5208   -2.8375    0.0000 C   0  0  0  0  0  0  0  0  0  0  0  0
   -1.5208   -4.2542    0.0000 C   0  0  0  0  0  0  0  0  0  0  0  0
   -2.1333   -3.1917    0.0000 C   0  0  0  0  0  0  0  0  0  0  0  0
   -2.1333   -3.9000    0.0000 C   0  0  0  0  0  0  0  0  0  0  0  0
  2  1  2  0
  3  2  1  0
  4  1  1  0
  5  1  1  0
  6  2  1  0
  7  8  1  0
  8  4  2  0
  9  6  1  0
 10  6  1  0
 11 16  1  0
 12 11  1  0
 13  4  1  0
 14  5  2  0
 15 12  2  0
 16 17  1  0
 17 21  1  0
 18 13  2  0
 19 13  1  0
 20 23  1  0
 21 14  1  0
 22 12  1  0
 23 19  2  0
 24 18  1  0
 25 20  1  0
 16 26  1  1
 21 27  1  1
 28  8  1  0
 29  7  1  0
 30 28  2  0
 31 30  1  0
  7  3  2  0
 10  9  1  0
 20 24  2  0
 31 29  2  0
M  END
> <chembl_id>
CHEMBL1201753

> <chembl_pref_name>
PITAVASTATIN
