
     RDKit          2D

 31 35  0  0  0  0  0  0  0  0999 V2000
   -8.6668    4.3761    0.0000 C   0  0  0  0  0  0  0  0  0  0  0  0
   -8.6668    5.2011    0.0000 C   0  0  0  0  0  0  0  0  0  0  0  0
   -7.9523    5.6136    0.0000 C   0  0  0  0  0  0  0  0  0  0  0  0
   -7.2378    5.2011    0.0000 C   0  0  0  0  0  0  0  0  0  0  0  0
   -7.2378    4.3761    0.0000 C   0  0  0  0  0  0  0  0  0  0  0  0
   -7.9523    3.9636    0.0000 C   0  0  0  0  0  0  0  0  0  0  0  0
   -9.3813    5.6136    0.0000 F   0  0  0  0  0  0  0  0  0  0  0  0
   -6.5234    3.9636    0.0000 C   0  0  0  0  0  0  0  0  0  0  0  0
   -6.5234    3.1386    0.0000 C   0  0  0  0  0  0  0  0  0  0  0  0
   -5.8089    2.7261    0.0000 C   0  0  0  0  0  0  0  0  0  0  0  0
   -5.8089    1.9011    0.0000 C   0  0  0  0  0  0  0  0  0  0  0  0
   -5.0944    1.4886    0.0000 N   0  0  0  0  0  0  0  0  0  0  0  0
   -5.8089    4.3761    0.0000 O   0  0  0  0  0  0  0  0  0  0  0  0
   -4.3800    1.9011    0.0000 C   0  0  0  0  0  0  0  0  0  0  0  0
   -5.0944    0.6636    0.0000 C   0  0  0  0  0  0  0  0  0  0  0  0
   -4.3800    0.2511    0.0000 C   0  0  0  0  0  0  0  0  0  0  0  0
   -3.6655    0.6636    0.0000 C   0  0  0  0  0  0  0  0  0  0  0  0
   -3.6655    1.4886    0.0000 C   0  0  0  0  0  0  0  0  0  0  0  0
   -4.2084   -0.5558    0.0000 C   0  0  0  0  0  0  0  0  0  0  0  0
   -3.3880   -0.6420    0.0000 C   0  0  0  0  0  0  0  0  0  0  0  0
   -3.0134    0.0336    0.0000 N   0  0  0  0  0  0  0  0  0  0  0  0
   -4.6934   -1.2232    0.0000 C   0  0  0  0  0  0  0  0  0  0  0  0
   -4.3578   -1.9769    0.0000 C   0  0  0  0  0  0  0  0  0  0  0  0
   -3.5373   -2.0632    0.0000 C   0  0  0  0  0  0  0  0  0  0  0  0
   -3.0524   -1.3957    0.0000 C   0  0  0  0  0  0  0  0  0  0  0  0
   -5.0474   -0.2338    0.0000 H   0  0  0  0  0  0  0  0  0  0  0  0
   -2.1895   -1.4203    0.0000 N   0  0  0  0  0  0  0  0  0  0  0  0
   -1.7402   -0.7284    0.0000 C   0  0  0  0  0  0  0  0  0  0  0  0
   -2.1148    0.0066    0.0000 C   0  0  0  0  0  0  0  0  0  0  0  0
   -2.9981    1.1485    0.0000 H   0  0  0  0  0  0  0  0  0  0  0  0
   -1.7046   -2.0878    0.0000 C   0  0  0  0  0  0  0  0  0  0  0  0
  1  2  2  0
  2  3  1  0
  3  4  2  0
  4  5  1  0
  5  6  2  0
  1  6  1  0
  2  7  1  0
  5  8  1  0
  8  9  1  0
  9 10  1  0
 10 11  1  0
 11 12  1  0
  8 13  2  0
 15 16  1  0
 16 17  1  0
 17 18  1  0
 14 18  1  0
 14 12  1  0
 12 15  1  0
 20 21  1  0
 17 21  1  0
 16 19  1  0
 22 23  1  0
 23 24  2  0
 24 25  1  0
 19 22  2  0
 25 20  2  0
 19 20  1  0
 16 26  1  1
 27 28  1  0
 28 29  1  0
 21 29  1  0
 25 27  1  0
 17 30  1  1
 27 31  1  0
M  END
> <chembl_id>
CHEMBL3306803

> <chembl_pref_name>
LUMATEPERONE
