
     RDKit          2D

 21 22  0  0  0  0  0  0  0  0999 V2000
    5.9792   -7.3417    0.0000 N   0  0  0  0  0  0  0  0  0  0  0  0
    5.9667   -6.6292    0.0000 C   0  0  0  0  0  0  0  0  0  0  0  0
    5.3542   -7.6917    0.0000 C   0  0  0  0  0  0  0  0  0  0  0  0
    4.7667   -7.3417    0.0000 C   0  0  0  0  0  0  0  0  0  0  0  0
    4.1542   -7.7042    0.0000 O   0  0  0  0  0  0  0  0  0  0  0  0
    6.5875   -6.2875    0.0000 C   0  0  0  0  0  0  0  0  0  0  0  0
    3.5292   -7.3417    0.0000 C   0  0  0  0  0  0  0  0  0  0  0  0
    7.8250   -7.6917    0.0000 Cl  0  0  0  0  0  0  0  0  0  0  0  0
    6.5875   -7.6917    0.0000 C   0  0  0  0  0  0  0  0  0  0  0  0
    7.2125   -7.3417    0.0000 C   0  0  0  0  0  0  0  0  0  0  0  0
    5.3667   -8.4042    0.0000 C   0  0  0  0  0  0  0  0  0  0  0  0
    6.5875   -5.5750    0.0000 C   0  0  0  0  0  0  0  0  0  0  0  0
    7.2042   -6.6292    0.0000 C   0  0  0  0  0  0  0  0  0  0  0  0
    2.9125   -7.7125    0.0000 C   0  0  0  0  0  0  0  0  0  0  0  0
    3.5292   -6.6542    0.0000 C   0  0  0  0  0  0  0  0  0  0  0  0
    2.2917   -7.3542    0.0000 C   0  0  0  0  0  0  0  0  0  0  0  0
    7.2042   -5.2250    0.0000 C   0  0  0  0  0  0  0  0  0  0  0  0
    7.8250   -6.2792    0.0000 C   0  0  0  0  0  0  0  0  0  0  0  0
    2.9042   -6.2917    0.0000 C   0  0  0  0  0  0  0  0  0  0  0  0
    2.2917   -6.6542    0.0000 C   0  0  0  0  0  0  0  0  0  0  0  0
    7.8292   -5.5750    0.0000 C   0  0  0  0  0  0  0  0  0  0  0  0
  2  1  1  0
  3  1  1  0
  4  3  1  0
  5  4  1  0
  6  2  1  0
  7  5  1  0
  8 10  1  0
  9  1  1  0
 10  9  1  0
 11  3  1  0
 12  6  1  0
 13  6  2  0
 14  7  1  0
 15  7  2  0
 16 14  2  0
 17 12  2  0
 18 13  1  0
 19 15  1  0
 20 16  1  0
 21 17  1  0
 21 18  2  0
 20 19  2  0
M  END
> <chembl_id>
CHEMBL753

> <chembl_pref_name>
PHENOXYBENZAMINE
