
     RDKit          2D

 21 22  0  0  0  0  0  0  0  0999 V2000
   -0.9208   -2.3792    0.0000 S   0  0  0  0  0  0  0  0  0  0  0  0
   -1.9083    2.7250    0.0000 N   0  0  0  0  0  0  0  0  0  0  0  0
   -1.9083   -1.8167    0.0000 N   0  0  0  0  0  0  0  0  0  0  0  0
   -0.9208   -0.1042    0.0000 C   0  0  0  0  0  0  0  0  0  0  0  0
   -1.9083   -0.6875    0.0000 C   0  0  0  0  0  0  0  0  0  0  0  0
   -1.9083    1.5833    0.0000 C   0  0  0  0  0  0  0  0  0  0  0  0
   -0.9208    1.0208    0.0000 C   0  0  0  0  0  0  0  0  0  0  0  0
   -2.8708    3.2958    0.0000 O   0  0  0  0  0  0  0  0  0  0  0  0
    0.0667   -0.6875    0.0000 O   0  0  0  0  0  0  0  0  0  0  0  0
   -1.4958   -3.3792    0.0000 O   0  0  0  0  0  0  0  0  0  0  0  0
   -0.3333   -1.3917    0.0000 O   0  0  0  0  0  0  0  0  0  0  0  0
   -0.9000    3.2958    0.0000 O   0  0  0  0  0  0  0  0  0  0  0  0
   -2.8875   -0.1042    0.0000 C   0  0  0  0  0  0  0  0  0  0  0  0
   -2.8875    1.0208    0.0000 C   0  0  0  0  0  0  0  0  0  0  0  0
    0.0792   -2.9542    0.0000 C   0  0  0  0  0  0  0  0  0  0  0  0
    1.0375   -0.1167    0.0000 C   0  0  0  0  0  0  0  0  0  0  0  0
    1.0417    1.0083    0.0000 C   0  0  0  0  0  0  0  0  0  0  0  0
    2.0167   -0.7167    0.0000 C   0  0  0  0  0  0  0  0  0  0  0  0
    2.0042    1.5458    0.0000 C   0  0  0  0  0  0  0  0  0  0  0  0
    3.0042   -0.1542    0.0000 C   0  0  0  0  0  0  0  0  0  0  0  0
    3.0042    0.9750    0.0000 C   0  0  0  0  0  0  0  0  0  0  0  0
  2  6  1  0
  3  1  1  0
  4  5  2  0
  5  3  1  0
  6 14  1  0
  7  4  1  0
  8  2  1  0
  9  4  1  0
 10  1  2  0
 11  1  2  0
 12  2  2  0
 13  5  1  0
 14 13  2  0
 15  1  1  0
 16  9  1  0
 17 16  1  0
 18 16  2  0
 19 17  2  0
 20 18  1  0
 21 20  2  0
  7  6  2  0
 19 21  1  0
M  CHG  2   2   1   8  -1
M  END
> <chembl_id>
CHEMBL56367

> <chembl_pref_name>
NIMESULIDE
