
     RDKit          2D

 24 28  0  0  1  0  0  0  0  0999 V2000
    5.3042   -5.2542    0.0000 C   0  0  0  0  0  0  0  0  0  0  0  0
    5.6417   -4.6667    0.0000 C   0  0  0  0  0  0  0  0  0  0  0  0
    4.6250   -5.2625    0.0000 C   0  0  0  0  0  0  0  0  0  0  0  0
    5.6375   -5.8500    0.0000 C   0  0  0  0  0  0  0  0  0  0  0  0
    4.2875   -5.8500    0.0000 C   0  0  0  0  0  0  0  0  0  0  0  0
    4.9917   -6.2750    0.0000 O   0  0  0  0  0  0  0  0  0  0  0  0
    5.3042   -4.0792    0.0000 C   0  0  0  0  0  0  0  0  0  0  0  0
    4.2875   -4.6667    0.0000 C   0  0  0  0  0  0  0  0  0  0  0  0
    4.6250   -4.0792    0.0000 C   0  0  0  0  0  0  0  0  0  0  0  0
    5.6500   -3.4917    0.0000 N   0  0  0  0  0  0  0  0  0  0  0  0
    4.9542   -4.6542    0.0000 C   0  0  0  0  0  0  0  0  0  0  0  0
    6.3292   -4.6750    0.0000 C   0  0  0  0  0  0  0  0  0  0  0  0
    6.3167   -5.8542    0.0000 C   0  0  0  0  0  0  0  0  0  0  0  0
    3.6042   -5.8500    0.0000 C   0  0  0  0  0  0  0  0  0  0  0  0
    4.9667   -3.4875    0.0000 C   0  0  0  0  0  0  0  0  0  0  0  0
    3.6042   -4.6667    0.0000 C   0  0  0  0  0  0  0  0  0  0  0  0
    6.6625   -5.2667    0.0000 C   0  0  0  0  0  0  0  0  0  0  0  0
    5.9792   -4.0708    0.0000 O   0  0  0  0  0  0  0  0  0  0  0  0
    6.6542   -6.4500    0.0000 O   0  0  0  0  0  0  0  0  0  0  0  0
    3.2667   -5.2625    0.0000 C   0  0  0  0  0  0  0  0  0  0  0  0
    3.2625   -6.4417    0.0000 O   0  0  0  0  0  0  0  0  0  0  0  0
    6.2417   -3.1500    0.0000 C   0  0  0  0  0  0  0  0  0  0  0  0
    4.8078   -3.2111    0.0000 H   0  0  0  0  0  0  0  0  0  0  0  0
    5.9215   -6.8088    0.0000 H   0  0  0  0  0  0  0  0  0  0  0  0
  2  1  1  0
  3  1  1  0
  4  1  1  0
  5  3  1  0
  4  6  1  0
  7  2  1  0
  8  3  2  0
  9  8  1  0
 10 15  1  0
  1 11  1  1
 12  2  1  0
 13  4  1  0
 14  5  2  0
 15 11  1  0
 16  8  1  0
 17 13  1  0
  2 18  1  1
 19 13  2  0
 20 16  2  0
 21 14  1  0
 22 10  1  0
  6  5  1  0
  7 10  1  0
 17 12  1  0
  9  7  1  0
 20 14  1  0
  7 23  1  6
  4 24  1  1
M  END
> <chembl_id>
CHEMBL963

> <chembl_pref_name>
OXYMORPHONE
