
     RDKit          2D

 19 19  0  0  0  0  0  0  0  0999 V2000
    4.3875   -9.6958    0.0000 C   0  0  0  0  0  0  0  0  0  0  0  0
    5.6167   -9.6958    0.0000 C   0  0  0  0  0  0  0  0  0  0  0  0
    4.9792  -10.0333    0.0000 C   0  0  0  0  0  0  0  0  0  0  0  0
    3.7500  -10.0333    0.0000 N   0  0  0  0  0  0  0  0  0  0  0  0
    4.3875   -8.9917    0.0000 C   0  0  0  0  0  0  0  0  0  0  0  0
    5.6167   -8.9917    0.0000 C   0  0  0  0  0  0  0  0  0  0  0  0
    4.9917   -8.6542    0.0000 C   0  0  0  0  0  0  0  0  0  0  0  0
    3.1167   -9.6958    0.0000 C   0  0  0  0  0  0  0  0  0  0  0  0
    6.2333  -10.0417    0.0000 C   0  0  0  0  0  0  0  0  0  0  0  0
    7.4625  -10.0333    0.0000 C   0  0  0  0  0  0  0  0  0  0  0  0
    8.0667   -9.6667    0.0000 O   0  0  0  0  0  0  0  0  0  0  0  0
    7.4792  -10.7333    0.0000 O   0  0  0  0  0  0  0  0  0  0  0  0
    2.4917  -10.0333    0.0000 N   0  0  0  0  0  0  0  0  0  0  0  0
    4.9792  -10.7417    0.0000 I   0  0  0  0  0  0  0  0  0  0  0  0
    6.8500   -9.6958    0.0000 C   0  0  0  0  0  0  0  0  0  0  0  0
    6.2333   -8.6292    0.0000 I   0  0  0  0  0  0  0  0  0  0  0  0
    3.7500   -8.6292    0.0000 I   0  0  0  0  0  0  0  0  0  0  0  0
    1.8750   -9.6958    0.0000 C   0  0  0  0  0  0  0  0  0  0  0  0
    2.4917  -10.7417    0.0000 C   0  0  0  0  0  0  0  0  0  0  0  0
  2  3  2  0
  3  1  1  0
  4  1  1  0
  5  1  2  0
  6  7  2  0
  7  5  1  0
  8  4  2  0
  9  2  1  0
 10 15  1  0
 11 10  1  0
 12 10  2  0
 13  8  1  0
 14  3  1  0
 15  9  1  0
 16  6  1  0
 17  5  1  0
 18 13  1  0
 19 13  1  0
  2  6  1  0
M  END
> <chembl_id>
CHEMBL1201243

> <chembl_pref_name>
IPODATE
