
     RDKit          2D

 15 15  0  0  0  0  0  0  0  0999 V2000
    4.4542   -4.6917    0.0000 N   0  0  0  0  0  0  0  0  0  0  0  0
    5.6917   -4.6917    0.0000 N   0  0  0  0  0  0  0  0  0  0  0  0
    5.0750   -5.7667    0.0000 N   0  0  0  0  0  0  0  0  0  0  0  0
    4.4542   -5.4000    0.0000 C   0  0  0  0  0  0  0  0  0  0  0  0
    5.6917   -5.4000    0.0000 C   0  0  0  0  0  0  0  0  0  0  0  0
    5.0750   -4.3292    0.0000 C   0  0  0  0  0  0  0  0  0  0  0  0
    5.0750   -3.6167    0.0000 N   0  0  0  0  0  0  0  0  0  0  0  0
    3.8417   -5.7500    0.0000 N   0  0  0  0  0  0  0  0  0  0  0  0
    6.3042   -5.7500    0.0000 N   0  0  0  0  0  0  0  0  0  0  0  0
    5.6792   -3.2625    0.0000 C   0  0  0  0  0  0  0  0  0  0  0  0
    4.4625   -3.2625    0.0000 C   0  0  0  0  0  0  0  0  0  0  0  0
    3.8417   -6.4542    0.0000 C   0  0  0  0  0  0  0  0  0  0  0  0
    3.2292   -5.4000    0.0000 C   0  0  0  0  0  0  0  0  0  0  0  0
    6.9167   -5.3917    0.0000 C   0  0  0  0  0  0  0  0  0  0  0  0
    6.3042   -6.4625    0.0000 C   0  0  0  0  0  0  0  0  0  0  0  0
  2  6  1  0
  3  4  2  0
  4  1  1  0
  5  2  2  0
  6  1  2  0
  7  6  1  0
  8  4  1  0
  9  5  1  0
 10  7  1  0
 11  7  1  0
 12  8  1  0
 13  8  1  0
 14  9  1  0
 15  9  1  0
  5  3  1  0
M  END
> <chembl_id>
CHEMBL1455

> <chembl_pref_name>
ALTRETAMINE
