
     RDKit          2D

 26 28  0  0  0  0  0  0  0  0999 V2000
    2.9307    0.3838    0.0000 S   0  0  0  0  0  0  0  0  0  0  0  0
    2.1460    0.1289    0.0000 C   0  0  0  0  0  0  0  0  0  0  0  0
    1.5330    0.6809    0.0000 C   0  0  0  0  0  0  0  0  0  0  0  0
    0.7483    0.4260    0.0000 C   0  0  0  0  0  0  0  0  0  0  0  0
    0.5768   -0.3810    0.0000 C   0  0  0  0  0  0  0  0  0  0  0  0
    1.1899   -0.9330    0.0000 C   0  0  0  0  0  0  0  0  0  0  0  0
    1.9745   -0.6781    0.0000 C   0  0  0  0  0  0  0  0  0  0  0  0
   -0.2078   -0.6359    0.0000 N   0  0  0  0  0  0  0  0  0  0  0  0
   -0.8753   -0.1510    0.0000 C   0  0  0  0  0  0  0  0  0  0  0  0
   -0.8753    0.6740    0.0000 C   0  0  0  0  0  0  0  0  0  0  0  0
   -0.1608    1.0865    0.0000 C   0  0  0  0  0  0  0  0  0  0  0  0
   -0.1608    1.9115    0.0000 C   0  0  0  0  0  0  0  0  0  0  0  0
   -0.8753    2.3240    0.0000 C   0  0  0  0  0  0  0  0  0  0  0  0
   -0.8753    3.1490    0.0000 C   0  0  0  0  0  0  0  0  0  0  0  0
   -1.5897    1.9115    0.0000 C   0  0  0  0  0  0  0  0  0  0  0  0
   -1.5897    1.0865    0.0000 C   0  0  0  0  0  0  0  0  0  0  0  0
   -1.5427   -0.6359    0.0000 C   0  0  0  0  0  0  0  0  0  0  0  0
   -1.2878   -1.4205    0.0000 C   0  0  0  0  0  0  0  0  0  0  0  0
   -1.7727   -2.0880    0.0000 C   0  0  0  0  0  0  0  0  0  0  0  0
   -2.2576   -2.7554    0.0000 F   0  0  0  0  0  0  0  0  0  0  0  0
   -1.1052   -2.5729    0.0000 F   0  0  0  0  0  0  0  0  0  0  0  0
   -2.4401   -1.6031    0.0000 F   0  0  0  0  0  0  0  0  0  0  0  0
   -0.4628   -1.4205    0.0000 N   0  0  0  0  0  0  0  0  0  0  0  0
    3.7153    0.6388    0.0000 N   0  0  0  0  0  0  0  0  0  0  0  0
    3.1856   -0.4008    0.0000 O   0  0  0  0  0  0  0  0  0  0  0  0
    2.6757    1.1685    0.0000 O   0  0  0  0  0  0  0  0  0  0  0  0
  2  1  1  0
 24  1  1  0
 25  1  2  0
 26  1  2  0
  3  2  2  0
  2  7  1  0
  4  3  1  0
  5  4  2  0
  5  6  1  0
  5  8  1  0
  7  6  2  0
  9  8  1  0
 23  8  1  0
  9 10  1  0
 17  9  2  0
 11 10  2  0
 10 16  1  0
 11 12  1  0
 13 12  2  0
 14 13  1  0
 15 13  1  0
 16 15  2  0
 18 17  1  0
 18 19  1  0
 18 23  2  0
 19 20  1  0
 19 21  1  0
 19 22  1  0
M  END
> <chembl_id>
CHEMBL118

> <chembl_pref_name>
CELECOXIB
