
     RDKit          2D

 21 22  0  0  0  0  0  0  0  0999 V2000
   -1.0000   -0.4167    0.0000 C   0  0  0  0  0  0  0  0  0  0  0  0
    0.3292   -0.4167    0.0000 C   0  0  0  0  0  0  0  0  0  0  0  0
   -3.0083   -1.5792    0.0000 N   0  0  0  0  0  0  0  0  0  0  0  0
   -1.6708   -1.5792    0.0000 C   0  0  0  0  0  0  0  0  0  0  0  0
    0.3292    0.9208    0.0000 C   0  0  0  0  0  0  0  0  0  0  0  0
    1.6667   -0.4167    0.0000 C   0  0  0  0  0  0  0  0  0  0  0  0
   -3.0458   -2.9167    0.0000 C   0  0  0  0  0  0  0  0  0  0  0  0
   -4.3458   -1.5417    0.0000 C   0  0  0  0  0  0  0  0  0  0  0  0
   -3.0083   -0.2042    0.0000 C   0  0  0  0  0  0  0  0  0  0  0  0
   -1.0000   -2.7375    0.0000 C   0  0  0  0  0  0  0  0  0  0  0  0
    1.4917    1.5833    0.0000 C   0  0  0  0  0  0  0  0  0  0  0  0
   -0.7958    1.5833    0.0000 C   0  0  0  0  0  0  0  0  0  0  0  0
    2.3375    0.7458    0.0000 C   0  0  0  0  0  0  0  0  0  0  0  0
    2.3375   -1.5792    0.0000 C   0  0  0  0  0  0  0  0  0  0  0  0
   -4.1708   -3.5792    0.0000 C   0  0  0  0  0  0  0  0  0  0  0  0
    1.4917    2.9208    0.0000 C   0  0  0  0  0  0  0  0  0  0  0  0
   -0.7958    2.9208    0.0000 C   0  0  0  0  0  0  0  0  0  0  0  0
    3.6750    0.7458    0.0000 C   0  0  0  0  0  0  0  0  0  0  0  0
    3.6750   -1.5792    0.0000 C   0  0  0  0  0  0  0  0  0  0  0  0
    4.3417   -0.4167    0.0000 C   0  0  0  0  0  0  0  0  0  0  0  0
    0.3292    3.5875    0.0000 C   0  0  0  0  0  0  0  0  0  0  0  0
  2  1  1  0
  3  4  1  0
  4  1  1  0
  5  2  1  0
  6  2  1  0
  7  3  1  0
  8  3  1  0
  9  3  1  0
 10  4  1  0
 11  5  2  0
 12  5  1  0
 13  6  1  0
 14  6  2  0
 15  7  1  0
 16 11  1  0
 17 12  2  0
 18 13  2  0
 19 14  1  0
 20 18  1  0
 21 17  1  0
 21 16  2  0
 19 20  2  0
M  CHG  1   3   1
M  END
> <chembl_id>
CHEMBL2110805

> <chembl_pref_name>
EMEPRONIUM
