
     RDKit          2D

 22 23  0  0  0  0  0  0  0  0999 V2000
   -1.5833    1.0458    0.0000 C   0  0  0  0  0  0  0  0  0  0  0  0
   -2.2250    2.1625    0.0000 C   0  0  0  0  0  0  0  0  0  0  0  0
   -2.2250   -0.0750    0.0000 C   0  0  0  0  0  0  0  0  0  0  0  0
   -3.5208    2.1625    0.0000 C   0  0  0  0  0  0  0  0  0  0  0  0
   -3.5208   -0.0750    0.0000 C   0  0  0  0  0  0  0  0  0  0  0  0
   -4.1708    1.0458    0.0000 C   0  0  0  0  0  0  0  0  0  0  0  0
   -0.2958   -1.1917    0.0000 N   0  0  0  0  0  0  0  0  0  0  0  0
   -0.2958    1.0458    0.0000 C   0  0  0  0  0  0  0  0  0  0  0  0
    0.3542   -0.0750    0.0000 C   0  0  0  0  0  0  0  0  0  0  0  0
    2.2917   -1.2000    0.0000 C   0  0  0  0  0  0  0  0  0  0  0  0
    3.5917    1.0458    0.0000 C   0  0  0  0  0  0  0  0  0  0  0  0
    1.6500   -2.3167    0.0000 C   0  0  0  0  0  0  0  0  0  0  0  0
   -4.1833    3.2958    0.0000 O   0  0  0  0  0  0  0  0  0  0  0  0
   -4.1833   -1.2000    0.0000 O   0  0  0  0  0  0  0  0  0  0  0  0
    1.6500   -0.0792    0.0000 C   0  0  0  0  0  0  0  0  0  0  0  0
    3.5917   -1.2000    0.0000 C   0  0  0  0  0  0  0  0  0  0  0  0
    2.2917    1.0458    0.0000 C   0  0  0  0  0  0  0  0  0  0  0  0
    4.2375   -0.0875    0.0000 C   0  0  0  0  0  0  0  0  0  0  0  0
    0.3542    2.1625    0.0000 O   0  0  0  0  0  0  0  0  0  0  0  0
    4.2500    2.1708    0.0000 O   0  0  0  0  0  0  0  0  0  0  0  0
    0.3542   -2.3167    0.0000 C   0  0  0  0  0  0  0  0  0  0  0  0
   -0.2958   -3.4375    0.0000 C   0  0  0  0  0  0  0  0  0  0  0  0
  2  1  2  0
  3  1  1  0
  4  2  1  0
  5  3  2  0
  6  5  1  0
  7  9  1  0
  8  1  1  0
  9  8  1  0
 10 12  1  0
 11 18  2  0
 12 21  1  0
 13  4  1  0
 14  5  1  0
 15 10  1  0
 16 10  2  0
 17 15  2  0
 18 16  1  0
 19  8  1  0
 20 11  1  0
 21  7  1  0
 22 21  1  0
  4  6  2  0
 17 11  1  0
M  END
> <chembl_id>
CHEMBL32800

> <chembl_pref_name>
FENOTEROL
