
     RDKit          2D

 36 36  0  0  0  0  0  0  0  0999 V2000
    6.1417   -6.2708    0.0000 C   0  0  0  0  0  0  0  0  0  0  0  0
    6.1333   -7.6875    0.0000 C   0  0  0  0  0  0  0  0  0  0  0  0
    5.5292   -6.6250    0.0000 C   0  0  0  0  0  0  0  0  0  0  0  0
    5.5250   -7.3292    0.0000 C   0  0  0  0  0  0  0  0  0  0  0  0
    6.1458   -5.5625    0.0000 O   0  0  0  0  0  0  0  0  0  0  0  0
    6.1292   -8.3958    0.0000 O   0  0  0  0  0  0  0  0  0  0  0  0
    6.7542   -6.6292    0.0000 O   0  0  0  0  0  0  0  0  0  0  0  0
    6.7500   -7.3375    0.0000 O   0  0  0  0  0  0  0  0  0  0  0  0
    2.9958   -7.0917    0.0000 C   0  0  0  0  0  0  0  0  0  0  0  0
    1.7750   -7.0917    0.0000 C   0  0  0  0  0  0  0  0  0  0  0  0
    2.3833   -6.7375    0.0000 C   0  0  0  0  0  0  0  0  0  0  0  0
    1.7750   -7.8000    0.0000 C   0  0  0  0  0  0  0  0  0  0  0  0
    2.9958   -7.8000    0.0000 C   0  0  0  0  0  0  0  0  0  0  0  0
    2.3833   -8.1542    0.0000 N   0  0  0  0  0  0  0  0  0  0  0  0
    3.6125   -6.7375    0.0000 C   0  0  0  0  0  0  0  0  0  0  0  0
    1.1583   -6.7375    0.0000 C   0  0  0  0  0  0  0  0  0  0  0  0
    2.3833   -5.3208    0.0000 C   0  0  0  0  0  0  0  0  0  0  0  0
    3.0000   -4.9667    0.0000 C   0  0  0  0  0  0  0  0  0  0  0  0
    3.6125   -6.0292    0.0000 O   0  0  0  0  0  0  0  0  0  0  0  0
    1.1583   -6.0292    0.0000 O   0  0  0  0  0  0  0  0  0  0  0  0
    1.1583   -8.1500    0.0000 C   0  0  0  0  0  0  0  0  0  0  0  0
    4.2250   -7.0917    0.0000 O   0  0  0  0  0  0  0  0  0  0  0  0
    0.5458   -7.0917    0.0000 O   0  0  0  0  0  0  0  0  0  0  0  0
    3.6125   -8.1500    0.0000 C   0  0  0  0  0  0  0  0  0  0  0  0
    3.6125   -5.3208    0.0000 Cl  0  0  0  0  0  0  0  0  0  0  0  0
   -1.2958   -8.1500    0.0000 N   0  0  0  0  0  0  0  0  0  0  0  0
    1.7750   -4.9667    0.0000 C   0  0  0  0  0  0  0  0  0  0  0  0
    0.5458   -7.7958    0.0000 O   0  0  0  0  0  0  0  0  0  0  0  0
    3.0000   -4.2583    0.0000 C   0  0  0  0  0  0  0  0  0  0  0  0
   -0.6792   -7.7958    0.0000 C   0  0  0  0  0  0  0  0  0  0  0  0
   -0.0667   -6.7375    0.0000 C   0  0  0  0  0  0  0  0  0  0  0  0
   -0.0667   -8.1500    0.0000 C   0  0  0  0  0  0  0  0  0  0  0  0
    4.8375   -6.7375    0.0000 C   0  0  0  0  0  0  0  0  0  0  0  0
    1.7708   -4.2625    0.0000 C   0  0  0  0  0  0  0  0  0  0  0  0
   -0.6792   -7.0917    0.0000 C   0  0  0  0  0  0  0  0  0  0  0  0
    2.3875   -3.9042    0.0000 C   0  0  0  0  0  0  0  0  0  0  0  0
  2  4  1  0
  3  1  1  0
  4  3  2  0
  5  1  2  0
  6  2  2  0
  7  1  1  0
  8  2  1  0
 10 11  1  0
 11  9  1  0
 12 10  2  0
 13  9  2  0
 14 13  1  0
 15  9  1  0
 16 10  1  0
 17 11  1  0
 18 17  2  0
 19 15  2  0
 20 16  2  0
 21 12  1  0
 22 15  1  0
 23 16  1  0
 24 13  1  0
 25 18  1  0
 26 30  1  0
 27 17  1  0
 28 21  1  0
 29 18  1  0
 30 32  1  0
 31 23  1  0
 32 28  1  0
 33 22  1  0
 34 27  2  0
 35 31  1  0
 36 29  2  0
 14 12  1  0
 34 36  1  0
M  END
> <chembl_id>
CHEMBL1200984

> <chembl_pref_name>
AMLODIPINE MALEATE
