
     RDKit          2D

 30 33  0  0  1  0  0  0  0  0999 V2000
    5.5917   -5.7375    0.0000 C   0  0  0  0  0  0  0  0  0  0  0  0
    5.5917   -6.4500    0.0000 C   0  0  0  0  0  0  0  0  0  0  0  0
    3.7375   -6.7917    0.0000 C   0  0  0  0  0  0  0  0  0  0  0  0
    6.2292   -5.5292    0.0000 C   0  0  0  0  0  0  0  0  0  0  0  0
    4.9917   -6.7917    0.0000 C   0  0  0  0  0  0  0  0  0  0  0  0
    4.3667   -6.4500    0.0000 C   0  0  0  0  0  0  0  0  0  0  0  0
    3.7375   -7.5042    0.0000 C   0  0  0  0  0  0  0  0  0  0  0  0
    4.9917   -5.3917    0.0000 C   0  0  0  0  0  0  0  0  0  0  0  0
    4.3667   -5.7250    0.0000 C   0  0  0  0  0  0  0  0  0  0  0  0
    6.6417   -6.1000    0.0000 C   0  0  0  0  0  0  0  0  0  0  0  0
    3.1250   -6.4250    0.0000 C   0  0  0  0  0  0  0  0  0  0  0  0
    6.2667   -6.6417    0.0000 C   0  0  0  0  0  0  0  0  0  0  0  0
    3.0917   -7.8375    0.0000 C   0  0  0  0  0  0  0  0  0  0  0  0
    4.9917   -7.5167    0.0000 C   0  0  0  0  0  0  0  0  0  0  0  0
    2.4917   -6.7917    0.0000 C   0  0  0  0  0  0  0  0  0  0  0  0
    6.2292   -4.8125    0.0000 C   0  0  0  0  0  0  0  0  0  0  0  0
    2.4917   -7.4750    0.0000 C   0  0  0  0  0  0  0  0  0  0  0  0
    4.3667   -7.8792    0.0000 C   0  0  0  0  0  0  0  0  0  0  0  0
    5.5917   -4.4625    0.0000 O   0  0  0  0  0  0  0  0  0  0  0  0
    1.8542   -7.7917    0.0000 O   0  0  0  0  0  0  0  0  0  0  0  0
    5.5917   -5.0167    0.0000 C   0  0  0  0  0  0  0  0  0  0  0  0
    3.7500   -5.3500    0.0000 O   0  0  0  0  0  0  0  0  0  0  0  0
    3.7375   -6.0667    0.0000 C   0  0  0  0  0  0  0  0  0  0  0  0
    6.8667   -5.2000    0.0000 C   0  0  0  0  0  0  0  0  0  0  0  0
    7.3625   -6.0917    0.0000 C   0  0  0  0  0  0  0  0  0  0  0  0
    6.8500   -4.4542    0.0000 C   0  0  0  0  0  0  0  0  0  0  0  0
    7.4875   -4.8000    0.0000 C   0  0  0  0  0  0  0  0  0  0  0  0
    5.5917   -7.1667    0.0000 H   0  0  0  0  0  0  0  0  0  0  0  0
    4.9917   -6.0667    0.0000 H   0  0  0  0  0  0  0  0  0  0  0  0
    4.3667   -7.1667    0.0000 H   0  0  0  0  0  0  0  0  0  0  0  0
  2  1  1  0
  3  6  1  0
  4  1  1  0
  5  2  1  0
  6  9  1  0
  7  3  1  0
  8  1  1  0
  9  8  1  0
 10  4  1  0
 11  3  1  0
 12  2  1  0
 13  7  2  0
 14  5  1  0
 15 11  2  0
 16  4  1  0
 17 15  1  0
 18 14  1  0
 19 16  2  0
 20 17  2  0
  1 21  1  1
  9 22  1  1
  3 23  1  1
  4 24  1  6
 10 25  1  6
 26 16  1  0
 27 26  1  0
  2 28  1  6
  5 29  1  1
  6 30  1  6
 10 12  1  0
  6  5  1  0
  7 18  1  0
 17 13  1  0
M  END
> <chembl_id>
CHEMBL1200617

> <chembl_pref_name>
RIMEXOLONE
