
     RDKit          2D

 17 16  0  0  0  0  0  0  0  0999 V2000
    1.5042   -0.1750    0.0000 N   0  0  0  0  0  0  0  0  0  0  0  0
    4.2625   -0.6792    0.0000 O   0  0  0  0  0  0  0  0  0  0  0  0
    2.5792    0.0583    0.0000 C   0  0  0  0  0  0  0  0  0  0  0  0
    1.6792   -1.2417    0.0000 C   0  0  0  0  0  0  0  0  0  0  0  0
    1.3542    0.8833    0.0000 C   0  0  0  0  0  0  0  0  0  0  0  0
    0.4542   -0.3167    0.0000 C   0  0  0  0  0  0  0  0  0  0  0  0
    3.1750   -0.9292    0.0000 C   0  0  0  0  0  0  0  0  0  0  0  0
   -2.2333    0.1833    0.0000 C   0  0  0  0  0  0  0  0  0  0  0  0
   -1.3625    0.6625    0.0000 C   0  0  0  0  0  0  0  0  0  0  0  0
   -2.3250   -0.9917    0.0000 C   0  0  0  0  0  0  0  0  0  0  0  0
   -0.3708    0.1250    0.0000 O   0  0  0  0  0  0  0  0  0  0  0  0
   -1.3208    1.7625    0.0000 O   0  0  0  0  0  0  0  0  0  0  0  0
   -1.4333   -1.6792    0.0000 O   0  0  0  0  0  0  0  0  0  0  0  0
   -3.2000    0.8500    0.0000 C   0  0  0  0  0  0  0  0  0  0  0  0
   -3.3833   -1.4917    0.0000 C   0  0  0  0  0  0  0  0  0  0  0  0
   -4.2583    0.3458    0.0000 C   0  0  0  0  0  0  0  0  0  0  0  0
   -4.3458   -0.8292    0.0000 C   0  0  0  0  0  0  0  0  0  0  0  0
  2  7  1  0
  3  1  1  0
  4  1  1  0
  5  1  1  0
  6  1  1  0
  7  3  1  0
  9  8  1  0
 10  8  1  0
 11  9  1  0
 12  9  2  0
 13 10  1  0
 14  8  2  0
 15 10  2  0
 16 14  1  0
 17 15  1  0
 16 17  2  0
M  CHG  2   1   1  11  -1
M  END
> <chembl_id>
CHEMBL2104095

> <chembl_pref_name>
CHOLINE SALICYLATE
