
     RDKit          2D

 42 47  0  0  1  0  0  0  0  0999 V2000
    5.6417   -6.0167    0.0000 C   0  0  0  0  0  0  0  0  0  0  0  0
    3.8375   -7.0292    0.0000 C   0  0  0  0  0  0  0  0  0  0  0  0
    5.6417   -6.6875    0.0000 C   0  0  0  0  0  0  0  0  0  0  0  0
    6.2875   -5.8000    0.0000 C   0  0  0  0  0  0  0  0  0  0  0  0
    6.6667   -6.3667    0.0000 C   0  0  0  0  0  0  0  0  0  0  0  0
    4.4500   -6.7042    0.0000 C   0  0  0  0  0  0  0  0  0  0  0  0
    5.0542   -7.0417    0.0000 C   0  0  0  0  0  0  0  0  0  0  0  0
    7.3542   -6.3542    0.0000 N   0  0  0  0  0  0  0  0  0  0  0  0
    6.2917   -6.9000    0.0000 C   0  0  0  0  0  0  0  0  0  0  0  0
    3.2292   -6.6750    0.0000 C   0  0  0  0  0  0  0  0  0  0  0  0
    2.6125   -7.0417    0.0000 C   0  0  0  0  0  0  0  0  0  0  0  0
    3.8375   -7.7292    0.0000 C   0  0  0  0  0  0  0  0  0  0  0  0
    1.9667   -6.6750    0.0000 N   0  0  0  0  0  0  0  0  0  0  0  0
    5.0542   -5.6667    0.0000 C   0  0  0  0  0  0  0  0  0  0  0  0
    2.6125   -7.6917    0.0000 C   0  0  0  0  0  0  0  0  0  0  0  0
    6.3167   -5.0167    0.0000 O   0  0  0  0  0  0  0  0  0  0  0  0
    4.4500   -6.0042    0.0000 C   0  0  0  0  0  0  0  0  0  0  0  0
    3.2167   -8.0667    0.0000 C   0  0  0  0  0  0  0  0  0  0  0  0
    5.0542   -7.7292    0.0000 C   0  0  0  0  0  0  0  0  0  0  0  0
    6.9042   -4.6625    0.0000 C   0  0  0  0  0  0  0  0  0  0  0  0
    4.4417   -8.0792    0.0000 C   0  0  0  0  0  0  0  0  0  0  0  0
    6.9042   -3.9917    0.0000 O   0  0  0  0  0  0  0  0  0  0  0  0
    0.7875   -6.0042    0.0000 O   0  0  0  0  0  0  0  0  0  0  0  0
    7.2042   -7.6375    0.0000 C   0  0  0  0  0  0  0  0  0  0  0  0
    6.9042   -6.9875    0.0000 C   0  0  0  0  0  0  0  0  0  0  0  0
    7.9000   -7.6375    0.0000 C   0  0  0  0  0  0  0  0  0  0  0  0
    5.5750   -5.2875    0.0000 C   0  0  0  0  0  0  0  0  0  0  0  0
    3.7625   -6.2750    0.0000 C   0  0  0  0  0  0  0  0  0  0  0  0
    2.0000   -8.0167    0.0000 O   0  0  0  0  0  0  0  0  0  0  0  0
    7.8542   -6.9000    0.0000 C   0  0  0  0  0  0  0  0  0  0  0  0
    7.7667   -5.6542    0.0000 C   0  0  0  0  0  0  0  0  0  0  0  0
    1.9667   -5.9792    0.0000 C   0  0  0  0  0  0  0  0  0  0  0  0
    1.3792   -7.0292    0.0000 C   0  0  0  0  0  0  0  0  0  0  0  0
    7.5000   -5.0167    0.0000 C   0  0  0  0  0  0  0  0  0  0  0  0
    1.3792   -5.6375    0.0000 C   0  0  0  0  0  0  0  0  0  0  0  0
    0.7875   -6.6750    0.0000 C   0  0  0  0  0  0  0  0  0  0  0  0
    8.5125   -6.6875    0.0000 C   0  0  0  0  0  0  0  0  0  0  0  0
    8.5125   -5.9042    0.0000 C   0  0  0  0  0  0  0  0  0  0  0  0
    3.8500   -8.5000    0.0000 H   0  0  0  0  0  0  0  0  0  0  0  0
    5.6417   -7.4417    0.0000 H   0  0  0  0  0  0  0  0  0  0  0  0
    5.0542   -6.2917    0.0000 H   0  0  0  0  0  0  0  0  0  0  0  0
    4.4667   -7.4042    0.0000 H   0  0  0  0  0  0  0  0  0  0  0  0
  2  6  1  0
  3  1  1  0
  4  1  1  0
  5  4  1  0
  6 17  1  0
  7  3  1  0
  5  8  1  1
  9  3  1  0
 10  2  1  0
 11 10  1  0
 12  2  1  0
 11 13  1  1
 14  1  1  0
 15 18  1  0
  4 16  1  1
 17 14  1  0
 18 12  1  0
 19  7  1  0
 20 16  1  0
 21 19  1  0
 22 20  2  0
 23 35  1  0
 24 25  1  0
 25  8  1  0
 26 24  2  0
  1 27  1  1
  2 28  1  1
 15 29  1  6
 30  8  1  0
 31  8  1  0
 32 13  1  0
 33 13  1  0
 34 20  1  0
 35 32  1  0
 36 33  1  0
 37 30  1  0
 38 31  1  0
 12 39  1  6
  3 40  1  6
  7 41  1  1
  6 42  1  6
  9  5  1  0
  6  7  1  0
 12 21  1  0
 38 37  1  0
 15 11  1  0
 23 36  1  0
M  CHG  1   8   1
M  END
> <chembl_id>
CHEMBL1201244

> <chembl_pref_name>
ROCURONIUM
