
     RDKit          2D

 59 62  0  0  0  0  0  0  0  0999 V2000
    0.0000   -4.1409    0.0000 O   0  0  0  0  0  0  0  0  0  0  0  0
    2.3571   -4.1409    0.0000 O   0  0  0  0  0  0  0  0  0  0  0  0
    1.0273    1.2216    0.0000 N   0  0  0  0  0  0  0  0  0  0  0  0
    0.3129    0.8091    0.0000 C   0  0  0  0  0  0  0  0  0  0  0  0
    0.3129   -0.0159    0.0000 C   0  0  0  0  0  0  0  0  0  0  0  0
    1.0273   -0.4284    0.0000 C   0  0  0  0  0  0  0  0  0  0  0  0
    1.7418   -0.0159    0.0000 C   0  0  0  0  0  0  0  0  0  0  0  0
    1.7418    0.8091    0.0000 C   0  0  0  0  0  0  0  0  0  0  0  0
    0.8898    0.6716    0.0000 C   0  0  0  0  0  0  0  0  0  0  0  0
    0.8898    0.1216    0.0000 C   0  0  0  0  0  0  0  0  0  0  0  0
   -0.4016    1.2216    0.0000 C   0  0  0  0  0  0  0  0  0  0  0  0
   -1.1161    0.8091    0.0000 C   0  0  0  0  0  0  0  0  0  0  0  0
   -1.1161   -0.0159    0.0000 C   0  0  0  0  0  0  0  0  0  0  0  0
   -1.8306   -0.4284    0.0000 C   0  0  0  0  0  0  0  0  0  0  0  0
   -2.5450   -0.0159    0.0000 N   0  0  0  0  0  0  0  0  0  0  0  0
   -2.5450    0.8091    0.0000 C   0  0  0  0  0  0  0  0  0  0  0  0
   -1.8306    1.2216    0.0000 C   0  0  0  0  0  0  0  0  0  0  0  0
   -0.4016   -0.4284    0.0000 C   0  0  0  0  0  0  0  0  0  0  0  0
   -0.4016   -1.2534    0.0000 C   0  0  0  0  0  0  0  0  0  0  0  0
   -1.1161   -1.6659    0.0000 C   0  0  0  0  0  0  0  0  0  0  0  0
   -1.8306   -1.2534    0.0000 C   0  0  0  0  0  0  0  0  0  0  0  0
    0.3129    1.6341    0.0000 H   0  0  0  0  0  0  0  0  0  0  0  0
   -0.4016    2.0466    0.0000 O   0  0  0  0  0  0  0  0  0  0  0  0
    0.3129   -1.6659    0.0000 O   0  0  0  0  0  0  0  0  0  0  0  0
    0.3129   -2.4909    0.0000 C   0  0  0  0  0  0  0  0  0  0  0  0
    2.4563   -0.4284    0.0000 C   0  0  0  0  0  0  0  0  0  0  0  0
    3.1707   -0.0159    0.0000 C   0  0  0  0  0  0  0  0  0  0  0  0
    1.0273   -1.2534    0.0000 H   0  0  0  0  0  0  0  0  0  0  0  0
    8.6288    1.2216    0.0000 N   0  0  0  0  0  0  0  0  0  0  0  0
    7.9143    0.8091    0.0000 C   0  0  0  0  0  0  0  0  0  0  0  0
    7.9143   -0.0159    0.0000 C   0  0  0  0  0  0  0  0  0  0  0  0
    8.6288   -0.4284    0.0000 C   0  0  0  0  0  0  0  0  0  0  0  0
    9.3433   -0.0159    0.0000 C   0  0  0  0  0  0  0  0  0  0  0  0
    9.3433    0.8091    0.0000 C   0  0  0  0  0  0  0  0  0  0  0  0
    8.4913    0.6716    0.0000 C   0  0  0  0  0  0  0  0  0  0  0  0
    8.4913    0.1216    0.0000 C   0  0  0  0  0  0  0  0  0  0  0  0
    7.1999    1.2216    0.0000 C   0  0  0  0  0  0  0  0  0  0  0  0
    6.4854    0.8091    0.0000 C   0  0  0  0  0  0  0  0  0  0  0  0
    6.4854   -0.0159    0.0000 C   0  0  0  0  0  0  0  0  0  0  0  0
    5.7709   -0.4284    0.0000 C   0  0  0  0  0  0  0  0  0  0  0  0
    5.0565   -0.0159    0.0000 N   0  0  0  0  0  0  0  0  0  0  0  0
    5.0565    0.8091    0.0000 C   0  0  0  0  0  0  0  0  0  0  0  0
    5.7709    1.2216    0.0000 C   0  0  0  0  0  0  0  0  0  0  0  0
    7.1999   -0.4284    0.0000 C   0  0  0  0  0  0  0  0  0  0  0  0
    7.1999   -1.2534    0.0000 C   0  0  0  0  0  0  0  0  0  0  0  0
    6.4854   -1.6659    0.0000 C   0  0  0  0  0  0  0  0  0  0  0  0
    5.7709   -1.2534    0.0000 C   0  0  0  0  0  0  0  0  0  0  0  0
    7.9143    1.6341    0.0000 H   0  0  0  0  0  0  0  0  0  0  0  0
    7.1999    2.0466    0.0000 O   0  0  0  0  0  0  0  0  0  0  0  0
    7.9143   -1.6659    0.0000 O   0  0  0  0  0  0  0  0  0  0  0  0
    7.9143   -2.4909    0.0000 C   0  0  0  0  0  0  0  0  0  0  0  0
   10.0577   -0.4284    0.0000 C   0  0  0  0  0  0  0  0  0  0  0  0
   10.7722   -0.0159    0.0000 C   0  0  0  0  0  0  0  0  0  0  0  0
    8.6288   -1.2534    0.0000 H   0  0  0  0  0  0  0  0  0  0  0  0
    4.6835   -3.6018    0.0000 S   0  0  0  0  0  0  0  0  0  0  0  0
    4.6835   -4.4268    0.0000 O   0  0  0  0  0  0  0  0  0  0  0  0
    4.6835   -2.7768    0.0000 O   0  0  0  0  0  0  0  0  0  0  0  0
    5.5085   -3.6018    0.0000 O   0  0  0  0  0  0  0  0  0  0  0  0
    3.8585   -3.6018    0.0000 O   0  0  0  0  0  0  0  0  0  0  0  0
  3  4  1  0
  4  5  1  0
  5  6  1  0
  6  7  1  0
  7  8  1  0
  8  3  1  0
  3  9  1  0
  9 10  1  0
  6 10  1  0
  4 11  1  0
 11 12  1  0
 12 13  1  0
 17 12  2  0
 14 15  1  0
 15 16  2  0
 16 17  1  0
 13 18  2  0
 14 13  1  0
 21 14  2  0
 18 19  1  0
 19 20  2  0
 20 21  1  0
  4 22  1  6
 11 23  1  1
 19 24  1  0
 24 25  1  0
  7 26  1  6
 26 27  2  0
  6 28  1  1
 29 30  1  0
 30 31  1  0
 31 32  1  0
 32 33  1  0
 33 34  1  0
 34 29  1  0
 29 35  1  0
 35 36  1  0
 32 36  1  0
 30 37  1  0
 37 38  1  0
 38 39  1  0
 43 38  2  0
 40 41  1  0
 41 42  2  0
 42 43  1  0
 39 44  2  0
 40 39  1  0
 47 40  2  0
 44 45  1  0
 45 46  2  0
 46 47  1  0
 30 48  1  6
 37 49  1  1
 45 50  1  0
 50 51  1  0
 33 52  1  6
 52 53  2  0
 32 54  1  1
 56 55  2  0
 57 55  2  0
 58 55  1  0
 59 55  1  0
M  END
> <chembl_id>
CHEMBL2359966

> <chembl_pref_name>
QUININE SULFATE
