
     RDKit          2D

 16 18  0  0  0  0  0  0  0  0999 V2000
    4.8417   -4.6917    0.0000 C   0  0  0  0  0  0  0  0  0  0  0  0
    5.4542   -5.0167    0.0000 C   0  0  0  0  0  0  0  0  0  0  0  0
    6.0625   -4.6667    0.0000 C   0  0  0  0  0  0  0  0  0  0  0  0
    4.2292   -5.0417    0.0000 O   0  0  0  0  0  0  0  0  0  0  0  0
    4.8292   -3.9750    0.0000 C   0  0  0  0  0  0  0  0  0  0  0  0
    6.0500   -3.9542    0.0000 C   0  0  0  0  0  0  0  0  0  0  0  0
    3.6042   -4.7042    0.0000 C   0  0  0  0  0  0  0  0  0  0  0  0
    4.2042   -3.6292    0.0000 C   0  0  0  0  0  0  0  0  0  0  0  0
    5.4292   -3.6042    0.0000 C   0  0  0  0  0  0  0  0  0  0  0  0
    3.5917   -3.9917    0.0000 C   0  0  0  0  0  0  0  0  0  0  0  0
    6.7417   -4.8667    0.0000 O   0  0  0  0  0  0  0  0  0  0  0  0
    7.1542   -4.2917    0.0000 C   0  0  0  0  0  0  0  0  0  0  0  0
    6.7250   -3.7250    0.0000 C   0  0  0  0  0  0  0  0  0  0  0  0
    2.9917   -5.0667    0.0000 O   0  0  0  0  0  0  0  0  0  0  0  0
    5.4667   -5.7375    0.0000 O   0  0  0  0  0  0  0  0  0  0  0  0
    6.0875   -6.0792    0.0000 C   0  0  0  0  0  0  0  0  0  0  0  0
  2  1  2  0
  3  2  1  0
  4  1  1  0
  5  1  1  0
  6  9  1  0
  7  4  1  0
  8  5  1  0
  9  5  2  0
 10  8  2  0
 11  3  1  0
 12 11  1  0
 13  6  1  0
 14  7  2  0
 15  2  1  0
 16 15  1  0
  6  3  2  0
 10  7  1  0
 12 13  2  0
M  END
> <chembl_id>
CHEMBL416

> <chembl_pref_name>
METHOXSALEN
