
     RDKit          2D

 44 46  0  0  0  0  0  0  0  0999 V2000
   -0.2958   -5.0667    0.0000 C   0  0  0  0  0  0  0  0  0  0  0  0
    0.3542   -5.4167    0.0000 C   0  0  0  0  0  0  0  0  0  0  0  0
    0.9917   -5.0500    0.0000 C   0  0  0  0  0  0  0  0  0  0  0  0
   -0.2958   -4.3292    0.0000 C   0  0  0  0  0  0  0  0  0  0  0  0
    0.9917   -4.3500    0.0000 C   0  0  0  0  0  0  0  0  0  0  0  0
    0.3542   -3.9792    0.0000 C   0  0  0  0  0  0  0  0  0  0  0  0
    1.6000   -5.4167    0.0000 C   0  0  0  0  0  0  0  0  0  0  0  0
    2.8542   -5.4167    0.0000 N   0  0  0  0  0  0  0  0  0  0  0  0
   -0.8708   -3.9875    0.0000 O   0  0  0  0  0  0  0  0  0  0  0  0
   -0.8458   -5.3792    0.0000 C   0  0  0  0  0  0  0  0  0  0  0  0
    1.6000   -6.0625    0.0000 O   0  0  0  0  0  0  0  0  0  0  0  0
   10.2792   -5.5167    0.0000 C   0  0  0  0  0  0  0  0  0  0  0  0
   -1.3958   -5.0500    0.0000 O   0  0  0  0  0  0  0  0  0  0  0  0
    7.1917   -5.0917    0.0000 O   0  0  0  0  0  0  0  0  0  0  0  0
    2.2417   -5.0500    0.0000 C   0  0  0  0  0  0  0  0  0  0  0  0
    3.4750   -5.0667    0.0000 C   0  0  0  0  0  0  0  0  0  0  0  0
    9.7000   -5.1292    0.0000 C   0  0  0  0  0  0  0  0  0  0  0  0
    6.5542   -5.4417    0.0000 C   0  0  0  0  0  0  0  0  0  0  0  0
    7.8250   -5.4667    0.0000 C   0  0  0  0  0  0  0  0  0  0  0  0
   10.9042   -5.1292    0.0000 C   0  0  0  0  0  0  0  0  0  0  0  0
   10.2792   -6.1875    0.0000 C   0  0  0  0  0  0  0  0  0  0  0  0
    4.0917   -5.4292    0.0000 C   0  0  0  0  0  0  0  0  0  0  0  0
    9.0667   -5.4917    0.0000 C   0  0  0  0  0  0  0  0  0  0  0  0
    8.4917   -5.1167    0.0000 C   0  0  0  0  0  0  0  0  0  0  0  0
    5.9625   -5.0667    0.0000 C   0  0  0  0  0  0  0  0  0  0  0  0
    4.7292   -5.0667    0.0000 C   0  0  0  0  0  0  0  0  0  0  0  0
    5.3250   -5.4292    0.0000 C   0  0  0  0  0  0  0  0  0  0  0  0
   11.5417   -5.5167    0.0000 C   0  0  0  0  0  0  0  0  0  0  0  0
   10.9042   -6.5625    0.0000 C   0  0  0  0  0  0  0  0  0  0  0  0
   11.5417   -6.1875    0.0000 C   0  0  0  0  0  0  0  0  0  0  0  0
    6.4542   -7.4667    0.0000 C   0  0  0  0  0  0  0  0  0  0  0  0
    5.8500   -7.1125    0.0000 C   0  0  0  0  0  0  0  0  0  0  0  0
    7.0667   -7.1125    0.0000 C   0  0  0  0  0  0  0  0  0  0  0  0
    5.2375   -7.4667    0.0000 C   0  0  0  0  0  0  0  0  0  0  0  0
    6.4542   -8.1875    0.0000 C   0  0  0  0  0  0  0  0  0  0  0  0
    7.0667   -6.3792    0.0000 O   0  0  0  0  0  0  0  0  0  0  0  0
    5.2375   -8.1875    0.0000 C   0  0  0  0  0  0  0  0  0  0  0  0
    5.8500   -8.5500    0.0000 C   0  0  0  0  0  0  0  0  0  0  0  0
    5.8500   -6.3792    0.0000 O   0  0  0  0  0  0  0  0  0  0  0  0
    7.6417   -7.5125    0.0000 O   0  0  0  0  0  0  0  0  0  0  0  0
    4.6125   -7.1125    0.0000 C   0  0  0  0  0  0  0  0  0  0  0  0
    4.6125   -8.5500    0.0000 C   0  0  0  0  0  0  0  0  0  0  0  0
    4.0125   -7.4667    0.0000 C   0  0  0  0  0  0  0  0  0  0  0  0
    4.0125   -8.1875    0.0000 C   0  0  0  0  0  0  0  0  0  0  0  0
  2  1  2  0
  3  2  1  0
  4  1  1  0
  5  6  1  0
  6  4  2  0
  7  3  1  0
  8 15  1  0
  9  4  1  0
 10  1  1  0
 11  7  1  0
 12 17  1  0
 13 10  1  0
 14 18  1  0
 15  7  1  0
 16  8  1  0
 17 23  1  0
 18 25  1  0
 19 14  1  0
 20 12  2  0
 21 12  1  0
 22 16  1  0
 23 24  1  0
 24 19  1  0
 25 27  1  0
 26 22  1  0
 27 26  1  0
 28 20  1  0
 29 21  2  0
 30 29  1  0
  5  3  2  0
 30 28  2  0
 32 31  2  0
 33 31  1  0
 34 32  1  0
 35 31  1  0
 36 33  2  0
 37 38  1  0
 38 35  2  0
 39 32  1  0
 40 33  1  0
 41 34  1  0
 42 37  1  0
 43 41  2  0
 44 42  2  0
 37 34  2  0
 44 43  1  0
M  END
> <chembl_id>
CHEMBL1082607

> <chembl_pref_name>
SALMETEROL XINAFOATE
