
     RDKit          2D

 27 27  0  0  0  0  0  0  0  0999 V2000
    2.4917   -5.0292    0.0000 Cl  0  0  0  0  0  0  0  0  0  0  0  0
   -0.0583   -3.6542    0.0000 C   0  0  0  0  0  0  0  0  0  0  0  0
   -0.0958   -2.6042    0.0000 C   0  0  0  0  0  0  0  0  0  0  0  0
   -0.0708   -4.6417    0.0000 C   0  0  0  0  0  0  0  0  0  0  0  0
    0.5000   -2.2667    0.0000 O   0  0  0  0  0  0  0  0  0  0  0  0
    0.5000   -1.5875    0.0000 C   0  0  0  0  0  0  0  0  0  0  0  0
    0.5167   -4.9875    0.0000 C   0  0  0  0  0  0  0  0  0  0  0  0
   -0.7458   -3.6542    0.0000 C   0  0  0  0  0  0  0  0  0  0  0  0
    0.6250   -3.6542    0.0000 C   0  0  0  0  0  0  0  0  0  0  0  0
    0.5167   -5.6667    0.0000 N   0  0  0  0  0  0  0  0  0  0  0  0
    1.0917   -1.2417    0.0000 O   0  0  0  0  0  0  0  0  0  0  0  0
   -0.6833   -2.2667    0.0000 C   0  0  0  0  0  0  0  0  0  0  0  0
   -0.0958   -1.2417    0.0000 C   0  0  0  0  0  0  0  0  0  0  0  0
   -0.0708   -6.0042    0.0000 C   0  0  0  0  0  0  0  0  0  0  0  0
    1.1125   -6.0042    0.0000 C   0  0  0  0  0  0  0  0  0  0  0  0
    1.1125   -4.6417    0.0000 C   0  0  0  0  0  0  0  0  0  0  0  0
    0.9542   -3.0667    0.0000 C   0  0  0  0  0  0  0  0  0  0  0  0
   -1.0750   -4.2542    0.0000 C   0  0  0  0  0  0  0  0  0  0  0  0
   -1.0958   -3.0667    0.0000 C   0  0  0  0  0  0  0  0  0  0  0  0
    0.9625   -4.2417    0.0000 C   0  0  0  0  0  0  0  0  0  0  0  0
   -1.3333   -2.6625    0.0000 C   0  0  0  0  0  0  0  0  0  0  0  0
   -1.7833   -3.0792    0.0000 C   0  0  0  0  0  0  0  0  0  0  0  0
    1.6417   -4.2417    0.0000 C   0  0  0  0  0  0  0  0  0  0  0  0
    1.6417   -3.0542    0.0000 C   0  0  0  0  0  0  0  0  0  0  0  0
   -1.7708   -4.2667    0.0000 C   0  0  0  0  0  0  0  0  0  0  0  0
   -2.1208   -3.6750    0.0000 C   0  0  0  0  0  0  0  0  0  0  0  0
    1.9875   -3.6500    0.0000 C   0  0  0  0  0  0  0  0  0  0  0  0
  3  2  1  0
  4  2  1  0
  3  5  1  6
  6  5  1  0
  7  4  1  0
  8  2  1  0
  9  2  1  0
  7 10  1  6
 11  6  2  0
 12  3  1  0
 13  6  1  0
 14 10  1  0
 15 10  1  0
 16  7  1  0
 17  9  2  0
 18  8  2  0
 19  8  1  0
 20  9  1  0
 21 12  1  0
 22 19  2  0
 23 20  2  0
 24 17  1  0
 25 18  1  0
 26 22  1  0
 27 24  2  0
 27 23  1  0
 25 26  2  0
M  END
> <chembl_id>
CHEMBL1200817

> <chembl_pref_name>
LEVOMETHADYL ACETATE HYDROCHLORIDE
