
     RDKit          2D

 29 32  0  0  0  0  0  0  0  0999 V2000
    0.4167   -0.5625    0.0000 S   0  0  0  0  0  0  0  0  0  0  0  0
   -0.1958   -1.6250    0.0000 C   0  0  0  0  0  0  0  0  0  0  0  0
    1.0292   -0.2042    0.0000 C   0  0  0  0  0  0  0  0  0  0  0  0
   -0.1958   -0.9167    0.0000 N   0  0  0  0  0  0  0  0  0  0  0  0
    1.0250    0.5083    0.0000 C   0  0  0  0  0  0  0  0  0  0  0  0
   -0.7708   -2.0375    0.0000 C   0  0  0  0  0  0  0  0  0  0  0  0
    0.1542   -2.7042    0.0000 N   0  0  0  0  0  0  0  0  0  0  0  0
    0.3750   -2.0292    0.0000 O   0  0  0  0  0  0  0  0  0  0  0  0
   -0.5458   -2.7125    0.0000 C   0  0  0  0  0  0  0  0  0  0  0  0
    0.4167    0.8583    0.0000 C   0  0  0  0  0  0  0  0  0  0  0  0
   -0.8083    0.8583    0.0000 C   0  0  0  0  0  0  0  0  0  0  0  0
    1.7042   -0.4250    0.0000 C   0  0  0  0  0  0  0  0  0  0  0  0
    1.7000    0.7250    0.0000 S   0  0  0  0  0  0  0  0  0  0  0  0
   -2.0333    0.8583    0.0000 C   0  0  0  0  0  0  0  0  0  0  0  0
   -2.0333    1.5708    0.0000 C   0  0  0  0  0  0  0  0  0  0  0  0
   -0.1958    0.5000    0.0000 C   0  0  0  0  0  0  0  0  0  0  0  0
    0.7667   -1.1792    0.0000 O   0  0  0  0  0  0  0  0  0  0  0  0
    0.0625    0.0500    0.0000 O   0  0  0  0  0  0  0  0  0  0  0  0
   -1.4208    0.5083    0.0000 C   0  0  0  0  0  0  0  0  0  0  0  0
   -0.8083    1.5625    0.0000 C   0  0  0  0  0  0  0  0  0  0  0  0
   -1.4208    1.9208    0.0000 C   0  0  0  0  0  0  0  0  0  0  0  0
    2.1167    0.1583    0.0000 C   0  0  0  0  0  0  0  0  0  0  0  0
   -2.7083    1.7875    0.0000 O   0  0  0  0  0  0  0  0  0  0  0  0
   -2.7083    0.6458    0.0000 O   0  0  0  0  0  0  0  0  0  0  0  0
   -3.1250    1.2125    0.0000 C   0  0  0  0  0  0  0  0  0  0  0  0
    0.4167    1.5708    0.0000 O   0  0  0  0  0  0  0  0  0  0  0  0
   -1.4458   -1.8167    0.0000 Cl  0  0  0  0  0  0  0  0  0  0  0  0
   -0.9625   -3.2792    0.0000 C   0  0  0  0  0  0  0  0  0  0  0  0
   -0.1958    1.9208    0.0000 C   0  0  0  0  0  0  0  0  0  0  0  0
  2  4  1  0
  3  1  1  0
  4  1  1  0
  5  3  2  0
  6  2  2  0
  7  8  1  0
  8  2  1  0
  9  6  1  0
 10  5  1  0
 11 16  1  0
 12  3  1  0
 13  5  1  0
 14 19  1  0
 15 21  1  0
 16 10  1  0
 17  1  2  0
 18  1  2  0
 19 11  2  0
 20 11  1  0
 21 20  2  0
 22 12  2  0
 23 15  1  0
 24 14  1  0
 25 24  1  0
 26 10  2  0
 27  6  1  0
 28  9  1  0
 29 20  1  0
 13 22  1  0
  7  9  2  0
 15 14  2  0
 23 25  1  0
M  END
> <chembl_id>
CHEMBL282724

> <chembl_pref_name>
SITAXENTAN
