
     RDKit          2D

124132  0  0  0  0  0  0  0  0999 V2000
   -3.5063    1.7679    0.0000 Cl  0  0  0  0  0  0  0  0  0  0  0  0
   -8.0143    3.3000    0.0000 C   0  0  0  0  0  0  0  0  0  0  0  0
   -8.4268    4.0145    0.0000 C   0  0  0  0  0  0  0  0  0  0  0  0
   -9.2518    4.0145    0.0000 C   0  0  0  0  0  0  0  0  0  0  0  0
   -9.6643    3.3000    0.0000 O   0  0  0  0  0  0  0  0  0  0  0  0
   -9.2518    2.5855    0.0000 C   0  0  0  0  0  0  0  0  0  0  0  0
   -8.4268    2.5855    0.0000 C   0  0  0  0  0  0  0  0  0  0  0  0
   -9.6643    1.8711    0.0000 O   0  0  0  0  0  0  0  0  0  0  0  0
   -9.6643    4.7289    0.0000 C   0  0  0  0  0  0  0  0  0  0  0  0
   -8.0143    4.7289    0.0000 O   0  0  0  0  0  0  0  0  0  0  0  0
   -7.6018    4.0145    0.0000 N   0  0  0  0  0  0  0  0  0  0  0  0
   -7.8007    2.5031    0.0000 C   0  0  0  0  0  0  0  0  0  0  0  0
   -6.7768    4.0145    0.0000 C   0  0  0  0  0  0  0  0  0  0  0  0
   -6.3643    4.7289    0.0000 C   0  0  0  0  0  0  0  0  0  0  0  0
   -5.5393    4.7289    0.0000 N   0  0  0  0  0  0  0  0  0  0  0  0
   -5.1268    5.4434    0.0000 C   0  0  0  0  0  0  0  0  0  0  0  0
   -4.3018    5.4434    0.0000 C   0  0  0  0  0  0  0  0  0  0  0  0
   -3.8893    6.1579    0.0000 C   0  0  0  0  0  0  0  0  0  0  0  0
   -3.0643    6.1579    0.0000 C   0  0  0  0  0  0  0  0  0  0  0  0
   -2.6518    6.8724    0.0000 C   0  0  0  0  0  0  0  0  0  0  0  0
   -1.8268    6.8724    0.0000 C   0  0  0  0  0  0  0  0  0  0  0  0
   -1.4143    7.5868    0.0000 C   0  0  0  0  0  0  0  0  0  0  0  0
   -0.5893    7.5868    0.0000 C   0  0  0  0  0  0  0  0  0  0  0  0
   -0.1768    8.3013    0.0000 C   0  0  0  0  0  0  0  0  0  0  0  0
    0.6482    8.3013    0.0000 C   0  0  0  0  0  0  0  0  0  0  0  0
   -6.6000    0.8545    0.0000 C   0  0  0  0  0  0  0  0  0  0  0  0
   -7.0125    1.5689    0.0000 C   0  0  0  0  0  0  0  0  0  0  0  0
   -7.8375    1.5689    0.0000 O   0  0  0  0  0  0  0  0  0  0  0  0
   -8.2500    0.8545    0.0000 C   0  0  0  0  0  0  0  0  0  0  0  0
   -7.8375    0.1400    0.0000 C   0  0  0  0  0  0  0  0  0  0  0  0
   -7.0125    0.1400    0.0000 C   0  0  0  0  0  0  0  0  0  0  0  0
   -9.0161   -0.0589    0.0000 O   0  0  0  0  0  0  0  0  0  0  0  0
   -9.0161   -0.8839    0.0000 C   0  0  0  0  0  0  0  0  0  0  0  0
   -9.7306   -1.2964    0.0000 C   0  0  0  0  0  0  0  0  0  0  0  0
   -9.7306   -2.1214    0.0000 C   0  0  0  0  0  0  0  0  0  0  0  0
   -9.0161   -2.5339    0.0000 C   0  0  0  0  0  0  0  0  0  0  0  0
   -8.3016   -2.1214    0.0000 C   0  0  0  0  0  0  0  0  0  0  0  0
   -8.3016   -1.2964    0.0000 C   0  0  0  0  0  0  0  0  0  0  0  0
   -6.6000    2.2834    0.0000 C   0  0  0  0  0  0  0  0  0  0  0  0
   -7.0125    2.9979    0.0000 O   0  0  0  0  0  0  0  0  0  0  0  0
   -5.7750    0.8545    0.0000 O   0  0  0  0  0  0  0  0  0  0  0  0
   -6.6000   -0.5745    0.0000 O   0  0  0  0  0  0  0  0  0  0  0  0
   -7.5871   -0.8839    0.0000 O   0  0  0  0  0  0  0  0  0  0  0  0
   -6.8726   -1.2964    0.0000 C   0  0  0  0  0  0  0  0  0  0  0  0
  -10.4450   -0.8839    0.0000 O   0  0  0  0  0  0  0  0  0  0  0  0
  -11.1595   -1.2964    0.0000 C   0  0  0  0  0  0  0  0  0  0  0  0
   -9.0161   -3.3589    0.0000 C   0  0  0  0  0  0  0  0  0  0  0  0
   -8.3016   -3.7714    0.0000 N   0  0  0  0  0  0  0  0  0  0  0  0
   -9.7305   -3.7714    0.0000 C   0  0  0  0  0  0  0  0  0  0  0  0
   -7.5871   -3.3589    0.0000 C   0  0  0  0  0  0  0  0  0  0  0  0
   -6.8727   -3.7714    0.0000 C   0  0  0  0  0  0  0  0  0  0  0  0
   -7.5871   -2.5339    0.0000 O   0  0  0  0  0  0  0  0  0  0  0  0
   -6.1582   -3.3589    0.0000 N   0  0  0  0  0  0  0  0  0  0  0  0
   -6.8727   -4.5964    0.0000 C   0  0  0  0  0  0  0  0  0  0  0  0
   -5.4437   -3.7714    0.0000 C   0  0  0  0  0  0  0  0  0  0  0  0
   -4.7292   -3.3589    0.0000 C   0  0  0  0  0  0  0  0  0  0  0  0
   -5.4437   -4.5964    0.0000 O   0  0  0  0  0  0  0  0  0  0  0  0
   -4.0148   -3.7714    0.0000 N   0  0  0  0  0  0  0  0  0  0  0  0
   -4.7292   -2.5339    0.0000 C   0  0  0  0  0  0  0  0  0  0  0  0
   -6.8726   -2.1214    0.0000 C   0  0  0  0  0  0  0  0  0  0  0  0
   -6.1582   -2.5339    0.0000 C   0  0  0  0  0  0  0  0  0  0  0  0
   -5.4437   -2.1214    0.0000 C   0  0  0  0  0  0  0  0  0  0  0  0
   -5.4437   -1.2964    0.0000 C   0  0  0  0  0  0  0  0  0  0  0  0
   -6.1581   -0.8839    0.0000 C   0  0  0  0  0  0  0  0  0  0  0  0
   -4.0148   -2.1214    0.0000 O   0  0  0  0  0  0  0  0  0  0  0  0
   -3.3003   -3.3589    0.0000 C   0  0  0  0  0  0  0  0  0  0  0  0
   -2.5858   -3.7714    0.0000 C   0  0  0  0  0  0  0  0  0  0  0  0
   -3.3003   -2.5339    0.0000 O   0  0  0  0  0  0  0  0  0  0  0  0
   -1.8714   -3.3589    0.0000 N   0  0  0  0  0  0  0  0  0  0  0  0
   -2.5858   -4.5964    0.0000 C   0  0  0  0  0  0  0  0  0  0  0  0
   -1.1569   -3.7714    0.0000 C   0  0  0  0  0  0  0  0  0  0  0  0
   -1.8714   -5.0089    0.0000 C   0  0  0  0  0  0  0  0  0  0  0  0
   -1.8714   -5.8339    0.0000 C   0  0  0  0  0  0  0  0  0  0  0  0
   -1.1569   -4.5964    0.0000 C   0  0  0  0  0  0  0  0  0  0  0  0
   -7.5871   -5.0089    0.0000 C   0  0  0  0  0  0  0  0  0  0  0  0
   -7.5871   -5.8339    0.0000 O   0  0  0  0  0  0  0  0  0  0  0  0
   -8.3016   -4.5964    0.0000 N   0  0  0  0  0  0  0  0  0  0  0  0
   -9.7305   -4.5964    0.0000 O   0  0  0  0  0  0  0  0  0  0  0  0
  -10.4450   -3.3589    0.0000 N   0  0  0  0  0  0  0  0  0  0  0  0
  -11.1595   -3.7714    0.0000 C   0  0  0  0  0  0  0  0  0  0  0  0
  -11.8740   -3.3589    0.0000 C   0  0  0  0  0  0  0  0  0  0  0  0
  -11.1595   -4.5964    0.0000 C   0  0  0  0  0  0  0  0  0  0  0  0
  -12.5884   -3.7714    0.0000 N   0  0  0  0  0  0  0  0  0  0  0  0
  -11.8740   -2.5339    0.0000 O   0  0  0  0  0  0  0  0  0  0  0  0
  -13.3029   -3.3589    0.0000 C   0  0  0  0  0  0  0  0  0  0  0  0
  -14.0174   -3.7714    0.0000 C   0  0  0  0  0  0  0  0  0  0  0  0
  -14.7318   -3.3589    0.0000 O   0  0  0  0  0  0  0  0  0  0  0  0
  -14.0174   -4.5964    0.0000 N   0  0  0  0  0  0  0  0  0  0  0  0
  -13.3029   -2.5339    0.0000 C   0  0  0  0  0  0  0  0  0  0  0  0
  -11.5720   -0.5819    0.0000 C   0  0  0  0  0  0  0  0  0  0  0  0
  -12.3970   -0.5819    0.0000 C   0  0  0  0  0  0  0  0  0  0  0  0
  -12.8095   -1.2964    0.0000 C   0  0  0  0  0  0  0  0  0  0  0  0
  -12.3970   -2.0109    0.0000 C   0  0  0  0  0  0  0  0  0  0  0  0
  -11.5720   -2.0109    0.0000 C   0  0  0  0  0  0  0  0  0  0  0  0
  -14.1131   -2.3784    0.0000 O   0  0  0  0  0  0  0  0  0  0  0  0
  -13.3029   -4.1839    0.0000 H   0  0  0  0  0  0  0  0  0  0  0  0
  -11.8740   -5.0089    0.0000 C   0  0  0  0  0  0  0  0  0  0  0  0
  -11.8740   -5.8339    0.0000 C   0  0  0  0  0  0  0  0  0  0  0  0
  -11.1595   -6.2464    0.0000 C   0  0  0  0  0  0  0  0  0  0  0  0
  -10.4450   -5.8339    0.0000 C   0  0  0  0  0  0  0  0  0  0  0  0
  -10.4450   -5.0089    0.0000 C   0  0  0  0  0  0  0  0  0  0  0  0
  -12.4573   -6.4173    0.0000 C   0  0  0  0  0  0  0  0  0  0  0  0
  -13.2543   -6.2037    0.0000 C   0  0  0  0  0  0  0  0  0  0  0  0
  -13.8376   -6.7871    0.0000 C   0  0  0  0  0  0  0  0  0  0  0  0
  -13.6241   -7.5840    0.0000 C   0  0  0  0  0  0  0  0  0  0  0  0
  -12.8272   -7.7976    0.0000 C   0  0  0  0  0  0  0  0  0  0  0  0
  -12.2438   -7.2142    0.0000 C   0  0  0  0  0  0  0  0  0  0  0  0
  -13.9687   -5.7912    0.0000 C   0  0  0  0  0  0  0  0  0  0  0  0
  -14.6747   -6.2182    0.0000 C   0  0  0  0  0  0  0  0  0  0  0  0
  -15.3974   -5.8203    0.0000 O   0  0  0  0  0  0  0  0  0  0  0  0
  -11.4469   -7.4277    0.0000 O   0  0  0  0  0  0  0  0  0  0  0  0
  -11.1595   -7.0714    0.0000 O   0  0  0  0  0  0  0  0  0  0  0  0
  -14.2074   -8.1674    0.0000 O   0  0  0  0  0  0  0  0  0  0  0  0
  -12.6136   -8.5945    0.0000 C   0  0  0  0  0  0  0  0  0  0  0  0
  -11.7886   -8.5945    0.0000 N   0  0  0  0  0  0  0  0  0  0  0  0
  -11.2053   -8.0111    0.0000 C   0  0  0  0  0  0  0  0  0  0  0  0
  -10.4084   -8.2246    0.0000 P   0  0  0  0  0  0  0  0  0  0  0  0
  -10.4084   -7.3996    0.0000 O   0  0  0  0  0  0  0  0  0  0  0  0
   -9.6115   -8.0111    0.0000 O   0  0  0  0  0  0  0  0  0  0  0  0
  -10.4084   -9.0496    0.0000 O   0  0  0  0  0  0  0  0  0  0  0  0
  -10.4450   -4.1839    0.0000 H   0  0  0  0  0  0  0  0  0  0  0  0
  -14.6579   -7.0430    0.0000 O   0  0  0  0  0  0  0  0  0  0  0  0
   -7.6976   -2.1214    0.0000 Cl  0  0  0  0  0  0  0  0  0  0  0  0
  -11.1595    0.1326    0.0000 Cl  0  0  0  0  0  0  0  0  0  0  0  0
  2  3  1  0
  7  2  1  0
  3  4  1  0
  4  5  1  0
  5  6  1  0
  6  7  1  0
  6  8  1  6
  4  9  1  1
  3 10  1  1
  2 11  1  0
  2 12  1  6
 11 13  1  0
 13 14  1  0
 14 15  1  0
 15 16  1  0
 16 17  1  0
 17 18  1  0
 18 19  1  0
 19 20  1  0
 20 21  1  0
 21 22  1  0
 22 23  1  0
 23 24  1  0
 24 25  1  0
 26 27  1  0
 31 26  1  0
 27 28  1  0
 28 29  1  0
 29 30  1  0
 30 31  1  0
 32 33  1  0
 34 35  1  0
 35 36  2  0
 36 37  1  0
 37 38  2  0
 33 34  2  0
 33 38  1  0
 30  8  1  1
 29 32  1  6
 27 39  1  6
 39 40  1  0
 26 41  1  1
 31 42  1  6
 38 43  1  0
 43 44  1  0
 34 45  1  0
 45 46  1  0
 36 47  1  0
 47 48  1  1
 47 49  1  0
 48 50  1  0
 50 51  1  0
 50 52  2  0
 51 53  1  0
 51 54  1  1
 53 55  1  0
 55 56  1  0
 55 57  2  0
 56 58  1  1
 56 59  1  0
 60 61  1  0
 61 62  2  0
 62 63  1  0
 63 64  2  0
 44 60  2  0
 44 64  1  0
 59 62  1  0
 59 65  1  1
 58 66  1  0
 66 67  1  0
 66 68  2  0
 67 69  1  6
 67 70  1  0
 69 71  1  0
 70 72  1  0
 72 73  1  0
 72 74  1  0
 54 75  1  0
 75 76  2  0
 75 77  1  0
 49 78  2  0
 49 79  1  0
 79 80  1  0
 80 81  1  0
 80 82  1  0
 81 83  1  0
 81 84  2  0
 83 85  1  0
 85 86  1  0
 86 87  2  0
 86 88  1  0
 85 89  1  0
 90 91  1  0
 91 92  2  0
 92 93  1  0
 93 94  2  0
 46 90  2  0
 46 94  1  0
 89 92  1  0
 89 95  1  6
 85 96  1  1
 97 98  1  0
 98 99  2  0
 99100  1  0
100101  2  0
 82 97  2  0
 82101  1  0
 98102  1  0
103104  2  0
104105  1  0
105106  2  0
106107  1  0
102103  1  0
102107  2  0
103108  1  0
108 88  1  0
109110  1  0
108109  1  1
107111  1  0
 99112  1  0
105113  1  0
106114  1  0
114115  1  0
115116  1  0
116117  1  0
117118  2  0
117119  1  0
117120  1  0
 80121  1  1
109122  2  0
 60123  1  0
 90124  1  0
M  END
> <chembl_id>
CHEMBL3301680

> <chembl_pref_name>
TELAVANCIN HYDROCHLORIDE
