
     RDKit          2D

 20 20  0  0  0  0  0  0  0  0999 V2000
    0.0000    0.0000    0.0000 Cl  0  0  0  0  0  0  0  0  0  0  0  0
    2.7679    0.5000    0.0000 C   0  0  0  0  0  0  0  0  0  0  0  0
    4.5000    0.5000    0.0000 C   0  0  0  0  0  0  0  0  0  0  0  0
    0.5000    5.2321    0.0000 C   0  0  0  0  0  0  0  0  0  0  0  0
    6.2321    2.5000    0.0000 C   0  0  0  0  0  0  0  0  0  0  0  0
    6.2321    3.5000    0.0000 C   0  0  0  0  0  0  0  0  0  0  0  0
    2.0000    2.6340    0.0000 C   0  0  0  0  0  0  0  0  0  0  0  0
    5.3660    2.0000    0.0000 C   0  0  0  0  0  0  0  0  0  0  0  0
    3.0000    2.6340    0.0000 C   0  0  0  0  0  0  0  0  0  0  0  0
    1.5000    3.5000    0.0000 C   0  0  0  0  0  0  0  0  0  0  0  0
    5.3660    4.0000    0.0000 C   0  0  0  0  0  0  0  0  0  0  0  0
    3.0000    4.3660    0.0000 C   0  0  0  0  0  0  0  0  0  0  0  0
    3.6340    2.0000    0.0000 C   0  0  0  0  0  0  0  0  0  0  0  0
    3.5000    3.5000    0.0000 C   0  0  0  0  0  0  0  0  0  0  0  0
    4.5000    2.5000    0.0000 C   0  0  0  0  0  0  0  0  0  0  0  0
    2.0000    4.3660    0.0000 C   0  0  0  0  0  0  0  0  0  0  0  0
    4.5000    3.5000    0.0000 C   0  0  0  0  0  0  0  0  0  0  0  0
    3.6340    1.0000    0.0000 N   0  0  0  0  0  0  0  0  0  0  0  0
    4.0000    4.3660    0.0000 O   0  0  0  0  0  0  0  0  0  0  0  0
    1.5000    5.2321    0.0000 O   0  0  0  0  0  0  0  0  0  0  0  0
  2 18  1  0
  3 18  1  0
  4 20  1  0
  5  6  1  0
  5  8  1  0
  6 11  1  0
  7  9  2  0
  7 10  1  0
  8 15  1  0
  9 14  1  0
 10 16  2  0
 11 17  1  0
 12 14  2  0
 12 16  1  0
 13 15  1  0
 13 18  1  0
 14 17  1  0
 15 17  1  0
 16 20  1  0
 17 19  1  0
M  END
> <chembl_id>
CHEMBL1237065

> <chembl_pref_name>
TRAMADOL HYDROCHLORIDE
