
     RDKit          2D

 17 17  0  0  0  0  0  0  0  0999 V2000
    3.7417   -2.0333    0.0000 Na  0  0  0  0  0 15  0  0  0  0  0  0
    3.3625   -3.9042    0.0000 C   0  0  0  0  0  0  0  0  0  0  0  0
    3.3625   -3.1833    0.0000 C   0  0  0  0  0  0  0  0  0  0  0  0
    2.7333   -4.2583    0.0000 N   0  0  0  0  0  0  0  0  0  0  0  0
    2.1125   -3.1833    0.0000 N   0  0  0  0  0  0  0  0  0  0  0  0
    2.7333   -2.8292    0.0000 C   0  0  0  0  0  0  0  0  0  0  0  0
    4.0375   -4.1208    0.0000 N   0  0  0  0  0  0  0  0  0  0  0  0
    4.0375   -2.9583    0.0000 N   0  0  0  0  0  0  0  0  0  0  0  0
    2.1125   -3.9042    0.0000 C   0  0  0  0  0  0  0  0  0  0  0  0
    4.4583   -3.5417    0.0000 C   0  0  0  0  0  0  0  0  0  0  0  0
    2.7333   -2.1083    0.0000 O   0  0  0  0  0  0  0  0  0  0  0  0
    4.0333   -4.8167    0.0000 C   0  0  0  0  0  0  0  0  0  0  0  0
    1.5000   -4.2583    0.0000 N   0  0  0  0  0  0  0  0  0  0  0  0
    4.6250   -5.1667    0.0000 O   0  0  0  0  0  0  0  0  0  0  0  0
    6.4375   -4.8292    0.0000 O   0  0  0  0  0  0  0  0  0  0  0  0
    5.8375   -5.1708    0.0000 C   0  0  0  0  0  0  0  0  0  0  0  0
    5.2375   -4.8208    0.0000 C   0  0  0  0  0  0  0  0  0  0  0  0
  3  2  2  0
  4  2  1  0
  5  9  1  0
  6  3  1  0
  7  2  1  0
  8  3  1  0
  9  4  2  0
 10  7  1  0
 11  6  1  0
 12  7  1  0
 13  9  1  0
 14 12  1  0
 15 16  1  0
 16 17  1  0
 17 14  1  0
 10  8  2  0
  5  6  2  0
M  CHG  2   1   1  11  -1
M  END
> <chembl_id>
CHEMBL1200380

> <chembl_pref_name>
ACYCLOVIR SODIUM
