
     RDKit          2D

 30 32  0  0  1  0  0  0  0  0999 V2000
    2.3500   -0.0292    0.0000 N   0  0  0  0  0  0  0  0  0  0  0  0
    1.5375   -0.3292    0.0000 C   0  0  0  0  0  0  0  0  0  0  0  0
    2.8667   -0.7500    0.0000 C   0  0  0  0  0  0  0  0  0  0  0  0
    2.6917    0.7458    0.0000 N   0  0  0  0  0  0  0  0  0  0  0  0
    0.8000    0.1583    0.0000 C   0  0  0  0  0  0  0  0  0  0  0  0
    2.6125   -1.5875    0.0000 C   0  0  0  0  0  0  0  0  0  0  0  0
    0.0375   -0.2667    0.0000 N   0  0  0  0  0  0  0  0  0  0  0  0
   -0.7333    1.0958    0.0000 C   0  0  0  0  0  0  0  0  0  0  0  0
   -0.7333    0.1958    0.0000 C   0  0  0  0  0  0  0  0  0  0  0  0
    1.5375   -1.1875    0.0000 O   0  0  0  0  0  0  0  0  0  0  0  0
    1.7792   -1.8292    0.0000 O   0  0  0  0  0  0  0  0  0  0  0  0
    0.0542    1.5583    0.0000 O   0  0  0  0  0  0  0  0  0  0  0  0
   -1.5083   -0.2667    0.0000 C   0  0  0  0  0  0  0  0  0  0  0  0
    3.1792   -2.1542    0.0000 O   0  0  0  0  0  0  0  0  0  0  0  0
    3.7292   -0.6292    0.0000 C   0  0  0  0  0  0  0  0  0  0  0  0
   -1.5208    1.5583    0.0000 O   0  0  0  0  0  0  0  0  0  0  0  0
   -2.2958    0.1750    0.0000 C   0  0  0  0  0  0  0  0  0  0  0  0
    2.2250    1.6125    0.0000 C   0  0  0  0  0  0  0  0  0  0  0  0
    3.5625    0.8625    0.0000 C   0  0  0  0  0  0  0  0  0  0  0  0
   -3.0708   -0.2792    0.0000 C   0  0  0  0  0  0  0  0  0  0  0  0
    0.7125    1.0583    0.0000 C   0  0  0  0  0  0  0  0  0  0  0  0
    4.0917    0.1708    0.0000 C   0  0  0  0  0  0  0  0  0  0  0  0
    1.3792    1.6750    0.0000 C   0  0  0  0  0  0  0  0  0  0  0  0
   -2.3208    1.1125    0.0000 C   0  0  0  0  0  0  0  0  0  0  0  0
   -3.0708   -1.1875    0.0000 C   0  0  0  0  0  0  0  0  0  0  0  0
   -3.8375    0.1750    0.0000 C   0  0  0  0  0  0  0  0  0  0  0  0
   -3.1208    1.5583    0.0000 C   0  0  0  0  0  0  0  0  0  0  0  0
   -3.8375   -1.6417    0.0000 C   0  0  0  0  0  0  0  0  0  0  0  0
   -4.5958   -0.2875    0.0000 C   0  0  0  0  0  0  0  0  0  0  0  0
   -4.5958   -1.1875    0.0000 C   0  0  0  0  0  0  0  0  0  0  0  0
  2  1  1  0
  3  1  1  0
  4  1  1  0
  5  2  1  0
  3  6  1  1
  5  7  1  1
  9  8  1  1
  9  7  1  0
 10  2  2  0
 11  6  2  0
 12  8  2  0
 13  9  1  0
 14  6  1  0
 15  3  1  0
 16  8  1  0
 17 13  1  0
 18  4  1  0
 19  4  1  0
 20 17  1  0
 21  5  1  0
 22 19  1  0
 23 18  1  0
 24 16  1  0
 25 20  2  0
 26 20  1  0
 27 24  1  0
 28 25  1  0
 29 26  2  0
 30 29  1  0
 15 22  1  0
 23 21  1  0
 28 30  2  0
M  END
> <chembl_id>
CHEMBL515606

> <chembl_pref_name>
CILAZAPRIL
