
     RDKit          2D

 10  9  0  0  0  0  0  0  0  0999 V2000
    0.6792   -0.3667    0.0000 N   0  0  0  0  0  0  0  0  0  0  0  0
   -3.2208   -1.1500    0.0000 O   0  0  0  0  0  0  0  0  0  0  0  0
    3.3000   -3.3167    0.0000 O   0  0  0  0  0  0  0  0  0  0  0  0
    1.9417    3.4208    0.0000 O   0  0  0  0  0  0  0  0  0  0  0  0
   -0.6000   -1.1042    0.0000 C   0  0  0  0  0  0  0  0  0  0  0  0
    1.9667   -1.1042    0.0000 C   0  0  0  0  0  0  0  0  0  0  0  0
    0.6792    1.1333    0.0000 C   0  0  0  0  0  0  0  0  0  0  0  0
   -1.9375   -0.4125    0.0000 C   0  0  0  0  0  0  0  0  0  0  0  0
    1.9667   -2.5792    0.0000 C   0  0  0  0  0  0  0  0  0  0  0  0
    1.9417    1.8958    0.0000 C   0  0  0  0  0  0  0  0  0  0  0  0
  2  8  1  0
  3  9  1  0
  4 10  1  0
  5  1  1  0
  6  1  1  0
  7  1  1  0
  8  5  1  0
  9  6  1  0
 10  7  1  0
M  END
> <chembl_id>
CHEMBL446061

> <chembl_pref_name>
TROLAMINE
