
     RDKit          2D

 29 31  0  0  1  0  0  0  0  0999 V2000
    0.1167    0.2625    0.0000 N   0  0  0  0  0  0  0  0  0  0  0  0
    0.1167   -0.6375    0.0000 C   0  0  0  0  0  0  0  0  0  0  0  0
   -0.7583    0.2625    0.0000 C   0  0  0  0  0  0  0  0  0  0  0  0
   -0.7583   -0.6375    0.0000 C   0  0  0  0  0  0  0  0  0  0  0  0
    0.9792    0.5458    0.0000 C   0  0  0  0  0  0  0  0  0  0  0  0
    0.9792   -0.9042    0.0000 S   0  0  0  0  0  0  0  0  0  0  0  0
    1.4917   -0.1792    0.0000 C   0  0  0  0  0  0  0  0  0  0  0  0
   -1.6208   -0.4000    0.0000 N   0  0  0  0  0  0  0  0  0  0  0  0
    1.7125    1.0708    0.0000 C   0  0  0  0  0  0  0  0  0  0  0  0
   -2.2458   -1.0250    0.0000 C   0  0  0  0  0  0  0  0  0  0  0  0
   -1.0708    0.9875    0.0000 O   0  0  0  0  0  0  0  0  0  0  0  0
    3.4792   -1.4792    0.0000 C   0  0  0  0  0  0  0  0  0  0  0  0
    2.5167    0.6833    0.0000 O   0  0  0  0  0  0  0  0  0  0  0  0
    2.5917   -0.2000    0.0000 C   0  0  0  0  0  0  0  0  0  0  0  0
    1.6292    1.9583    0.0000 O   0  0  0  0  0  0  0  0  0  0  0  0
    3.4000   -0.5917    0.0000 O   0  0  0  0  0  0  0  0  0  0  0  0
   -2.0500   -1.8875    0.0000 O   0  0  0  0  0  0  0  0  0  0  0  0
    4.2792   -1.8500    0.0000 O   0  0  0  0  0  0  0  0  0  0  0  0
   -3.1125   -0.7667    0.0000 C   0  0  0  0  0  0  0  0  0  0  0  0
    2.2542    0.2833    0.0000 C   0  0  0  0  0  0  0  0  0  0  0  0
    2.2167   -0.7125    0.0000 C   0  0  0  0  0  0  0  0  0  0  0  0
   -3.3083    0.0708    0.0000 C   0  0  0  0  0  0  0  0  0  0  0  0
    2.7500   -1.9875    0.0000 C   0  0  0  0  0  0  0  0  0  0  0  0
   -2.6833    0.7208    0.0000 C   0  0  0  0  0  0  0  0  0  0  0  0
   -4.1333    0.3208    0.0000 C   0  0  0  0  0  0  0  0  0  0  0  0
   -2.8583    1.5625    0.0000 C   0  0  0  0  0  0  0  0  0  0  0  0
   -4.3458    1.1833    0.0000 C   0  0  0  0  0  0  0  0  0  0  0  0
   -3.7208    1.8125    0.0000 C   0  0  0  0  0  0  0  0  0  0  0  0
   -0.0327   -1.6263    0.0000 H   0  0  0  0  0  0  0  0  0  0  0  0
  2  1  1  0
  3  1  1  0
  4  3  1  0
  5  1  1  0
  6  2  1  0
  7  5  1  0
  4  8  1  6
  5  9  1  1
 10  8  1  0
 11  3  2  0
 12 16  1  0
 13  9  1  0
 14 13  1  0
 15  9  2  0
 16 14  1  0
 17 10  2  0
 18 12  2  0
 19 10  1  0
 20  7  1  0
 21  7  1  0
 22 19  1  0
 23 12  1  0
 24 22  2  0
 25 22  1  0
 26 24  1  0
 27 25  2  0
 28 27  1  0
  6  7  1  0
  2  4  1  0
 26 28  2  0
  2 29  1  1
M  END
> <chembl_id>
CHEMBL2106988

> <chembl_pref_name>
PENAMECILLIN
