
     RDKit          2D

 34 36  0  0  0  0  0  0  0  0999 V2000
    6.2862    0.0697    0.0000 C   0  0  0  0  0  0  0  0  0  0  0  0
    6.2862   -0.7553    0.0000 O   0  0  0  0  0  0  0  0  0  0  0  0
    5.5717   -1.1678    0.0000 C   0  0  0  0  0  0  0  0  0  0  0  0
    5.5717   -1.9928    0.0000 C   0  0  0  0  0  0  0  0  0  0  0  0
    7.0006   -1.9928    0.0000 C   0  0  0  0  0  0  0  0  0  0  0  0
    6.2862   -2.4053    0.0000 O   0  0  0  0  0  0  0  0  0  0  0  0
    4.8572   -2.4053    0.0000 C   0  0  0  0  0  0  0  0  0  0  0  0
    3.4283   -2.4053    0.0000 C   0  0  0  0  0  0  0  0  0  0  0  0
    4.1428   -2.8178    0.0000 H   0  0  0  0  0  0  0  0  0  0  0  0
    3.4283   -3.2303    0.0000 C   0  0  0  0  0  0  0  0  0  0  0  0
    2.7138   -3.6428    0.0000 C   0  0  0  0  0  0  0  0  0  0  0  0
    2.7138   -4.4678    0.0000 O   0  0  0  0  0  0  0  0  0  0  0  0
    3.4283   -4.0553    0.0000 H   0  0  0  0  0  0  0  0  0  0  0  0
    1.9993   -3.2303    0.0000 C   0  0  0  0  0  0  0  0  0  0  0  0
    1.9993   -2.4053    0.0000 C   0  0  0  0  0  0  0  0  0  0  0  0
    2.7138   -1.9928    0.0000 N   0  0  0  0  0  0  0  0  0  0  0  0
    4.1428   -1.9928    0.0000 C   0  0  0  0  0  0  0  0  0  0  0  0
    4.1428   -1.1678    0.0000 C   0  0  0  0  0  0  0  0  0  0  0  0
    2.7138   -1.1678    0.0000 C   0  0  0  0  0  0  0  0  0  0  0  0
    3.4283   -0.7553    0.0000 C   0  0  0  0  0  0  0  0  0  0  0  0
    4.8572   -0.7553    0.0000 C   0  0  0  0  0  0  0  0  0  0  0  0
    1.2849   -3.6428    0.0000 C   0  0  0  0  0  0  0  0  0  0  0  0
    1.2849   -4.4678    0.0000 C   0  0  0  0  0  0  0  0  0  0  0  0
    1.9993   -4.8803    0.0000 C   0  0  0  0  0  0  0  0  0  0  0  0
    0.5704   -4.8803    0.0000 C   0  0  0  0  0  0  0  0  0  0  0  0
    4.1428   -3.6428    0.0000 N   0  0  0  0  0  0  0  0  0  0  0  0
    4.1428   -4.4678    0.0000 C   0  0  0  0  0  0  0  0  0  0  0  0
    4.8572   -4.8803    0.0000 C   0  0  0  0  0  0  0  0  0  0  0  0
    5.5717   -4.4678    0.0000 C   0  0  0  0  0  0  0  0  0  0  0  0
    4.8572   -5.7053    0.0000 C   0  0  0  0  0  0  0  0  0  0  0  0
    3.4283   -4.8803    0.0000 C   0  0  0  0  0  0  0  0  0  0  0  0
    3.4283   -5.7053    0.0000 O   0  0  0  0  0  0  0  0  0  0  0  0
    4.8572   -4.0553    0.0000 H   0  0  0  0  0  0  0  0  0  0  0  0
    1.9993   -4.0553    0.0000 H   0  0  0  0  0  0  0  0  0  0  0  0
  2  1  1  0
  2  3  1  0
  3 21  2  0
  4  3  1  0
  4  7  2  0
  6  5  1  0
  6  4  1  0
  8 16  1  0
 10 11  1  0
 10  8  1  0
 11 14  1  0
 12 31  1  0
 14 22  1  6
 14 34  1  1
 15 16  1  0
 15 14  1  0
 17  8  1  0
 17  7  1  0
 18 17  2  0
 19 16  1  0
 19 20  1  0
 20 18  1  0
 21 18  1  0
 22 23  1  0
 23 24  1  0
 25 23  1  0
 27 31  1  0
 28 29  1  0
 28 27  1  0
 30 28  1  0
 31 32  2  0
 11 13  1  6
 11 12  1  1
 27 26  1  1
 27 33  1  6
  8  9  1  6
M  END
> <chembl_id>
CHEMBL2364639

> <chembl_pref_name>
VALBENAZINE
