
     RDKit          2D

 85 88  0  0  0  0  0  0  0  0999 V2000
   -1.9376    2.6144    0.0000 N   0  0  0  0  0  0  0  0  0  0  0  0
   -1.5251    1.8999    0.0000 C   0  0  0  0  0  0  0  0  0  0  0  0
   -0.7001    1.8999    0.0000 C   0  0  0  0  0  0  0  0  0  0  0  0
   -0.2876    2.6144    0.0000 C   0  0  0  0  0  0  0  0  0  0  0  0
    0.5374    2.6144    0.0000 C   0  0  0  0  0  0  0  0  0  0  0  0
    0.9499    3.3289    0.0000 C   0  0  0  0  0  0  0  0  0  0  0  0
    0.5374    4.0433    0.0000 N   0  0  0  0  0  0  0  0  0  0  0  0
    0.9499    4.7578    0.0000 C   0  0  0  0  0  0  0  0  0  0  0  0
    1.7749    4.7578    0.0000 O   0  0  0  0  0  0  0  0  0  0  0  0
    0.5374    5.4723    0.0000 C   0  0  0  0  0  0  0  0  0  0  0  0
    0.8730    6.2260    0.0000 C   0  0  0  0  0  0  0  0  0  0  0  0
    0.2599    6.7780    0.0000 C   0  0  0  0  0  0  0  0  0  0  0  0
   -0.4546    6.3655    0.0000 C   0  0  0  0  0  0  0  0  0  0  0  0
   -0.2831    5.5585    0.0000 N   0  0  0  0  0  0  0  0  0  0  0  0
   -0.8351    4.9454    0.0000 C   0  0  0  0  0  0  0  0  0  0  0  0
   -0.5801    4.1608    0.0000 O   0  0  0  0  0  0  0  0  0  0  0  0
   -1.6421    5.1170    0.0000 C   0  0  0  0  0  0  0  0  0  0  0  0
   -1.3871    4.3323    0.0000 C   0  0  0  0  0  0  0  0  0  0  0  0
   -1.9392    3.7192    0.0000 S   0  0  0  0  0  0  0  0  0  0  0  0
   -2.7461    3.8908    0.0000 S   0  0  0  0  0  0  0  0  0  0  0  0
   -3.0011    4.6754    0.0000 C   0  0  0  0  0  0  0  0  0  0  0  0
   -3.8080    4.8469    0.0000 C   0  0  0  0  0  0  0  0  0  0  0  0
   -3.8943    4.0264    0.0000 N   0  0  0  0  0  0  0  0  0  0  0  0
   -3.2268    3.5415    0.0000 C   0  0  0  0  0  0  0  0  0  0  0  0
   -2.4064    3.6278    0.0000 O   0  0  0  0  0  0  0  0  0  0  0  0
   -3.3131    2.7210    0.0000 C   0  0  0  0  0  0  0  0  0  0  0  0
   -2.6456    2.2361    0.0000 N   0  0  0  0  0  0  0  0  0  0  0  0
   -2.7319    1.4156    0.0000 C   0  0  0  0  0  0  0  0  0  0  0  0
   -3.4855    1.0801    0.0000 O   0  0  0  0  0  0  0  0  0  0  0  0
   -2.0644    0.9307    0.0000 C   0  0  0  0  0  0  0  0  0  0  0  0
   -2.1507    0.1102    0.0000 N   0  0  0  0  0  0  0  0  0  0  0  0
   -1.4832   -0.3747    0.0000 C   0  0  0  0  0  0  0  0  0  0  0  0
   -0.7295   -0.0391    0.0000 O   0  0  0  0  0  0  0  0  0  0  0  0
   -1.5695   -1.1952    0.0000 C   0  0  0  0  0  0  0  0  0  0  0  0
   -0.9020   -1.6801    0.0000 N   0  0  0  0  0  0  0  0  0  0  0  0
   -4.0630    5.6315    0.0000 C   0  0  0  0  0  0  0  0  0  0  0  0
   -3.5109    6.2446    0.0000 O   0  0  0  0  0  0  0  0  0  0  0  0
   -4.8699    5.8031    0.0000 N   0  0  0  0  0  0  0  0  0  0  0  0
   -5.5079    6.1163    0.0000 C   0  0  0  0  0  0  0  0  0  0  0  0
   -6.0010    5.6505    0.0000 C   0  0  0  0  0  0  0  0  0  0  0  0
   -5.4809    5.1900    0.0000 C   0  0  0  0  0  0  0  0  0  0  0  0
   -4.6150    5.0184    0.0000 C   0  0  0  0  0  0  0  0  0  0  0  0
   -4.3601    4.2338    0.0000 C   0  0  0  0  0  0  0  0  0  0  0  0
   -4.9121    3.6207    0.0000 C   0  0  0  0  0  0  0  0  0  0  0  0
   -4.6572    2.8361    0.0000 O   0  0  0  0  0  0  0  0  0  0  0  0
   -5.7191    3.7923    0.0000 C   0  0  0  0  0  0  0  0  0  0  0  0
   -5.9740    4.5769    0.0000 C   0  0  0  0  0  0  0  0  0  0  0  0
   -5.9319    6.7592    0.0000 C   0  0  0  0  0  0  0  0  0  0  0  0
   -6.4839    6.1461    0.0000 O   0  0  0  0  0  0  0  0  0  0  0  0
   -6.1868    7.5438    0.0000 N   0  0  0  0  0  0  0  0  0  0  0  0
   -5.6348    8.1569    0.0000 C   0  0  0  0  0  0  0  0  0  0  0  0
   -5.8897    8.9416    0.0000 C   0  0  0  0  0  0  0  0  0  0  0  0
   -6.6967    9.1131    0.0000 C   0  0  0  0  0  0  0  0  0  0  0  0
   -7.2487    8.5000    0.0000 C   0  0  0  0  0  0  0  0  0  0  0  0
   -8.0557    8.6715    0.0000 C   0  0  0  0  0  0  0  0  0  0  0  0
   -8.3106    9.4561    0.0000 C   0  0  0  0  0  0  0  0  0  0  0  0
   -7.7586   10.0692    0.0000 C   0  0  0  0  0  0  0  0  0  0  0  0
   -6.9516    9.8977    0.0000 C   0  0  0  0  0  0  0  0  0  0  0  0
   -4.8278    7.9854    0.0000 C   0  0  0  0  0  0  0  0  0  0  0  0
   -4.5729    7.2008    0.0000 O   0  0  0  0  0  0  0  0  0  0  0  0
   -4.2758    8.5985    0.0000 N   0  0  0  0  0  0  0  0  0  0  0  0
   -3.4688    8.4270    0.0000 C   0  0  0  0  0  0  0  0  0  0  0  0
   -2.9168    9.0401    0.0000 C   0  0  0  0  0  0  0  0  0  0  0  0
   -3.1717    9.8247    0.0000 C   0  0  0  0  0  0  0  0  0  0  0  0
   -2.6197   10.4378    0.0000 C   0  0  0  0  0  0  0  0  0  0  0  0
   -1.8127   10.2663    0.0000 N   0  0  0  0  0  0  0  0  0  0  0  0
   -2.8746   11.2224    0.0000 O   0  0  0  0  0  0  0  0  0  0  0  0
   -3.2138    7.6424    0.0000 C   0  0  0  0  0  0  0  0  0  0  0  0
   -3.7659    7.0293    0.0000 O   0  0  0  0  0  0  0  0  0  0  0  0
   -2.4069    7.4708    0.0000 N   0  0  0  0  0  0  0  0  0  0  0  0
   -1.5921    7.2166    0.0000 C   0  0  0  0  0  0  0  0  0  0  0  0
   -1.1285    7.7707    0.0000 C   0  0  0  0  0  0  0  0  0  0  0  0
   -1.5307    8.3491    0.0000 C   0  0  0  0  0  0  0  0  0  0  0  0
   -2.3377    8.5206    0.0000 N   0  0  0  0  0  0  0  0  0  0  0  0
   -1.0376    8.8738    0.0000 O   0  0  0  0  0  0  0  0  0  0  0  0
   -1.3450    6.5147    0.0000 C   0  0  0  0  0  0  0  0  0  0  0  0
   -0.7929    7.1278    0.0000 O   0  0  0  0  0  0  0  0  0  0  0  0
   -1.0900    5.7301    0.0000 N   0  0  0  0  0  0  0  0  0  0  0  0
    1.7749    3.3289    0.0000 C   0  0  0  0  0  0  0  0  0  0  0  0
    2.1874    4.0433    0.0000 O   0  0  0  0  0  0  0  0  0  0  0  0
    2.1874    2.6144    0.0000 N   0  0  0  0  0  0  0  0  0  0  0  0
    3.0124    2.6144    0.0000 C   0  0  0  0  0  0  0  0  0  0  0  0
    3.4249    1.8999    0.0000 C   0  0  0  0  0  0  0  0  0  0  0  0
    4.2499    1.8999    0.0000 N   0  0  0  0  0  0  0  0  0  0  0  0
    3.0124    1.1855    0.0000 O   0  0  0  0  0  0  0  0  0  0  0  0
  1  2  1  0
  2  3  1  0
  3  4  1  0
  4  5  1  0
  5  6  1  0
  6  7  1  6
  7  8  1  0
  8  9  2  0
 10  8  1  1
 10 11  1  0
 11 12  1  0
 12 13  1  0
 13 14  1  0
 10 14  1  0
 14 15  1  0
 15 16  2  0
 15 17  1  0
 17 18  1  6
 18 19  1  0
 19 20  1  0
 20 21  1  0
 22 21  1  6
 22 23  1  0
 23 24  1  0
 24 25  2  0
 24 26  1  0
 26 27  1  0
 27 28  1  0
 28 29  2  0
 28 30  1  0
 30 31  1  0
 31 32  1  0
 32 33  2  0
 32 34  1  0
 34 35  1  0
 22 36  1  0
 36 37  2  0
 36 38  1  0
 38 39  1  0
 39 40  1  1
 40 41  1  0
 41 42  2  0
 42 43  1  0
 43 44  2  0
 44 45  1  0
 44 46  1  0
 46 47  2  0
 41 47  1  0
 39 48  1  0
 48 49  2  0
 48 50  1  0
 50 51  1  0
 51 52  1  1
 52 53  1  0
 53 54  2  0
 54 55  1  0
 55 56  2  0
 56 57  1  0
 57 58  2  0
 53 58  1  0
 51 59  1  0
 59 60  2  0
 59 61  1  0
 61 62  1  0
 62 63  1  1
 63 64  1  0
 64 65  1  0
 65 66  1  0
 65 67  2  0
 62 68  1  0
 68 69  2  0
 68 70  1  0
 70 71  1  0
 71 72  1  1
 72 73  1  0
 73 74  1  0
 73 75  2  0
 71 76  1  0
 76 77  2  0
 76 78  1  0
 17 78  1  0
  6 79  1  0
 79 80  2  0
 79 81  1  0
 81 82  1  0
 82 83  1  0
 83 84  1  0
 83 85  2  0
M  END
> <chembl_id>
CHEMBL2135460

> <chembl_pref_name>
TERLIPRESSIN
