
     RDKit          2D

 27 30  0  0  0  0  0  0  0  0999 V2000
   -1.6208    0.7208    0.0000 N   0  0  0  0  0  0  0  0  0  0  0  0
   -1.1750   -0.0542    0.0000 C   0  0  0  0  0  0  0  0  0  0  0  0
   -2.5583   -0.8667    0.0000 S   0  0  0  0  0  0  0  0  0  0  0  0
   -2.5208    0.7125    0.0000 C   0  0  0  0  0  0  0  0  0  0  0  0
   -1.6458   -0.8667    0.0000 C   0  0  0  0  0  0  0  0  0  0  0  0
   -2.9958   -0.0875    0.0000 C   0  0  0  0  0  0  0  0  0  0  0  0
    3.8167    0.7625    0.0000 C   0  0  0  0  0  0  0  0  0  0  0  0
   -0.2250   -0.0417    0.0000 C   0  0  0  0  0  0  0  0  0  0  0  0
    1.1125    0.7208    0.0000 N   0  0  0  0  0  0  0  0  0  0  0  0
    2.9542    0.7583    0.0000 C   0  0  0  0  0  0  0  0  0  0  0  0
    4.2417   -0.0042    0.0000 O   0  0  0  0  0  0  0  0  0  0  0  0
   -1.1750   -1.6750    0.0000 C   0  0  0  0  0  0  0  0  0  0  0  0
   -1.1625    1.5083    0.0000 C   0  0  0  0  0  0  0  0  0  0  0  0
    0.1792   -0.8500    0.0000 C   0  0  0  0  0  0  0  0  0  0  0  0
    2.4792   -0.0250    0.0000 C   0  0  0  0  0  0  0  0  0  0  0  0
    2.4625    1.5458    0.0000 C   0  0  0  0  0  0  0  0  0  0  0  0
    1.5500   -0.0250    0.0000 C   0  0  0  0  0  0  0  0  0  0  0  0
    4.2417    1.5375    0.0000 N   0  0  0  0  0  0  0  0  0  0  0  0
    1.5542    1.5458    0.0000 C   0  0  0  0  0  0  0  0  0  0  0  0
   -0.2583    1.5208    0.0000 C   0  0  0  0  0  0  0  0  0  0  0  0
   -0.2833   -1.6750    0.0000 C   0  0  0  0  0  0  0  0  0  0  0  0
    1.0542   -0.8375    0.0000 Cl  0  0  0  0  0  0  0  0  0  0  0  0
    0.1917    0.7208    0.0000 C   0  0  0  0  0  0  0  0  0  0  0  0
   -2.9625    1.5083    0.0000 C   0  0  0  0  0  0  0  0  0  0  0  0
   -3.9000   -0.0875    0.0000 C   0  0  0  0  0  0  0  0  0  0  0  0
   -3.8375    1.5208    0.0000 C   0  0  0  0  0  0  0  0  0  0  0  0
   -4.3458    0.6500    0.0000 C   0  0  0  0  0  0  0  0  0  0  0  0
  2  1  1  0
  3  6  1  0
  4  1  1  0
  5  2  2  0
  6  4  2  0
  7 10  1  0
  8  2  1  0
  9 23  1  0
 10 16  1  0
 11  7  2  0
 12  5  1  0
 13  1  1  0
 14  8  2  0
 15 17  1  0
 16 19  1  0
 17  9  1  0
 18  7  1  0
 19  9  1  0
 20 13  1  0
 21 14  1  0
 22 14  1  0
 23 20  1  0
 24  4  1  0
 25  6  1  0
 26 24  2  0
 27 26  1  0
  5  3  1  0
 25 27  2  0
 12 21  2  0
 15 10  1  0
M  END
> <chembl_id>
CHEMBL1909072

> <chembl_pref_name>
PIPAMAZINE
