
     RDKit          2D

 30 33  0  0  0  0  0  0  0  0999 V2000
    7.4956  -14.8744    0.0000 Cl  0  0  0  0  0  0  0  0  0  0  0  0
    6.4594  -14.2692    0.0000 C   0  0  0  0  0  0  0  0  0  0  0  0
    5.1566  -15.0126    0.0000 C   0  0  0  0  0  0  0  0  0  0  0  0
    3.8613  -14.2561    0.0000 C   0  0  0  0  0  0  0  0  0  0  0  0
    3.8689  -12.7561    0.0000 C   0  0  0  0  0  0  0  0  0  0  0  0
    5.1717  -12.0125    0.0000 C   0  0  0  0  0  0  0  0  0  0  0  0
    5.1769  -10.5118    0.0000 N   0  0  0  0  0  0  0  0  0  0  0  0
    6.4785   -9.7663    0.0000 C   0  0  0  0  0  0  0  0  0  0  0  0
    6.4837   -8.2663    0.0000 C   0  0  0  0  0  0  0  0  0  0  0  0
    5.1873   -7.5117    0.0000 N   0  0  0  0  0  0  0  0  0  0  0  0
    5.1894   -6.0109    0.0000 C   0  0  0  0  0  0  0  0  0  0  0  0
    3.8912   -5.2578    0.0000 C   0  0  0  0  0  0  0  0  0  0  0  0
    3.8933   -3.7570    0.0000 C   0  0  0  0  0  0  0  0  0  0  0  0
    2.5951   -3.0039    0.0000 C   0  0  0  0  0  0  0  0  0  0  0  0
    2.5973   -1.5031    0.0000 O   0  0  0  0  0  0  0  0  0  0  0  0
    1.2990   -0.7500    0.0000 C   0  0  0  0  0  0  0  0  0  0  0  0
    1.2990    0.7500    0.0000 C   0  0  0  0  0  0  0  0  0  0  0  0
    0.0000    1.5000    0.0000 C   0  0  0  0  0  0  0  0  0  0  0  0
   -1.2990    0.7500    0.0000 C   0  0  0  0  0  0  0  0  0  0  0  0
   -2.5981    1.5000    0.0000 C   0  0  0  0  0  0  0  0  0  0  0  0
   -3.8971    0.7500    0.0000 C   0  0  0  0  0  0  0  0  0  0  0  0
   -3.8971   -0.7500    0.0000 C   0  0  0  0  0  0  0  0  0  0  0  0
   -4.9363   -1.3500    0.0000 O   0  0  0  0  0  0  0  0  0  0  0  0
   -2.5981   -1.5000    0.0000 N   0  0  0  0  0  0  0  0  0  0  0  0
   -1.2990   -0.7500    0.0000 C   0  0  0  0  0  0  0  0  0  0  0  0
    0.0000   -1.5000    0.0000 C   0  0  0  0  0  0  0  0  0  0  0  0
    3.8856   -8.2573    0.0000 C   0  0  0  0  0  0  0  0  0  0  0  0
    3.8804   -9.7573    0.0000 C   0  0  0  0  0  0  0  0  0  0  0  0
    6.4669  -12.7692    0.0000 C   0  0  0  0  0  0  0  0  0  0  0  0
    7.5092  -12.1745    0.0000 Cl  0  0  0  0  0  0  0  0  0  0  0  0
  1  2  1  0
  2  3  2  0
  3  4  1  0
  4  5  2  0
  5  6  1  0
  6  7  1  0
  7  8  1  0
  8  9  1  0
  9 10  1  0
 10 11  1  0
 11 12  1  0
 12 13  1  0
 13 14  1  0
 14 15  1  0
 15 16  1  0
 16 17  2  0
 17 18  1  0
 18 19  2  0
 19 20  1  0
 20 21  1  0
 21 22  1  0
 22 23  2  0
 22 24  1  0
 24 25  1  0
 25 19  1  0
 25 26  2  0
 26 16  1  0
 10 27  1  0
 27 28  1  0
 28  7  1  0
  6 29  2  0
 29  2  1  0
 29 30  1  0
M  END
> <chembl_id>
CHEMBL1112

> <chembl_pref_name>
ARIPIPRAZOLE
