
     RDKit          2D

 13 14  0  0  0  0  0  0  0  0999 V2000
    4.8417   -5.5542    0.0000 N   0  0  0  0  0  0  0  0  0  0  0  0
    5.4417   -5.1917    0.0000 C   0  0  0  0  0  0  0  0  0  0  0  0
    4.2292   -4.4917    0.0000 N   0  0  0  0  0  0  0  0  0  0  0  0
    4.2292   -5.1917    0.0000 C   0  0  0  0  0  0  0  0  0  0  0  0
    5.4417   -4.4917    0.0000 C   0  0  0  0  0  0  0  0  0  0  0  0
    4.8417   -4.1417    0.0000 C   0  0  0  0  0  0  0  0  0  0  0  0
    6.1292   -5.4167    0.0000 N   0  0  0  0  0  0  0  0  0  0  0  0
    6.1292   -4.2750    0.0000 N   0  0  0  0  0  0  0  0  0  0  0  0
    6.5417   -4.8417    0.0000 C   0  0  0  0  0  0  0  0  0  0  0  0
    3.6042   -5.5542    0.0000 O   0  0  0  0  0  0  0  0  0  0  0  0
    4.8417   -3.4250    0.0000 O   0  0  0  0  0  0  0  0  0  0  0  0
    4.8417   -6.2667    0.0000 C   0  0  0  0  0  0  0  0  0  0  0  0
    3.6042   -4.1417    0.0000 C   0  0  0  0  0  0  0  0  0  0  0  0
  2  1  1  0
  3  4  1  0
  4  1  1  0
  5  2  2  0
  6  3  1  0
  7  2  1  0
  8  5  1  0
  9  7  2  0
 10  4  2  0
 11  6  2  0
 12  1  1  0
 13  3  1  0
  5  6  1  0
  8  9  1  0
M  END
> <chembl_id>
CHEMBL190

> <chembl_pref_name>
THEOPHYLLINE
