
     RDKit          2D

 33 35  0  0  0  0  0  0  0  0999 V2000
   -1.2375    2.0036    0.0000 C   0  0  0  0  0  0  0  0  0  0  0  0
   -1.9520    1.5911    0.0000 C   0  0  0  0  0  0  0  0  0  0  0  0
   -1.9520    0.7661    0.0000 C   0  0  0  0  0  0  0  0  0  0  0  0
   -1.2375    0.3536    0.0000 C   0  0  0  0  0  0  0  0  0  0  0  0
   -0.5230    0.7661    0.0000 C   0  0  0  0  0  0  0  0  0  0  0  0
   -0.5230    1.5911    0.0000 C   0  0  0  0  0  0  0  0  0  0  0  0
   -2.6664    2.0036    0.0000 Cl  0  0  0  0  0  0  0  0  0  0  0  0
   -2.6664    0.3536    0.0000 C   0  0  0  0  0  0  0  0  0  0  0  0
    0.1914    0.3536    0.0000 N   0  0  0  0  0  0  0  0  0  0  0  0
    0.9059    0.7661    0.0000 C   0  0  0  0  0  0  0  0  0  0  0  0
    1.6204    0.3536    0.0000 N   0  0  0  0  0  0  0  0  0  0  0  0
    0.9059    1.5911    0.0000 O   0  0  0  0  0  0  0  0  0  0  0  0
    2.3348    0.7661    0.0000 C   0  0  0  0  0  0  0  0  0  0  0  0
    3.0493    2.0036    0.0000 C   0  0  0  0  0  0  0  0  0  0  0  0
    2.3348    1.5911    0.0000 C   0  0  0  0  0  0  0  0  0  0  0  0
    3.0493    0.3536    0.0000 C   0  0  0  0  0  0  0  0  0  0  0  0
    3.7638    0.7661    0.0000 C   0  0  0  0  0  0  0  0  0  0  0  0
    3.7638    1.5911    0.0000 C   0  0  0  0  0  0  0  0  0  0  0  0
    4.4783    2.0036    0.0000 O   0  0  0  0  0  0  0  0  0  0  0  0
    5.1927    1.5911    0.0000 C   0  0  0  0  0  0  0  0  0  0  0  0
    5.9072    2.0036    0.0000 C   0  0  0  0  0  0  0  0  0  0  0  0
    5.1927    0.7661    0.0000 C   0  0  0  0  0  0  0  0  0  0  0  0
    5.9072    0.3536    0.0000 C   0  0  0  0  0  0  0  0  0  0  0  0
    6.6217    0.7661    0.0000 N   0  0  0  0  0  0  0  0  0  0  0  0
    6.6217    1.5911    0.0000 C   0  0  0  0  0  0  0  0  0  0  0  0
    7.3361    2.0036    0.0000 C   0  0  0  0  0  0  0  0  0  0  0  0
    7.3361    2.8286    0.0000 O   0  0  0  0  0  0  0  0  0  0  0  0
    8.0506    1.5911    0.0000 N   0  0  0  0  0  0  0  0  0  0  0  0
    8.7651    2.0036    0.0000 C   0  0  0  0  0  0  0  0  0  0  0  0
   -2.6664   -0.4714    0.0000 F   0  0  0  0  0  0  0  0  0  0  0  0
   -3.3809    0.7661    0.0000 F   0  0  0  0  0  0  0  0  0  0  0  0
   -3.3809   -0.0589    0.0000 F   0  0  0  0  0  0  0  0  0  0  0  0
    1.6204    2.0036    0.0000 F   0  0  0  0  0  0  0  0  0  0  0  0
  1  2  2  0
  2  3  1  0
  3  4  2  0
  4  5  1  0
  5  6  2  0
  1  6  1  0
  2  7  1  0
  3  8  1  0
  5  9  1  0
  9 10  1  0
 10 11  1  0
 10 12  2  0
 11 13  1  0
 15 13  2  0
 13 16  1  0
 14 15  1  0
 16 17  2  0
 17 18  1  0
 14 18  2  0
 18 19  1  0
 19 20  1  0
 21 20  2  0
 20 22  1  0
 22 23  2  0
 23 24  1  0
 24 25  2  0
 21 25  1  0
 25 26  1  0
 26 27  2  0
 26 28  1  0
 28 29  1  0
  8 30  1  0
  8 31  1  0
  8 32  1  0
 15 33  1  0
M  END
> <chembl_id>
CHEMBL1946170

> <chembl_pref_name>
REGORAFENIB
