
     RDKit          2D

 24 27  0  0  1  0  0  0  0  0999 V2000
    9.8161   -5.0779    0.0000 C   0  0  0  0  0  0  0  0  0  0  0  0
    9.8189   -5.9024    0.0000 C   0  0  0  0  0  0  0  0  0  0  0  0
    9.0956   -6.3172    0.0000 C   0  0  0  0  0  0  0  0  0  0  0  0
    8.3820   -5.8948    0.0000 C   0  0  0  0  0  0  0  0  0  0  0  0
    7.6713   -6.3178    0.0000 C   0  0  0  0  0  0  0  0  0  0  0  0
   10.6024   -4.8253    0.0000 C   0  0  0  0  0  0  0  0  0  0  0  0
   10.5943   -6.1622    0.0000 C   0  0  0  0  0  0  0  0  0  0  0  0
    7.6741   -7.1425    0.0000 C   0  0  0  0  0  0  0  0  0  0  0  0
   11.0877   -5.4983    0.0000 C   0  0  0  0  0  0  0  0  0  0  0  0
    9.1025   -4.6638    0.0000 C   0  0  0  0  0  0  0  0  0  0  0  0
    8.3875   -5.0702    0.0000 C   0  0  0  0  0  0  0  0  0  0  0  0
    9.1067   -7.1418    0.0000 C   0  0  0  0  0  0  0  0  0  0  0  0
    6.9577   -5.9080    0.0000 C   0  0  0  0  0  0  0  0  0  0  0  0
    8.3876   -7.5566    0.0000 C   0  0  0  0  0  0  0  0  0  0  0  0
    6.9634   -7.5614    0.0000 C   0  0  0  0  0  0  0  0  0  0  0  0
   11.9123   -5.4955    0.0000 F   0  0  0  0  0  0  0  0  0  0  0  0
    6.2498   -7.1515    0.0000 C   0  0  0  0  0  0  0  0  0  0  0  0
   10.8620   -4.0456    0.0000 O   0  0  0  0  0  0  0  0  0  0  0  0
    6.2470   -6.3227    0.0000 C   0  0  0  0  0  0  0  0  0  0  0  0
    9.8133   -4.2533    0.0000 C   0  0  0  0  0  0  0  0  0  0  0  0
    5.5349   -7.5663    0.0000 O   0  0  0  0  0  0  0  0  0  0  0  0
    8.3812   -6.7283    0.0000 H   0  0  0  0  0  0  0  0  0  0  0  0
    9.0949   -5.4887    0.0000 H   0  0  0  0  0  0  0  0  0  0  0  0
    9.8087   -6.7325    0.0000 H   0  0  0  0  0  0  0  0  0  0  0  0
  2  1  1  0
  3  2  1  0
  4 11  1  0
  5  4  1  0
  6  1  1  0
  7  2  1  0
  8  5  2  0
  9  6  1  0
 10  1  1  0
 11 10  1  0
 12  3  1  0
 13  5  1  0
 14 12  1  0
 15  8  1  0
  9 16  1  6
 17 19  1  0
  6 18  1  1
 19 13  2  0
  1 20  1  1
 21 17  1  0
  9  7  1  0
  4  3  1  0
 14  8  1  0
 17 15  2  0
  4 22  1  6
  3 23  1  1
  2 24  1  6
M  ISO  1  16  18
M  END
> <chembl_id>
CHEMBL4594261

> <chembl_pref_name>
FLUOROESTRADIOL F-18
