
     RDKit          2D

 29 31  0  0  0  0  0  0  0  0999 V2000
   -0.7359    2.0724    0.0000 C   0  0  0  0  0  0  0  0  0  0  0  0
   -3.3765   -2.8427    0.0000 C   0  0  0  0  0  0  0  0  0  0  0  0
   -3.6315   -2.0581    0.0000 C   0  0  0  0  0  0  0  0  0  0  0  0
   -2.0175   -2.4011    0.0000 C   0  0  0  0  0  0  0  0  0  0  0  0
    0.1031    0.1094    0.0000 C   0  0  0  0  0  0  0  0  0  0  0  0
   -2.5695   -3.0142    0.0000 C   0  0  0  0  0  0  0  0  0  0  0  0
   -2.2725   -1.6165    0.0000 C   0  0  0  0  0  0  0  0  0  0  0  0
   -1.8600   -0.9020    0.0000 C   0  0  0  0  0  0  0  0  0  0  0  0
   -2.4120   -0.2889    0.0000 C   0  0  0  0  0  0  0  0  0  0  0  0
    0.9038    1.3424    0.0000 C   0  0  0  0  0  0  0  0  0  0  0  0
    0.7161   -0.4426    0.0000 C   0  0  0  0  0  0  0  0  0  0  0  0
   -1.0395   -0.8158    0.0000 C   0  0  0  0  0  0  0  0  0  0  0  0
   -0.5644    1.2654    0.0000 C   0  0  0  0  0  0  0  0  0  0  0  0
   -3.0794   -1.4450    0.0000 C   0  0  0  0  0  0  0  0  0  0  0  0
   -0.7039   -0.0621    0.0000 C   0  0  0  0  0  0  0  0  0  0  0  0
    0.1893    0.9299    0.0000 C   0  0  0  0  0  0  0  0  0  0  0  0
   -1.1164    0.6524    0.0000 N   0  0  0  0  0  0  0  0  0  0  0  0
   -3.1657   -0.6245    0.0000 N   0  0  0  0  0  0  0  0  0  0  0  0
    1.6182    0.9299    0.0000 N   0  0  0  0  0  0  0  0  0  0  0  0
   -2.2405    0.5180    0.0000 O   0  0  0  0  0  0  0  0  0  0  0  0
    0.9038    2.1674    0.0000 O   0  0  0  0  0  0  0  0  0  0  0  0
   -2.3146   -3.7988    0.0000 F   0  0  0  0  0  0  0  0  0  0  0  0
    2.3327    1.3424    0.0000 C   0  0  0  0  0  0  0  0  0  0  0  0
    3.0472    0.9299    0.0000 C   0  0  0  0  0  0  0  0  0  0  0  0
    3.7616    1.3424    0.0000 N   0  0  0  0  0  0  0  0  0  0  0  0
    3.7616    2.1674    0.0000 C   0  0  0  0  0  0  0  0  0  0  0  0
    4.4761    0.9299    0.0000 C   0  0  0  0  0  0  0  0  0  0  0  0
    5.1906    1.3424    0.0000 C   0  0  0  0  0  0  0  0  0  0  0  0
    4.4761    2.5799    0.0000 C   0  0  0  0  0  0  0  0  0  0  0  0
 13  1  1  0
  2  3  2  0
  6  2  1  0
 14  3  1  0
  6  4  2  0
  7  4  1  0
  5 11  1  0
  5 15  2  0
  5 16  1  0
  6 22  1  0
  7  8  1  0
 14  7  2  0
  8  9  1  0
 12  8  2  0
  9 18  1  0
  9 20  2  0
 16 10  1  0
 10 19  1  0
 10 21  2  0
 12 15  1  0
 13 16  2  0
 13 17  1  0
 14 18  1  0
 15 17  1  0
 23 19  1  0
 23 24  1  0
 24 25  1  0
 26 25  1  0
 27 25  1  0
 27 28  1  0
 26 29  1  0
M  END
> <chembl_id>
CHEMBL535

> <chembl_pref_name>
SUNITINIB
