
     RDKit          2D

 19 20  0  0  1  0  0  0  0  0999 V2000
    2.0500  -15.7042    0.0000 C   0  0  0  0  0  0  0  0  0  0  0  0
    1.4167  -16.0667    0.0000 S   0  0  0  0  0  0  0  0  0  0  0  0
    2.0500  -14.9792    0.0000 C   0  0  0  0  0  0  0  0  0  0  0  0
    2.7292  -15.9292    0.0000 S   0  0  0  0  0  0  0  0  0  0  0  0
    3.1625  -15.3292    0.0000 C   0  0  0  0  0  0  0  0  0  0  0  0
    3.8500  -15.3292    0.0000 S   0  0  0  0  0  0  0  0  0  0  0  0
    2.7042  -14.7667    0.0000 C   0  0  0  0  0  0  0  0  0  0  0  0
    0.8000  -15.7042    0.0000 C   0  0  0  0  0  0  0  0  0  0  0  0
    1.4167  -14.6167    0.0000 C   0  0  0  0  0  0  0  0  0  0  0  0
    0.8000  -14.9792    0.0000 C   0  0  0  0  0  0  0  0  0  0  0  0
    1.7667  -16.6792    0.0000 O   0  0  0  0  0  0  0  0  0  0  0  0
    1.0625  -16.6792    0.0000 O   0  0  0  0  0  0  0  0  0  0  0  0
    4.4625  -14.9667    0.0000 O   0  0  0  0  0  0  0  0  0  0  0  0
    3.8417  -14.6167    0.0000 O   0  0  0  0  0  0  0  0  0  0  0  0
    4.2000  -15.8792    0.0000 N   0  0  0  0  0  0  0  0  0  0  0  0
    1.4167  -13.9042    0.0000 N   0  0  0  0  0  0  0  0  0  0  0  0
    0.1875  -16.0542    0.0000 C   0  0  0  0  0  0  0  0  0  0  0  0
    2.0292  -13.5292    0.0000 C   0  0  0  0  0  0  0  0  0  0  0  0
    2.6625  -13.8875    0.0000 C   0  0  0  0  0  0  0  0  0  0  0  0
  2  1  1  0
  3  1  2  0
  4  1  1  0
  5  4  1  0
  6  5  1  0
  7  3  1  0
  8  2  1  0
  9  3  1  0
 10  9  1  0
 11  2  2  0
 12  2  2  0
 13  6  2  0
 14  6  2  0
 15  6  1  0
  9 16  1  6
  8 17  1  1
 18 16  1  0
 19 18  1  0
  7  5  2  0
  8 10  1  0
M  END
> <chembl_id>
CHEMBL218490

> <chembl_pref_name>
DORZOLAMIDE
