
     RDKit          2D

 21 20  0  0  0  0  0  0  0  0999 V2000
    4.8958   -0.6875    0.0000 Na  0  0  0  0  0 15  0  0  0  0  0  0
    2.5500   -0.5208    0.0000 C   0  0  0  0  0  0  0  0  0  0  0  0
    1.3208   -0.5208    0.0000 C   0  0  0  0  0  0  0  0  0  0  0  0
    1.9333   -1.5917    0.0000 C   0  0  0  0  0  0  0  0  0  0  0  0
    1.3208   -1.2250    0.0000 C   0  0  0  0  0  0  0  0  0  0  0  0
    2.5542   -1.2375    0.0000 C   0  0  0  0  0  0  0  0  0  0  0  0
    1.9333   -0.1708    0.0000 C   0  0  0  0  0  0  0  0  0  0  0  0
    3.1708   -0.1625    0.0000 C   0  0  0  0  0  0  0  0  0  0  0  0
    0.7083   -0.1625    0.0000 C   0  0  0  0  0  0  0  0  0  0  0  0
    1.9375   -2.2958    0.0000 N   0  0  0  0  0  0  0  0  0  0  0  0
    1.3208   -2.6708    0.0000 C   0  0  0  0  0  0  0  0  0  0  0  0
    3.7958   -0.5250    0.0000 O   0  0  0  0  0  0  0  0  0  0  0  0
    3.1792    0.5333    0.0000 O   0  0  0  0  0  0  0  0  0  0  0  0
    0.7083    0.5500    0.0000 O   0  0  0  0  0  0  0  0  0  0  0  0
    1.9375    0.5417    0.0000 I   0  0  0  0  0  0  0  0  0  0  0  0
    0.6958   -1.5833    0.0000 I   0  0  0  0  0  0  0  0  0  0  0  0
    3.1750   -1.5875    0.0000 I   0  0  0  0  0  0  0  0  0  0  0  0
    1.3167   -3.3625    0.0000 O   0  0  0  0  0  0  0  0  0  0  0  0
    0.0833   -0.5125    0.0000 N   0  0  0  0  0  0  0  0  0  0  0  0
    0.7000   -2.3125    0.0000 C   0  0  0  0  0  0  0  0  0  0  0  0
   -0.5292   -0.1625    0.0000 C   0  0  0  0  0  0  0  0  0  0  0  0
  3  7  1  0
  4  6  2  0
  5  4  1  0
  6  2  1  0
  7  2  2  0
  8  2  1  0
  9  3  1  0
 10  4  1  0
 11 10  1  0
 12  8  1  0
 13  8  2  0
 14  9  2  0
 15  7  1  0
 16  5  1  0
 17  6  1  0
 18 11  2  0
 19  9  1  0
 20 11  1  0
 21 19  1  0
  5  3  2  0
M  CHG  2   1   1  12  -1
M  END
> <chembl_id>
CHEMBL1097620

> <chembl_pref_name>
IOTHALAMATE SODIUM
