
     RDKit          2D

 23 23  0  0  0  0  0  0  0  0999 V2000
    7.6325    0.2152    0.0000 C   0  0  0  0  0  0  0  0  0  0  0  0
   11.9194    0.2152    0.0000 C   0  0  0  0  0  0  0  0  0  0  0  0
    8.3470    0.6277    0.0000 C   0  0  0  0  0  0  0  0  0  0  0  0
   11.2049    0.6277    0.0000 N   0  0  0  0  0  0  0  0  0  0  0  0
   11.9194   -0.6098    0.0000 B   0  0  0  0  0  0  0  0  0  0  0  0
   10.4904    0.2152    0.0000 C   0  0  0  0  0  0  0  0  0  0  0  0
    9.0615    0.2152    0.0000 N   0  0  0  0  0  0  0  0  0  0  0  0
    6.9181    0.6277    0.0000 C   0  0  0  0  0  0  0  0  0  0  0  0
    7.6325   -0.6098    0.0000 C   0  0  0  0  0  0  0  0  0  0  0  0
   12.6338    0.6277    0.0000 C   0  0  0  0  0  0  0  0  0  0  0  0
    8.3470    1.4527    0.0000 O   0  0  0  0  0  0  0  0  0  0  0  0
   10.4904   -0.6098    0.0000 O   0  0  0  0  0  0  0  0  0  0  0  0
    9.7760    0.6277    0.0000 C   0  0  0  0  0  0  0  0  0  0  0  0
    6.2036    0.2152    0.0000 C   0  0  0  0  0  0  0  0  0  0  0  0
    6.9181   -1.0223    0.0000 C   0  0  0  0  0  0  0  0  0  0  0  0
   12.6338   -1.0223    0.0000 O   0  0  0  0  0  0  0  0  0  0  0  0
   11.2049   -1.0223    0.0000 O   0  0  0  0  0  0  0  0  0  0  0  0
    6.9181    1.4527    0.0000 Cl  0  0  0  0  0  0  0  0  0  0  0  0
    6.2036   -0.6098    0.0000 C   0  0  0  0  0  0  0  0  0  0  0  0
    6.9181   -1.8473    0.0000 Cl  0  0  0  0  0  0  0  0  0  0  0  0
   13.3483    0.2152    0.0000 C   0  0  0  0  0  0  0  0  0  0  0  0
   14.0628    0.6277    0.0000 C   0  0  0  0  0  0  0  0  0  0  0  0
   13.3483   -0.6098    0.0000 C   0  0  0  0  0  0  0  0  0  0  0  0
  2  4  1  0
  3  1  1  0
  4  6  1  0
  2  5  1  1
  6 13  1  0
  7  3  1  0
  8  1  2  0
  9  1  1  0
  2 10  1  0
 11  3  2  0
 12  6  2  0
 13  7  1  0
 14  8  1  0
 15  9  2  0
 16  5  1  0
 17  5  1  0
 18  8  1  0
 19 15  1  0
 20 15  1  0
 21 10  1  0
 22 21  1  0
 23 21  1  0
 14 19  2  0
M  END
> <chembl_id>
CHEMBL2141296

> <chembl_pref_name>
IXAZOMIB
