
     RDKit          2D

 54 53  0  0  0  0  0  0  0  0999 V2000
   -0.1364    3.5915    0.0000 N   0  0  0  0  0  0  0  0  0  0  0  0
    2.7322    3.5327    0.0000 O   0  0  0  0  0  0  0  0  0  0  0  0
    1.3053    3.5474    0.0000 C   0  0  0  0  0  0  0  0  0  0  0  0
    3.4531    3.0914    0.0000 C   0  0  0  0  0  0  0  0  0  0  0  0
    0.5844    3.1649    0.0000 C   0  0  0  0  0  0  0  0  0  0  0  0
    2.0114    3.1208    0.0000 C   0  0  0  0  0  0  0  0  0  0  0  0
    4.9389    2.2675    0.0000 C   0  0  0  0  0  0  0  0  0  0  0  0
    3.4531    2.2675    0.0000 C   0  0  0  0  0  0  0  0  0  0  0  0
    4.1739    3.5180    0.0000 C   0  0  0  0  0  0  0  0  0  0  0  0
    4.1739    1.8556    0.0000 C   0  0  0  0  0  0  0  0  0  0  0  0
    4.9389    3.0914    0.0000 C   0  0  0  0  0  0  0  0  0  0  0  0
    1.3200    4.3712    0.0000 O   0  0  0  0  0  0  0  0  0  0  0  0
    8.5725    1.8703    0.0000 O   0  0  0  0  0  0  0  0  0  0  0  0
   -0.8572    3.2091    0.0000 C   0  0  0  0  0  0  0  0  0  0  0  0
    6.3953    2.2675    0.0000 O   0  0  0  0  0  0  0  0  0  0  0  0
    5.6745    1.8556    0.0000 C   0  0  0  0  0  0  0  0  0  0  0  0
    9.2787    2.2675    0.0000 C   0  0  0  0  0  0  0  0  0  0  0  0
    7.8517    2.2675    0.0000 C   0  0  0  0  0  0  0  0  0  0  0  0
    7.1309    1.8703    0.0000 C   0  0  0  0  0  0  0  0  0  0  0  0
   -0.8572    2.3705    0.0000 C   0  0  0  0  0  0  0  0  0  0  0  0
   -1.5781    3.6357    0.0000 C   0  0  0  0  0  0  0  0  0  0  0  0
    9.9995    1.8409    0.0000 C   0  0  0  0  0  0  0  0  0  0  0  0
    9.2934    3.0914    0.0000 C   0  0  0  0  0  0  0  0  0  0  0  0
    2.8883   -2.6676    0.0000 C   0  0  0  0  0  0  0  0  0  0  0  0
    4.9920   -3.1678    0.0000 C   0  0  0  0  0  0  0  0  0  0  0  0
    3.5650   -3.1384    0.0000 C   0  0  0  0  0  0  0  0  0  0  0  0
    4.3006   -2.8000    0.0000 C   0  0  0  0  0  0  0  0  0  0  0  0
    2.8883   -1.7850    0.0000 O   0  0  0  0  0  0  0  0  0  0  0  0
    4.9870   -4.0161    0.0000 O   0  0  0  0  0  0  0  0  0  0  0  0
    5.7373   -2.6676    0.0000 O   0  0  0  0  0  0  0  0  0  0  0  0
    2.1822   -3.0501    0.0000 O   0  0  0  0  0  0  0  0  0  0  0  0
   -0.2304    0.3628    0.0000 N   0  0  0  0  0  0  0  0  0  0  0  0
    2.6382    0.3040    0.0000 O   0  0  0  0  0  0  0  0  0  0  0  0
    1.2112    0.3187    0.0000 C   0  0  0  0  0  0  0  0  0  0  0  0
    3.3591   -0.1373    0.0000 C   0  0  0  0  0  0  0  0  0  0  0  0
    0.4904   -0.0638    0.0000 C   0  0  0  0  0  0  0  0  0  0  0  0
    1.9174   -0.1079    0.0000 C   0  0  0  0  0  0  0  0  0  0  0  0
    4.8449   -0.9612    0.0000 C   0  0  0  0  0  0  0  0  0  0  0  0
    3.3591   -0.9612    0.0000 C   0  0  0  0  0  0  0  0  0  0  0  0
    4.0799    0.2893    0.0000 C   0  0  0  0  0  0  0  0  0  0  0  0
    4.0799   -1.3731    0.0000 C   0  0  0  0  0  0  0  0  0  0  0  0
    4.8449   -0.1373    0.0000 C   0  0  0  0  0  0  0  0  0  0  0  0
    1.2260    1.1425    0.0000 O   0  0  0  0  0  0  0  0  0  0  0  0
    8.4785   -1.3584    0.0000 O   0  0  0  0  0  0  0  0  0  0  0  0
   -0.9513   -0.0197    0.0000 C   0  0  0  0  0  0  0  0  0  0  0  0
    6.3013   -0.9612    0.0000 O   0  0  0  0  0  0  0  0  0  0  0  0
    5.5804   -1.3731    0.0000 C   0  0  0  0  0  0  0  0  0  0  0  0
    9.1846   -0.9612    0.0000 C   0  0  0  0  0  0  0  0  0  0  0  0
    7.7577   -0.9612    0.0000 C   0  0  0  0  0  0  0  0  0  0  0  0
    7.0368   -1.3584    0.0000 C   0  0  0  0  0  0  0  0  0  0  0  0
   -0.9513   -0.8582    0.0000 C   0  0  0  0  0  0  0  0  0  0  0  0
   -1.6721    0.4070    0.0000 C   0  0  0  0  0  0  0  0  0  0  0  0
    9.9055   -1.3878    0.0000 C   0  0  0  0  0  0  0  0  0  0  0  0
    9.1993   -0.1373    0.0000 C   0  0  0  0  0  0  0  0  0  0  0  0
  2  6  1  0
  3  5  1  0
  4  2  1  0
  5  1  1  0
  6  3  1  0
  7 11  2  0
  8  4  1  0
  9  4  2  0
 10  8  2  0
 11  9  1  0
 12  3  1  0
 13 18  1  0
 14  1  1  0
 15 16  1  0
 16  7  1  0
 17 13  1  0
 18 19  1  0
 19 15  1  0
 20 14  1  0
 21 14  1  0
 22 17  1  0
 23 17  1  0
 10  7  1  0
 25 27  1  0
 26 24  1  0
 27 26  2  0
 28 24  2  0
 29 25  2  0
 30 25  1  0
 31 24  1  0
 33 37  1  0
 34 36  1  0
 35 33  1  0
 36 32  1  0
 37 34  1  0
 38 42  2  0
 39 35  1  0
 40 35  2  0
 41 39  2  0
 42 40  1  0
 43 34  1  0
 44 49  1  0
 45 32  1  0
 46 47  1  0
 47 38  1  0
 48 44  1  0
 49 50  1  0
 50 46  1  0
 51 45  1  0
 52 45  1  0
 53 48  1  0
 54 48  1  0
 41 38  1  0
M  END
> <chembl_id>
CHEMBL1472989

> <chembl_pref_name>
BISOPROLOL FUMARATE
