
     RDKit          2D

 24 26  0  0  1  0  0  0  0  0999 V2000
    5.7000   -5.7250    0.0000 N   0  0  0  0  0  0  0  0  0  0  0  0
    5.0292   -5.5125    0.0000 C   0  0  0  0  0  0  0  0  0  0  0  0
    5.7042   -7.5125    0.0000 C   0  0  0  0  0  0  0  0  0  0  0  0
    5.0250   -4.8042    0.0000 C   0  0  0  0  0  0  0  0  0  0  0  0
    4.4125   -5.8667    0.0000 N   0  0  0  0  0  0  0  0  0  0  0  0
    5.6958   -4.5833    0.0000 N   0  0  0  0  0  0  0  0  0  0  0  0
    5.4875   -8.1875    0.0000 C   0  0  0  0  0  0  0  0  0  0  0  0
    6.1125   -5.1542    0.0000 C   0  0  0  0  0  0  0  0  0  0  0  0
    3.8042   -4.8042    0.0000 N   0  0  0  0  0  0  0  0  0  0  0  0
    5.1292   -7.0917    0.0000 O   0  0  0  0  0  0  0  0  0  0  0  0
    4.4125   -4.4542    0.0000 C   0  0  0  0  0  0  0  0  0  0  0  0
    3.8042   -5.5167    0.0000 C   0  0  0  0  0  0  0  0  0  0  0  0
    4.5583   -7.5125    0.0000 C   0  0  0  0  0  0  0  0  0  0  0  0
    4.7750   -8.1875    0.0000 C   0  0  0  0  0  0  0  0  0  0  0  0
    2.7125   -7.1542    0.0000 P   0  0  0  0  0  0  0  0  0  0  0  0
    3.9417   -7.1542    0.0000 C   0  0  0  0  0  0  0  0  0  0  0  0
    3.3250   -7.5083    0.0000 O   0  0  0  0  0  0  0  0  0  0  0  0
    2.3542   -6.5375    0.0000 O   0  0  0  0  0  0  0  0  0  0  0  0
    5.9000   -8.7583    0.0000 O   0  0  0  0  0  0  0  0  0  0  0  0
    4.4125   -3.7417    0.0000 N   0  0  0  0  0  0  0  0  0  0  0  0
    3.1875   -5.8667    0.0000 F   0  0  0  0  0  0  0  0  0  0  0  0
    3.0625   -6.5375    0.0000 O   0  0  0  0  0  0  0  0  0  0  0  0
    2.1000   -7.5083    0.0000 O   0  0  0  0  0  0  0  0  0  0  0  0
    4.3625   -8.7583    0.0000 O   0  0  0  0  0  0  0  0  0  0  0  0
  2  1  1  0
  3  1  1  1
  4  2  2  0
  5  2  1  0
  6  8  2  0
  7  3  1  0
  8  1  1  0
  9 11  2  0
 10  3  1  0
 11  4  1  0
 12  5  2  0
 13 10  1  0
 14  7  1  0
 15 17  1  0
 13 16  1  1
 17 16  1  0
 18 15  2  0
  7 19  1  1
 20 11  1  0
 21 12  1  0
 22 15  1  0
 23 15  1  0
 14 24  1  6
  4  6  1  0
 12  9  1  0
 14 13  1  0
M  END
> <chembl_id>
CHEMBL1096882

> <chembl_pref_name>
FLUDARABINE PHOSPHATE
