
     RDKit          2D

 19 21  0  0  0  0  0  0  0  0999 V2000
    6.1780   -2.1644    0.0000 C   0  0  0  0  0  0  0  0  0  0  0  0
    6.4303   -2.9459    0.0000 C   0  0  0  0  0  0  0  0  0  0  0  0
    5.3529   -2.1644    0.0000 N   0  0  0  0  0  0  0  0  0  0  0  0
    6.8914   -1.7471    0.0000 N   0  0  0  0  0  0  0  0  0  0  0  0
    7.1486   -3.3535    0.0000 S   0  0  0  0  0  0  0  0  0  0  0  0
    5.7655   -3.4360    0.0000 N   0  0  0  0  0  0  0  0  0  0  0  0
    7.1486   -4.1785    0.0000 C   0  0  0  0  0  0  0  0  0  0  0  0
    7.8620   -4.5911    0.0000 C   0  0  0  0  0  0  0  0  0  0  0  0
    5.0957   -2.9459    0.0000 C   0  0  0  0  0  0  0  0  0  0  0  0
    7.8669   -5.4160    0.0000 C   0  0  0  0  0  0  0  0  0  0  0  0
    8.6482   -4.3290    0.0000 N   0  0  0  0  0  0  0  0  0  0  0  0
    8.6531   -5.6684    0.0000 N   0  0  0  0  0  0  0  0  0  0  0  0
    6.4352   -4.5911    0.0000 N   0  0  0  0  0  0  0  0  0  0  0  0
    7.1486   -5.8334    0.0000 N   0  0  0  0  0  0  0  0  0  0  0  0
    9.1383   -4.9938    0.0000 C   0  0  0  0  0  0  0  0  0  0  0  0
    6.4352   -5.4209    0.0000 C   0  0  0  0  0  0  0  0  0  0  0  0
    7.6048   -2.1548    0.0000 O   0  0  0  0  0  0  0  0  0  0  0  0
    6.8816   -0.9221    0.0000 O   0  0  0  0  0  0  0  0  0  0  0  0
    5.7655   -4.2610    0.0000 C   0  0  0  0  0  0  0  0  0  0  0  0
  2  1  2  0
  3  1  1  0
  4  1  1  0
  5  2  1  0
  6  2  1  0
  7  5  1  0
  8  7  2  0
  9  3  2  0
 10  8  1  0
 11  8  1  0
 12 10  1  0
 13  7  1  0
 14 10  2  0
 15 11  2  0
 16 13  2  0
 17  4  1  0
 18  4  2  0
 19  6  1  0
  9  6  1  0
 14 16  1  0
 15 12  1  0
M  CHG  2   4   1  17  -1
M  END
> <chembl_id>
CHEMBL1542

> <chembl_pref_name>
AZATHIOPRINE
