
     RDKit          2D

206227  0  0  0  0  0  0  0  0999 V2000
    0.2976   -6.0541    0.0000 S   0  0  0  0  0  0  0  0  0  0  0  0
    0.7171   -5.3051    0.0000 O   0  0  0  0  0  0  0  0  0  0  0  0
   -0.1368   -5.3051    0.0000 O   0  0  0  0  0  0  0  0  0  0  0  0
    1.0317   -6.4736    0.0000 O   0  0  0  0  0  0  0  0  0  0  0  0
   -0.4364   -6.4736    0.0000 C   0  0  0  0  0  0  0  0  0  0  0  0
   -9.2624    1.0979    0.0000 C   0  0  0  0  0  0  0  0  0  0  0  0
   -9.2924   -0.5499    0.0000 C   0  0  0  0  0  0  0  0  0  0  0  0
   -8.5584    0.6785    0.0000 C   0  0  0  0  0  0  0  0  0  0  0  0
   -9.9815    0.6635    0.0000 C   0  0  0  0  0  0  0  0  0  0  0  0
   -7.8393    1.1429    0.0000 N   0  0  0  0  0  0  0  0  0  0  0  0
   -8.5883    2.3862    0.0000 C   0  0  0  0  0  0  0  0  0  0  0  0
   -9.9815   -0.1454    0.0000 C   0  0  0  0  0  0  0  0  0  0  0  0
   -8.5883    3.2101    0.0000 C   0  0  0  0  0  0  0  0  0  0  0  0
   -8.5733   -0.1304    0.0000 C   0  0  0  0  0  0  0  0  0  0  0  0
   -9.2624    1.9069    0.0000 C   0  0  0  0  0  0  0  0  0  0  0  0
   -9.4572   -1.3588    0.0000 C   0  0  0  0  0  0  0  0  0  0  0  0
  -10.4908   -1.3588    0.0000 N   0  0  0  0  0  0  0  0  0  0  0  0
   -7.8393    1.9668    0.0000 C   0  0  0  0  0  0  0  0  0  0  0  0
   -7.7944    3.6446    0.0000 N   0  0  0  0  0  0  0  0  0  0  0  0
  -10.7005   -0.5499    0.0000 C   0  0  0  0  0  0  0  0  0  0  0  0
   -9.4572    3.7045    0.0000 O   0  0  0  0  0  0  0  0  0  0  0  0
  -10.7005    1.0680    0.0000 C   0  0  0  0  0  0  0  0  0  0  0  0
   -7.1053    0.7684    0.0000 C   0  0  0  0  0  0  0  0  0  0  0  0
   -7.0454    3.2850    0.0000 C   0  0  0  0  0  0  0  0  0  0  0  0
  -11.4046    0.6635    0.0000 C   0  0  0  0  0  0  0  0  0  0  0  0
  -11.4046   -0.1604    0.0000 C   0  0  0  0  0  0  0  0  0  0  0  0
   -7.9442    0.2890    0.0000 H   0  0  0  0  0  0  0  0  0  0  0  0
  -10.2062    1.5923    0.0000 H   0  0  0  0  0  0  0  0  0  0  0  0
   -6.8970    2.4735    0.0000 C   0  0  0  0  0  0  0  0  0  0  0  0
   -6.0794    2.3638    0.0000 N   0  0  0  0  0  0  0  0  0  0  0  0
   -5.7224    3.1076    0.0000 C   0  0  0  0  0  0  0  0  0  0  0  0
   -6.3194    3.6769    0.0000 O   0  0  0  0  0  0  0  0  0  0  0  0
   -7.4663    1.8765    0.0000 O   0  0  0  0  0  0  0  0  0  0  0  0
   -4.8997    3.1703    0.0000 C   0  0  0  0  0  0  0  0  0  0  0  0
   -4.4341    2.4892    0.0000 N   0  0  0  0  0  0  0  0  0  0  0  0
   -4.7911    1.7455    0.0000 C   0  0  0  0  0  0  0  0  0  0  0  0
   -5.6137    1.6828    0.0000 C   0  0  0  0  0  0  0  0  0  0  0  0
   -6.4106    1.4692    0.0000 H   0  0  0  0  0  0  0  0  0  0  0  0
   -5.2012    0.9683    0.0000 C   0  0  0  0  0  0  0  0  0  0  0  0
   -3.6425    2.7216    0.0000 C   0  0  0  0  0  0  0  0  0  0  0  0
   -3.6189    3.5463    0.0000 C   0  0  0  0  0  0  0  0  0  0  0  0
   -4.3959    3.8235    0.0000 C   0  0  0  0  0  0  0  0  0  0  0  0
   -5.3099    3.8220    0.0000 O   0  0  0  0  0  0  0  0  0  0  0  0
   -7.0454    4.1100    0.0000 C   0  0  0  0  0  0  0  0  0  0  0  0
   -7.6287    4.6934    0.0000 C   0  0  0  0  0  0  0  0  0  0  0  0
   -6.4620    4.6934    0.0000 C   0  0  0  0  0  0  0  0  0  0  0  0
   -4.3255    1.0644    0.0000 O   0  0  0  0  0  0  0  0  0  0  0  0
   -4.4043    0.7548    0.0000 C   0  0  0  0  0  0  0  0  0  0  0  0
   -5.7035    0.3138    0.0000 C   0  0  0  0  0  0  0  0  0  0  0  0
   -5.3122    2.4558    0.0000 H   0  0  0  0  0  0  0  0  0  0  0  0
   -0.6831   -2.9919    0.0000 S   0  0  0  0  0  0  0  0  0  0  0  0
   -0.2637   -2.2428    0.0000 O   0  0  0  0  0  0  0  0  0  0  0  0
   -1.1176   -2.2428    0.0000 O   0  0  0  0  0  0  0  0  0  0  0  0
    0.0509   -3.4113    0.0000 O   0  0  0  0  0  0  0  0  0  0  0  0
   -1.4172   -3.4113    0.0000 C   0  0  0  0  0  0  0  0  0  0  0  0
    2.4429    2.9551    0.0000 C   0  0  0  0  0  0  0  0  0  0  0  0
    2.4130    1.3073    0.0000 C   0  0  0  0  0  0  0  0  0  0  0  0
    3.1470    2.5357    0.0000 C   0  0  0  0  0  0  0  0  0  0  0  0
    1.7239    2.5207    0.0000 C   0  0  0  0  0  0  0  0  0  0  0  0
    3.8661    3.0001    0.0000 N   0  0  0  0  0  0  0  0  0  0  0  0
    3.1171    4.2434    0.0000 C   0  0  0  0  0  0  0  0  0  0  0  0
    1.7239    1.7118    0.0000 C   0  0  0  0  0  0  0  0  0  0  0  0
    3.1171    5.0673    0.0000 C   0  0  0  0  0  0  0  0  0  0  0  0
    3.1320    1.7268    0.0000 C   0  0  0  0  0  0  0  0  0  0  0  0
    2.4429    3.7641    0.0000 C   0  0  0  0  0  0  0  0  0  0  0  0
    2.2482    0.4984    0.0000 C   0  0  0  0  0  0  0  0  0  0  0  0
    1.2146    0.4984    0.0000 N   0  0  0  0  0  0  0  0  0  0  0  0
    3.8661    3.8240    0.0000 C   0  0  0  0  0  0  0  0  0  0  0  0
    3.9110    5.5018    0.0000 N   0  0  0  0  0  0  0  0  0  0  0  0
    1.0048    1.3073    0.0000 C   0  0  0  0  0  0  0  0  0  0  0  0
    2.2482    5.5617    0.0000 O   0  0  0  0  0  0  0  0  0  0  0  0
    1.0048    2.9252    0.0000 C   0  0  0  0  0  0  0  0  0  0  0  0
    4.6001    2.6256    0.0000 C   0  0  0  0  0  0  0  0  0  0  0  0
    4.6600    5.1422    0.0000 C   0  0  0  0  0  0  0  0  0  0  0  0
    0.3008    2.5207    0.0000 C   0  0  0  0  0  0  0  0  0  0  0  0
    0.3008    1.6968    0.0000 C   0  0  0  0  0  0  0  0  0  0  0  0
    3.7612    2.1462    0.0000 H   0  0  0  0  0  0  0  0  0  0  0  0
    1.4992    3.4495    0.0000 H   0  0  0  0  0  0  0  0  0  0  0  0
    4.8084    4.3307    0.0000 C   0  0  0  0  0  0  0  0  0  0  0  0
    5.6260    4.2210    0.0000 N   0  0  0  0  0  0  0  0  0  0  0  0
    5.9830    4.9648    0.0000 C   0  0  0  0  0  0  0  0  0  0  0  0
    5.3860    5.5341    0.0000 O   0  0  0  0  0  0  0  0  0  0  0  0
    4.2390    3.7336    0.0000 O   0  0  0  0  0  0  0  0  0  0  0  0
    6.8056    5.0275    0.0000 C   0  0  0  0  0  0  0  0  0  0  0  0
    7.2713    4.3464    0.0000 N   0  0  0  0  0  0  0  0  0  0  0  0
    6.9143    3.6027    0.0000 C   0  0  0  0  0  0  0  0  0  0  0  0
    6.0916    3.5400    0.0000 C   0  0  0  0  0  0  0  0  0  0  0  0
    5.2948    3.3264    0.0000 H   0  0  0  0  0  0  0  0  0  0  0  0
    6.5041    2.8255    0.0000 C   0  0  0  0  0  0  0  0  0  0  0  0
    8.0628    4.5788    0.0000 C   0  0  0  0  0  0  0  0  0  0  0  0
    8.0865    5.4035    0.0000 C   0  0  0  0  0  0  0  0  0  0  0  0
    7.3095    5.6807    0.0000 C   0  0  0  0  0  0  0  0  0  0  0  0
    6.3955    5.6792    0.0000 O   0  0  0  0  0  0  0  0  0  0  0  0
    4.6600    5.9672    0.0000 C   0  0  0  0  0  0  0  0  0  0  0  0
    4.0767    6.5506    0.0000 C   0  0  0  0  0  0  0  0  0  0  0  0
    5.2434    6.5506    0.0000 C   0  0  0  0  0  0  0  0  0  0  0  0
    7.3799    2.9216    0.0000 O   0  0  0  0  0  0  0  0  0  0  0  0
    6.0019    2.1710    0.0000 C   0  0  0  0  0  0  0  0  0  0  0  0
    6.3931    4.3130    0.0000 H   0  0  0  0  0  0  0  0  0  0  0  0
    5.1840    2.2787    0.0000 C   0  0  0  0  0  0  0  0  0  0  0  0
    4.6817    1.6242    0.0000 C   0  0  0  0  0  0  0  0  0  0  0  0
    4.9975    0.8619    0.0000 C   0  0  0  0  0  0  0  0  0  0  0  0
    5.8154    0.7542    0.0000 C   0  0  0  0  0  0  0  0  0  0  0  0
    6.3177    1.4088    0.0000 C   0  0  0  0  0  0  0  0  0  0  0  0
   15.1715    2.6899    0.0000 C   0  0  0  0  0  0  0  0  0  0  0  0
   15.1416    1.0421    0.0000 C   0  0  0  0  0  0  0  0  0  0  0  0
   15.8756    2.2705    0.0000 C   0  0  0  0  0  0  0  0  0  0  0  0
   14.4525    2.2555    0.0000 C   0  0  0  0  0  0  0  0  0  0  0  0
   16.5946    2.7349    0.0000 N   0  0  0  0  0  0  0  0  0  0  0  0
   15.8456    3.9782    0.0000 C   0  0  0  0  0  0  0  0  0  0  0  0
   14.4525    1.4466    0.0000 C   0  0  0  0  0  0  0  0  0  0  0  0
   15.8456    4.8022    0.0000 C   0  0  0  0  0  0  0  0  0  0  0  0
   15.8606    1.4616    0.0000 C   0  0  0  0  0  0  0  0  0  0  0  0
   15.1715    3.4989    0.0000 C   0  0  0  0  0  0  0  0  0  0  0  0
   14.9768    0.2332    0.0000 C   0  0  0  0  0  0  0  0  0  0  0  0
   13.9431    0.2332    0.0000 N   0  0  0  0  0  0  0  0  0  0  0  0
   16.5946    3.5588    0.0000 C   0  0  0  0  0  0  0  0  0  0  0  0
   16.6396    5.2366    0.0000 N   0  0  0  0  0  0  0  0  0  0  0  0
   13.7334    1.0421    0.0000 C   0  0  0  0  0  0  0  0  0  0  0  0
   14.9768    5.2965    0.0000 O   0  0  0  0  0  0  0  0  0  0  0  0
   13.7334    2.6600    0.0000 C   0  0  0  0  0  0  0  0  0  0  0  0
   17.3287    2.3604    0.0000 C   0  0  0  0  0  0  0  0  0  0  0  0
   17.3886    4.8771    0.0000 C   0  0  0  0  0  0  0  0  0  0  0  0
   13.0294    2.2555    0.0000 C   0  0  0  0  0  0  0  0  0  0  0  0
   13.0294    1.4316    0.0000 C   0  0  0  0  0  0  0  0  0  0  0  0
   16.4898    1.8810    0.0000 H   0  0  0  0  0  0  0  0  0  0  0  0
   14.2278    3.1843    0.0000 H   0  0  0  0  0  0  0  0  0  0  0  0
   17.5370    4.0655    0.0000 C   0  0  0  0  0  0  0  0  0  0  0  0
   18.3546    3.9558    0.0000 N   0  0  0  0  0  0  0  0  0  0  0  0
   18.7116    4.6996    0.0000 C   0  0  0  0  0  0  0  0  0  0  0  0
   18.1146    5.2689    0.0000 O   0  0  0  0  0  0  0  0  0  0  0  0
   16.9676    3.4685    0.0000 O   0  0  0  0  0  0  0  0  0  0  0  0
   19.5342    4.7623    0.0000 C   0  0  0  0  0  0  0  0  0  0  0  0
   19.9998    4.0813    0.0000 N   0  0  0  0  0  0  0  0  0  0  0  0
   19.6428    3.3375    0.0000 C   0  0  0  0  0  0  0  0  0  0  0  0
   18.8202    3.2748    0.0000 C   0  0  0  0  0  0  0  0  0  0  0  0
   18.0233    3.0613    0.0000 H   0  0  0  0  0  0  0  0  0  0  0  0
   19.2327    2.5603    0.0000 C   0  0  0  0  0  0  0  0  0  0  0  0
   20.7914    4.3136    0.0000 C   0  0  0  0  0  0  0  0  0  0  0  0
   20.8150    5.1383    0.0000 C   0  0  0  0  0  0  0  0  0  0  0  0
   20.0381    5.4156    0.0000 C   0  0  0  0  0  0  0  0  0  0  0  0
   19.1241    5.4141    0.0000 O   0  0  0  0  0  0  0  0  0  0  0  0
   17.3886    5.7021    0.0000 C   0  0  0  0  0  0  0  0  0  0  0  0
   16.8052    6.2854    0.0000 C   0  0  0  0  0  0  0  0  0  0  0  0
   17.9720    6.2854    0.0000 C   0  0  0  0  0  0  0  0  0  0  0  0
   20.1085    2.6564    0.0000 O   0  0  0  0  0  0  0  0  0  0  0  0
   18.7305    1.9058    0.0000 C   0  0  0  0  0  0  0  0  0  0  0  0
   19.1217    4.0478    0.0000 H   0  0  0  0  0  0  0  0  0  0  0  0
   19.0462    1.1436    0.0000 C   0  0  0  0  0  0  0  0  0  0  0  0
   17.9336    1.6923    0.0000 C   0  0  0  0  0  0  0  0  0  0  0  0
    6.7742   -6.7681    0.0000 C   0  0  0  0  0  0  0  0  0  0  0  0
    6.7442   -8.4159    0.0000 C   0  0  0  0  0  0  0  0  0  0  0  0
    7.4783   -7.1875    0.0000 C   0  0  0  0  0  0  0  0  0  0  0  0
    6.0551   -7.2025    0.0000 C   0  0  0  0  0  0  0  0  0  0  0  0
    8.1973   -6.7231    0.0000 N   0  0  0  0  0  0  0  0  0  0  0  0
    7.4483   -5.4798    0.0000 C   0  0  0  0  0  0  0  0  0  0  0  0
    6.0551   -8.0114    0.0000 C   0  0  0  0  0  0  0  0  0  0  0  0
    7.4483   -4.6559    0.0000 C   0  0  0  0  0  0  0  0  0  0  0  0
    7.4633   -7.9965    0.0000 C   0  0  0  0  0  0  0  0  0  0  0  0
    6.7742   -5.9592    0.0000 C   0  0  0  0  0  0  0  0  0  0  0  0
    6.5795   -9.2248    0.0000 C   0  0  0  0  0  0  0  0  0  0  0  0
    5.5458   -9.2248    0.0000 N   0  0  0  0  0  0  0  0  0  0  0  0
    8.1973   -5.8992    0.0000 C   0  0  0  0  0  0  0  0  0  0  0  0
    8.2423   -4.2215    0.0000 N   0  0  0  0  0  0  0  0  0  0  0  0
    5.3361   -8.4159    0.0000 C   0  0  0  0  0  0  0  0  0  0  0  0
    6.5795   -4.1615    0.0000 O   0  0  0  0  0  0  0  0  0  0  0  0
    5.3361   -6.7980    0.0000 C   0  0  0  0  0  0  0  0  0  0  0  0
    8.9313   -7.0977    0.0000 C   0  0  0  0  0  0  0  0  0  0  0  0
    8.9913   -4.5810    0.0000 C   0  0  0  0  0  0  0  0  0  0  0  0
    4.6320   -7.2025    0.0000 C   0  0  0  0  0  0  0  0  0  0  0  0
    4.6320   -8.0264    0.0000 C   0  0  0  0  0  0  0  0  0  0  0  0
    8.0925   -7.5770    0.0000 H   0  0  0  0  0  0  0  0  0  0  0  0
    5.8304   -6.2737    0.0000 H   0  0  0  0  0  0  0  0  0  0  0  0
    9.1396   -5.3925    0.0000 C   0  0  0  0  0  0  0  0  0  0  0  0
    9.9573   -5.5022    0.0000 N   0  0  0  0  0  0  0  0  0  0  0  0
   10.3143   -4.7585    0.0000 C   0  0  0  0  0  0  0  0  0  0  0  0
    9.7173   -4.1891    0.0000 O   0  0  0  0  0  0  0  0  0  0  0  0
    8.5703   -5.9896    0.0000 O   0  0  0  0  0  0  0  0  0  0  0  0
   11.1369   -4.6957    0.0000 C   0  0  0  0  0  0  0  0  0  0  0  0
   11.6025   -5.3768    0.0000 N   0  0  0  0  0  0  0  0  0  0  0  0
   11.2455   -6.1205    0.0000 C   0  0  0  0  0  0  0  0  0  0  0  0
   10.4229   -6.1833    0.0000 C   0  0  0  0  0  0  0  0  0  0  0  0
    9.6260   -6.3968    0.0000 H   0  0  0  0  0  0  0  0  0  0  0  0
   10.8354   -6.8977    0.0000 C   0  0  0  0  0  0  0  0  0  0  0  0
   12.3941   -5.1444    0.0000 C   0  0  0  0  0  0  0  0  0  0  0  0
   12.4177   -4.3198    0.0000 C   0  0  0  0  0  0  0  0  0  0  0  0
   11.6407   -4.0425    0.0000 C   0  0  0  0  0  0  0  0  0  0  0  0
   10.7268   -4.0440    0.0000 O   0  0  0  0  0  0  0  0  0  0  0  0
    8.9913   -3.7560    0.0000 C   0  0  0  0  0  0  0  0  0  0  0  0
    8.4079   -3.1726    0.0000 C   0  0  0  0  0  0  0  0  0  0  0  0
    9.5746   -3.1726    0.0000 C   0  0  0  0  0  0  0  0  0  0  0  0
   11.7111   -6.8016    0.0000 O   0  0  0  0  0  0  0  0  0  0  0  0
   10.3332   -7.5522    0.0000 C   0  0  0  0  0  0  0  0  0  0  0  0
   10.7244   -5.4102    0.0000 H   0  0  0  0  0  0  0  0  0  0  0  0
   11.6323   -7.1113    0.0000 C   0  0  0  0  0  0  0  0  0  0  0  0
   10.6489   -8.3144    0.0000 C   0  0  0  0  0  0  0  0  0  0  0  0
   -5.4479   -3.1077    0.0000 S   0  0  0  0  0  0  0  0  0  0  0  0
   -5.0285   -2.3587    0.0000 O   0  0  0  0  0  0  0  0  0  0  0  0
   -5.8823   -2.3587    0.0000 O   0  0  0  0  0  0  0  0  0  0  0  0
   -4.7139   -3.5272    0.0000 O   0  0  0  0  0  0  0  0  0  0  0  0
   -6.1819   -3.5272    0.0000 C   0  0  0  0  0  0  0  0  0  0  0  0
   -6.0961   -5.8774    0.0000 S   0  0  0  0  0  0  0  0  0  0  0  0
   -5.6767   -5.1284    0.0000 O   0  0  0  0  0  0  0  0  0  0  0  0
   -6.5305   -5.1284    0.0000 O   0  0  0  0  0  0  0  0  0  0  0  0
   -5.3621   -6.2968    0.0000 O   0  0  0  0  0  0  0  0  0  0  0  0
   -6.8301   -6.2968    0.0000 C   0  0  0  0  0  0  0  0  0  0  0  0
  2  1  2  0
  3  1  2  0
  4  1  1  0
  5  1  1  0
  7 12  1  0
  8  6  1  0
  9  6  1  0
 10  8  1  0
 11 15  1  0
 12  9  2  0
 11 13  1  1
 14  8  1  0
 15  6  1  0
 16  7  2  0
 17 20  1  0
 18 11  1  0
 19 13  1  0
 20 12  1  0
 21 13  2  0
 22  9  1  0
 23 10  1  0
 24 19  1  6
 25 22  2  0
 26 20  2  0
  8 27  1  1
  6 28  1  6
 14  7  1  0
 10 18  1  0
 26 25  1  0
 16 17  1  0
 24 29  1  0
 24 32  1  0
 29 30  1  0
 31 32  1  0
 29 33  2  0
 37 30  1  0
 30 31  1  0
 31 34  1  0
 35 36  1  0
 36 37  1  0
 37 38  1  1
 37 39  1  0
 35 40  1  0
 34 35  1  0
 34 42  1  0
 40 41  1  0
 41 42  1  0
 31 43  1  6
 24 44  1  1
 44 45  1  0
 44 46  1  0
 36 47  2  0
 39 48  1  0
 39 49  1  0
 34 50  1  1
 52 51  2  0
 53 51  2  0
 54 51  1  0
 55 51  1  0
 57 62  1  0
 58 56  1  0
 59 56  1  0
 60 58  1  0
 61 65  1  0
 62 59  2  0
 61 63  1  1
 64 58  1  0
 65 56  1  0
 66 57  2  0
 67 70  1  0
 68 61  1  0
 69 63  1  0
 70 62  1  0
 71 63  2  0
 72 59  1  0
 73 60  1  0
 74 69  1  6
 75 72  2  0
 76 70  2  0
 58 77  1  1
 56 78  1  6
 64 57  1  0
 60 68  1  0
 76 75  1  0
 66 67  1  0
 74 79  1  0
 74 82  1  0
 79 80  1  0
 81 82  1  0
 79 83  2  0
 87 80  1  0
 80 81  1  0
 81 84  1  0
 85 86  1  0
 86 87  1  0
 87 88  1  1
 87 89  1  0
 85 90  1  0
 84 85  1  0
 84 92  1  0
 90 91  1  0
 91 92  1  0
 81 93  1  6
 74 94  1  1
 94 95  1  0
 94 96  1  0
 86 97  2  0
 89 98  1  0
 84 99  1  1
 98100  1  0
 98104  2  0
100101  2  0
101102  1  0
102103  2  0
103104  1  0
106111  1  0
107105  1  0
108105  1  0
109107  1  0
110114  1  0
111108  2  0
110112  1  1
113107  1  0
114105  1  0
115106  2  0
116119  1  0
117110  1  0
118112  1  0
119111  1  0
120112  2  0
121108  1  0
122109  1  0
123118  1  6
124121  2  0
125119  2  0
107126  1  1
105127  1  6
113106  1  0
109117  1  0
125124  1  0
115116  1  0
123128  1  0
123131  1  0
128129  1  0
130131  1  0
128132  2  0
136129  1  0
129130  1  0
130133  1  0
134135  1  0
135136  1  0
136137  1  1
136138  1  0
134139  1  0
133134  1  0
133141  1  0
139140  1  0
140141  1  0
130142  1  6
123143  1  1
143144  1  0
143145  1  0
135146  2  0
138147  1  0
133148  1  1
147149  1  0
147150  1  0
152157  1  0
153151  1  0
154151  1  0
155153  1  0
156160  1  0
157154  2  0
156158  1  1
159153  1  0
160151  1  0
161152  2  0
162165  1  0
163156  1  0
164158  1  0
165157  1  0
166158  2  0
167154  1  0
168155  1  0
169164  1  6
170167  2  0
171165  2  0
153172  1  1
151173  1  6
159152  1  0
155163  1  0
171170  1  0
161162  1  0
169174  1  0
169177  1  0
174175  1  0
176177  1  0
174178  2  0
182175  1  0
175176  1  0
176179  1  0
180181  1  0
181182  1  0
182183  1  1
182184  1  0
180185  1  0
179180  1  0
179187  1  0
185186  1  0
186187  1  0
176188  1  6
169189  1  1
189190  1  0
189191  1  0
181192  2  0
184193  1  0
179194  1  1
184195  1  0
193196  1  0
198197  2  0
199197  2  0
200197  1  0
201197  1  0
203202  2  0
204202  2  0
205202  1  0
206202  1  0
M  END
> <chembl_id>
CHEMBL2311030

> <chembl_pref_name>
ERGOLOID MESYLATES
