
     RDKit          2D

 76 79  0  0  0  0  0  0  0  0999 V2000
    6.2917   -8.1125    0.0000 C   0  0  0  0  0  0  0  0  0  0  0  0
    6.2917   -7.4042    0.0000 O   0  0  0  0  0  0  0  0  0  0  0  0
    6.9042   -8.4667    0.0000 O   0  0  0  0  0  0  0  0  0  0  0  0
    5.6792   -8.4667    0.0000 C   0  0  0  0  0  0  0  0  0  0  0  0
    3.6042   -3.9417    0.0000 N   0  0  0  0  0  0  0  0  0  0  0  0
    3.6042   -4.6542    0.0000 C   0  0  0  0  0  0  0  0  0  0  0  0
    2.9917   -5.0250    0.0000 C   0  0  0  0  0  0  0  0  0  0  0  0
    3.0042   -5.7292    0.0000 N   0  0  0  0  0  0  0  0  0  0  0  0
   -0.0875   -4.6667    0.0000 N   0  0  0  0  0  0  0  0  0  0  0  0
    0.4792   -2.8875    0.0000 N   0  0  0  0  0  0  0  0  0  0  0  0
   -0.7083   -5.0292    0.0000 C   0  0  0  0  0  0  0  0  0  0  0  0
    2.3750   -2.5292    0.0000 N   0  0  0  0  0  0  0  0  0  0  0  0
    2.9875   -3.5917    0.0000 C   0  0  0  0  0  0  0  0  0  0  0  0
    1.7500   -2.8917    0.0000 C   0  0  0  0  0  0  0  0  0  0  0  0
    0.4917   -3.5917    0.0000 C   0  0  0  0  0  0  0  0  0  0  0  0
    1.8000   -1.4917    0.0000 C   0  0  0  0  0  0  0  0  0  0  0  0
    2.3917   -6.1042    0.0000 C   0  0  0  0  0  0  0  0  0  0  0  0
   -0.7083   -5.7542    0.0000 C   0  0  0  0  0  0  0  0  0  0  0  0
    2.4000   -6.8125    0.0000 C   0  0  0  0  0  0  0  0  0  0  0  0
    1.1292   -2.5292    0.0000 C   0  0  0  0  0  0  0  0  0  0  0  0
   -1.2625   -6.1125    0.0000 N   0  0  0  0  0  0  0  0  0  0  0  0
   -0.0875   -3.9417    0.0000 C   0  0  0  0  0  0  0  0  0  0  0  0
   -1.9208   -5.8042    0.0000 C   0  0  0  0  0  0  0  0  0  0  0  0
    2.9542   -1.4750    0.0000 N   0  0  0  0  0  0  0  0  0  0  0  0
    1.7792   -7.1667    0.0000 N   0  0  0  0  0  0  0  0  0  0  0  0
    2.3792   -1.9042    0.0000 C   0  0  0  0  0  0  0  0  0  0  0  0
    2.9875   -2.8875    0.0000 C   0  0  0  0  0  0  0  0  0  0  0  0
    1.1292   -1.8167    0.0000 C   0  0  0  0  0  0  0  0  0  0  0  0
    2.0083   -0.8167    0.0000 C   0  0  0  0  0  0  0  0  0  0  0  0
    1.7750   -7.8875    0.0000 C   0  0  0  0  0  0  0  0  0  0  0  0
    0.4417   -5.7542    0.0000 S   0  0  0  0  0  0  0  0  0  0  0  0
    1.2167   -6.1042    0.0000 S   0  0  0  0  0  0  0  0  0  0  0  0
    2.7292   -0.8167    0.0000 C   0  0  0  0  0  0  0  0  0  0  0  0
   -2.5333   -6.1792    0.0000 C   0  0  0  0  0  0  0  0  0  0  0  0
    2.3667   -4.6750    0.0000 O   0  0  0  0  0  0  0  0  0  0  0  0
   -1.3333   -4.6875    0.0000 O   0  0  0  0  0  0  0  0  0  0  0  0
    2.3667   -3.9417    0.0000 O   0  0  0  0  0  0  0  0  0  0  0  0
    1.7500   -3.6000    0.0000 O   0  0  0  0  0  0  0  0  0  0  0  0
    1.1292   -3.9417    0.0000 O   0  0  0  0  0  0  0  0  0  0  0  0
    2.9875   -7.1417    0.0000 O   0  0  0  0  0  0  0  0  0  0  0  0
   -0.7083   -3.6000    0.0000 C   0  0  0  0  0  0  0  0  0  0  0  0
   -1.9208   -5.0917    0.0000 O   0  0  0  0  0  0  0  0  0  0  0  0
    1.7917   -5.7542    0.0000 C   0  0  0  0  0  0  0  0  0  0  0  0
   -0.1333   -6.0750    0.0000 C   0  0  0  0  0  0  0  0  0  0  0  0
    4.2292   -5.0042    0.0000 C   0  0  0  0  0  0  0  0  0  0  0  0
   -2.5250   -6.9000    0.0000 C   0  0  0  0  0  0  0  0  0  0  0  0
    2.4125   -8.2375    0.0000 C   0  0  0  0  0  0  0  0  0  0  0  0
   -3.1583   -5.8500    0.0000 N   0  0  0  0  0  0  0  0  0  0  0  0
   -0.7000   -2.8917    0.0000 C   0  0  0  0  0  0  0  0  0  0  0  0
   -1.9083   -7.2417    0.0000 C   0  0  0  0  0  0  0  0  0  0  0  0
    6.0792   -2.5250    0.0000 N   0  0  0  0  0  0  0  0  0  0  0  0
    4.2375   -5.7167    0.0000 O   0  0  0  0  0  0  0  0  0  0  0  0
    2.4167   -8.9542    0.0000 O   0  0  0  0  0  0  0  0  0  0  0  0
    1.1750   -8.2542    0.0000 C   0  0  0  0  0  0  0  0  0  0  0  0
    0.5500   -7.9042    0.0000 O   0  0  0  0  0  0  0  0  0  0  0  0
    1.6500   -0.1917    0.0000 C   0  0  0  0  0  0  0  0  0  0  0  0
    3.6042   -2.5250    0.0000 C   0  0  0  0  0  0  0  0  0  0  0  0
    3.0917   -0.1917    0.0000 C   0  0  0  0  0  0  0  0  0  0  0  0
    5.4625   -2.8792    0.0000 C   0  0  0  0  0  0  0  0  0  0  0  0
    4.8417   -4.6417    0.0000 C   0  0  0  0  0  0  0  0  0  0  0  0
    3.0292   -7.8667    0.0000 C   0  0  0  0  0  0  0  0  0  0  0  0
   -1.2875   -6.8917    0.0000 C   0  0  0  0  0  0  0  0  0  0  0  0
   -1.9083   -7.9542    0.0000 C   0  0  0  0  0  0  0  0  0  0  0  0
   -1.3250   -2.5167    0.0000 C   0  0  0  0  0  0  0  0  0  0  0  0
   -0.0708   -2.5542    0.0000 C   0  0  0  0  0  0  0  0  0  0  0  0
    4.2250   -2.8792    0.0000 C   0  0  0  0  0  0  0  0  0  0  0  0
    4.8417   -2.5250    0.0000 C   0  0  0  0  0  0  0  0  0  0  0  0
    2.0042    0.4333    0.0000 C   0  0  0  0  0  0  0  0  0  0  0  0
    2.7292    0.4333    0.0000 C   0  0  0  0  0  0  0  0  0  0  0  0
   -0.0583   -1.8292    0.0000 C   0  0  0  0  0  0  0  0  0  0  0  0
   -0.6958   -7.2417    0.0000 C   0  0  0  0  0  0  0  0  0  0  0  0
   -1.3083   -8.2917    0.0000 C   0  0  0  0  0  0  0  0  0  0  0  0
   -1.3208   -1.8042    0.0000 C   0  0  0  0  0  0  0  0  0  0  0  0
   -0.7000   -7.9542    0.0000 C   0  0  0  0  0  0  0  0  0  0  0  0
   -0.6708   -1.4667    0.0000 C   0  0  0  0  0  0  0  0  0  0  0  0
    4.1917   -4.3167    0.0000 H   0  0  0  0  0  0  0  0  0  0  0  0
  2  1  2  0
  3  1  1  0
  4  1  1  0
  6  5  1  0
  7  6  1  0
  8  7  1  0
  9 22  1  0
 10 20  1  0
 11 18  1  0
 12 27  1  0
 13  5  1  0
 14 12  1  0
 15 10  1  0
 16 28  1  0
 17  8  1  0
 18 44  1  0
 17 19  1  6
 20 14  1  0
 18 21  1  6
 22 15  1  0
 23 21  1  0
 24 26  1  0
 25 19  1  0
 26 16  2  0
 27 13  1  0
 20 28  1  6
 29 16  1  0
 30 25  1  0
 31 32  1  0
 32 43  1  0
 33 29  2  0
 34 23  1  0
 35  7  2  0
 36 11  2  0
 37 13  2  0
 38 14  2  0
 39 15  2  0
 40 19  2  0
 22 41  1  1
 42 23  2  0
 43 17  1  0
 44 31  1  0
 45  6  1  0
 34 46  1  1
 47 30  1  0
 48 34  1  0
 49 41  1  0
 50 46  1  0
 51 59  1  0
 45 52  1  1
 47 53  1  1
 30 54  1  1
 55 54  1  0
 56 29  1  0
 27 57  1  1
 58 33  1  0
 59 67  1  0
 60 45  1  0
 61 47  1  0
 62 50  2  0
 63 50  1  0
 64 49  2  0
 65 49  1  0
 66 57  1  0
 67 66  1  0
 68 56  2  0
 69 68  1  0
 70 65  2  0
 71 62  1  0
 72 63  2  0
 73 64  1  0
 74 72  1  0
 75 70  1  0
  6 76  1  6
 33 24  1  0
  9 11  1  0
 58 69  2  0
 73 75  2  0
 71 74  2  0
M  END
> <chembl_id>
CHEMBL1200480

> <chembl_pref_name>
OCTREOTIDE ACETATE
