
     RDKit          2D

 17 15  0  0  0  0  0  0  0  0999 V2000
    5.7455   -6.2464    0.0000 O   0  0  0  0  0  0  0  0  0  0  0  0
    5.3835   -4.3388    0.0000 C   0  0  0  0  0  0  0  0  0  0  0  0
    4.8976   -3.6732    0.0000 N   0  0  0  0  0  0  0  0  0  0  0  0
    4.9025   -5.0045    0.0000 S   0  0  0  0  0  0  0  0  0  0  0  0
    4.1202   -4.7567    0.0000 C   0  0  0  0  0  0  0  0  0  0  0  0
    4.1154   -3.9356    0.0000 C   0  0  0  0  0  0  0  0  0  0  0  0
    3.4011   -5.1745    0.0000 C   0  0  0  0  0  0  0  0  0  0  0  0
    6.2094   -4.3340    0.0000 N   0  0  0  0  0  0  0  0  0  0  0  0
    3.4011   -3.5178    0.0000 C   0  0  0  0  0  0  0  0  0  0  0  0
    2.6869   -4.7567    0.0000 C   0  0  0  0  0  0  0  0  0  0  0  0
    1.9727   -5.1696    0.0000 N   0  0  0  0  0  0  0  0  0  0  0  0
    2.6869   -3.9356    0.0000 C   0  0  0  0  0  0  0  0  0  0  0  0
    1.2584   -4.7567    0.0000 C   0  0  0  0  0  0  0  0  0  0  0  0
    0.5442   -5.1696    0.0000 C   0  0  0  0  0  0  0  0  0  0  0  0
   -0.1700   -4.7567    0.0000 C   0  0  0  0  0  0  0  0  0  0  0  0
    5.7479   -5.4661    0.0000 Cl  0  0  0  0  0  0  0  0  0  0  0  0
    4.3902   -6.0991    0.0000 Cl  0  0  0  0  0  0  0  0  0  0  0  0
  3  2  2  0
  4  2  1  0
  5  4  1  0
  6  3  1  0
  7  5  1  0
  8  2  1  0
  9  6  1  0
 10  7  1  0
 10 11  1  1
 12  9  1  0
 13 11  1  0
 14 13  1  0
 15 14  1  0
  5  6  2  0
 10 12  1  0
M  END
> <chembl_id>
CHEMBL3182733

> <chembl_pref_name>
PRAMIPEXOLE DIHYDROCHLORIDE
