
     RDKit          2D

 23 24  0  0  0  0  0  0  0  0999 V2000
    6.3042   -6.5000    0.0000 Cl  0  0  0  0  0  0  0  0  0  0  0  0
    4.0792   -5.7292    0.0000 C   0  0  0  0  0  0  0  0  0  0  0  0
    3.4667   -6.0917    0.0000 C   0  0  0  0  0  0  0  0  0  0  0  0
    4.0750   -5.0250    0.0000 C   0  0  0  0  0  0  0  0  0  0  0  0
    5.9125   -4.6625    0.0000 C   0  0  0  0  0  0  0  0  0  0  0  0
    6.5292   -5.0125    0.0000 C   0  0  0  0  0  0  0  0  0  0  0  0
    4.6875   -4.6667    0.0000 N   0  0  0  0  0  0  0  0  0  0  0  0
    3.4667   -6.8000    0.0000 C   0  0  0  0  0  0  0  0  0  0  0  0
    7.1417   -4.6542    0.0000 C   0  0  0  0  0  0  0  0  0  0  0  0
    5.3042   -5.0167    0.0000 C   0  0  0  0  0  0  0  0  0  0  0  0
    4.6917   -6.0792    0.0000 C   0  0  0  0  0  0  0  0  0  0  0  0
    4.7000   -6.7917    0.0000 C   0  0  0  0  0  0  0  0  0  0  0  0
    2.8542   -5.7375    0.0000 C   0  0  0  0  0  0  0  0  0  0  0  0
    4.0875   -7.1542    0.0000 C   0  0  0  0  0  0  0  0  0  0  0  0
    4.6792   -3.9542    0.0000 C   0  0  0  0  0  0  0  0  0  0  0  0
    2.8542   -7.1542    0.0000 C   0  0  0  0  0  0  0  0  0  0  0  0
    7.1292   -3.9500    0.0000 C   0  0  0  0  0  0  0  0  0  0  0  0
    7.7542   -5.0042    0.0000 C   0  0  0  0  0  0  0  0  0  0  0  0
    2.2417   -6.0917    0.0000 C   0  0  0  0  0  0  0  0  0  0  0  0
    2.2417   -6.8042    0.0000 C   0  0  0  0  0  0  0  0  0  0  0  0
    8.3667   -4.6500    0.0000 C   0  0  0  0  0  0  0  0  0  0  0  0
    7.7417   -3.5917    0.0000 C   0  0  0  0  0  0  0  0  0  0  0  0
    8.3625   -3.9417    0.0000 C   0  0  0  0  0  0  0  0  0  0  0  0
  3  2  1  0
  4  2  1  0
  5 10  1  0
  6  5  2  0
  7  4  1  0
  8  3  1  0
  9  6  1  0
 10  7  1  0
 11  2  2  0
 12 11  1  0
 13  3  2  0
 14 12  2  0
 15  7  1  0
 16  8  2  0
 17  9  1  0
 18  9  2  0
 19 13  1  0
 20 19  2  0
 21 18  1  0
 22 17  2  0
 23 22  1  0
 14  8  1  0
 16 20  1  0
 23 21  2  0
M  END
> <chembl_id>
CHEMBL1200493

> <chembl_pref_name>
NAFTIFINE HYDROCHLORIDE
