
     RDKit          2D

 45 46  0  0  0  0  0  0  0  0999 V2000
   11.5503  -12.1140    0.0000 S   0  0  0  0  0  0  0  0  0  0  0  0
   11.1270  -11.3931    0.0000 O   0  0  0  0  0  0  0  0  0  0  0  0
   12.2598  -11.6849    0.0000 O   0  0  0  0  0  0  0  0  0  0  0  0
   11.9509  -12.8177    0.0000 O   0  0  0  0  0  0  0  0  0  0  0  0
   10.8352  -12.5260    0.0000 C   0  0  0  0  0  0  0  0  0  0  0  0
    4.8118   -5.5842    0.0000 C   0  0  0  0  0  0  0  0  0  0  0  0
    4.1023   -6.0075    0.0000 N   0  0  0  0  0  0  0  0  0  0  0  0
    4.8118   -4.7603    0.0000 N   0  0  0  0  0  0  0  0  0  0  0  0
    3.3871   -4.7717    0.0000 N   0  0  0  0  0  0  0  0  0  0  0  0
    3.3871   -5.5842    0.0000 C   0  0  0  0  0  0  0  0  0  0  0  0
    4.1023   -4.3483    0.0000 C   0  0  0  0  0  0  0  0  0  0  0  0
    5.5327   -6.0075    0.0000 N   0  0  0  0  0  0  0  0  0  0  0  0
    6.9573   -6.8314    0.0000 N   0  0  0  0  0  0  0  0  0  0  0  0
    7.6611   -7.2433    0.0000 C   0  0  0  0  0  0  0  0  0  0  0  0
    6.2364   -5.5842    0.0000 C   0  0  0  0  0  0  0  0  0  0  0  0
    5.5327   -6.8314    0.0000 C   0  0  0  0  0  0  0  0  0  0  0  0
    7.6611   -8.0672    0.0000 C   0  0  0  0  0  0  0  0  0  0  0  0
    8.3820   -6.8314    0.0000 C   0  0  0  0  0  0  0  0  0  0  0  0
    6.2364   -7.2319    0.0000 C   0  0  0  0  0  0  0  0  0  0  0  0
    6.9573   -5.9961    0.0000 C   0  0  0  0  0  0  0  0  0  0  0  0
    2.6776   -6.0075    0.0000 N   0  0  0  0  0  0  0  0  0  0  0  0
    4.0909   -3.5245    0.0000 N   0  0  0  0  0  0  0  0  0  0  0  0
    9.0971   -7.2433    0.0000 C   0  0  0  0  0  0  0  0  0  0  0  0
    8.3820   -6.0075    0.0000 C   0  0  0  0  0  0  0  0  0  0  0  0
    6.9515   -8.4678    0.0000 C   0  0  0  0  0  0  0  0  0  0  0  0
    8.3820   -8.4678    0.0000 C   0  0  0  0  0  0  0  0  0  0  0  0
    1.2530   -6.0075    0.0000 C   0  0  0  0  0  0  0  0  0  0  0  0
    5.5269   -3.5245    0.0000 C   0  0  0  0  0  0  0  0  0  0  0  0
    0.5379   -5.5842    0.0000 C   0  0  0  0  0  0  0  0  0  0  0  0
    6.2364   -3.1125    0.0000 C   0  0  0  0  0  0  0  0  0  0  0  0
    7.6611   -9.7150    0.0000 C   0  0  0  0  0  0  0  0  0  0  0  0
    9.8066   -6.0075    0.0000 C   0  0  0  0  0  0  0  0  0  0  0  0
    8.3820   -9.2917    0.0000 C   0  0  0  0  0  0  0  0  0  0  0  0
    9.0857   -5.5842    0.0000 C   0  0  0  0  0  0  0  0  0  0  0  0
    6.9515   -9.2917    0.0000 C   0  0  0  0  0  0  0  0  0  0  0  0
    9.8066   -6.8372    0.0000 C   0  0  0  0  0  0  0  0  0  0  0  0
    7.6611  -10.5389    0.0000 F   0  0  0  0  0  0  0  0  0  0  0  0
   10.5103   -5.5842    0.0000 F   0  0  0  0  0  0  0  0  0  0  0  0
    1.9625   -5.5842    0.0000 C   0  0  0  0  0  0  0  0  0  0  0  0
    4.8118   -3.1125    0.0000 C   0  0  0  0  0  0  0  0  0  0  0  0
   12.3240   -9.3260    0.0000 S   0  0  0  0  0  0  0  0  0  0  0  0
   11.9006   -8.6051    0.0000 O   0  0  0  0  0  0  0  0  0  0  0  0
   13.0335   -8.8969    0.0000 O   0  0  0  0  0  0  0  0  0  0  0  0
   12.7245  -10.0297    0.0000 O   0  0  0  0  0  0  0  0  0  0  0  0
   11.6088   -9.7379    0.0000 C   0  0  0  0  0  0  0  0  0  0  0  0
  2  1  2  0
  3  1  2  0
  4  1  1  0
  5  1  1  0
  7  6  2  0
  8  6  1  0
  9 11  1  0
 10  7  1  0
 11  8  2  0
 12  6  1  0
 13 20  1  0
 14 13  1  0
 15 12  1  0
 16 12  1  0
 17 14  1  0
 18 14  1  0
 19 16  1  0
 20 15  1  0
 21 10  1  0
 22 11  1  0
 23 18  2  0
 24 18  1  0
 25 17  2  0
 26 17  1  0
 27 39  1  0
 28 40  1  0
 29 27  2  0
 30 28  2  0
 31 33  1  0
 32 34  1  0
 33 26  2  0
 34 24  2  0
 35 25  1  0
 36 23  1  0
 37 31  1  0
 38 32  1  0
 39 21  1  0
 40 22  1  0
  9 10  2  0
 19 13  1  0
 31 35  2  0
 32 36  2  0
 42 41  2  0
 43 41  2  0
 44 41  1  0
 45 41  1  0
M  END
> <chembl_id>
CHEMBL3181957

> <chembl_pref_name>
ALMITRINE MESYLATE
