
     RDKit          2D

 31 33  0  0  0  0  0  0  0  0999 V2000
    5.4917   -5.5625    0.0000 Cl  0  0  0  0  0  0  0  0  0  0  0  0
    1.9792   -5.0292    0.0000 N   0  0  0  0  0  0  0  0  0  0  0  0
    2.5917   -4.6792    0.0000 C   0  0  0  0  0  0  0  0  0  0  0  0
    1.9792   -3.5917    0.0000 S   0  0  0  0  0  0  0  0  0  0  0  0
    2.5917   -3.9792    0.0000 C   0  0  0  0  0  0  0  0  0  0  0  0
    1.9792   -5.7417    0.0000 C   0  0  0  0  0  0  0  0  0  0  0  0
    1.3625   -4.6792    0.0000 C   0  0  0  0  0  0  0  0  0  0  0  0
    1.3625   -3.9792    0.0000 C   0  0  0  0  0  0  0  0  0  0  0  0
    5.0375   -4.6792    0.0000 C   0  0  0  0  0  0  0  0  0  0  0  0
    3.2375   -5.0667    0.0000 C   0  0  0  0  0  0  0  0  0  0  0  0
    2.5917   -6.0875    0.0000 C   0  0  0  0  0  0  0  0  0  0  0  0
    3.2042   -7.1542    0.0000 N   0  0  0  0  0  0  0  0  0  0  0  0
    4.4167   -5.0292    0.0000 N   0  0  0  0  0  0  0  0  0  0  0  0
    3.8125   -4.6792    0.0000 C   0  0  0  0  0  0  0  0  0  0  0  0
    1.3625   -6.0875    0.0000 O   0  0  0  0  0  0  0  0  0  0  0  0
    5.0375   -3.9792    0.0000 O   0  0  0  0  0  0  0  0  0  0  0  0
    3.2042   -3.6250    0.0000 C   0  0  0  0  0  0  0  0  0  0  0  0
    2.5917   -6.8000    0.0000 C   0  0  0  0  0  0  0  0  0  0  0  0
    4.4167   -7.8542    0.0000 O   0  0  0  0  0  0  0  0  0  0  0  0
    5.6542   -5.0292    0.0000 O   0  0  0  0  0  0  0  0  0  0  0  0
    3.8125   -3.9792    0.0000 C   0  0  0  0  0  0  0  0  0  0  0  0
    0.7625   -5.0667    0.0000 C   0  0  0  0  0  0  0  0  0  0  0  0
    0.7542   -3.6250    0.0000 C   0  0  0  0  0  0  0  0  0  0  0  0
    3.8125   -6.8000    0.0000 C   0  0  0  0  0  0  0  0  0  0  0  0
    3.2042   -7.8542    0.0000 C   0  0  0  0  0  0  0  0  0  0  0  0
    4.4167   -7.1542    0.0000 C   0  0  0  0  0  0  0  0  0  0  0  0
    3.8125   -8.2125    0.0000 C   0  0  0  0  0  0  0  0  0  0  0  0
    6.2542   -4.6792    0.0000 C   0  0  0  0  0  0  0  0  0  0  0  0
    0.1417   -4.6500    0.0000 C   0  0  0  0  0  0  0  0  0  0  0  0
    0.1417   -3.9792    0.0000 C   0  0  0  0  0  0  0  0  0  0  0  0
    6.8750   -5.0292    0.0000 C   0  0  0  0  0  0  0  0  0  0  0  0
  3  2  1  0
  4  8  1  0
  5  3  1  0
  6  2  1  0
  7  2  1  0
  8  7  2  0
  9 13  1  0
 10  3  2  0
 11  6  1  0
 12 18  1  0
 13 14  1  0
 14 10  1  0
 15  6  2  0
 16  9  2  0
 17  5  2  0
 18 11  1  0
 19 26  1  0
 20  9  1  0
 21 14  2  0
 22  7  1  0
 23  8  1  0
 24 12  1  0
 25 12  1  0
 26 24  1  0
 27 25  1  0
 28 20  1  0
 29 22  2  0
 30 29  1  0
 31 28  1  0
  4  5  1  0
 30 23  2  0
 21 17  1  0
 19 27  1  0
M  END
> <chembl_id>
CHEMBL1200334

> <chembl_pref_name>
MORICIZINE HYDROCHLORIDE
