
     RDKit          2D

 22 24  0  0  0  0  0  0  0  0999 V2000
   -0.6958   -1.5792    0.0000 C   0  0  0  0  0  0  0  0  0  0  0  0
    0.0167   -0.6500    0.0000 C   0  0  0  0  0  0  0  0  0  0  0  0
    0.6667   -3.2542    0.0000 S   0  0  0  0  0  0  0  0  0  0  0  0
   -0.4083   -2.7417    0.0000 C   0  0  0  0  0  0  0  0  0  0  0  0
    1.2042   -0.6500    0.0000 C   0  0  0  0  0  0  0  0  0  0  0  0
    1.7167   -2.7292    0.0000 C   0  0  0  0  0  0  0  0  0  0  0  0
    1.9542   -1.5667    0.0000 C   0  0  0  0  0  0  0  0  0  0  0  0
   -1.8500   -1.2542    0.0000 C   0  0  0  0  0  0  0  0  0  0  0  0
   -1.2833   -3.5917    0.0000 C   0  0  0  0  0  0  0  0  0  0  0  0
   -0.5208    0.4000    0.0000 O   0  0  0  0  0  0  0  0  0  0  0  0
   -2.7208   -2.0792    0.0000 C   0  0  0  0  0  0  0  0  0  0  0  0
   -1.5708    2.5000    0.0000 N   0  0  0  0  0  0  0  0  0  0  0  0
   -2.4375   -3.2375    0.0000 C   0  0  0  0  0  0  0  0  0  0  0  0
   -3.8625   -1.7417    0.0000 Cl  0  0  0  0  0  0  0  0  0  0  0  0
   -1.7000    0.4500    0.0000 C   0  0  0  0  0  0  0  0  0  0  0  0
    2.6375   -3.5250    0.0000 C   0  0  0  0  0  0  0  0  0  0  0  0
    3.1167   -1.1917    0.0000 C   0  0  0  0  0  0  0  0  0  0  0  0
   -2.2333    1.5000    0.0000 C   0  0  0  0  0  0  0  0  0  0  0  0
   -2.0833    3.5958    0.0000 C   0  0  0  0  0  0  0  0  0  0  0  0
   -0.3958    2.4208    0.0000 C   0  0  0  0  0  0  0  0  0  0  0  0
    4.0125   -1.9875    0.0000 C   0  0  0  0  0  0  0  0  0  0  0  0
    3.7667   -3.1417    0.0000 C   0  0  0  0  0  0  0  0  0  0  0  0
  2  1  1  0
  3  4  1  0
  4  1  2  0
  5  2  2  0
  6  3  1  0
  7  5  1  0
  8  1  1  0
  9  4  1  0
 10  2  1  0
 11  8  2  0
 12 18  1  0
 13 11  1  0
 14 11  1  0
 15 10  1  0
 16  6  1  0
 17  7  1  0
 18 15  1  0
 19 12  1  0
 20 12  1  0
 21 17  2  0
 22 16  2  0
  9 13  2  0
  6  7  2  0
 22 21  1  0
M  END
> <chembl_id>
CHEMBL285802

> <chembl_pref_name>
ZOTEPINE
