
     RDKit          2D

 23 22  0  0  0  0  0  0  0  0999 V2000
   -1.8792    0.3417    0.0000 Na  0  0  0  0  0 15  0  0  0  0  0  0
    1.7167    0.3333    0.0000 C   0  0  0  0  0  0  0  0  0  0  0  0
    2.9500    0.3125    0.0000 C   0  0  0  0  0  0  0  0  0  0  0  0
    2.3333   -0.0250    0.0000 C   0  0  0  0  0  0  0  0  0  0  0  0
    1.7167    1.0417    0.0000 C   0  0  0  0  0  0  0  0  0  0  0  0
    2.9500    1.0167    0.0000 C   0  0  0  0  0  0  0  0  0  0  0  0
    1.0917   -0.0250    0.0000 C   0  0  0  0  0  0  0  0  0  0  0  0
    2.3542    1.3917    0.0000 C   0  0  0  0  0  0  0  0  0  0  0  0
    3.5583   -0.0458    0.0000 N   0  0  0  0  0  0  0  0  0  0  0  0
   -0.1458    0.0000    0.0000 C   0  0  0  0  0  0  0  0  0  0  0  0
    4.1875    0.3125    0.0000 C   0  0  0  0  0  0  0  0  0  0  0  0
    0.4875    0.3417    0.0000 C   0  0  0  0  0  0  0  0  0  0  0  0
   -0.7667    0.3542    0.0000 O   0  0  0  0  0  0  0  0  0  0  0  0
   -0.1458   -0.7125    0.0000 O   0  0  0  0  0  0  0  0  0  0  0  0
    4.1708    0.9708    0.0000 O   0  0  0  0  0  0  0  0  0  0  0  0
    2.3250   -0.7375    0.0000 I   0  0  0  0  0  0  0  0  0  0  0  0
    1.1125    1.4000    0.0000 I   0  0  0  0  0  0  0  0  0  0  0  0
    3.5792    1.3708    0.0000 I   0  0  0  0  0  0  0  0  0  0  0  0
    4.8042   -0.0500    0.0000 C   0  0  0  0  0  0  0  0  0  0  0  0
    0.4875    1.0500    0.0000 C   0  0  0  0  0  0  0  0  0  0  0  0
    5.4208    0.3042    0.0000 C   0  0  0  0  0  0  0  0  0  0  0  0
   -0.1417    1.4167    0.0000 C   0  0  0  0  0  0  0  0  0  0  0  0
    6.0417   -0.0750    0.0000 C   0  0  0  0  0  0  0  0  0  0  0  0
  3  4  1  0
  4  2  2  0
  5  2  1  0
  6  8  1  0
  7  2  1  0
  8  5  2  0
  9  3  1  0
 10 12  1  0
 11  9  1  0
 12  7  1  0
 13 10  1  0
 14 10  2  0
 15 11  2  0
 16  4  1  0
 17  5  1  0
 18  6  1  0
 19 11  1  0
 20 12  1  0
 21 19  1  0
 22 20  1  0
 23 21  1  0
  6  3  2  0
M  CHG  2   1   1  13  -1
M  END
> <chembl_id>
CHEMBL1200899

> <chembl_pref_name>
TYROPANOATE SODIUM
