
     RDKit          2D

 37 39  0  0  0  0  0  0  0  0999 V2000
    4.0955   -2.0920    0.0000 O   0  0  0  0  0  0  0  0  0  0  0  0
    9.2187    1.5275    0.0000 C   0  0  0  0  0  0  0  0  0  0  0  0
    9.9257    1.9497    0.0000 N   0  0  0  0  0  0  0  0  0  0  0  0
    0.6754   -0.2874    0.0000 C   0  0  0  0  0  0  0  0  0  0  0  0
    0.7026   -1.1157    0.0000 N   0  0  0  0  0  0  0  0  0  0  0  0
    1.4295   -1.5006    0.0000 C   0  0  0  0  0  0  0  0  0  0  0  0
    2.1242   -1.0705    0.0000 C   0  0  0  0  0  0  0  0  0  0  0  0
    2.0986   -0.2444    0.0000 N   0  0  0  0  0  0  0  0  0  0  0  0
    1.3764    0.1482    0.0000 C   0  0  0  0  0  0  0  0  0  0  0  0
    0.0043   -1.5482    0.0000 C   0  0  0  0  0  0  0  0  0  0  0  0
    2.8010    0.1882    0.0000 C   0  0  0  0  0  0  0  0  0  0  0  0
    3.5290   -0.2011    0.0000 C   0  0  0  0  0  0  0  0  0  0  0  0
    4.2314    0.2355    0.0000 C   0  0  0  0  0  0  0  0  0  0  0  0
    4.9553   -0.1580    0.0000 O   0  0  0  0  0  0  0  0  0  0  0  0
    5.6665    0.2642    0.0000 C   0  0  0  0  0  0  0  0  0  0  0  0
    6.3815   -0.1471    0.0000 C   0  0  0  0  0  0  0  0  0  0  0  0
    6.3680    1.5016    0.0000 C   0  0  0  0  0  0  0  0  0  0  0  0
    5.6595    1.0790    0.0000 C   0  0  0  0  0  0  0  0  0  0  0  0
    4.9397    1.4872    0.0000 O   0  0  0  0  0  0  0  0  0  0  0  0
    4.2276    1.0645    0.0000 C   0  0  0  0  0  0  0  0  0  0  0  0
    7.0895    1.0945    0.0000 C   0  0  0  0  0  0  0  0  0  0  0  0
    7.0932    0.2726    0.0000 C   0  0  0  0  0  0  0  0  0  0  0  0
    7.8091   -0.1310    0.0000 N   0  0  0  0  0  0  0  0  0  0  0  0
    8.5138    0.2816    0.0000 C   0  0  0  0  0  0  0  0  0  0  0  0
    8.5074    1.1095    0.0000 C   0  0  0  0  0  0  0  0  0  0  0  0
    7.7912    1.5102    0.0000 C   0  0  0  0  0  0  0  0  0  0  0  0
    8.4958    2.7527    0.0000 C   0  0  0  0  0  0  0  0  0  0  0  0
    9.2141    2.3428    0.0000 C   0  0  0  0  0  0  0  0  0  0  0  0
    9.9241    2.7631    0.0000 C   0  0  0  0  0  0  0  0  0  0  0  0
    9.9152    3.5877    0.0000 C   0  0  0  0  0  0  0  0  0  0  0  0
    9.1926    3.9985    0.0000 C   0  0  0  0  0  0  0  0  0  0  0  0
    8.4852    3.5712    0.0000 C   0  0  0  0  0  0  0  0  0  0  0  0
    7.7653    3.9754    0.0000 Cl  0  0  0  0  0  0  0  0  0  0  0  0
   10.6440    2.3589    0.0000 O   0  0  0  0  0  0  0  0  0  0  0  0
   11.3513    2.7771    0.0000 C   0  0  0  0  0  0  0  0  0  0  0  0
   10.6264    4.0162    0.0000 Cl  0  0  0  0  0  0  0  0  0  0  0  0
    7.7842    2.3352    0.0000 N   0  0  0  0  0  0  0  0  0  0  0  0
  2  3  3  0
  4  5  1  0
  4  9  1  0
  5  6  1  0
  6  7  1  0
  7  8  1  0
  8  9  1  0
  5 10  1  0
  8 11  1  0
 11 12  1  0
 12 13  1  0
 13 14  1  0
 14 15  1  0
 15 16  2  0
 16 22  1  0
 21 17  1  0
 17 18  2  0
 18 15  1  0
 18 19  1  0
 19 20  1  0
 21 22  1  0
 22 23  2  0
 23 24  1  0
 24 25  2  0
 25 26  1  0
 26 21  2  0
 25  2  1  0
 27 28  2  0
 28 29  1  0
 29 30  2  0
 30 31  1  0
 31 32  2  0
 32 27  1  0
 32 33  1  0
 29 34  1  0
 34 35  1  0
 30 36  1  0
 26 37  1  0
 37 27  1  0
M  END
> <chembl_id>
CHEMBL2095206

> <chembl_pref_name>
BOSUTINIB MONOHYDRATE
