
     RDKit          2D

 25 27  0  0  1  0  0  0  0  0999 V2000
    1.2750  -18.8125    0.0000 C   0  0  0  0  0  0  0  0  0  0  0  0
    0.6667  -18.4625    0.0000 C   0  0  0  0  0  0  0  0  0  0  0  0
    1.2708  -19.5208    0.0000 C   0  0  0  0  0  0  0  0  0  0  0  0
    0.6583  -19.8750    0.0000 O   0  0  0  0  0  0  0  0  0  0  0  0
    0.0500  -19.5167    0.0000 C   0  0  0  0  0  0  0  0  0  0  0  0
    0.0542  -18.8083    0.0000 C   0  0  0  0  0  0  0  0  0  0  0  0
    1.8833  -18.4542    0.0000 C   0  0  0  0  0  0  0  0  0  0  0  0
    0.6750  -17.7625    0.0000 C   0  0  0  0  0  0  0  0  0  0  0  0
   -0.5542  -18.4542    0.0000 C   0  0  0  0  0  0  0  0  0  0  0  0
    0.0708  -17.4042    0.0000 C   0  0  0  0  0  0  0  0  0  0  0  0
    1.8833  -19.8750    0.0000 C   0  0  0  0  0  0  0  0  0  0  0  0
    2.4958  -18.8083    0.0000 C   0  0  0  0  0  0  0  0  0  0  0  0
    2.4958  -19.5208    0.0000 C   0  0  0  0  0  0  0  0  0  0  0  0
   -0.5417  -17.7500    0.0000 C   0  0  0  0  0  0  0  0  0  0  0  0
    1.8792  -17.7458    0.0000 O   0  0  0  0  0  0  0  0  0  0  0  0
   -0.6583  -19.5125    0.0000 C   0  0  0  0  0  0  0  0  0  0  0  0
   -0.3083  -20.1292    0.0000 C   0  0  0  0  0  0  0  0  0  0  0  0
    0.0792  -16.6958    0.0000 C   0  0  0  0  0  0  0  0  0  0  0  0
    3.1125  -19.8750    0.0000 C   0  0  0  0  0  0  0  0  0  0  0  0
    3.7250  -19.5167    0.0000 C   0  0  0  0  0  0  0  0  0  0  0  0
    4.9500  -19.5125    0.0000 C   0  0  0  0  0  0  0  0  0  0  0  0
    4.3375  -19.8708    0.0000 C   0  0  0  0  0  0  0  0  0  0  0  0
    5.5667  -19.8667    0.0000 C   0  0  0  0  0  0  0  0  0  0  0  0
   -0.5625  -19.1542    0.0000 H   0  0  0  0  0  0  0  0  0  0  0  0
    1.2792  -18.1042    0.0000 H   0  0  0  0  0  0  0  0  0  0  0  0
  2  1  1  0
  3  1  2  0
  4  3  1  0
  5  4  1  0
  6  2  1  0
  7  1  1  0
  8  2  1  0
  9  6  1  0
 10  8  2  0
 11  3  1  0
 12  7  2  0
 13 11  2  0
 14  9  1  0
 15  7  1  0
 16  5  1  0
 17  5  1  0
 18 10  1  0
 19 13  1  0
 20 19  1  0
 21 22  1  0
 22 20  1  0
 23 21  1  0
  6 24  1  1
  2 25  1  6
  5  6  1  0
 12 13  1  0
 14 10  1  0
M  END
> <chembl_id>
CHEMBL465

> <chembl_pref_name>
DRONABINOL
