
     RDKit          2D

 18 20  0  0  0  0  0  0  0  0999 V2000
    5.0667   -5.0667    0.0000 N   0  0  0  0  0  0  0  0  0  0  0  0
    5.0667   -5.7750    0.0000 C   0  0  0  0  0  0  0  0  0  0  0  0
    4.4292   -4.7625    0.0000 C   0  0  0  0  0  0  0  0  0  0  0  0
    5.7042   -4.7625    0.0000 C   0  0  0  0  0  0  0  0  0  0  0  0
    5.4167   -3.5167    0.0000 C   0  0  0  0  0  0  0  0  0  0  0  0
    4.7167   -3.5167    0.0000 C   0  0  0  0  0  0  0  0  0  0  0  0
    5.8667   -4.0667    0.0000 C   0  0  0  0  0  0  0  0  0  0  0  0
    4.2792   -4.0667    0.0000 C   0  0  0  0  0  0  0  0  0  0  0  0
    5.6875   -6.1375    0.0000 O   0  0  0  0  0  0  0  0  0  0  0  0
    4.4542   -6.1375    0.0000 N   0  0  0  0  0  0  0  0  0  0  0  0
    6.2292   -5.2417    0.0000 C   0  0  0  0  0  0  0  0  0  0  0  0
    3.9125   -5.2417    0.0000 C   0  0  0  0  0  0  0  0  0  0  0  0
    3.5917   -3.8625    0.0000 C   0  0  0  0  0  0  0  0  0  0  0  0
    6.5417   -3.8625    0.0000 C   0  0  0  0  0  0  0  0  0  0  0  0
    6.9125   -5.0292    0.0000 C   0  0  0  0  0  0  0  0  0  0  0  0
    3.2292   -5.0292    0.0000 C   0  0  0  0  0  0  0  0  0  0  0  0
    7.0750   -4.3417    0.0000 C   0  0  0  0  0  0  0  0  0  0  0  0
    3.0667   -4.3417    0.0000 C   0  0  0  0  0  0  0  0  0  0  0  0
  2  1  1  0
  3  1  1  0
  4  1  1  0
  5  7  1  0
  6  8  1  0
  7  4  1  0
  8  3  2  0
  9  2  2  0
 10  2  1  0
 11  4  2  0
 12  3  1  0
 13  8  1  0
 14  7  2  0
 15 11  1  0
 16 12  2  0
 17 15  2  0
 18 16  1  0
  6  5  2  0
 17 14  1  0
 18 13  2  0
M  END
> <chembl_id>
CHEMBL108

> <chembl_pref_name>
CARBAMAZEPINE
