
     RDKit          2D

 35 38  0  0  0  0  0  0  0  0999 V2000
    2.9542   -1.5250    0.0000 C   0  0  0  0  0  0  0  0  0  0  0  0
    3.3042   -0.9042    0.0000 N   0  0  0  0  0  0  0  0  0  0  0  0
    3.3042   -2.1375    0.0000 N   0  0  0  0  0  0  0  0  0  0  0  0
    4.3667   -1.5250    0.0000 N   0  0  0  0  0  0  0  0  0  0  0  0
    4.0167   -0.9042    0.0000 C   0  0  0  0  0  0  0  0  0  0  0  0
    4.0167   -2.1375    0.0000 C   0  0  0  0  0  0  0  0  0  0  0  0
    2.2417   -1.5250    0.0000 N   0  0  0  0  0  0  0  0  0  0  0  0
    0.8250   -1.5250    0.0000 N   0  0  0  0  0  0  0  0  0  0  0  0
    0.1167   -1.5250    0.0000 C   0  0  0  0  0  0  0  0  0  0  0  0
    1.8917   -0.9125    0.0000 C   0  0  0  0  0  0  0  0  0  0  0  0
    1.8917   -2.1417    0.0000 C   0  0  0  0  0  0  0  0  0  0  0  0
   -0.2333   -2.1417    0.0000 C   0  0  0  0  0  0  0  0  0  0  0  0
   -0.2333   -0.9125    0.0000 C   0  0  0  0  0  0  0  0  0  0  0  0
    1.1792   -2.1417    0.0000 C   0  0  0  0  0  0  0  0  0  0  0  0
    1.1792   -0.9125    0.0000 C   0  0  0  0  0  0  0  0  0  0  0  0
    4.3667   -2.7500    0.0000 N   0  0  0  0  0  0  0  0  0  0  0  0
    4.3667   -0.3000    0.0000 N   0  0  0  0  0  0  0  0  0  0  0  0
    0.1167   -0.3000    0.0000 C   0  0  0  0  0  0  0  0  0  0  0  0
   -0.9458   -0.9125    0.0000 C   0  0  0  0  0  0  0  0  0  0  0  0
   -0.9458   -2.1375    0.0000 C   0  0  0  0  0  0  0  0  0  0  0  0
    0.1167   -2.7500    0.0000 C   0  0  0  0  0  0  0  0  0  0  0  0
    5.4292    0.3208    0.0000 C   0  0  0  0  0  0  0  0  0  0  0  0
    5.4250   -3.3667    0.0000 C   0  0  0  0  0  0  0  0  0  0  0  0
    6.1417    0.3208    0.0000 C   0  0  0  0  0  0  0  0  0  0  0  0
    6.1292   -3.3750    0.0000 C   0  0  0  0  0  0  0  0  0  0  0  0
   -0.9458    0.3208    0.0000 C   0  0  0  0  0  0  0  0  0  0  0  0
   -0.9458   -3.3667    0.0000 C   0  0  0  0  0  0  0  0  0  0  0  0
   -1.3000   -0.3000    0.0000 C   0  0  0  0  0  0  0  0  0  0  0  0
   -1.3000   -2.7500    0.0000 C   0  0  0  0  0  0  0  0  0  0  0  0
   -0.2333    0.3208    0.0000 C   0  0  0  0  0  0  0  0  0  0  0  0
   -0.2333   -3.3667    0.0000 C   0  0  0  0  0  0  0  0  0  0  0  0
   -1.3000   -3.9792    0.0000 F   0  0  0  0  0  0  0  0  0  0  0  0
   -1.3000    0.9333    0.0000 F   0  0  0  0  0  0  0  0  0  0  0  0
    5.0750   -2.7500    0.0000 C   0  0  0  0  0  0  0  0  0  0  0  0
    5.0750   -0.3000    0.0000 C   0  0  0  0  0  0  0  0  0  0  0  0
  2  1  2  0
  3  1  1  0
  4  6  1  0
  5  2  1  0
  6  3  2  0
  7  1  1  0
  8 15  1  0
  9  8  1  0
 10  7  1  0
 11  7  1  0
 12  9  1  0
 13  9  1  0
 14 11  1  0
 15 10  1  0
 16  6  1  0
 17  5  1  0
 18 13  2  0
 19 13  1  0
 20 12  2  0
 21 12  1  0
 22 35  1  0
 23 34  1  0
 24 22  2  0
 25 23  2  0
 26 28  1  0
 27 31  1  0
 28 19  2  0
 29 20  1  0
 30 18  1  0
 31 21  2  0
 32 27  1  0
 33 26  1  0
 34 16  1  0
 35 17  1  0
  5  4  2  0
 14  8  1  0
 27 29  2  0
 26 30  2  0
M  END
> <chembl_id>
CHEMBL1183717

> <chembl_pref_name>
ALMITRINE
