
     RDKit          2D

 11 11  0  0  0  0  0  0  0  0999 V2000
    6.2292   -5.8667    0.0000 C   0  0  0  0  0  0  0  0  0  0  0  0
    6.2417   -6.5792    0.0000 C   0  0  0  0  0  0  0  0  0  0  0  0
    5.6167   -5.5292    0.0000 C   0  0  0  0  0  0  0  0  0  0  0  0
    5.6292   -6.9417    0.0000 C   0  0  0  0  0  0  0  0  0  0  0  0
    5.0125   -5.8875    0.0000 C   0  0  0  0  0  0  0  0  0  0  0  0
    6.8500   -5.5125    0.0000 O   0  0  0  0  0  0  0  0  0  0  0  0
    5.0125   -6.5917    0.0000 C   0  0  0  0  0  0  0  0  0  0  0  0
    6.8667   -6.9292    0.0000 O   0  0  0  0  0  0  0  0  0  0  0  0
    3.1625   -5.5500    0.0000 N   0  0  0  0  0  0  0  0  0  0  0  0
    3.7792   -5.9000    0.0000 C   0  0  0  0  0  0  0  0  0  0  0  0
    4.3875   -5.5292    0.0000 C   0  0  0  0  0  0  0  0  0  0  0  0
  2  1  1  0
  3  1  2  0
  4  2  2  0
  5  3  1  0
  6  1  1  0
  7  5  2  0
  8  2  1  0
  9 10  1  0
 10 11  1  0
 11  5  1  0
  7  4  1  0
M  END
> <chembl_id>
CHEMBL59

> <chembl_pref_name>
DOPAMINE
