
     RDKit          2D

 15 15  0  0  0  0  0  0  0  0999 V2000
   -1.3958   -2.2000    0.0000 N   0  0  0  0  0  0  0  0  0  0  0  0
   -2.6500   -0.0250    0.0000 N   0  0  0  0  0  0  0  0  0  0  0  0
   -0.1458   -0.0417    0.0000 C   0  0  0  0  0  0  0  0  0  0  0  0
   -0.1458   -1.4917    0.0000 C   0  0  0  0  0  0  0  0  0  0  0  0
   -1.3958    0.6875    0.0000 C   0  0  0  0  0  0  0  0  0  0  0  0
   -2.6500   -1.4375    0.0000 C   0  0  0  0  0  0  0  0  0  0  0  0
   -1.3958    2.1250    0.0000 O   0  0  0  0  0  0  0  0  0  0  0  0
    1.1125   -2.2167    0.0000 O   0  0  0  0  0  0  0  0  0  0  0  0
   -3.9625   -2.1667    0.0000 O   0  0  0  0  0  0  0  0  0  0  0  0
    1.3167   -0.0500    0.0000 C   0  0  0  0  0  0  0  0  0  0  0  0
    0.4917    1.2833    0.0000 C   0  0  0  0  0  0  0  0  0  0  0  0
    1.8375    1.2833    0.0000 C   0  0  0  0  0  0  0  0  0  0  0  0
    2.0667   -0.9500    0.0000 C   0  0  0  0  0  0  0  0  0  0  0  0
    2.5750    2.4875    0.0000 C   0  0  0  0  0  0  0  0  0  0  0  0
    4.1375    2.4458    0.0000 C   0  0  0  0  0  0  0  0  0  0  0  0
  2  6  1  0
  3  4  1  0
  4  1  1  0
  5  2  1  0
  6  1  1  0
  7  5  2  0
  8  4  2  0
  9  6  2  0
 10  3  1  0
 11  3  1  0
 12 11  1  0
 13 10  1  0
 14 12  1  0
 15 14  1  0
  3  5  1  0
M  END
> <chembl_id>
CHEMBL404422

> <chembl_pref_name>
BUTETHAL
