
     RDKit          2D

 12  9  0  0  0  0  0  0  0  0999 V2000
   -0.6751   -1.2623    0.0000 Na  0  0  0  0  0 15  0  0  0  0  0  0
    0.9767   -0.9836    0.0000 C   0  0  0  0  0  0  0  0  0  0  0  0
    0.2472   -1.3906    0.0000 O   0  0  0  0  0  0  0  0  0  0  0  0
    1.6795   -1.3858    0.0000 C   0  0  0  0  0  0  0  0  0  0  0  0
    2.4003   -0.9844    0.0000 C   0  0  0  0  0  0  0  0  0  0  0  0
    3.0901   -1.3906    0.0000 O   0  0  0  0  0  0  0  0  0  0  0  0
    3.8087   -0.9734    0.0000 P   0  0  0  0  0  0  0  0  0  0  0  0
    3.9478   -1.7922    0.0000 O   0  0  0  0  0  0  0  0  0  0  0  0
    4.6624   -1.3868    0.0000 O   0  0  0  0  0  0  0  0  0  0  0  0
    3.8010   -0.1545    0.0000 O   0  0  0  0  0  0  0  0  0  0  0  0
    1.6795   -2.2078    0.0000 O   0  0  0  0  0  0  0  0  0  0  0  0
    1.2329   -2.9062    0.0000 Na  0  0  0  0  0 15  0  0  0  0  0  0
  2  3  1  0
  2  4  1  0
  4  5  1  0
  5  6  1  0
  7  8  1  0
  7  9  1  0
  7  6  1  0
 10  7  2  0
  4 11  1  0
M  CHG  4   1   1   3  -1  11  -1  12   1
M  END
> <chembl_id>
CHEMBL3040581

> <chembl_pref_name>
SODIUM GLYCEROPHOSPHATE
