
     RDKit          2D

 20 21  0  0  0  0  0  0  0  0999 V2000
    4.7667   -5.0167    0.0000 C   0  0  0  0  0  0  0  0  0  0  0  0
    5.3750   -4.6667    0.0000 C   0  0  0  0  0  0  0  0  0  0  0  0
    4.1542   -4.6500    0.0000 C   0  0  0  0  0  0  0  0  0  0  0  0
    5.9917   -5.0292    0.0000 C   0  0  0  0  0  0  0  0  0  0  0  0
    4.7542   -5.7167    0.0000 C   0  0  0  0  0  0  0  0  0  0  0  0
    5.3875   -3.9625    0.0000 C   0  0  0  0  0  0  0  0  0  0  0  0
    3.5375   -5.0042    0.0000 C   0  0  0  0  0  0  0  0  0  0  0  0
    4.1542   -3.9500    0.0000 C   0  0  0  0  0  0  0  0  0  0  0  0
    5.9875   -5.7292    0.0000 C   0  0  0  0  0  0  0  0  0  0  0  0
    6.6042   -4.6792    0.0000 C   0  0  0  0  0  0  0  0  0  0  0  0
    2.9250   -3.9292    0.0000 C   0  0  0  0  0  0  0  0  0  0  0  0
    7.2167   -5.7542    0.0000 C   0  0  0  0  0  0  0  0  0  0  0  0
    6.6042   -6.1000    0.0000 C   0  0  0  0  0  0  0  0  0  0  0  0
    7.2292   -5.0417    0.0000 C   0  0  0  0  0  0  0  0  0  0  0  0
    2.9250   -4.6375    0.0000 C   0  0  0  0  0  0  0  0  0  0  0  0
    3.5375   -3.5792    0.0000 C   0  0  0  0  0  0  0  0  0  0  0  0
    2.3042   -3.5750    0.0000 O   0  0  0  0  0  0  0  0  0  0  0  0
    7.8417   -6.1042    0.0000 O   0  0  0  0  0  0  0  0  0  0  0  0
    4.1417   -6.0750    0.0000 C   0  0  0  0  0  0  0  0  0  0  0  0
    6.0042   -3.6042    0.0000 C   0  0  0  0  0  0  0  0  0  0  0  0
  2  1  1  0
  3  1  1  0
  4  2  1  0
  5  1  2  0
  6  2  2  0
  7  3  2  0
  8  3  1  0
  9  4  2  0
 10  4  1  0
 11 16  1  0
 12 14  1  0
 13  9  1  0
 14 10  2  0
 15  7  1  0
 16  8  2  0
 17 11  1  0
 18 12  1  0
 19  5  1  0
 20  6  1  0
 11 15  2  0
 12 13  2  0
M  END
> <chembl_id>
CHEMBL1018

> <chembl_pref_name>
DIENESTROL
