
     RDKit          2D

  4  3  0  0  0  0  0  0  0  0999 V2000
    0.2250   -0.1167    0.0000 B   0  0  0  0  0  0  0  0  0  0  0  0
    0.6375    1.2708    0.0000 O   0  0  0  0  0  0  0  0  0  0  0  0
   -1.1333   -0.4542    0.0000 O   0  0  0  0  0  0  0  0  0  0  0  0
    1.2417   -1.1375    0.0000 O   0  0  0  0  0  0  0  0  0  0  0  0
  2  1  1  0
  3  1  1  0
  4  1  1  0
M  END
> <chembl_id>
CHEMBL42403

> <chembl_pref_name>
BORIC ACID
