
     RDKit          2D

 16 16  0  0  0  0  0  0  0  0999 V2000
    1.6667   -1.0542    0.0000 C   0  0  0  0  0  0  0  0  0  0  0  0
    2.2792   -1.4042    0.0000 C   0  0  0  0  0  0  0  0  0  0  0  0
    1.0542   -1.4125    0.0000 O   0  0  0  0  0  0  0  0  0  0  0  0
    2.2875   -2.1167    0.0000 O   0  0  0  0  0  0  0  0  0  0  0  0
    0.4417   -1.0542    0.0000 C   0  0  0  0  0  0  0  0  0  0  0  0
   -0.7833   -0.3500    0.0000 C   0  0  0  0  0  0  0  0  0  0  0  0
    2.8917   -1.0500    0.0000 O   0  0  0  0  0  0  0  0  0  0  0  0
   -1.3958    0.0083    0.0000 Cl  0  0  0  0  0  0  0  0  0  0  0  0
   -0.1708   -1.4125    0.0000 C   0  0  0  0  0  0  0  0  0  0  0  0
    0.4417   -0.3417    0.0000 C   0  0  0  0  0  0  0  0  0  0  0  0
   -0.7833   -1.0542    0.0000 C   0  0  0  0  0  0  0  0  0  0  0  0
   -0.1708    0.0083    0.0000 C   0  0  0  0  0  0  0  0  0  0  0  0
    2.0167   -0.4375    0.0000 C   0  0  0  0  0  0  0  0  0  0  0  0
    1.3125   -0.4375    0.0000 C   0  0  0  0  0  0  0  0  0  0  0  0
    3.5125   -1.4042    0.0000 C   0  0  0  0  0  0  0  0  0  0  0  0
    4.1250   -1.0417    0.0000 C   0  0  0  0  0  0  0  0  0  0  0  0
  2  1  1  0
  3  1  1  0
  4  2  2  0
  5  3  1  0
  6 12  1  0
  7  2  1  0
  8  6  1  0
  9  5  2  0
 10  5  1  0
 11  9  1  0
 12 10  2  0
 13  1  1  0
 14  1  1  0
 15  7  1  0
 16 15  1  0
  6 11  2  0
M  END
> <chembl_id>
CHEMBL565

> <chembl_pref_name>
CLOFIBRATE
