
     RDKit          2D

  5  4  0  0  0  0  0  0  0  0999 V2000
    5.5581   -4.8002    0.0000 As  0  0  0  0  0  3  0  0  0  0  0  0
    6.2708   -5.2159    0.0000 As  0  0  0  0  0  4  0  0  0  0  0  0
    4.8440   -5.2083    0.0000 O   0  0  0  0  0  0  0  0  0  0  0  0
    6.9892   -4.8054    0.0000 O   0  0  0  0  0  0  0  0  0  0  0  0
    6.2671   -6.0409    0.0000 O   0  0  0  0  0  0  0  0  0  0  0  0
  3  1  2  0
  4  2  2  0
  1  2  1  0
  2  5  1  0
M  CHG  2   2   1   5  -1
M  END
> <chembl_id>
CHEMBL5483015

> <chembl_pref_name>
ARSENIC TRIOXIDE
