
     RDKit          2D

 20 21  0  0  0  0  0  0  0  0999 V2000
   -0.4250   -4.0000    0.0000 N   0  0  0  0  0  0  0  0  0  0  0  0
    0.1792   -4.3542    0.0000 C   0  0  0  0  0  0  0  0  0  0  0  0
    0.8042   -4.0042    0.0000 C   0  0  0  0  0  0  0  0  0  0  0  0
    1.4042   -4.3667    0.0000 C   0  0  0  0  0  0  0  0  0  0  0  0
    0.1792   -5.0667    0.0000 C   0  0  0  0  0  0  0  0  0  0  0  0
    2.0292   -4.0042    0.0000 N   0  0  0  0  0  0  0  0  0  0  0  0
    1.4042   -5.0750    0.0000 C   0  0  0  0  0  0  0  0  0  0  0  0
    0.7917   -5.4167    0.0000 C   0  0  0  0  0  0  0  0  0  0  0  0
   -1.0333   -4.3542    0.0000 O   0  0  0  0  0  0  0  0  0  0  0  0
   -0.4208   -3.2917    0.0000 O   0  0  0  0  0  0  0  0  0  0  0  0
    2.0167   -5.4375    0.0000 C   0  0  0  0  0  0  0  0  0  0  0  0
    3.8500   -4.4042    0.0000 N   0  0  0  0  0  0  0  0  0  0  0  0
    2.6375   -4.3667    0.0000 C   0  0  0  0  0  0  0  0  0  0  0  0
    3.2667   -4.0250    0.0000 C   0  0  0  0  0  0  0  0  0  0  0  0
    2.6375   -5.0792    0.0000 C   0  0  0  0  0  0  0  0  0  0  0  0
   -0.4250   -5.4292    0.0000 C   0  0  0  0  0  0  0  0  0  0  0  0
   -1.0458   -5.0792    0.0000 O   0  0  0  0  0  0  0  0  0  0  0  0
    4.4625   -4.0542    0.0000 C   0  0  0  0  0  0  0  0  0  0  0  0
    5.0667   -4.4167    0.0000 C   0  0  0  0  0  0  0  0  0  0  0  0
    4.4667   -3.3542    0.0000 C   0  0  0  0  0  0  0  0  0  0  0  0
  2  1  1  0
  3  2  2  0
  4  3  1  0
  5  2  1  0
  6  4  1  0
  7  8  1  0
  8  5  2  0
  9  1  1  0
 10  1  2  0
 11  7  1  0
 12 14  1  0
 13  6  1  0
 14 13  1  0
 15 11  1  0
 16  5  1  0
 17 16  1  0
 18 12  1  0
 19 18  1  0
 20 18  1  0
  7  4  2  0
 15 13  1  0
M  CHG  2   1   1   9  -1
M  END
> <chembl_id>
CHEMBL847

> <chembl_pref_name>
OXAMNIQUINE
