
     RDKit          2D

  3  0  0  0  0  0  0  0  0  0999 V2000
   -0.1458   -1.1542    0.0000 Ca  0  0  0  0  0 15  0  0  0  0  0  0
    1.2042   -1.1542    0.0000 Cl  0  0  0  0  0  0  0  0  0  0  0  0
   -1.2833   -1.1542    0.0000 Cl  0  0  0  0  0  0  0  0  0  0  0  0
M  CHG  3   1   2   2  -1   3  -1
M  END
> <chembl_id>
CHEMBL1200668

> <chembl_pref_name>
CALCIUM CHLORIDE
