
     RDKit          2D

 24 25  0  0  0  0  0  0  0  0999 V2000
    3.9142   -5.1931    0.0000 C   0  0  0  0  0  0  0  0  0  0  0  0
    1.0512   -6.0311    0.0000 C   0  0  0  0  0  0  0  0  0  0  0  0
    1.7634   -6.4429    0.0000 C   0  0  0  0  0  0  0  0  0  0  0  0
    1.0512   -5.2027    0.0000 C   0  0  0  0  0  0  0  0  0  0  0  0
    3.9142   -6.0166    0.0000 C   0  0  0  0  0  0  0  0  0  0  0  0
    4.6263   -4.7813    0.0000 C   0  0  0  0  0  0  0  0  0  0  0  0
    2.4900   -5.1931    0.0000 C   0  0  0  0  0  0  0  0  0  0  0  0
    7.4844   -6.4284    0.0000 C   0  0  0  0  0  0  0  0  0  0  0  0
    3.2021   -4.7813    0.0000 O   0  0  0  0  0  0  0  0  0  0  0  0
    1.7634   -4.7862    0.0000 C   0  0  0  0  0  0  0  0  0  0  0  0
    2.4900   -6.0311    0.0000 C   0  0  0  0  0  0  0  0  0  0  0  0
    5.3384   -6.0215    0.0000 C   0  0  0  0  0  0  0  0  0  0  0  0
    6.7723   -6.0166    0.0000 C   0  0  0  0  0  0  0  0  0  0  0  0
    5.3384   -5.1931    0.0000 C   0  0  0  0  0  0  0  0  0  0  0  0
    4.6263   -6.4284    0.0000 C   0  0  0  0  0  0  0  0  0  0  0  0
    6.0602   -6.4380    0.0000 C   0  0  0  0  0  0  0  0  0  0  0  0
    8.1965   -6.0166    0.0000 O   0  0  0  0  0  0  0  0  0  0  0  0
    7.4844   -7.2567    0.0000 O   0  0  0  0  0  0  0  0  0  0  0  0
    1.7634   -7.2713    0.0000 I   0  0  0  0  0  0  0  0  0  0  0  0
    0.3343   -4.7813    0.0000 I   0  0  0  0  0  0  0  0  0  0  0  0
    4.6263   -3.9529    0.0000 I   0  0  0  0  0  0  0  0  0  0  0  0
    3.1876   -6.4235    0.0000 I   0  0  0  0  0  0  0  0  0  0  0  0
    0.3343   -6.4380    0.0000 O   0  0  0  0  0  0  0  0  0  0  0  0
    6.7626   -5.1931    0.0000 N   0  0  0  0  0  0  0  0  0  0  0  0
  2  3  1  0
  3 11  2  0
  4 10  1  0
  5  1  2  0
  6  1  1  0
  7  9  1  0
  8 13  1  0
  9  1  1  0
 10  7  2  0
 11  7  1  0
 12 14  1  0
 13 16  1  0
 14  6  2  0
 15  5  1  0
 16 12  1  0
 17  8  1  0
 18  8  2  0
 19  3  1  0
 20  4  1  0
 21  6  1  0
 22  5  1  0
 23  2  1  0
 13 24  1  1
 12 15  2  0
  2  4  2  0
M  END
> <chembl_id>
CHEMBL559

> <chembl_pref_name>
DEXTROTHYROXINE
