
     RDKit          2D

 20 21  0  0  0  0  0  0  0  0999 V2000
    8.0533   -1.4346    0.0000 Na  0  0  0  0  0 15  0  0  0  0  0  0
    6.8814   -0.3670    0.0000 N   0  0  0  0  0  0  0  0  0  0  0  0
    6.2058    0.1126    0.0000 C   0  0  0  0  0  0  0  0  0  0  0  0
    5.5427   -0.3670    0.0000 C   0  0  0  0  0  0  0  0  0  0  0  0
    6.6187   -1.1553    0.0000 C   0  0  0  0  0  0  0  0  0  0  0  0
    5.7929   -1.1553    0.0000 N   0  0  0  0  0  0  0  0  0  0  0  0
    6.2058    0.9384    0.0000 O   0  0  0  0  0  0  0  0  0  0  0  0
    7.1067   -1.8184    0.0000 O   0  0  0  0  0  0  0  0  0  0  0  0
    5.1298    0.3461    0.0000 C   0  0  0  0  0  0  0  0  0  0  0  0
    4.7837   -0.7049    0.0000 C   0  0  0  0  0  0  0  0  0  0  0  0
    4.7704   -1.5342    0.0000 C   0  0  0  0  0  0  0  0  0  0  0  0
    4.3040    0.3461    0.0000 C   0  0  0  0  0  0  0  0  0  0  0  0
    5.5427    1.0593    0.0000 C   0  0  0  0  0  0  0  0  0  0  0  0
    4.0796   -0.2715    0.0000 C   0  0  0  0  0  0  0  0  0  0  0  0
    3.8911    1.0593    0.0000 C   0  0  0  0  0  0  0  0  0  0  0  0
    5.1298    1.7725    0.0000 C   0  0  0  0  0  0  0  0  0  0  0  0
    3.3582   -0.6679    0.0000 C   0  0  0  0  0  0  0  0  0  0  0  0
    4.0403   -1.9273    0.0000 C   0  0  0  0  0  0  0  0  0  0  0  0
    3.3366   -1.4981    0.0000 C   0  0  0  0  0  0  0  0  0  0  0  0
    4.3040    1.7725    0.0000 C   0  0  0  0  0  0  0  0  0  0  0  0
  3  2  1  0
  4  3  1  0
  5  2  2  0
  6  5  1  0
  7  3  2  0
  8  5  1  0
  9  4  1  0
 10  4  1  0
 11 10  2  0
 12  9  2  0
 13  9  1  0
 14 10  1  0
 15 12  1  0
 16 13  2  0
 17 14  2  0
 18 11  1  0
 19 18  2  0
 20 16  1  0
  4  6  1  0
 17 19  1  0
 15 20  2  0
M  CHG  2   1   1   8  -1
M  END
> <chembl_id>
CHEMBL1611

> <chembl_pref_name>
PHENYTOIN SODIUM
