
     RDKit          2D

 20 22  0  0  0  0  0  0  0  0999 V2000
    4.1315   -4.9621    0.0000 C   0  0  0  0  0  0  0  0  0  0  0  0
    4.1315   -5.6802    0.0000 C   0  0  0  0  0  0  0  0  0  0  0  0
    4.7986   -4.7650    0.0000 C   0  0  0  0  0  0  0  0  0  0  0  0
    3.5139   -4.6057    0.0000 C   0  0  0  0  0  0  0  0  0  0  0  0
    4.8089   -5.9111    0.0000 N   0  0  0  0  0  0  0  0  0  0  0  0
    3.5139   -6.0434    0.0000 C   0  0  0  0  0  0  0  0  0  0  0  0
    5.2163   -5.3012    0.0000 C   0  0  0  0  0  0  0  0  0  0  0  0
    4.7986   -4.0434    0.0000 C   0  0  0  0  0  0  0  0  0  0  0  0
    2.9040   -4.9621    0.0000 C   0  0  0  0  0  0  0  0  0  0  0  0
    2.9040   -5.6802    0.0000 C   0  0  0  0  0  0  0  0  0  0  0  0
    5.4023   -3.7009    0.0000 C   0  0  0  0  0  0  0  0  0  0  0  0
    2.2872   -4.6057    0.0000 C   0  0  0  0  0  0  0  0  0  0  0  0
    6.0260   -4.0434    0.0000 N   0  0  0  0  0  0  0  0  0  0  0  0
    1.6732   -4.9717    0.0000 N   0  0  0  0  0  0  0  0  0  0  0  0
    6.6228   -3.6871    0.0000 C   0  0  0  0  0  0  0  0  0  0  0  0
    6.0260   -4.7650    0.0000 C   0  0  0  0  0  0  0  0  0  0  0  0
    1.0935   -4.5720    0.0000 C   0  0  0  0  0  0  0  0  0  0  0  0
    1.4533   -5.6637    0.0000 N   0  0  0  0  0  0  0  0  0  0  0  0
    0.5242   -4.9717    0.0000 N   0  0  0  0  0  0  0  0  0  0  0  0
    0.7414   -5.6637    0.0000 C   0  0  0  0  0  0  0  0  0  0  0  0
 14 17  1  0
 14 18  1  0
 17 19  2  0
 18 20  2  0
  5  7  1  0
  9 10  1  0
 19 20  1  0
  1  2  2  0
  1  3  1  0
  1  4  1  0
  2  5  1  0
  2  6  1  0
  3  7  2  0
  3  8  1  0
  4  9  2  0
  6 10  2  0
  8 11  1  0
  9 12  1  0
 11 13  1  0
 12 14  1  0
 13 15  1  0
 13 16  1  0
M  END
> <chembl_id>
CHEMBL905

> <chembl_pref_name>
RIZATRIPTAN
