
     RDKit          2D

 62 67  0  0  0  0  0  0  0  0999 V2000
   -4.5080    0.8250    0.0000 C   0  0  0  0  0  0  0  0  0  0  0  0
   -5.2225    0.4125    0.0000 C   0  0  0  0  0  0  0  0  0  0  0  0
   -5.2225   -0.4125    0.0000 C   0  0  0  0  0  0  0  0  0  0  0  0
   -4.5080   -0.8250    0.0000 C   0  0  0  0  0  0  0  0  0  0  0  0
   -3.7936   -0.4125    0.0000 C   0  0  0  0  0  0  0  0  0  0  0  0
   -3.7936    0.4125    0.0000 C   0  0  0  0  0  0  0  0  0  0  0  0
   -3.0791   -0.8250    0.0000 C   0  0  0  0  0  0  0  0  0  0  0  0
   -3.6625   -1.4084    0.0000 N   0  0  0  0  0  0  0  0  0  0  0  0
   -2.3646   -0.4125    0.0000 C   0  0  0  0  0  0  0  0  0  0  0  0
   -2.7771    0.3020    0.0000 O   0  0  0  0  0  0  0  0  0  0  0  0
   -1.6502   -0.8250    0.0000 C   0  0  0  0  0  0  0  0  0  0  0  0
   -1.6502   -1.6500    0.0000 O   0  0  0  0  0  0  0  0  0  0  0  0
   -0.9357   -0.4125    0.0000 O   0  0  0  0  0  0  0  0  0  0  0  0
   -0.2212   -0.8250    0.0000 C   0  0  0  0  0  0  0  0  0  0  0  0
    0.1913   -1.5395    0.0000 C   0  0  0  0  0  0  0  0  0  0  0  0
    1.0163   -1.5395    0.0000 C   0  0  0  0  0  0  0  0  0  0  0  0
    1.4288   -0.8250    0.0000 C   0  0  0  0  0  0  0  0  0  0  0  0
    1.0163   -0.1105    0.0000 C   0  0  0  0  0  0  0  0  0  0  0  0
    0.1913   -0.1105    0.0000 C   0  0  0  0  0  0  0  0  0  0  0  0
   -0.3921    0.4728    0.0000 C   0  0  0  0  0  0  0  0  0  0  0  0
    1.2298    0.6863    0.0000 C   0  0  0  0  0  0  0  0  0  0  0  0
    1.0163    1.4832    0.0000 O   0  0  0  0  0  0  0  0  0  0  0  0
    2.0548    0.6863    0.0000 C   0  0  0  0  0  0  0  0  0  0  0  0
    2.7693    0.2738    0.0000 C   0  0  0  0  0  0  0  0  0  0  0  0
    3.4838    0.6864    0.0000 C   0  0  0  0  0  0  0  0  0  0  0  0
    2.7693   -0.5512    0.0000 C   0  0  0  0  0  0  0  0  0  0  0  0
    3.4838   -0.9637    0.0000 C   0  0  0  0  0  0  0  0  0  0  0  0
    4.1982   -0.5512    0.0000 C   0  0  0  0  0  0  0  0  0  0  0  0
    4.1982    0.2738    0.0000 C   0  0  0  0  0  0  0  0  0  0  0  0
    1.8413    1.4832    0.0000 O   0  0  0  0  0  0  0  0  0  0  0  0
    2.7693    1.0988    0.0000 C   0  0  0  0  0  0  0  0  0  0  0  0
    3.4838    1.5114    0.0000 O   0  0  0  0  0  0  0  0  0  0  0  0
    4.7816   -1.1345    0.0000 O   0  0  0  0  0  0  0  0  0  0  0  0
    4.0671   -1.5470    0.0000 C   0  0  0  0  0  0  0  0  0  0  0  0
    2.9004   -1.5470    0.0000 O   0  0  0  0  0  0  0  0  0  0  0  0
    2.9004   -2.3720    0.0000 C   0  0  0  0  0  0  0  0  0  0  0  0
    3.6149   -2.7845    0.0000 C   0  0  0  0  0  0  0  0  0  0  0  0
    2.3170   -2.9554    0.0000 O   0  0  0  0  0  0  0  0  0  0  0  0
    1.8413   -0.1105    0.0000 C   0  0  0  0  0  0  0  0  0  0  0  0
    2.2257   -0.6115    0.0000 C   0  0  0  0  0  0  0  0  0  0  0  0
    2.3568   -1.2656    0.0000 C   0  0  0  0  0  0  0  0  0  0  0  0
    1.7734   -1.8490    0.0000 O   0  0  0  0  0  0  0  0  0  0  0  0
    0.8028   -2.3364    0.0000 O   0  0  0  0  0  0  0  0  0  0  0  0
    1.3609   -2.5635    0.0000 C   0  0  0  0  0  0  0  0  0  0  0  0
    1.8029   -3.1822    0.0000 O   0  0  0  0  0  0  0  0  0  0  0  0
    0.6465   -2.9760    0.0000 C   0  0  0  0  0  0  0  0  0  0  0  0
   -0.0680   -2.5635    0.0000 C   0  0  0  0  0  0  0  0  0  0  0  0
   -0.7825   -2.9760    0.0000 C   0  0  0  0  0  0  0  0  0  0  0  0
   -0.7825   -3.8010    0.0000 C   0  0  0  0  0  0  0  0  0  0  0  0
   -0.0680   -4.2135    0.0000 C   0  0  0  0  0  0  0  0  0  0  0  0
    0.6465   -3.8010    0.0000 C   0  0  0  0  0  0  0  0  0  0  0  0
   -3.8760   -2.2053    0.0000 C   0  0  0  0  0  0  0  0  0  0  0  0
   -3.0510   -2.2053    0.0000 O   0  0  0  0  0  0  0  0  0  0  0  0
   -3.4635   -2.9197    0.0000 O   0  0  0  0  0  0  0  0  0  0  0  0
   -3.4635   -3.7447    0.0000 C   0  0  0  0  0  0  0  0  0  0  0  0
   -4.1780   -4.1572    0.0000 C   0  0  0  0  0  0  0  0  0  0  0  0
   -2.6666   -3.5312    0.0000 C   0  0  0  0  0  0  0  0  0  0  0  0
   -3.0510   -4.4592    0.0000 C   0  0  0  0  0  0  0  0  0  0  0  0
    4.3088    1.5114    0.0000 C   0  0  0  0  0  0  0  0  0  0  0  0
    0.3018    1.8957    0.0000 C   0  0  0  0  0  0  0  0  0  0  0  0
    5.1221   -0.1685    0.0000 H   0  0  0  0  0  0  0  0  0  0  0  0
    3.0281   -1.5171    0.0000 H   0  0  0  0  0  0  0  0  0  0  0  0
  1  2  2  0
  1  6  1  0
  2  3  1  0
  3  4  2  0
  4  5  1  0
  5  6  2  0
  5  7  1  0
  7  8  1  1
  7  9  1  0
  9 10  1  1
  9 11  1  0
 11 12  2  0
 11 13  1  0
 14 13  1  6
 14 15  1  0
 14 19  1  0
 15 16  1  0
 16 17  1  0
 17 18  1  0
 18 19  2  0
 19 20  1  0
 18 21  1  0
 21 22  1  1
 21 23  1  0
 23 24  1  0
 25 24  1  0
 24 26  1  0
 25 29  1  0
 26 27  1  0
 27 28  1  0
 28 29  1  0
 23 30  2  0
 24 31  1  1
 25 32  1  1
 28 33  1  0
 27 34  1  0
 34 33  1  0
 27 35  1  6
 35 36  1  0
 36 37  1  0
 36 38  2  0
 17 39  1  0
 17 40  1  0
 26 41  1  0
 16 41  1  0
 41 42  1  6
 16 43  1  1
 42 44  1  0
 44 45  2  0
 44 46  1  0
 51 46  2  0
 47 46  1  0
 47 48  2  0
 48 49  1  0
 49 50  2  0
 50 51  1  0
  8 52  1  0
 52 53  2  0
 52 54  1  0
 54 55  1  0
 55 56  1  0
 55 57  1  0
 55 58  1  0
 32 59  1  0
 22 60  1  0
 28 61  1  6
 26 62  1  6
M  END
> <chembl_id>
CHEMBL1201748

> <chembl_pref_name>
CABAZITAXEL
