
     RDKit          2D

 36 35  0  0  0  0  0  0  0  0999 V2000
    0.0000   -3.0937    0.0000 Cl  0  0  0  0  0  0  0  0  0  0  0  0
   -8.2164    1.4438    0.0000 Cl  0  0  0  0  0  0  0  0  0  0  0  0
    8.2164   -1.4437    0.0000 Cl  0  0  0  0  0  0  0  0  0  0  0  0
   -5.3585   -0.2062    0.0000 N   0  0  0  0  0  0  0  0  0  0  0  0
    5.3585    0.2062    0.0000 N   0  0  0  0  0  0  0  0  0  0  0  0
   -3.9296   -0.2062    0.0000 N   0  0  0  0  0  0  0  0  0  0  0  0
    3.9296    0.2062    0.0000 N   0  0  0  0  0  0  0  0  0  0  0  0
   -4.6441    1.0312    0.0000 N   0  0  0  0  0  0  0  0  0  0  0  0
    4.6441   -1.0312    0.0000 N   0  0  0  0  0  0  0  0  0  0  0  0
   -2.5006   -0.2062    0.0000 N   0  0  0  0  0  0  0  0  0  0  0  0
    2.5006    0.2062    0.0000 N   0  0  0  0  0  0  0  0  0  0  0  0
   -3.2151    1.0312    0.0000 N   0  0  0  0  0  0  0  0  0  0  0  0
    3.2151   -1.0313    0.0000 N   0  0  0  0  0  0  0  0  0  0  0  0
   -6.0730    0.2062    0.0000 C   0  0  0  0  0  0  0  0  0  0  0  0
    6.0730   -0.2062    0.0000 C   0  0  0  0  0  0  0  0  0  0  0  0
   -4.6441    0.2062    0.0000 C   0  0  0  0  0  0  0  0  0  0  0  0
    4.6441   -0.2062    0.0000 C   0  0  0  0  0  0  0  0  0  0  0  0
   -6.7875   -0.2063    0.0000 C   0  0  0  0  0  0  0  0  0  0  0  0
    6.7875    0.2063    0.0000 C   0  0  0  0  0  0  0  0  0  0  0  0
   -6.0730    1.0312    0.0000 C   0  0  0  0  0  0  0  0  0  0  0  0
    6.0730   -1.0312    0.0000 C   0  0  0  0  0  0  0  0  0  0  0  0
   -7.5019    1.0312    0.0000 C   0  0  0  0  0  0  0  0  0  0  0  0
    7.5019   -1.0312    0.0000 C   0  0  0  0  0  0  0  0  0  0  0  0
   -7.5019    0.2062    0.0000 C   0  0  0  0  0  0  0  0  0  0  0  0
    7.5019   -0.2062    0.0000 C   0  0  0  0  0  0  0  0  0  0  0  0
   -6.7875    1.4438    0.0000 C   0  0  0  0  0  0  0  0  0  0  0  0
    6.7875   -1.4437    0.0000 C   0  0  0  0  0  0  0  0  0  0  0  0
   -3.2151    0.2062    0.0000 C   0  0  0  0  0  0  0  0  0  0  0  0
    3.2151   -0.2062    0.0000 C   0  0  0  0  0  0  0  0  0  0  0  0
   -1.7862    0.2062    0.0000 C   0  0  0  0  0  0  0  0  0  0  0  0
    1.7862   -0.2062    0.0000 C   0  0  0  0  0  0  0  0  0  0  0  0
   -1.0717   -0.2062    0.0000 C   0  0  0  0  0  0  0  0  0  0  0  0
    1.0717    0.2062    0.0000 C   0  0  0  0  0  0  0  0  0  0  0  0
   -0.3572    0.2062    0.0000 C   0  0  0  0  0  0  0  0  0  0  0  0
    0.3572   -0.2062    0.0000 C   0  0  0  0  0  0  0  0  0  0  0  0
   10.4557    0.0000    0.0000 Cl  0  0  0  0  0  0  0  0  0  0  0  0
  2 22  1  0
  3 23  1  0
  4 14  1  0
 16  4  1  0
  5 15  1  0
 17  5  1  0
  6 16  1  0
 28  6  1  0
  7 17  1  0
 29  7  1  0
  8 16  2  0
  9 17  2  0
 10 28  1  0
 10 30  1  0
 11 29  1  0
 11 31  1  0
 12 28  2  0
 13 29  2  0
 14 18  2  0
 14 20  1  0
 15 19  2  0
 15 21  1  0
 18 24  1  0
 19 25  1  0
 20 26  2  0
 21 27  2  0
 22 24  2  0
 22 26  1  0
 23 25  2  0
 23 27  1  0
 30 32  1  0
 31 33  1  0
 32 34  1  0
 33 35  1  0
 34 35  1  0
M  END
> <chembl_id>
CHEMBL1484251

> <chembl_pref_name>
CHLORHEXIDINE HYDROCHLORIDE
