
     RDKit          2D

 24 23  0  0  0  0  0  0  0  0999 V2000
    6.8617   -3.9438    0.0000 Cl  0  0  0  0  0  0  0  0  0  0  0  0
    6.3956   -9.2402    0.0000 N   0  0  0  0  0  0  0  0  0  0  0  0
    7.1120   -8.8269    0.0000 C   0  0  0  0  0  0  0  0  0  0  0  0
    7.1091   -7.9963    0.0000 C   0  0  0  0  0  0  0  0  0  0  0  0
    6.3938   -7.5872    0.0000 C   0  0  0  0  0  0  0  0  0  0  0  0
    5.6807   -8.8273    0.0000 C   0  0  0  0  0  0  0  0  0  0  0  0
    5.6829   -8.0016    0.0000 C   0  0  0  0  0  0  0  0  0  0  0  0
    4.9683   -7.5885    0.0000 C   0  0  0  0  0  0  0  0  0  0  0  0
    4.2551   -8.0000    0.0000 C   0  0  0  0  0  0  0  0  0  0  0  0
    4.2565   -8.8286    0.0000 C   0  0  0  0  0  0  0  0  0  0  0  0
    4.9676   -9.2384    0.0000 C   0  0  0  0  0  0  0  0  0  0  0  0
    3.5412   -9.2426    0.0000 Cl  0  0  0  0  0  0  0  0  0  0  0  0
    6.3851   -6.7622    0.0000 N   0  0  0  0  0  0  0  0  0  0  0  0
    7.0990   -6.3458    0.0000 C   0  0  0  0  0  0  0  0  0  0  0  0
    7.0946   -5.5209    0.0000 C   0  0  0  0  0  0  0  0  0  0  0  0
    7.8175   -6.7545    0.0000 C   0  0  0  0  0  0  0  0  0  0  0  0
    8.5272   -6.3381    0.0000 C   0  0  0  0  0  0  0  0  0  0  0  0
    9.2456   -6.7467    0.0000 C   0  0  0  0  0  0  0  0  0  0  0  0
    9.9554   -6.3303    0.0000 N   0  0  0  0  0  0  0  0  0  0  0  0
   10.6738   -6.7389    0.0000 C   0  0  0  0  0  0  0  0  0  0  0  0
    9.9509   -5.5053    0.0000 C   0  0  0  0  0  0  0  0  0  0  0  0
   10.6783   -7.5639    0.0000 C   0  0  0  0  0  0  0  0  0  0  0  0
    9.2367   -5.0967    0.0000 C   0  0  0  0  0  0  0  0  0  0  0  0
    6.8562   -4.5625    0.0000 Cl  0  0  0  0  0  0  0  0  0  0  0  0
  2  3  2  0
 10 12  1  0
  6  2  1  0
  5 13  1  0
  6  7  1  0
 13 14  1  0
  3  4  1  0
 14 15  1  0
  7  8  2  0
 14 16  1  0
 16 17  1  0
  8  9  1  0
 17 18  1  0
  4  5  2  0
 18 19  1  0
  9 10  2  0
 19 20  1  0
  5  7  1  0
 19 21  1  0
 10 11  1  0
 20 22  1  0
 11  6  2  0
 21 23  1  0
M  END
> <chembl_id>
CHEMBL4297165

> <chembl_pref_name>
CHLOROQUINE HYDROCHLORIDE
