
     RDKit          2D

 23 25  0  0  0  0  0  0  0  0999 V2000
    4.7625   -7.2167    0.0000 N   0  0  0  0  0  0  0  0  0  0  0  0
    4.7625   -6.5000    0.0000 C   0  0  0  0  0  0  0  0  0  0  0  0
    5.4625   -7.4375    0.0000 N   0  0  0  0  0  0  0  0  0  0  0  0
    4.1542   -7.5750    0.0000 C   0  0  0  0  0  0  0  0  0  0  0  0
    5.4625   -6.2917    0.0000 C   0  0  0  0  0  0  0  0  0  0  0  0
    4.1542   -6.1417    0.0000 N   0  0  0  0  0  0  0  0  0  0  0  0
    5.8542   -6.8542    0.0000 C   0  0  0  0  0  0  0  0  0  0  0  0
    4.1542   -8.3042    0.0000 C   0  0  0  0  0  0  0  0  0  0  0  0
    5.3875   -9.7417    0.0000 N   0  0  0  0  0  0  0  0  0  0  0  0
    5.7042   -5.6375    0.0000 C   0  0  0  0  0  0  0  0  0  0  0  0
    4.7792   -9.3792    0.0000 C   0  0  0  0  0  0  0  0  0  0  0  0
    6.0000   -9.3917    0.0000 C   0  0  0  0  0  0  0  0  0  0  0  0
    5.9512   -4.9691    0.0000 N   0  0  0  0  0  0  0  0  0  0  0  0
    3.5375   -7.2167    0.0000 C   0  0  0  0  0  0  0  0  0  0  0  0
    4.7792   -8.6542    0.0000 C   0  0  0  0  0  0  0  0  0  0  0  0
    3.5375   -6.5167    0.0000 C   0  0  0  0  0  0  0  0  0  0  0  0
    6.0000   -8.6917    0.0000 O   0  0  0  0  0  0  0  0  0  0  0  0
    3.5500   -8.6542    0.0000 C   0  0  0  0  0  0  0  0  0  0  0  0
    4.1542   -9.7417    0.0000 C   0  0  0  0  0  0  0  0  0  0  0  0
    5.3792  -10.4500    0.0000 C   0  0  0  0  0  0  0  0  0  0  0  0
    6.6125   -9.7667    0.0000 C   0  0  0  0  0  0  0  0  0  0  0  0
    3.5500   -9.3792    0.0000 C   0  0  0  0  0  0  0  0  0  0  0  0
    5.9917  -10.7917    0.0000 C   0  0  0  0  0  0  0  0  0  0  0  0
  2  1  1  0
  3  1  1  0
  4  1  1  0
  5  2  2  0
  6  2  1  0
  7  3  2  0
  8  4  1  0
  9 11  1  0
 10  5  1  0
 11 15  2  0
 12  9  1  0
 13 10  3  0
 14  4  2  0
 15  8  1  0
 16 14  1  0
 17 12  2  0
 18  8  2  0
 19 22  2  0
 20  9  1  0
 21 12  1  0
 22 18  1  0
 23 20  1  0
  7  5  1  0
 16  6  2  0
 19 11  1  0
M  END
> <chembl_id>
CHEMBL1521

> <chembl_pref_name>
ZALEPLON
