
     RDKit          2D

 11  9  0  0  0  0  0  0  0  0999 V2000
    0.0250    2.5208    0.0000 K   0  0  0  0  0 15  0  0  0  0  0  0
   -0.5125   -1.2167    0.0000 C   0  0  0  0  0  0  0  0  0  0  0  0
    0.5917   -0.3250    0.0000 C   0  0  0  0  0  0  0  0  0  0  0  0
   -1.8458   -0.6875    0.0000 C   0  0  0  0  0  0  0  0  0  0  0  0
    1.9292   -0.8542    0.0000 C   0  0  0  0  0  0  0  0  0  0  0  0
   -2.9833   -1.5750    0.0000 O   0  0  0  0  0  0  0  0  0  0  0  0
   -2.0500    0.7333    0.0000 O   0  0  0  0  0  0  0  0  0  0  0  0
    3.0542    0.0208    0.0000 O   0  0  0  0  0  0  0  0  0  0  0  0
   -0.3083   -2.6375    0.0000 O   0  0  0  0  0  0  0  0  0  0  0  0
    0.3917    1.0833    0.0000 O   0  0  0  0  0  0  0  0  0  0  0  0
    2.1292   -2.2792    0.0000 O   0  0  0  0  0  0  0  0  0  0  0  0
  3  2  1  0
  4  2  1  0
  5  3  1  0
  6  4  1  0
  7  4  2  0
  8  5  2  0
  2  9  1  1
  3 10  1  1
 11  5  1  0
M  CHG  2   1   1   6  -1
M  END
> <chembl_id>
CHEMBL2105248

> <chembl_pref_name>
POTASSIUM BITARTRATE
