
     RDKit          2D

 29 32  0  0  1  0  0  0  0  0999 V2000
    2.0625   -0.0625    0.0000 C   0  0  0  0  0  0  0  0  0  0  0  0
    2.7375    0.1500    0.0000 C   0  0  0  0  0  0  0  0  0  0  0  0
    2.0625   -0.7750    0.0000 C   0  0  0  0  0  0  0  0  0  0  0  0
    0.2250   -1.8417    0.0000 C   0  0  0  0  0  0  0  0  0  0  0  0
    1.4417   -1.1250    0.0000 C   0  0  0  0  0  0  0  0  0  0  0  0
    0.8375   -0.7750    0.0000 C   0  0  0  0  0  0  0  0  0  0  0  0
    0.2250   -1.1250    0.0000 C   0  0  0  0  0  0  0  0  0  0  0  0
    3.3500    0.5083    0.0000 C   0  0  0  0  0  0  0  0  0  0  0  0
   -0.4000   -2.1917    0.0000 C   0  0  0  0  0  0  0  0  0  0  0  0
    1.4417    0.2875    0.0000 C   0  0  0  0  0  0  0  0  0  0  0  0
    2.7292    0.8583    0.0000 O   0  0  0  0  0  0  0  0  0  0  0  0
    0.8375   -0.0625    0.0000 C   0  0  0  0  0  0  0  0  0  0  0  0
    2.7375   -0.9875    0.0000 C   0  0  0  0  0  0  0  0  0  0  0  0
    1.4417   -1.8417    0.0000 C   0  0  0  0  0  0  0  0  0  0  0  0
    3.9625    0.8708    0.0000 C   0  0  0  0  0  0  0  0  0  0  0  0
   -0.4000   -0.7750    0.0000 C   0  0  0  0  0  0  0  0  0  0  0  0
    2.1167    1.2125    0.0000 C   0  0  0  0  0  0  0  0  0  0  0  0
    3.1417   -0.4125    0.0000 C   0  0  0  0  0  0  0  0  0  0  0  0
    0.8375   -2.1917    0.0000 C   0  0  0  0  0  0  0  0  0  0  0  0
   -1.0125   -1.8417    0.0000 C   0  0  0  0  0  0  0  0  0  0  0  0
    1.5042    0.8542    0.0000 O   0  0  0  0  0  0  0  0  0  0  0  0
   -1.6375   -2.2000    0.0000 O   0  0  0  0  0  0  0  0  0  0  0  0
   -1.0125   -1.1250    0.0000 C   0  0  0  0  0  0  0  0  0  0  0  0
    2.0625    0.6458    0.0000 C   0  0  0  0  0  0  0  0  0  0  0  0
    2.1125    1.9208    0.0000 C   0  0  0  0  0  0  0  0  0  0  0  0
    0.8375   -1.4792    0.0000 H   0  0  0  0  0  0  0  0  0  0  0  0
    0.2250   -0.4250    0.0000 H   0  0  0  0  0  0  0  0  0  0  0  0
    2.0625   -1.4792    0.0000 H   0  0  0  0  0  0  0  0  0  0  0  0
    1.4417   -0.4250    0.0000 H   0  0  0  0  0  0  0  0  0  0  0  0
  2  1  1  0
  3  1  1  0
  4  7  1  0
  5  3  1  0
  6  5  1  0
  7  6  1  0
  8  2  1  0
  9  4  2  0
 10  1  1  0
  2 11  1  1
 12 10  1  0
 13  3  1  0
 14  5  1  0
 15  8  3  0
 16  7  1  0
 17 11  1  0
 18  2  1  0
 19 14  1  0
 20  9  1  0
 21 17  2  0
 22 20  2  0
 23 16  1  0
  1 24  1  1
 25 17  1  0
  6 26  1  6
  7 27  1  1
  3 28  1  6
  5 29  1  1
 12  6  1  0
 18 13  1  0
  4 19  1  0
 23 20  1  0
M  END
> <chembl_id>
CHEMBL1201146

> <chembl_pref_name>
NORETHINDRONE ACETATE
