
     RDKit          2D

 19 19  0  0  0  0  0  0  0  0999 V2000
   10.9788   -4.6191    0.0000 Cl  0  0  0  0  0  0  0  0  0  0  0  0
   11.7035   -2.1814    0.0000 N   0  0  0  0  0  0  0  0  0  0  0  0
   11.7812   -2.9887    0.0000 C   0  0  0  0  0  0  0  0  0  0  0  0
   12.4546   -1.8490    0.0000 C   0  0  0  0  0  0  0  0  0  0  0  0
    8.8629   -2.1814    0.0000 N   0  0  0  0  0  0  0  0  0  0  0  0
   10.2745   -2.1814    0.0000 C   0  0  0  0  0  0  0  0  0  0  0  0
    9.5795   -1.7713    0.0000 C   0  0  0  0  0  0  0  0  0  0  0  0
   13.0115   -2.4577    0.0000 S   0  0  0  0  0  0  0  0  0  0  0  0
   10.9868   -1.7713    0.0000 C   0  0  0  0  0  0  0  0  0  0  0  0
   12.6057   -3.1570    0.0000 C   0  0  0  0  0  0  0  0  0  0  0  0
    9.5795   -3.4117    0.0000 N   0  0  0  0  0  0  0  0  0  0  0  0
    8.8629   -2.9887    0.0000 C   0  0  0  0  0  0  0  0  0  0  0  0
   10.2745   -2.9887    0.0000 C   0  0  0  0  0  0  0  0  0  0  0  0
    9.5795   -0.9424    0.0000 N   0  0  0  0  0  0  0  0  0  0  0  0
   12.9338   -3.9168    0.0000 C   0  0  0  0  0  0  0  0  0  0  0  0
   11.1811   -3.5455    0.0000 C   0  0  0  0  0  0  0  0  0  0  0  0
   14.0864   -4.7586    0.0000 O   0  0  0  0  0  0  0  0  0  0  0  0
    8.1420   -3.4117    0.0000 C   0  0  0  0  0  0  0  0  0  0  0  0
   13.7627   -3.9988    0.0000 C   0  0  0  0  0  0  0  0  0  0  0  0
  3  2  1  0
  4  2  2  0
  5  7  2  0
  6  9  1  0
  7  6  1  0
  8  4  1  0
  9  2  1  0
 10  3  2  0
 11 13  1  0
 12 11  2  0
 13  6  2  0
 14  7  1  0
 15 10  1  0
 16  3  1  0
 17 19  1  0
 18 12  1  0
 19 15  1  0
 10  8  1  0
  5 12  1  0
M  CHG  2   1  -1   2   1
M  END
> <chembl_id>
CHEMBL1588

> <chembl_pref_name>
THIAMINE
