
     RDKit          2D

 32 34  0  0  0  0  0  0  0  0999 V2000
    9.2000   -5.4292    0.0000 Cl  0  0  0  0  0  0  0  0  0  0  0  0
    4.8500   -3.1792    0.0000 C   0  0  0  0  0  0  0  0  0  0  0  0
    4.8500   -4.0042    0.0000 C   0  0  0  0  0  0  0  0  0  0  0  0
    6.9917   -6.8917    0.0000 S   0  0  0  0  0  0  0  0  0  0  0  0
    5.6375   -4.2542    0.0000 N   0  0  0  0  0  0  0  0  0  0  0  0
    6.1167   -3.5917    0.0000 N   0  0  0  0  0  0  0  0  0  0  0  0
    3.4250   -5.6542    0.0000 N   0  0  0  0  0  0  0  0  0  0  0  0
    5.6375   -2.9292    0.0000 C   0  0  0  0  0  0  0  0  0  0  0  0
    4.1375   -4.4167    0.0000 C   0  0  0  0  0  0  0  0  0  0  0  0
    3.4167   -4.0042    0.0000 C   0  0  0  0  0  0  0  0  0  0  0  0
    2.7042   -5.2417    0.0000 C   0  0  0  0  0  0  0  0  0  0  0  0
    3.4250   -6.4792    0.0000 C   0  0  0  0  0  0  0  0  0  0  0  0
    6.2792   -6.4792    0.0000 C   0  0  0  0  0  0  0  0  0  0  0  0
    4.1375   -2.7667    0.0000 C   0  0  0  0  0  0  0  0  0  0  0  0
    2.7042   -4.4167    0.0000 N   0  0  0  0  0  0  0  0  0  0  0  0
    3.4167   -3.1792    0.0000 C   0  0  0  0  0  0  0  0  0  0  0  0
    5.5667   -6.8917    0.0000 C   0  0  0  0  0  0  0  0  0  0  0  0
    4.1375   -6.8917    0.0000 N   0  0  0  0  0  0  0  0  0  0  0  0
    2.7042   -6.8917    0.0000 N   0  0  0  0  0  0  0  0  0  0  0  0
    7.7042   -7.3042    0.0000 O   0  0  0  0  0  0  0  0  0  0  0  0
    6.2792   -7.3042    0.0000 O   0  0  0  0  0  0  0  0  0  0  0  0
    1.9917   -5.6542    0.0000 C   0  0  0  0  0  0  0  0  0  0  0  0
    4.8542   -6.4792    0.0000 C   0  0  0  0  0  0  0  0  0  0  0  0
    7.7042   -6.4792    0.0000 N   0  0  0  0  0  0  0  0  0  0  0  0
    6.2792   -5.6542    0.0000 C   0  0  0  0  0  0  0  0  0  0  0  0
    5.5667   -5.2417    0.0000 C   0  0  0  0  0  0  0  0  0  0  0  0
    1.9917   -6.4792    0.0000 C   0  0  0  0  0  0  0  0  0  0  0  0
    6.9417   -3.5917    0.0000 C   0  0  0  0  0  0  0  0  0  0  0  0
    4.8542   -5.6542    0.0000 C   0  0  0  0  0  0  0  0  0  0  0  0
    5.8917   -2.1417    0.0000 C   0  0  0  0  0  0  0  0  0  0  0  0
    1.9917   -4.0042    0.0000 C   0  0  0  0  0  0  0  0  0  0  0  0
    6.9917   -5.2417    0.0000 C   0  0  0  0  0  0  0  0  0  0  0  0
  3  2  1  0
  4 13  1  0
  5  3  2  0
  6  8  1  0
  7 11  2  0
  8  2  2  0
  9  3  1  0
 10 16  1  0
 11 15  1  0
 12  7  1  0
 13 17  1  0
 14  2  1  0
 15 10  1  0
 16 14  2  0
 17 23  2  0
 18 12  1  0
 19 27  1  0
 20  4  2  0
 21  4  2  0
 22 11  1  0
 23 18  1  0
 24  4  1  0
 25 26  1  0
 26 29  2  0
 27 22  2  0
 28  6  1  0
 29 23  1  0
 30  8  1  0
 31 15  1  0
 32 25  1  0
  6  5  1  0
  9 10  2  0
 12 19  2  0
 25 13  2  0
M  END
> <chembl_id>
CHEMBL1201733

> <chembl_pref_name>
PAZOPANIB HYDROCHLORIDE
