
     RDKit          2D

 32 33  0  0  0  0  0  0  0  0999 V2000
    3.2411    2.1804    0.0000 S   0  0  0  0  0  0  0  0  0  0  0  0
    3.2411    1.3554    0.0000 O   0  0  0  0  0  0  0  0  0  0  0  0
    3.2411    3.0054    0.0000 O   0  0  0  0  0  0  0  0  0  0  0  0
    2.4161    2.1804    0.0000 O   0  0  0  0  0  0  0  0  0  0  0  0
    4.0661    2.1804    0.0000 O   0  0  0  0  0  0  0  0  0  0  0  0
   -4.3902    1.9741    0.0000 C   0  0  0  0  0  0  0  0  0  0  0  0
   -5.1047    1.5616    0.0000 C   0  0  0  0  0  0  0  0  0  0  0  0
   -5.1047    0.7366    0.0000 C   0  0  0  0  0  0  0  0  0  0  0  0
   -4.3902    0.3241    0.0000 C   0  0  0  0  0  0  0  0  0  0  0  0
   -3.6757    0.7366    0.0000 C   0  0  0  0  0  0  0  0  0  0  0  0
   -3.6757    1.5616    0.0000 C   0  0  0  0  0  0  0  0  0  0  0  0
   -5.8893    0.4817    0.0000 N   0  0  0  0  0  0  0  0  0  0  0  0
   -6.3742    1.1491    0.0000 C   0  0  0  0  0  0  0  0  0  0  0  0
   -5.8893    1.8165    0.0000 N   0  0  0  0  0  0  0  0  0  0  0  0
   -2.9612    1.9741    0.0000 N   0  0  0  0  0  0  0  0  0  0  0  0
   -2.9612    2.7991    0.0000 C   0  0  0  0  0  0  0  0  0  0  0  0
   -2.2467    3.2116    0.0000 C   0  0  0  0  0  0  0  0  0  0  0  0
   -2.2467    4.0366    0.0000 C   0  0  0  0  0  0  0  0  0  0  0  0
   -2.9612    4.4491    0.0000 C   0  0  0  0  0  0  0  0  0  0  0  0
   -3.6757    4.0366    0.0000 C   0  0  0  0  0  0  0  0  0  0  0  0
   -3.6757    3.2116    0.0000 C   0  0  0  0  0  0  0  0  0  0  0  0
   -1.5322    2.7991    0.0000 Cl  0  0  0  0  0  0  0  0  0  0  0  0
   -2.9612    5.2741    0.0000 Br  0  0  0  0  0  0  0  0  0  0  0  0
   -2.9612    0.3241    0.0000 C   0  0  0  0  0  0  0  0  0  0  0  0
   -2.2467    0.7366    0.0000 N   0  0  0  0  0  0  0  0  0  0  0  0
   -2.9612   -0.5009    0.0000 O   0  0  0  0  0  0  0  0  0  0  0  0
   -1.5323    0.3241    0.0000 O   0  0  0  0  0  0  0  0  0  0  0  0
   -0.8178    0.7366    0.0000 C   0  0  0  0  0  0  0  0  0  0  0  0
   -0.1033    0.3241    0.0000 C   0  0  0  0  0  0  0  0  0  0  0  0
    0.6111    0.7366    0.0000 O   0  0  0  0  0  0  0  0  0  0  0  0
   -4.3902    2.7991    0.0000 F   0  0  0  0  0  0  0  0  0  0  0  0
   -6.1442   -0.3030    0.0000 C   0  0  0  0  0  0  0  0  0  0  0  0
  1  2  2  0
  1  3  2  0
  1  4  1  0
  1  5  1  0
  6  7  1  0
  6 11  2  0
  8  9  1  0
  9 10  2  0
 10 11  1  0
  7 14  1  0
  7  8  2  0
  8 12  1  0
 12 13  1  0
 13 14  2  0
 11 15  1  0
 15 16  1  0
 16 17  1  0
 16 21  2  0
 17 18  2  0
 18 19  1  0
 19 20  2  0
 20 21  1  0
 17 22  1  0
 19 23  1  0
 10 24  1  0
 24 25  1  0
 24 26  2  0
 25 27  1  0
 27 28  1  0
 28 29  1  0
 29 30  1  0
  6 31  1  0
 12 32  1  0
M  END
> <chembl_id>
CHEMBL2105684

> <chembl_pref_name>
SELUMETINIB SULFATE
