
     RDKit          2D

 12 12  0  0  0  0  0  0  0  0999 V2000
    0.7292    0.7208    0.0000 C   0  0  0  0  0  0  0  0  0  0  0  0
   -0.4833    0.0333    0.0000 C   0  0  0  0  0  0  0  0  0  0  0  0
    0.7500    2.1333    0.0000 O   0  0  0  0  0  0  0  0  0  0  0  0
   -1.7000    0.7458    0.0000 C   0  0  0  0  0  0  0  0  0  0  0  0
   -0.5000   -1.3667    0.0000 C   0  0  0  0  0  0  0  0  0  0  0  0
   -2.9458   -1.3542    0.0000 C   0  0  0  0  0  0  0  0  0  0  0  0
    1.9292    0.0083    0.0000 O   0  0  0  0  0  0  0  0  0  0  0  0
   -4.1708   -2.0375    0.0000 N   0  0  0  0  0  0  0  0  0  0  0  0
   -1.7500   -2.0542    0.0000 C   0  0  0  0  0  0  0  0  0  0  0  0
   -2.9208    0.0708    0.0000 C   0  0  0  0  0  0  0  0  0  0  0  0
    3.1542    0.6958    0.0000 C   0  0  0  0  0  0  0  0  0  0  0  0
    4.3417   -0.0167    0.0000 C   0  0  0  0  0  0  0  0  0  0  0  0
  2  1  1  0
  3  1  2  0
  4  2  1  0
  5  2  2  0
  6  9  2  0
  7  1  1  0
  8  6  1  0
  9  5  1  0
 10  4  2  0
 11  7  1  0
 12 11  1  0
 10  6  1  0
M  END
> <chembl_id>
CHEMBL278172

> <chembl_pref_name>
BENZOCAINE
