
     RDKit          2D

 35 39  0  0  0  0  0  0  0  0999 V2000
    0.8333   -0.9292    0.0000 C   0  0  0  0  0  0  0  0  0  0  0  0
    0.8333   -0.1042    0.0000 C   0  0  0  0  0  0  0  0  0  0  0  0
   -0.5958   -0.1042    0.0000 N   0  0  0  0  0  0  0  0  0  0  0  0
    1.6167   -1.1833    0.0000 N   0  0  0  0  0  0  0  0  0  0  0  0
    2.1042   -0.5167    0.0000 C   0  0  0  0  0  0  0  0  0  0  0  0
    0.1167   -1.3417    0.0000 N   0  0  0  0  0  0  0  0  0  0  0  0
   -0.5958   -0.9292    0.0000 C   0  0  0  0  0  0  0  0  0  0  0  0
    0.1167    0.3083    0.0000 C   0  0  0  0  0  0  0  0  0  0  0  0
    1.6167    0.1500    0.0000 N   0  0  0  0  0  0  0  0  0  0  0  0
    2.9292   -0.5167    0.0000 N   0  0  0  0  0  0  0  0  0  0  0  0
   -2.0250   -0.1042    0.0000 C   0  0  0  0  0  0  0  0  0  0  0  0
   -2.0250   -0.9292    0.0000 N   0  0  0  0  0  0  0  0  0  0  0  0
   -2.7417    0.3083    0.0000 N   0  0  0  0  0  0  0  0  0  0  0  0
   -1.3125    0.3083    0.0000 C   0  0  0  0  0  0  0  0  0  0  0  0
   -2.7417   -1.3417    0.0000 C   0  0  0  0  0  0  0  0  0  0  0  0
   -3.4542   -0.9292    0.0000 C   0  0  0  0  0  0  0  0  0  0  0  0
   -3.4542   -0.1042    0.0000 C   0  0  0  0  0  0  0  0  0  0  0  0
    2.5875    1.3458    0.0000 C   0  0  0  0  0  0  0  0  0  0  0  0
    3.3000    1.7583    0.0000 C   0  0  0  0  0  0  0  0  0  0  0  0
   -1.3125   -1.3417    0.0000 O   0  0  0  0  0  0  0  0  0  0  0  0
    0.1167    1.1333    0.0000 O   0  0  0  0  0  0  0  0  0  0  0  0
    3.3417    0.1958    0.0000 C   0  0  0  0  0  0  0  0  0  0  0  0
    1.8708    0.9333    0.0000 C   0  0  0  0  0  0  0  0  0  0  0  0
    0.1167   -2.1667    0.0000 C   0  0  0  0  0  0  0  0  0  0  0  0
    3.3417   -1.2333    0.0000 C   0  0  0  0  0  0  0  0  0  0  0  0
    4.1667    0.1958    0.0000 C   0  0  0  0  0  0  0  0  0  0  0  0
    4.8792    0.6083    0.0000 N   0  0  0  0  0  0  0  0  0  0  0  0
   -2.7417   -2.1667    0.0000 C   0  0  0  0  0  0  0  0  0  0  0  0
   -4.1708   -1.3417    0.0000 C   0  0  0  0  0  0  0  0  0  0  0  0
    4.0167    2.1708    0.0000 C   0  0  0  0  0  0  0  0  0  0  0  0
    4.1667   -1.2333    0.0000 C   0  0  0  0  0  0  0  0  0  0  0  0
   -4.1708    0.3083    0.0000 C   0  0  0  0  0  0  0  0  0  0  0  0
    4.5792   -0.5167    0.0000 C   0  0  0  0  0  0  0  0  0  0  0  0
   -4.8833   -0.9292    0.0000 C   0  0  0  0  0  0  0  0  0  0  0  0
   -4.8833   -0.1042    0.0000 C   0  0  0  0  0  0  0  0  0  0  0  0
  2  1  2  0
  3  8  1  0
  4  1  1  0
  5  4  2  0
  6  1  1  0
  7  6  1  0
  8  2  1  0
  9  2  1  0
 10  5  1  0
 11 14  1  0
 12 11  1  0
 13 11  2  0
 14  3  1  0
 15 12  2  0
 16 17  2  0
 17 13  1  0
 18 23  1  0
 19 18  3  0
 20  7  2  0
 21  8  2  0
 22 10  1  0
 23  9  1  0
 24  6  1  0
 25 10  1  0
 26 22  1  0
 26 27  1  6
 28 15  1  0
 29 16  1  0
 30 19  1  0
 31 25  1  0
 32 17  1  0
 33 26  1  0
 34 35  1  0
 35 32  2  0
  9  5  1  0
  7  3  1  0
 33 31  1  0
 15 16  1  0
 29 34  2  0
M  END
> <chembl_id>
CHEMBL237500

> <chembl_pref_name>
LINAGLIPTIN
