
     RDKit          2D

 28 31  0  0  0  0  0  0  0  0999 V2000
   -5.3939   -0.8189    0.0000 N   0  0  0  0  0  0  0  0  0  0  0  0
   -4.6794   -0.4064    0.0000 C   0  0  0  0  0  0  0  0  0  0  0  0
   -4.6794    0.4186    0.0000 N   0  0  0  0  0  0  0  0  0  0  0  0
   -3.9650   -0.8189    0.0000 N   0  0  0  0  0  0  0  0  0  0  0  0
   -3.2505   -0.4064    0.0000 C   0  0  0  0  0  0  0  0  0  0  0  0
   -3.2505    0.4186    0.0000 C   0  0  0  0  0  0  0  0  0  0  0  0
   -3.9650    0.8311    0.0000 C   0  0  0  0  0  0  0  0  0  0  0  0
   -2.5360   -0.8189    0.0000 N   0  0  0  0  0  0  0  0  0  0  0  0
   -1.8215   -0.4064    0.0000 C   0  0  0  0  0  0  0  0  0  0  0  0
   -1.8215    0.4186    0.0000 C   0  0  0  0  0  0  0  0  0  0  0  0
   -2.5360    0.8311    0.0000 N   0  0  0  0  0  0  0  0  0  0  0  0
   -3.9650    1.6561    0.0000 O   0  0  0  0  0  0  0  0  0  0  0  0
   -1.1071    0.8311    0.0000 C   0  0  0  0  0  0  0  0  0  0  0  0
   -1.1071   -0.8189    0.0000 O   0  0  0  0  0  0  0  0  0  0  0  0
   -0.3926   -0.4064    0.0000 C   0  0  0  0  0  0  0  0  0  0  0  0
   -0.3926    0.4186    0.0000 C   0  0  0  0  0  0  0  0  0  0  0  0
    0.3219    0.8311    0.0000 O   0  0  0  0  0  0  0  0  0  0  0  0
    0.3219   -0.8189    0.0000 C   0  0  0  0  0  0  0  0  0  0  0  0
    1.0363   -0.4064    0.0000 O   0  0  0  0  0  0  0  0  0  0  0  0
    1.0363    0.4186    0.0000 P   0  0  0  0  0  0  0  0  0  0  0  0
   -0.7198    1.5596    0.0000 O   0  0  0  0  0  0  0  0  0  0  0  0
   -1.4944    1.5596    0.0000 O   0  0  0  0  0  0  0  0  0  0  0  0
    1.8608    0.4474    0.0000 O   0  0  0  0  0  0  0  0  0  0  0  0
    1.4735    1.1183    0.0000 O   0  0  0  0  0  0  0  0  0  0  0  0
   -1.8215   -1.2314    0.0000 H   0  0  0  0  0  0  0  0  0  0  0  0
   -1.1071    0.0061    0.0000 H   0  0  0  0  0  0  0  0  0  0  0  0
    0.3219    0.0061    0.0000 H   0  0  0  0  0  0  0  0  0  0  0  0
   -0.3926   -1.2314    0.0000 H   0  0  0  0  0  0  0  0  0  0  0  0
  1  2  1  0
  2  3  2  0
  4  5  1  0
  5  6  2  0
  6  7  1  0
  2  4  1  0
  3  7  1  0
  8  9  1  0
  9 10  1  0
 10 11  1  0
  5  8  1  0
  6 11  1  0
 12  7  2  0
 14 15  1  0
 15 16  1  0
 13 16  1  0
  9 14  1  0
 13 10  1  0
 18 19  1  0
 19 20  1  0
 17 20  1  0
 15 18  1  0
 17 16  1  0
 13 21  1  0
 13 22  1  0
 20 23  2  0
 20 24  1  0
  9 25  1  6
 10 26  1  6
 16 27  1  6
 15 28  1  6
M  END
> <chembl_id>
CHEMBL2338675

> <chembl_pref_name>
FOSDENOPTERIN
