
     RDKit          2D

 19 20  0  0  0  0  0  0  0  0999 V2000
    3.0292   -0.0417    0.0000 C   0  0  0  0  0  0  0  0  0  0  0  0
    2.4167   -0.4042    0.0000 C   0  0  0  0  0  0  0  0  0  0  0  0
   -0.6458   -1.4750    0.0000 C   0  0  0  0  0  0  0  0  0  0  0  0
    4.1750   -0.0417    0.0000 N   0  0  0  0  0  0  0  0  0  0  0  0
    3.2500    0.6250    0.0000 C   0  0  0  0  0  0  0  0  0  0  0  0
    1.8042   -0.0500    0.0000 N   0  0  0  0  0  0  0  0  0  0  0  0
    3.9542    0.6250    0.0000 O   0  0  0  0  0  0  0  0  0  0  0  0
    3.6000   -0.4667    0.0000 C   0  0  0  0  0  0  0  0  0  0  0  0
   -0.0333   -1.1167    0.0000 C   0  0  0  0  0  0  0  0  0  0  0  0
    2.4167   -1.1125    0.0000 O   0  0  0  0  0  0  0  0  0  0  0  0
   -1.2625   -1.1167    0.0000 F   0  0  0  0  0  0  0  0  0  0  0  0
   -0.2958   -2.0875    0.0000 F   0  0  0  0  0  0  0  0  0  0  0  0
   -1.0083   -2.0875    0.0000 F   0  0  0  0  0  0  0  0  0  0  0  0
    0.5792   -1.4750    0.0000 C   0  0  0  0  0  0  0  0  0  0  0  0
   -0.0333   -0.4125    0.0000 C   0  0  0  0  0  0  0  0  0  0  0  0
    1.1917   -0.4042    0.0000 C   0  0  0  0  0  0  0  0  0  0  0  0
    0.5792   -0.0542    0.0000 C   0  0  0  0  0  0  0  0  0  0  0  0
    1.1917   -1.1167    0.0000 C   0  0  0  0  0  0  0  0  0  0  0  0
    2.6292    0.9833    0.0000 C   0  0  0  0  0  0  0  0  0  0  0  0
  2  1  1  0
  3  9  1  0
  4  8  2  0
  5  1  2  0
  6  2  1  0
  7  5  1  0
  8  1  1  0
  9 14  1  0
 10  2  2  0
 11  3  1  0
 12  3  1  0
 13  3  1  0
 14 18  2  0
 15 17  1  0
 16  6  1  0
 17 16  2  0
 18 16  1  0
 19  5  1  0
  4  7  1  0
  9 15  2  0
M  END
> <chembl_id>
CHEMBL960

> <chembl_pref_name>
LEFLUNOMIDE
