
     RDKit          2D

 23 22  0  0  0  0  0  0  0  0999 V2000
   -1.7833   -4.6750    0.0000 O   0  0  0  0  0  0  0  0  0  0  0  0
   -1.1500   -5.0167    0.0000 C   0  0  0  0  0  0  0  0  0  0  0  0
   -0.5333   -4.6750    0.0000 C   0  0  0  0  0  0  0  0  0  0  0  0
   11.2917   -5.0167    0.0000 C   0  0  0  0  0  0  0  0  0  0  0  0
   10.6792   -4.6750    0.0000 C   0  0  0  0  0  0  0  0  0  0  0  0
    6.9375   -4.6750    0.0000 C   0  0  0  0  0  0  0  0  0  0  0  0
    3.2167   -4.6750    0.0000 C   0  0  0  0  0  0  0  0  0  0  0  0
    7.5542   -5.0167    0.0000 C   0  0  0  0  0  0  0  0  0  0  0  0
    2.5792   -5.0167    0.0000 C   0  0  0  0  0  0  0  0  0  0  0  0
    8.1792   -4.6750    0.0000 C   0  0  0  0  0  0  0  0  0  0  0  0
    1.9667   -4.6750    0.0000 C   0  0  0  0  0  0  0  0  0  0  0  0
    8.8042   -5.0167    0.0000 C   0  0  0  0  0  0  0  0  0  0  0  0
    1.3417   -5.0167    0.0000 C   0  0  0  0  0  0  0  0  0  0  0  0
    9.4292   -4.6750    0.0000 C   0  0  0  0  0  0  0  0  0  0  0  0
    0.7167   -4.6750    0.0000 C   0  0  0  0  0  0  0  0  0  0  0  0
   10.0542   -5.0167    0.0000 C   0  0  0  0  0  0  0  0  0  0  0  0
    0.0917   -5.0167    0.0000 C   0  0  0  0  0  0  0  0  0  0  0  0
    5.0667   -5.0167    0.0000 C   0  0  0  0  0  0  0  0  0  0  0  0
    5.6875   -4.6750    0.0000 C   0  0  0  0  0  0  0  0  0  0  0  0
    4.4542   -4.6750    0.0000 C   0  0  0  0  0  0  0  0  0  0  0  0
    6.3125   -5.0167    0.0000 C   0  0  0  0  0  0  0  0  0  0  0  0
    3.8292   -5.0167    0.0000 C   0  0  0  0  0  0  0  0  0  0  0  0
   11.9292   -4.6750    0.0000 C   0  0  0  0  0  0  0  0  0  0  0  0
  2  1  1  0
  3  2  1  0
  4  5  1  0
  5 16  1  0
  6 21  1  0
  7  9  1  0
  8  6  1  0
  9 11  1  0
 10  8  1  0
 11 13  1  0
 12 10  1  0
 13 15  1  0
 14 12  1  0
 15 17  1  0
 16 14  1  0
 17  3  1  0
 18 20  1  0
 19 18  1  0
 20 22  1  0
 21 19  1  0
 22  7  1  0
 23  4  1  0
M  END
> <chembl_id>
CHEMBL1200453

> <chembl_pref_name>
DOCOSANOL
