
     RDKit          2D

 33 37  0  0  0  0  0  0  0  0999 V2000
    0.0779   -2.9123    0.0000 C   0  0  0  0  0  0  0  0  0  0  0  0
    0.0809   -3.7347    0.0000 C   0  0  0  0  0  0  0  0  0  0  0  0
    0.7913   -2.4967    0.0000 C   0  0  0  0  0  0  0  0  0  0  0  0
    1.5112   -2.9104    0.0000 C   0  0  0  0  0  0  0  0  0  0  0  0
    1.5165   -3.7345    0.0000 C   0  0  0  0  0  0  0  0  0  0  0  0
    2.2151   -4.1602    0.0000 O   0  0  0  0  0  0  0  0  0  0  0  0
    0.8115   -4.1363    0.0000 C   0  0  0  0  0  0  0  0  0  0  0  0
    2.9482   -3.7315    0.0000 C   0  0  0  0  0  0  0  0  0  0  0  0
    3.6593   -2.5103    0.0000 C   0  0  0  0  0  0  0  0  0  0  0  0
    4.3857   -2.8996    0.0000 C   0  0  0  0  0  0  0  0  0  0  0  0
    5.0991   -2.5019    0.0000 C   0  0  0  0  0  0  0  0  0  0  0  0
    4.4999   -1.1311    0.0000 C   0  0  0  0  0  0  0  0  0  0  0  0
    5.1051   -1.6771    0.0000 C   0  0  0  0  0  0  0  0  0  0  0  0
    3.4203   -1.3960    0.0000 N   0  0  0  0  0  0  0  0  0  0  0  0
    4.6535   -0.3350    0.0000 N   0  0  0  0  0  0  0  0  0  0  0  0
    5.8927   -1.4215    0.0000 C   0  0  0  0  0  0  0  0  0  0  0  0
    6.0588   -0.6236    0.0000 N   0  0  0  0  0  0  0  0  0  0  0  0
    6.3753   -2.1034    0.0000 N   0  0  0  0  0  0  0  0  0  0  0  0
    5.8821   -2.7642    0.0000 N   0  0  0  0  0  0  0  0  0  0  0  0
    3.6902   -4.1311    0.0000 C   0  0  0  0  0  0  0  0  0  0  0  0
    4.3732   -3.7342    0.0000 C   0  0  0  0  0  0  0  0  0  0  0  0
    2.9514   -2.9117    0.0000 C   0  0  0  0  0  0  0  0  0  0  0  0
    8.6461   -2.1034    0.0000 N   0  0  0  0  0  0  0  0  0  0  0  0
    9.2897   -2.4617    0.0000 C   0  0  0  0  0  0  0  0  0  0  0  0
   10.0977   -2.0511    0.0000 C   0  0  0  0  0  0  0  0  0  0  0  0
    9.3535   -3.3320    0.0000 O   0  0  0  0  0  0  0  0  0  0  0  0
    7.1665   -2.0999    0.0000 C   0  0  0  0  0  0  0  0  0  0  0  0
    7.2176   -1.2712    0.0000 C   0  0  0  0  0  0  0  0  0  0  0  0
    7.9252   -0.8619    0.0000 C   0  0  0  0  0  0  0  0  0  0  0  0
    8.6524   -1.2682    0.0000 C   0  0  0  0  0  0  0  0  0  0  0  0
    7.9412   -2.4891    0.0000 C   0  0  0  0  0  0  0  0  0  0  0  0
   10.8648   -2.4556    0.0000 C   0  0  0  0  0  0  0  0  0  0  0  0
    5.4389   -0.0791    0.0000 C   0  0  0  0  0  0  0  0  0  0  0  0
  1  2  2  0
  1  3  1  0
  2  7  1  0
  3  4  2  0
  5  4  1  0
  5  6  1  0
  6  8  1  0
  7  5  2  0
  8 20  2  0
  8 22  1  0
  9 10  1  0
 10 11  1  0
 11 19  2  0
 12 13  1  0
 12 15  2  0
 13 16  2  0
 13 11  1  0
 14 12  1  0
 15 33  1  0
 16 18  1  0
 17 16  1  0
 19 18  1  0
 20 21  1  0
 21 10  2  0
 22  9  2  0
 23 24  1  0
 24 25  1  0
 24 26  2  0
 25 32  2  0
 27 28  1  0
 27 31  1  0
 29 30  1  0
 29 28  1  0
 30 23  1  0
 31 23  1  0
 33 17  2  0
 27 18  1  6
M  END
> <chembl_id>
CHEMBL1873475

> <chembl_pref_name>
IBRUTINIB
