
     RDKit          2D

 52 54  0  0  1  0  0  0  0  0999 V2000
    0.1542  -10.8708    0.0000 C   0  0  0  0  0  0  0  0  0  0  0  0
   -2.1083   -9.7750    0.0000 C   0  0  0  0  0  0  0  0  0  0  0  0
   -3.3333   -9.7792    0.0000 C   0  0  0  0  0  0  0  0  0  0  0  0
   -3.9458   -8.0167    0.0000 C   0  0  0  0  0  0  0  0  0  0  0  0
   -2.7208  -10.1292    0.0000 C   0  0  0  0  0  0  0  0  0  0  0  0
   -0.1958  -11.4792    0.0000 C   0  0  0  0  0  0  0  0  0  0  0  0
   -1.4958   -8.7167    0.0000 C   0  0  0  0  0  0  0  0  0  0  0  0
   -3.3333   -7.6667    0.0000 C   0  0  0  0  0  0  0  0  0  0  0  0
   -2.1083   -9.0667    0.0000 C   0  0  0  0  0  0  0  0  0  0  0  0
   -3.0375   -6.3167    0.0000 N   0  0  0  0  0  0  0  0  0  0  0  0
   -3.3333   -9.0750    0.0000 O   0  0  0  0  0  0  0  0  0  0  0  0
    0.1500   -9.9292    0.0000 O   0  0  0  0  0  0  0  0  0  0  0  0
   -3.4958  -12.8542    0.0000 C   0  0  0  0  0  0  0  0  0  0  0  0
   -0.9083  -11.4792    0.0000 C   0  0  0  0  0  0  0  0  0  0  0  0
   -1.4958   -8.0167    0.0000 C   0  0  0  0  0  0  0  0  0  0  0  0
   -2.4375  -12.2458    0.0000 C   0  0  0  0  0  0  0  0  0  0  0  0
   -3.3333   -6.9667    0.0000 C   0  0  0  0  0  0  0  0  0  0  0  0
   -2.7875  -12.8542    0.0000 C   0  0  0  0  0  0  0  0  0  0  0  0
   -0.1958  -10.2583    0.0000 O   0  0  0  0  0  0  0  0  0  0  0  0
   -2.7875  -11.6333    0.0000 O   0  0  0  0  0  0  0  0  0  0  0  0
   -3.9458   -8.7250    0.0000 C   0  0  0  0  0  0  0  0  0  0  0  0
   -3.8542  -12.2458    0.0000 C   0  0  0  0  0  0  0  0  0  0  0  0
   -1.4958  -10.1250    0.0000 O   0  0  0  0  0  0  0  0  0  0  0  0
   -3.4958  -11.6333    0.0000 C   0  0  0  0  0  0  0  0  0  0  0  0
   -1.2625  -10.8708    0.0000 C   0  0  0  0  0  0  0  0  0  0  0  0
   -2.3333   -6.3250    0.0000 C   0  0  0  0  0  0  0  0  0  0  0  0
   -1.2583  -12.0958    0.0000 N   0  0  0  0  0  0  0  0  0  0  0  0
   -2.1083   -7.6667    0.0000 C   0  0  0  0  0  0  0  0  0  0  0  0
   -3.9458  -10.1333    0.0000 O   0  0  0  0  0  0  0  0  0  0  0  0
   -0.9083  -10.2583    0.0000 C   0  0  0  0  0  0  0  0  0  0  0  0
   -2.1083   -6.9625    0.0000 C   0  0  0  0  0  0  0  0  0  0  0  0
   -4.3000   -7.4000    0.0000 O   0  0  0  0  0  0  0  0  0  0  0  0
    0.1542  -12.0958    0.0000 O   0  0  0  0  0  0  0  0  0  0  0  0
   -2.7208   -8.0250    0.0000 O   0  0  0  0  0  0  0  0  0  0  0  0
   -1.1458   -7.4000    0.0000 O   0  0  0  0  0  0  0  0  0  0  0  0
   -4.1125  -13.2042    0.0000 O   0  0  0  0  0  0  0  0  0  0  0  0
   -4.5625  -12.2458    0.0000 O   0  0  0  0  0  0  0  0  0  0  0  0
   -4.6542   -8.0167    0.0000 C   0  0  0  0  0  0  0  0  0  0  0  0
   -3.6583   -5.9667    0.0000 C   0  0  0  0  0  0  0  0  0  0  0  0
   -2.7167  -10.8375    0.0000 C   0  0  0  0  0  0  0  0  0  0  0  0
   -2.7250   -8.7125    0.0000 C   0  0  0  0  0  0  0  0  0  0  0  0
   -3.5000  -13.5667    0.0000 C   0  0  0  0  0  0  0  0  0  0  0  0
   -0.7875   -8.0167    0.0000 C   0  0  0  0  0  0  0  0  0  0  0  0
   -3.9458   -6.6125    0.0000 C   0  0  0  0  0  0  0  0  0  0  0  0
   -4.5583   -9.0792    0.0000 C   0  0  0  0  0  0  0  0  0  0  0  0
   -3.8500  -11.0167    0.0000 C   0  0  0  0  0  0  0  0  0  0  0  0
   -1.9667  -12.0958    0.0000 C   0  0  0  0  0  0  0  0  0  0  0  0
   -0.9042  -12.7083    0.0000 C   0  0  0  0  0  0  0  0  0  0  0  0
   -1.2583   -9.6417    0.0000 C   0  0  0  0  0  0  0  0  0  0  0  0
   -1.4958   -6.6042    0.0000 C   0  0  0  0  0  0  0  0  0  0  0  0
   -4.7250  -12.8458    0.0000 C   0  0  0  0  0  0  0  0  0  0  0  0
   -5.1708   -8.7250    0.0000 C   0  0  0  0  0  0  0  0  0  0  0  0
  2  9  1  0
  3  5  1  0
  4 21  1  0
  5  2  1  0
  6  1  1  0
  7 12  1  6
  8 17  1  0
  9  7  1  0
 10 26  1  0
 11  3  1  0
  1 12  1  1
 13 18  1  0
 14  6  1  0
 15  7  1  0
 16 23  1  1
 17 10  1  0
 18 16  1  0
 19  1  1  0
 20 16  1  0
 21 11  1  0
 22 24  1  0
  2 23  1  6
 24 20  1  0
 25 30  1  0
 26 31  1  0
 14 27  1  1
 28 15  1  0
 29  3  2  0
 30 19  1  0
 31 28  1  0
  4 32  1  1
  6 33  1  6
  8 34  1  1
 15 35  1  1
 13 36  1  0
 22 37  1  1
 38  4  1  0
 39 10  1  0
  5 40  1  1
  9 41  1  6
 13 42  1  6
 43 15  1  0
 17 44  1  1
 21 45  1  6
 24 46  1  6
 47 27  1  0
 48 27  1  0
 30 49  1  1
 31 50  1  6
 51 36  1  0
 52 45  1  0
 25 14  1  0
  4  8  1  0
 22 13  1  0
M  END
> <chembl_id>
CHEMBL529

> <chembl_pref_name>
AZITHROMYCIN
