
     RDKit          2D

 16 16  0  0  0  0  0  0  0  0999 V2000
    4.3667   -4.7042    0.0000 N   0  0  0  0  0  0  0  0  0  0  0  0
    3.1542   -5.4500    0.0000 N   0  0  0  0  0  0  0  0  0  0  0  0
    4.9792   -4.3375    0.0000 C   0  0  0  0  0  0  0  0  0  0  0  0
    2.5417   -5.8042    0.0000 C   0  0  0  0  0  0  0  0  0  0  0  0
    3.1500   -4.7167    0.0000 C   0  0  0  0  0  0  0  0  0  0  0  0
    3.7542   -5.7875    0.0000 C   0  0  0  0  0  0  0  0  0  0  0  0
    3.7542   -4.3542    0.0000 C   0  0  0  0  0  0  0  0  0  0  0  0
    4.3667   -5.4167    0.0000 C   0  0  0  0  0  0  0  0  0  0  0  0
    5.6042   -4.7000    0.0000 C   0  0  0  0  0  0  0  0  0  0  0  0
    1.9250   -5.4417    0.0000 C   0  0  0  0  0  0  0  0  0  0  0  0
    4.9750   -3.6292    0.0000 O   0  0  0  0  0  0  0  0  0  0  0  0
    2.5500   -6.5292    0.0000 O   0  0  0  0  0  0  0  0  0  0  0  0
    6.8292   -4.6875    0.0000 Br  0  0  0  0  0  0  0  0  0  0  0  0
    0.7000   -5.4167    0.0000 Br  0  0  0  0  0  0  0  0  0  0  0  0
    1.3042   -5.7792    0.0000 C   0  0  0  0  0  0  0  0  0  0  0  0
    6.2167   -4.3375    0.0000 C   0  0  0  0  0  0  0  0  0  0  0  0
  2  6  1  0
  3  1  1  0
  4  2  1  0
  5  7  1  0
  6  8  1  0
  7  1  1  0
  8  1  1  0
  9  3  1  0
 10  4  1  0
 11  3  2  0
 12  4  2  0
 13 16  1  0
 14 15  1  0
 15 10  1  0
 16  9  1  0
  2  5  1  0
M  END
> <chembl_id>
CHEMBL1585

> <chembl_pref_name>
PIPOBROMAN
