
     RDKit          2D

 18 18  0  0  0  0  0  0  0  0999 V2000
    5.8917   -6.0292    0.0000 Na  0  0  0  0  0 15  0  0  0  0  0  0
    3.1625   -5.6292    0.0000 C   0  0  0  0  0  0  0  0  0  0  0  0
    4.4125   -5.6292    0.0000 C   0  0  0  0  0  0  0  0  0  0  0  0
    2.5417   -5.9792    0.0000 C   0  0  0  0  0  0  0  0  0  0  0  0
    3.7792   -5.9792    0.0000 C   0  0  0  0  0  0  0  0  0  0  0  0
    1.9417   -5.6250    0.0000 C   0  0  0  0  0  0  0  0  0  0  0  0
    1.9417   -4.9042    0.0000 C   0  0  0  0  0  0  0  0  0  0  0  0
    5.0042   -6.0000    0.0000 O   0  0  0  0  0  0  0  0  0  0  0  0
    3.1667   -4.9250    0.0000 C   0  0  0  0  0  0  0  0  0  0  0  0
    4.4250   -4.9167    0.0000 O   0  0  0  0  0  0  0  0  0  0  0  0
    1.3250   -4.5625    0.0000 C   0  0  0  0  0  0  0  0  0  0  0  0
    2.5417   -4.5667    0.0000 C   0  0  0  0  0  0  0  0  0  0  0  0
    1.3167   -5.9792    0.0000 C   0  0  0  0  0  0  0  0  0  0  0  0
    0.7042   -4.9125    0.0000 C   0  0  0  0  0  0  0  0  0  0  0  0
    0.7042   -5.6250    0.0000 C   0  0  0  0  0  0  0  0  0  0  0  0
    0.0917   -4.5417    0.0000 O   0  0  0  0  0  0  0  0  0  0  0  0
    3.7792   -6.7000    0.0000 C   0  0  0  0  0  0  0  0  0  0  0  0
   -0.5333   -4.9000    0.0000 C   0  0  0  0  0  0  0  0  0  0  0  0
  3  5  1  0
  4  2  1  0
  5  2  1  0
  6  4  2  0
  7 12  2  0
  8  3  1  0
  9  2  2  0
 10  3  2  0
 11  7  1  0
 12  9  1  0
 13  6  1  0
 14 11  2  0
 15 13  2  0
 16 14  1  0
  5 17  1  1
 18 16  1  0
  7  6  1  0
 14 15  1  0
M  CHG  2   1   1   8  -1
M  END
> <chembl_id>
CHEMBL1200806

> <chembl_pref_name>
NAPROXEN SODIUM
