
     RDKit          2D

 11 10  0  0  1  0  0  0  0  0999 V2000
    1.5458   -2.9042    0.0000 C   0  0  0  0  0  0  0  0  0  0  0  0
    2.1583   -2.5542    0.0000 C   0  0  0  0  0  0  0  0  0  0  0  0
    4.0000   -2.9042    0.0000 N   0  0  0  0  0  0  0  0  0  0  0  0
    0.9333   -2.5542    0.0000 O   0  0  0  0  0  0  0  0  0  0  0  0
    1.5458   -3.6167    0.0000 O   0  0  0  0  0  0  0  0  0  0  0  0
    2.7750   -2.9042    0.0000 C   0  0  0  0  0  0  0  0  0  0  0  0
    3.3875   -2.5542    0.0000 C   0  0  0  0  0  0  0  0  0  0  0  0
    2.7750   -3.6167    0.0000 O   0  0  0  0  0  0  0  0  0  0  0  0
    3.6417   -3.5167    0.0000 C   0  0  0  0  0  0  0  0  0  0  0  0
    4.6125   -2.5542    0.0000 C   0  0  0  0  0  0  0  0  0  0  0  0
    4.3500   -3.5167    0.0000 C   0  0  0  0  0  0  0  0  0  0  0  0
  2  1  1  0
  3  7  1  0
  4  1  1  0
  5  1  2  0
  6  2  1  0
  7  6  1  0
  6  8  1  6
  9  3  1  0
 10  3  1  0
 11  3  1  0
M  CHG  2   3   1   4  -1
M  END
> <chembl_id>
CHEMBL1149

> <chembl_pref_name>
LEVOCARNITINE
