
     RDKit          2D

 27 29  0  0  0  0  0  0  0  0999 V2000
    1.2000   -1.0042    0.0000 S   0  0  0  0  0  0  0  0  0  0  0  0
    2.3167   -1.0042    0.0000 N   0  0  0  0  0  0  0  0  0  0  0  0
    2.9792   -0.5167    0.0000 C   0  0  0  0  0  0  0  0  0  0  0  0
   -2.8625   -0.1792    0.0000 C   0  0  0  0  0  0  0  0  0  0  0  0
   -2.4333    0.5000    0.0000 C   0  0  0  0  0  0  0  0  0  0  0  0
    3.7000   -0.8792    0.0000 N   0  0  0  0  0  0  0  0  0  0  0  0
   -2.8375    1.2125    0.0000 C   0  0  0  0  0  0  0  0  0  0  0  0
   -3.6750    1.2250    0.0000 C   0  0  0  0  0  0  0  0  0  0  0  0
    0.3417   -1.0042    0.0000 C   0  0  0  0  0  0  0  0  0  0  0  0
   -2.2375   -0.9792    0.0000 N   0  0  0  0  0  0  0  0  0  0  0  0
    3.0417    0.3083    0.0000 S   0  0  0  0  0  0  0  0  0  0  0  0
    1.2000   -1.8292    0.0000 O   0  0  0  0  0  0  0  0  0  0  0  0
    1.1792   -0.0917    0.0000 O   0  0  0  0  0  0  0  0  0  0  0  0
    4.3417   -0.3167    0.0000 C   0  0  0  0  0  0  0  0  0  0  0  0
   -3.7458   -0.1792    0.0000 O   0  0  0  0  0  0  0  0  0  0  0  0
    3.8917    0.5000    0.0000 C   0  0  0  0  0  0  0  0  0  0  0  0
   -4.1833    1.9125    0.0000 O   0  0  0  0  0  0  0  0  0  0  0  0
   -0.0583   -0.2792    0.0000 C   0  0  0  0  0  0  0  0  0  0  0  0
   -0.0708   -1.7292    0.0000 C   0  0  0  0  0  0  0  0  0  0  0  0
   -1.3250   -0.9917    0.0000 C   0  0  0  0  0  0  0  0  0  0  0  0
   -4.0208    0.4458    0.0000 O   0  0  0  0  0  0  0  0  0  0  0  0
   -0.8833   -0.2792    0.0000 C   0  0  0  0  0  0  0  0  0  0  0  0
   -0.9208   -1.7292    0.0000 C   0  0  0  0  0  0  0  0  0  0  0  0
   -1.4958    0.5000    0.0000 C   0  0  0  0  0  0  0  0  0  0  0  0
   -2.4625    1.9958    0.0000 C   0  0  0  0  0  0  0  0  0  0  0  0
   -1.5208    1.9958    0.0000 C   0  0  0  0  0  0  0  0  0  0  0  0
   -1.1208    1.2583    0.0000 C   0  0  0  0  0  0  0  0  0  0  0  0
  2  1  1  0
  3  2  1  0
  4 10  1  0
  5  4  1  0
  6  3  2  0
  7  5  2  0
  8  7  1  0
  9  1  1  0
 10 20  1  0
 11  3  1  0
 12  1  2  0
 13  1  2  0
 14  6  1  0
 15  4  2  0
 16 11  1  0
 17  8  2  0
 18  9  1  0
 19  9  2  0
 20 23  2  0
 21  8  1  0
 22 18  2  0
 23 19  1  0
 24  5  1  0
 25  7  1  0
 26 27  1  0
 27 24  2  0
 20 22  1  0
 14 16  2  0
 25 26  2  0
M  END
> <chembl_id>
CHEMBL1524273

> <chembl_pref_name>
PHTHALYLSULFATHIAZOLE
