
     RDKit          2D

 19 20  0  0  0  0  0  0  0  0999 V2000
    9.8861  -17.9833    0.0000 C   0  0  0  0  0  0  0  0  0  0  0  0
    9.8849  -18.8107    0.0000 C   0  0  0  0  0  0  0  0  0  0  0  0
   10.5997  -19.2235    0.0000 C   0  0  0  0  0  0  0  0  0  0  0  0
   11.3162  -18.8102    0.0000 C   0  0  0  0  0  0  0  0  0  0  0  0
   11.3133  -17.9797    0.0000 C   0  0  0  0  0  0  0  0  0  0  0  0
   10.5979  -17.5705    0.0000 C   0  0  0  0  0  0  0  0  0  0  0  0
   10.5995  -20.0485    0.0000 N   0  0  0  0  0  0  0  0  0  0  0  0
   10.5955  -16.7455    0.0000 S   0  0  0  0  0  0  0  0  0  0  0  0
   10.5875  -15.9167    0.0000 N   0  0  0  0  0  0  0  0  0  0  0  0
   11.4204  -16.7403    0.0000 O   0  0  0  0  0  0  0  0  0  0  0  0
    9.7705  -16.7546    0.0000 O   0  0  0  0  0  0  0  0  0  0  0  0
   11.2980  -15.4973    0.0000 C   0  0  0  0  0  0  0  0  0  0  0  0
   12.0136  -15.9070    0.0000 N   0  0  0  0  0  0  0  0  0  0  0  0
   12.7236  -15.4884    0.0000 N   0  0  0  0  0  0  0  0  0  0  0  0
   12.7161  -14.6625    0.0000 C   0  0  0  0  0  0  0  0  0  0  0  0
   11.9927  -14.2571    0.0000 C   0  0  0  0  0  0  0  0  0  0  0  0
   11.2857  -14.6781    0.0000 C   0  0  0  0  0  0  0  0  0  0  0  0
   13.4260  -14.2423    0.0000 O   0  0  0  0  0  0  0  0  0  0  0  0
   14.1450  -14.6469    0.0000 C   0  0  0  0  0  0  0  0  0  0  0  0
  4  5  1  0
  8 10  2  0
  2  3  1  0
  8 11  2  0
  5  6  2  0
  9 12  1  0
  6  1  1  0
 12 13  2  0
  1  2  2  0
 13 14  1  0
  3  7  1  0
 14 15  2  0
  3  4  2  0
 15 16  1  0
  6  8  1  0
 16 17  2  0
 17 12  1  0
 15 18  1  0
  8  9  1  0
 18 19  1  0
M  END
> <chembl_id>
CHEMBL268869

> <chembl_pref_name>
SULFAMETHOXYPYRIDAZINE
