
     RDKit          2D

 17 17  0  0  0  0  0  0  0  0999 V2000
    4.6042   -7.0542    0.0000 C   0  0  0  0  0  0  0  0  0  0  0  0
    3.9792   -7.4042    0.0000 C   0  0  0  0  0  0  0  0  0  0  0  0
    4.6167   -6.3542    0.0000 O   0  0  0  0  0  0  0  0  0  0  0  0
    5.2042   -7.4292    0.0000 N   0  0  0  0  0  0  0  0  0  0  0  0
    3.3750   -7.0417    0.0000 C   0  0  0  0  0  0  0  0  0  0  0  0
    3.9667   -8.1167    0.0000 C   0  0  0  0  0  0  0  0  0  0  0  0
    2.7292   -8.0917    0.0000 C   0  0  0  0  0  0  0  0  0  0  0  0
    7.0667   -7.1042    0.0000 N   0  0  0  0  0  0  0  0  0  0  0  0
    2.1125   -8.4375    0.0000 N   0  0  0  0  0  0  0  0  0  0  0  0
    3.3417   -8.4625    0.0000 C   0  0  0  0  0  0  0  0  0  0  0  0
    2.7417   -7.3792    0.0000 C   0  0  0  0  0  0  0  0  0  0  0  0
    5.8292   -7.0875    0.0000 C   0  0  0  0  0  0  0  0  0  0  0  0
    6.4417   -7.4500    0.0000 C   0  0  0  0  0  0  0  0  0  0  0  0
    7.6792   -7.4792    0.0000 C   0  0  0  0  0  0  0  0  0  0  0  0
    7.0792   -6.3917    0.0000 C   0  0  0  0  0  0  0  0  0  0  0  0
    8.3042   -7.1292    0.0000 C   0  0  0  0  0  0  0  0  0  0  0  0
    7.7042   -6.0542    0.0000 C   0  0  0  0  0  0  0  0  0  0  0  0
  2  1  1  0
  3  1  2  0
  4  1  1  0
  5  2  1  0
  6  2  2  0
  7 10  2  0
  8 13  1  0
  9  7  1  0
 10  6  1  0
 11  5  2  0
 12  4  1  0
 13 12  1  0
 14  8  1  0
 15  8  1  0
 16 14  1  0
 17 15  1  0
  7 11  1  0
M  END
> <chembl_id>
CHEMBL640

> <chembl_pref_name>
PROCAINAMIDE
