
     RDKit          2D

 12 10  0  0  0  0  0  0  0  0999 V2000
    0.5303   -1.6500    0.0000 O   0  0  0  0  0  0  0  0  0  0  0  0
    0.0000   -2.2820    0.0000 B   0  0  0  0  0  0  0  0  0  0  0  0
   -0.5303   -1.6500    0.0000 O   0  0  0  0  0  0  0  0  0  0  0  0
    0.7145   -2.6945    0.0000 O   0  0  0  0  0  0  0  0  0  0  0  0
    0.7145   -3.5195    0.0000 O   0  0  0  0  0  0  0  0  0  0  0  0
    0.0000   -3.9320    0.0000 B   0  0  0  0  0  0  0  0  0  0  0  0
    0.5303   -4.5640    0.0000 O   0  0  0  0  0  0  0  0  0  0  0  0
   -0.5303   -4.5640    0.0000 O   0  0  0  0  0  0  0  0  0  0  0  0
   -0.7145   -3.5195    0.0000 O   0  0  0  0  0  0  0  0  0  0  0  0
   -0.7145   -2.6945    0.0000 O   0  0  0  0  0  0  0  0  0  0  0  0
    0.0000    0.0000    0.0000 Na  0  0  0  0  0 15  0  0  0  0  0  0
    1.0018    0.0000    0.0000 Na  0  0  0  0  0 15  0  0  0  0  0  0
  1  2  1  0
  2  3  1  0
  2  4  1  0
  4  5  1  0
  5  6  1  0
  6  7  1  0
  6  8  1  0
  6  9  1  0
  9 10  1  0
  2 10  1  0
M  CHG  4   2  -1   6  -1  11   1  12   1
M  END
> <chembl_id>
CHEMBL3707333

> <chembl_pref_name>
SODIUM PERBORATE
