
     RDKit          2D

 14 13  0  0  0  0  0  0  0  0999 V2000
    1.7750   -1.0292    0.0000 Na  0  0  0  0  0 15  0  0  0  0  0  0
    0.5167   -1.2250    0.0000 N   0  0  0  0  0  0  0  0  0  0  0  0
   -0.6833   -1.2250    0.0000 N   0  0  0  0  0  0  0  0  0  0  0  0
    0.5167   -1.9125    0.0000 C   0  0  0  0  0  0  0  0  0  0  0  0
   -0.0833   -0.8792    0.0000 C   0  0  0  0  0  0  0  0  0  0  0  0
   -0.0833   -2.2542    0.0000 C   0  0  0  0  0  0  0  0  0  0  0  0
   -0.6833   -1.9125    0.0000 C   0  0  0  0  0  0  0  0  0  0  0  0
    1.1167   -2.2542    0.0000 O   0  0  0  0  0  0  0  0  0  0  0  0
   -1.2833   -2.2667    0.0000 O   0  0  0  0  0  0  0  0  0  0  0  0
   -0.0833   -0.1917    0.0000 O   0  0  0  0  0  0  0  0  0  0  0  0
    0.4875   -2.6125    0.0000 C   0  0  0  0  0  0  0  0  0  0  0  0
   -0.6583   -2.6042    0.0000 C   0  0  0  0  0  0  0  0  0  0  0  0
    0.4875   -3.2417    0.0000 C   0  0  0  0  0  0  0  0  0  0  0  0
   -0.6583   -3.2417    0.0000 C   0  0  0  0  0  0  0  0  0  0  0  0
  3  5  1  0
  4  2  1  0
  5  2  1  0
  6  4  1  0
  7  3  1  0
  8  4  2  0
  9  7  2  0
 10  5  2  0
 11  6  1  0
 12  6  1  0
 13 11  1  0
 14 12  1  0
  6  7  1  0
M  CHG  2   1   1   2  -1
M  END
> <chembl_id>
CHEMBL2105904

> <chembl_pref_name>
BARBITAL SODIUM
