
     RDKit          2D

 12 11  0  0  0  0  0  0  0  0999 V2000
    4.6125   -5.3667    0.0000 P   0  0  0  0  0  0  0  0  0  0  0  0
    4.2542   -5.9792    0.0000 O   0  0  0  0  0  0  0  0  0  0  0  0
    4.0000   -5.0167    0.0000 S   0  0  0  0  0  0  0  0  0  0  0  0
    4.9625   -5.9792    0.0000 O   0  0  0  0  0  0  0  0  0  0  0  0
    5.2250   -5.0167    0.0000 O   0  0  0  0  0  0  0  0  0  0  0  0
    3.3833   -5.3667    0.0000 C   0  0  0  0  0  0  0  0  0  0  0  0
    2.1583   -5.3667    0.0000 N   0  0  0  0  0  0  0  0  0  0  0  0
   -0.2958   -5.3667    0.0000 N   0  0  0  0  0  0  0  0  0  0  0  0
    0.9292   -5.3667    0.0000 C   0  0  0  0  0  0  0  0  0  0  0  0
    2.7708   -5.0167    0.0000 C   0  0  0  0  0  0  0  0  0  0  0  0
    1.5458   -5.0167    0.0000 C   0  0  0  0  0  0  0  0  0  0  0  0
    0.3167   -5.0167    0.0000 C   0  0  0  0  0  0  0  0  0  0  0  0
  2  1  2  0
  3  1  1  0
  4  1  1  0
  5  1  1  0
  6  3  1  0
  7 10  1  0
  8 12  1  0
  9 11  1  0
 10  6  1  0
 11  7  1  0
 12  9  1  0
M  END
> <chembl_id>
CHEMBL1006

> <chembl_pref_name>
AMIFOSTINE
