
     RDKit          2D

 43 48  0  0  0  0  0  0  0  0999 V2000
   12.0311   -6.0229    0.0000 C   0  0  0  0  0  0  0  0  0  0  0  0
   12.0311   -6.8486    0.0000 C   0  0  0  0  0  0  0  0  0  0  0  0
   12.7447   -7.2615    0.0000 C   0  0  0  0  0  0  0  0  0  0  0  0
   13.4581   -6.8486    0.0000 C   0  0  0  0  0  0  0  0  0  0  0  0
   13.4581   -6.0229    0.0000 C   0  0  0  0  0  0  0  0  0  0  0  0
   12.7447   -5.6100    0.0000 C   0  0  0  0  0  0  0  0  0  0  0  0
    5.7266   -9.2043    0.0000 C   0  0  0  0  0  0  0  0  0  0  0  0
    5.7266  -10.0300    0.0000 C   0  0  0  0  0  0  0  0  0  0  0  0
    6.4400  -10.4428    0.0000 C   0  0  0  0  0  0  0  0  0  0  0  0
    6.4400   -8.7915    0.0000 C   0  0  0  0  0  0  0  0  0  0  0  0
    7.1534   -9.2043    0.0000 C   0  0  0  0  0  0  0  0  0  0  0  0
    7.1499  -10.0300    0.0000 C   0  0  0  0  0  0  0  0  0  0  0  0
    7.8594  -10.4435    0.0000 C   0  0  0  0  0  0  0  0  0  0  0  0
    8.5768  -10.0361    0.0000 C   0  0  0  0  0  0  0  0  0  0  0  0
    7.8664   -8.7922    0.0000 C   0  0  0  0  0  0  0  0  0  0  0  0
    8.5780   -9.2118    0.0000 C   0  0  0  0  0  0  0  0  0  0  0  0
    8.5916   -7.5623    0.0000 C   0  0  0  0  0  0  0  0  0  0  0  0
    7.8700   -7.9682    0.0000 C   0  0  0  0  0  0  0  0  0  0  0  0
    9.3032   -7.9820    0.0000 C   0  0  0  0  0  0  0  0  0  0  0  0
    9.2948   -8.8059    0.0000 C   0  0  0  0  0  0  0  0  0  0  0  0
   10.0759   -9.0686    0.0000 C   0  0  0  0  0  0  0  0  0  0  0  0
   10.0895   -7.7355    0.0000 C   0  0  0  0  0  0  0  0  0  0  0  0
   10.5686   -8.4026    0.0000 C   0  0  0  0  0  0  0  0  0  0  0  0
   11.3512   -8.1531    0.0000 O   0  0  0  0  0  0  0  0  0  0  0  0
   11.3557   -7.3318    0.0000 C   0  0  0  0  0  0  0  0  0  0  0  0
   10.5760   -7.0737    0.0000 O   0  0  0  0  0  0  0  0  0  0  0  0
    5.0113  -10.4425    0.0000 O   0  0  0  0  0  0  0  0  0  0  0  0
    7.8589   -9.6172    0.0000 H   0  0  0  0  0  0  0  0  0  0  0  0
    9.2869   -9.6268    0.0000 H   0  0  0  0  0  0  0  0  0  0  0  0
   11.1472   -8.9809    0.0000 H   0  0  0  0  0  0  0  0  0  0  0  0
    7.1449   -8.3786    0.0000 C   0  0  0  0  0  0  0  0  0  0  0  0
    8.5729   -8.3835    0.0000 H   0  0  0  0  0  0  0  0  0  0  0  0
    7.1581   -7.5499    0.0000 O   0  0  0  0  0  0  0  0  0  0  0  0
    9.2966   -7.1546    0.0000 C   0  0  0  0  0  0  0  0  0  0  0  0
   10.0834   -6.9069    0.0000 C   0  0  0  0  0  0  0  0  0  0  0  0
   10.7955   -6.4888    0.0000 O   0  0  0  0  0  0  0  0  0  0  0  0
    9.3654   -6.4992    0.0000 C   0  0  0  0  0  0  0  0  0  0  0  0
    9.3593   -5.6735    0.0000 O   0  0  0  0  0  0  0  0  0  0  0  0
    8.6412   -5.2659    0.0000 C   0  0  0  0  0  0  0  0  0  0  0  0
    8.6352   -4.4402    0.0000 O   0  0  0  0  0  0  0  0  0  0  0  0
    7.9292   -5.6840    0.0000 C   0  0  0  0  0  0  0  0  0  0  0  0
    7.2111   -5.2764    0.0000 C   0  0  0  0  0  0  0  0  0  0  0  0
    7.9353   -6.5097    0.0000 C   0  0  0  0  0  0  0  0  0  0  0  0
  9 12  2  0
 20 21  1  0
 21 23  1  0
 22 19  1  0
 22 23  1  0
 11 10  1  0
 11 12  1  0
  3  4  1  0
  4  5  1  0
  5  6  1  0
 23 24  1  0
 24 25  1  0
 25 26  1  0
 26 22  1  0
 25  2  1  6
  7  8  1  0
  8 27  2  0
 11 15  1  0
 15 28  1  6
 12 13  1  0
 20 29  1  6
 13 14  1  0
 23 30  1  1
 14 16  1  0
 11 31  1  1
 15 16  1  0
 16 32  1  1
 18 33  1  1
  1  2  1  0
 19 34  1  1
  1  6  1  0
 22 35  1  1
  2  3  1  0
 35 36  2  0
 15 18  1  0
 35 37  1  0
 16 20  1  0
 37 38  1  0
 19 17  1  0
 38 39  1  0
 17 18  1  0
 39 40  2  0
 19 20  1  0
 39 41  1  0
  7 10  2  0
 41 42  1  0
  8  9  1  0
 41 43  1  0
M  END
> <chembl_id>
CHEMBL2040682

> <chembl_pref_name>
CICLESONIDE
