
     RDKit          2D

 18 19  0  0  0  0  0  0  0  0999 V2000
    3.1917    1.2375    0.0000 C   0  0  0  0  0  0  0  0  0  0  0  0
   -3.4000   -0.7417    0.0000 C   0  0  0  0  0  0  0  0  0  0  0  0
    2.6417    0.3083    0.0000 C   0  0  0  0  0  0  0  0  0  0  0  0
   -2.3208   -0.6292    0.0000 C   0  0  0  0  0  0  0  0  0  0  0  0
    1.5625    0.3083    0.0000 C   0  0  0  0  0  0  0  0  0  0  0  0
   -1.7583    0.3083    0.0000 C   0  0  0  0  0  0  0  0  0  0  0  0
    2.6750    2.2083    0.0000 O   0  0  0  0  0  0  0  0  0  0  0  0
   -4.1458    0.0625    0.0000 O   0  0  0  0  0  0  0  0  0  0  0  0
    0.9917   -0.6375    0.0000 C   0  0  0  0  0  0  0  0  0  0  0  0
    0.9917    1.2625    0.0000 C   0  0  0  0  0  0  0  0  0  0  0  0
   -0.6583    0.3083    0.0000 C   0  0  0  0  0  0  0  0  0  0  0  0
    4.2167    1.1208    0.0000 O   0  0  0  0  0  0  0  0  0  0  0  0
   -0.1208   -0.6375    0.0000 C   0  0  0  0  0  0  0  0  0  0  0  0
   -0.1208    1.2708    0.0000 C   0  0  0  0  0  0  0  0  0  0  0  0
   -3.6458   -1.8250    0.0000 C   0  0  0  0  0  0  0  0  0  0  0  0
   -2.6833   -2.3792    0.0000 C   0  0  0  0  0  0  0  0  0  0  0  0
   -1.8708   -1.6417    0.0000 C   0  0  0  0  0  0  0  0  0  0  0  0
    3.1667   -0.6292    0.0000 C   0  0  0  0  0  0  0  0  0  0  0  0
  2  4  1  0
  3  1  1  0
  4  6  1  0
  5  3  1  0
  6 11  1  0
  7  1  2  0
  8  2  2  0
  9  5  2  0
 10  5  1  0
 11 14  1  0
 12  1  1  0
 13  9  1  0
 14 10  2  0
 15  2  1  0
 16 17  1  0
 17  4  1  0
 18  3  1  0
 11 13  2  0
 15 16  1  0
M  END
> <chembl_id>
CHEMBL19299

> <chembl_pref_name>
LOXOPROFEN
