
     RDKit          2D

 21 22  0  0  1  0  0  0  0  0999 V2000
    0.0292    0.2208    0.0000 C   0  0  0  0  0  0  0  0  0  0  0  0
    0.7417    0.6458    0.0000 N   0  0  0  0  0  0  0  0  0  0  0  0
    1.4750    0.2250    0.0000 C   0  0  0  0  0  0  0  0  0  0  0  0
   -1.4083    0.2208    0.0000 N   0  0  0  0  0  0  0  0  0  0  0  0
   -0.6875    0.6333    0.0000 C   0  0  0  0  0  0  0  0  0  0  0  0
    0.0292   -0.6167    0.0000 O   0  0  0  0  0  0  0  0  0  0  0  0
    1.4750   -0.6042    0.0000 C   0  0  0  0  0  0  0  0  0  0  0  0
    2.1792    0.6583    0.0000 C   0  0  0  0  0  0  0  0  0  0  0  0
   -1.4125   -0.6167    0.0000 C   0  0  0  0  0  0  0  0  0  0  0  0
   -2.1250    0.6333    0.0000 C   0  0  0  0  0  0  0  0  0  0  0  0
    2.9125   -0.6000    0.0000 C   0  0  0  0  0  0  0  0  0  0  0  0
   -0.6875    1.4625    0.0000 C   0  0  0  0  0  0  0  0  0  0  0  0
    2.9042    0.2333    0.0000 C   0  0  0  0  0  0  0  0  0  0  0  0
    2.1875   -1.0167    0.0000 C   0  0  0  0  0  0  0  0  0  0  0  0
    2.1667    1.4458    0.0000 C   0  0  0  0  0  0  0  0  0  0  0  0
    0.8417   -1.0125    0.0000 C   0  0  0  0  0  0  0  0  0  0  0  0
   -2.1375   -1.0292    0.0000 C   0  0  0  0  0  0  0  0  0  0  0  0
   -2.1458   -1.8667    0.0000 C   0  0  0  0  0  0  0  0  0  0  0  0
   -2.1250    1.4625    0.0000 C   0  0  0  0  0  0  0  0  0  0  0  0
   -1.4083    1.8833    0.0000 C   0  0  0  0  0  0  0  0  0  0  0  0
   -2.8625   -2.2792    0.0000 C   0  0  0  0  0  0  0  0  0  0  0  0
  2  1  1  0
  3  2  1  0
  4  5  1  0
  5  1  1  1
  6  1  2  0
  7  3  2  0
  8  3  1  0
  9  4  1  0
 10  4  1  0
 11 13  1  0
 12  5  1  0
 13  8  2  0
 14  7  1  0
 15  8  1  0
 16  7  1  0
 17  9  1  0
 18 17  1  0
 19 20  1  0
 20 12  1  0
 21 18  1  0
 10 19  1  0
 14 11  2  0
M  END
> <chembl_id>
CHEMBL1201193

> <chembl_pref_name>
LEVOBUPIVACAINE
