
     RDKit          2D

 43 42  0  0  0  0  0  0  0  0999 V2000
    8.7375   -8.4917    0.0000 C   0  0  0  0  0  0  0  0  0  0  0  0
    8.1292   -7.4250    0.0000 C   0  0  0  0  0  0  0  0  0  0  0  0
    9.3542   -7.4250    0.0000 C   0  0  0  0  0  0  0  0  0  0  0  0
    8.1375   -8.1417    0.0000 C   0  0  0  0  0  0  0  0  0  0  0  0
    9.3542   -8.1292    0.0000 C   0  0  0  0  0  0  0  0  0  0  0  0
    8.7417   -7.0667    0.0000 C   0  0  0  0  0  0  0  0  0  0  0  0
    8.7625   -9.1917    0.0000 N   0  0  0  0  0  0  0  0  0  0  0  0
    9.9792   -7.0542    0.0000 C   0  0  0  0  0  0  0  0  0  0  0  0
    7.5125   -7.0667    0.0000 N   0  0  0  0  0  0  0  0  0  0  0  0
    8.1375   -9.5542    0.0000 C   0  0  0  0  0  0  0  0  0  0  0  0
    6.8917   -7.4292    0.0000 C   0  0  0  0  0  0  0  0  0  0  0  0
   10.5917   -7.4000    0.0000 O   0  0  0  0  0  0  0  0  0  0  0  0
    7.5167   -8.5042    0.0000 I   0  0  0  0  0  0  0  0  0  0  0  0
    9.9792   -6.3417    0.0000 O   0  0  0  0  0  0  0  0  0  0  0  0
    8.1417  -10.2792    0.0000 O   0  0  0  0  0  0  0  0  0  0  0  0
    8.7417   -6.3542    0.0000 I   0  0  0  0  0  0  0  0  0  0  0  0
    9.9792   -8.4750    0.0000 I   0  0  0  0  0  0  0  0  0  0  0  0
    6.9000   -8.1375    0.0000 O   0  0  0  0  0  0  0  0  0  0  0  0
    9.3792   -9.5542    0.0000 C   0  0  0  0  0  0  0  0  0  0  0  0
    7.5167   -9.2042    0.0000 C   0  0  0  0  0  0  0  0  0  0  0  0
    6.2667   -7.0792    0.0000 C   0  0  0  0  0  0  0  0  0  0  0  0
    3.9917   -6.5250    0.0000 C   0  0  0  0  0  0  0  0  0  0  0  0
    3.3833   -5.4583    0.0000 C   0  0  0  0  0  0  0  0  0  0  0  0
    4.6083   -5.4583    0.0000 C   0  0  0  0  0  0  0  0  0  0  0  0
    3.3917   -6.1750    0.0000 C   0  0  0  0  0  0  0  0  0  0  0  0
    4.6083   -6.1625    0.0000 C   0  0  0  0  0  0  0  0  0  0  0  0
    3.9958   -5.1000    0.0000 C   0  0  0  0  0  0  0  0  0  0  0  0
    4.0167   -7.2250    0.0000 N   0  0  0  0  0  0  0  0  0  0  0  0
    5.2333   -5.0875    0.0000 C   0  0  0  0  0  0  0  0  0  0  0  0
    2.7667   -5.1000    0.0000 N   0  0  0  0  0  0  0  0  0  0  0  0
    3.3917   -7.5875    0.0000 C   0  0  0  0  0  0  0  0  0  0  0  0
    2.1458   -5.4625    0.0000 C   0  0  0  0  0  0  0  0  0  0  0  0
    5.8458   -5.4333    0.0000 O   0  0  0  0  0  0  0  0  0  0  0  0
    2.7708   -6.5375    0.0000 I   0  0  0  0  0  0  0  0  0  0  0  0
    5.2333   -4.3750    0.0000 O   0  0  0  0  0  0  0  0  0  0  0  0
    3.3958   -8.3125    0.0000 O   0  0  0  0  0  0  0  0  0  0  0  0
    3.9958   -4.3875    0.0000 I   0  0  0  0  0  0  0  0  0  0  0  0
    5.2333   -6.5083    0.0000 I   0  0  0  0  0  0  0  0  0  0  0  0
    2.1542   -6.1708    0.0000 O   0  0  0  0  0  0  0  0  0  0  0  0
    4.6333   -7.5875    0.0000 C   0  0  0  0  0  0  0  0  0  0  0  0
    2.7708   -7.2375    0.0000 C   0  0  0  0  0  0  0  0  0  0  0  0
    1.5208   -5.1125    0.0000 C   0  0  0  0  0  0  0  0  0  0  0  0
    6.9417   -5.4833    0.0000 Ca  0  0  0  0  0 15  0  0  0  0  0  0
  2  4  2  0
  3  5  1  0
  4  1  1  0
  5  1  2  0
  6  3  2  0
  7  1  1  0
  8  3  1  0
  9  2  1  0
 10  7  1  0
 11  9  1  0
 12  8  1  0
 13  4  1  0
 14  8  2  0
 15 10  2  0
 16  6  1  0
 17  5  1  0
 18 11  2  0
 19  7  1  0
 20 10  1  0
 21 11  1  0
  2  6  1  0
 42 32  1  0
 23 27  1  0
 23 25  2  0
 24 26  1  0
 25 22  1  0
 26 22  2  0
 27 24  2  0
 28 22  1  0
 29 24  1  0
 30 23  1  0
 31 28  1  0
 32 30  1  0
 33 29  1  0
 34 25  1  0
 35 29  2  0
 36 31  2  0
 37 27  1  0
 38 26  1  0
 39 32  2  0
 40 28  1  0
 41 31  1  0
M  CHG  3  12  -1  33  -1  43   2
M  END
> <chembl_id>
CHEMBL2068723

> <chembl_pref_name>
CALCIUM METRIZOATE
