
     RDKit          2D

 16 17  0  0  0  0  0  0  0  0999 V2000
    2.9125    2.6333    0.0000 C   0  0  0  0  0  0  0  0  0  0  0  0
   -0.6833   -0.8167    0.0000 C   0  0  0  0  0  0  0  0  0  0  0  0
    1.6792    3.3833    0.0000 O   0  0  0  0  0  0  0  0  0  0  0  0
   -1.8708   -1.5042    0.0000 C   0  0  0  0  0  0  0  0  0  0  0  0
    0.5042   -1.5167    0.0000 C   0  0  0  0  0  0  0  0  0  0  0  0
   -0.6875    0.5583    0.0000 C   0  0  0  0  0  0  0  0  0  0  0  0
    2.9125    1.2500    0.0000 C   0  0  0  0  0  0  0  0  0  0  0  0
    1.7167    0.5708    0.0000 C   0  0  0  0  0  0  0  0  0  0  0  0
    4.1250    3.2083    0.0000 O   0  0  0  0  0  0  0  0  0  0  0  0
    0.5042    1.2500    0.0000 C   0  0  0  0  0  0  0  0  0  0  0  0
    1.7125   -0.8167    0.0000 C   0  0  0  0  0  0  0  0  0  0  0  0
   -3.0750   -0.8167    0.0000 C   0  0  0  0  0  0  0  0  0  0  0  0
   -1.8708   -2.8917    0.0000 C   0  0  0  0  0  0  0  0  0  0  0  0
   -4.2708   -1.5042    0.0000 C   0  0  0  0  0  0  0  0  0  0  0  0
   -3.0625   -3.5875    0.0000 C   0  0  0  0  0  0  0  0  0  0  0  0
   -4.2833   -2.9042    0.0000 C   0  0  0  0  0  0  0  0  0  0  0  0
  2  5  2  0
  3  1  2  0
  4  2  1  0
  5 11  1  0
  6 10  2  0
  7  1  1  0
  8  7  1  0
  9  1  1  0
 10  8  1  0
 11  8  2  0
 12  4  2  0
 13  4  1  0
 14 12  1  0
 15 13  2  0
 16 15  1  0
  6  2  1  0
 14 16  2  0
M  END
> <chembl_id>
CHEMBL413965

> <chembl_pref_name>
FELBINAC
