
     RDKit          2D

 21 22  0  0  0  0  0  0  0  0999 V2000
   -1.4776    3.3823    0.0000 Cl  0  0  0  0  0  0  0  0  0  0  0  0
   -0.0486    3.3823    0.0000 Cl  0  0  0  0  0  0  0  0  0  0  0  0
   -0.0486   -1.5677    0.0000 O   0  0  0  0  0  0  0  0  0  0  0  0
   -1.4305   -3.2901    0.0000 O   0  0  0  0  0  0  0  0  0  0  0  0
   -1.4776   -1.5677    0.0000 O   0  0  0  0  0  0  0  0  0  0  0  0
   -1.4776    1.7323    0.0000 O   0  0  0  0  0  0  0  0  0  0  0  0
   -0.0486    1.7323    0.0000 N   0  0  0  0  0  0  0  0  0  0  0  0
   -0.0486    0.9073    0.0000 C   0  0  0  0  0  0  0  0  0  0  0  0
   -0.0486   -0.7427    0.0000 C   0  0  0  0  0  0  0  0  0  0  0  0
   -0.7631   -1.9802    0.0000 C   0  0  0  0  0  0  0  0  0  0  0  0
   -0.7631   -2.8052    0.0000 C   0  0  0  0  0  0  0  0  0  0  0  0
   -0.7631    2.1448    0.0000 C   0  0  0  0  0  0  0  0  0  0  0  0
    0.6658    0.4948    0.0000 C   0  0  0  0  0  0  0  0  0  0  0  0
   -0.7631    0.4948    0.0000 C   0  0  0  0  0  0  0  0  0  0  0  0
    0.6658   -0.3302    0.0000 C   0  0  0  0  0  0  0  0  0  0  0  0
   -0.7631   -0.3302    0.0000 C   0  0  0  0  0  0  0  0  0  0  0  0
   -0.7631    2.9698    0.0000 C   0  0  0  0  0  0  0  0  0  0  0  0
   -0.0957   -3.2901    0.0000 C   0  0  0  0  0  0  0  0  0  0  0  0
    0.6658    2.1448    0.0000 C   0  0  0  0  0  0  0  0  0  0  0  0
   -1.1756   -4.0747    0.0000 C   0  0  0  0  0  0  0  0  0  0  0  0
   -0.3506   -4.0747    0.0000 C   0  0  0  0  0  0  0  0  0  0  0  0
  1 17  1  0
  2 17  1  0
  3  9  1  0
  3 10  1  0
  4 11  1  0
  4 20  1  0
  5 10  2  0
  6 12  2  0
  7  8  1  0
  7 12  1  0
  7 19  1  0
  8 13  2  0
  8 14  1  0
  9 15  2  0
  9 16  1  0
 10 11  1  0
 11 18  2  0
 12 17  1  0
 13 15  1  0
 14 16  2  0
 18 21  1  0
 20 21  2  0
M  END
> <chembl_id>
CHEMBL1334860

> <chembl_pref_name>
DILOXANIDE FUROATE
