
     RDKit          2D

 45 49  0  0  0  0  0  0  0  0999 V2000
    3.4917   -7.3417    0.0000 Br  0  0  0  0  0  0  0  0  0  0  0  0
    2.3125   -5.7917    0.0000 C   0  0  0  0  0  0  0  0  0  0  0  0
    0.4667   -6.8417    0.0000 C   0  0  0  0  0  0  0  0  0  0  0  0
    2.3042   -6.4958    0.0000 C   0  0  0  0  0  0  0  0  0  0  0  0
    2.9875   -5.5792    0.0000 C   0  0  0  0  0  0  0  0  0  0  0  0
    3.3958   -6.1542    0.0000 C   0  0  0  0  0  0  0  0  0  0  0  0
    1.0792   -6.4875    0.0000 C   0  0  0  0  0  0  0  0  0  0  0  0
    1.6917   -6.8458    0.0000 C   0  0  0  0  0  0  0  0  0  0  0  0
    4.1000   -6.1625    0.0000 N   0  0  0  0  0  0  0  0  0  0  0  0
   -0.7583   -6.8417    0.0000 C   0  0  0  0  0  0  0  0  0  0  0  0
   -0.7583   -7.5500    0.0000 C   0  0  0  0  0  0  0  0  0  0  0  0
    2.9750   -6.7250    0.0000 C   0  0  0  0  0  0  0  0  0  0  0  0
   -0.1458   -6.4875    0.0000 C   0  0  0  0  0  0  0  0  0  0  0  0
    0.4667   -7.5500    0.0000 C   0  0  0  0  0  0  0  0  0  0  0  0
   -1.3708   -6.4875    0.0000 N   0  0  0  0  0  0  0  0  0  0  0  0
    1.7000   -5.4292    0.0000 C   0  0  0  0  0  0  0  0  0  0  0  0
    2.9792   -4.8667    0.0000 O   0  0  0  0  0  0  0  0  0  0  0  0
   -0.1458   -7.9042    0.0000 C   0  0  0  0  0  0  0  0  0  0  0  0
    1.0833   -5.7792    0.0000 C   0  0  0  0  0  0  0  0  0  0  0  0
   -1.3708   -7.9000    0.0000 O   0  0  0  0  0  0  0  0  0  0  0  0
    1.6875   -7.5542    0.0000 C   0  0  0  0  0  0  0  0  0  0  0  0
    3.5917   -4.5083    0.0000 C   0  0  0  0  0  0  0  0  0  0  0  0
   -1.3708   -8.6083    0.0000 C   0  0  0  0  0  0  0  0  0  0  0  0
    1.0750   -7.9042    0.0000 C   0  0  0  0  0  0  0  0  0  0  0  0
   -0.7583   -8.9667    0.0000 O   0  0  0  0  0  0  0  0  0  0  0  0
    3.5875   -3.8000    0.0000 O   0  0  0  0  0  0  0  0  0  0  0  0
    2.3042   -5.0792    0.0000 C   0  0  0  0  0  0  0  0  0  0  0  0
    0.4625   -6.1292    0.0000 C   0  0  0  0  0  0  0  0  0  0  0  0
    3.7417   -5.5417    0.0000 C   0  0  0  0  0  0  0  0  0  0  0  0
    4.4583   -5.5542    0.0000 C   0  0  0  0  0  0  0  0  0  0  0  0
    4.4500   -6.7792    0.0000 C   0  0  0  0  0  0  0  0  0  0  0  0
   -1.3708   -5.7750    0.0000 C   0  0  0  0  0  0  0  0  0  0  0  0
   -1.9833   -6.8417    0.0000 C   0  0  0  0  0  0  0  0  0  0  0  0
    4.2083   -4.8583    0.0000 C   0  0  0  0  0  0  0  0  0  0  0  0
   -1.9833   -8.9625    0.0000 C   0  0  0  0  0  0  0  0  0  0  0  0
    5.1542   -6.7875    0.0000 C   0  0  0  0  0  0  0  0  0  0  0  0
    5.1708   -5.5625    0.0000 C   0  0  0  0  0  0  0  0  0  0  0  0
   -1.9792   -5.4250    0.0000 C   0  0  0  0  0  0  0  0  0  0  0  0
   -2.5958   -6.4833    0.0000 C   0  0  0  0  0  0  0  0  0  0  0  0
   -2.5958   -5.7750    0.0000 C   0  0  0  0  0  0  0  0  0  0  0  0
    5.5167   -6.1792    0.0000 C   0  0  0  0  0  0  0  0  0  0  0  0
    1.6875   -6.1375    0.0000 H   0  0  0  0  0  0  0  0  0  0  0  0
    0.4625   -8.2542    0.0000 H   0  0  0  0  0  0  0  0  0  0  0  0
    1.0750   -7.1917    0.0000 H   0  0  0  0  0  0  0  0  0  0  0  0
    2.3000   -7.2042    0.0000 H   0  0  0  0  0  0  0  0  0  0  0  0
  3  7  1  0
  4  2  1  0
  5  2  1  0
  6  5  1  0
  7  8  1  0
  8  4  1  0
  6  9  1  1
 10 13  1  0
 11 18  1  0
 12  4  1  0
 13  3  1  0
 14  3  1  0
 10 15  1  1
 16  2  1  0
  5 17  1  1
 18 14  1  0
 19 16  1  0
 11 20  1  6
 21  8  1  0
 22 17  1  0
 23 20  1  0
 24 21  1  0
 25 23  2  0
 26 22  2  0
  2 27  1  1
  3 28  1  1
 29  9  1  0
 30  9  1  0
 31  9  1  0
 32 15  1  0
 33 15  1  0
 34 22  1  0
 35 23  1  0
 36 31  1  0
 37 30  1  0
 38 32  1  0
 39 33  1  0
 40 39  1  0
 41 36  1  0
  8 42  1  1
 14 43  1  6
  7 44  1  6
  4 45  1  6
  6 12  1  0
 19  7  1  0
 24 14  1  0
 37 41  1  0
 11 10  1  0
 40 38  1  0
M  CHG  2   1  -1   9   1
M  END
> <chembl_id>
CHEMBL1200629

> <chembl_pref_name>
VECURONIUM BROMIDE
