
     RDKit          2D

 28 28  0  0  0  0  0  0  0  0999 V2000
    6.2792   -8.0833    0.0000 Na  0  0  0  0  0 15  0  0  0  0  0  0
    2.1750   -6.2500    0.0000 N   0  0  0  0  0  0  0  0  0  0  0  0
    2.9750   -6.4625    0.0000 C   0  0  0  0  0  0  0  0  0  0  0  0
    2.3917   -5.4542    0.0000 C   0  0  0  0  0  0  0  0  0  0  0  0
    3.1875   -5.6667    0.0000 C   0  0  0  0  0  0  0  0  0  0  0  0
    1.7292   -6.9417    0.0000 C   0  0  0  0  0  0  0  0  0  0  0  0
    3.0167   -7.2875    0.0000 S   0  0  0  0  0  0  0  0  0  0  0  0
    2.2458   -7.5833    0.0000 C   0  0  0  0  0  0  0  0  0  0  0  0
    3.9000   -4.4292    0.0000 C   0  0  0  0  0  0  0  0  0  0  0  0
    3.9000   -5.2542    0.0000 N   0  0  0  0  0  0  0  0  0  0  0  0
    4.6167   -4.0167    0.0000 C   0  0  0  0  0  0  0  0  0  0  0  0
    0.9042   -6.9875    0.0000 C   0  0  0  0  0  0  0  0  0  0  0  0
    5.3292   -4.4292    0.0000 C   0  0  0  0  0  0  0  0  0  0  0  0
    4.6167   -3.1917    0.0000 C   0  0  0  0  0  0  0  0  0  0  0  0
    1.9792   -4.7375    0.0000 O   0  0  0  0  0  0  0  0  0  0  0  0
    5.0292   -1.9208    0.0000 S   0  0  0  0  0  0  0  0  0  0  0  0
    3.1875   -4.0167    0.0000 O   0  0  0  0  0  0  0  0  0  0  0  0
    5.2833   -2.7083    0.0000 C   0  0  0  0  0  0  0  0  0  0  0  0
    0.5292   -7.7208    0.0000 O   0  0  0  0  0  0  0  0  0  0  0  0
    6.0458   -4.0167    0.0000 O   0  0  0  0  0  0  0  0  0  0  0  0
    3.9500   -2.7083    0.0000 C   0  0  0  0  0  0  0  0  0  0  0  0
    4.2042   -1.9208    0.0000 C   0  0  0  0  0  0  0  0  0  0  0  0
    0.4542   -6.2958    0.0000 O   0  0  0  0  0  0  0  0  0  0  0  0
    5.3292   -5.2542    0.0000 O   0  0  0  0  0  0  0  0  0  0  0  0
    1.6708   -8.1750    0.0000 C   0  0  0  0  0  0  0  0  0  0  0  0
    2.4500   -8.3833    0.0000 C   0  0  0  0  0  0  0  0  0  0  0  0
    3.9695   -6.5675    0.0000 H   0  0  0  0  0  0  0  0  0  0  0  0
    8.2833   -5.2750    0.0000 Na  0  0  0  0  0 15  0  0  0  0  0  0
  3  2  1  0
  4  2  1  0
  5  4  1  0
  6  2  1  0
  3  7  1  0
  8  6  1  0
  9 10  1  0
  5 10  1  1
 11  9  1  1
  6 12  1  6
 13 11  1  0
 14 11  1  0
 15  4  2  0
 16 18  1  0
 17  9  2  0
 18 14  2  0
 19 12  1  0
 20 13  1  0
 21 14  1  0
 22 21  2  0
 23 12  2  0
 24 13  2  0
 25  8  1  0
 26  8  1  0
  5  3  1  0
  8  7  1  0
 22 16  1  0
  3 27  1  6
M  CHG  4   1   1  19  -1  20  -1  28   1
M  END
> <chembl_id>
CHEMBL1200855

> <chembl_pref_name>
TICARCILLIN DISODIUM
