
     RDKit          2D

 26 27  0  0  0  0  0  0  0  0999 V2000
    0.1000    1.3833    0.0000 C   0  0  0  0  0  0  0  0  0  0  0  0
    1.0167   -0.2167    0.0000 C   0  0  0  0  0  0  0  0  0  0  0  0
    0.1000    0.3208    0.0000 C   0  0  0  0  0  0  0  0  0  0  0  0
    1.0042    1.9333    0.0000 C   0  0  0  0  0  0  0  0  0  0  0  0
    1.9375    0.3208    0.0000 C   0  0  0  0  0  0  0  0  0  0  0  0
    1.9375    1.3958    0.0000 N   0  0  0  0  0  0  0  0  0  0  0  0
   -1.7583   -2.8167    0.0000 N   0  0  0  0  0  0  0  0  0  0  0  0
   -0.8333   -0.1792    0.0000 C   0  0  0  0  0  0  0  0  0  0  0  0
    1.0167   -1.2792    0.0000 C   0  0  0  0  0  0  0  0  0  0  0  0
   -1.0000    2.0250    0.0000 C   0  0  0  0  0  0  0  0  0  0  0  0
   -1.7583   -1.7625    0.0000 C   0  0  0  0  0  0  0  0  0  0  0  0
   -0.8333   -1.2542    0.0000 C   0  0  0  0  0  0  0  0  0  0  0  0
   -0.8458   -3.3167    0.0000 O   0  0  0  0  0  0  0  0  0  0  0  0
   -2.6625   -3.3292    0.0000 O   0  0  0  0  0  0  0  0  0  0  0  0
   -1.8833    1.4958    0.0000 O   0  0  0  0  0  0  0  0  0  0  0  0
    1.9375   -1.7625    0.0000 O   0  0  0  0  0  0  0  0  0  0  0  0
    0.1250   -1.8042    0.0000 O   0  0  0  0  0  0  0  0  0  0  0  0
   -1.0000    3.1083    0.0000 O   0  0  0  0  0  0  0  0  0  0  0  0
    1.0042    2.9875    0.0000 C   0  0  0  0  0  0  0  0  0  0  0  0
    2.8542   -0.1792    0.0000 C   0  0  0  0  0  0  0  0  0  0  0  0
   -1.7583    0.3625    0.0000 C   0  0  0  0  0  0  0  0  0  0  0  0
   -2.6750   -1.2375    0.0000 C   0  0  0  0  0  0  0  0  0  0  0  0
   -2.6875   -0.1792    0.0000 C   0  0  0  0  0  0  0  0  0  0  0  0
   -1.9750    3.5958    0.0000 C   0  0  0  0  0  0  0  0  0  0  0  0
    0.1542   -2.8625    0.0000 C   0  0  0  0  0  0  0  0  0  0  0  0
   -2.8458    3.1083    0.0000 C   0  0  0  0  0  0  0  0  0  0  0  0
  2  3  1  0
  3  1  1  0
  4  1  2  0
  5  6  1  0
  6  4  1  0
  7 11  1  0
  8  3  1  0
  9  2  1  0
 10  1  1  0
 11 12  2  0
 12  8  1  0
 13  7  1  0
 14  7  2  0
 15 10  2  0
 16  9  2  0
 17  9  1  0
 18 10  1  0
 19  4  1  0
 20  5  1  0
 21  8  2  0
 22 23  2  0
 23 21  1  0
 24 18  1  0
 25 17  1  0
 26 24  1  0
  2  5  2  0
 11 22  1  0
M  CHG  2   7   1  13  -1
M  END
> <chembl_id>
CHEMBL475534

> <chembl_pref_name>
NITRENDIPINE
