
     RDKit          2D

 24 25  0  0  0  0  0  0  0  0999 V2000
    4.5250   -6.5625    0.0000 Cl  0  0  0  0  0  0  0  0  0  0  0  0
    4.0917   -5.3667    0.0000 C   0  0  0  0  0  0  0  0  0  0  0  0
    6.5500   -5.3667    0.0000 N   0  0  0  0  0  0  0  0  0  0  0  0
    3.4792   -5.7167    0.0000 C   0  0  0  0  0  0  0  0  0  0  0  0
    4.4542   -4.7667    0.0000 C   0  0  0  0  0  0  0  0  0  0  0  0
    3.6500   -4.8125    0.0000 O   0  0  0  0  0  0  0  0  0  0  0  0
    4.7042   -5.7250    0.0000 C   0  0  0  0  0  0  0  0  0  0  0  0
    5.9292   -5.7292    0.0000 C   0  0  0  0  0  0  0  0  0  0  0  0
    5.3167   -5.3750    0.0000 C   0  0  0  0  0  0  0  0  0  0  0  0
    6.5542   -4.6625    0.0000 C   0  0  0  0  0  0  0  0  0  0  0  0
    7.1667   -5.7292    0.0000 C   0  0  0  0  0  0  0  0  0  0  0  0
    5.1542   -4.7750    0.0000 C   0  0  0  0  0  0  0  0  0  0  0  0
    4.1125   -4.1417    0.0000 C   0  0  0  0  0  0  0  0  0  0  0  0
    3.4792   -6.4417    0.0000 C   0  0  0  0  0  0  0  0  0  0  0  0
    2.8542   -5.3667    0.0000 C   0  0  0  0  0  0  0  0  0  0  0  0
    7.1667   -4.3042    0.0000 C   0  0  0  0  0  0  0  0  0  0  0  0
    7.7792   -5.3750    0.0000 C   0  0  0  0  0  0  0  0  0  0  0  0
    4.4542   -3.5375    0.0000 C   0  0  0  0  0  0  0  0  0  0  0  0
    2.8625   -6.7917    0.0000 C   0  0  0  0  0  0  0  0  0  0  0  0
    2.2417   -5.7250    0.0000 C   0  0  0  0  0  0  0  0  0  0  0  0
    5.5167   -4.1625    0.0000 C   0  0  0  0  0  0  0  0  0  0  0  0
    2.2417   -6.4375    0.0000 C   0  0  0  0  0  0  0  0  0  0  0  0
    5.1750   -3.5417    0.0000 C   0  0  0  0  0  0  0  0  0  0  0  0
    7.7875   -4.6625    0.0000 C   0  0  0  0  0  0  0  0  0  0  0  0
  3  8  1  0
  4  2  1  0
  5  2  1  0
  6  2  1  0
  7  2  1  0
  8  9  1  0
  9  7  1  0
 10  3  1  0
 11  3  1  0
 12  5  2  0
 13  5  1  0
 14  4  1  0
 15  4  2  0
 16 10  1  0
 17 11  1  0
 18 13  2  0
 19 14  2  0
 20 15  1  0
 21 12  1  0
 22 19  1  0
 23 18  1  0
 24 16  1  0
 23 21  2  0
 22 20  2  0
 24 17  1  0
M  END
> <chembl_id>
CHEMBL1529

> <chembl_pref_name>
DIPHENIDOL HYDROCHLORIDE
