
     RDKit          2D

 23 24  0  0  0  0  0  0  0  0999 V2000
   -0.5958    0.7125    0.0000 C   0  0  0  0  0  0  0  0  0  0  0  0
   -0.5958    1.9625    0.0000 C   0  0  0  0  0  0  0  0  0  0  0  0
    0.6500    0.7125    0.0000 C   0  0  0  0  0  0  0  0  0  0  0  0
    2.5375    1.7875    0.0000 N   0  0  0  0  0  0  0  0  0  0  0  0
   -1.8458    0.7125    0.0000 C   0  0  0  0  0  0  0  0  0  0  0  0
   -0.5958   -0.5292    0.0000 C   0  0  0  0  0  0  0  0  0  0  0  0
    0.5042    2.5708    0.0000 O   0  0  0  0  0  0  0  0  0  0  0  0
    1.2917    1.7875    0.0000 C   0  0  0  0  0  0  0  0  0  0  0  0
   -1.6708    2.6000    0.0000 N   0  0  0  0  0  0  0  0  0  0  0  0
    3.7292    1.8000    0.0000 C   0  0  0  0  0  0  0  0  0  0  0  0
    2.5250    0.5583    0.0000 C   0  0  0  0  0  0  0  0  0  0  0  0
    2.5375    3.0458    0.0000 C   0  0  0  0  0  0  0  0  0  0  0  0
   -2.4833   -0.3542    0.0000 C   0  0  0  0  0  0  0  0  0  0  0  0
    0.5042   -1.1417    0.0000 C   0  0  0  0  0  0  0  0  0  0  0  0
   -1.6708   -1.1750    0.0000 C   0  0  0  0  0  0  0  0  0  0  0  0
   -2.4583    1.8208    0.0000 C   0  0  0  0  0  0  0  0  0  0  0  0
    4.3417    0.7000    0.0000 C   0  0  0  0  0  0  0  0  0  0  0  0
   -1.6708   -2.4167    0.0000 C   0  0  0  0  0  0  0  0  0  0  0  0
   -3.7083    1.8208    0.0000 C   0  0  0  0  0  0  0  0  0  0  0  0
   -3.7375   -0.3542    0.0000 C   0  0  0  0  0  0  0  0  0  0  0  0
    0.5042   -2.3917    0.0000 C   0  0  0  0  0  0  0  0  0  0  0  0
   -0.5958   -3.0292    0.0000 C   0  0  0  0  0  0  0  0  0  0  0  0
   -4.3458    0.7458    0.0000 C   0  0  0  0  0  0  0  0  0  0  0  0
  2  1  1  0
  3  1  1  0
  4  8  1  0
  5  1  1  0
  6  1  1  0
  7  2  2  0
  8  3  1  0
  9  2  1  0
 10  4  1  0
 11  4  1  0
 12  4  1  0
 13  5  1  0
 14  6  1  0
 15  6  2  0
 16  5  2  0
 17 10  1  0
 18 15  1  0
 19 16  1  0
 20 13  2  0
 21 14  2  0
 22 18  2  0
 23 20  1  0
 21 22  1  0
 19 23  2  0
M  CHG  1   4   1
M  END
> <chembl_id>
CHEMBL2110771

> <chembl_pref_name>
AMBUTONIUM
