
     RDKit          2D

 11 11  0  0  0  0  0  0  0  0999 V2000
   -0.0458   -0.0792    0.0000 C   0  0  0  0  0  0  0  0  0  0  0  0
    1.1792    0.6458    0.0000 C   0  0  0  0  0  0  0  0  0  0  0  0
   -1.2833    0.6250    0.0000 C   0  0  0  0  0  0  0  0  0  0  0  0
    1.1917    2.0708    0.0000 O   0  0  0  0  0  0  0  0  0  0  0  0
    2.4292   -0.0792    0.0000 O   0  0  0  0  0  0  0  0  0  0  0  0
   -1.2833    2.0708    0.0000 O   0  0  0  0  0  0  0  0  0  0  0  0
   -0.0333   -1.5167    0.0000 C   0  0  0  0  0  0  0  0  0  0  0  0
   -2.5375   -0.0917    0.0000 C   0  0  0  0  0  0  0  0  0  0  0  0
    2.4542   -1.4917    0.0000 C   0  0  0  0  0  0  0  0  0  0  0  0
   -1.2833   -2.2292    0.0000 C   0  0  0  0  0  0  0  0  0  0  0  0
   -2.5208   -1.5375    0.0000 C   0  0  0  0  0  0  0  0  0  0  0  0
  2  1  1  0
  3  1  2  0
  4  2  2  0
  5  2  1  0
  6  3  1  0
  7  1  1  0
  8  3  1  0
  9  5  1  0
 10  7  2  0
 11 10  1  0
  8 11  2  0
M  END
> <chembl_id>
CHEMBL108545

> <chembl_pref_name>
METHYL SALICYLATE
