
     RDKit          2D

 20 19  0  0  0  0  0  0  0  0999 V2000
    0.7375    0.8458    0.0000 C   0  0  0  0  0  0  0  0  0  0  0  0
   -0.6583   -0.7917    0.0000 C   0  0  0  0  0  0  0  0  0  0  0  0
    3.5417    0.8625    0.0000 N   0  0  0  0  0  0  0  0  0  0  0  0
   -3.4833   -0.7917    0.0000 N   0  0  0  0  0  0  0  0  0  0  0  0
   -0.6583   -1.6000    0.0000 O   0  0  0  0  0  0  0  0  0  0  0  0
    0.7375    1.6583    0.0000 O   0  0  0  0  0  0  0  0  0  0  0  0
    0.0375   -0.3792    0.0000 C   0  0  0  0  0  0  0  0  0  0  0  0
    0.0375    0.4375    0.0000 C   0  0  0  0  0  0  0  0  0  0  0  0
    1.4375    0.4375    0.0000 O   0  0  0  0  0  0  0  0  0  0  0  0
   -1.3750   -0.3792    0.0000 O   0  0  0  0  0  0  0  0  0  0  0  0
   -2.0833   -0.7917    0.0000 C   0  0  0  0  0  0  0  0  0  0  0  0
    2.1292    0.8625    0.0000 C   0  0  0  0  0  0  0  0  0  0  0  0
   -2.7833   -0.3792    0.0000 C   0  0  0  0  0  0  0  0  0  0  0  0
    2.8417    0.4625    0.0000 C   0  0  0  0  0  0  0  0  0  0  0  0
    4.3417    1.3250    0.0000 C   0  0  0  0  0  0  0  0  0  0  0  0
   -4.3458   -1.3167    0.0000 C   0  0  0  0  0  0  0  0  0  0  0  0
   -3.8958   -0.0667    0.0000 C   0  0  0  0  0  0  0  0  0  0  0  0
   -3.0708   -1.4917    0.0000 C   0  0  0  0  0  0  0  0  0  0  0  0
    3.9542    0.1625    0.0000 C   0  0  0  0  0  0  0  0  0  0  0  0
    3.1375    1.5708    0.0000 C   0  0  0  0  0  0  0  0  0  0  0  0
  2  7  1  0
  3 14  1  0
  4 13  1  0
  5  2  2  0
  6  1  2  0
  7  8  1  0
  8  1  1  0
  9  1  1  0
 10  2  1  0
 11 10  1  0
 12  9  1  0
 13 11  1  0
 14 12  1  0
 15  3  1  0
 16  4  1  0
 17  4  1  0
 18  4  1  0
 19  3  1  0
 20  3  1  0
M  CHG  2   3   1   4   1
M  END
> <chembl_id>
CHEMBL703

> <chembl_pref_name>
SUXAMETHONIUM
