
     RDKit          2D

 20 22  0  0  0  0  0  0  0  0999 V2000
   -0.6708    0.0333    0.0000 C   0  0  0  0  0  0  0  0  0  0  0  0
    0.1917    1.1083    0.0000 C   0  0  0  0  0  0  0  0  0  0  0  0
   -2.9708    1.1083    0.0000 N   0  0  0  0  0  0  0  0  0  0  0  0
   -2.1083    0.0333    0.0000 C   0  0  0  0  0  0  0  0  0  0  0  0
   -0.1208    2.5000    0.0000 N   0  0  0  0  0  0  0  0  0  0  0  0
   -2.6833    2.4750    0.0000 C   0  0  0  0  0  0  0  0  0  0  0  0
    1.5542    0.8083    0.0000 C   0  0  0  0  0  0  0  0  0  0  0  0
   -1.4208    3.0958    0.0000 C   0  0  0  0  0  0  0  0  0  0  0  0
   -2.7833   -1.2125    0.0000 C   0  0  0  0  0  0  0  0  0  0  0  0
    0.0292   -1.1792    0.0000 C   0  0  0  0  0  0  0  0  0  0  0  0
   -3.7708    3.3625    0.0000 O   0  0  0  0  0  0  0  0  0  0  0  0
    1.9667   -0.5167    0.0000 C   0  0  0  0  0  0  0  0  0  0  0  0
   -0.6583   -2.4292    0.0000 C   0  0  0  0  0  0  0  0  0  0  0  0
   -2.1083   -2.4292    0.0000 C   0  0  0  0  0  0  0  0  0  0  0  0
   -4.3458    0.7833    0.0000 C   0  0  0  0  0  0  0  0  0  0  0  0
    0.0542   -3.2375    0.0000 Cl  0  0  0  0  0  0  0  0  0  0  0  0
    2.5167    1.8458    0.0000 C   0  0  0  0  0  0  0  0  0  0  0  0
    3.3500   -0.8542    0.0000 C   0  0  0  0  0  0  0  0  0  0  0  0
    3.9125    1.5125    0.0000 C   0  0  0  0  0  0  0  0  0  0  0  0
    4.3417    0.1833    0.0000 C   0  0  0  0  0  0  0  0  0  0  0  0
  2  1  1  0
  3  4  1  0
  4  1  2  0
  5  2  2  0
  6  3  1  0
  7  2  1  0
  8  5  1  0
  9  4  1  0
 10  1  1  0
 11  6  2  0
 12  7  2  0
 13 10  2  0
 14 13  1  0
 15  3  1  0
 16 13  1  0
 17  7  1  0
 18 12  1  0
 19 17  1  0
 20 19  1  0
  9 14  2  0
  8  6  1  0
 18 20  1  0
M  END
> <chembl_id>
CHEMBL2105527

> <chembl_pref_name>
TETRAZEPAM
