
     RDKit          2D

 28 31  0  0  0  0  0  0  0  0999 V2000
    0.8292   -0.2417    0.0000 C   0  0  0  0  0  0  0  0  0  0  0  0
    0.8250   -1.0667    0.0000 C   0  0  0  0  0  0  0  0  0  0  0  0
    2.2500   -1.0792    0.0000 C   0  0  0  0  0  0  0  0  0  0  0  0
    1.5417    0.1625    0.0000 N   0  0  0  0  0  0  0  0  0  0  0  0
    0.1167    0.1708    0.0000 N   0  0  0  0  0  0  0  0  0  0  0  0
   -1.3083    0.1625    0.0000 N   0  0  0  0  0  0  0  0  0  0  0  0
    1.5375   -1.4792    0.0000 C   0  0  0  0  0  0  0  0  0  0  0  0
   -0.5958   -0.2417    0.0000 C   0  0  0  0  0  0  0  0  0  0  0  0
    2.2542   -0.2542    0.0000 C   0  0  0  0  0  0  0  0  0  0  0  0
   -2.2083    1.1583    0.0000 C   0  0  0  0  0  0  0  0  0  0  0  0
    0.1167   -1.4792    0.0000 C   0  0  0  0  0  0  0  0  0  0  0  0
    1.5417    0.9958    0.0000 C   0  0  0  0  0  0  0  0  0  0  0  0
   -2.6208    0.4458    0.0000 C   0  0  0  0  0  0  0  0  0  0  0  0
    2.9542   -1.4917    0.0000 C   0  0  0  0  0  0  0  0  0  0  0  0
   -0.5958   -1.0667    0.0000 C   0  0  0  0  0  0  0  0  0  0  0  0
   -1.4000    0.9875    0.0000 C   0  0  0  0  0  0  0  0  0  0  0  0
   -2.0625   -0.1667    0.0000 C   0  0  0  0  0  0  0  0  0  0  0  0
    1.9542    1.7000    0.0000 C   0  0  0  0  0  0  0  0  0  0  0  0
    1.1292    1.7083    0.0000 C   0  0  0  0  0  0  0  0  0  0  0  0
   -2.5458    1.9083    0.0000 N   0  0  0  0  0  0  0  0  0  0  0  0
    1.5292   -2.3042    0.0000 O   0  0  0  0  0  0  0  0  0  0  0  0
    2.9542   -2.3167    0.0000 O   0  0  0  0  0  0  0  0  0  0  0  0
   -1.3083   -1.4792    0.0000 F   0  0  0  0  0  0  0  0  0  0  0  0
    3.6792   -1.0792    0.0000 O   0  0  0  0  0  0  0  0  0  0  0  0
   -3.4375    0.3583    0.0000 C   0  0  0  0  0  0  0  0  0  0  0  0
   -2.0625    2.5833    0.0000 O   0  0  0  0  0  0  0  0  0  0  0  0
   -3.9208    1.0208    0.0000 N   0  0  0  0  0  0  0  0  0  0  0  0
   -1.2458    2.4958    0.0000 C   0  0  0  0  0  0  0  0  0  0  0  0
  2  1  2  0
  3  9  2  0
  4  1  1  0
  5  1  1  0
  6  8  1  0
  7  2  1  0
  8  5  2  0
  9  4  1  0
 10 16  1  0
 11  2  1  0
 12  4  1  0
 13 17  1  0
 14  3  1  0
 15  8  1  0
 16  6  1  0
 17  6  1  0
 18 12  1  0
 19 12  1  0
 20 10  2  0
 21  7  2  0
 22 14  2  0
 23 15  1  0
 24 14  1  0
 25 13  1  0
 26 20  1  0
 27 25  1  0
 28 26  1  0
  7  3  1  0
 11 15  2  0
 18 19  1  0
 10 13  1  0
M  END
> <chembl_id>
CHEMBL430

> <chembl_pref_name>
GEMIFLOXACIN
