
     RDKit          2D

 21 23  0  0  0  0  0  0  0  0999 V2000
   -6.8361    2.1095    0.0000 C   0  0  0  0  0  0  0  0  0  0  0  0
   -7.5712    1.7349    0.0000 C   0  0  0  0  0  0  0  0  0  0  0  0
   -7.6144    0.9110    0.0000 C   0  0  0  0  0  0  0  0  0  0  0  0
   -6.9225    0.4617    0.0000 C   0  0  0  0  0  0  0  0  0  0  0  0
   -6.1873    0.8362    0.0000 C   0  0  0  0  0  0  0  0  0  0  0  0
   -6.1442    1.6601    0.0000 C   0  0  0  0  0  0  0  0  0  0  0  0
   -5.4935   -0.3633    0.0000 C   0  0  0  0  0  0  0  0  0  0  0  0
   -6.2080   -0.7758    0.0000 C   0  0  0  0  0  0  0  0  0  0  0  0
   -6.2080   -1.6008    0.0000 C   0  0  0  0  0  0  0  0  0  0  0  0
   -5.4935   -2.0133    0.0000 C   0  0  0  0  0  0  0  0  0  0  0  0
   -4.7790   -1.6008    0.0000 C   0  0  0  0  0  0  0  0  0  0  0  0
   -4.7790   -0.7758    0.0000 C   0  0  0  0  0  0  0  0  0  0  0  0
   -3.9944   -0.5208    0.0000 N   0  0  0  0  0  0  0  0  0  0  0  0
   -3.9944   -1.8557    0.0000 N   0  0  0  0  0  0  0  0  0  0  0  0
   -3.5095   -1.1883    0.0000 C   0  0  0  0  0  0  0  0  0  0  0  0
   -8.2857    2.1474    0.0000 Cl  0  0  0  0  0  0  0  0  0  0  0  0
   -8.3493    0.5365    0.0000 Cl  0  0  0  0  0  0  0  0  0  0  0  0
   -6.9224   -0.3633    0.0000 O   0  0  0  0  0  0  0  0  0  0  0  0
   -6.9224   -2.0133    0.0000 Cl  0  0  0  0  0  0  0  0  0  0  0  0
   -2.6845   -1.1883    0.0000 S   0  0  0  0  0  0  0  0  0  0  0  0
   -2.2719   -0.4738    0.0000 C   0  0  0  0  0  0  0  0  0  0  0  0
  1  2  2  0
  2  3  1  0
  3  4  2  0
  4  5  1  0
  5  6  2  0
  1  6  1  0
  7  8  2  0
  8  9  1  0
  9 10  2  0
 10 11  1  0
 11 12  2  0
  7 12  1  0
 14 15  2  0
 13 15  1  0
 13 12  1  0
 11 14  1  0
  2 16  1  0
  3 17  1  0
  4 18  1  0
 18  8  1  0
  9 19  1  0
 15 20  1  0
 20 21  1  0
M  END
> <chembl_id>
CHEMBL1086440

> <chembl_pref_name>
TRICLABENDAZOLE
