
     RDKit          2D

 27 30  0  0  1  0  0  0  0  0999 V2000
    2.4895   -9.0509    0.0000 C   0  0  0  0  0  0  0  0  0  0  0  0
    2.4895  -10.6864    0.0000 C   0  0  0  0  0  0  0  0  0  0  0  0
    1.7658   -9.4707    0.0000 C   0  0  0  0  0  0  0  0  0  0  0  0
    3.1891   -9.4707    0.0000 C   0  0  0  0  0  0  0  0  0  0  0  0
    1.7658  -10.2763    0.0000 C   0  0  0  0  0  0  0  0  0  0  0  0
    2.4895   -8.2549    0.0000 C   0  0  0  0  0  0  0  0  0  0  0  0
    3.1891   -7.8447    0.0000 C   0  0  0  0  0  0  0  0  0  0  0  0
    1.3799  -11.4680    0.0000 N   0  0  0  0  0  0  0  0  0  0  0  0
    3.9128   -9.0509    0.0000 N   0  0  0  0  0  0  0  0  0  0  0  0
    2.2049  -11.4680    0.0000 C   0  0  0  0  0  0  0  0  0  0  0  0
    3.1891   -7.0246    0.0000 C   0  0  0  0  0  0  0  0  0  0  0  0
    1.0470  -10.6864    0.0000 C   0  0  0  0  0  0  0  0  0  0  0  0
    3.1891  -10.2763    0.0000 C   0  0  0  0  0  0  0  0  0  0  0  0
    3.9128   -8.2549    0.0000 C   0  0  0  0  0  0  0  0  0  0  0  0
    3.8934   -6.6049    0.0000 N   0  0  0  0  0  0  0  0  0  0  0  0
    2.4701   -6.6145    0.0000 O   0  0  0  0  0  0  0  0  0  0  0  0
    1.0470   -9.0509    0.0000 C   0  0  0  0  0  0  0  0  0  0  0  0
    0.9312  -12.1483    0.0000 C   0  0  0  0  0  0  0  0  0  0  0  0
    4.6654   -9.4803    0.0000 C   0  0  0  0  0  0  0  0  0  0  0  0
    0.3233  -10.2763    0.0000 C   0  0  0  0  0  0  0  0  0  0  0  0
    4.6075   -7.0101    0.0000 C   0  0  0  0  0  0  0  0  0  0  0  0
    0.3233   -9.4707    0.0000 C   0  0  0  0  0  0  0  0  0  0  0  0
    6.0259   -7.0053    0.0000 O   0  0  0  0  0  0  0  0  0  0  0  0
    5.3167   -6.6000    0.0000 C   0  0  0  0  0  0  0  0  0  0  0  0
    4.6075   -7.8351    0.0000 C   0  0  0  0  0  0  0  0  0  0  0  0
    5.3263   -8.2404    0.0000 C   0  0  0  0  0  0  0  0  0  0  0  0
    3.9128   -9.9000    0.0000 H   0  0  0  0  0  0  0  0  0  0  0  0
  2 13  1  0
  3  1  1  0
  4  1  1  0
  5  3  2  0
  6  1  2  0
  7  6  1  0
  8 12  1  0
  9  4  1  0
 10  2  2  0
  7 11  1  1
 12  5  1  0
 13  4  1  0
 14  7  1  0
 15 11  1  0
 16 11  2  0
 17  3  1  0
 18  8  1  0
 19  9  1  0
 20 12  2  0
 21 15  1  0
 22 17  2  0
 23 24  1  0
 24 21  1  0
 21 25  1  0
 26 25  1  0
  4 27  1  1
  2  5  1  0
 14  9  1  0
 22 20  1  0
 10  8  1  0
M  END
> <chembl_id>
CHEMBL485253

> <chembl_pref_name>
METHYSERGIDE
