
     RDKit          2D

 14 15  0  0  0  0  0  0  0  0999 V2000
    5.7417   -5.1875    0.0000 S   0  0  0  0  0  0  0  0  0  0  0  0
    6.3542   -4.8375    0.0000 N   0  0  0  0  0  0  0  0  0  0  0  0
    5.1292   -4.8375    0.0000 C   0  0  0  0  0  0  0  0  0  0  0  0
    5.7417   -3.8000    0.0000 N   0  0  0  0  0  0  0  0  0  0  0  0
    6.3542   -4.1417    0.0000 C   0  0  0  0  0  0  0  0  0  0  0  0
    5.1292   -4.1417    0.0000 C   0  0  0  0  0  0  0  0  0  0  0  0
    5.3792   -5.8542    0.0000 O   0  0  0  0  0  0  0  0  0  0  0  0
    6.1292   -5.8542    0.0000 O   0  0  0  0  0  0  0  0  0  0  0  0
    4.5167   -5.1875    0.0000 C   0  0  0  0  0  0  0  0  0  0  0  0
    4.5167   -3.8000    0.0000 C   0  0  0  0  0  0  0  0  0  0  0  0
    3.9042   -4.8375    0.0000 C   0  0  0  0  0  0  0  0  0  0  0  0
    3.9042   -4.1417    0.0000 C   0  0  0  0  0  0  0  0  0  0  0  0
    3.2917   -5.1875    0.0000 Cl  0  0  0  0  0  0  0  0  0  0  0  0
    6.9667   -3.8000    0.0000 C   0  0  0  0  0  0  0  0  0  0  0  0
  2  1  1  0
  3  1  1  0
  4  6  1  0
  5  2  1  0
  6  3  1  0
  7  1  2  0
  8  1  2  0
  9  3  2  0
 10  6  2  0
 11  9  1  0
 12 11  2  0
 13 11  1  0
 14  5  1  0
  4  5  2  0
 12 10  1  0
M  END
> <chembl_id>
CHEMBL181

> <chembl_pref_name>
DIAZOXIDE
