
     RDKit          2D

 33 36  0  0  0  0  0  0  0  0999 V2000
    4.8667   -7.3125    0.0000 C   0  0  0  0  0  0  0  0  0  0  0  0
    5.5417   -7.1000    0.0000 C   0  0  0  0  0  0  0  0  0  0  0  0
    3.0042   -8.3750    0.0000 C   0  0  0  0  0  0  0  0  0  0  0  0
    4.2292   -8.3750    0.0000 C   0  0  0  0  0  0  0  0  0  0  0  0
    4.8667   -8.0167    0.0000 C   0  0  0  0  0  0  0  0  0  0  0  0
    3.6292   -8.0167    0.0000 C   0  0  0  0  0  0  0  0  0  0  0  0
    3.0042   -9.0792    0.0000 C   0  0  0  0  0  0  0  0  0  0  0  0
    6.7542   -4.9667    0.0000 P   0  0  0  0  0  0  0  0  0  0  0  0
    4.2292   -6.9542    0.0000 C   0  0  0  0  0  0  0  0  0  0  0  0
    3.6292   -7.3125    0.0000 C   0  0  0  0  0  0  0  0  0  0  0  0
    5.5375   -6.3917    0.0000 C   0  0  0  0  0  0  0  0  0  0  0  0
    2.3792   -9.4167    0.0000 C   0  0  0  0  0  0  0  0  0  0  0  0
    5.9292   -7.6542    0.0000 C   0  0  0  0  0  0  0  0  0  0  0  0
    5.5417   -8.2292    0.0000 C   0  0  0  0  0  0  0  0  0  0  0  0
    4.2292   -9.0792    0.0000 C   0  0  0  0  0  0  0  0  0  0  0  0
    2.3792   -8.0167    0.0000 C   0  0  0  0  0  0  0  0  0  0  0  0
    6.1417   -6.0292    0.0000 C   0  0  0  0  0  0  0  0  0  0  0  0
    6.1417   -5.3250    0.0000 O   0  0  0  0  0  0  0  0  0  0  0  0
    7.3667   -5.3167    0.0000 O   0  0  0  0  0  0  0  0  0  0  0  0
    7.1042   -4.3500    0.0000 O   0  0  0  0  0  0  0  0  0  0  0  0
    3.6292   -9.4375    0.0000 C   0  0  0  0  0  0  0  0  0  0  0  0
    1.7667   -9.0792    0.0000 C   0  0  0  0  0  0  0  0  0  0  0  0
    6.3917   -4.3500    0.0000 O   0  0  0  0  0  0  0  0  0  0  0  0
    4.9167   -6.0375    0.0000 O   0  0  0  0  0  0  0  0  0  0  0  0
    1.1292   -9.4167    0.0000 O   0  0  0  0  0  0  0  0  0  0  0  0
    6.1542   -6.7417    0.0000 O   0  0  0  0  0  0  0  0  0  0  0  0
    4.8667   -6.5917    0.0000 C   0  0  0  0  0  0  0  0  0  0  0  0
    1.7667   -8.3750    0.0000 C   0  0  0  0  0  0  0  0  0  0  0  0
    3.0042   -6.9542    0.0000 O   0  0  0  0  0  0  0  0  0  0  0  0
    3.0042   -7.6542    0.0000 C   0  0  0  0  0  0  0  0  0  0  0  0
    4.8667   -8.7167    0.0000 H   0  0  0  0  0  0  0  0  0  0  0  0
    4.2292   -7.6667    0.0000 H   0  0  0  0  0  0  0  0  0  0  0  0
    3.6292   -8.7125    0.0000 H   0  0  0  0  0  0  0  0  0  0  0  0
  2  1  1  0
  3  6  1  0
  4  5  1  0
  5  1  1  0
  6 10  1  0
  7  3  1  0
  8 18  1  0
  9  1  1  0
 10  9  1  0
 11  2  1  0
 12  7  2  0
 13  2  1  0
 14  5  1  0
 15  4  1  0
 16  3  1  0
 17 11  1  0
 18 17  1  0
 19  8  1  0
 20  8  1  0
 21 15  1  0
 22 28  1  0
 23  8  2  0
 24 11  2  0
 25 22  2  0
  2 26  1  6
  1 27  1  1
 28 16  1  0
 10 29  1  1
  3 30  1  1
  5 31  1  6
  4 32  1  1
  6 33  1  6
 13 14  1  0
  6  4  1  0
  7 21  1  0
 22 12  1  0
M  END
> <chembl_id>
CHEMBL1641

> <chembl_pref_name>
HYDROCORTISONE PHOSPHORIC ACID
