
     RDKit          2D

 28 28  0  0  0  0  0  0  0  0999 V2000
   10.9574   -1.9937    0.0000 O   0  0  0  0  0  0  0  0  0  0  0  0
    8.4574   -1.9937    0.0000 Br  0  0  0  0  0  0  0  0  0  0  0  0
    0.3946   -0.0175    0.0000 O   0  0  0  0  0  0  0  0  0  0  0  0
   -1.7356   -0.9948    0.0000 O   0  0  0  0  0  0  0  0  0  0  0  0
    0.1716    2.5865    0.0000 O   0  0  0  0  0  0  0  0  0  0  0  0
    4.4130   -4.0935    0.0000 N   0  0  0  0  0  0  0  0  0  0  0  0
    3.8924   -2.3899    0.0000 C   0  0  0  0  0  0  0  0  0  0  0  0
    3.3600   -3.1115    0.0000 C   0  0  0  0  0  0  0  0  0  0  0  0
    3.7018   -5.4373    0.0000 C   0  0  0  0  0  0  0  0  0  0  0  0
    1.1003   -1.3251    0.0000 C   0  0  0  0  0  0  0  0  0  0  0  0
    2.0704   -2.3899    0.0000 C   0  0  0  0  0  0  0  0  0  0  0  0
    1.5972   -3.1115    0.0000 C   0  0  0  0  0  0  0  0  0  0  0  0
    3.8924   -0.9346    0.0000 C   0  0  0  0  0  0  0  0  0  0  0  0
    3.3600   -1.7865    0.0000 C   0  0  0  0  0  0  0  0  0  0  0  0
    5.6123   -4.1327    0.0000 C   0  0  0  0  0  0  0  0  0  0  0  0
   -1.1056    0.0266    0.0000 C   0  0  0  0  0  0  0  0  0  0  0  0
   -1.8183    1.3474    0.0000 C   0  0  0  0  0  0  0  0  0  0  0  0
    2.5018   -5.4343    0.0000 C   0  0  0  0  0  0  0  0  0  0  0  0
    4.2989   -6.4782    0.0000 C   0  0  0  0  0  0  0  0  0  0  0  0
   -3.3185    1.3915    0.0000 C   0  0  0  0  0  0  0  0  0  0  0  0
   -1.0278    2.6231    0.0000 C   0  0  0  0  0  0  0  0  0  0  0  0
   -4.0328    2.7105    0.0000 C   0  0  0  0  0  0  0  0  0  0  0  0
   -4.1039    0.1134    0.0000 C   0  0  0  0  0  0  0  0  0  0  0  0
   -5.5322    2.7516    0.0000 C   0  0  0  0  0  0  0  0  0  0  0  0
   -5.6033    0.1545    0.0000 C   0  0  0  0  0  0  0  0  0  0  0  0
   -6.3175    1.4735    0.0000 C   0  0  0  0  0  0  0  0  0  0  0  0
    2.6529   -2.4044    0.0000 H   0  0  0  0  0  0  0  0  0  0  0  0
    3.1853   -1.6828    0.0000 H   0  0  0  0  0  0  0  0  0  0  0  0
 10  3  1  1
  3 16  1  0
  4 16  2  0
  5 21  1  0
  6  7  1  0
  6  8  1  0
  6  9  1  0
  6 15  1  0
  7 11  1  0
  7 13  1  0
  8 12  1  0
  8 14  1  0
  9 18  1  0
  9 19  1  0
 10 11  1  0
 10 12  1  0
 13 14  1  0
 16 17  1  0
 17 20  1  0
 17 21  1  0
 20 22  2  0
 20 23  1  0
 22 24  1  0
 23 25  2  0
 24 26  2  0
 25 26  1  0
  8 27  1  1
  7 28  1  6
M  CHG  2   2  -1   6   1
M  END
> <chembl_id>
CHEMBL2134724

> <chembl_pref_name>
IPRATROPIUM BROMIDE
