
     RDKit          2D

  9  9  0  0  0  0  0  0  0  0999 V2000
    4.2500   -5.1417    0.0000 C   0  0  0  0  0  0  0  0  0  0  0  0
    5.4792   -4.4417    0.0000 C   0  0  0  0  0  0  0  0  0  0  0  0
    4.2500   -4.4417    0.0000 C   0  0  0  0  0  0  0  0  0  0  0  0
    4.8792   -5.5042    0.0000 C   0  0  0  0  0  0  0  0  0  0  0  0
    4.8542   -4.0792    0.0000 C   0  0  0  0  0  0  0  0  0  0  0  0
    5.4792   -5.1417    0.0000 C   0  0  0  0  0  0  0  0  0  0  0  0
    3.6375   -5.5125    0.0000 O   0  0  0  0  0  0  0  0  0  0  0  0
    6.1000   -4.0792    0.0000 O   0  0  0  0  0  0  0  0  0  0  0  0
    6.7125   -4.4167    0.0000 C   0  0  0  0  0  0  0  0  0  0  0  0
  2  6  1  0
  3  1  2  0
  4  1  1  0
  5  3  1  0
  6  4  2  0
  7  1  1  0
  8  2  1  0
  9  8  1  0
  2  5  2  0
M  END
> <chembl_id>
CHEMBL544

> <chembl_pref_name>
MEQUINOL
