
     RDKit          2D

 27 30  0  0  1  0  0  0  0  0999 V2000
    1.3542    0.7125    0.0000 N   0  0  0  0  0  0  0  0  0  0  0  0
    1.2875    0.0125    0.0000 C   0  0  0  0  0  0  0  0  0  0  0  0
    0.7042    0.9958    0.0000 C   0  0  0  0  0  0  0  0  0  0  0  0
    0.2375    0.4625    0.0000 C   0  0  0  0  0  0  0  0  0  0  0  0
    0.5917   -0.1417    0.0000 C   0  0  0  0  0  0  0  0  0  0  0  0
    1.8167   -0.4542    0.0000 O   0  0  0  0  0  0  0  0  0  0  0  0
    1.8042   -1.1625    0.0000 C   0  0  0  0  0  0  0  0  0  0  0  0
    1.9625    1.0750    0.0000 C   0  0  0  0  0  0  0  0  0  0  0  0
    2.4250   -1.5042    0.0000 N   0  0  0  0  0  0  0  0  0  0  0  0
    2.5792    0.7250    0.0000 N   0  0  0  0  0  0  0  0  0  0  0  0
   -0.4708    0.4583    0.0000 N   0  0  0  0  0  0  0  0  0  0  0  0
    0.2500   -0.7625    0.0000 N   0  0  0  0  0  0  0  0  0  0  0  0
    3.6667   -2.2125    0.0000 N   0  0  0  0  0  0  0  0  0  0  0  0
    0.5500    1.6958    0.0000 O   0  0  0  0  0  0  0  0  0  0  0  0
    1.2000   -1.5125    0.0000 O   0  0  0  0  0  0  0  0  0  0  0  0
    3.0375   -1.1500    0.0000 C   0  0  0  0  0  0  0  0  0  0  0  0
    2.4375   -2.2125    0.0000 C   0  0  0  0  0  0  0  0  0  0  0  0
    1.9500    1.7750    0.0000 C   0  0  0  0  0  0  0  0  0  0  0  0
    3.0542   -2.5542    0.0000 C   0  0  0  0  0  0  0  0  0  0  0  0
    3.6542   -1.5000    0.0000 C   0  0  0  0  0  0  0  0  0  0  0  0
    3.1875    1.0833    0.0000 C   0  0  0  0  0  0  0  0  0  0  0  0
    3.1792    1.7958    0.0000 C   0  0  0  0  0  0  0  0  0  0  0  0
    2.5542    2.1500    0.0000 C   0  0  0  0  0  0  0  0  0  0  0  0
    3.8167    2.1458    0.0000 Cl  0  0  0  0  0  0  0  0  0  0  0  0
    4.2875   -2.5542    0.0000 C   0  0  0  0  0  0  0  0  0  0  0  0
   -0.8208   -0.1542    0.0000 C   0  0  0  0  0  0  0  0  0  0  0  0
   -0.4583   -0.7667    0.0000 C   0  0  0  0  0  0  0  0  0  0  0  0
  2  1  1  0
  3  1  1  0
  4  3  1  0
  5  2  1  0
  2  6  1  1
  7  6  1  0
  8  1  1  0
  9  7  1  0
 10  8  2  0
 11  4  1  0
 12  5  1  0
 13 19  1  0
 14  3  2  0
 15  7  2  0
 16  9  1  0
 17  9  1  0
 18  8  1  0
 19 17  1  0
 20 16  1  0
 21 10  1  0
 22 23  1  0
 23 18  2  0
 24 22  1  0
 25 13  1  0
 26 11  2  0
 27 12  2  0
  4  5  2  0
 22 21  2  0
 26 27  1  0
 20 13  1  0
M  END
> <chembl_id>
CHEMBL1522

> <chembl_pref_name>
ESZOPICLONE
