
     RDKit          2D

  7  6  0  0  0  0  0  0  0  0999 V2000
   -0.3000    0.0625    0.0000 C   0  0  0  0  0  0  0  0  0  0  0  0
    1.1500    0.0625    0.0000 C   0  0  0  0  0  0  0  0  0  0  0  0
    1.8417   -1.2167    0.0000 O   0  0  0  0  0  0  0  0  0  0  0  0
   -0.2833   -1.3625    0.0000 Cl  0  0  0  0  0  0  0  0  0  0  0  0
   -0.3000    1.4958    0.0000 Cl  0  0  0  0  0  0  0  0  0  0  0  0
   -1.7333    0.0625    0.0000 Cl  0  0  0  0  0  0  0  0  0  0  0  0
    1.8417    1.2708    0.0000 O   0  0  0  0  0  0  0  0  0  0  0  0
  2  1  1  0
  3  2  2  0
  4  1  1  0
  5  1  1  0
  6  1  1  0
  7  2  1  0
M  END
> <chembl_id>
CHEMBL14053

> <chembl_pref_name>
TRICHLOROACETIC ACID
