
     RDKit          2D

 13 14  0  0  0  0  0  0  0  0999 V2000
   -0.2875    0.8833    0.0000 N   0  0  0  0  0  0  0  0  0  0  0  0
   -0.7333   -0.4792    0.0000 C   0  0  0  0  0  0  0  0  0  0  0  0
   -1.4458    1.7208    0.0000 N   0  0  0  0  0  0  0  0  0  0  0  0
   -2.1625   -0.4792    0.0000 C   0  0  0  0  0  0  0  0  0  0  0  0
   -2.6000    0.8833    0.0000 C   0  0  0  0  0  0  0  0  0  0  0  0
    1.1375    0.8833    0.0000 C   0  0  0  0  0  0  0  0  0  0  0  0
   -0.1458   -1.8625    0.0000 O   0  0  0  0  0  0  0  0  0  0  0  0
   -3.9833    1.2625    0.0000 C   0  0  0  0  0  0  0  0  0  0  0  0
    1.8500   -0.3417    0.0000 C   0  0  0  0  0  0  0  0  0  0  0  0
    1.8375    2.1208    0.0000 C   0  0  0  0  0  0  0  0  0  0  0  0
    3.2542    2.1333    0.0000 C   0  0  0  0  0  0  0  0  0  0  0  0
    3.2750   -0.3417    0.0000 C   0  0  0  0  0  0  0  0  0  0  0  0
    3.9792    0.8958    0.0000 C   0  0  0  0  0  0  0  0  0  0  0  0
  2  1  1  0
  3  1  1  0
  4  2  1  0
  5  3  2  0
  6  1  1  0
  7  2  2  0
  8  5  1  0
  9  6  2  0
 10  6  1  0
 11 10  2  0
 12  9  1  0
 13 11  1  0
  5  4  1  0
 12 13  2  0
M  END
> <chembl_id>
CHEMBL290916

> <chembl_pref_name>
EDARAVONE
