
     RDKit          2D

 26 27  0  0  0  0  0  0  0  0999 V2000
    5.1042   -0.9750    0.0000 S   0  0  0  0  0  0  0  0  0  0  0  0
    5.4542   -0.3542    0.0000 O   0  0  0  0  0  0  0  0  0  0  0  0
    4.7417   -0.3542    0.0000 O   0  0  0  0  0  0  0  0  0  0  0  0
    4.4917   -1.3292    0.0000 O   0  0  0  0  0  0  0  0  0  0  0  0
    5.7167   -1.3292    0.0000 O   0  0  0  0  0  0  0  0  0  0  0  0
    0.9125   -0.8583    0.0000 N   0  0  0  0  0  0  0  0  0  0  0  0
    2.1458   -0.8583    0.0000 C   0  0  0  0  0  0  0  0  0  0  0  0
    0.2958   -0.5125    0.0000 C   0  0  0  0  0  0  0  0  0  0  0  0
    2.1458   -1.5583    0.0000 C   0  0  0  0  0  0  0  0  0  0  0  0
   -0.3167   -0.8583    0.0000 C   0  0  0  0  0  0  0  0  0  0  0  0
    1.5417   -0.5000    0.0000 C   0  0  0  0  0  0  0  0  0  0  0  0
    0.2958    0.2083    0.0000 C   0  0  0  0  0  0  0  0  0  0  0  0
    2.8500   -1.7917    0.0000 S   0  0  0  0  0  0  0  0  0  0  0  0
    0.9125   -1.5458    0.0000 C   0  0  0  0  0  0  0  0  0  0  0  0
    1.5292   -1.9208    0.0000 C   0  0  0  0  0  0  0  0  0  0  0  0
    3.2417   -1.1875    0.0000 C   0  0  0  0  0  0  0  0  0  0  0  0
    2.8500   -0.6333    0.0000 C   0  0  0  0  0  0  0  0  0  0  0  0
   -0.3125   -1.5667    0.0000 C   0  0  0  0  0  0  0  0  0  0  0  0
   -0.3250    0.5625    0.0000 O   0  0  0  0  0  0  0  0  0  0  0  0
    0.9042    0.5667    0.0000 O   0  0  0  0  0  0  0  0  0  0  0  0
    0.3042   -1.9250    0.0000 Cl  0  0  0  0  0  0  0  0  0  0  0  0
   -0.9250   -0.5083    0.0000 C   0  0  0  0  0  0  0  0  0  0  0  0
   -0.9250   -1.9292    0.0000 C   0  0  0  0  0  0  0  0  0  0  0  0
    1.5250    0.2167    0.0000 C   0  0  0  0  0  0  0  0  0  0  0  0
   -1.5458   -0.8583    0.0000 C   0  0  0  0  0  0  0  0  0  0  0  0
   -1.5458   -1.5708    0.0000 C   0  0  0  0  0  0  0  0  0  0  0  0
  2  1  2  0
  3  1  2  0
  4  1  1  0
  5  1  1  0
  7 11  1  0
  8  6  1  0
  9 15  1  0
 10  8  1  0
 11  6  1  0
  8 12  1  1
 13  9  1  0
 14  6  1  0
 15 14  1  0
 16 17  2  0
 17  7  1  0
 18 10  1  0
 19 12  2  0
 20 12  1  0
 21 18  1  0
 22 10  2  0
 23 18  2  0
 24 20  1  0
 25 22  1  0
 26 25  2  0
  9  7  2  0
 16 13  1  0
 26 23  1  0
M  END
> <chembl_id>
CHEMBL1083385

> <chembl_pref_name>
CLOPIDOGREL BISULFATE
