
     RDKit          2D

 61 68  0  0  0  0  0  0  0  0999 V2000
   11.7762    5.4095    0.0000 C   0  0  0  0  0  0  0  0  0  0  0  0
   12.4907    4.9970    0.0000 C   0  0  0  0  0  0  0  0  0  0  0  0
   11.0617    4.9970    0.0000 C   0  0  0  0  0  0  0  0  0  0  0  0
   11.0617    4.1720    0.0000 C   0  0  0  0  0  0  0  0  0  0  0  0
   10.3473    3.7595    0.0000 C   0  0  0  0  0  0  0  0  0  0  0  0
    9.6328    4.1720    0.0000 C   0  0  0  0  0  0  0  0  0  0  0  0
    8.9183    3.7595    0.0000 C   0  0  0  0  0  0  0  0  0  0  0  0
    8.1059    3.6162    0.0000 C   0  0  0  0  0  0  0  0  0  0  0  0
    8.6362    4.5347    0.0000 C   0  0  0  0  0  0  0  0  0  0  0  0
    8.9183    2.9345    0.0000 C   0  0  0  0  0  0  0  0  0  0  0  0
    9.6328    2.5220    0.0000 C   0  0  0  0  0  0  0  0  0  0  0  0
   10.3473    2.9345    0.0000 C   0  0  0  0  0  0  0  0  0  0  0  0
   11.0617    1.6970    0.0000 N   0  0  0  0  0  0  0  0  0  0  0  0
   11.0617    2.5220    0.0000 C   0  0  0  0  0  0  0  0  0  0  0  0
   11.7762    3.7595    0.0000 C   0  0  0  0  0  0  0  0  0  0  0  0
   12.4907    4.1720    0.0000 C   0  0  0  0  0  0  0  0  0  0  0  0
   13.2052    5.4095    0.0000 Cl  0  0  0  0  0  0  0  0  0  0  0  0
    7.4894   -2.0155    0.0000 C   0  0  0  0  0  0  0  0  0  0  0  0
    6.7048   -2.2705    0.0000 C   0  0  0  0  0  0  0  0  0  0  0  0
    8.2039   -2.4280    0.0000 C   0  0  0  0  0  0  0  0  0  0  0  0
    8.9183   -2.0155    0.0000 C   0  0  0  0  0  0  0  0  0  0  0  0
    9.6328   -2.4280    0.0000 O   0  0  0  0  0  0  0  0  0  0  0  0
    8.9183   -1.1905    0.0000 C   0  0  0  0  0  0  0  0  0  0  0  0
    8.2039   -0.7780    0.0000 N   0  0  0  0  0  0  0  0  0  0  0  0
    7.4894   -1.1905    0.0000 C   0  0  0  0  0  0  0  0  0  0  0  0
    6.7048   -0.9356    0.0000 N   0  0  0  0  0  0  0  0  0  0  0  0
    6.2198   -1.6030    0.0000 C   0  0  0  0  0  0  0  0  0  0  0  0
   16.0630   -0.3655    0.0000 C   0  0  0  0  0  0  0  0  0  0  0  0
   16.0630    0.4595    0.0000 C   0  0  0  0  0  0  0  0  0  0  0  0
   17.4920    0.4595    0.0000 O   0  0  0  0  0  0  0  0  0  0  0  0
   16.7775    0.8720    0.0000 C   0  0  0  0  0  0  0  0  0  0  0  0
   15.3486   -1.6030    0.0000 N   0  0  0  0  0  0  0  0  0  0  0  0
   15.3486   -0.7780    0.0000 C   0  0  0  0  0  0  0  0  0  0  0  0
   16.7775   -0.7780    0.0000 C   0  0  0  0  0  0  0  0  0  0  0  0
   17.4920   -0.3655    0.0000 C   0  0  0  0  0  0  0  0  0  0  0  0
   11.0617    0.0470    0.0000 N   0  0  0  0  0  0  0  0  0  0  0  0
   10.3473    0.4595    0.0000 C   0  0  0  0  0  0  0  0  0  0  0  0
   10.3473    1.2845    0.0000 C   0  0  0  0  0  0  0  0  0  0  0  0
   11.7762    1.2845    0.0000 C   0  0  0  0  0  0  0  0  0  0  0  0
   11.7762    0.4595    0.0000 C   0  0  0  0  0  0  0  0  0  0  0  0
   11.0617   -0.7780    0.0000 C   0  0  0  0  0  0  0  0  0  0  0  0
   11.7762   -1.1905    0.0000 C   0  0  0  0  0  0  0  0  0  0  0  0
   11.7762   -2.0155    0.0000 C   0  0  0  0  0  0  0  0  0  0  0  0
   11.0617   -2.4280    0.0000 C   0  0  0  0  0  0  0  0  0  0  0  0
   11.0617   -3.2530    0.0000 C   0  0  0  0  0  0  0  0  0  0  0  0
   10.3473   -3.6655    0.0000 O   0  0  0  0  0  0  0  0  0  0  0  0
   11.7762   -3.6655    0.0000 N   0  0  0  0  0  0  0  0  0  0  0  0
   10.3473   -2.0155    0.0000 C   0  0  0  0  0  0  0  0  0  0  0  0
   10.3473   -1.1905    0.0000 C   0  0  0  0  0  0  0  0  0  0  0  0
   13.2052   -2.8405    0.0000 C   0  0  0  0  0  0  0  0  0  0  0  0
   13.2052   -2.0155    0.0000 C   0  0  0  0  0  0  0  0  0  0  0  0
   12.4907   -3.2530    0.0000 S   0  0  0  0  0  0  0  0  0  0  0  0
   13.9196   -3.2530    0.0000 C   0  0  0  0  0  0  0  0  0  0  0  0
   14.6341   -2.8405    0.0000 C   0  0  0  0  0  0  0  0  0  0  0  0
   14.6341   -2.0155    0.0000 C   0  0  0  0  0  0  0  0  0  0  0  0
   13.9196   -1.6030    0.0000 C   0  0  0  0  0  0  0  0  0  0  0  0
   12.0782   -2.5386    0.0000 O   0  0  0  0  0  0  0  0  0  0  0  0
   12.9032   -3.9675    0.0000 O   0  0  0  0  0  0  0  0  0  0  0  0
   15.3486   -3.2530    0.0000 N   0  0  0  0  0  0  0  0  0  0  0  0
   16.0630   -2.8405    0.0000 O   0  0  0  0  0  0  0  0  0  0  0  0
   15.3486   -4.0780    0.0000 O   0  0  0  0  0  0  0  0  0  0  0  0
  1  2  1  0
  2 16  2  0
  3  1  2  0
  3  4  1  0
  4 15  2  0
  5  4  1  0
  5 12  2  0
  6  5  1  0
  7  8  1  0
  7  9  1  0
  7 10  1  0
  7  6  1  0
 10 11  1  0
 12 11  1  0
 12 14  1  0
 13 14  1  0
 13 39  1  0
 16 15  1  0
 17  2  1  0
 18 19  1  0
 18 25  2  0
 19 27  2  0
 20 18  1  0
 20 21  2  0
 21 22  1  0
 21 23  1  0
 24 23  2  0
 25 24  1  0
 25 26  1  0
 27 26  1  0
 28 29  1  0
 28 34  1  0
 30 31  1  0
 31 29  1  0
 32 33  1  0
 33 28  1  0
 34 35  1  0
 35 30  1  0
 36 37  1  0
 36 41  1  0
 37 38  1  0
 38 13  1  0
 39 40  1  0
 40 36  1  0
 41 49  2  0
 42 41  1  0
 42 43  2  0
 43 44  1  0
 44 48  2  0
 45 46  2  0
 45 44  1  0
 47 45  1  0
 47 52  1  0
 48 22  1  0
 49 48  1  0
 50 51  1  0
 50 52  1  0
 50 53  2  0
 51 56  2  0
 52 57  2  0
 53 54  1  0
 54 55  2  0
 55 32  1  0
 56 55  1  0
 52 58  2  0
 54 59  1  0
 59 60  1  0
 59 61  2  0
M  CHG  2  59   1  60  -1
M  END
> <chembl_id>
CHEMBL3137309

> <chembl_pref_name>
VENETOCLAX
