
     RDKit          2D

 26 29  0  0  0  0  0  0  0  0999 V2000
    3.0250   -1.8625    0.0000 N   0  0  0  0  0  0  0  0  0  0  0  0
    3.6417   -2.9292    0.0000 C   0  0  0  0  0  0  0  0  0  0  0  0
    2.4042   -2.2250    0.0000 C   0  0  0  0  0  0  0  0  0  0  0  0
    1.7875   -1.8750    0.0000 C   0  0  0  0  0  0  0  0  0  0  0  0
    2.4167   -2.9292    0.0000 C   0  0  0  0  0  0  0  0  0  0  0  0
    3.6375   -2.2125    0.0000 C   0  0  0  0  0  0  0  0  0  0  0  0
    3.0292   -3.2792    0.0000 C   0  0  0  0  0  0  0  0  0  0  0  0
    1.1792   -2.2292    0.0000 C   0  0  0  0  0  0  0  0  0  0  0  0
    1.7875   -1.1625    0.0000 O   0  0  0  0  0  0  0  0  0  0  0  0
    1.1792   -2.9417    0.0000 C   0  0  0  0  0  0  0  0  0  0  0  0
    1.8042   -3.2917    0.0000 C   0  0  0  0  0  0  0  0  0  0  0  0
    0.5542   -1.8792    0.0000 N   0  0  0  0  0  0  0  0  0  0  0  0
    4.2583   -3.2792    0.0000 C   0  0  0  0  0  0  0  0  0  0  0  0
    3.0167   -1.1542    0.0000 C   0  0  0  0  0  0  0  0  0  0  0  0
   -0.6833   -1.1792    0.0000 N   0  0  0  0  0  0  0  0  0  0  0  0
    3.0375   -3.9917    0.0000 O   0  0  0  0  0  0  0  0  0  0  0  0
    2.3917   -0.8042    0.0000 C   0  0  0  0  0  0  0  0  0  0  0  0
   -0.0583   -2.2417    0.0000 C   0  0  0  0  0  0  0  0  0  0  0  0
    0.5500   -1.1750    0.0000 C   0  0  0  0  0  0  0  0  0  0  0  0
    4.2625   -3.9875    0.0000 O   0  0  0  0  0  0  0  0  0  0  0  0
    0.5667   -3.3042    0.0000 F   0  0  0  0  0  0  0  0  0  0  0  0
   -0.6750   -1.8917    0.0000 C   0  0  0  0  0  0  0  0  0  0  0  0
   -0.0708   -0.8167    0.0000 C   0  0  0  0  0  0  0  0  0  0  0  0
    4.8708   -2.9208    0.0000 O   0  0  0  0  0  0  0  0  0  0  0  0
   -1.3000   -0.8292    0.0000 C   0  0  0  0  0  0  0  0  0  0  0  0
    3.6292   -0.7875    0.0000 C   0  0  0  0  0  0  0  0  0  0  0  0
  2  6  2  0
  3  1  1  0
  4  3  1  0
  5  3  2  0
  6  1  1  0
  7  2  1  0
  8  4  2  0
  9 17  1  0
 10  8  1  0
 11  5  1  0
 12  8  1  0
 13  2  1  0
 14  1  1  0
 15 23  1  0
 16  7  2  0
 17 14  1  0
 18 12  1  0
 19 12  1  0
 20 13  2  0
 21 10  1  0
 22 18  1  0
 23 19  1  0
 24 13  1  0
 25 15  1  0
 26 14  1  0
  5  7  1  0
  4  9  1  0
 11 10  2  0
 15 22  1  0
M  END
> <chembl_id>
CHEMBL4

> <chembl_pref_name>
OFLOXACIN
