
     RDKit          2D

  5  4  0  0  0  0  0  0  0  0999 V2000
    5.3792   -5.0042    0.0000 C   0  0  0  0  0  0  0  0  0  0  0  0
    5.3792   -4.2917    0.0000 O   0  0  0  0  0  0  0  0  0  0  0  0
    5.9917   -5.3542    0.0000 O   0  0  0  0  0  0  0  0  0  0  0  0
    4.1542   -5.0042    0.0000 N   0  0  0  0  0  0  0  0  0  0  0  0
    4.7667   -5.3542    0.0000 C   0  0  0  0  0  0  0  0  0  0  0  0
  2  1  2  0
  3  1  1  0
  4  5  1  0
  5  1  1  0
M  END
> <chembl_id>
CHEMBL773

> <chembl_pref_name>
GLYCINE
