
     RDKit          2D

 30 33  0  0  0  0  0  0  0  0999 V2000
    5.1167   -6.7500    0.0000 Cl  0  0  0  0  0  0  0  0  0  0  0  0
    3.5167   -4.0042    0.0000 C   0  0  0  0  0  0  0  0  0  0  0  0
    2.8542   -4.0000    0.0000 C   0  0  0  0  0  0  0  0  0  0  0  0
    2.5042   -4.6292    0.0000 C   0  0  0  0  0  0  0  0  0  0  0  0
    3.8167   -4.6292    0.0000 C   0  0  0  0  0  0  0  0  0  0  0  0
    3.8292   -3.4500    0.0000 C   0  0  0  0  0  0  0  0  0  0  0  0
    3.2292   -5.0667    0.0000 O   0  0  0  0  0  0  0  0  0  0  0  0
    3.5167   -2.8500    0.0000 C   0  0  0  0  0  0  0  0  0  0  0  0
    2.5042   -3.4667    0.0000 C   0  0  0  0  0  0  0  0  0  0  0  0
    4.5417   -3.4500    0.0000 C   0  0  0  0  0  0  0  0  0  0  0  0
    2.8542   -2.8375    0.0000 C   0  0  0  0  0  0  0  0  0  0  0  0
    3.8750   -2.0792    0.0000 N   0  0  0  0  0  0  0  0  0  0  0  0
    4.5542   -4.6292    0.0000 C   0  0  0  0  0  0  0  0  0  0  0  0
    1.8125   -4.6125    0.0000 C   0  0  0  0  0  0  0  0  0  0  0  0
    4.9167   -4.0167    0.0000 C   0  0  0  0  0  0  0  0  0  0  0  0
    4.3792   -3.7417    0.0000 C   0  0  0  0  0  0  0  0  0  0  0  0
    1.5000   -5.0792    0.0000 O   0  0  0  0  0  0  0  0  0  0  0  0
    4.9375   -5.1042    0.0000 O   0  0  0  0  0  0  0  0  0  0  0  0
    1.8292   -5.7042    0.0000 C   0  0  0  0  0  0  0  0  0  0  0  0
    5.6500   -5.0917    0.0000 C   0  0  0  0  0  0  0  0  0  0  0  0
    4.3917   -2.4667    0.0000 C   0  0  0  0  0  0  0  0  0  0  0  0
    1.8250   -3.4417    0.0000 C   0  0  0  0  0  0  0  0  0  0  0  0
    1.4750   -4.0167    0.0000 C   0  0  0  0  0  0  0  0  0  0  0  0
    6.1000   -4.5000    0.0000 O   0  0  0  0  0  0  0  0  0  0  0  0
    2.6167   -5.7125    0.0000 O   0  0  0  0  0  0  0  0  0  0  0  0
    3.6250   -1.4792    0.0000 C   0  0  0  0  0  0  0  0  0  0  0  0
    1.4667   -6.2750    0.0000 C   0  0  0  0  0  0  0  0  0  0  0  0
    5.9750   -5.6792    0.0000 C   0  0  0  0  0  0  0  0  0  0  0  0
    3.8667   -5.3125    0.0000 H   0  0  0  0  0  0  0  0  0  0  0  0
    4.0875   -2.9667    0.0000 H   0  0  0  0  0  0  0  0  0  0  0  0
  3  2  1  0
  4  3  1  0
  5  2  1  0
  6  2  1  0
  7  5  1  0
  8  6  1  0
  9  3  2  0
 10  6  1  0
 11  8  1  0
 12 21  1  0
 13  5  1  0
 14  4  2  0
 15 10  2  0
  2 16  1  1
 17 14  1  0
 13 18  1  6
 19 17  1  0
 20 18  1  0
 21 16  1  0
 22  9  1  0
 23 22  2  0
 24 20  2  0
 25 19  2  0
 26 12  1  0
 27 19  1  0
 28 20  1  0
  5 29  1  1
  6 30  1  1
  4  7  1  0
  8 12  1  1
 13 15  1  0
  9 11  1  0
 14 23  1  0
M  END
> <chembl_id>
CHEMBL2106627

> <chembl_pref_name>
DIACETYLMORPHINE HYDROCHLORIDE
