
     RDKit          2D

 50 54  0  0  0  0  0  0  0  0999 V2000
    3.1043    3.3295    0.0000 C   0  0  0  0  0  0  0  0  0  0  0  0
    2.6918    4.0439    0.0000 C   0  0  0  0  0  0  0  0  0  0  0  0
    1.8668    4.0439    0.0000 C   0  0  0  0  0  0  0  0  0  0  0  0
    1.4543    3.3295    0.0000 C   0  0  0  0  0  0  0  0  0  0  0  0
    3.9293    3.3295    0.0000 O   0  0  0  0  0  0  0  0  0  0  0  0
    2.6918    2.6150    0.0000 O   0  0  0  0  0  0  0  0  0  0  0  0
    1.8668    2.6150    0.0000 O   0  0  0  0  0  0  0  0  0  0  0  0
    0.6293    3.3295    0.0000 O   0  0  0  0  0  0  0  0  0  0  0  0
    0.9702   -3.7203    0.0000 C   0  0  0  0  0  0  0  0  0  0  0  0
    0.1452   -3.7203    0.0000 C   0  0  0  0  0  0  0  0  0  0  0  0
    1.2251   -2.9356    0.0000 S   0  0  0  0  0  0  0  0  0  0  0  0
   -0.1097   -2.9356    0.0000 C   0  0  0  0  0  0  0  0  0  0  0  0
    0.5577   -2.4507    0.0000 C   0  0  0  0  0  0  0  0  0  0  0  0
    0.5577   -1.6257    0.0000 C   0  0  0  0  0  0  0  0  0  0  0  0
    2.0098   -1.3957    0.0000 N   0  0  0  0  0  0  0  0  0  0  0  0
    1.2251   -1.1408    0.0000 C   0  0  0  0  0  0  0  0  0  0  0  0
    0.9702   -0.3562    0.0000 S   0  0  0  0  0  0  0  0  0  0  0  0
   -0.1097   -1.1408    0.0000 N   0  0  0  0  0  0  0  0  0  0  0  0
   -0.3397   -4.3877    0.0000 Cl  0  0  0  0  0  0  0  0  0  0  0  0
   -1.1602    0.2250    0.0000 C   0  0  0  0  0  0  0  0  0  0  0  0
   -1.6451    0.8925    0.0000 C   0  0  0  0  0  0  0  0  0  0  0  0
   -0.3397    0.3113    0.0000 N   0  0  0  0  0  0  0  0  0  0  0  0
   -1.4958   -0.5286    0.0000 O   0  0  0  0  0  0  0  0  0  0  0  0
   -2.4656    0.8062    0.0000 C   0  0  0  0  0  0  0  0  0  0  0  0
   -2.9505    1.4737    0.0000 N   0  0  0  0  0  0  0  0  0  0  0  0
   -1.3096    1.6462    0.0000 C   0  0  0  0  0  0  0  0  0  0  0  0
   -1.7945    2.3136    0.0000 C   0  0  0  0  0  0  0  0  0  0  0  0
   -2.6150    2.2274    0.0000 C   0  0  0  0  0  0  0  0  0  0  0  0
   -3.0999    2.8948    0.0000 N   0  0  0  0  0  0  0  0  0  0  0  0
   -1.4589    3.0673    0.0000 Cl  0  0  0  0  0  0  0  0  0  0  0  0
    0.1452   -0.3562    0.0000 C   0  0  0  0  0  0  0  0  0  0  0  0
   -3.9204    2.8086    0.0000 C   0  0  0  0  0  0  0  0  0  0  0  0
   -4.4053    3.4760    0.0000 C   0  0  0  0  0  0  0  0  0  0  0  0
   -4.0697    4.2297    0.0000 C   0  0  0  0  0  0  0  0  0  0  0  0
   -2.7643    3.6485    0.0000 C   0  0  0  0  0  0  0  0  0  0  0  0
   -3.2493    4.3159    0.0000 C   0  0  0  0  0  0  0  0  0  0  0  0
   -4.2191    5.6508    0.0000 O   0  0  0  0  0  0  0  0  0  0  0  0
   -5.3752    4.8109    0.0000 O   0  0  0  0  0  0  0  0  0  0  0  0
   -4.5547    4.8971    0.0000 C   0  0  0  0  0  0  0  0  0  0  0  0
    3.5790   -1.9056    0.0000 N   0  0  0  0  0  0  0  0  0  0  0  0
    3.4075   -1.0986    0.0000 C   0  0  0  0  0  0  0  0  0  0  0  0
    2.6228   -0.8437    0.0000 C   0  0  0  0  0  0  0  0  0  0  0  0
    2.9659   -2.4576    0.0000 C   0  0  0  0  0  0  0  0  0  0  0  0
    2.1813   -2.2027    0.0000 C   0  0  0  0  0  0  0  0  0  0  0  0
    5.9329   -2.6704    0.0000 C   0  0  0  0  0  0  0  0  0  0  0  0
    5.3198   -3.2225    0.0000 C   0  0  0  0  0  0  0  0  0  0  0  0
    4.3636   -2.1605    0.0000 C   0  0  0  0  0  0  0  0  0  0  0  0
    4.9767   -1.6085    0.0000 C   0  0  0  0  0  0  0  0  0  0  0  0
    5.7613   -1.8634    0.0000 C   0  0  0  0  0  0  0  0  0  0  0  0
    4.5351   -2.9675    0.0000 C   0  0  0  0  0  0  0  0  0  0  0  0
  1  2  1  0
  2  3  2  0
  3  4  1  0
  1  5  1  0
  1  6  2  0
  4  7  1  0
  4  8  2  0
  9 10  2  0
 10 12  1  0
 10 19  1  0
 11  9  1  0
 12 13  2  0
 13 11  1  0
 13 14  1  0
 14 18  1  0
 15 16  1  0
 15 42  1  0
 15 44  1  0
 16 14  2  0
 17 16  1  0
 18 31  2  0
 20 21  1  0
 20 22  1  0
 21 24  2  0
 21 26  1  0
 23 20  2  0
 24 25  1  0
 25 28  2  0
 26 27  2  0
 27 30  1  0
 28 27  1  0
 28 29  1  0
 29 32  1  0
 31 17  1  0
 31 22  1  0
 32 33  1  0
 33 34  1  0
 35 29  1  0
 35 36  1  0
 36 34  1  0
 39 38  2  0
 39 37  1  0
 39 34  1  0
 40 41  1  0
 41 42  1  0
 43 40  1  0
 43 44  1  0
 45 46  1  0
 45 49  1  0
 47 40  1  0
 47 50  1  0
 48 49  1  0
 48 47  1  0
 50 46  1  0
M  END
> <chembl_id>
CHEMBL2105758

> <chembl_pref_name>
AVATROMBOPAG MALEATE
