
     RDKit          2D

 27 27  0  0  0  0  0  0  0  0999 V2000
    4.7750   -6.6417    0.0000 O   0  0  0  0  0  0  0  0  0  0  0  0
    1.6042   -5.2375    0.0000 N   0  0  0  0  0  0  0  0  0  0  0  0
    0.8958   -5.2375    0.0000 C   0  0  0  0  0  0  0  0  0  0  0  0
    0.8958   -4.5292    0.0000 C   0  0  0  0  0  0  0  0  0  0  0  0
    1.6042   -4.5292    0.0000 C   0  0  0  0  0  0  0  0  0  0  0  0
    2.2125   -5.5917    0.0000 C   0  0  0  0  0  0  0  0  0  0  0  0
    0.2792   -4.1750    0.0000 N   0  0  0  0  0  0  0  0  0  0  0  0
    2.2125   -4.1750    0.0000 S   0  0  0  0  0  0  0  0  0  0  0  0
   -0.3375   -4.5292    0.0000 C   0  0  0  0  0  0  0  0  0  0  0  0
    2.8250   -5.2375    0.0000 C   0  0  0  0  0  0  0  0  0  0  0  0
    2.2125   -6.3000    0.0000 C   0  0  0  0  0  0  0  0  0  0  0  0
   -0.9500   -4.1750    0.0000 C   0  0  0  0  0  0  0  0  0  0  0  0
    2.8250   -4.5292    0.0000 C   0  0  0  0  0  0  0  0  0  0  0  0
    0.3917   -5.7375    0.0000 O   0  0  0  0  0  0  0  0  0  0  0  0
   -0.3333   -5.2375    0.0000 O   0  0  0  0  0  0  0  0  0  0  0  0
    1.6000   -6.6542    0.0000 O   0  0  0  0  0  0  0  0  0  0  0  0
   -1.5625   -4.5333    0.0000 C   0  0  0  0  0  0  0  0  0  0  0  0
   -0.9500   -3.4667    0.0000 N   0  0  0  0  0  0  0  0  0  0  0  0
    2.8292   -6.6542    0.0000 O   0  0  0  0  0  0  0  0  0  0  0  0
    3.4417   -5.5875    0.0000 C   0  0  0  0  0  0  0  0  0  0  0  0
   -1.5583   -5.2333    0.0000 C   0  0  0  0  0  0  0  0  0  0  0  0
   -2.1750   -4.1750    0.0000 C   0  0  0  0  0  0  0  0  0  0  0  0
   -2.7875   -4.5292    0.0000 C   0  0  0  0  0  0  0  0  0  0  0  0
   -2.1667   -5.5917    0.0000 C   0  0  0  0  0  0  0  0  0  0  0  0
   -2.7875   -5.2375    0.0000 C   0  0  0  0  0  0  0  0  0  0  0  0
    1.6000   -3.8167    0.0000 H   0  0  0  0  0  0  0  0  0  0  0  0
    3.8792   -6.6417    0.0000 Cl  0  0  0  0  0  0  0  0  0  0  0  0
  3  2  1  0
  4  3  1  0
  5  2  1  0
  6  2  1  0
  4  7  1  1
  8  5  1  0
  9  7  1  0
 10  6  2  0
 11  6  1  0
 12  9  1  0
 13 10  1  0
 14  3  2  0
 15  9  2  0
 16 11  2  0
 17 12  1  0
 12 18  1  1
 19 11  1  0
 20 10  1  0
 21 17  1  0
 22 17  2  0
 23 22  1  0
 24 21  2  0
 25 24  1  0
  5 26  1  6
  4  5  1  0
  8 13  1  0
 25 23  2  0
M  END
> <chembl_id>
CHEMBL1200366

> <chembl_pref_name>
CEPHALEXIN HYDROCHLORIDE
