
     RDKit          2D

 23 24  0  0  0  0  0  0  0  0999 V2000
   -0.1708   -0.5542    0.0000 S   0  0  0  0  0  0  0  0  0  0  0  0
    2.9125    1.2458    0.0000 S   0  0  0  0  0  0  0  0  0  0  0  0
    2.3917    0.3458    0.0000 C   0  0  0  0  0  0  0  0  0  0  0  0
    0.8667   -0.5542    0.0000 C   0  0  0  0  0  0  0  0  0  0  0  0
    1.3542    0.3458    0.0000 C   0  0  0  0  0  0  0  0  0  0  0  0
   -1.2083   -0.5542    0.0000 N   0  0  0  0  0  0  0  0  0  0  0  0
   -1.7000   -1.4292    0.0000 C   0  0  0  0  0  0  0  0  0  0  0  0
   -0.1708    0.4833    0.0000 O   0  0  0  0  0  0  0  0  0  0  0  0
   -0.1708   -1.5625    0.0000 O   0  0  0  0  0  0  0  0  0  0  0  0
    2.8875   -0.5542    0.0000 C   0  0  0  0  0  0  0  0  0  0  0  0
    2.0042    1.7625    0.0000 O   0  0  0  0  0  0  0  0  0  0  0  0
    3.8167    0.7000    0.0000 O   0  0  0  0  0  0  0  0  0  0  0  0
   -2.7333   -1.4292    0.0000 C   0  0  0  0  0  0  0  0  0  0  0  0
    3.4542    2.1458    0.0000 N   0  0  0  0  0  0  0  0  0  0  0  0
    1.3542   -1.4292    0.0000 C   0  0  0  0  0  0  0  0  0  0  0  0
   -3.4208   -0.6625    0.0000 O   0  0  0  0  0  0  0  0  0  0  0  0
    2.3917   -1.4292    0.0000 C   0  0  0  0  0  0  0  0  0  0  0  0
    3.9167   -0.5542    0.0000 Cl  0  0  0  0  0  0  0  0  0  0  0  0
   -1.7000    0.3458    0.0000 C   0  0  0  0  0  0  0  0  0  0  0  0
   -2.2333   -2.2417    0.0000 C   0  0  0  0  0  0  0  0  0  0  0  0
   -3.2250   -2.3000    0.0000 C   0  0  0  0  0  0  0  0  0  0  0  0
   -4.3458   -1.0750    0.0000 C   0  0  0  0  0  0  0  0  0  0  0  0
   -4.2083   -2.0792    0.0000 C   0  0  0  0  0  0  0  0  0  0  0  0
  2  3  1  0
  3  5  1  0
  4  1  1  0
  5  4  2  0
  6  1  1  0
  7  6  1  0
  8  1  2  0
  9  1  2  0
 10 17  1  0
 11  2  2  0
 12  2  2  0
 13  7  1  0
 14  2  1  0
 15  4  1  0
 16 13  1  0
 17 15  2  0
 18 10  1  0
 19  6  1  0
 20 13  1  0
 21 13  1  0
 22 16  1  0
 23 21  1  0
  3 10  2  0
 23 22  1  0
M  END
> <chembl_id>
CHEMBL2105131

> <chembl_pref_name>
MEFRUSIDE
