
     RDKit          2D

 32 33  0  0  0  0  0  0  0  0999 V2000
    4.4375    0.7188    0.0000 Cl  0  0  0  0  0  0  0  0  0  0  0  0
   -2.3542   -1.3958    0.0000 C   0  0  0  0  0  0  0  0  0  0  0  0
   -3.0250   -0.9000    0.0000 C   0  0  0  0  0  0  0  0  0  0  0  0
   -1.6458   -0.9708    0.0000 C   0  0  0  0  0  0  0  0  0  0  0  0
   -3.6958   -1.3833    0.0000 O   0  0  0  0  0  0  0  0  0  0  0  0
   -0.9292   -1.3792    0.0000 C   0  0  0  0  0  0  0  0  0  0  0  0
   -2.6250   -2.1792    0.0000 C   0  0  0  0  0  0  0  0  0  0  0  0
   -3.4500   -2.1708    0.0000 C   0  0  0  0  0  0  0  0  0  0  0  0
    0.5000   -2.1917    0.0000 C   0  0  0  0  0  0  0  0  0  0  0  0
   -0.2000   -2.6083    0.0000 C   0  0  0  0  0  0  0  0  0  0  0  0
    0.4958   -1.3667    0.0000 C   0  0  0  0  0  0  0  0  0  0  0  0
   -0.9208   -2.2042    0.0000 C   0  0  0  0  0  0  0  0  0  0  0  0
   -0.2208   -0.9583    0.0000 C   0  0  0  0  0  0  0  0  0  0  0  0
   -1.6500   -0.1458    0.0000 O   0  0  0  0  0  0  0  0  0  0  0  0
   -0.2000   -3.4333    0.0000 I   0  0  0  0  0  0  0  0  0  0  0  0
    1.2000   -0.9417    0.0000 I   0  0  0  0  0  0  0  0  0  0  0  0
    1.2250   -2.5917    0.0000 O   0  0  0  0  0  0  0  0  0  0  0  0
   -3.0250   -0.0750    0.0000 C   0  0  0  0  0  0  0  0  0  0  0  0
    3.3583   -2.1625    0.0000 N   0  0  0  0  0  0  0  0  0  0  0  0
   -2.2125   -2.8917    0.0000 C   0  0  0  0  0  0  0  0  0  0  0  0
    1.9292   -2.1792    0.0000 C   0  0  0  0  0  0  0  0  0  0  0  0
   -3.8625   -2.8917    0.0000 C   0  0  0  0  0  0  0  0  0  0  0  0
    2.6542   -2.5792    0.0000 C   0  0  0  0  0  0  0  0  0  0  0  0
    4.0875   -2.5667    0.0000 C   0  0  0  0  0  0  0  0  0  0  0  0
    3.3542   -1.3375    0.0000 C   0  0  0  0  0  0  0  0  0  0  0  0
   -2.3083    0.3333    0.0000 C   0  0  0  0  0  0  0  0  0  0  0  0
   -2.3000    1.1625    0.0000 C   0  0  0  0  0  0  0  0  0  0  0  0
    4.0625   -0.9167    0.0000 C   0  0  0  0  0  0  0  0  0  0  0  0
    4.7917   -2.1500    0.0000 C   0  0  0  0  0  0  0  0  0  0  0  0
   -2.6250   -3.6083    0.0000 C   0  0  0  0  0  0  0  0  0  0  0  0
   -3.4500   -3.6083    0.0000 C   0  0  0  0  0  0  0  0  0  0  0  0
   -1.5792    1.5667    0.0000 C   0  0  0  0  0  0  0  0  0  0  0  0
  3  2  2  0
  4  2  1  0
  5  3  1  0
  6  4  1  0
  7  2  1  0
  8  7  1  0
  9 11  1  0
 10 12  1  0
 11 13  2  0
 12  6  2  0
 13  6  1  0
 14  4  2  0
 15 10  1  0
 16 11  1  0
 17  9  1  0
 18  3  1  0
 19 23  1  0
 20  7  2  0
 21 17  1  0
 22  8  2  0
 23 21  1  0
 24 19  1  0
 25 19  1  0
 26 18  1  0
 27 26  1  0
 28 25  1  0
 29 24  1  0
 30 20  1  0
 31 30  2  0
 32 27  1  0
  8  5  1  0
 22 31  1  0
 10  9  2  0
M  END
> <chembl_id>
CHEMBL1083993

> <chembl_pref_name>
AMIODARONE HYDROCHLORIDE
