
     RDKit          2D

 15 16  0  0  0  0  0  0  0  0999 V2000
   -1.1449    3.6399    0.0000 S   0  0  0  0  0  0  0  0  0  0  0  0
   -2.5739    1.1649    0.0000 O   0  0  0  0  0  0  0  0  0  0  0  0
   -0.4305    2.4024    0.0000 N   0  0  0  0  0  0  0  0  0  0  0  0
   -1.8594    2.4024    0.0000 N   0  0  0  0  0  0  0  0  0  0  0  0
   -0.4305    1.5774    0.0000 C   0  0  0  0  0  0  0  0  0  0  0  0
   -1.1449    2.8149    0.0000 C   0  0  0  0  0  0  0  0  0  0  0  0
   -1.8594    1.5774    0.0000 C   0  0  0  0  0  0  0  0  0  0  0  0
   -1.1449    1.1649    0.0000 C   0  0  0  0  0  0  0  0  0  0  0  0
    0.2840    1.1649    0.0000 C   0  0  0  0  0  0  0  0  0  0  0  0
    0.2840    0.3399    0.0000 C   0  0  0  0  0  0  0  0  0  0  0  0
    0.9985   -0.0726    0.0000 C   0  0  0  0  0  0  0  0  0  0  0  0
   -0.4305   -0.0726    0.0000 C   0  0  0  0  0  0  0  0  0  0  0  0
    0.9985   -0.8976    0.0000 C   0  0  0  0  0  0  0  0  0  0  0  0
   -0.4305   -0.8976    0.0000 C   0  0  0  0  0  0  0  0  0  0  0  0
    0.2840   -1.3101    0.0000 C   0  0  0  0  0  0  0  0  0  0  0  0
  1  6  1  0
  2  7  1  0
  3  5  2  0
  3  6  1  0
  4  6  2  0
  4  7  1  0
  5  8  1  0
  5  9  1  0
  7  8  2  0
  9 10  1  0
 10 11  2  0
 10 12  1  0
 11 13  1  0
 12 14  2  0
 13 15  2  0
 14 15  1  0
M  END
> <chembl_id>
CHEMBL1491306

> <chembl_pref_name>
BENZYLTHIOURACIL
