
     RDKit          2D

 94100  0  0  1  0  0  0  0  0999 V2000
   -1.1000   -0.2542    0.0000 N   0  0  0  0  0  0  0  0  0  0  0  0
    2.5792   -0.9667    0.0000 N   0  0  0  0  0  0  0  0  0  0  0  0
   -1.1000   -0.9667    0.0000 C   0  0  0  0  0  0  0  0  0  0  0  0
   -0.4833    0.0958    0.0000 C   0  0  0  0  0  0  0  0  0  0  0  0
    1.9667   -1.3167    0.0000 C   0  0  0  0  0  0  0  0  0  0  0  0
    1.3542    1.1583    0.0000 C   0  0  0  0  0  0  0  0  0  0  0  0
   -0.4833    0.8083    0.0000 C   0  0  0  0  0  0  0  0  0  0  0  0
   -0.4833   -1.3167    0.0000 C   0  0  0  0  0  0  0  0  0  0  0  0
    1.9667   -2.0292    0.0000 C   0  0  0  0  0  0  0  0  0  0  0  0
    0.1292    1.1583    0.0000 N   0  0  0  0  0  0  0  0  0  0  0  0
    1.9667    0.8083    0.0000 N   0  0  0  0  0  0  0  0  0  0  0  0
    1.3542   -2.3792    0.0000 N   0  0  0  0  0  0  0  0  0  0  0  0
    0.7417    0.8083    0.0000 C   0  0  0  0  0  0  0  0  0  0  0  0
   -0.4833   -2.0292    0.0000 N   0  0  0  0  0  0  0  0  0  0  0  0
    5.0292    1.8750    0.0000 S   0  0  0  0  0  0  0  0  0  0  0  0
    1.9667    0.0958    0.0000 C   0  0  0  0  0  0  0  0  0  0  0  0
    2.5792   -0.2542    0.0000 C   0  0  0  0  0  0  0  0  0  0  0  0
    1.3542   -3.0917    0.0000 C   0  0  0  0  0  0  0  0  0  0  0  0
   -0.5000   -7.6875    0.0000 N   0  0  0  0  0  0  0  0  0  0  0  0
    1.3542    1.8708    0.0000 C   0  0  0  0  0  0  0  0  0  0  0  0
    0.7292   -7.6917    0.0000 C   0  0  0  0  0  0  0  0  0  0  0  0
   -1.7125    0.1000    0.0000 C   0  0  0  0  0  0  0  0  0  0  0  0
    0.7167   -8.4042    0.0000 C   0  0  0  0  0  0  0  0  0  0  0  0
    0.1167   -7.3375    0.0000 C   0  0  0  0  0  0  0  0  0  0  0  0
   -0.5083   -8.3917    0.0000 O   0  0  0  0  0  0  0  0  0  0  0  0
   -2.3333   -0.9667    0.0000 C   0  0  0  0  0  0  0  0  0  0  0  0
    0.7417   -3.4417    0.0000 C   0  0  0  0  0  0  0  0  0  0  0  0
    3.8042    1.8708    0.0000 C   0  0  0  0  0  0  0  0  0  0  0  0
    0.1250   -4.5000    0.0000 C   0  0  0  0  0  0  0  0  0  0  0  0
   -1.1000   -2.3792    0.0000 C   0  0  0  0  0  0  0  0  0  0  0  0
   -2.3333   -0.2542    0.0000 C   0  0  0  0  0  0  0  0  0  0  0  0
    0.7417   -4.1542    0.0000 N   0  0  0  0  0  0  0  0  0  0  0  0
   -1.1000    1.1583    0.0000 C   0  0  0  0  0  0  0  0  0  0  0  0
    4.4167    2.2333    0.0000 O   0  0  0  0  0  0  0  0  0  0  0  0
   -1.7125    0.8083    0.0000 C   0  0  0  0  0  0  0  0  0  0  0  0
    1.9667    2.2208    0.0000 C   0  0  0  0  0  0  0  0  0  0  0  0
    2.5792    1.8708    0.0000 C   0  0  0  0  0  0  0  0  0  0  0  0
    0.1292   -3.0875    0.0000 C   0  0  0  0  0  0  0  0  0  0  0  0
    3.1917    2.2208    0.0000 C   0  0  0  0  0  0  0  0  0  0  0  0
    3.1917   -1.3167    0.0000 C   0  0  0  0  0  0  0  0  0  0  0  0
    3.8125   -0.2500    0.0000 C   0  0  0  0  0  0  0  0  0  0  0  0
   -1.0958   -3.0917    0.0000 C   0  0  0  0  0  0  0  0  0  0  0  0
   -2.3250    1.1583    0.0000 C   0  0  0  0  0  0  0  0  0  0  0  0
    0.1292   -0.2542    0.0000 O   0  0  0  0  0  0  0  0  0  0  0  0
    1.3542   -0.9667    0.0000 O   0  0  0  0  0  0  0  0  0  0  0  0
    5.3792    2.4958    0.0000 O   0  0  0  0  0  0  0  0  0  0  0  0
    4.6792    1.2583    0.0000 O   0  0  0  0  0  0  0  0  0  0  0  0
    1.3292   -8.7625    0.0000 C   0  0  0  0  0  0  0  0  0  0  0  0
    0.1167   -5.2042    0.0000 C   0  0  0  0  0  0  0  0  0  0  0  0
    0.1292   -0.9667    0.0000 O   0  0  0  0  0  0  0  0  0  0  0  0
    0.1167   -6.6292    0.0000 C   0  0  0  0  0  0  0  0  0  0  0  0
    3.8042    1.1583    0.0000 C   0  0  0  0  0  0  0  0  0  0  0  0
    0.7417    0.0958    0.0000 O   0  0  0  0  0  0  0  0  0  0  0  0
    1.3542   -0.2542    0.0000 O   0  0  0  0  0  0  0  0  0  0  0  0
    1.9667   -3.4417    0.0000 O   0  0  0  0  0  0  0  0  0  0  0  0
   -0.4958   -4.1500    0.0000 O   0  0  0  0  0  0  0  0  0  0  0  0
    2.5792   -2.3792    0.0000 C   0  0  0  0  0  0  0  0  0  0  0  0
    3.8125   -0.9625    0.0000 C   0  0  0  0  0  0  0  0  0  0  0  0
    2.5792    1.1583    0.0000 C   0  0  0  0  0  0  0  0  0  0  0  0
    5.6417    1.5208    0.0000 O   0  0  0  0  0  0  0  0  0  0  0  0
   -2.3250    1.8708    0.0000 O   0  0  0  0  0  0  0  0  0  0  0  0
    3.1917    0.8083    0.0000 C   0  0  0  0  0  0  0  0  0  0  0  0
   -0.4958   -5.5542    0.0000 C   0  0  0  0  0  0  0  0  0  0  0  0
    0.7375   -5.5625    0.0000 C   0  0  0  0  0  0  0  0  0  0  0  0
    0.7375   -6.2750    0.0000 C   0  0  0  0  0  0  0  0  0  0  0  0
   -0.5000   -6.2667    0.0000 C   0  0  0  0  0  0  0  0  0  0  0  0
    1.3250   -9.4667    0.0000 C   0  0  0  0  0  0  0  0  0  0  0  0
    1.9417   -8.4125    0.0000 C   0  0  0  0  0  0  0  0  0  0  0  0
    0.7417    2.2208    0.0000 O   0  0  0  0  0  0  0  0  0  0  0  0
   -2.9375    0.8083    0.0000 N   0  0  0  0  0  0  0  0  0  0  0  0
   -2.9458   -1.3167    0.0000 O   0  0  0  0  0  0  0  0  0  0  0  0
   -1.7125   -2.0292    0.0000 O   0  0  0  0  0  0  0  0  0  0  0  0
    1.9667    2.9333    0.0000 O   0  0  0  0  0  0  0  0  0  0  0  0
   -1.1000    1.8708    0.0000 O   0  0  0  0  0  0  0  0  0  0  0  0
    2.5500   -9.4792    0.0000 C   0  0  0  0  0  0  0  0  0  0  0  0
   -1.7125   -3.4417    0.0000 O   0  0  0  0  0  0  0  0  0  0  0  0
    2.5542   -8.7667    0.0000 C   0  0  0  0  0  0  0  0  0  0  0  0
    1.9292   -9.8292    0.0000 C   0  0  0  0  0  0  0  0  0  0  0  0
    4.4167    0.8083    0.0000 O   0  0  0  0  0  0  0  0  0  0  0  0
    4.4250   -1.3167    0.0000 O   0  0  0  0  0  0  0  0  0  0  0  0
    2.5792   -3.0917    0.0000 O   0  0  0  0  0  0  0  0  0  0  0  0
   -2.9458    0.1000    0.0000 C   0  0  0  0  0  0  0  0  0  0  0  0
    3.1625   -9.8375    0.0000 O   0  0  0  0  0  0  0  0  0  0  0  0
    3.1917   -2.0292    0.0000 C   0  0  0  0  0  0  0  0  0  0  0  0
    3.7792   -9.4875    0.0000 C   0  0  0  0  0  0  0  0  0  0  0  0
    4.3875   -9.8417    0.0000 C   0  0  0  0  0  0  0  0  0  0  0  0
    5.6167   -9.8542    0.0000 C   0  0  0  0  0  0  0  0  0  0  0  0
    5.0042   -9.4917    0.0000 C   0  0  0  0  0  0  0  0  0  0  0  0
    6.2292   -9.5042    0.0000 C   0  0  0  0  0  0  0  0  0  0  0  0
    1.3500    0.4583    0.0000 H   0  0  0  0  0  0  0  0  0  0  0  0
   -0.4875    1.5125    0.0000 H   0  0  0  0  0  0  0  0  0  0  0  0
    1.9625   -2.7292    0.0000 H   0  0  0  0  0  0  0  0  0  0  0  0
    2.5792    0.4583    0.0000 H   0  0  0  0  0  0  0  0  0  0  0  0
   -1.1083   -1.6667    0.0000 H   0  0  0  0  0  0  0  0  0  0  0  0
  2 17  1  0
  3  1  1  0
  4  1  1  0
  5  2  1  0
  6 13  1  0
  7  4  1  0
  8  3  1  0
  9 12  1  0
 10  7  1  0
 11  6  1  0
 12 18  1  0
 13 10  1  0
 14  8  1  0
 15 34  1  0
 16 11  1  0
 17 16  1  0
 18 27  1  0
 19 24  2  0
 20  6  1  0
 21 24  1  0
 22  1  1  0
 23 21  2  0
 24 51  1  0
 25 19  1  0
 26  3  1  0
 27 38  1  0
 28 39  2  0
 29 32  1  0
 30 14  1  0
 31 22  1  0
 27 32  1  1
 33  7  1  0
 34 28  1  0
 35 33  1  0
 36 20  1  0
 37 36  1  0
 38 42  1  0
 39 37  1  0
 40  2  1  0
 41 17  1  0
 42 30  1  0
 43 35  1  0
 44  4  2  0
 45  5  2  0
 46 15  2  0
 47 15  2  0
 48 23  1  0
 49 29  1  0
 50  8  2  0
 51 65  1  0
 52 62  2  0
 53 13  2  0
 54 16  2  0
 55 18  2  0
 56 29  2  0
 57  9  1  0
 58 41  1  0
 59 37  2  0
 60 15  1  0
 61 43  2  0
 62 59  1  0
 63 49  2  0
 64 49  1  0
 65 64  2  0
 66 63  1  0
 67 48  2  0
 68 48  1  0
 20 69  1  6
 70 43  1  0
 26 71  1  1
 30 72  1  1
 36 73  1  1
 33 74  1  1
 75 77  1  0
 42 76  1  1
 77 68  2  0
 78 67  1  0
 79 52  1  0
 58 80  1  1
 57 81  1  1
 31 82  1  1
 83 75  1  0
 84 57  1  0
 85 83  1  0
 86 85  1  0
 87 88  1  0
 88 86  1  0
 89 87  1  0
  6 90  1  1
  7 91  1  1
  9 92  1  1
 17 93  1  1
  3 94  1  1
 26 31  1  0
 58 40  1  0
  9  5  1  0
 52 28  1  0
 51 66  2  0
 23 25  1  0
 75 78  2  0
M  END
> <chembl_id>
CHEMBL457547

> <chembl_pref_name>
MICAFUNGIN
