
     RDKit          2D

 12 12  0  0  0  0  0  0  0  0999 V2000
   -3.1833   -0.8000    0.0000 S   0  0  0  0  0  0  0  0  0  0  0  0
   -4.1875   -0.0292    0.0000 S   0  0  0  0  0  0  0  0  0  0  0  0
    3.2917    0.2458    0.0000 C   0  0  0  0  0  0  0  0  0  0  0  0
    4.2542    1.0583    0.0000 O   0  0  0  0  0  0  0  0  0  0  0  0
   -2.1458   -0.0917    0.0000 C   0  0  0  0  0  0  0  0  0  0  0  0
    3.5167   -0.9667    0.0000 O   0  0  0  0  0  0  0  0  0  0  0  0
   -2.5000    1.0958    0.0000 C   0  0  0  0  0  0  0  0  0  0  0  0
   -3.7583    1.1333    0.0000 C   0  0  0  0  0  0  0  0  0  0  0  0
    2.1042    0.6708    0.0000 C   0  0  0  0  0  0  0  0  0  0  0  0
   -0.9625   -0.5167    0.0000 C   0  0  0  0  0  0  0  0  0  0  0  0
    1.1500   -0.1250    0.0000 C   0  0  0  0  0  0  0  0  0  0  0  0
   -0.0208    0.2833    0.0000 C   0  0  0  0  0  0  0  0  0  0  0  0
  2  1  1  0
  3  9  1  0
  4  3  2  0
  5  1  1  0
  6  3  1  0
  7  5  1  0
  8  2  1  0
  9 11  1  0
 10  5  1  0
 11 12  1  0
 12 10  1  0
  7  8  1  0
M  END
> <chembl_id>
CHEMBL33864

> <chembl_pref_name>
LIPOIC ACID, ALPHA
