
     RDKit          2D

 18 18  0  0  0  0  0  0  0  0999 V2000
    0.6417   -0.3375    0.0000 C   0  0  0  0  0  0  0  0  0  0  0  0
   -0.0625   -0.7375    0.0000 C   0  0  0  0  0  0  0  0  0  0  0  0
    1.3542   -0.7375    0.0000 C   0  0  0  0  0  0  0  0  0  0  0  0
   -0.0625   -1.5792    0.0000 O   0  0  0  0  0  0  0  0  0  0  0  0
    2.0917   -0.3167    0.0000 C   0  0  0  0  0  0  0  0  0  0  0  0
    3.5167    0.5208    0.0000 C   0  0  0  0  0  0  0  0  0  0  0  0
   -0.7833   -0.3375    0.0000 O   0  0  0  0  0  0  0  0  0  0  0  0
    2.0917    0.5208    0.0000 C   0  0  0  0  0  0  0  0  0  0  0  0
    2.8042   -0.7167    0.0000 C   0  0  0  0  0  0  0  0  0  0  0  0
    3.5167   -0.3167    0.0000 C   0  0  0  0  0  0  0  0  0  0  0  0
    2.8042    0.9250    0.0000 C   0  0  0  0  0  0  0  0  0  0  0  0
    4.2542    0.9458    0.0000 O   0  0  0  0  0  0  0  0  0  0  0  0
   -2.9208   -0.7375    0.0000 O   0  0  0  0  0  0  0  0  0  0  0  0
   -1.4958   -0.7375    0.0000 C   0  0  0  0  0  0  0  0  0  0  0  0
   -2.2083   -0.3375    0.0000 C   0  0  0  0  0  0  0  0  0  0  0  0
   -3.6333   -0.3375    0.0000 C   0  0  0  0  0  0  0  0  0  0  0  0
    4.2542    1.7833    0.0000 C   0  0  0  0  0  0  0  0  0  0  0  0
   -4.3458   -0.7375    0.0000 C   0  0  0  0  0  0  0  0  0  0  0  0
  2  1  1  0
  3  1  2  0
  4  2  2  0
  5  3  1  0
  6 10  2  0
  7  2  1  0
  8  5  1  0
  9  5  2  0
 10  9  1  0
 11  8  2  0
 12  6  1  0
 13 15  1  0
 14  7  1  0
 15 14  1  0
 16 13  1  0
 17 12  1  0
 18 16  1  0
 11  6  1  0
M  END
> <chembl_id>
CHEMBL2104045

> <chembl_pref_name>
CINOXATE
