
     RDKit          2D

 11 11  0  0  0  0  0  0  0  0999 V2000
    8.1667   -1.5792    0.0000 C   0  0  0  0  0  0  0  0  0  0  0  0
    7.5542   -1.2250    0.0000 C   0  0  0  0  0  0  0  0  0  0  0  0
    8.7792   -1.2167    0.0000 N   0  0  0  0  0  0  0  0  0  0  0  0
    6.9417   -1.5792    0.0000 C   0  0  0  0  0  0  0  0  0  0  0  0
    7.8167   -2.1917    0.0000 C   0  0  0  0  0  0  0  0  0  0  0  0
    8.5250   -2.1917    0.0000 C   0  0  0  0  0  0  0  0  0  0  0  0
    6.9417   -2.2917    0.0000 C   0  0  0  0  0  0  0  0  0  0  0  0
    6.3292   -1.2292    0.0000 C   0  0  0  0  0  0  0  0  0  0  0  0
    6.3292   -2.6500    0.0000 C   0  0  0  0  0  0  0  0  0  0  0  0
    5.7167   -1.5792    0.0000 C   0  0  0  0  0  0  0  0  0  0  0  0
    5.7167   -2.2917    0.0000 C   0  0  0  0  0  0  0  0  0  0  0  0
  2  1  1  0
  3  1  1  0
  4  2  1  0
  5  1  1  0
  6  1  1  0
  7  4  1  0
  8  4  2  0
  9  7  2  0
 10  8  1  0
 11 10  2  0
  9 11  1  0
M  END
> <chembl_id>
CHEMBL1574

> <chembl_pref_name>
PHENTERMINE
