
     RDKit          2D

 30 32  0  0  1  0  0  0  0  0999 V2000
    5.3667   -4.8417    0.0000 C   0  0  0  0  0  0  0  0  0  0  0  0
    5.3750   -5.5500    0.0000 C   0  0  0  0  0  0  0  0  0  0  0  0
    4.1417   -7.6792    0.0000 C   0  0  0  0  0  0  0  0  0  0  0  0
    6.0417   -4.6167    0.0000 C   0  0  0  0  0  0  0  0  0  0  0  0
    4.1417   -6.9667    0.0000 C   0  0  0  0  0  0  0  0  0  0  0  0
    4.7542   -8.0250    0.0000 C   0  0  0  0  0  0  0  0  0  0  0  0
    4.7542   -5.9042    0.0000 C   0  0  0  0  0  0  0  0  0  0  0  0
    4.7542   -6.6167    0.0000 C   0  0  0  0  0  0  0  0  0  0  0  0
    6.0417   -5.7625    0.0000 C   0  0  0  0  0  0  0  0  0  0  0  0
    6.4542   -5.1917    0.0000 C   0  0  0  0  0  0  0  0  0  0  0  0
    3.5292   -8.0292    0.0000 C   0  0  0  0  0  0  0  0  0  0  0  0
    4.7542   -8.7375    0.0000 C   0  0  0  0  0  0  0  0  0  0  0  0
    5.3667   -7.6667    0.0000 C   0  0  0  0  0  0  0  0  0  0  0  0
    6.0375   -3.9125    0.0000 C   0  0  0  0  0  0  0  0  0  0  0  0
    4.7542   -4.4917    0.0000 C   0  0  0  0  0  0  0  0  0  0  0  0
    5.3667   -4.1292    0.0000 C   0  0  0  0  0  0  0  0  0  0  0  0
    3.5292   -8.7292    0.0000 C   0  0  0  0  0  0  0  0  0  0  0  0
    4.1417   -9.0917    0.0000 C   0  0  0  0  0  0  0  0  0  0  0  0
    4.1500   -5.5542    0.0000 C   0  0  0  0  0  0  0  0  0  0  0  0
    2.9167   -9.0792    0.0000 O   0  0  0  0  0  0  0  0  0  0  0  0
    4.1500   -4.8417    0.0000 C   0  0  0  0  0  0  0  0  0  0  0  0
    7.2625   -3.9000    0.0000 C   0  0  0  0  0  0  0  0  0  0  0  0
    6.6417   -3.5500    0.0000 C   0  0  0  0  0  0  0  0  0  0  0  0
    5.4167   -3.5625    0.0000 C   0  0  0  0  0  0  0  0  0  0  0  0
    7.8667   -3.5417    0.0000 C   0  0  0  0  0  0  0  0  0  0  0  0
    8.4875   -3.8875    0.0000 C   0  0  0  0  0  0  0  0  0  0  0  0
    8.4917   -4.5917    0.0000 C   0  0  0  0  0  0  0  0  0  0  0  0
    9.1000   -3.5292    0.0000 C   0  0  0  0  0  0  0  0  0  0  0  0
    5.3667   -6.2542    0.0000 H   0  0  0  0  0  0  0  0  0  0  0  0
    6.6542   -4.2542    0.0000 H   0  0  0  0  0  0  0  0  0  0  0  0
  2  1  1  0
  3  5  2  0
  4  1  1  0
  5  8  1  0
  6  3  1  0
  7  2  1  0
  8  7  2  0
  9  2  1  0
 10  4  1  0
 11  3  1  0
 12  6  1  0
 13  6  2  0
 14  4  1  0
 15  1  1  0
  1 16  1  1
 17 11  1  0
 18 17  1  0
 19 21  1  0
 17 20  1  6
 21 15  1  0
 22 23  1  0
 23 14  1  0
 14 24  1  6
 25 22  1  0
 26 25  1  0
 27 26  1  0
 28 26  1  0
  2 29  1  6
  4 30  1  6
 10  9  1  0
 19  7  1  0
 18 12  1  0
M  END
> <chembl_id>
CHEMBL1042

> <chembl_pref_name>
CHOLECALCIFEROL
