
     RDKit          2D

 19 20  0  0  0  0  0  0  0  0999 V2000
    4.2667   -5.7667    0.0000 C   0  0  0  0  0  0  0  0  0  0  0  0
    4.8792   -6.1167    0.0000 C   0  0  0  0  0  0  0  0  0  0  0  0
    7.3292   -6.1042    0.0000 C   0  0  0  0  0  0  0  0  0  0  0  0
    6.1042   -6.1125    0.0000 C   0  0  0  0  0  0  0  0  0  0  0  0
    5.4917   -5.7625    0.0000 C   0  0  0  0  0  0  0  0  0  0  0  0
    6.7167   -5.7542    0.0000 C   0  0  0  0  0  0  0  0  0  0  0  0
    4.2667   -5.0542    0.0000 O   0  0  0  0  0  0  0  0  0  0  0  0
    7.3375   -6.8125    0.0000 O   0  0  0  0  0  0  0  0  0  0  0  0
    3.6542   -6.1250    0.0000 C   0  0  0  0  0  0  0  0  0  0  0  0
    7.9417   -5.7417    0.0000 O   0  0  0  0  0  0  0  0  0  0  0  0
    4.8792   -6.8292    0.0000 C   0  0  0  0  0  0  0  0  0  0  0  0
    6.1042   -6.8250    0.0000 C   0  0  0  0  0  0  0  0  0  0  0  0
    5.4917   -7.1792    0.0000 C   0  0  0  0  0  0  0  0  0  0  0  0
    6.7042   -5.0417    0.0000 C   0  0  0  0  0  0  0  0  0  0  0  0
    3.0417   -5.7667    0.0000 C   0  0  0  0  0  0  0  0  0  0  0  0
    3.6542   -6.8375    0.0000 C   0  0  0  0  0  0  0  0  0  0  0  0
    2.4292   -6.1250    0.0000 C   0  0  0  0  0  0  0  0  0  0  0  0
    3.0417   -7.1917    0.0000 C   0  0  0  0  0  0  0  0  0  0  0  0
    2.4292   -6.8375    0.0000 C   0  0  0  0  0  0  0  0  0  0  0  0
  2  1  1  0
  3  6  1  0
  4  5  2  0
  5  2  1  0
  6  4  1  0
  7  1  2  0
  8  3  2  0
  9  1  1  0
 10  3  1  0
 11  2  2  0
 12 13  2  0
 13 11  1  0
 14  6  1  0
 15  9  2  0
 16  9  1  0
 17 15  1  0
 18 16  2  0
 19 18  1  0
 19 17  2  0
 12  4  1  0
M  END
> <chembl_id>
CHEMBL571

> <chembl_pref_name>
KETOPROFEN
