
     RDKit          2D

 29 30  0  0  0  0  0  0  0  0999 V2000
   -0.0589   -1.5321    0.0000 Cl  0  0  0  0  0  0  0  0  0  0  0  0
   -2.8875    1.0902    0.0000 C   0  0  0  0  0  0  0  0  0  0  0  0
   -2.1730    1.5027    0.0000 O   0  0  0  0  0  0  0  0  0  0  0  0
   -1.4586    1.0902    0.0000 C   0  0  0  0  0  0  0  0  0  0  0  0
   -0.7441    1.5027    0.0000 C   0  0  0  0  0  0  0  0  0  0  0  0
   -1.4586    0.2652    0.0000 C   0  0  0  0  0  0  0  0  0  0  0  0
   -0.7441   -0.1473    0.0000 C   0  0  0  0  0  0  0  0  0  0  0  0
   -0.0296    0.2652    0.0000 C   0  0  0  0  0  0  0  0  0  0  0  0
   -0.0296    1.0902    0.0000 C   0  0  0  0  0  0  0  0  0  0  0  0
    0.6848   -0.1473    0.0000 C   0  0  0  0  0  0  0  0  0  0  0  0
    1.3993    0.2652    0.0000 C   0  0  0  0  0  0  0  0  0  0  0  0
    2.1138   -0.1473    0.0000 N   0  0  0  0  0  0  0  0  0  0  0  0
    2.8283    0.2652    0.0000 C   0  0  0  0  0  0  0  0  0  0  0  0
    3.5427   -0.1473    0.0000 C   0  0  0  0  0  0  0  0  0  0  0  0
    4.2572    0.2652    0.0000 C   0  0  0  0  0  0  0  0  0  0  0  0
    4.9717    1.5027    0.0000 C   0  0  0  0  0  0  0  0  0  0  0  0
    4.2572    1.0902    0.0000 C   0  0  0  0  0  0  0  0  0  0  0  0
    4.9717   -0.1473    0.0000 C   0  0  0  0  0  0  0  0  0  0  0  0
    5.6861    0.2652    0.0000 C   0  0  0  0  0  0  0  0  0  0  0  0
    5.6861    1.0902    0.0000 C   0  0  0  0  0  0  0  0  0  0  0  0
    4.9717   -0.9723    0.0000 O   0  0  0  0  0  0  0  0  0  0  0  0
    5.6861   -1.3848    0.0000 C   0  0  0  0  0  0  0  0  0  0  0  0
    6.4006   -0.9723    0.0000 C   0  0  0  0  0  0  0  0  0  0  0  0
    6.4006   -0.1473    0.0000 N   0  0  0  0  0  0  0  0  0  0  0  0
    7.1151   -1.3848    0.0000 O   0  0  0  0  0  0  0  0  0  0  0  0
    4.9717    2.3277    0.0000 O   0  0  0  0  0  0  0  0  0  0  0  0
    0.8160    0.8485    0.0000 C   0  0  0  0  0  0  0  0  0  0  0  0
    1.8118    0.9796    0.0000 C   0  0  0  0  0  0  0  0  0  0  0  0
    3.5427   -0.9723    0.0000 O   0  0  0  0  0  0  0  0  0  0  0  0
  2  3  1  0
  3  4  1  0
  5  4  2  0
  4  6  1  0
  5  9  1  0
  6  7  2  0
  7  8  1  0
  8  9  2  0
  8 10  1  0
 10 11  1  0
 11 12  1  0
 12 13  1  0
 13 14  1  0
 14 15  1  0
 17 15  1  0
 15 18  2  0
 16 17  2  0
 16 20  1  0
 19 20  2  0
 19 24  1  0
 18 19  1  0
 18 21  1  0
 21 22  1  0
 22 23  1  0
 23 24  1  0
 23 25  2  0
 16 26  1  0
 11 27  1  0
 11 28  1  0
 14 29  1  1
M  END
> <chembl_id>
CHEMBL2105743

> <chembl_pref_name>
OLODATEROL HYDROCHLORIDE
