
     RDKit          2D

 30 32  0  0  0  0  0  0  0  0999 V2000
    3.0625    2.6708    0.0000 K   0  0  0  0  0 15  0  0  0  0  0  0
   -0.9208   -1.6792    0.0000 C   0  0  0  0  0  0  0  0  0  0  0  0
    2.0417    0.0333    0.0000 C   0  0  0  0  0  0  0  0  0  0  0  0
   -0.9208   -2.8167    0.0000 C   0  0  0  0  0  0  0  0  0  0  0  0
    1.0542   -1.6792    0.0000 C   0  0  0  0  0  0  0  0  0  0  0  0
    0.0667   -1.1042    0.0000 C   0  0  0  0  0  0  0  0  0  0  0  0
    2.0417   -1.1042    0.0000 C   0  0  0  0  0  0  0  0  0  0  0  0
    1.0542   -2.8167    0.0000 C   0  0  0  0  0  0  0  0  0  0  0  0
    3.1125    0.3958    0.0000 C   0  0  0  0  0  0  0  0  0  0  0  0
    0.0667   -3.3875    0.0000 C   0  0  0  0  0  0  0  0  0  0  0  0
   -1.9083   -3.3875    0.0000 C   0  0  0  0  0  0  0  0  0  0  0  0
    1.0542    0.6000    0.0000 C   0  0  0  0  0  0  0  0  0  0  0  0
    0.0667    0.0333    0.0000 C   0  0  0  0  0  0  0  0  0  0  0  0
   -1.9083   -1.1042    0.0000 C   0  0  0  0  0  0  0  0  0  0  0  0
    3.1000   -1.4417    0.0000 C   0  0  0  0  0  0  0  0  0  0  0  0
    1.4917    2.7250    0.0000 C   0  0  0  0  0  0  0  0  0  0  0  0
   -2.8875   -2.8167    0.0000 C   0  0  0  0  0  0  0  0  0  0  0  0
    3.7792   -0.5167    0.0000 C   0  0  0  0  0  0  0  0  0  0  0  0
    2.2750    3.4625    0.0000 O   0  0  0  0  0  0  0  0  0  0  0  0
    2.8667    1.4833    0.0000 C   0  0  0  0  0  0  0  0  0  0  0  0
    0.4000    3.0875    0.0000 O   0  0  0  0  0  0  0  0  0  0  0  0
   -3.8750   -3.3875    0.0000 O   0  0  0  0  0  0  0  0  0  0  0  0
   -2.8875   -1.6792    0.0000 C   0  0  0  0  0  0  0  0  0  0  0  0
    1.7417    1.6208    0.0000 C   0  0  0  0  0  0  0  0  0  0  0  0
    3.9292    1.1458    0.0000 O   0  0  0  0  0  0  0  0  0  0  0  0
   -0.9208   -0.5375    0.0000 C   0  0  0  0  0  0  0  0  0  0  0  0
    2.1542    1.1625    0.0000 C   0  0  0  0  0  0  0  0  0  0  0  0
    1.0625   -0.8000    0.0000 H   0  0  0  0  0  0  0  0  0  0  0  0
    0.0542   -2.0667    0.0000 H   0  0  0  0  0  0  0  0  0  0  0  0
    2.1125   -2.0417    0.0000 H   0  0  0  0  0  0  0  0  0  0  0  0
  3 12  1  0
  4  2  1  0
  5  6  1  0
  6  2  1  0
  7  5  1  0
  8  5  1  0
  9  3  1  0
 10  4  1  0
 11  4  2  0
 12 13  1  0
 13  6  1  0
 14  2  1  0
 15  7  1  0
 16 24  1  0
 17 23  1  0
 18 15  1  0
 19 16  1  0
 20  9  1  0
 21 16  2  0
 22 17  2  0
 23 14  1  0
 24 20  1  0
  9 25  1  1
  2 26  1  1
  3 27  1  1
  5 28  1  1
  6 29  1  6
  7 30  1  6
 10  8  2  0
 11 17  1  0
  7  3  1  0
  9 18  1  0
M  CHG  2   1   1  19  -1
M  END
> <chembl_id>
CHEMBL1371200

> <chembl_pref_name>
CANRENOATE POTASSIUM
