
     RDKit          2D

 29 29  0  0  0  0  0  0  0  0999 V2000
    0.5250   -1.7167    0.0000 Cl  0  0  0  0  0  0  0  0  0  0  0  0
   -1.8958   -1.2167    0.0000 C   0  0  0  0  0  0  0  0  0  0  0  0
   -0.6708   -0.5042    0.0000 C   0  0  0  0  0  0  0  0  0  0  0  0
   -0.0583   -0.1500    0.0000 C   0  0  0  0  0  0  0  0  0  0  0  0
   -1.2625   -1.5667    0.0000 C   0  0  0  0  0  0  0  0  0  0  0  0
   -1.9042   -0.5042    0.0000 C   0  0  0  0  0  0  0  0  0  0  0  0
   -1.2958   -0.1542    0.0000 C   0  0  0  0  0  0  0  0  0  0  0  0
   -0.6625   -1.2042    0.0000 C   0  0  0  0  0  0  0  0  0  0  0  0
    0.5667   -0.4917    0.0000 N   0  0  0  0  0  0  0  0  0  0  0  0
   -0.0583    0.5625    0.0000 O   0  0  0  0  0  0  0  0  0  0  0  0
    1.1792   -0.1292    0.0000 C   0  0  0  0  0  0  0  0  0  0  0  0
   -2.5083   -1.5792    0.0000 O   0  0  0  0  0  0  0  0  0  0  0  0
   -2.5250   -0.1500    0.0000 O   0  0  0  0  0  0  0  0  0  0  0  0
   -1.2708   -2.2792    0.0000 O   0  0  0  0  0  0  0  0  0  0  0  0
    5.4792   -1.1917    0.0000 N   0  0  0  0  0  0  0  0  0  0  0  0
    1.7875   -0.4792    0.0000 C   0  0  0  0  0  0  0  0  0  0  0  0
    3.0292   -1.1792    0.0000 C   0  0  0  0  0  0  0  0  0  0  0  0
    2.4042   -0.1167    0.0000 C   0  0  0  0  0  0  0  0  0  0  0  0
    1.7917   -1.1917    0.0000 C   0  0  0  0  0  0  0  0  0  0  0  0
    3.0125   -0.4667    0.0000 C   0  0  0  0  0  0  0  0  0  0  0  0
    2.4167   -1.5292    0.0000 C   0  0  0  0  0  0  0  0  0  0  0  0
    3.6500   -1.5375    0.0000 O   0  0  0  0  0  0  0  0  0  0  0  0
    4.2500   -1.1917    0.0000 C   0  0  0  0  0  0  0  0  0  0  0  0
    4.8667   -1.5500    0.0000 C   0  0  0  0  0  0  0  0  0  0  0  0
    6.0917   -1.5542    0.0000 C   0  0  0  0  0  0  0  0  0  0  0  0
    5.4917   -0.4792    0.0000 C   0  0  0  0  0  0  0  0  0  0  0  0
   -3.1333   -1.2292    0.0000 C   0  0  0  0  0  0  0  0  0  0  0  0
   -2.5333    0.5375    0.0000 C   0  0  0  0  0  0  0  0  0  0  0  0
   -1.8875   -2.6167    0.0000 C   0  0  0  0  0  0  0  0  0  0  0  0
  3  7  2  0
  4  3  1  0
  5  2  1  0
  6  2  2  0
  7  6  1  0
  8  5  2  0
  9  4  1  0
 10  4  2  0
 11  9  1  0
 12  2  1  0
 13  6  1  0
 14  5  1  0
 15 24  1  0
 16 11  1  0
 17 20  1  0
 18 16  1  0
 19 16  2  0
 20 18  2  0
 21 19  1  0
 22 17  1  0
 23 22  1  0
 24 23  1  0
 25 15  1  0
 26 15  1  0
 27 12  1  0
 28 13  1  0
 29 14  1  0
  8  3  1  0
 21 17  2  0
M  END
> <chembl_id>
CHEMBL1200887

> <chembl_pref_name>
TRIMETHOBENZAMIDE HYDROCHLORIDE
