
     RDKit          2D

 39 41  0  0  0  0  0  0  0  0999 V2000
   -5.8386   -4.2181    0.0000 C   0  0  0  0  0  0  0  0  0  0  0  0
   -6.6534   -4.0890    0.0000 C   0  0  0  0  0  0  0  0  0  0  0  0
   -7.0280   -4.8241    0.0000 C   0  0  0  0  0  0  0  0  0  0  0  0
   -6.4446   -5.4074    0.0000 N   0  0  0  0  0  0  0  0  0  0  0  0
   -5.7095   -5.0329    0.0000 C   0  0  0  0  0  0  0  0  0  0  0  0
   -6.1343   -3.4479    0.0000 C   0  0  0  0  0  0  0  0  0  0  0  0
   -6.5468   -2.7334    0.0000 C   0  0  0  0  0  0  0  0  0  0  0  0
   -5.5510   -2.8645    0.0000 C   0  0  0  0  0  0  0  0  0  0  0  0
   -6.5736   -6.2223    0.0000 C   0  0  0  0  0  0  0  0  0  0  0  0
   -5.9325   -6.7415    0.0000 O   0  0  0  0  0  0  0  0  0  0  0  0
   -7.2881   -6.6348    0.0000 C   0  0  0  0  0  0  0  0  0  0  0  0
   -8.0026   -6.2223    0.0000 N   0  0  0  0  0  0  0  0  0  0  0  0
   -8.7171   -6.6348    0.0000 C   0  0  0  0  0  0  0  0  0  0  0  0
   -9.4315   -6.2223    0.0000 N   0  0  0  0  0  0  0  0  0  0  0  0
  -10.1460   -6.6348    0.0000 C   0  0  0  0  0  0  0  0  0  0  0  0
  -10.8605   -6.2223    0.0000 C   0  0  0  0  0  0  0  0  0  0  0  0
  -10.7294   -7.2181    0.0000 C   0  0  0  0  0  0  0  0  0  0  0  0
   -9.7335   -7.3492    0.0000 C   0  0  0  0  0  0  0  0  0  0  0  0
   -8.7171   -7.4598    0.0000 O   0  0  0  0  0  0  0  0  0  0  0  0
   -6.8756   -7.3492    0.0000 C   0  0  0  0  0  0  0  0  0  0  0  0
   -7.2881   -8.0637    0.0000 C   0  0  0  0  0  0  0  0  0  0  0  0
   -6.0506   -7.3492    0.0000 C   0  0  0  0  0  0  0  0  0  0  0  0
   -6.4631   -8.0637    0.0000 C   0  0  0  0  0  0  0  0  0  0  0  0
   -4.9745   -5.4074    0.0000 C   0  0  0  0  0  0  0  0  0  0  0  0
   -4.2826   -4.9581    0.0000 N   0  0  0  0  0  0  0  0  0  0  0  0
   -4.9313   -6.2313    0.0000 O   0  0  0  0  0  0  0  0  0  0  0  0
   -3.5475   -5.3327    0.0000 C   0  0  0  0  0  0  0  0  0  0  0  0
   -2.8556   -4.8834    0.0000 C   0  0  0  0  0  0  0  0  0  0  0  0
   -2.1205   -5.2579    0.0000 C   0  0  0  0  0  0  0  0  0  0  0  0
   -2.8556   -4.0584    0.0000 O   0  0  0  0  0  0  0  0  0  0  0  0
   -1.4286   -4.8086    0.0000 N   0  0  0  0  0  0  0  0  0  0  0  0
   -2.1205   -6.0829    0.0000 O   0  0  0  0  0  0  0  0  0  0  0  0
   -3.5475   -6.1577    0.0000 C   0  0  0  0  0  0  0  0  0  0  0  0
   -2.9641   -6.7410    0.0000 C   0  0  0  0  0  0  0  0  0  0  0  0
   -2.9641   -7.5660    0.0000 C   0  0  0  0  0  0  0  0  0  0  0  0
   -2.1391   -7.5660    0.0000 C   0  0  0  0  0  0  0  0  0  0  0  0
   -2.1391   -6.7410    0.0000 C   0  0  0  0  0  0  0  0  0  0  0  0
   -5.8147   -4.6336    0.0000 H   0  0  0  0  0  0  0  0  0  0  0  0
   -6.8045   -4.4770    0.0000 H   0  0  0  0  0  0  0  0  0  0  0  0
  2  3  1  0
  3  4  1  0
  4  5  1  0
  1  5  1  0
  6  1  1  0
  1  2  1  0
  2  6  1  0
  6  7  1  0
  6  8  1  0
  4  9  1  0
  9 10  2  0
  9 11  1  0
 11 12  1  6
 12 13  1  0
 13 14  1  0
 14 15  1  0
 15 16  1  0
 15 17  1  0
 15 18  1  0
 13 19  2  0
 11 20  1  0
 20 21  1  0
 20 22  1  0
 20 23  1  0
  5 24  1  1
 24 25  1  0
 24 26  2  0
 25 27  1  0
 27 28  1  0
 28 29  1  0
 28 30  2  0
 29 31  1  0
 29 32  2  0
 27 33  1  0
 33 34  1  0
 34 35  1  0
 37 34  1  0
 35 36  1  0
 36 37  1  0
  2 38  1  1
  1 39  1  1
M  END
> <chembl_id>
CHEMBL218394

> <chembl_pref_name>
BOCEPREVIR
