
     RDKit          2D

 19 20  0  0  0  0  0  0  0  0999 V2000
    0.0000    1.3083    0.0000 C   0  0  0  0  0  0  0  0  0  0  0  0
    0.0000    0.4833    0.0000 C   0  0  0  0  0  0  0  0  0  0  0  0
   -0.7208    0.0708    0.0000 C   0  0  0  0  0  0  0  0  0  0  0  0
    0.7167    0.0708    0.0000 C   0  0  0  0  0  0  0  0  0  0  0  0
   -0.8333    1.3083    0.0000 Cl  0  0  0  0  0  0  0  0  0  0  0  0
    0.8292    1.3083    0.0000 Cl  0  0  0  0  0  0  0  0  0  0  0  0
    0.0000    2.1458    0.0000 Cl  0  0  0  0  0  0  0  0  0  0  0  0
   -1.4375    0.4833    0.0000 C   0  0  0  0  0  0  0  0  0  0  0  0
    0.7167   -0.7542    0.0000 C   0  0  0  0  0  0  0  0  0  0  0  0
    1.4250    0.4833    0.0000 C   0  0  0  0  0  0  0  0  0  0  0  0
   -0.7208   -0.7542    0.0000 C   0  0  0  0  0  0  0  0  0  0  0  0
    2.1417   -0.7542    0.0000 C   0  0  0  0  0  0  0  0  0  0  0  0
   -2.1500   -0.7542    0.0000 C   0  0  0  0  0  0  0  0  0  0  0  0
   -1.4333   -1.1667    0.0000 C   0  0  0  0  0  0  0  0  0  0  0  0
   -2.1458    0.0708    0.0000 C   0  0  0  0  0  0  0  0  0  0  0  0
    1.4292   -1.1750    0.0000 C   0  0  0  0  0  0  0  0  0  0  0  0
    2.1417    0.0625    0.0000 C   0  0  0  0  0  0  0  0  0  0  0  0
    2.8542   -1.1750    0.0000 Cl  0  0  0  0  0  0  0  0  0  0  0  0
   -2.8750   -1.1667    0.0000 Cl  0  0  0  0  0  0  0  0  0  0  0  0
  2  1  1  0
  3  2  1  0
  4  2  1  0
  5  1  1  0
  6  1  1  0
  7  1  1  0
  8  3  2  0
  9  4  2  0
 10  4  1  0
 11  3  1  0
 12 17  1  0
 13 14  1  0
 14 11  2  0
 15  8  1  0
 16  9  1  0
 17 10  2  0
 18 12  1  0
 19 13  1  0
 16 12  2  0
 15 13  2  0
M  END
> <chembl_id>
CHEMBL416898

> <chembl_pref_name>
CHLOROPHENOTHANE
