
     RDKit          2D

 20 22  0  0  0  0  0  0  0  0999 V2000
    6.8123  -25.1802    0.0000 N   0  0  0  0  0  0  0  0  0  0  0  0
    7.3007  -25.8428    0.0000 C   0  0  0  0  0  0  0  0  0  0  0  0
    6.8148  -26.5138    0.0000 N   0  0  0  0  0  0  0  0  0  0  0  0
    6.0303  -26.2588    0.0000 C   0  0  0  0  0  0  0  0  0  0  0  0
    5.3169  -26.6720    0.0000 N   0  0  0  0  0  0  0  0  0  0  0  0
    4.6002  -26.2607    0.0000 C   0  0  0  0  0  0  0  0  0  0  0  0
    4.6009  -25.4343    0.0000 N   0  0  0  0  0  0  0  0  0  0  0  0
    5.3190  -25.0211    0.0000 C   0  0  0  0  0  0  0  0  0  0  0  0
    6.0299  -25.4352    0.0000 C   0  0  0  0  0  0  0  0  0  0  0  0
    5.3186  -24.1973    0.0000 O   0  0  0  0  0  0  0  0  0  0  0  0
    7.1074  -27.2841    0.0000 C   0  0  0  0  0  0  0  0  0  0  0  0
    7.8901  -27.5448    0.0000 C   0  0  0  0  0  0  0  0  0  0  0  0
    7.8923  -28.3721    0.0000 C   0  0  0  0  0  0  0  0  0  0  0  0
    7.1128  -28.6189    0.0000 C   0  0  0  0  0  0  0  0  0  0  0  0
    6.6260  -27.9552    0.0000 C   0  0  0  0  0  0  0  0  0  0  0  0
    8.5618  -27.0561    0.0000 C   0  0  0  0  0  0  0  0  0  0  0  0
    8.5588  -28.8627    0.0000 C   0  0  0  0  0  0  0  0  0  0  0  0
    9.3198  -28.5271    0.0000 O   0  0  0  0  0  0  0  0  0  0  0  0
    6.8567  -29.4152    0.0000 O   0  0  0  0  0  0  0  0  0  0  0  0
    3.8777  -26.6740    0.0000 N   0  0  0  0  0  0  0  0  0  0  0  0
  1  2  2  0
  2  3  1  0
  3  4  1  0
  4  5  1  0
  5  6  2  0
  6  7  1  0
  7  8  1  0
  8  9  1  0
  1  9  1  0
  4  9  2  0
  8 10  2  0
 11 12  1  0
 12 13  1  0
 13 14  1  0
 14 15  1  0
 11 15  1  0
 12 16  2  0
 17 18  1  0
 13 17  1  6
 14 19  1  1
 11  3  1  6
  6 20  1  0
M  END
> <chembl_id>
CHEMBL713

> <chembl_pref_name>
ENTECAVIR ANHYDROUS
