
     RDKit          2D

 13 13  0  0  0  0  0  0  0  0999 V2000
   -1.7125   -0.5667    0.0000 C   0  0  0  0  0  0  0  0  0  0  0  0
   -0.8583    0.6458    0.0000 N   0  0  0  0  0  0  0  0  0  0  0  0
   -1.2250   -2.0375    0.0000 N   0  0  0  0  0  0  0  0  0  0  0  0
   -3.1375   -0.0792    0.0000 C   0  0  0  0  0  0  0  0  0  0  0  0
   -3.1375    1.3583    0.0000 N   0  0  0  0  0  0  0  0  0  0  0  0
   -1.7333    1.8333    0.0000 C   0  0  0  0  0  0  0  0  0  0  0  0
    0.6792    0.6458    0.0000 C   0  0  0  0  0  0  0  0  0  0  0  0
    0.2417   -2.3292    0.0000 O   0  0  0  0  0  0  0  0  0  0  0  0
   -2.2083   -3.1792    0.0000 O   0  0  0  0  0  0  0  0  0  0  0  0
   -1.2583    3.2833    0.0000 C   0  0  0  0  0  0  0  0  0  0  0  0
    1.4000    1.9708    0.0000 C   0  0  0  0  0  0  0  0  0  0  0  0
    0.5792    3.2583    0.0000 O   0  0  0  0  0  0  0  0  0  0  0  0
    2.9042    2.0458    0.0000 C   0  0  0  0  0  0  0  0  0  0  0  0
  2  1  1  0
  3  1  1  0
  4  1  2  0
  5  4  1  0
  6  2  1  0
  7  2  1  0
  8  3  1  0
  9  3  2  0
 10  6  1  0
 11  7  1  0
 12 11  1  0
 13 11  1  0
  6  5  2  0
M  CHG  2   3   1   8  -1
M  END
> <chembl_id>
CHEMBL498847

> <chembl_pref_name>
SECNIDAZOLE
