
     RDKit          2D

 19 21  0  0  0  0  0  0  0  0999 V2000
    4.7292   -5.2250    0.0000 C   0  0  0  0  0  0  0  0  0  0  0  0
    5.1750   -4.6792    0.0000 C   0  0  0  0  0  0  0  0  0  0  0  0
    4.0000   -5.2250    0.0000 C   0  0  0  0  0  0  0  0  0  0  0  0
    3.5542   -4.6667    0.0000 N   0  0  0  0  0  0  0  0  0  0  0  0
    5.0167   -3.9667    0.0000 N   0  0  0  0  0  0  0  0  0  0  0  0
    3.6500   -5.8500    0.0000 C   0  0  0  0  0  0  0  0  0  0  0  0
    5.0792   -5.8500    0.0000 C   0  0  0  0  0  0  0  0  0  0  0  0
    5.8667   -4.8375    0.0000 C   0  0  0  0  0  0  0  0  0  0  0  0
    4.7167   -6.4792    0.0000 C   0  0  0  0  0  0  0  0  0  0  0  0
    4.3542   -3.6667    0.0000 C   0  0  0  0  0  0  0  0  0  0  0  0
    3.9917   -6.4792    0.0000 C   0  0  0  0  0  0  0  0  0  0  0  0
    3.7167   -3.9667    0.0000 C   0  0  0  0  0  0  0  0  0  0  0  0
    5.0917   -6.9000    0.0000 Cl  0  0  0  0  0  0  0  0  0  0  0  0
    2.8667   -4.8417    0.0000 C   0  0  0  0  0  0  0  0  0  0  0  0
    6.3625   -4.3167    0.0000 C   0  0  0  0  0  0  0  0  0  0  0  0
    6.0667   -5.5167    0.0000 C   0  0  0  0  0  0  0  0  0  0  0  0
    7.0667   -4.4917    0.0000 C   0  0  0  0  0  0  0  0  0  0  0  0
    6.7667   -5.6875    0.0000 C   0  0  0  0  0  0  0  0  0  0  0  0
    7.2792   -5.1667    0.0000 C   0  0  0  0  0  0  0  0  0  0  0  0
  2  1  1  0
  3  1  2  0
  4  3  1  0
  5  2  2  0
  6  3  1  0
  7  1  1  0
  8  2  1  0
  9  7  2  0
 10  5  1  0
 11  9  1  0
 12  4  1  0
 13  9  1  0
 14  4  1  0
 15  8  1  0
 16  8  2  0
 17 15  2  0
 18 16  1  0
 19 17  1  0
  6 11  2  0
 10 12  1  0
 18 19  2  0
M  END
> <chembl_id>
CHEMBL28333

> <chembl_pref_name>
MEDAZEPAM
