
     RDKit          2D

 12 12  0  0  0  0  0  0  0  0999 V2000
   -0.5209    1.3345    0.0000 C   0  0  0  0  0  0  0  0  0  0  0  0
    0.0311    0.7214    0.0000 C   0  0  0  0  0  0  0  0  0  0  0  0
    0.6986    0.2365    0.0000 C   0  0  0  0  0  0  0  0  0  0  0  0
    0.4436   -0.5482    0.0000 C   0  0  0  0  0  0  0  0  0  0  0  0
   -0.3814   -0.5482    0.0000 C   0  0  0  0  0  0  0  0  0  0  0  0
   -0.8663   -1.2156    0.0000 C   0  0  0  0  0  0  0  0  0  0  0  0
   -1.3279    1.1630    0.0000 O   0  0  0  0  0  0  0  0  0  0  0  0
    0.5832    1.3345    0.0000 O   0  0  0  0  0  0  0  0  0  0  0  0
    1.4832    0.4914    0.0000 O   0  0  0  0  0  0  0  0  0  0  0  0
    0.9285   -1.2156    0.0000 O   0  0  0  0  0  0  0  0  0  0  0  0
   -0.6363    0.2365    0.0000 O   0  0  0  0  0  0  0  0  0  0  0  0
   -0.5307   -1.9693    0.0000 O   0  0  0  0  0  0  0  0  0  0  0  0
  2  1  1  6
  1  7  1  0
  2  3  1  0
  2  8  1  1
  2 11  1  0
  3  4  1  0
  3  9  1  1
  4  5  1  0
  4 10  1  6
  5  6  1  1
  5 11  1  0
  6 12  1  0
M  END
> <chembl_id>
CHEMBL604608

> <chembl_pref_name>
FRUCTOSE
