
     RDKit          2D

 31 32  0  0  0  0  0  0  0  0999 V2000
   -3.8893    0.7607    0.0000 C   0  0  0  0  0  0  0  0  0  0  0  0
   -4.5567    0.2758    0.0000 C   0  0  0  0  0  0  0  0  0  0  0  0
   -4.3018   -0.5088    0.0000 C   0  0  0  0  0  0  0  0  0  0  0  0
   -3.4768   -0.5088    0.0000 C   0  0  0  0  0  0  0  0  0  0  0  0
   -3.2219    0.2758    0.0000 C   0  0  0  0  0  0  0  0  0  0  0  0
   -2.9919   -1.1762    0.0000 C   0  0  0  0  0  0  0  0  0  0  0  0
   -2.4372    0.5307    0.0000 C   0  0  0  0  0  0  0  0  0  0  0  0
   -3.8893    1.5857    0.0000 O   0  0  0  0  0  0  0  0  0  0  0  0
   -4.7867   -1.1762    0.0000 O   0  0  0  0  0  0  0  0  0  0  0  0
   -1.7228    0.1182    0.0000 C   0  0  0  0  0  0  0  0  0  0  0  0
   -1.0083    0.5307    0.0000 C   0  0  0  0  0  0  0  0  0  0  0  0
   -1.0083    1.3557    0.0000 C   0  0  0  0  0  0  0  0  0  0  0  0
   -0.2938    1.7682    0.0000 C   0  0  0  0  0  0  0  0  0  0  0  0
   -0.2938    2.5932    0.0000 C   0  0  0  0  0  0  0  0  0  0  0  0
    0.4207    3.0057    0.0000 C   0  0  0  0  0  0  0  0  0  0  0  0
    0.4207    3.8307    0.0000 O   0  0  0  0  0  0  0  0  0  0  0  0
    1.1351    2.5932    0.0000 O   0  0  0  0  0  0  0  0  0  0  0  0
    1.8496    3.0057    0.0000 C   0  0  0  0  0  0  0  0  0  0  0  0
    2.5641    2.5932    0.0000 C   0  0  0  0  0  0  0  0  0  0  0  0
    1.8496    3.8307    0.0000 C   0  0  0  0  0  0  0  0  0  0  0  0
   -2.1714   -1.0900    0.0000 C   0  0  0  0  0  0  0  0  0  0  0  0
   -1.6865   -1.7574    0.0000 C   0  0  0  0  0  0  0  0  0  0  0  0
   -0.8660   -1.6712    0.0000 C   0  0  0  0  0  0  0  0  0  0  0  0
   -0.3811   -2.3387    0.0000 C   0  0  0  0  0  0  0  0  0  0  0  0
    0.4394   -2.2524    0.0000 C   0  0  0  0  0  0  0  0  0  0  0  0
   -2.0220   -2.5111    0.0000 O   0  0  0  0  0  0  0  0  0  0  0  0
    0.9244   -2.9199    0.0000 C   0  0  0  0  0  0  0  0  0  0  0  0
    1.7448   -2.8337    0.0000 C   0  0  0  0  0  0  0  0  0  0  0  0
    2.0804   -2.0799    0.0000 C   0  0  0  0  0  0  0  0  0  0  0  0
    1.5955   -1.4125    0.0000 C   0  0  0  0  0  0  0  0  0  0  0  0
    0.7750   -1.4987    0.0000 C   0  0  0  0  0  0  0  0  0  0  0  0
  1  2  1  0
  2  3  1  0
  3  4  1  0
  4  5  1  0
  1  5  1  0
  4  6  1  1
  5  7  1  6
  1  8  1  6
  3  9  1  6
  7 10  1  0
 10 11  2  0
 11 12  1  0
 12 13  1  0
 13 14  1  0
 14 15  1  0
 15 16  2  0
 15 17  1  0
 17 18  1  0
 18 19  1  0
 18 20  1  0
  6 21  1  0
 21 22  1  0
 22 23  1  0
 23 24  1  0
 24 25  1  0
 22 26  1  6
 25 27  1  0
 25 31  2  0
 27 28  2  0
 28 29  1  0
 29 30  2  0
 30 31  1  0
M  END
> <chembl_id>
CHEMBL1051

> <chembl_pref_name>
LATANOPROST
