
     RDKit          2D

 21 23  0  0  0  0  0  0  0  0999 V2000
    5.4292   -7.3375    0.0000 N   0  0  0  0  0  0  0  0  0  0  0  0
    4.8292   -6.2625    0.0000 C   0  0  0  0  0  0  0  0  0  0  0  0
    4.8292   -6.9792    0.0000 C   0  0  0  0  0  0  0  0  0  0  0  0
    5.4292   -5.9125    0.0000 C   0  0  0  0  0  0  0  0  0  0  0  0
    6.0292   -6.9792    0.0000 C   0  0  0  0  0  0  0  0  0  0  0  0
    6.0292   -6.2625    0.0000 C   0  0  0  0  0  0  0  0  0  0  0  0
    4.2375   -5.9125    0.0000 C   0  0  0  0  0  0  0  0  0  0  0  0
    4.2375   -7.3375    0.0000 C   0  0  0  0  0  0  0  0  0  0  0  0
    3.6500   -6.2417    0.0000 C   0  0  0  0  0  0  0  0  0  0  0  0
    5.4125   -3.6500    0.0000 N   0  0  0  0  0  0  0  0  0  0  0  0
    3.6500   -7.0042    0.0000 C   0  0  0  0  0  0  0  0  0  0  0  0
    3.0875   -5.8167    0.0000 Cl  0  0  0  0  0  0  0  0  0  0  0  0
    6.0375   -5.4875    0.0000 C   0  0  0  0  0  0  0  0  0  0  0  0
    6.6500   -5.9125    0.0000 C   0  0  0  0  0  0  0  0  0  0  0  0
    6.6500   -7.3375    0.0000 C   0  0  0  0  0  0  0  0  0  0  0  0
    6.0375   -4.8000    0.0000 C   0  0  0  0  0  0  0  0  0  0  0  0
    5.4125   -4.4167    0.0000 C   0  0  0  0  0  0  0  0  0  0  0  0
    5.9667   -3.2292    0.0000 C   0  0  0  0  0  0  0  0  0  0  0  0
    4.7917   -3.2417    0.0000 C   0  0  0  0  0  0  0  0  0  0  0  0
    7.2375   -6.2625    0.0000 C   0  0  0  0  0  0  0  0  0  0  0  0
    7.2375   -6.9792    0.0000 C   0  0  0  0  0  0  0  0  0  0  0  0
  2  3  2  0
  3  1  1  0
  4  2  1  0
  5  1  1  0
  6  5  2  0
  7  2  1  0
  8  3  1  0
  9  7  2  0
 10 17  1  0
 11  8  2  0
 12  9  1  0
 13  4  1  0
 14  6  1  0
 15  5  1  0
 16 13  1  0
 17 16  1  0
 18 10  1  0
 19 10  1  0
 20 21  1  0
 21 15  2  0
  4  6  1  0
 11  9  1  0
 20 14  2  0
M  END
> <chembl_id>
CHEMBL1615350

> <chembl_pref_name>
CLOMACRAN
