
     RDKit          2D

 70 70  0  0  0  0  0  0  0  0999 V2000
   -0.3208   -9.6542    0.0000 O   0  0  0  0  0  0  0  0  0  0  0  0
    7.4708   -8.4000    0.0000 N   0  0  0  0  0  0  0  0  0  0  0  0
    7.4708   -7.6917    0.0000 C   0  0  0  0  0  0  0  0  0  0  0  0
    8.6542   -8.4667    0.0000 C   0  0  0  0  0  0  0  0  0  0  0  0
    5.6292   -7.3375    0.0000 C   0  0  0  0  0  0  0  0  0  0  0  0
    1.9458   -7.3375    0.0000 C   0  0  0  0  0  0  0  0  0  0  0  0
    4.4042   -7.3375    0.0000 N   0  0  0  0  0  0  0  0  0  0  0  0
    0.7167   -7.3375    0.0000 N   0  0  0  0  0  0  0  0  0  0  0  0
    6.8542   -7.3375    0.0000 C   0  0  0  0  0  0  0  0  0  0  0  0
    3.7875   -7.6875    0.0000 C   0  0  0  0  0  0  0  0  0  0  0  0
    8.0417   -8.8167    0.0000 C   0  0  0  0  0  0  0  0  0  0  0  0
    0.1042   -7.6875    0.0000 C   0  0  0  0  0  0  0  0  0  0  0  0
    6.2417   -7.6875    0.0000 N   0  0  0  0  0  0  0  0  0  0  0  0
    2.5583   -7.6875    0.0000 N   0  0  0  0  0  0  0  0  0  0  0  0
    5.0125   -7.6917    0.0000 C   0  0  0  0  0  0  0  0  0  0  0  0
    1.3292   -7.6917    0.0000 C   0  0  0  0  0  0  0  0  0  0  0  0
    9.2667   -8.8167    0.0000 N   0  0  0  0  0  0  0  0  0  0  0  0
    3.1708   -7.3333    0.0000 C   0  0  0  0  0  0  0  0  0  0  0  0
    8.6167   -6.3042    0.0000 N   0  0  0  0  0  0  0  0  0  0  0  0
    0.7167   -4.5000    0.0000 C   0  0  0  0  0  0  0  0  0  0  0  0
    6.8542   -6.6250    0.0000 C   0  0  0  0  0  0  0  0  0  0  0  0
   10.4958   -8.8167    0.0000 C   0  0  0  0  0  0  0  0  0  0  0  0
    7.4708   -6.2750    0.0000 C   0  0  0  0  0  0  0  0  0  0  0  0
   -1.1250   -7.6875    0.0000 N   0  0  0  0  0  0  0  0  0  0  0  0
    7.7083   -5.6083    0.0000 N   0  0  0  0  0  0  0  0  0  0  0  0
    8.4167   -5.6250    0.0000 C   0  0  0  0  0  0  0  0  0  0  0  0
   -1.7375   -7.3375    0.0000 C   0  0  0  0  0  0  0  0  0  0  0  0
   -0.5125   -7.3333    0.0000 C   0  0  0  0  0  0  0  0  0  0  0  0
    9.8792   -8.4667    0.0000 C   0  0  0  0  0  0  0  0  0  0  0  0
    0.1042   -4.1458    0.0000 N   0  0  0  0  0  0  0  0  0  0  0  0
    8.0333   -6.7042    0.0000 C   0  0  0  0  0  0  0  0  0  0  0  0
    8.0833   -7.3375    0.0000 O   0  0  0  0  0  0  0  0  0  0  0  0
    8.6542   -7.7583    0.0000 O   0  0  0  0  0  0  0  0  0  0  0  0
    1.9458   -6.6292    0.0000 O   0  0  0  0  0  0  0  0  0  0  0  0
    5.6292   -6.6292    0.0000 O   0  0  0  0  0  0  0  0  0  0  0  0
    3.7875   -8.3958    0.0000 O   0  0  0  0  0  0  0  0  0  0  0  0
    0.1042   -8.3958    0.0000 O   0  0  0  0  0  0  0  0  0  0  0  0
    3.1708   -6.6250    0.0000 C   0  0  0  0  0  0  0  0  0  0  0  0
   10.4958   -9.5292    0.0000 O   0  0  0  0  0  0  0  0  0  0  0  0
   -1.7375   -6.6292    0.0000 O   0  0  0  0  0  0  0  0  0  0  0  0
    0.7167   -5.2083    0.0000 N   0  0  0  0  0  0  0  0  0  0  0  0
    1.3292   -4.1458    0.0000 N   0  0  0  0  0  0  0  0  0  0  0  0
    6.8958   -8.8167    0.0000 C   0  0  0  0  0  0  0  0  0  0  0  0
    5.0125   -8.4000    0.0000 C   0  0  0  0  0  0  0  0  0  0  0  0
    1.3292   -8.4000    0.0000 C   0  0  0  0  0  0  0  0  0  0  0  0
    3.7875   -6.2708    0.0000 C   0  0  0  0  0  0  0  0  0  0  0  0
   11.1083   -8.4625    0.0000 O   0  0  0  0  0  0  0  0  0  0  0  0
    5.0125   -5.5625    0.0000 C   0  0  0  0  0  0  0  0  0  0  0  0
   -2.9625   -7.3375    0.0000 N   0  0  0  0  0  0  0  0  0  0  0  0
    4.4000   -6.6250    0.0000 C   0  0  0  0  0  0  0  0  0  0  0  0
    3.7875   -5.5625    0.0000 C   0  0  0  0  0  0  0  0  0  0  0  0
    4.4000   -5.2083    0.0000 C   0  0  0  0  0  0  0  0  0  0  0  0
    5.0125   -6.2708    0.0000 C   0  0  0  0  0  0  0  0  0  0  0  0
    7.8250   -9.4917    0.0000 C   0  0  0  0  0  0  0  0  0  0  0  0
    5.6292   -5.2083    0.0000 O   0  0  0  0  0  0  0  0  0  0  0  0
   -2.3500   -7.6917    0.0000 C   0  0  0  0  0  0  0  0  0  0  0  0
    7.1167   -9.4917    0.0000 C   0  0  0  0  0  0  0  0  0  0  0  0
   -0.5125   -6.6250    0.0000 C   0  0  0  0  0  0  0  0  0  0  0  0
    9.8792   -7.7542    0.0000 C   0  0  0  0  0  0  0  0  0  0  0  0
    0.1042   -5.5625    0.0000 C   0  0  0  0  0  0  0  0  0  0  0  0
   -3.5792   -7.6917    0.0000 C   0  0  0  0  0  0  0  0  0  0  0  0
    1.9458   -8.7542    0.0000 C   0  0  0  0  0  0  0  0  0  0  0  0
    5.6292   -8.7542    0.0000 C   0  0  0  0  0  0  0  0  0  0  0  0
    4.4042   -8.7542    0.0000 C   0  0  0  0  0  0  0  0  0  0  0  0
    0.7167   -8.7542    0.0000 C   0  0  0  0  0  0  0  0  0  0  0  0
    0.1042   -6.2708    0.0000 C   0  0  0  0  0  0  0  0  0  0  0  0
   -2.0458   -9.3292    0.0000 C   0  0  0  0  0  0  0  0  0  0  0  0
   -2.0500   -8.6292    0.0000 O   0  0  0  0  0  0  0  0  0  0  0  0
   -2.6708   -9.6750    0.0000 O   0  0  0  0  0  0  0  0  0  0  0  0
   -1.4208   -9.6750    0.0000 C   0  0  0  0  0  0  0  0  0  0  0  0
  3  2  1  0
 11  4  1  6
  5 13  1  0
  6 14  1  0
 15  7  1  6
 16  8  1  6
  9  3  1  0
 10  7  1  0
 11  2  1  0
 12  8  1  0
  9 13  1  1
 18 14  1  1
 15  5  1  0
 16  6  1  0
 17  4  1  0
 18 10  1  0
 19 31  1  0
 20 41  1  0
  9 21  1  0
 22 29  1  0
 23 21  1  0
 28 24  1  1
 25 23  1  0
 26 25  1  0
 27 24  1  0
 28 12  1  0
 29 17  1  0
 30 20  2  0
 31 23  2  0
 32  3  2  0
 33  4  2  0
 34  6  2  0
 35  5  2  0
 36 10  2  0
 37 12  2  0
 18 38  1  0
 39 22  2  0
 40 27  2  0
 41 60  1  0
 42 20  1  0
 43  2  1  0
 15 44  1  0
 16 45  1  0
 46 38  1  0
 47 22  1  0
 48 53  2  0
 49 56  1  0
 50 46  2  0
 51 46  1  0
 52 51  2  0
 53 50  1  0
 54 11  1  0
 55 48  1  0
 56 27  1  0
 57 43  1  0
 28 58  1  0
 29 59  1  1
 60 66  1  0
 61 49  1  0
 62 45  1  0
 63 44  1  0
 64 44  1  0
 65 45  1  0
 66 58  1  0
 57 54  1  0
 26 19  2  0
 48 52  1  0
 68 67  2  0
 69 67  1  0
 70 67  1  0
M  END
> <chembl_id>
CHEMBL1200670

> <chembl_pref_name>
SARALASIN ACETATE
