
     RDKit          2D

 70 72  0  0  1  0  0  0  0  0999 V2000
    2.8584   -0.2566    0.0000 N   0  0  0  0  0  0  0  0  0  0  0  0
   -5.8450   -0.2566    0.0000 N   0  0  0  0  0  0  0  0  0  0  0  0
    2.1256   -0.6689    0.0000 C   0  0  0  0  0  0  0  0  0  0  0  0
   -6.5596   -0.6689    0.0000 C   0  0  0  0  0  0  0  0  0  0  0  0
   -7.9888   -0.6689    0.0000 N   0  0  0  0  0  0  0  0  0  0  0  0
   -4.3608   -0.2566    0.0000 C   0  0  0  0  0  0  0  0  0  0  0  0
    0.6964   -0.6689    0.0000 N   0  0  0  0  0  0  0  0  0  0  0  0
    1.4110   -0.2291    0.0000 C   0  0  0  0  0  0  0  0  0  0  0  0
   -7.2835   -0.2566    0.0000 C   0  0  0  0  0  0  0  0  0  0  0  0
   -1.4567   -0.2566    0.0000 N   0  0  0  0  0  0  0  0  0  0  0  0
   -3.6462   -0.6689    0.0000 N   0  0  0  0  0  0  0  0  0  0  0  0
   -0.0182   -0.2566    0.0000 C   0  0  0  0  0  0  0  0  0  0  0  0
    4.3243   -0.6139    0.0000 C   0  0  0  0  0  0  0  0  0  0  0  0
   -2.1988   -0.6689    0.0000 C   0  0  0  0  0  0  0  0  0  0  0  0
   -5.1029   -0.6596    0.0000 C   0  0  0  0  0  0  0  0  0  0  0  0
   -0.7421   -0.6596    0.0000 C   0  0  0  0  0  0  0  0  0  0  0  0
    3.6830   -0.2566    0.0000 C   0  0  0  0  0  0  0  0  0  0  0  0
    5.0572   -0.2016    0.0000 N   0  0  0  0  0  0  0  0  0  0  0  0
   -8.7034   -0.2566    0.0000 C   0  0  0  0  0  0  0  0  0  0  0  0
   -0.7421   -1.9607    0.0000 C   0  0  0  0  0  0  0  0  0  0  0  0
   -2.9591   -0.2566    0.0000 C   0  0  0  0  0  0  0  0  0  0  0  0
    6.4956   -0.2016    0.0000 C   0  0  0  0  0  0  0  0  0  0  0  0
    5.7810   -0.6139    0.0000 C   0  0  0  0  0  0  0  0  0  0  0  0
   -0.0182   -2.4004    0.0000 C   0  0  0  0  0  0  0  0  0  0  0  0
    7.2102   -0.6139    0.0000 N   0  0  0  0  0  0  0  0  0  0  0  0
    8.6394   -0.6139    0.0000 C   0  0  0  0  0  0  0  0  0  0  0  0
   -2.2720    1.8597    0.0000 C   0  0  0  0  0  0  0  0  0  0  0  0
    2.1256   -1.4934    0.0000 O   0  0  0  0  0  0  0  0  0  0  0  0
   -6.5596   -1.4934    0.0000 O   0  0  0  0  0  0  0  0  0  0  0  0
   -7.2560    0.7421    0.0000 C   0  0  0  0  0  0  0  0  0  0  0  0
   -4.3608    0.5679    0.0000 O   0  0  0  0  0  0  0  0  0  0  0  0
    4.3243   -1.4659    0.0000 O   0  0  0  0  0  0  0  0  0  0  0  0
   -0.0182    0.5679    0.0000 O   0  0  0  0  0  0  0  0  0  0  0  0
   -2.1988   -1.4934    0.0000 O   0  0  0  0  0  0  0  0  0  0  0  0
    0.7238    3.0141    0.0000 S   0  0  0  0  0  0  0  0  0  0  0  0
   -9.4273   -0.6689    0.0000 O   0  0  0  0  0  0  0  0  0  0  0  0
    6.4956    0.7696    0.0000 O   0  0  0  0  0  0  0  0  0  0  0  0
    5.7810   -1.8782    0.0000 C   0  0  0  0  0  0  0  0  0  0  0  0
   -0.0182   -3.2249    0.0000 O   0  0  0  0  0  0  0  0  0  0  0  0
   -2.9684    2.2445    0.0000 O   0  0  0  0  0  0  0  0  0  0  0  0
    8.6577   -1.4659    0.0000 O   0  0  0  0  0  0  0  0  0  0  0  0
   -2.9316    0.6047    0.0000 C   0  0  0  0  0  0  0  0  0  0  0  0
    7.9248   -0.1924    0.0000 C   0  0  0  0  0  0  0  0  0  0  0  0
    1.4110    2.6018    0.0000 C   0  0  0  0  0  0  0  0  0  0  0  0
   -5.1029   -1.5759    0.0000 C   0  0  0  0  0  0  0  0  0  0  0  0
    2.5928    0.5497    0.0000 C   0  0  0  0  0  0  0  0  0  0  0  0
    0.6596   -1.9789    0.0000 N   0  0  0  0  0  0  0  0  0  0  0  0
   -2.2720    1.0352    0.0000 C   0  0  0  0  0  0  0  0  0  0  0  0
   -6.6146    1.1451    0.0000 C   0  0  0  0  0  0  0  0  0  0  0  0
   -1.5574    2.2537    0.0000 N   0  0  0  0  0  0  0  0  0  0  0  0
    9.4640   -0.2016    0.0000 N   0  0  0  0  0  0  0  0  0  0  0  0
   -5.1946    1.9514    0.0000 C   0  0  0  0  0  0  0  0  0  0  0  0
   -5.9000    0.7421    0.0000 C   0  0  0  0  0  0  0  0  0  0  0  0
   -6.6146    1.9514    0.0000 C   0  0  0  0  0  0  0  0  0  0  0  0
   -5.1946    1.1451    0.0000 C   0  0  0  0  0  0  0  0  0  0  0  0
   -5.9000    2.3545    0.0000 C   0  0  0  0  0  0  0  0  0  0  0  0
    3.9121    0.5497    0.0000 C   0  0  0  0  0  0  0  0  0  0  0  0
   -4.5625    2.3087    0.0000 O   0  0  0  0  0  0  0  0  0  0  0  0
   -8.7034    2.9866    0.0000 C   0  0  0  0  0  0  0  0  0  0  0  0
    3.2524    1.0352    0.0000 C   0  0  0  0  0  0  0  0  0  0  0  0
    6.4956   -2.3454    0.0000 C   0  0  0  0  0  0  0  0  0  0  0  0
   -7.1918    3.0141    0.0000 C   0  0  0  0  0  0  0  0  0  0  0  0
   -4.4433   -1.9881    0.0000 C   0  0  0  0  0  0  0  0  0  0  0  0
   -5.8175   -1.9881    0.0000 C   0  0  0  0  0  0  0  0  0  0  0  0
   -7.9339    3.4264    0.0000 C   0  0  0  0  0  0  0  0  0  0  0  0
    7.2102   -1.9332    0.0000 C   0  0  0  0  0  0  0  0  0  0  0  0
    6.4956   -3.1700    0.0000 C   0  0  0  0  0  0  0  0  0  0  0  0
   -4.4433   -2.7852    0.0000 C   0  0  0  0  0  0  0  0  0  0  0  0
   -4.2876   -1.2368    0.0000 H   0  0  0  0  0  0  0  0  0  0  0  0
   -3.8480    1.8962    0.0000 C   0  0  0  0  0  0  0  0  0  0  0  0
  2  4  1  0
  3  1  1  0
  4  9  1  0
  5 19  1  0
  6 11  1  0
  7  8  1  0
  8  3  1  1
  9  5  1  0
 10 16  1  0
 11 21  1  0
 12  7  1  0
 17 13  1  1
 14 10  1  0
 15  6  1  0
 16 12  1  0
 17  1  1  0
 18 13  1  0
 19 59  1  0
 16 20  1  6
 21 14  1  0
 22 23  1  0
 23 18  1  6
 24 20  1  0
 25 22  1  0
 26 43  1  0
 27 48  1  0
 28  3  2  0
 29  4  2  0
  9 30  1  1
 31  6  2  0
 32 13  2  0
 33 12  2  0
 34 14  2  0
 35 44  1  0
 36 19  2  0
 37 22  2  0
 23 38  1  0
 39 24  2  0
 40 27  2  0
 41 26  2  0
 21 42  1  1
 43 25  1  0
  8 44  1  0
 45 15  1  0
 46  1  1  0
 47 24  1  0
 48 42  1  0
 49 30  1  0
 50 27  1  0
 51 26  1  0
 52 56  1  0
 53 49  2  0
 54 49  1  0
 55 53  1  0
 56 54  2  0
 57 17  1  0
 58 52  1  0
 59 65  1  0
 60 46  1  0
 61 38  1  0
 62 35  1  0
 63 45  1  0
 45 64  1  6
 65 62  1  0
 66 61  1  0
 67 61  1  0
 68 63  1  0
 15 69  1  1
 57 60  1  0
 15  2  1  0
 55 52  2  0
 58 70  1  0
M  END
> <chembl_id>
CHEMBL3301668

> <chembl_pref_name>
CARBETOCIN
