
     RDKit          2D

 86 85  0  0  0  0  0  0  0  0999 V2000
   11.6137   -9.2230    0.0000 C   0  0  0  0  0  0  0  0  0  0  0  0
   11.6124  -10.0505    0.0000 C   0  0  0  0  0  0  0  0  0  0  0  0
   12.3254  -10.4635    0.0000 C   0  0  0  0  0  0  0  0  0  0  0  0
   13.0447  -10.0501    0.0000 C   0  0  0  0  0  0  0  0  0  0  0  0
   13.0415   -9.2189    0.0000 C   0  0  0  0  0  0  0  0  0  0  0  0
   12.3234   -8.8102    0.0000 C   0  0  0  0  0  0  0  0  0  0  0  0
   13.7540   -8.8029    0.0000 C   0  0  0  0  0  0  0  0  0  0  0  0
   14.4705   -9.2119    0.0000 C   0  0  0  0  0  0  0  0  0  0  0  0
   15.1829   -8.7959    0.0000 C   0  0  0  0  0  0  0  0  0  0  0  0
   14.4746  -10.0369    0.0000 C   0  0  0  0  0  0  0  0  0  0  0  0
   13.7621  -10.4529    0.0000 C   0  0  0  0  0  0  0  0  0  0  0  0
   15.1910  -10.4459    0.0000 C   0  0  0  0  0  0  0  0  0  0  0  0
   10.8974  -10.4620    0.0000 O   0  0  0  0  0  0  0  0  0  0  0  0
   10.8962  -11.2870    0.0000 C   0  0  0  0  0  0  0  0  0  0  0  0
   10.8988   -8.8110    0.0000 O   0  0  0  0  0  0  0  0  0  0  0  0
   10.8982   -7.9860    0.0000 C   0  0  0  0  0  0  0  0  0  0  0  0
   10.1834   -7.5742    0.0000 C   0  0  0  0  0  0  0  0  0  0  0  0
   10.1826   -6.7492    0.0000 C   0  0  0  0  0  0  0  0  0  0  0  0
    9.4678   -6.3373    0.0000 O   0  0  0  0  0  0  0  0  0  0  0  0
    9.4672   -5.5123    0.0000 C   0  0  0  0  0  0  0  0  0  0  0  0
   15.1788   -7.9709    0.0000 C   0  0  0  0  0  0  0  0  0  0  0  0
   15.8913   -7.5548    0.0000 C   0  0  0  0  0  0  0  0  0  0  0  0
   14.4623   -7.5619    0.0000 N   0  0  0  0  0  0  0  0  0  0  0  0
   16.6077   -7.9638    0.0000 C   0  0  0  0  0  0  0  0  0  0  0  0
   15.8871   -6.7298    0.0000 O   0  0  0  0  0  0  0  0  0  0  0  0
   17.3202   -7.5477    0.0000 C   0  0  0  0  0  0  0  0  0  0  0  0
   18.0366   -7.9567    0.0000 C   0  0  0  0  0  0  0  0  0  0  0  0
   18.7491   -7.5407    0.0000 N   0  0  0  0  0  0  0  0  0  0  0  0
   18.0408   -8.7817    0.0000 O   0  0  0  0  0  0  0  0  0  0  0  0
   17.3161   -6.7228    0.0000 C   0  0  0  0  0  0  0  0  0  0  0  0
   19.4656   -7.9496    0.0000 C   0  0  0  0  0  0  0  0  0  0  0  0
   18.0285   -6.3067    0.0000 C   0  0  0  0  0  0  0  0  0  0  0  0
   16.5996   -6.3138    0.0000 C   0  0  0  0  0  0  0  0  0  0  0  0
   20.1780   -7.5336    0.0000 C   0  0  0  0  0  0  0  0  0  0  0  0
   20.8874   -7.1146    0.0000 C   0  0  0  0  0  0  0  0  0  0  0  0
   20.5958   -8.2450    0.0000 C   0  0  0  0  0  0  0  0  0  0  0  0
   19.7613   -6.8216    0.0000 C   0  0  0  0  0  0  0  0  0  0  0  0
   21.6059   -7.5201    0.0000 N   0  0  0  0  0  0  0  0  0  0  0  0
   20.8792   -6.2897    0.0000 O   0  0  0  0  0  0  0  0  0  0  0  0
    0.3005   -5.3208    0.0000 C   0  0  0  0  0  0  0  0  0  0  0  0
    0.2992   -6.1483    0.0000 C   0  0  0  0  0  0  0  0  0  0  0  0
    1.0122   -6.5613    0.0000 C   0  0  0  0  0  0  0  0  0  0  0  0
    1.7315   -6.1479    0.0000 C   0  0  0  0  0  0  0  0  0  0  0  0
    1.7283   -5.3167    0.0000 C   0  0  0  0  0  0  0  0  0  0  0  0
    1.0102   -4.9080    0.0000 C   0  0  0  0  0  0  0  0  0  0  0  0
    2.4408   -4.9007    0.0000 C   0  0  0  0  0  0  0  0  0  0  0  0
    3.1573   -5.3097    0.0000 C   0  0  0  0  0  0  0  0  0  0  0  0
    3.8697   -4.8937    0.0000 C   0  0  0  0  0  0  0  0  0  0  0  0
    3.1614   -6.1347    0.0000 C   0  0  0  0  0  0  0  0  0  0  0  0
    2.4489   -6.5507    0.0000 C   0  0  0  0  0  0  0  0  0  0  0  0
    3.8778   -6.5437    0.0000 C   0  0  0  0  0  0  0  0  0  0  0  0
   -0.4158   -6.5598    0.0000 O   0  0  0  0  0  0  0  0  0  0  0  0
   -0.4170   -7.3848    0.0000 C   0  0  0  0  0  0  0  0  0  0  0  0
   -0.4144   -4.9088    0.0000 O   0  0  0  0  0  0  0  0  0  0  0  0
   -0.4150   -4.0838    0.0000 C   0  0  0  0  0  0  0  0  0  0  0  0
   -1.1298   -3.6720    0.0000 C   0  0  0  0  0  0  0  0  0  0  0  0
   -1.1306   -2.8470    0.0000 C   0  0  0  0  0  0  0  0  0  0  0  0
   -1.8454   -2.4351    0.0000 O   0  0  0  0  0  0  0  0  0  0  0  0
   -1.8460   -1.6101    0.0000 C   0  0  0  0  0  0  0  0  0  0  0  0
    3.8656   -4.0687    0.0000 C   0  0  0  0  0  0  0  0  0  0  0  0
    4.5781   -3.6526    0.0000 C   0  0  0  0  0  0  0  0  0  0  0  0
    3.1491   -3.6597    0.0000 N   0  0  0  0  0  0  0  0  0  0  0  0
    5.2945   -4.0616    0.0000 C   0  0  0  0  0  0  0  0  0  0  0  0
    4.5739   -2.8276    0.0000 O   0  0  0  0  0  0  0  0  0  0  0  0
    6.0070   -3.6455    0.0000 C   0  0  0  0  0  0  0  0  0  0  0  0
    6.7234   -4.0545    0.0000 C   0  0  0  0  0  0  0  0  0  0  0  0
    7.4359   -3.6385    0.0000 N   0  0  0  0  0  0  0  0  0  0  0  0
    6.7276   -4.8795    0.0000 O   0  0  0  0  0  0  0  0  0  0  0  0
    6.0029   -2.8206    0.0000 C   0  0  0  0  0  0  0  0  0  0  0  0
    8.1524   -4.0474    0.0000 C   0  0  0  0  0  0  0  0  0  0  0  0
    6.7153   -2.4045    0.0000 C   0  0  0  0  0  0  0  0  0  0  0  0
    5.2864   -2.4116    0.0000 C   0  0  0  0  0  0  0  0  0  0  0  0
    8.8648   -3.6314    0.0000 C   0  0  0  0  0  0  0  0  0  0  0  0
    9.5742   -3.2124    0.0000 C   0  0  0  0  0  0  0  0  0  0  0  0
    9.2826   -4.3428    0.0000 C   0  0  0  0  0  0  0  0  0  0  0  0
    8.4481   -2.9194    0.0000 C   0  0  0  0  0  0  0  0  0  0  0  0
   10.2927   -3.6179    0.0000 N   0  0  0  0  0  0  0  0  0  0  0  0
    9.5660   -2.3875    0.0000 O   0  0  0  0  0  0  0  0  0  0  0  0
    5.2750   -8.4917    0.0000 C   0  0  0  0  0  0  0  0  0  0  0  0
    5.9245   -8.1167    0.0000 C   0  0  0  0  0  0  0  0  0  0  0  0
    6.5740   -8.4917    0.0000 C   0  0  0  0  0  0  0  0  0  0  0  0
    7.2236   -8.1167    0.0000 C   0  0  0  0  0  0  0  0  0  0  0  0
    7.8731   -8.4917    0.0000 O   0  0  0  0  0  0  0  0  0  0  0  0
    7.2236   -7.3667    0.0000 O   0  0  0  0  0  0  0  0  0  0  0  0
    4.6255   -8.1167    0.0000 O   0  0  0  0  0  0  0  0  0  0  0  0
    5.2750   -9.2417    0.0000 O   0  0  0  0  0  0  0  0  0  0  0  0
 21 23  1  6
 10 11  1  0
 22 24  1  0
 22 25  1  1
 10 12  1  0
 24 26  1  0
  5  6  2  0
 26 27  1  0
  2 13  1  0
 27 28  1  0
  6  1  1  0
 27 29  2  0
 13 14  1  0
 26 30  1  1
  2  3  1  0
 28 31  1  0
  1 15  1  0
 30 32  1  0
  5  7  1  0
 30 33  1  0
 15 16  1  0
 31 34  1  0
 34 35  1  0
 16 17  1  0
 34 36  1  0
  7  8  1  0
 34 37  1  0
 17 18  1  0
 35 38  1  0
  3  4  2  0
 35 39  2  0
 18 19  1  0
  8  9  1  0
 19 20  1  0
  1  2  2  0
  9 21  1  0
  8 10  1  1
 21 22  1  0
  4  5  1  0
 60 62  1  6
 49 50  1  0
 61 63  1  0
 61 64  1  1
 49 51  1  0
 63 65  1  0
 44 45  2  0
 65 66  1  0
 41 52  1  0
 66 67  1  0
 45 40  1  0
 66 68  2  0
 52 53  1  0
 65 69  1  1
 41 42  1  0
 67 70  1  0
 40 54  1  0
 69 71  1  0
 44 46  1  0
 69 72  1  0
 54 55  1  0
 70 73  1  0
 73 74  1  0
 55 56  1  0
 73 75  1  0
 46 47  1  0
 73 76  1  0
 56 57  1  0
 74 77  1  0
 42 43  2  0
 74 78  2  0
 57 58  1  0
 47 48  1  0
 58 59  1  0
 40 41  2  0
 48 60  1  0
 47 49  1  1
 60 61  1  0
 43 44  1  0
 79 80  1  0
 80 81  2  0
 81 82  1  0
 82 83  1  0
 82 84  2  0
 79 85  2  0
 79 86  1  0
M  END
> <chembl_id>
CHEMBL3545059

> <chembl_pref_name>
ALISKIREN FUMARATE
