
     RDKit          2D

 25 26  0  0  0  0  0  0  0  0999 V2000
   -0.6000    0.9625    0.0000 C   0  0  0  0  0  0  0  0  0  0  0  0
    0.5292    1.6083    0.0000 C   0  0  0  0  0  0  0  0  0  0  0  0
    0.0500   -0.1792    0.0000 C   0  0  0  0  0  0  0  0  0  0  0  0
    2.0167   -1.3167    0.0000 N   0  0  0  0  0  0  0  0  0  0  0  0
    1.3625   -0.1792    0.0000 C   0  0  0  0  0  0  0  0  0  0  0  0
   -1.7333    1.6208    0.0000 C   0  0  0  0  0  0  0  0  0  0  0  0
   -1.2625   -0.1792    0.0000 C   0  0  0  0  0  0  0  0  0  0  0  0
   -2.8583    0.9708    0.0000 N   0  0  0  0  0  0  0  0  0  0  0  0
    0.5375    2.9208    0.0000 O   0  0  0  0  0  0  0  0  0  0  0  0
    1.6667    0.9458    0.0000 N   0  0  0  0  0  0  0  0  0  0  0  0
    3.3292   -1.3167    0.0000 C   0  0  0  0  0  0  0  0  0  0  0  0
    1.3542   -2.4542    0.0000 C   0  0  0  0  0  0  0  0  0  0  0  0
   -3.9958    1.6208    0.0000 C   0  0  0  0  0  0  0  0  0  0  0  0
   -1.7250    2.9333    0.0000 C   0  0  0  0  0  0  0  0  0  0  0  0
   -0.6000   -1.3167    0.0000 C   0  0  0  0  0  0  0  0  0  0  0  0
   -2.5833   -0.1750    0.0000 C   0  0  0  0  0  0  0  0  0  0  0  0
    3.9792   -2.4542    0.0000 C   0  0  0  0  0  0  0  0  0  0  0  0
    3.9875   -0.1792    0.0000 C   0  0  0  0  0  0  0  0  0  0  0  0
    0.0500   -2.4542    0.0000 C   0  0  0  0  0  0  0  0  0  0  0  0
    2.0167   -3.5917    0.0000 C   0  0  0  0  0  0  0  0  0  0  0  0
   -3.9958    2.9333    0.0000 C   0  0  0  0  0  0  0  0  0  0  0  0
   -3.2333   -1.3042    0.0000 C   0  0  0  0  0  0  0  0  0  0  0  0
   -1.2625   -2.4542    0.0000 C   0  0  0  0  0  0  0  0  0  0  0  0
   -2.8583    3.5958    0.0000 C   0  0  0  0  0  0  0  0  0  0  0  0
   -2.5833   -2.4500    0.0000 C   0  0  0  0  0  0  0  0  0  0  0  0
  2  1  1  0
  3  1  1  0
  4  5  1  0
  5  3  1  0
  6  1  1  0
  7  1  1  0
  8  6  1  0
  9  2  2  0
 10  2  1  0
 11  4  1  0
 12  4  1  0
 13  8  2  0
 14  6  2  0
 15  7  2  0
 16  7  1  0
 17 11  1  0
 18 11  1  0
 19 12  1  0
 20 12  1  0
 21 24  2  0
 22 16  2  0
 23 15  1  0
 24 14  1  0
 25 22  1  0
 23 25  2  0
 13 21  1  0
M  END
> <chembl_id>
CHEMBL517

> <chembl_pref_name>
DISOPYRAMIDE
