
     RDKit          2D

 34 36  0  0  1  0  0  0  0  0999 V2000
   -2.6614   -2.2038    0.0000 O   0  0  0  0  0  0  0  0  0  0  0  0
   -2.0673    0.5916    0.0000 O   0  0  0  0  0  0  0  0  0  0  0  0
    2.1804   -3.2330    0.0000 C   0  0  0  0  0  0  0  0  0  0  0  0
    2.2666   -4.0534    0.0000 C   0  0  0  0  0  0  0  0  0  0  0  0
    1.3734   -3.0614    0.0000 C   0  0  0  0  0  0  0  0  0  0  0  0
    2.9811   -4.4659    0.0000 C   0  0  0  0  0  0  0  0  0  0  0  0
    1.1185   -2.2768    0.0000 C   0  0  0  0  0  0  0  0  0  0  0  0
    1.5129   -4.3890    0.0000 C   0  0  0  0  0  0  0  0  0  0  0  0
    0.9609   -3.7759    0.0000 C   0  0  0  0  0  0  0  0  0  0  0  0
    2.7324   -2.6199    0.0000 C   0  0  0  0  0  0  0  0  0  0  0  0
    2.9650   -3.4879    0.0000 C   0  0  0  0  0  0  0  0  0  0  0  0
    1.6705   -1.6637    0.0000 C   0  0  0  0  0  0  0  0  0  0  0  0
    2.4775   -1.8353    0.0000 C   0  0  0  0  0  0  0  0  0  0  0  0
    3.6956   -4.0534    0.0000 C   0  0  0  0  0  0  0  0  0  0  0  0
    0.3115   -2.1053    0.0000 C   0  0  0  0  0  0  0  0  0  0  0  0
    2.9811   -5.2909    0.0000 C   0  0  0  0  0  0  0  0  0  0  0  0
    0.0566   -1.3207    0.0000 C   0  0  0  0  0  0  0  0  0  0  0  0
   -0.7504   -1.1491    0.0000 C   0  0  0  0  0  0  0  0  0  0  0  0
   -2.1094   -1.5907    0.0000 C   0  0  0  0  0  0  0  0  0  0  0  0
   -1.3024   -1.7622    0.0000 C   0  0  0  0  0  0  0  0  0  0  0  0
   -1.8123   -0.1930    0.0000 C   0  0  0  0  0  0  0  0  0  0  0  0
    4.4100   -4.4659    0.0000 C   0  0  0  0  0  0  0  0  0  0  0  0
   -1.0053   -0.3645    0.0000 C   0  0  0  0  0  0  0  0  0  0  0  0
   -2.3644   -0.8061    0.0000 C   0  0  0  0  0  0  0  0  0  0  0  0
    5.1245   -4.0534    0.0000 C   0  0  0  0  0  0  0  0  0  0  0  0
   -1.0475   -2.5469    0.0000 C   0  0  0  0  0  0  0  0  0  0  0  0
    5.8390   -4.4659    0.0000 C   0  0  0  0  0  0  0  0  0  0  0  0
    6.5534   -4.0534    0.0000 C   0  0  0  0  0  0  0  0  0  0  0  0
    5.8390   -5.2909    0.0000 C   0  0  0  0  0  0  0  0  0  0  0  0
    3.0705   -3.8679    0.0000 H   0  0  0  0  0  0  0  0  0  0  0  0
    0.5529   -2.9752    0.0000 H   0  0  0  0  0  0  0  0  0  0  0  0
    3.6956   -4.8784    0.0000 H   0  0  0  0  0  0  0  0  0  0  0  0
   -1.8545   -2.3753    0.0000 H   0  0  0  0  0  0  0  0  0  0  0  0
   -1.2603    0.4201    0.0000 H   0  0  0  0  0  0  0  0  0  0  0  0
 19  1  1  0
 21  2  1  0
  3  4  1  0
  3  5  1  0
  3 10  1  0
  3 11  1  1
  4  6  1  0
  4  8  1  0
  4 30  1  6
  5  7  1  0
  5  9  1  0
  5 31  1  6
  6 14  1  0
  6 16  1  0
  6 32  1  6
  7 12  1  0
  7 15  2  0
  8  9  1  0
 10 13  1  0
 12 13  1  0
 14 22  1  0
 15 17  1  0
 17 18  2  0
 18 20  1  0
 18 23  1  0
 19 20  1  0
 19 24  1  0
 19 33  1  6
 20 26  2  0
 21 23  1  0
 21 24  1  0
 21 34  1  1
 22 25  1  0
 25 27  1  0
 27 28  1  0
 27 29  1  0
M  END
> <chembl_id>
CHEMBL1601669

> <chembl_pref_name>
ALFACALCIDOL
