
     RDKit          2D

 32 34  0  0  0  0  0  0  0  0999 V2000
   -2.9911   -2.9766    0.0000 C   0  0  0  0  0  0  0  0  0  0  0  0
   -2.9479   -3.8005    0.0000 C   0  0  0  0  0  0  0  0  0  0  0  0
   -2.2129   -4.1750    0.0000 C   0  0  0  0  0  0  0  0  0  0  0  0
   -1.5210   -3.7257    0.0000 C   0  0  0  0  0  0  0  0  0  0  0  0
   -1.5641   -2.9018    0.0000 O   0  0  0  0  0  0  0  0  0  0  0  0
   -3.6398   -4.2498    0.0000 O   0  0  0  0  0  0  0  0  0  0  0  0
   -0.7859   -4.1002    0.0000 C   0  0  0  0  0  0  0  0  0  0  0  0
   -3.7262   -2.6021    0.0000 O   0  0  0  0  0  0  0  0  0  0  0  0
   -2.1697   -4.9989    0.0000 O   0  0  0  0  0  0  0  0  0  0  0  0
   -0.7427   -4.9241    0.0000 C   0  0  0  0  0  0  0  0  0  0  0  0
   -0.0076   -5.2987    0.0000 C   0  0  0  0  0  0  0  0  0  0  0  0
    0.6843   -4.8493    0.0000 C   0  0  0  0  0  0  0  0  0  0  0  0
    0.6411   -4.0255    0.0000 C   0  0  0  0  0  0  0  0  0  0  0  0
   -0.0940   -3.6509    0.0000 C   0  0  0  0  0  0  0  0  0  0  0  0
    1.4194   -5.2239    0.0000 C   0  0  0  0  0  0  0  0  0  0  0  0
    1.3330   -3.5761    0.0000 C   0  0  0  0  0  0  0  0  0  0  0  0
    1.2898   -2.7523    0.0000 C   0  0  0  0  0  0  0  0  0  0  0  0
    1.9310   -2.2331    0.0000 S   0  0  0  0  0  0  0  0  0  0  0  0
    1.6353   -1.4629    0.0000 C   0  0  0  0  0  0  0  0  0  0  0  0
    0.8114   -1.5060    0.0000 C   0  0  0  0  0  0  0  0  0  0  0  0
    0.5979   -2.3029    0.0000 C   0  0  0  0  0  0  0  0  0  0  0  0
    2.0846   -0.7710    0.0000 C   0  0  0  0  0  0  0  0  0  0  0  0
    1.7101   -0.0359    0.0000 C   0  0  0  0  0  0  0  0  0  0  0  0
    2.1594    0.6560    0.0000 C   0  0  0  0  0  0  0  0  0  0  0  0
    2.9833    0.6128    0.0000 C   0  0  0  0  0  0  0  0  0  0  0  0
    3.3578   -0.1222    0.0000 C   0  0  0  0  0  0  0  0  0  0  0  0
    2.9085   -0.8141    0.0000 C   0  0  0  0  0  0  0  0  0  0  0  0
    3.4326    1.3047    0.0000 F   0  0  0  0  0  0  0  0  0  0  0  0
   -2.3424   -1.7034    0.0000 C   0  0  0  0  0  0  0  0  0  0  0  0
   -3.0775   -1.3289    0.0000 O   0  0  0  0  0  0  0  0  0  0  0  0
   -2.2992   -2.5273    0.0000 C   0  0  0  0  0  0  0  0  0  0  0  0
    3.4422   -3.1231    0.0000 O   0  0  0  0  0  0  0  0  0  0  0  0
 24 25  1  0
 25 26  2  0
 26 27  1  0
 27 22  2  0
 25 28  1  0
  1  2  1  0
  2  3  1  0
  3  4  1  0
  4  5  1  0
  2  6  1  1
  4  7  1  1
  1  8  1  6
  3  9  1  6
  7 10  2  0
 10 11  1  0
 11 12  2  0
 12 13  1  0
 13 14  2  0
 14  7  1  0
 12 15  1  0
 13 16  1  0
 16 17  1  0
 17 18  1  0
 18 19  1  0
 19 20  2  0
 20 21  1  0
 21 17  2  0
 19 22  1  0
 22 23  1  0
 23 24  2  0
 29 30  1  0
  5 31  1  0
 31  1  1  0
 31 29  1  1
M  END
> <chembl_id>
CHEMBL4594217

> <chembl_pref_name>
CANAGLIFLOZIN
