
     RDKit          2D

 32 36  0  0  1  0  0  0  0  0999 V2000
    0.8833   -7.8375    0.0000 C   0  0  0  0  0  0  0  0  0  0  0  0
    1.4958   -7.4792    0.0000 N   0  0  0  0  0  0  0  0  0  0  0  0
   -2.1042   -7.4792    0.0000 C   0  0  0  0  0  0  0  0  0  0  0  0
   -1.8833   -6.8125    0.0000 C   0  0  0  0  0  0  0  0  0  0  0  0
    0.8833   -8.5500    0.0000 C   0  0  0  0  0  0  0  0  0  0  0  0
    2.1125   -8.5500    0.0000 C   0  0  0  0  0  0  0  0  0  0  0  0
    0.2708   -7.4833    0.0000 N   0  0  0  0  0  0  0  0  0  0  0  0
   -0.9542   -7.4833    0.0000 N   0  0  0  0  0  0  0  0  0  0  0  0
   -2.5708   -6.9542    0.0000 C   0  0  0  0  0  0  0  0  0  0  0  0
    1.4958   -8.9042    0.0000 C   0  0  0  0  0  0  0  0  0  0  0  0
    2.1125   -7.8375    0.0000 C   0  0  0  0  0  0  0  0  0  0  0  0
   -0.3417   -7.8375    0.0000 C   0  0  0  0  0  0  0  0  0  0  0  0
   -1.1750   -6.8125    0.0000 C   0  0  0  0  0  0  0  0  0  0  0  0
   -1.5292   -7.9042    0.0000 C   0  0  0  0  0  0  0  0  0  0  0  0
    1.4958   -6.7708    0.0000 C   0  0  0  0  0  0  0  0  0  0  0  0
    0.2708   -8.9042    0.0000 C   0  0  0  0  0  0  0  0  0  0  0  0
    2.7250   -8.9042    0.0000 C   0  0  0  0  0  0  0  0  0  0  0  0
   -0.3417   -8.5500    0.0000 C   0  0  0  0  0  0  0  0  0  0  0  0
    0.8833   -6.4208    0.0000 C   0  0  0  0  0  0  0  0  0  0  0  0
    0.8792   -5.7167    0.0000 C   0  0  0  0  0  0  0  0  0  0  0  0
    2.1083   -6.4208    0.0000 C   0  0  0  0  0  0  0  0  0  0  0  0
    1.4917   -9.6125    0.0000 O   0  0  0  0  0  0  0  0  0  0  0  0
    2.7250   -9.6125    0.0000 O   0  0  0  0  0  0  0  0  0  0  0  0
   -3.2417   -6.7333    0.0000 N   0  0  0  0  0  0  0  0  0  0  0  0
    1.4958   -5.3583    0.0000 C   0  0  0  0  0  0  0  0  0  0  0  0
   -0.9542   -8.9042    0.0000 F   0  0  0  0  0  0  0  0  0  0  0  0
    0.2708   -6.7792    0.0000 F   0  0  0  0  0  0  0  0  0  0  0  0
    3.3375   -8.5500    0.0000 O   0  0  0  0  0  0  0  0  0  0  0  0
    2.1083   -5.7125    0.0000 C   0  0  0  0  0  0  0  0  0  0  0  0
    1.4958   -4.6500    0.0000 F   0  0  0  0  0  0  0  0  0  0  0  0
   -2.7208   -7.8292    0.0000 H   0  0  0  0  0  0  0  0  0  0  0  0
   -1.8875   -6.1042    0.0000 H   0  0  0  0  0  0  0  0  0  0  0  0
  2  1  1  0
  3 14  1  0
  4 13  1  0
  5  1  1  0
  6 10  1  0
  7  1  2  0
  8 12  1  0
  9  4  1  0
 10  5  1  0
 11  2  1  0
 12  7  1  0
 13  8  1  0
 14  8  1  0
 15  2  1  0
 16  5  2  0
 17  6  1  0
 18 16  1  0
 19 15  1  0
 20 19  2  0
 21 15  2  0
 22 10  2  0
 23 17  2  0
  9 24  1  1
 25 29  2  0
 26 18  1  0
 27 19  1  0
 28 17  1  0
 29 21  1  0
 30 25  1  0
  3 31  1  1
  4 32  1  1
 11  6  2  0
 18 12  2  0
  3  4  1  0
 20 25  1  0
  9  3  1  0
M  END
> <chembl_id>
CHEMBL428

> <chembl_pref_name>
TROVAFLOXACIN
