
     RDKit          2D

 14 14  0  0  0  0  0  0  0  0999 V2000
    4.7042   -6.3250    0.0000 C   0  0  0  0  0  0  0  0  0  0  0  0
    5.3042   -6.6792    0.0000 N   0  0  0  0  0  0  0  0  0  0  0  0
    6.5375   -7.4042    0.0000 N   0  0  0  0  0  0  0  0  0  0  0  0
    4.0917   -6.6792    0.0000 N   0  0  0  0  0  0  0  0  0  0  0  0
    4.7167   -5.6167    0.0000 O   0  0  0  0  0  0  0  0  0  0  0  0
    5.9292   -6.3292    0.0000 C   0  0  0  0  0  0  0  0  0  0  0  0
    5.3167   -7.3917    0.0000 C   0  0  0  0  0  0  0  0  0  0  0  0
    5.9250   -7.7542    0.0000 C   0  0  0  0  0  0  0  0  0  0  0  0
    6.5500   -6.6917    0.0000 C   0  0  0  0  0  0  0  0  0  0  0  0
    7.1542   -7.7667    0.0000 C   0  0  0  0  0  0  0  0  0  0  0  0
    3.4750   -6.3167    0.0000 C   0  0  0  0  0  0  0  0  0  0  0  0
    4.0875   -7.3917    0.0000 C   0  0  0  0  0  0  0  0  0  0  0  0
    3.4667   -7.7417    0.0000 C   0  0  0  0  0  0  0  0  0  0  0  0
    2.8542   -6.6667    0.0000 C   0  0  0  0  0  0  0  0  0  0  0  0
  2  1  1  0
  3  8  1  0
  4  1  1  0
  5  1  2  0
  6  2  1  0
  7  2  1  0
  8  7  1  0
  9  6  1  0
 10  3  1  0
 11  4  1  0
 12  4  1  0
 13 12  1  0
 14 11  1  0
  3  9  1  0
M  END
> <chembl_id>
CHEMBL684

> <chembl_pref_name>
DIETHYLCARBAMAZINE
