
     RDKit          2D

 29 27  0  0  0  0  0  0  0  0999 V2000
    4.5454   -4.0404    0.0000 O   0  0  0  0  0  0  0  0  0  0  0  0
    0.7433   -3.3426    0.0000 N   0  0  0  0  0  0  0  0  0  0  0  0
    1.2389   -4.0082    0.0000 C   0  0  0  0  0  0  0  0  0  0  0  0
    0.7482   -4.6835    0.0000 C   0  0  0  0  0  0  0  0  0  0  0  0
   -0.0388   -3.6050    0.0000 C   0  0  0  0  0  0  0  0  0  0  0  0
   -0.0388   -4.4308    0.0000 C   0  0  0  0  0  0  0  0  0  0  0  0
    0.7337   -2.5118    0.0000 C   0  0  0  0  0  0  0  0  0  0  0  0
    0.7433   -5.5094    0.0000 C   0  0  0  0  0  0  0  0  0  0  0  0
   -0.7530   -3.1920    0.0000 C   0  0  0  0  0  0  0  0  0  0  0  0
    1.4575   -5.9224    0.0000 C   0  0  0  0  0  0  0  0  0  0  0  0
    1.4478   -2.0891    0.0000 C   0  0  0  0  0  0  0  0  0  0  0  0
   -0.7530   -4.8438    0.0000 C   0  0  0  0  0  0  0  0  0  0  0  0
    0.0146   -2.1037    0.0000 O   0  0  0  0  0  0  0  0  0  0  0  0
    2.1766   -5.5240    0.0000 O   0  0  0  0  0  0  0  0  0  0  0  0
    1.4478   -6.7532    0.0000 O   0  0  0  0  0  0  0  0  0  0  0  0
    1.4333   -1.2729    0.0000 C   0  0  0  0  0  0  0  0  0  0  0  0
    2.1620   -2.4972    0.0000 C   0  0  0  0  0  0  0  0  0  0  0  0
    2.0600   -3.9985    0.0000 C   0  0  0  0  0  0  0  0  0  0  0  0
   -1.4672   -4.4357    0.0000 C   0  0  0  0  0  0  0  0  0  0  0  0
   -1.4672   -3.6050    0.0000 C   0  0  0  0  0  0  0  0  0  0  0  0
    2.8616   -1.2535    0.0000 C   0  0  0  0  0  0  0  0  0  0  0  0
    2.1425   -0.8503    0.0000 C   0  0  0  0  0  0  0  0  0  0  0  0
    2.8762   -2.0746    0.0000 C   0  0  0  0  0  0  0  0  0  0  0  0
    3.5758   -0.8308    0.0000 Cl  0  0  0  0  0  0  0  0  0  0  0  0
   -2.1814   -4.8438    0.0000 O   0  0  0  0  0  0  0  0  0  0  0  0
   -2.9005   -4.4357    0.0000 C   0  0  0  0  0  0  0  0  0  0  0  0
    3.3426   -5.6843    0.0000 Na  0  0  0  0  0 15  0  0  0  0  0  0
    4.6398   -5.6989    0.0000 O   0  0  0  0  0  0  0  0  0  0  0  0
    4.9873   -4.7032    0.0000 O   0  0  0  0  0  0  0  0  0  0  0  0
  3  2  1  0
  4  3  2  0
  5  2  1  0
  6  5  1  0
  7  2  1  0
  8  4  1  0
  9  5  2  0
 10  8  1  0
 11  7  1  0
 12  6  2  0
 13  7  2  0
 14 10  1  0
 15 10  2  0
 16 11  1  0
 17 11  2  0
 18  3  1  0
 19 20  2  0
 20  9  1  0
 21 22  1  0
 22 16  2  0
 23 17  1  0
 24 21  1  0
 25 19  1  0
 26 25  1  0
  6  4  1  0
 23 21  2  0
 12 19  1  0
M  CHG  2  14  -1  27   1
M  END
> <chembl_id>
CHEMBL3989410

> <chembl_pref_name>
INDOMETHACIN SODIUM
