
     RDKit          2D

 25 27  0  0  0  0  0  0  0  0999 V2000
   -0.7750    0.0083    0.0000 C   0  0  0  0  0  0  0  0  0  0  0  0
   -0.7750   -0.7000    0.0000 C   0  0  0  0  0  0  0  0  0  0  0  0
    0.4625    1.4208    0.0000 N   0  0  0  0  0  0  0  0  0  0  0  0
    1.4042    2.0917    0.0000 N   0  0  0  0  0  0  0  0  0  0  0  0
   -0.1583    0.3708    0.0000 C   0  0  0  0  0  0  0  0  0  0  0  0
    2.3125    0.3583    0.0000 C   0  0  0  0  0  0  0  0  0  0  0  0
    1.6792    0.0083    0.0000 C   0  0  0  0  0  0  0  0  0  0  0  0
    0.6875    2.1000    0.0000 C   0  0  0  0  0  0  0  0  0  0  0  0
   -1.4000   -1.0542    0.0000 C   0  0  0  0  0  0  0  0  0  0  0  0
   -1.3958    0.3750    0.0000 C   0  0  0  0  0  0  0  0  0  0  0  0
    2.9250   -0.0042    0.0000 C   0  0  0  0  0  0  0  0  0  0  0  0
   -0.1500    1.0875    0.0000 C   0  0  0  0  0  0  0  0  0  0  0  0
    0.4500    0.0083    0.0000 O   0  0  0  0  0  0  0  0  0  0  0  0
    1.6125    1.4125    0.0000 C   0  0  0  0  0  0  0  0  0  0  0  0
    1.0375    1.0083    0.0000 C   0  0  0  0  0  0  0  0  0  0  0  0
    1.0667    0.3625    0.0000 C   0  0  0  0  0  0  0  0  0  0  0  0
    1.6792   -0.7167    0.0000 C   0  0  0  0  0  0  0  0  0  0  0  0
   -2.0125   -0.6917    0.0000 C   0  0  0  0  0  0  0  0  0  0  0  0
    2.9167   -0.7167    0.0000 C   0  0  0  0  0  0  0  0  0  0  0  0
   -0.1583   -1.0625    0.0000 Cl  0  0  0  0  0  0  0  0  0  0  0  0
    2.3167    1.0708    0.0000 Cl  0  0  0  0  0  0  0  0  0  0  0  0
   -2.0083    0.0208    0.0000 C   0  0  0  0  0  0  0  0  0  0  0  0
    2.3000   -1.0667    0.0000 C   0  0  0  0  0  0  0  0  0  0  0  0
   -2.6333   -1.0417    0.0000 Cl  0  0  0  0  0  0  0  0  0  0  0  0
    3.5375   -1.0750    0.0000 Cl  0  0  0  0  0  0  0  0  0  0  0  0
  2  1  1  0
  3 12  1  0
  4  8  2  0
  5  1  1  0
  6  7  1  0
  7 16  1  0
  8  3  1  0
  9  2  2  0
 10  1  2  0
 11  6  2  0
 12  5  1  0
 13  5  1  0
 14 15  2  0
 15  3  1  0
 16 13  1  0
 17  7  2  0
 18 22  2  0
 19 23  2  0
 20  2  1  0
 21  6  1  0
 22 10  1  0
 23 17  1  0
 24 18  1  0
 25 19  1  0
 18  9  1  0
  4 14  1  0
 19 11  1  0
M  END
> <chembl_id>
CHEMBL91

> <chembl_pref_name>
MICONAZOLE
