
     RDKit          2D

 10 11  0  0  0  0  0  0  0  0999 V2000
    0.2167    0.0625    0.0000 C   0  0  0  0  0  0  0  0  0  0  0  0
    0.2167   -1.3875    0.0000 C   0  0  0  0  0  0  0  0  0  0  0  0
    2.4000   -0.6167    0.0000 N   0  0  0  0  0  0  0  0  0  0  0  0
   -1.0333    0.7958    0.0000 C   0  0  0  0  0  0  0  0  0  0  0  0
   -1.0333   -2.0750    0.0000 N   0  0  0  0  0  0  0  0  0  0  0  0
    1.5917   -1.7917    0.0000 N   0  0  0  0  0  0  0  0  0  0  0  0
   -2.2833    0.0625    0.0000 N   0  0  0  0  0  0  0  0  0  0  0  0
   -2.2833   -1.3875    0.0000 C   0  0  0  0  0  0  0  0  0  0  0  0
    1.5917    0.5083    0.0000 C   0  0  0  0  0  0  0  0  0  0  0  0
   -1.0333    2.2083    0.0000 S   0  0  0  0  0  0  0  0  0  0  0  0
  2  1  2  0
  3  9  2  0
  4  1  1  0
  5  2  1  0
  6  2  1  0
  7  4  2  0
  8  7  1  0
  9  1  1  0
 10  4  1  0
  6  3  1  0
  5  8  2  0
M  END
> <chembl_id>
CHEMBL119423

> <chembl_pref_name>
TISOPURINE
