
     RDKit          2D

 32 36  0  0  0  0  0  0  0  0999 V2000
   -0.5250    0.0833    0.0000 C   0  0  0  0  0  0  0  0  0  0  0  0
   -0.9625    0.7458    0.0000 N   0  0  0  0  0  0  0  0  0  0  0  0
   -1.0208   -0.5917    0.0000 N   0  0  0  0  0  0  0  0  0  0  0  0
    2.7167   -1.7917    0.0000 C   0  0  0  0  0  0  0  0  0  0  0  0
    2.1667   -2.3917    0.0000 N   0  0  0  0  0  0  0  0  0  0  0  0
    0.2792   -0.0167    0.0000 N   0  0  0  0  0  0  0  0  0  0  0  0
   -1.7708    0.5083    0.0000 C   0  0  0  0  0  0  0  0  0  0  0  0
   -1.7833   -0.3292    0.0000 C   0  0  0  0  0  0  0  0  0  0  0  0
    3.5375   -1.9792    0.0000 N   0  0  0  0  0  0  0  0  0  0  0  0
    2.4167   -3.1917    0.0000 C   0  0  0  0  0  0  0  0  0  0  0  0
    2.5542   -0.9917    0.0000 N   0  0  0  0  0  0  0  0  0  0  0  0
    3.2292   -3.3667    0.0000 C   0  0  0  0  0  0  0  0  0  0  0  0
    3.7792   -2.7542    0.0000 C   0  0  0  0  0  0  0  0  0  0  0  0
   -0.6583    1.5125    0.0000 C   0  0  0  0  0  0  0  0  0  0  0  0
    1.8375   -0.5542    0.0000 C   0  0  0  0  0  0  0  0  0  0  0  0
    0.4417   -0.8042    0.0000 C   0  0  0  0  0  0  0  0  0  0  0  0
    0.9000    0.5458    0.0000 C   0  0  0  0  0  0  0  0  0  0  0  0
    1.2167   -1.0750    0.0000 C   0  0  0  0  0  0  0  0  0  0  0  0
    1.6792    0.2708    0.0000 C   0  0  0  0  0  0  0  0  0  0  0  0
    1.8542   -3.8042    0.0000 O   0  0  0  0  0  0  0  0  0  0  0  0
   -1.2458    2.1000    0.0000 C   0  0  0  0  0  0  0  0  0  0  0  0
   -2.3833    3.3083    0.0000 C   0  0  0  0  0  0  0  0  0  0  0  0
   -2.9583    3.9208    0.0000 F   0  0  0  0  0  0  0  0  0  0  0  0
   -2.0583    1.9125    0.0000 C   0  0  0  0  0  0  0  0  0  0  0  0
   -1.0083    2.9000    0.0000 C   0  0  0  0  0  0  0  0  0  0  0  0
   -2.6333    2.5208    0.0000 C   0  0  0  0  0  0  0  0  0  0  0  0
   -1.5750    3.5000    0.0000 C   0  0  0  0  0  0  0  0  0  0  0  0
   -2.4583    0.9458    0.0000 C   0  0  0  0  0  0  0  0  0  0  0  0
   -2.5000   -0.7375    0.0000 C   0  0  0  0  0  0  0  0  0  0  0  0
    3.2417   -0.5125    0.0000 C   0  0  0  0  0  0  0  0  0  0  0  0
   -3.2000    0.5458    0.0000 C   0  0  0  0  0  0  0  0  0  0  0  0
   -3.2208   -0.3125    0.0000 C   0  0  0  0  0  0  0  0  0  0  0  0
  2  1  1  0
  3  1  2  0
  4 11  1  0
  5  4  1  0
  6  1  1  0
  7  2  1  0
  8  3  1  0
  9  4  2  0
 10  5  1  0
 11 15  1  0
 12 13  2  0
 13  9  1  0
 14  2  1  0
 15 19  1  0
 16  6  1  0
 17  6  1  0
 18 16  1  0
 19 17  1  0
 20 10  2  0
 21 14  1  0
 22 27  1  0
 23 22  1  0
 24 21  2  0
 25 21  1  0
 26 24  1  0
 27 25  2  0
 28  7  1  0
 29  8  1  0
 30 11  1  0
 31 28  2  0
 32 29  2  0
  7  8  2  0
 18 15  1  0
 31 32  1  0
 26 22  2  0
 10 12  1  0
M  END
> <chembl_id>
CHEMBL94454

> <chembl_pref_name>
MIZOLASTINE
