
     RDKit          2D

 22 22  0  0  0  0  0  0  0  0999 V2000
    7.4792   -3.3417    0.0000 Cl  0  0  0  0  0  0  0  0  0  0  0  0
    2.7875   -2.3667    0.0000 C   0  0  0  0  0  0  0  0  0  0  0  0
    4.6417   -2.0042    0.0000 N   0  0  0  0  0  0  0  0  0  0  0  0
    3.4042   -2.0042    0.0000 C   0  0  0  0  0  0  0  0  0  0  0  0
    5.2625   -2.3667    0.0000 C   0  0  0  0  0  0  0  0  0  0  0  0
    2.1750   -2.0292    0.0000 C   0  0  0  0  0  0  0  0  0  0  0  0
    2.7875   -3.0625    0.0000 C   0  0  0  0  0  0  0  0  0  0  0  0
    4.0250   -2.3667    0.0000 C   0  0  0  0  0  0  0  0  0  0  0  0
    5.2625   -3.0750    0.0000 C   0  0  0  0  0  0  0  0  0  0  0  0
    5.9792   -2.7500    0.0000 C   0  0  0  0  0  0  0  0  0  0  0  0
    5.8750   -2.0042    0.0000 C   0  0  0  0  0  0  0  0  0  0  0  0
    2.1750   -3.4042    0.0000 C   0  0  0  0  0  0  0  0  0  0  0  0
    2.1750   -1.3375    0.0000 C   0  0  0  0  0  0  0  0  0  0  0  0
    1.5667   -2.3875    0.0000 C   0  0  0  0  0  0  0  0  0  0  0  0
    3.4000   -3.4167    0.0000 C   0  0  0  0  0  0  0  0  0  0  0  0
    4.0250   -3.0625    0.0000 C   0  0  0  0  0  0  0  0  0  0  0  0
    2.1750   -4.1250    0.0000 C   0  0  0  0  0  0  0  0  0  0  0  0
    1.5542   -0.9792    0.0000 C   0  0  0  0  0  0  0  0  0  0  0  0
    0.9417   -2.0292    0.0000 C   0  0  0  0  0  0  0  0  0  0  0  0
    3.4042   -4.1250    0.0000 C   0  0  0  0  0  0  0  0  0  0  0  0
    0.9417   -1.3417    0.0000 C   0  0  0  0  0  0  0  0  0  0  0  0
    2.7917   -4.4542    0.0000 C   0  0  0  0  0  0  0  0  0  0  0  0
  3  8  1  0
  4  2  1  0
  5  3  1  0
  6  2  1  0
  7  2  1  0
  8  4  1  0
  9  5  1  0
 10  5  1  0
 11  5  1  0
 12  7  2  0
 13  6  2  0
 14  6  1  0
 15  7  1  0
 16  8  1  0
 17 12  1  0
 18 13  1  0
 19 14  2  0
 20 15  2  0
 21 19  1  0
 22 17  2  0
 22 20  1  0
 18 21  2  0
M  END
> <chembl_id>
CHEMBL539770

> <chembl_pref_name>
TERODILINE HYDROCHLORIDE
