
     RDKit          2D

 51 54  0  0  0  0  0  0  0  0999 V2000
   -1.8693    2.3296    0.0000 C   0  0  0  0  0  0  0  0  0  0  0  0
   -2.5838    1.9171    0.0000 C   0  0  0  0  0  0  0  0  0  0  0  0
   -2.5838    1.0921    0.0000 C   0  0  0  0  0  0  0  0  0  0  0  0
   -1.8693    0.6795    0.0000 C   0  0  0  0  0  0  0  0  0  0  0  0
   -1.1548    1.0921    0.0000 C   0  0  0  0  0  0  0  0  0  0  0  0
   -1.1548    1.9171    0.0000 C   0  0  0  0  0  0  0  0  0  0  0  0
   -0.4404    0.6795    0.0000 S   0  0  0  0  0  0  0  0  0  0  0  0
    0.2741    1.0920    0.0000 C   0  0  0  0  0  0  0  0  0  0  0  0
    0.2741    1.9170    0.0000 C   0  0  0  0  0  0  0  0  0  0  0  0
   -0.4404    2.3295    0.0000 O   0  0  0  0  0  0  0  0  0  0  0  0
    1.7031    1.9170    0.0000 N   0  0  0  0  0  0  0  0  0  0  0  0
    0.9886    2.3295    0.0000 C   0  0  0  0  0  0  0  0  0  0  0  0
    3.1321    1.0919    0.0000 O   0  0  0  0  0  0  0  0  0  0  0  0
    3.1321    1.9169    0.0000 C   0  0  0  0  0  0  0  0  0  0  0  0
    2.4176    2.3295    0.0000 C   0  0  0  0  0  0  0  0  0  0  0  0
    2.4157    4.8259    0.0000 C   0  0  0  0  0  0  0  0  0  0  0  0
    1.7013    4.4134    0.0000 C   0  0  0  0  0  0  0  0  0  0  0  0
    1.7013    3.5884    0.0000 C   0  0  0  0  0  0  0  0  0  0  0  0
    2.4157    3.1759    0.0000 C   0  0  0  0  0  0  0  0  0  0  0  0
    3.1302    3.5884    0.0000 C   0  0  0  0  0  0  0  0  0  0  0  0
    3.1302    4.4134    0.0000 C   0  0  0  0  0  0  0  0  0  0  0  0
    4.5610    1.0919    0.0000 C   0  0  0  0  0  0  0  0  0  0  0  0
    4.5610    1.9169    0.0000 C   0  0  0  0  0  0  0  0  0  0  0  0
    3.8465    2.3294    0.0000 N   0  0  0  0  0  0  0  0  0  0  0  0
    5.2755    0.6794    0.0000 C   0  0  0  0  0  0  0  0  0  0  0  0
    5.9900    1.9169    0.0000 O   0  0  0  0  0  0  0  0  0  0  0  0
    5.2755    2.3294    0.0000 C   0  0  0  0  0  0  0  0  0  0  0  0
    2.4157    5.6509    0.0000 O   0  0  0  0  0  0  0  0  0  0  0  0
    5.2755    3.1544    0.0000 O   0  0  0  0  0  0  0  0  0  0  0  0
    0.9886    3.1545    0.0000 O   0  0  0  0  0  0  0  0  0  0  0  0
   -3.2288    2.4314    0.0000 S   0  0  0  0  0  0  0  0  0  0  0  0
   -4.0331    2.2479    0.0000 N   0  0  0  0  0  0  0  0  0  0  0  0
   -4.3910    1.5046    0.0000 C   0  0  0  0  0  0  0  0  0  0  0  0
   -4.0331    0.7613    0.0000 C   0  0  0  0  0  0  0  0  0  0  0  0
   -3.2288    0.5777    0.0000 N   0  0  0  0  0  0  0  0  0  0  0  0
   -3.0573   -0.2293    0.0000 C   0  0  0  0  0  0  0  0  0  0  0  0
   -3.5100    3.2070    0.0000 O   0  0  0  0  0  0  0  0  0  0  0  0
   -2.6389    3.0082    0.0000 O   0  0  0  0  0  0  0  0  0  0  0  0
   -5.0585    1.9895    0.0000 C   0  0  0  0  0  0  0  0  0  0  0  0
   -5.8122    1.6539    0.0000 C   0  0  0  0  0  0  0  0  0  0  0  0
   -6.4796    2.1389    0.0000 C   0  0  0  0  0  0  0  0  0  0  0  0
   -7.2333    1.8033    0.0000 C   0  0  0  0  0  0  0  0  0  0  0  0
   -5.0322    0.9854    0.0000 C   0  0  0  0  0  0  0  0  0  0  0  0
   -4.9031    0.1705    0.0000 C   0  0  0  0  0  0  0  0  0  0  0  0
   -5.5443   -0.3487    0.0000 C   0  0  0  0  0  0  0  0  0  0  0  0
   -5.3728   -1.1556    0.0000 C   0  0  0  0  0  0  0  0  0  0  0  0
   -3.6703   -0.7813    0.0000 C   0  0  0  0  0  0  0  0  0  0  0  0
   -3.4988   -1.5883    0.0000 C   0  0  0  0  0  0  0  0  0  0  0  0
   -2.7142   -1.8433    0.0000 C   0  0  0  0  0  0  0  0  0  0  0  0
   -2.1011   -1.2912    0.0000 C   0  0  0  0  0  0  0  0  0  0  0  0
   -2.2726   -0.4842    0.0000 C   0  0  0  0  0  0  0  0  0  0  0  0
  1  2  2  0
  2  3  1  0
  3  4  2  0
  4  5  1  0
  5  6  2  0
  1  6  1  0
  7  8  1  0
  9 10  1  0
  5  7  1  0
  6 10  1  0
 11 12  1  0
  9 12  1  0
 13 14  2  0
 14 15  1  0
 11 15  1  0
 16 17  1  0
 17 18  2  0
 18 19  1  0
 19 20  2  0
 20 21  1  0
 16 21  2  0
 23 22  1  6
 23 24  1  0
 14 24  1  0
 26 27  1  0
 22 25  1  0
 23 27  1  0
 15 19  1  6
 16 28  1  0
 27 29  2  0
 12 30  2  0
  2 31  1  0
 31 32  1  0
 32 33  1  0
 33 34  1  0
 34 35  1  0
 35  3  1  0
 35 36  1  0
 31 37  2  0
 31 38  2  0
 33 39  1  0
 39 40  1  0
 40 41  1  0
 41 42  1  0
 33 43  1  0
 43 44  1  0
 44 45  1  0
 45 46  1  0
 47 48  2  0
 48 49  1  0
 49 50  2  0
 50 51  1  0
 36 47  1  0
 36 51  2  0
M  END
> <chembl_id>
CHEMBL4297588

> <chembl_pref_name>
ODEVIXIBAT
