
     RDKit          2D

 56 59  0  0  0  0  0  0  0  0999 V2000
    3.7952    3.5586    0.0000 C   0  0  0  0  0  0  0  0  0  0  0  0
    3.7952    2.7336    0.0000 O   0  0  0  0  0  0  0  0  0  0  0  0
    3.0807    3.9711    0.0000 O   0  0  0  0  0  0  0  0  0  0  0  0
    4.5096    3.9711    0.0000 C   0  0  0  0  0  0  0  0  0  0  0  0
    5.2241    3.5586    0.0000 N   0  0  0  0  0  0  0  0  0  0  0  0
    1.6517    4.7961    0.0000 C   0  0  0  0  0  0  0  0  0  0  0  0
    1.6517    3.9711    0.0000 C   0  0  0  0  0  0  0  0  0  0  0  0
    0.9373    5.2086    0.0000 C   0  0  0  0  0  0  0  0  0  0  0  0
    0.2228    4.7961    0.0000 C   0  0  0  0  0  0  0  0  0  0  0  0
    0.2228    3.9711    0.0000 N   0  0  0  0  0  0  0  0  0  0  0  0
    0.9373    3.5586    0.0000 C   0  0  0  0  0  0  0  0  0  0  0  0
    0.9373    2.7336    0.0000 N   0  0  0  0  0  0  0  0  0  0  0  0
    2.3662    3.5586    0.0000 C   0  0  0  0  0  0  0  0  0  0  0  0
    1.6517    2.3211    0.0000 C   0  0  0  0  0  0  0  0  0  0  0  0
   -0.4917    0.2586    0.0000 N   0  0  0  0  0  0  0  0  0  0  0  0
   -0.4917    1.0836    0.0000 C   0  0  0  0  0  0  0  0  0  0  0  0
   -1.2061    1.4961    0.0000 C   0  0  0  0  0  0  0  0  0  0  0  0
    0.2228    1.4961    0.0000 O   0  0  0  0  0  0  0  0  0  0  0  0
   -0.4917    2.7336    0.0000 O   0  0  0  0  0  0  0  0  0  0  0  0
    0.2228    2.3211    0.0000 C   0  0  0  0  0  0  0  0  0  0  0  0
    0.1758   -0.2264    0.0000 C   0  0  0  0  0  0  0  0  0  0  0  0
   -0.0792   -1.0110    0.0000 N   0  0  0  0  0  0  0  0  0  0  0  0
   -0.9042   -1.0110    0.0000 N   0  0  0  0  0  0  0  0  0  0  0  0
   -1.1591   -0.2264    0.0000 C   0  0  0  0  0  0  0  0  0  0  0  0
    3.7662   -3.3101    0.0000 N   0  0  0  0  0  0  0  0  0  0  0  0
    2.9412   -3.3101    0.0000 C   0  0  0  0  0  0  0  0  0  0  0  0
    2.1162   -3.3101    0.0000 C   0  0  0  0  0  0  0  0  0  0  0  0
    1.7037   -2.5956    0.0000 C   0  0  0  0  0  0  0  0  0  0  0  0
    0.8787   -2.5956    0.0000 C   0  0  0  0  0  0  0  0  0  0  0  0
    0.4662   -3.3101    0.0000 C   0  0  0  0  0  0  0  0  0  0  0  0
   -0.3588   -3.3101    0.0000 C   0  0  0  0  0  0  0  0  0  0  0  0
   -0.8437   -3.9775    0.0000 C   0  0  0  0  0  0  0  0  0  0  0  0
   -1.6284   -3.7226    0.0000 S   0  0  0  0  0  0  0  0  0  0  0  0
   -0.8437   -2.6427    0.0000 N   0  0  0  0  0  0  0  0  0  0  0  0
    0.8787   -4.0246    0.0000 C   0  0  0  0  0  0  0  0  0  0  0  0
    1.7037   -4.0246    0.0000 C   0  0  0  0  0  0  0  0  0  0  0  0
   -1.3891   -1.6784    0.0000 C   0  0  0  0  0  0  0  0  0  0  0  0
   -2.2096   -1.5922    0.0000 C   0  0  0  0  0  0  0  0  0  0  0  0
   -2.2958   -2.4127    0.0000 C   0  0  0  0  0  0  0  0  0  0  0  0
   -1.6284   -2.8976    0.0000 C   0  0  0  0  0  0  0  0  0  0  0  0
   -3.3656   -0.7523    0.0000 C   0  0  0  0  0  0  0  0  0  0  0  0
   -3.0300   -1.5060    0.0000 C   0  0  0  0  0  0  0  0  0  0  0  0
   -2.8807   -0.0848    0.0000 F   0  0  0  0  0  0  0  0  0  0  0  0
   -4.1861   -0.6660    0.0000 C   0  0  0  0  0  0  0  0  0  0  0  0
   -4.6710   -1.3335    0.0000 C   0  0  0  0  0  0  0  0  0  0  0  0
   -4.3355   -2.0872    0.0000 C   0  0  0  0  0  0  0  0  0  0  0  0
   -4.8204   -2.7546    0.0000 F   0  0  0  0  0  0  0  0  0  0  0  0
   -3.5150   -2.1734    0.0000 C   0  0  0  0  0  0  0  0  0  0  0  0
    5.9386    3.9711    0.0000 C   0  0  0  0  0  0  0  0  0  0  0  0
   -3.0495   -2.7482    0.0000 C   0  0  0  0  0  0  0  0  0  0  0  0
   -2.1233   -0.7717    0.0000 O   0  0  0  0  0  0  0  0  0  0  0  0
    8.8850    0.0000    0.0000 S   0  0  0  0  0  0  0  0  0  0  0  0
    8.8850   -0.8250    0.0000 O   0  0  0  0  0  0  0  0  0  0  0  0
    8.8850    0.8250    0.0000 O   0  0  0  0  0  0  0  0  0  0  0  0
    9.7100    0.0000    0.0000 O   0  0  0  0  0  0  0  0  0  0  0  0
    8.0600    0.0000    0.0000 O   0  0  0  0  0  0  0  0  0  0  0  0
  1  2  2  0
  3  1  1  0
  4  1  1  0
  4  5  1  0
  6  7  2  0
  6  8  1  0
  7 11  1  0
  7 13  1  0
  8  9  2  0
 10  9  1  0
 11 10  2  0
 12 11  1  0
 12 14  1  0
 13  3  1  0
 15 21  1  0
 16 17  1  0
 16 18  1  0
 19 20  2  0
 20 18  1  0
 20 12  1  0
 21 22  2  0
 22 23  1  0
 23 24  1  0
 24 15  2  0
 26 25  3  0
 26 27  1  0
 27 36  2  0
 28 27  1  0
 28 29  2  0
 30 29  1  0
 30 31  1  0
 31 32  2  0
 31 34  1  0
 32 33  1  0
 34 40  2  0
 35 30  2  0
 36 35  1  0
 37 38  1  0
 37 23  1  0
 38 39  1  0
 40 33  1  0
 40 39  1  0
 41 42  2  0
 41 44  1  0
 42 48  1  0
 43 41  1  0
 44 45  2  0
 46 45  1  0
 46 47  1  0
 48 46  2  0
 49  5  1  0
 38 42  1  1
 16 15  1  0
 39 50  1  6
 38 51  1  6
 52 53  2  0
 52 54  2  0
 52 55  1  0
 52 56  1  0
M  CHG  2  15   1  56  -1
M  END
> <chembl_id>
CHEMBL3137333

> <chembl_pref_name>
ISAVUCONAZONIUM SULFATE
