
     RDKit          2D

 28 32  0  0  0  0  0  0  0  0999 V2000
   -0.2750   -3.6042    0.0000 C   0  0  0  0  0  0  0  0  0  0  0  0
   -0.8458   -3.1917    0.0000 N   0  0  0  0  0  0  0  0  0  0  0  0
   -0.4958   -4.2583    0.0000 C   0  0  0  0  0  0  0  0  0  0  0  0
    0.3250   -3.2500    0.0000 N   0  0  0  0  0  0  0  0  0  0  0  0
    5.3542   -1.2667    0.0000 N   0  0  0  0  0  0  0  0  0  0  0  0
   -1.4000   -3.6042    0.0000 S   0  0  0  0  0  0  0  0  0  0  0  0
    4.6542   -1.4875    0.0000 C   0  0  0  0  0  0  0  0  0  0  0  0
    5.7417   -1.8417    0.0000 C   0  0  0  0  0  0  0  0  0  0  0  0
    4.6542   -2.2000    0.0000 C   0  0  0  0  0  0  0  0  0  0  0  0
    4.0625   -1.1167    0.0000 C   0  0  0  0  0  0  0  0  0  0  0  0
   -1.1958   -4.2583    0.0000 C   0  0  0  0  0  0  0  0  0  0  0  0
    3.4292   -1.4875    0.0000 C   0  0  0  0  0  0  0  0  0  0  0  0
    3.4292   -2.1792    0.0000 C   0  0  0  0  0  0  0  0  0  0  0  0
    1.5667   -2.5292    0.0000 N   0  0  0  0  0  0  0  0  0  0  0  0
    4.0625   -2.5417    0.0000 C   0  0  0  0  0  0  0  0  0  0  0  0
    5.3542   -2.4042    0.0000 C   0  0  0  0  0  0  0  0  0  0  0  0
    0.9292   -3.6042    0.0000 C   0  0  0  0  0  0  0  0  0  0  0  0
    0.3250   -2.5375    0.0000 C   0  0  0  0  0  0  0  0  0  0  0  0
    6.4417   -1.8417    0.0000 O   0  0  0  0  0  0  0  0  0  0  0  0
    2.7875   -2.5292    0.0000 C   0  0  0  0  0  0  0  0  0  0  0  0
    2.1875   -2.1875    0.0000 C   0  0  0  0  0  0  0  0  0  0  0  0
    1.5667   -3.2292    0.0000 C   0  0  0  0  0  0  0  0  0  0  0  0
    0.9375   -2.2000    0.0000 C   0  0  0  0  0  0  0  0  0  0  0  0
    2.8125   -1.1500    0.0000 Cl  0  0  0  0  0  0  0  0  0  0  0  0
   -0.0958   -4.8917    0.0000 C   0  0  0  0  0  0  0  0  0  0  0  0
   -1.5458   -4.8917    0.0000 C   0  0  0  0  0  0  0  0  0  0  0  0
   -0.4750   -5.5125    0.0000 C   0  0  0  0  0  0  0  0  0  0  0  0
   -1.1958   -5.5125    0.0000 C   0  0  0  0  0  0  0  0  0  0  0  0
  2  1  2  0
  3  1  1  0
  4  1  1  0
  5  7  1  0
  6  2  1  0
  7  9  2  0
  8 16  1  0
  9 15  1  0
 10 12  2  0
 11  3  1  0
 12 13  1  0
 13 20  1  0
 14 23  1  0
 15 13  2  0
 16  9  1  0
 17  4  1  0
 18  4  1  0
 19  8  2  0
 20 21  1  0
 21 14  1  0
 22 17  1  0
 23 18  1  0
 24 12  1  0
 25  3  2  0
 26 11  2  0
 27 25  1  0
 28 27  2  0
 11  6  1  0
 22 14  1  0
 26 28  1  0
 10  7  1  0
  5  8  1  0
M  END
> <chembl_id>
CHEMBL708

> <chembl_pref_name>
ZIPRASIDONE
