
     RDKit          2D

 20 20  0  0  0  0  0  0  0  0999 V2000
    6.0792   -6.9042    0.0000 Cl  0  0  0  0  0  0  0  0  0  0  0  0
    5.0625   -5.7750    0.0000 N   0  0  0  0  0  0  0  0  0  0  0  0
    5.6792   -5.4167    0.0000 C   0  0  0  0  0  0  0  0  0  0  0  0
    6.3000   -5.7750    0.0000 N   0  0  0  0  0  0  0  0  0  0  0  0
    4.4625   -5.4167    0.0000 C   0  0  0  0  0  0  0  0  0  0  0  0
    5.0750   -6.4792    0.0000 C   0  0  0  0  0  0  0  0  0  0  0  0
    4.4542   -7.5500    0.0000 N   0  0  0  0  0  0  0  0  0  0  0  0
    4.4542   -6.8375    0.0000 C   0  0  0  0  0  0  0  0  0  0  0  0
    3.8417   -5.7750    0.0000 C   0  0  0  0  0  0  0  0  0  0  0  0
    5.6875   -4.7042    0.0000 C   0  0  0  0  0  0  0  0  0  0  0  0
    6.9125   -5.4167    0.0000 C   0  0  0  0  0  0  0  0  0  0  0  0
    3.8417   -7.9042    0.0000 C   0  0  0  0  0  0  0  0  0  0  0  0
    5.0750   -7.9042    0.0000 C   0  0  0  0  0  0  0  0  0  0  0  0
    3.8417   -6.4792    0.0000 C   0  0  0  0  0  0  0  0  0  0  0  0
    3.2292   -5.4167    0.0000 C   0  0  0  0  0  0  0  0  0  0  0  0
    6.3000   -4.3542    0.0000 C   0  0  0  0  0  0  0  0  0  0  0  0
    6.9167   -4.7042    0.0000 C   0  0  0  0  0  0  0  0  0  0  0  0
    2.6125   -5.7792    0.0000 C   0  0  0  0  0  0  0  0  0  0  0  0
    3.2250   -6.8417    0.0000 C   0  0  0  0  0  0  0  0  0  0  0  0
    2.6125   -6.4917    0.0000 C   0  0  0  0  0  0  0  0  0  0  0  0
  3  2  1  0
  4  3  2  0
  5  2  1  0
  6  2  1  0
  7  8  1  0
  8  6  1  0
  9  5  1  0
 10  3  1  0
 11  4  1  0
 12  7  1  0
 13  7  1  0
 14  9  1  0
 15  9  2  0
 16 10  2  0
 17 16  1  0
 18 15  1  0
 19 14  2  0
 20 19  1  0
 17 11  2  0
 20 18  2  0
M  END
> <chembl_id>
CHEMBL1200446

> <chembl_pref_name>
TRIPELENNAMINE HYDROCHLORIDE
