
     RDKit          2D

 25 26  0  0  0  0  0  0  0  0999 V2000
   18.0493  -16.7064    0.0000 Na  0  0  0  0  0 15  0  0  0  0  0  0
   14.4789  -17.0364    0.0000 C   0  0  0  0  0  0  0  0  0  0  0  0
   14.4789  -17.8615    0.0000 C   0  0  0  0  0  0  0  0  0  0  0  0
   15.3039  -17.0364    0.0000 N   0  0  0  0  0  0  0  0  0  0  0  0
   15.3084  -17.8613    0.0000 C   0  0  0  0  0  0  0  0  0  0  0  0
   16.0944  -18.1120    0.0000 S   0  0  0  0  0  0  0  0  0  0  0  0
   16.5758  -17.4419    0.0000 C   0  0  0  0  0  0  0  0  0  0  0  0
   16.0871  -16.7773    0.0000 C   0  0  0  0  0  0  0  0  0  0  0  0
   13.8955  -18.4448    0.0000 N   0  0  0  0  0  0  0  0  0  0  0  0
   13.0986  -18.2313    0.0000 C   0  0  0  0  0  0  0  0  0  0  0  0
   12.5153  -18.8146    0.0000 C   0  0  0  0  0  0  0  0  0  0  0  0
   12.8851  -17.4344    0.0000 O   0  0  0  0  0  0  0  0  0  0  0  0
   11.7183  -18.6011    0.0000 C   0  0  0  0  0  0  0  0  0  0  0  0
   11.5065  -17.8044    0.0000 C   0  0  0  0  0  0  0  0  0  0  0  0
   10.7104  -17.5907    0.0000 C   0  0  0  0  0  0  0  0  0  0  0  0
   10.1261  -18.1744    0.0000 C   0  0  0  0  0  0  0  0  0  0  0  0
   10.3433  -18.9747    0.0000 C   0  0  0  0  0  0  0  0  0  0  0  0
   11.1389  -19.1847    0.0000 C   0  0  0  0  0  0  0  0  0  0  0  0
   13.8955  -16.4530    0.0000 O   0  0  0  0  0  0  0  0  0  0  0  0
   16.3377  -15.9912    0.0000 C   0  0  0  0  0  0  0  0  0  0  0  0
   17.1556  -16.8531    0.0000 C   0  0  0  0  0  0  0  0  0  0  0  0
   17.0342  -18.1278    0.0000 C   0  0  0  0  0  0  0  0  0  0  0  0
   17.1453  -15.8123    0.0000 O   0  0  0  0  0  0  0  0  0  0  0  0
   15.7840  -15.3783    0.0000 O   0  0  0  0  0  0  0  0  0  0  0  0
   15.2993  -18.6818    0.0000 H   0  0  0  0  0  0  0  0  0  0  0  0
  3  5  1  0
 11 13  1  0
  4  2  1  0
 13 14  2  0
  5  6  1  0
 14 15  1  0
  6  7  1  0
 15 16  2  0
  7  8  1  0
 16 17  1  0
  8  4  1  0
 17 18  2  0
 18 13  1  0
  4  5  1  0
  2 19  2  0
  3  9  1  6
  8 20  1  1
  2  3  1  0
  7 21  1  0
  9 10  1  0
  7 22  1  0
 10 11  1  0
 20 23  1  0
 20 24  2  0
  5 25  1  1
 10 12  2  0
M  CHG  2   1   1  23  -1
M  END
> <chembl_id>
CHEMBL1126

> <chembl_pref_name>
PENICILLIN G SODIUM
