
     RDKit          2D

 79 81  0  0  1  0  0  0  0  0999 V2000
   -1.7102   -2.4244    0.0000 C   0  0  0  0  0  0  0  0  0  0  0  0
   -2.1231   -3.1386    0.0000 C   0  0  0  0  0  0  0  0  0  0  0  0
   -2.9442   -3.1386    0.0000 C   0  0  0  0  0  0  0  0  0  0  0  0
    0.2575    0.3498    0.0000 C   0  0  0  0  0  0  0  0  0  0  0  0
   -2.1231   -1.7102    0.0000 O   0  0  0  0  0  0  0  0  0  0  0  0
   -3.3620   -2.4244    0.0000 C   0  0  0  0  0  0  0  0  0  0  0  0
    0.9765    0.7579    0.0000 C   0  0  0  0  0  0  0  0  0  0  0  0
    0.2527   -0.4761    0.0000 C   0  0  0  0  0  0  0  0  0  0  0  0
   10.9605   -0.9279    0.0000 O   0  0  0  0  0  0  0  0  0  0  0  0
   11.6796   -0.5150    0.0000 C   0  0  0  0  0  0  0  0  0  0  0  0
   10.9605   -1.7539    0.0000 C   0  0  0  0  0  0  0  0  0  0  0  0
   -2.9442   -1.7102    0.0000 C   0  0  0  0  0  0  0  0  0  0  0  0
   -0.4567    0.7676    0.0000 C   0  0  0  0  0  0  0  0  0  0  0  0
   11.6698   -4.6446    0.0000 C   0  0  0  0  0  0  0  0  0  0  0  0
   10.9556   -4.2317    0.0000 C   0  0  0  0  0  0  0  0  0  0  0  0
    1.6858    0.3401    0.0000 C   0  0  0  0  0  0  0  0  0  0  0  0
   11.6796    0.3110    0.0000 C   0  0  0  0  0  0  0  0  0  0  0  0
   -0.8842   -2.4244    0.0000 O   0  0  0  0  0  0  0  0  0  0  0  0
   -0.4664   -0.8842    0.0000 C   0  0  0  0  0  0  0  0  0  0  0  0
    2.4049    0.7482    0.0000 C   0  0  0  0  0  0  0  0  0  0  0  0
   11.6747   -2.1668    0.0000 C   0  0  0  0  0  0  0  0  0  0  0  0
   11.6747   -2.9928    0.0000 C   0  0  0  0  0  0  0  0  0  0  0  0
   12.3889   -4.2317    0.0000 C   0  0  0  0  0  0  0  0  0  0  0  0
   10.2414   -4.6446    0.0000 C   0  0  0  0  0  0  0  0  0  0  0  0
   -0.4713   -1.7102    0.0000 C   0  0  0  0  0  0  0  0  0  0  0  0
    3.1191    0.3303    0.0000 C   0  0  0  0  0  0  0  0  0  0  0  0
   12.3889   -3.4057    0.0000 C   0  0  0  0  0  0  0  0  0  0  0  0
   10.9654    0.7239    0.0000 C   0  0  0  0  0  0  0  0  0  0  0  0
   12.3938   -0.9328    0.0000 O   0  0  0  0  0  0  0  0  0  0  0  0
    7.4091    0.3061    0.0000 C   0  0  0  0  0  0  0  0  0  0  0  0
   10.2463   -2.1620    0.0000 C   0  0  0  0  0  0  0  0  0  0  0  0
   -0.4518    1.5936    0.0000 O   0  0  0  0  0  0  0  0  0  0  0  0
    5.9807    0.3158    0.0000 C   0  0  0  0  0  0  0  0  0  0  0  0
    4.5474    0.3256    0.0000 C   0  0  0  0  0  0  0  0  0  0  0  0
    8.1280    0.7142    0.0000 C   0  0  0  0  0  0  0  0  0  0  0  0
   10.9556   -3.4057    0.0000 O   0  0  0  0  0  0  0  0  0  0  0  0
    3.8382    0.7433    0.0000 C   0  0  0  0  0  0  0  0  0  0  0  0
    6.6949    0.7239    0.0000 C   0  0  0  0  0  0  0  0  0  0  0  0
    5.2665    0.7337    0.0000 C   0  0  0  0  0  0  0  0  0  0  0  0
   -3.3572   -3.8527    0.0000 N   0  0  0  0  0  0  0  0  0  0  0  0
    2.4098    1.5741    0.0000 O   0  0  0  0  0  0  0  0  0  0  0  0
    2.3903   -1.7248    0.0000 C   0  0  0  0  0  0  0  0  0  0  0  0
    3.1045   -2.1376    0.0000 C   0  0  0  0  0  0  0  0  0  0  0  0
    3.8187   -1.7295    0.0000 C   0  0  0  0  0  0  0  0  0  0  0  0
    4.5329   -2.1425    0.0000 C   0  0  0  0  0  0  0  0  0  0  0  0
    5.2470   -1.7344    0.0000 C   0  0  0  0  0  0  0  0  0  0  0  0
    5.9612   -2.1474    0.0000 C   0  0  0  0  0  0  0  0  0  0  0  0
    6.6754   -1.7393    0.0000 C   0  0  0  0  0  0  0  0  0  0  0  0
    7.3896   -2.1522    0.0000 C   0  0  0  0  0  0  0  0  0  0  0  0
    8.1038   -1.7441    0.0000 C   0  0  0  0  0  0  0  0  0  0  0  0
    1.6761   -2.1329    0.0000 C   0  0  0  0  0  0  0  0  0  0  0  0
    8.8180   -2.1571    0.0000 C   0  0  0  0  0  0  0  0  0  0  0  0
    0.9620   -1.7199    0.0000 C   0  0  0  0  0  0  0  0  0  0  0  0
    0.2429   -2.1280    0.0000 C   0  0  0  0  0  0  0  0  0  0  0  0
    9.5321   -1.7490    0.0000 C   0  0  0  0  0  0  0  0  0  0  0  0
   10.9654    1.5499    0.0000 O   0  0  0  0  0  0  0  0  0  0  0  0
    8.1329    1.5401    0.0000 O   0  0  0  0  0  0  0  0  0  0  0  0
   -1.7053   -3.8527    0.0000 O   0  0  0  0  0  0  0  0  0  0  0  0
    9.5272   -4.2268    0.0000 C   0  0  0  0  0  0  0  0  0  0  0  0
   10.2463   -5.4657    0.0000 C   0  0  0  0  0  0  0  0  0  0  0  0
   -4.1880   -2.4244    0.0000 O   0  0  0  0  0  0  0  0  0  0  0  0
    0.9814    1.5838    0.0000 O   0  0  0  0  0  0  0  0  0  0  0  0
    0.9669   -0.8940    0.0000 O   0  0  0  0  0  0  0  0  0  0  0  0
   -1.1709    0.3595    0.0000 O   0  0  0  0  0  0  0  0  0  0  0  0
    8.8131   -5.4657    0.0000 C   0  0  0  0  0  0  0  0  0  0  0  0
    8.0989   -5.8787    0.0000 N   0  0  0  0  0  0  0  0  0  0  0  0
    8.8131   -4.6398    0.0000 C   0  0  0  0  0  0  0  0  0  0  0  0
    9.5321   -5.8787    0.0000 C   0  0  0  0  0  0  0  0  0  0  0  0
   13.1030   -4.6446    0.0000 O   0  0  0  0  0  0  0  0  0  0  0  0
    5.2713    1.5595    0.0000 O   0  0  0  0  0  0  0  0  0  0  0  0
    6.6997    1.5499    0.0000 O   0  0  0  0  0  0  0  0  0  0  0  0
    3.8429    1.5692    0.0000 O   0  0  0  0  0  0  0  0  0  0  0  0
   -3.3572   -0.9911    0.0000 C   0  0  0  0  0  0  0  0  0  0  0  0
    9.5564    0.7093    0.0000 C   0  0  0  0  0  0  0  0  0  0  0  0
   12.3889   -1.7539    0.0000 C   0  0  0  0  0  0  0  0  0  0  0  0
   10.2512    0.3110    0.0000 C   0  0  0  0  0  0  0  0  0  0  0  0
    8.8422    0.3012    0.0000 C   0  0  0  0  0  0  0  0  0  0  0  0
   13.1030   -2.9928    0.0000 C   0  0  0  0  0  0  0  0  0  0  0  0
   10.2414   -2.9879    0.0000 C   0  0  0  0  0  0  0  0  0  0  0  0
  2  1  1  0
  3  2  1  0
  4  8  1  0
  5  1  1  0
  6 12  1  0
  7  4  1  0
  8 19  1  0
  9 11  1  0
 10  9  1  0
 11 31  1  0
 12  5  1  0
 13  4  1  0
 14 23  1  0
 15 14  1  0
 16  7  1  0
 17 10  1  0
  1 18  1  0
 19 25  1  0
 20 16  1  0
 21 11  1  0
 22 21  1  0
 23 27  1  0
 24 15  1  0
 25 18  1  0
 26 20  1  0
 27 22  1  0
 28 76  1  0
 29 10  2  0
 30 38  1  0
 31 55  1  0
 32 13  2  0
 33 39  1  0
 34 37  1  0
 35 30  1  0
 36 15  2  0
 37 26  1  0
 38 33  1  0
 39 34  1  0
  3 40  1  1
 41 20  2  0
 42 51  2  0
 43 42  1  0
 44 43  2  0
 45 44  1  0
 46 45  2  0
 47 46  1  0
 48 47  2  0
 49 48  1  0
 50 49  2  0
 51 53  1  0
 52 50  1  0
 53 54  2  0
 54 25  1  0
 55 52  2  0
 56 28  2  0
 57 35  2  0
  2 58  1  1
 59 24  2  0
 60 24  1  0
  6 61  1  6
 62  7  1  0
 63  8  1  0
 64 13  1  0
 65 68  1  0
 66 65  1  0
 67 59  1  0
 68 60  2  0
 69 23  1  0
 70 39  1  0
 71 38  1  0
 72 37  1  0
 12 73  1  1
 74 77  1  0
 75 21  1  0
 76 74  1  0
 77 35  1  0
 78 27  1  0
 79 31  1  0
  6  3  1  0
 28 17  1  0
 65 67  2  0
M  END
> <chembl_id>
CHEMBL1200647

> <chembl_pref_name>
CANDICIDIN
