
     RDKit          2D

 28 27  0  0  0  0  0  0  0  0999 V2000
    8.6917   -3.2417    0.0000 Na  0  0  0  0  0 15  0  0  0  0  0  0
    6.6167   -3.2167    0.0000 C   0  0  0  0  0  0  0  0  0  0  0  0
    7.2417   -3.5667    0.0000 C   0  0  0  0  0  0  0  0  0  0  0  0
    1.7042   -4.6292    0.0000 C   0  0  0  0  0  0  0  0  0  0  0  0
    4.7792   -3.5667    0.0000 N   0  0  0  0  0  0  0  0  0  0  0  0
    4.1542   -3.2167    0.0000 N   0  0  0  0  0  0  0  0  0  0  0  0
    2.9292   -6.7667    0.0000 C   0  0  0  0  0  0  0  0  0  0  0  0
    6.6167   -2.5042    0.0000 C   0  0  0  0  0  0  0  0  0  0  0  0
    6.0042   -3.5667    0.0000 C   0  0  0  0  0  0  0  0  0  0  0  0
    2.3125   -4.2792    0.0000 C   0  0  0  0  0  0  0  0  0  0  0  0
    7.8417   -3.2167    0.0000 O   0  0  0  0  0  0  0  0  0  0  0  0
    2.3125   -6.4042    0.0000 C   0  0  0  0  0  0  0  0  0  0  0  0
    7.2417   -4.2792    0.0000 O   0  0  0  0  0  0  0  0  0  0  0  0
    3.5417   -6.4042    0.0000 O   0  0  0  0  0  0  0  0  0  0  0  0
    1.0792   -4.2792    0.0000 O   0  0  0  0  0  0  0  0  0  0  0  0
    2.9292   -7.4792    0.0000 O   0  0  0  0  0  0  0  0  0  0  0  0
    5.3917   -3.2167    0.0000 C   0  0  0  0  0  0  0  0  0  0  0  0
    1.7042   -5.3417    0.0000 N   0  0  0  0  0  0  0  0  0  0  0  0
    6.0042   -2.1542    0.0000 C   0  0  0  0  0  0  0  0  0  0  0  0
    2.9292   -4.6292    0.0000 C   0  0  0  0  0  0  0  0  0  0  0  0
    2.3125   -3.5667    0.0000 C   0  0  0  0  0  0  0  0  0  0  0  0
    3.5417   -3.5667    0.0000 C   0  0  0  0  0  0  0  0  0  0  0  0
    2.3125   -5.6917    0.0000 C   0  0  0  0  0  0  0  0  0  0  0  0
    5.3917   -2.5042    0.0000 C   0  0  0  0  0  0  0  0  0  0  0  0
    2.9292   -3.2167    0.0000 C   0  0  0  0  0  0  0  0  0  0  0  0
    3.5417   -4.2792    0.0000 C   0  0  0  0  0  0  0  0  0  0  0  0
    7.2417   -2.1542    0.0000 O   0  0  0  0  0  0  0  0  0  0  0  0
    4.3542   -6.4917    0.0000 Na  0  0  0  0  0 15  0  0  0  0  0  0
  3  2  1  0
  4 10  1  0
  5 17  1  0
  6  5  2  0
  7 12  1  0
  8  2  1  0
  9  2  2  0
 10 20  2  0
 11  3  1  0
 12 23  1  0
 13  3  2  0
 14  7  1  0
 15  4  2  0
 16  7  2  0
 17  9  1  0
 18  4  1  0
 19  8  2  0
 20 26  1  0
 21 25  2  0
 22  6  1  0
 23 18  1  0
 24 17  2  0
 25 22  1  0
 26 22  2  0
 27  8  1  0
 19 24  1  0
 21 10  1  0
M  CHG  4   1   1  11  -1  14  -1  28   1
M  END
> <chembl_id>
CHEMBL1200760

> <chembl_pref_name>
BALSALAZIDE DISODIUM
