
     RDKit          2D

 20 21  0  0  0  0  0  0  0  0999 V2000
    6.8042   -4.4292    0.0000 C   0  0  0  0  0  0  0  0  0  0  0  0
    8.0500   -4.4292    0.0000 N   0  0  0  0  0  0  0  0  0  0  0  0
    6.1917   -4.0917    0.0000 C   0  0  0  0  0  0  0  0  0  0  0  0
    7.4292   -4.0917    0.0000 C   0  0  0  0  0  0  0  0  0  0  0  0
    5.5875   -4.4417    0.0000 C   0  0  0  0  0  0  0  0  0  0  0  0
    6.1917   -3.3750    0.0000 C   0  0  0  0  0  0  0  0  0  0  0  0
    4.9625   -3.3792    0.0000 C   0  0  0  0  0  0  0  0  0  0  0  0
    5.5875   -6.5667    0.0000 N   0  0  0  0  0  0  0  0  0  0  0  0
    6.8167   -5.1417    0.0000 O   0  0  0  0  0  0  0  0  0  0  0  0
    5.5792   -3.0250    0.0000 C   0  0  0  0  0  0  0  0  0  0  0  0
    4.9667   -4.0917    0.0000 C   0  0  0  0  0  0  0  0  0  0  0  0
    4.3625   -3.0250    0.0000 Cl  0  0  0  0  0  0  0  0  0  0  0  0
    6.1917   -5.5042    0.0000 C   0  0  0  0  0  0  0  0  0  0  0  0
    8.6667   -4.0667    0.0000 C   0  0  0  0  0  0  0  0  0  0  0  0
    6.2000   -6.2167    0.0000 C   0  0  0  0  0  0  0  0  0  0  0  0
    7.4292   -3.3792    0.0000 C   0  0  0  0  0  0  0  0  0  0  0  0
    4.9542   -6.2625    0.0000 C   0  0  0  0  0  0  0  0  0  0  0  0
    5.5792   -7.2792    0.0000 C   0  0  0  0  0  0  0  0  0  0  0  0
    8.6667   -3.3750    0.0000 C   0  0  0  0  0  0  0  0  0  0  0  0
    8.0500   -3.0167    0.0000 C   0  0  0  0  0  0  0  0  0  0  0  0
  2  4  2  0
  3  1  1  0
  4  1  1  0
  5  3  1  0
  6  3  2  0
  7 10  2  0
  8 15  1  0
  9  1  1  0
 10  6  1  0
 11  5  2  0
 12  7  1  0
 13  9  1  0
 14  2  1  0
 15 13  1  0
 16  4  1  0
 17  8  1  0
 18  8  1  0
 19 20  1  0
 20 16  2  0
  7 11  1  0
 19 14  2  0
M  END
> <chembl_id>
CHEMBL864

> <chembl_pref_name>
CARBINOXAMINE
