
     RDKit          2D

 32 37  0  0  1  0  0  0  0  0999 V2000
    2.5250   -1.0417    0.0000 C   0  0  0  0  0  0  0  0  0  0  0  0
    1.7417   -0.5917    0.0000 C   0  0  0  0  0  0  0  0  0  0  0  0
    3.2500   -0.5917    0.0000 C   0  0  0  0  0  0  0  0  0  0  0  0
    0.9750   -1.0917    0.0000 C   0  0  0  0  0  0  0  0  0  0  0  0
    2.5542   -1.8292    0.0000 C   0  0  0  0  0  0  0  0  0  0  0  0
    1.5167   -2.0292    0.0000 O   0  0  0  0  0  0  0  0  0  0  0  0
    3.2542    0.2833    0.0000 C   0  0  0  0  0  0  0  0  0  0  0  0
    1.7125    0.2750    0.0000 C   0  0  0  0  0  0  0  0  0  0  0  0
    3.9792   -0.9875    0.0000 C   0  0  0  0  0  0  0  0  0  0  0  0
    2.5250    0.7208    0.0000 C   0  0  0  0  0  0  0  0  0  0  0  0
    4.0042    2.4333    0.0000 N   0  0  0  0  0  0  0  0  0  0  0  0
    1.9917   -0.2000    0.0000 C   0  0  0  0  0  0  0  0  0  0  0  0
    3.9792   -1.8542    0.0000 C   0  0  0  0  0  0  0  0  0  0  0  0
    3.2792   -2.2792    0.0000 C   0  0  0  0  0  0  0  0  0  0  0  0
    0.1750   -0.6667    0.0000 C   0  0  0  0  0  0  0  0  0  0  0  0
   -2.7583   -0.6792    0.0000 N   0  0  0  0  0  0  0  0  0  0  0  0
    1.9917    1.7250    0.0000 C   0  0  0  0  0  0  0  0  0  0  0  0
    0.9000    0.6708    0.0000 C   0  0  0  0  0  0  0  0  0  0  0  0
    0.1750    0.2333    0.0000 C   0  0  0  0  0  0  0  0  0  0  0  0
   -4.2208    0.1333    0.0000 O   0  0  0  0  0  0  0  0  0  0  0  0
   -0.5708   -1.0500    0.0000 O   0  0  0  0  0  0  0  0  0  0  0  0
    3.3042   -3.0875    0.0000 O   0  0  0  0  0  0  0  0  0  0  0  0
    4.3417    3.2708    0.0000 C   0  0  0  0  0  0  0  0  0  0  0  0
   -2.0208   -1.0792    0.0000 C   0  0  0  0  0  0  0  0  0  0  0  0
   -1.3083   -0.6417    0.0000 C   0  0  0  0  0  0  0  0  0  0  0  0
   -2.7750    0.1625    0.0000 C   0  0  0  0  0  0  0  0  0  0  0  0
   -3.4708   -1.1167    0.0000 C   0  0  0  0  0  0  0  0  0  0  0  0
   -3.5000    0.5625    0.0000 C   0  0  0  0  0  0  0  0  0  0  0  0
   -4.2083   -0.7042    0.0000 C   0  0  0  0  0  0  0  0  0  0  0  0
    3.8917   -0.1167    0.0000 H   0  0  0  0  0  0  0  0  0  0  0  0
    2.5417   -2.5667    0.0000 H   0  0  0  0  0  0  0  0  0  0  0  0
    3.9500    0.8333    0.0000 H   0  0  0  0  0  0  0  0  0  0  0  0
  2  1  1  0
  3  1  1  0
  4  2  1  0
  5  1  1  0
  6  5  1  0
  7  3  1  0
  8  2  2  0
  9  3  1  0
 10  7  1  0
 11 17  1  0
  1 12  1  1
 13 14  1  0
 14  5  1  0
 15  4  2  0
 16 24  1  0
 17 12  1  0
 18  8  1  0
 19 18  2  0
 20 29  1  0
 21 15  1  0
 14 22  1  6
 23 11  1  0
 24 25  1  0
 25 21  1  0
 26 16  1  0
 27 16  1  0
 28 26  1  0
 29 27  1  0
  3 30  1  1
  5 31  1  1
  7 32  1  6
  4  6  1  0
  7 11  1  0
  9 13  2  0
  8 10  1  0
 15 19  1  0
 28 20  1  0
M  END
> <chembl_id>
CHEMBL2105224

> <chembl_pref_name>
PHOLCODINE
