
     RDKit          2D

 20 21  0  0  1  0  0  0  0  0999 V2000
    1.6667   -5.8750    0.0000 N   0  0  0  0  0  0  0  0  0  0  0  0
    2.2792   -4.8125    0.0000 C   0  0  0  0  0  0  0  0  0  0  0  0
    1.0583   -5.5167    0.0000 C   0  0  0  0  0  0  0  0  0  0  0  0
    1.0583   -4.8125    0.0000 N   0  0  0  0  0  0  0  0  0  0  0  0
    1.6750   -6.7000    0.0000 C   0  0  0  0  0  0  0  0  0  0  0  0
    1.6667   -4.4542    0.0000 C   0  0  0  0  0  0  0  0  0  0  0  0
    2.2792   -5.5167    0.0000 C   0  0  0  0  0  0  0  0  0  0  0  0
    2.8958   -4.4583    0.0000 C   0  0  0  0  0  0  0  0  0  0  0  0
    1.1000   -6.2792    0.0000 O   0  0  0  0  0  0  0  0  0  0  0  0
    1.4542   -7.3750    0.0000 C   0  0  0  0  0  0  0  0  0  0  0  0
    0.5292   -6.7000    0.0000 C   0  0  0  0  0  0  0  0  0  0  0  0
    0.7500   -7.3750    0.0000 C   0  0  0  0  0  0  0  0  0  0  0  0
    0.4417   -5.8708    0.0000 O   0  0  0  0  0  0  0  0  0  0  0  0
    1.6667   -3.7500    0.0000 O   0  0  0  0  0  0  0  0  0  0  0  0
    3.2458   -3.8417    0.0000 F   0  0  0  0  0  0  0  0  0  0  0  0
    2.5375   -3.8417    0.0000 F   0  0  0  0  0  0  0  0  0  0  0  0
    3.5083   -4.8125    0.0000 F   0  0  0  0  0  0  0  0  0  0  0  0
    0.3333   -7.9458    0.0000 O   0  0  0  0  0  0  0  0  0  0  0  0
   -0.0875   -6.3417    0.0000 C   0  0  0  0  0  0  0  0  0  0  0  0
   -0.7042   -6.6958    0.0000 O   0  0  0  0  0  0  0  0  0  0  0  0
  2  7  2  0
  3  1  1  0
  4  3  1  0
  5  1  1  1
  6  4  1  0
  7  1  1  0
  8  2  1  0
  9  5  1  0
 10  5  1  0
 11  9  1  0
 12 10  1  0
 13  3  2  0
 14  6  2  0
 15  8  1  0
 16  8  1  0
 17  8  1  0
 12 18  1  6
 11 19  1  1
 20 19  1  0
 12 11  1  0
  6  2  1  0
M  END
> <chembl_id>
CHEMBL1129

> <chembl_pref_name>
TRIFLURIDINE
