
     RDKit          2D

 22 23  0  0  0  0  0  0  0  0999 V2000
   -0.1335    0.4709    0.0000 C   0  0  0  0  0  0  0  0  0  0  0  0
    0.5658    0.3677    0.0000 S   0  0  0  0  0  0  0  0  0  0  0  0
    0.6921   -0.3301    0.0000 C   0  0  0  0  0  0  0  0  0  0  0  0
    0.0527   -0.6574    0.0000 N   0  0  0  0  0  0  0  0  0  0  0  0
   -0.4536   -0.1624    0.0000 C   0  0  0  0  0  0  0  0  0  0  0  0
   -0.4686    1.1015    0.0000 C   0  0  0  0  0  0  0  0  0  0  0  0
    2.5523   -0.5749    0.0000 C   0  0  0  0  0  0  0  0  0  0  0  0
    1.3249   -0.6419    0.0000 C   0  0  0  0  0  0  0  0  0  0  0  0
    3.7417    0.2125    0.0000 N   0  0  0  0  0  0  0  0  0  0  0  0
    3.1500   -0.1792    0.0000 C   0  0  0  0  0  0  0  0  0  0  0  0
    1.9190   -0.2548    0.0000 C   0  0  0  0  0  0  0  0  0  0  0  0
    2.5955   -1.2777    0.0000 C   0  0  0  0  0  0  0  0  0  0  0  0
    3.2365   -1.5890    0.0000 O   0  0  0  0  0  0  0  0  0  0  0  0
   -0.0838    1.7012    0.0000 O   0  0  0  0  0  0  0  0  0  0  0  0
    1.3733   -1.3611    0.0000 C   0  0  0  0  0  0  0  0  0  0  0  0
    2.0063   -1.6771    0.0000 C   0  0  0  0  0  0  0  0  0  0  0  0
   -1.1760    1.1332    0.0000 O   0  0  0  0  0  0  0  0  0  0  0  0
    3.8174   -1.1902    0.0000 C   0  0  0  0  0  0  0  0  0  0  0  0
   -1.1519   -0.2804    0.0000 C   0  0  0  0  0  0  0  0  0  0  0  0
    4.4627   -1.5013    0.0000 C   0  0  0  0  0  0  0  0  0  0  0  0
    4.4769   -2.2100    0.0000 C   0  0  0  0  0  0  0  0  0  0  0  0
    5.0518   -1.1019    0.0000 C   0  0  0  0  0  0  0  0  0  0  0  0
  2  1  1  0
  3  2  1  0
  4  5  1  0
  5  1  2  0
  6  1  1  0
  7 11  2  0
  8  3  1  0
  9 10  3  0
 10  7  1  0
 11  8  1  0
 12 16  2  0
 13 12  1  0
 14  6  2  0
 15  8  2  0
 16 15  1  0
 17  6  1  0
 18 13  1  0
 19  5  1  0
 20 18  1  0
 21 20  1  0
 22 20  1  0
  3  4  2  0
  7 12  1  0
M  END
> <chembl_id>
CHEMBL1164729

> <chembl_pref_name>
FEBUXOSTAT
