
     RDKit          2D

 40 42  0  0  0  0  0  0  0  0999 V2000
    9.8706   -4.6259    0.0000 C   0  0  0  0  0  0  0  0  0  0  0  0
    9.4580   -3.9114    0.0000 O   0  0  0  0  0  0  0  0  0  0  0  0
    8.6330   -3.9114    0.0000 C   0  0  0  0  0  0  0  0  0  0  0  0
    8.2205   -4.6259    0.0000 C   0  0  0  0  0  0  0  0  0  0  0  0
    8.6330   -5.3404    0.0000 C   0  0  0  0  0  0  0  0  0  0  0  0
    9.4580   -5.3404    0.0000 C   0  0  0  0  0  0  0  0  0  0  0  0
    8.2205   -3.1970    0.0000 C   0  0  0  0  0  0  0  0  0  0  0  0
    7.3955   -3.1969    0.0000 O   0  0  0  0  0  0  0  0  0  0  0  0
    8.6330   -2.4825    0.0000 O   0  0  0  0  0  0  0  0  0  0  0  0
   10.6956   -4.6259    0.0000 O   0  0  0  0  0  0  0  0  0  0  0  0
    9.8705   -6.0548    0.0000 O   0  0  0  0  0  0  0  0  0  0  0  0
    8.2205   -6.0548    0.0000 O   0  0  0  0  0  0  0  0  0  0  0  0
    7.3955   -4.6259    0.0000 O   0  0  0  0  0  0  0  0  0  0  0  0
    6.5409   -2.6885    0.0000 N   0  0  0  0  0  0  0  0  0  0  0  0
    5.8291   -3.0925    0.0000 C   0  0  0  0  0  0  0  0  0  0  0  0
    5.1269   -2.6885    0.0000 C   0  0  0  0  0  0  0  0  0  0  0  0
    6.5409   -1.8517    0.0000 C   0  0  0  0  0  0  0  0  0  0  0  0
    5.1269   -1.8517    0.0000 C   0  0  0  0  0  0  0  0  0  0  0  0
    5.8291   -1.4428    0.0000 N   0  0  0  0  0  0  0  0  0  0  0  0
    0.0770   -3.8957    0.0000 C   0  0  0  0  0  0  0  0  0  0  0  0
    4.3911   -3.1069    0.0000 C   0  0  0  0  0  0  0  0  0  0  0  0
    0.0770   -3.0637    0.0000 C   0  0  0  0  0  0  0  0  0  0  0  0
    0.7791   -4.3045    0.0000 C   0  0  0  0  0  0  0  0  0  0  0  0
    0.7791   -2.6548    0.0000 C   0  0  0  0  0  0  0  0  0  0  0  0
    1.5054   -3.8957    0.0000 C   0  0  0  0  0  0  0  0  0  0  0  0
    1.5054   -3.0637    0.0000 C   0  0  0  0  0  0  0  0  0  0  0  0
    3.6841   -2.6885    0.0000 C   0  0  0  0  0  0  0  0  0  0  0  0
    2.2268   -2.6597    0.0000 N   0  0  0  0  0  0  0  0  0  0  0  0
    4.4007   -1.4428    0.0000 C   0  0  0  0  0  0  0  0  0  0  0  0
    5.8291   -3.9245    0.0000 N   0  0  0  0  0  0  0  0  0  0  0  0
    2.9338   -3.0781    0.0000 C   0  0  0  0  0  0  0  0  0  0  0  0
    3.6841   -1.8517    0.0000 C   0  0  0  0  0  0  0  0  0  0  0  0
    7.2479   -1.4284    0.0000 N   0  0  0  0  0  0  0  0  0  0  0  0
   -0.6300   -4.2901    0.0000 O   0  0  0  0  0  0  0  0  0  0  0  0
   -0.6300   -2.6741    0.0000 O   0  0  0  0  0  0  0  0  0  0  0  0
    0.7791   -5.1125    0.0000 O   0  0  0  0  0  0  0  0  0  0  0  0
    4.3911   -3.8957    0.0000 C   0  0  0  0  0  0  0  0  0  0  0  0
   -1.3226   -3.8957    0.0000 C   0  0  0  0  0  0  0  0  0  0  0  0
    0.0770   -5.4972    0.0000 C   0  0  0  0  0  0  0  0  0  0  0  0
   -0.6589   -1.8708    0.0000 C   0  0  0  0  0  0  0  0  0  0  0  0
  1  2  1  0
  2  3  1  0
  3  4  1  0
  4  5  1  0
  5  6  1  0
  6  1  1  0
  3  7  1  1
  7  8  2  0
  7  9  1  0
  1 10  1  6
  6 11  1  6
  5 12  1  1
  4 13  1  6
 15 14  2  0
 16 15  1  0
 17 14  1  0
 18 19  1  0
 19 17  2  0
 20 23  2  0
 21 16  1  0
 22 24  2  0
 23 25  1  0
 24 26  1  0
 25 26  2  0
 26 28  1  0
 27 21  2  0
 28 31  1  0
 29 18  1  0
 30 15  1  0
 31 27  1  0
 32 29  2  0
 33 17  1  0
 34 20  1  0
 35 22  1  0
 36 23  1  0
 37 21  1  0
 38 34  1  0
 39 36  1  0
 40 35  1  0
 16 18  2  0
 27 32  1  0
 22 20  1  0
M  END
> <chembl_id>
CHEMBL2218878

> <chembl_pref_name>
TRIMETREXATE GLUCURONATE
