
     RDKit          2D

 21 21  0  0  0  0  0  0  0  0999 V2000
    1.5875   -7.5500    0.0000 C   0  0  0  0  0  0  0  0  0  0  0  0
    2.8125   -7.5500    0.0000 C   0  0  0  0  0  0  0  0  0  0  0  0
    4.0417   -7.5458    0.0000 C   0  0  0  0  0  0  0  0  0  0  0  0
    0.3583   -7.5500    0.0000 C   0  0  0  0  0  0  0  0  0  0  0  0
    2.2000   -7.9042    0.0000 C   0  0  0  0  0  0  0  0  0  0  0  0
    0.9750   -7.9042    0.0000 N   0  0  0  0  0  0  0  0  0  0  0  0
    3.4292   -7.9042    0.0000 N   0  0  0  0  0  0  0  0  0  0  0  0
    4.6542   -7.9000    0.0000 C   0  0  0  0  0  0  0  0  0  0  0  0
   -0.2542   -7.9042    0.0000 C   0  0  0  0  0  0  0  0  0  0  0  0
    2.1917   -5.0667    0.0000 N   0  0  0  0  0  0  0  0  0  0  0  0
    2.2000   -5.7750    0.0000 C   0  0  0  0  0  0  0  0  0  0  0  0
    2.8125   -6.8375    0.0000 C   0  0  0  0  0  0  0  0  0  0  0  0
    1.5875   -6.8375    0.0000 C   0  0  0  0  0  0  0  0  0  0  0  0
    2.2000   -6.4833    0.0000 C   0  0  0  0  0  0  0  0  0  0  0  0
    0.3625   -6.8417    0.0000 O   0  0  0  0  0  0  0  0  0  0  0  0
    4.0375   -6.8375    0.0000 O   0  0  0  0  0  0  0  0  0  0  0  0
   -0.2542   -8.6125    0.0000 O   0  0  0  0  0  0  0  0  0  0  0  0
    4.6583   -8.6083    0.0000 O   0  0  0  0  0  0  0  0  0  0  0  0
    2.2042   -8.6125    0.0000 Cl  0  0  0  0  0  0  0  0  0  0  0  0
   -0.8667   -7.5500    0.0000 O   0  0  0  0  0  0  0  0  0  0  0  0
    5.2667   -7.5417    0.0000 O   0  0  0  0  0  0  0  0  0  0  0  0
  2  5  2  0
  3  7  1  0
  4  6  1  0
  5  1  1  0
  6  1  1  0
  7  2  1  0
  8  3  1  0
  9  4  1  0
 10 11  3  0
 11 14  1  0
 12  2  1  0
 13  1  2  0
 14 13  1  0
 15  4  2  0
 16  3  2  0
 17  9  2  0
 18  8  2  0
 19  5  1  0
 20  9  1  0
 21  8  1  0
 14 12  2  0
M  END
> <chembl_id>
CHEMBL1201266

> <chembl_pref_name>
LODOXAMIDE
