
     RDKit          2D

133145  0  0  0  0  0  0  0  0999 V2000
    4.1136   -9.2676    0.0000 C   0  0  0  0  0  0  0  0  0  0  0  0
    3.6210   -9.9433    0.0000 C   0  0  0  0  0  0  0  0  0  0  0  0
    3.9925  -10.6912    0.0000 C   0  0  0  0  0  0  0  0  0  0  0  0
    4.8301  -10.7605    0.0000 C   0  0  0  0  0  0  0  0  0  0  0  0
    5.2938  -10.0596    0.0000 C   0  0  0  0  0  0  0  0  0  0  0  0
    4.9489   -9.3019    0.0000 C   0  0  0  0  0  0  0  0  0  0  0  0
    2.8386   -9.6235    0.0000 O   0  0  0  0  0  0  0  0  0  0  0  0
    3.5293  -11.3739    0.0000 O   0  0  0  0  0  0  0  0  0  0  0  0
    5.3530  -11.4225    0.0000 O   0  0  0  0  0  0  0  0  0  0  0  0
    5.5192   -8.6674    0.0000 C   0  0  0  0  0  0  0  0  0  0  0  0
    6.3536   -8.5494    0.0000 C   0  0  0  0  0  0  0  0  0  0  0  0
    5.2144   -7.8811    0.0000 N   0  0  0  0  0  0  0  0  0  0  0  0
    5.1338   -7.0492    0.0000 C   0  0  0  0  0  0  0  0  0  0  0  0
    5.0629   -6.2105    0.0000 C   0  0  0  0  0  0  0  0  0  0  0  0
    4.3122   -7.1238    0.0000 O   0  0  0  0  0  0  0  0  0  0  0  0
    4.2427   -6.0102    0.0000 N   0  0  0  0  0  0  0  0  0  0  0  0
    5.8312   -5.8336    0.0000 C   0  0  0  0  0  0  0  0  0  0  0  0
    6.5516   -6.2630    0.0000 C   0  0  0  0  0  0  0  0  0  0  0  0
    7.2883   -5.8818    0.0000 C   0  0  0  0  0  0  0  0  0  0  0  0
    7.3239   -5.0535    0.0000 C   0  0  0  0  0  0  0  0  0  0  0  0
    6.6268   -4.5946    0.0000 C   0  0  0  0  0  0  0  0  0  0  0  0
    5.8919   -4.9992    0.0000 C   0  0  0  0  0  0  0  0  0  0  0  0
    3.4108   -6.1328    0.0000 C   0  0  0  0  0  0  0  0  0  0  0  0
    2.6007   -5.8700    0.0000 C   0  0  0  0  0  0  0  0  0  0  0  0
    3.3419   -6.9549    0.0000 O   0  0  0  0  0  0  0  0  0  0  0  0
    2.7201   -5.0211    0.0000 N   0  0  0  0  0  0  0  0  0  0  0  0
    2.0078   -6.4982    0.0000 C   0  0  0  0  0  0  0  0  0  0  0  0
    1.8526   -7.3496    0.0000 C   0  0  0  0  0  0  0  0  0  0  0  0
    2.6415   -7.6250    0.0000 C   0  0  0  0  0  0  0  0  0  0  0  0
    2.8315   -8.4270    0.0000 C   0  0  0  0  0  0  0  0  0  0  0  0
    2.2400   -9.0173    0.0000 C   0  0  0  0  0  0  0  0  0  0  0  0
    1.4361   -8.7669    0.0000 C   0  0  0  0  0  0  0  0  0  0  0  0
    1.2557   -7.9481    0.0000 C   0  0  0  0  0  0  0  0  0  0  0  0
    2.7065  -11.3140    0.0000 C   0  0  0  0  0  0  0  0  0  0  0  0
    2.2433  -11.9967    0.0000 C   0  0  0  0  0  0  0  0  0  0  0  0
    1.4204  -11.9369    0.0000 C   0  0  0  0  0  0  0  0  0  0  0  0
    1.0608  -11.1944    0.0000 C   0  0  0  0  0  0  0  0  0  0  0  0
    1.5240  -10.5117    0.0000 C   0  0  0  0  0  0  0  0  0  0  0  0
    2.3469  -10.5715    0.0000 O   0  0  0  0  0  0  0  0  0  0  0  0
    2.6029  -12.7392    0.0000 N   0  0  0  0  0  0  0  0  0  0  0  0
    0.9572  -12.6196    0.0000 O   0  0  0  0  0  0  0  0  0  0  0  0
    0.2380  -11.1346    0.0000 O   0  0  0  0  0  0  0  0  0  0  0  0
    1.1644   -9.7692    0.0000 C   0  0  0  0  0  0  0  0  0  0  0  0
    1.6277   -9.0865    0.0000 O   0  0  0  0  0  0  0  0  0  0  0  0
    0.3416   -9.7094    0.0000 O   0  0  0  0  0  0  0  0  0  0  0  0
    2.1396  -13.4219    0.0000 C   0  0  0  0  0  0  0  0  0  0  0  0
    2.4992  -14.1644    0.0000 C   0  0  0  0  0  0  0  0  0  0  0  0
    1.3168  -13.3621    0.0000 O   0  0  0  0  0  0  0  0  0  0  0  0
    2.0360  -14.8471    0.0000 C   0  0  0  0  0  0  0  0  0  0  0  0
    2.3956  -15.5896    0.0000 C   0  0  0  0  0  0  0  0  0  0  0  0
    1.9324  -16.2723    0.0000 C   0  0  0  0  0  0  0  0  0  0  0  0
    2.2920  -17.0148    0.0000 C   0  0  0  0  0  0  0  0  0  0  0  0
    1.8288  -17.6974    0.0000 C   0  0  0  0  0  0  0  0  0  0  0  0
    1.0060  -17.6376    0.0000 C   0  0  0  0  0  0  0  0  0  0  0  0
    0.6464  -16.8951    0.0000 C   0  0  0  0  0  0  0  0  0  0  0  0
   -0.1765  -16.8353    0.0000 C   0  0  0  0  0  0  0  0  0  0  0  0
   -0.5361  -16.0928    0.0000 C   0  0  0  0  0  0  0  0  0  0  0  0
   -0.6397  -17.5180    0.0000 C   0  0  0  0  0  0  0  0  0  0  0  0
    3.2123   -4.3361    0.0000 C   0  0  0  0  0  0  0  0  0  0  0  0
    3.6898   -3.6468    0.0000 C   0  0  0  0  0  0  0  0  0  0  0  0
    3.1065   -3.0634    0.0000 N   0  0  0  0  0  0  0  0  0  0  0  0
    2.3096   -3.2768    0.0000 C   0  0  0  0  0  0  0  0  0  0  0  0
    4.3857   -3.1649    0.0000 C   0  0  0  0  0  0  0  0  0  0  0  0
    5.0964   -3.6081    0.0000 C   0  0  0  0  0  0  0  0  0  0  0  0
    5.8536   -3.2447    0.0000 C   0  0  0  0  0  0  0  0  0  0  0  0
    5.8870   -2.4087    0.0000 C   0  0  0  0  0  0  0  0  0  0  0  0
    5.1925   -1.9504    0.0000 C   0  0  0  0  0  0  0  0  0  0  0  0
    4.4493   -2.3271    0.0000 C   0  0  0  0  0  0  0  0  0  0  0  0
    6.5269   -7.0877    0.0000 Cl  0  0  0  0  0  0  0  0  0  0  0  0
    7.9837   -6.3257    0.0000 O   0  0  0  0  0  0  0  0  0  0  0  0
    6.1273  -11.7552    0.0000 C   0  0  0  0  0  0  0  0  0  0  0  0
    6.5406  -12.4804    0.0000 C   0  0  0  0  0  0  0  0  0  0  0  0
    7.3748  -12.5016    0.0000 C   0  0  0  0  0  0  0  0  0  0  0  0
    7.8186  -11.7858    0.0000 C   0  0  0  0  0  0  0  0  0  0  0  0
    7.3928  -11.0647    0.0000 C   0  0  0  0  0  0  0  0  0  0  0  0
    6.5697  -11.0489    0.0000 C   0  0  0  0  0  0  0  0  0  0  0  0
    6.1171  -13.1884    0.0000 Cl  0  0  0  0  0  0  0  0  0  0  0  0
    8.5708  -11.3860    0.0000 C   0  0  0  0  0  0  0  0  0  0  0  0
    8.8866  -10.5958    0.0000 C   0  0  0  0  0  0  0  0  0  0  0  0
    9.1849  -11.9370    0.0000 O   0  0  0  0  0  0  0  0  0  0  0  0
    9.7189  -10.7485    0.0000 C   0  0  0  0  0  0  0  0  0  0  0  0
    8.4742   -9.8488    0.0000 N   0  0  0  0  0  0  0  0  0  0  0  0
    7.0913   -8.1573    0.0000 N   0  0  0  0  0  0  0  0  0  0  0  0
    6.6088   -9.3339    0.0000 O   0  0  0  0  0  0  0  0  0  0  0  0
    7.9206   -8.3161    0.0000 C   0  0  0  0  0  0  0  0  0  0  0  0
    7.9783   -9.1650    0.0000 C   0  0  0  0  0  0  0  0  0  0  0  0
    7.2027   -9.4461    0.0000 O   0  0  0  0  0  0  0  0  0  0  0  0
   10.4422  -10.3297    0.0000 N   0  0  0  0  0  0  0  0  0  0  0  0
    9.8599  -11.5614    0.0000 O   0  0  0  0  0  0  0  0  0  0  0  0
   10.5690   -9.5074    0.0000 C   0  0  0  0  0  0  0  0  0  0  0  0
    8.5759   -7.7571    0.0000 C   0  0  0  0  0  0  0  0  0  0  0  0
    9.3549   -8.0644    0.0000 C   0  0  0  0  0  0  0  0  0  0  0  0
   10.0384   -7.5790    0.0000 C   0  0  0  0  0  0  0  0  0  0  0  0
    9.9336   -6.7483    0.0000 C   0  0  0  0  0  0  0  0  0  0  0  0
    9.1739   -6.4163    0.0000 C   0  0  0  0  0  0  0  0  0  0  0  0
    8.5120   -6.9203    0.0000 C   0  0  0  0  0  0  0  0  0  0  0  0
   10.7653   -8.0058    0.0000 C   0  0  0  0  0  0  0  0  0  0  0  0
   11.0088   -8.7940    0.0000 C   0  0  0  0  0  0  0  0  0  0  0  0
   11.8132   -8.9772    0.0000 C   0  0  0  0  0  0  0  0  0  0  0  0
   12.3741   -8.3722    0.0000 C   0  0  0  0  0  0  0  0  0  0  0  0
   12.1305   -7.5840    0.0000 C   0  0  0  0  0  0  0  0  0  0  0  0
   11.3261   -7.4008    0.0000 C   0  0  0  0  0  0  0  0  0  0  0  0
   11.3432   -9.7924    0.0000 C   0  0  0  0  0  0  0  0  0  0  0  0
   11.9771   -9.2644    0.0000 O   0  0  0  0  0  0  0  0  0  0  0  0
   11.4834  -10.6054    0.0000 N   0  0  0  0  0  0  0  0  0  0  0  0
   12.2576  -10.8904    0.0000 C   0  0  0  0  0  0  0  0  0  0  0  0
   12.3979  -11.7034    0.0000 C   0  0  0  0  0  0  0  0  0  0  0  0
   13.1721  -11.9884    0.0000 C   0  0  0  0  0  0  0  0  0  0  0  0
   13.3124  -12.8014    0.0000 N   0  0  0  0  0  0  0  0  0  0  0  0
   14.0866  -13.0864    0.0000 C   0  0  0  0  0  0  0  0  0  0  0  0
   12.6784  -13.3294    0.0000 C   0  0  0  0  0  0  0  0  0  0  0  0
   13.1785   -8.5554    0.0000 O   0  0  0  0  0  0  0  0  0  0  0  0
   11.0826   -6.6125    0.0000 O   0  0  0  0  0  0  0  0  0  0  0  0
   11.6434   -6.0075    0.0000 C   0  0  0  0  0  0  0  0  0  0  0  0
   12.4478   -6.1907    0.0000 O   0  0  0  0  0  0  0  0  0  0  0  0
   13.0087   -5.5857    0.0000 C   0  0  0  0  0  0  0  0  0  0  0  0
   12.7651   -4.7974    0.0000 C   0  0  0  0  0  0  0  0  0  0  0  0
   11.9607   -4.6142    0.0000 C   0  0  0  0  0  0  0  0  0  0  0  0
   11.3999   -5.2193    0.0000 C   0  0  0  0  0  0  0  0  0  0  0  0
   10.5943   -6.2542    0.0000 O   0  0  0  0  0  0  0  0  0  0  0  0
   10.5955   -5.0361    0.0000 O   0  0  0  0  0  0  0  0  0  0  0  0
   11.7172   -3.8260    0.0000 O   0  0  0  0  0  0  0  0  0  0  0  0
   13.3260   -4.1924    0.0000 O   0  0  0  0  0  0  0  0  0  0  0  0
   13.8131   -5.7689    0.0000 C   0  0  0  0  0  0  0  0  0  0  0  0
   14.3739   -5.1638    0.0000 O   0  0  0  0  0  0  0  0  0  0  0  0
    3.8863   -4.8117    0.0000 O   0  0  0  0  0  0  0  0  0  0  0  0
    7.7097   -7.5186    0.0000 H   0  0  0  0  0  0  0  0  0  0  0  0
    9.2855  -11.3180    0.0000 H   0  0  0  0  0  0  0  0  0  0  0  0
    1.8571   -5.5126    0.0000 H   0  0  0  0  0  0  0  0  0  0  0  0
    5.7808   -6.6170    0.0000 H   0  0  0  0  0  0  0  0  0  0  0  0
    5.9365   -7.9557    0.0000 H   0  0  0  0  0  0  0  0  0  0  0  0
    6.5269   -3.7564    0.0000 O   0  0  0  0  0  0  0  0  0  0  0  0
    6.6211   -2.0323    0.0000 O   0  0  0  0  0  0  0  0  0  0  0  0
  1  2  1  0
  1  6  2  0
  2  3  2  0
  3  4  1  0
  4  5  2  0
  5  6  1  0
  2  7  1  0
  3  8  1  0
  4  9  1  0
  6 10  1  0
 10 11  1  0
 10 12  1  0
 12 13  1  0
 13 14  1  0
 13 15  2  0
 14 16  1  0
 14 17  1  0
 17 18  1  0
 17 22  2  0
 18 19  2  0
 19 20  1  0
 20 21  2  0
 21 22  1  0
 16 23  1  0
 23 24  1  0
 23 25  2  0
 24 26  1  0
 24 27  1  0
 27 28  1  0
 28 29  1  0
 28 33  2  0
 29 30  2  0
 30 31  1  0
 31 32  2  0
 32 33  1  0
 31  7  1  0
 34  8  1  1
 34 35  1  0
 39 34  1  0
 35 36  1  0
 36 37  1  0
 37 38  1  0
 38 39  1  0
 35 40  1  6
 36 41  1  1
 37 42  1  6
 38 43  1  1
 43 44  2  0
 43 45  1  0
 40 46  1  0
 46 47  1  0
 46 48  2  0
 47 49  1  0
 49 50  1  0
 50 51  1  0
 51 52  1  0
 52 53  1  0
 53 54  1  0
 54 55  1  0
 55 56  1  0
 56 57  1  0
 56 58  1  0
 26 59  1  0
 59 60  1  0
 60 61  1  6
 61 62  1  0
 60 63  1  0
 63 64  1  0
 63 68  2  0
 64 65  2  0
 65 66  1  0
 66 67  2  0
 67 68  1  0
 18 69  1  0
 19 70  1  0
  9 71  1  0
 71 72  1  0
 71 76  2  0
 72 73  2  0
 73 74  1  0
 74 75  2  0
 75 76  1  0
 72 77  1  0
 74 78  1  0
 78 79  1  0
 78 80  1  6
 79 81  1  0
 79 82  1  0
 11 83  1  0
 11 84  2  0
 85 83  1  0
 85 86  1  0
 86 82  1  0
 86 87  2  0
 81 88  1  0
 81 89  2  0
 88 90  1  0
 85 91  1  0
 91 92  1  0
 91 96  2  0
 92 93  2  0
 93 94  1  0
 94 95  2  0
 95 96  1  0
 93 97  1  0
 97 98  1  0
 97102  2  0
 98 99  2  0
 99100  1  0
100101  2  0
101102  1  0
 90 98  1  0
 90103  1  6
103104  2  0
103105  1  0
105106  1  0
106107  1  0
107108  1  0
108109  1  0
109110  1  0
109111  1  0
100112  1  0
102113  1  0
114113  1  6
114115  1  0
119114  1  0
115116  1  0
116117  1  0
117118  1  0
118119  1  0
 94120  1  0
119121  1  1
118122  1  1
117123  1  6
116124  1  1
124125  1  0
 59126  2  0
 85127  1  1
 79128  1  1
 24129  1  6
 14130  1  6
 10131  1  6
 21132  1  0
 66133  1  0
 65132  1  0
M  END
> <chembl_id>
CHEMBL3301669

> <chembl_pref_name>
DALBAVANCIN
