
     RDKit          2D

 27 26  0  0  0  0  0  0  0  0999 V2000
    3.3042   -1.1917    0.0000 P   0  0  0  0  0  0  0  0  0  0  0  0
    3.6542   -0.5667    0.0000 O   0  0  0  0  0  0  0  0  0  0  0  0
    3.9167   -1.5417    0.0000 O   0  0  0  0  0  0  0  0  0  0  0  0
    2.6917   -1.5417    0.0000 O   0  0  0  0  0  0  0  0  0  0  0  0
    2.9417   -0.5667    0.0000 O   0  0  0  0  0  0  0  0  0  0  0  0
   -0.1083    0.7208    0.0000 C   0  0  0  0  0  0  0  0  0  0  0  0
   -1.3500   -0.0125    0.0000 C   0  0  0  0  0  0  0  0  0  0  0  0
   -1.3500    0.7083    0.0000 C   0  0  0  0  0  0  0  0  0  0  0  0
   -0.7333    1.0750    0.0000 C   0  0  0  0  0  0  0  0  0  0  0  0
    0.5042    1.0750    0.0000 C   0  0  0  0  0  0  0  0  0  0  0  0
   -0.7333   -0.3750    0.0000 C   0  0  0  0  0  0  0  0  0  0  0  0
   -1.9708   -0.3750    0.0000 N   0  0  0  0  0  0  0  0  0  0  0  0
   -0.1083   -0.0125    0.0000 C   0  0  0  0  0  0  0  0  0  0  0  0
   -1.9750   -1.0792    0.0000 C   0  0  0  0  0  0  0  0  0  0  0  0
   -1.9583    1.0500    0.0000 O   0  0  0  0  0  0  0  0  0  0  0  0
    0.5167    1.7958    0.0000 O   0  0  0  0  0  0  0  0  0  0  0  0
   -1.3583   -1.4292    0.0000 O   0  0  0  0  0  0  0  0  0  0  0  0
   -0.7333   -1.0875    0.0000 N   0  0  0  0  0  0  0  0  0  0  0  0
    1.1417    0.7208    0.0000 O   0  0  0  0  0  0  0  0  0  0  0  0
   -2.5708    0.7083    0.0000 C   0  0  0  0  0  0  0  0  0  0  0  0
   -2.5750   -1.4167    0.0000 C   0  0  0  0  0  0  0  0  0  0  0  0
    1.7542    1.0750    0.0000 C   0  0  0  0  0  0  0  0  0  0  0  0
   -2.5625   -0.0125    0.0000 C   0  0  0  0  0  0  0  0  0  0  0  0
   -3.1958    1.0375    0.0000 C   0  0  0  0  0  0  0  0  0  0  0  0
    2.3833    0.7208    0.0000 C   0  0  0  0  0  0  0  0  0  0  0  0
   -3.8000    0.6833    0.0000 C   0  0  0  0  0  0  0  0  0  0  0  0
   -3.1500   -0.3417    0.0000 C   0  0  0  0  0  0  0  0  0  0  0  0
  2  1  2  0
  3  1  1  0
  4  1  1  0
  5  1  1  0
  7 11  1  0
  8  9  1  0
  9  6  2  0
 10  6  1  0
 11 13  1  0
  7 12  1  1
 13  6  1  0
 14 12  1  0
  8 15  1  6
 16 10  2  0
 17 14  2  0
 11 18  1  6
 19 10  1  0
 20 15  1  0
 21 14  1  0
 22 19  1  0
 23 20  1  0
 24 20  1  0
 25 22  1  0
 26 24  1  0
 27 23  1  0
  7  8  1  0
M  END
> <chembl_id>
CHEMBL1200340

> <chembl_pref_name>
OSELTAMIVIR PHOSPHATE
