
     RDKit          2D

 30 31  0  0  0  0  0  0  0  0999 V2000
   -2.8083    0.5708    0.0000 C   0  0  0  0  0  0  0  0  0  0  0  0
   -2.0958    0.9833    0.0000 C   0  0  0  0  0  0  0  0  0  0  0  0
   -1.3750    0.5708    0.0000 C   0  0  0  0  0  0  0  0  0  0  0  0
   -2.8083   -0.2542    0.0000 C   0  0  0  0  0  0  0  0  0  0  0  0
   -1.3750   -0.2542    0.0000 C   0  0  0  0  0  0  0  0  0  0  0  0
   -2.0958   -0.6667    0.0000 C   0  0  0  0  0  0  0  0  0  0  0  0
   -0.6583    0.9833    0.0000 C   0  0  0  0  0  0  0  0  0  0  0  0
    0.7750    0.9708    0.0000 N   0  0  0  0  0  0  0  0  0  0  0  0
   -3.5250   -0.6792    0.0000 O   0  0  0  0  0  0  0  0  0  0  0  0
   -3.5250    0.9833    0.0000 C   0  0  0  0  0  0  0  0  0  0  0  0
   -0.6500    1.8083    0.0000 O   0  0  0  0  0  0  0  0  0  0  0  0
    0.7000   -1.4000    0.0000 C   0  0  0  0  0  0  0  0  0  0  0  0
   -4.2458    0.5708    0.0000 O   0  0  0  0  0  0  0  0  0  0  0  0
    3.5917   -0.6792    0.0000 O   0  0  0  0  0  0  0  0  0  0  0  0
    0.0542    0.5625    0.0000 C   0  0  0  0  0  0  0  0  0  0  0  0
    1.4792    0.5583    0.0000 C   0  0  0  0  0  0  0  0  0  0  0  0
    1.4125   -1.8417    0.0000 C   0  0  0  0  0  0  0  0  0  0  0  0
    4.3167   -0.2917    0.0000 C   0  0  0  0  0  0  0  0  0  0  0  0
    3.5667   -1.5125    0.0000 C   0  0  0  0  0  0  0  0  0  0  0  0
    0.7375   -0.5792    0.0000 C   0  0  0  0  0  0  0  0  0  0  0  0
   -0.0208   -1.7917    0.0000 C   0  0  0  0  0  0  0  0  0  0  0  0
    2.2042    0.9625    0.0000 C   0  0  0  0  0  0  0  0  0  0  0  0
    2.1292   -1.4542    0.0000 C   0  0  0  0  0  0  0  0  0  0  0  0
    2.8292   -1.9000    0.0000 C   0  0  0  0  0  0  0  0  0  0  0  0
    4.3417    0.5333    0.0000 C   0  0  0  0  0  0  0  0  0  0  0  0
    2.9125    0.5458    0.0000 C   0  0  0  0  0  0  0  0  0  0  0  0
    3.6375    0.9458    0.0000 C   0  0  0  0  0  0  0  0  0  0  0  0
    0.0250   -0.1375    0.0000 C   0  0  0  0  0  0  0  0  0  0  0  0
   -0.7250   -1.3500    0.0000 C   0  0  0  0  0  0  0  0  0  0  0  0
   -0.6958   -0.5292    0.0000 C   0  0  0  0  0  0  0  0  0  0  0  0
  2  1  1  0
  3  2  2  0
  4  1  2  0
  5  6  2  0
  6  4  1  0
  7  3  1  0
  8 15  1  0
  9  4  1  0
 10  1  1  0
 11  7  1  0
 12 17  1  0
 13 10  1  0
 14 18  1  0
 15  7  1  0
 16  8  1  0
 17 23  1  0
 18 25  1  0
 19 14  1  0
 20 12  1  0
 21 12  2  0
 22 16  1  0
 23 24  1  0
 24 19  1  0
 25 27  1  0
 26 22  1  0
 27 26  1  0
 28 20  2  0
 29 21  1  0
 30 29  2  0
  3  5  1  0
 28 30  1  0
M  END
> <chembl_id>
CHEMBL1263

> <chembl_pref_name>
SALMETEROL
