
     RDKit          2D

 10  9  0  0  0  0  0  0  0  0999 V2000
    4.1500   -4.9667    0.0000 N   0  0  0  0  0  0  0  0  0  0  0  0
    5.9917   -4.5917    0.0000 N   0  0  0  0  0  0  0  0  0  0  0  0
    7.8625   -4.9042    0.0000 N   0  0  0  0  0  0  0  0  0  0  0  0
    2.2792   -4.6542    0.0000 N   0  0  0  0  0  0  0  0  0  0  0  0
    5.3792   -4.9500    0.0000 C   0  0  0  0  0  0  0  0  0  0  0  0
    4.7625   -4.6167    0.0000 C   0  0  0  0  0  0  0  0  0  0  0  0
    6.6167   -4.9292    0.0000 C   0  0  0  0  0  0  0  0  0  0  0  0
    3.5250   -4.6417    0.0000 C   0  0  0  0  0  0  0  0  0  0  0  0
    7.2375   -4.5667    0.0000 C   0  0  0  0  0  0  0  0  0  0  0  0
    2.9125   -4.9917    0.0000 C   0  0  0  0  0  0  0  0  0  0  0  0
  2  5  1  0
  3  9  1  0
  4 10  1  0
  5  6  1  0
  6  1  1  0
  7  2  1  0
  8  1  1  0
  9  7  1  0
 10  8  1  0
M  END
> <chembl_id>
CHEMBL609

> <chembl_pref_name>
TRIENTINE
