
     RDKit          2D

 32 36  0  0  1  0  0  0  0  0999 V2000
    4.1042   -6.4917    0.0000 C   0  0  0  0  0  0  0  0  0  0  0  0
    4.1042   -7.2042    0.0000 C   0  0  0  0  0  0  0  0  0  0  0  0
    5.9417   -5.4292    0.0000 C   0  0  0  0  0  0  0  0  0  0  0  0
    4.7125   -6.1375    0.0000 C   0  0  0  0  0  0  0  0  0  0  0  0
    5.9417   -6.1417    0.0000 C   0  0  0  0  0  0  0  0  0  0  0  0
    6.6292   -5.2125    0.0000 C   0  0  0  0  0  0  0  0  0  0  0  0
    5.3292   -6.4917    0.0000 C   0  0  0  0  0  0  0  0  0  0  0  0
    5.3292   -7.2042    0.0000 C   0  0  0  0  0  0  0  0  0  0  0  0
    7.3042   -5.0000    0.0000 O   0  0  0  0  0  0  0  0  0  0  0  0
    3.4875   -7.5667    0.0000 C   0  0  0  0  0  0  0  0  0  0  0  0
    4.7167   -7.5625    0.0000 C   0  0  0  0  0  0  0  0  0  0  0  0
    5.9417   -7.5667    0.0000 S   0  0  0  0  0  0  0  0  0  0  0  0
    5.3292   -5.0750    0.0000 C   0  0  0  0  0  0  0  0  0  0  0  0
    4.7125   -5.4292    0.0000 C   0  0  0  0  0  0  0  0  0  0  0  0
    7.3125   -4.2792    0.0000 C   0  0  0  0  0  0  0  0  0  0  0  0
    6.6250   -6.3542    0.0000 C   0  0  0  0  0  0  0  0  0  0  0  0
    3.4875   -6.1417    0.0000 C   0  0  0  0  0  0  0  0  0  0  0  0
    5.9167   -8.2667    0.0000 C   0  0  0  0  0  0  0  0  0  0  0  0
    7.0417   -5.7875    0.0000 C   0  0  0  0  0  0  0  0  0  0  0  0
    2.8667   -7.2042    0.0000 C   0  0  0  0  0  0  0  0  0  0  0  0
    6.2167   -4.6292    0.0000 C   0  0  0  0  0  0  0  0  0  0  0  0
    7.8917   -3.8750    0.0000 O   0  0  0  0  0  0  0  0  0  0  0  0
    5.2875   -8.6042    0.0000 O   0  0  0  0  0  0  0  0  0  0  0  0
    2.2542   -7.5667    0.0000 O   0  0  0  0  0  0  0  0  0  0  0  0
    6.6375   -4.0542    0.0000 C   0  0  0  0  0  0  0  0  0  0  0  0
    2.8667   -6.4917    0.0000 C   0  0  0  0  0  0  0  0  0  0  0  0
    4.0917   -5.7792    0.0000 C   0  0  0  0  0  0  0  0  0  0  0  0
    5.9375   -4.7167    0.0000 C   0  0  0  0  0  0  0  0  0  0  0  0
    6.5250   -8.6542    0.0000 C   0  0  0  0  0  0  0  0  0  0  0  0
    5.9375   -6.8542    0.0000 H   0  0  0  0  0  0  0  0  0  0  0  0
    5.3167   -5.7792    0.0000 H   0  0  0  0  0  0  0  0  0  0  0  0
    4.7042   -6.8500    0.0000 H   0  0  0  0  0  0  0  0  0  0  0  0
  2  1  1  0
  3 13  1  0
  4  1  1  0
  5  7  1  0
  6  3  1  0
  7  4  1  0
  8  7  1  0
  6  9  1  1
 10  2  2  0
 11  2  1  0
  8 12  1  6
 13 14  1  0
 14  4  1  0
 15  9  1  0
 16  5  1  0
 17  1  1  0
 18 12  1  0
 19 16  1  0
 20 26  1  0
 21  6  1  0
 22 15  2  0
 23 18  2  0
 24 20  2  0
 25 21  1  0
 26 17  1  0
  1 27  1  1
  3 28  1  1
 29 18  1  0
  5 30  1  6
  7 31  1  1
  4 32  1  6
  8 11  1  0
 20 10  1  0
  5  3  1  0
 19  6  1  0
 25 15  1  0
M  END
> <chembl_id>
CHEMBL1393

> <chembl_pref_name>
SPIRONOLACTONE
