
     RDKit          2D

 51 55  0  0  1  0  0  0  0  0999 V2000
    5.0000   -8.4292    0.0000 N   0  0  0  0  0  0  0  0  0  0  0  0
    5.6042   -8.0667    0.0000 C   0  0  0  0  0  0  0  0  0  0  0  0
    5.6042   -7.3417    0.0000 C   0  0  0  0  0  0  0  0  0  0  0  0
   -1.4250   -8.4167    0.0000 N   0  0  0  0  0  0  0  0  0  0  0  0
    1.6792   -8.0667    0.0000 C   0  0  0  0  0  0  0  0  0  0  0  0
   -0.2125   -8.4292    0.0000 C   0  0  0  0  0  0  0  0  0  0  0  0
    0.4542   -8.0667    0.0000 N   0  0  0  0  0  0  0  0  0  0  0  0
    2.3208   -8.4167    0.0000 N   0  0  0  0  0  0  0  0  0  0  0  0
    1.0375   -8.4167    0.0000 C   0  0  0  0  0  0  0  0  0  0  0  0
   -0.8125   -8.0667    0.0000 C   0  0  0  0  0  0  0  0  0  0  0  0
    1.0375   -9.1167    0.0000 C   0  0  0  0  0  0  0  0  0  0  0  0
    6.2125   -8.4292    0.0000 C   0  0  0  0  0  0  0  0  0  0  0  0
    4.2792   -8.0667    0.0000 C   0  0  0  0  0  0  0  0  0  0  0  0
    5.0000   -9.1167    0.0000 C   0  0  0  0  0  0  0  0  0  0  0  0
    6.2125   -7.0042    0.0000 N   0  0  0  0  0  0  0  0  0  0  0  0
    2.9167   -8.0667    0.0000 C   0  0  0  0  0  0  0  0  0  0  0  0
    3.5917   -8.4042    0.0000 C   0  0  0  0  0  0  0  0  0  0  0  0
    1.6375   -9.4917    0.0000 C   0  0  0  0  0  0  0  0  0  0  0  0
    6.2125   -9.1167    0.0000 C   0  0  0  0  0  0  0  0  0  0  0  0
   -2.0375   -8.0667    0.0000 C   0  0  0  0  0  0  0  0  0  0  0  0
    5.6042   -9.4667    0.0000 C   0  0  0  0  0  0  0  0  0  0  0  0
    4.9625   -7.0417    0.0000 O   0  0  0  0  0  0  0  0  0  0  0  0
    1.6792   -7.3417    0.0000 O   0  0  0  0  0  0  0  0  0  0  0  0
   -0.2125   -9.1417    0.0000 O   0  0  0  0  0  0  0  0  0  0  0  0
    2.9125   -7.2792    0.0000 C   0  0  0  0  0  0  0  0  0  0  0  0
    6.7792   -7.3417    0.0000 C   0  0  0  0  0  0  0  0  0  0  0  0
   -0.8125   -7.3167    0.0000 C   0  0  0  0  0  0  0  0  0  0  0  0
    1.6375  -10.1667    0.0000 O   0  0  0  0  0  0  0  0  0  0  0  0
   -2.0375   -7.3167    0.0000 C   0  0  0  0  0  0  0  0  0  0  0  0
   -1.4250   -6.9542    0.0000 C   0  0  0  0  0  0  0  0  0  0  0  0
    2.2292   -9.1542    0.0000 N   0  0  0  0  0  0  0  0  0  0  0  0
    3.5917   -9.0792    0.0000 O   0  0  0  0  0  0  0  0  0  0  0  0
    3.2167   -6.7042    0.0000 C   0  0  0  0  0  0  0  0  0  0  0  0
    6.8250   -9.4667    0.0000 C   0  0  0  0  0  0  0  0  0  0  0  0
    5.6042  -10.1542    0.0000 C   0  0  0  0  0  0  0  0  0  0  0  0
   -2.6625   -8.4167    0.0000 C   0  0  0  0  0  0  0  0  0  0  0  0
    7.4042   -7.0042    0.0000 C   0  0  0  0  0  0  0  0  0  0  0  0
    6.4250   -7.9542    0.0000 C   0  0  0  0  0  0  0  0  0  0  0  0
    7.1292   -7.9542    0.0000 C   0  0  0  0  0  0  0  0  0  0  0  0
   -2.6625   -6.9542    0.0000 C   0  0  0  0  0  0  0  0  0  0  0  0
    2.8625   -6.1417    0.0000 C   0  0  0  0  0  0  0  0  0  0  0  0
    3.9167   -6.6917    0.0000 C   0  0  0  0  0  0  0  0  0  0  0  0
    6.2292  -10.5042    0.0000 C   0  0  0  0  0  0  0  0  0  0  0  0
    6.8250  -10.1542    0.0000 C   0  0  0  0  0  0  0  0  0  0  0  0
   -3.2958   -8.0667    0.0000 C   0  0  0  0  0  0  0  0  0  0  0  0
   -3.2958   -7.3167    0.0000 C   0  0  0  0  0  0  0  0  0  0  0  0
    3.1792   -5.5292    0.0000 C   0  0  0  0  0  0  0  0  0  0  0  0
    4.2042   -6.0792    0.0000 C   0  0  0  0  0  0  0  0  0  0  0  0
    3.8417   -5.5167    0.0000 C   0  0  0  0  0  0  0  0  0  0  0  0
    4.9500   -9.8292    0.0000 H   0  0  0  0  0  0  0  0  0  0  0  0
    6.8625   -8.8292    0.0000 H   0  0  0  0  0  0  0  0  0  0  0  0
  2  1  1  0
  2  3  1  6
  4 10  2  0
  5  8  1  0
  6  7  1  0
  7  9  1  0
  8 16  1  0
  9  5  1  0
 10  6  1  0
  9 11  1  6
 12  2  1  0
 13  1  1  0
 14  1  1  0
 15  3  1  0
 16 17  1  0
 17 13  1  0
 18 11  1  0
 19 12  1  0
 20  4  1  0
 21 14  1  0
 22  3  2  0
 23  5  2  0
 24  6  2  0
 16 25  1  1
 26 15  1  0
 27 10  1  0
 28 18  2  0
 29 30  1  0
 30 27  2  0
 31 18  1  0
 17 32  1  1
 33 25  1  0
 34 19  1  0
 35 21  1  0
 36 20  1  0
 37 26  1  0
 38 26  1  0
 39 26  1  0
 40 29  1  0
 41 33  1  0
 42 33  2  0
 43 35  1  0
 44 34  1  0
 45 36  2  0
 46 40  2  0
 47 41  2  0
 48 42  1  0
 49 48  2  0
 21 50  1  1
 19 51  1  1
 21 19  1  0
 43 44  1  0
 49 47  1  0
 29 20  2  0
 46 45  1  0
M  END
> <chembl_id>
CHEMBL114

> <chembl_pref_name>
SAQUINAVIR
