
     RDKit          2D

 30 32  0  0  0  0  0  0  0  0999 V2000
    2.6000    0.9083    0.0000 C   0  0  0  0  0  0  0  0  0  0  0  0
    0.7167   -0.9417    0.0000 N   0  0  0  0  0  0  0  0  0  0  0  0
    0.1000   -1.3167    0.0000 C   0  0  0  0  0  0  0  0  0  0  0  0
   -3.0625   -0.2417    0.0000 C   0  0  0  0  0  0  0  0  0  0  0  0
    3.2167    1.2833    0.0000 N   0  0  0  0  0  0  0  0  0  0  0  0
   -2.4375    0.1208    0.0000 C   0  0  0  0  0  0  0  0  0  0  0  0
   -3.0625   -0.9792    0.0000 C   0  0  0  0  0  0  0  0  0  0  0  0
   -0.5333   -0.9542    0.0000 C   0  0  0  0  0  0  0  0  0  0  0  0
    1.9750   -0.1792    0.0000 N   0  0  0  0  0  0  0  0  0  0  0  0
    2.6000    0.2000    0.0000 C   0  0  0  0  0  0  0  0  0  0  0  0
   -1.1583   -1.3292    0.0000 C   0  0  0  0  0  0  0  0  0  0  0  0
   -1.7958   -0.9667    0.0000 C   0  0  0  0  0  0  0  0  0  0  0  0
   -1.7958   -0.2375    0.0000 C   0  0  0  0  0  0  0  0  0  0  0  0
   -2.4208   -1.3417    0.0000 C   0  0  0  0  0  0  0  0  0  0  0  0
    1.9542    1.2708    0.0000 O   0  0  0  0  0  0  0  0  0  0  0  0
    1.3625   -1.3042    0.0000 C   0  0  0  0  0  0  0  0  0  0  0  0
    0.7292   -0.1917    0.0000 C   0  0  0  0  0  0  0  0  0  0  0  0
    0.0917   -2.0542    0.0000 O   0  0  0  0  0  0  0  0  0  0  0  0
    1.9667   -0.9667    0.0000 C   0  0  0  0  0  0  0  0  0  0  0  0
    1.3292    0.1625    0.0000 C   0  0  0  0  0  0  0  0  0  0  0  0
   -3.7083    0.1125    0.0000 O   0  0  0  0  0  0  0  0  0  0  0  0
   -2.4375    0.8458    0.0000 O   0  0  0  0  0  0  0  0  0  0  0  0
   -3.6958   -1.3500    0.0000 O   0  0  0  0  0  0  0  0  0  0  0  0
    3.9167    1.0625    0.0000 C   0  0  0  0  0  0  0  0  0  0  0  0
    3.2167    2.0083    0.0000 C   0  0  0  0  0  0  0  0  0  0  0  0
   -4.3458   -0.2542    0.0000 C   0  0  0  0  0  0  0  0  0  0  0  0
   -4.3208   -1.0167    0.0000 C   0  0  0  0  0  0  0  0  0  0  0  0
   -1.7958    1.2208    0.0000 C   0  0  0  0  0  0  0  0  0  0  0  0
    4.3375    1.6583    0.0000 C   0  0  0  0  0  0  0  0  0  0  0  0
    3.9167    2.2458    0.0000 C   0  0  0  0  0  0  0  0  0  0  0  0
  2 17  1  0
  3  2  1  0
  4  7  2  0
  5  1  1  0
  6 13  2  0
  7 14  1  0
  8  3  1  0
  9 10  1  0
 10  1  1  0
 11  8  2  0
 12 11  1  0
 13 12  1  0
 14 12  2  0
 15  1  2  0
 16 19  1  0
 17 20  1  0
 18  3  2  0
 19  9  1  0
 20  9  1  0
 21  4  1  0
 22  6  1  0
 23  7  1  0
 24  5  1  0
 25  5  1  0
 26 21  1  0
 27 23  1  0
 28 22  1  0
 29 24  1  0
 30 25  1  0
 29 30  1  0
 16  2  1  0
  6  4  1  0
M  END
> <chembl_id>
CHEMBL1874750

> <chembl_pref_name>
CINEPAZIDE
