
     RDKit          2D

 19 20  0  0  0  0  0  0  0  0999 V2000
   10.4542   -9.3792    0.0000 S   0  0  0  0  0  0  0  0  0  0  0  0
   11.0667   -9.0208    0.0000 N   0  0  0  0  0  0  0  0  0  0  0  0
   11.6833   -9.3833    0.0000 C   0  0  0  0  0  0  0  0  0  0  0  0
   11.6833  -10.1000    0.0000 N   0  0  0  0  0  0  0  0  0  0  0  0
   12.3000   -9.0250    0.0000 N   0  0  0  0  0  0  0  0  0  0  0  0
    9.8375   -9.0167    0.0000 C   0  0  0  0  0  0  0  0  0  0  0  0
   10.8167   -9.9917    0.0000 O   0  0  0  0  0  0  0  0  0  0  0  0
   10.1042   -9.9917    0.0000 O   0  0  0  0  0  0  0  0  0  0  0  0
   12.9167   -9.3875    0.0000 C   0  0  0  0  0  0  0  0  0  0  0  0
   12.3000  -10.4542    0.0000 C   0  0  0  0  0  0  0  0  0  0  0  0
   12.9167  -10.1000    0.0000 C   0  0  0  0  0  0  0  0  0  0  0  0
    9.2208   -9.3750    0.0000 C   0  0  0  0  0  0  0  0  0  0  0  0
    9.8458   -8.3083    0.0000 C   0  0  0  0  0  0  0  0  0  0  0  0
    8.6083   -8.3042    0.0000 C   0  0  0  0  0  0  0  0  0  0  0  0
    7.9917   -7.9458    0.0000 N   0  0  0  0  0  0  0  0  0  0  0  0
    8.6042   -9.0167    0.0000 C   0  0  0  0  0  0  0  0  0  0  0  0
    9.2292   -7.9500    0.0000 C   0  0  0  0  0  0  0  0  0  0  0  0
   12.2958  -11.1667    0.0000 C   0  0  0  0  0  0  0  0  0  0  0  0
   13.5333   -9.0250    0.0000 C   0  0  0  0  0  0  0  0  0  0  0  0
  2  1  1  0
  3  2  1  0
  4  3  1  0
  5  3  2  0
  6  1  1  0
  7  1  2  0
  8  1  2  0
  9  5  1  0
 10  4  2  0
 11  9  2  0
 12  6  2  0
 13  6  1  0
 14 17  1  0
 15 14  1  0
 16 12  1  0
 17 13  2  0
 18 10  1  0
 19  9  1  0
 14 16  2  0
 10 11  1  0
M  END
> <chembl_id>
CHEMBL446

> <chembl_pref_name>
SULFAMETHAZINE
