
     RDKit          2D

 15 15  0  0  0  0  0  0  0  0999 V2000
   -1.2850    0.4887    0.0000 C   0  0  0  0  0  0  0  0  0  0  0  0
   -1.9297    1.0112    0.0000 C   0  0  0  0  0  0  0  0  0  0  0  0
   -1.4241   -0.3160    0.0000 C   0  0  0  0  0  0  0  0  0  0  0  0
   -0.5013    0.7794    0.0000 C   0  0  0  0  0  0  0  0  0  0  0  0
   -2.8397   -0.0758    0.0000 C   0  0  0  0  0  0  0  0  0  0  0  0
   -2.2077   -0.5983    0.0000 C   0  0  0  0  0  0  0  0  0  0  0  0
   -2.7007    0.7331    0.0000 C   0  0  0  0  0  0  0  0  0  0  0  0
    0.8890    0.5393    0.0000 N   0  0  0  0  0  0  0  0  0  0  0  0
   -0.3666    1.5926    0.0000 O   0  0  0  0  0  0  0  0  0  0  0  0
   -3.6234   -0.3582    0.0000 O   0  0  0  0  0  0  0  0  0  0  0  0
    0.1180    0.2486    0.0000 C   0  0  0  0  0  0  0  0  0  0  0  0
    1.5294    0.0210    0.0000 C   0  0  0  0  0  0  0  0  0  0  0  0
    2.3047    0.2991    0.0000 C   0  0  0  0  0  0  0  0  0  0  0  0
    2.9493   -0.2191    0.0000 C   0  0  0  0  0  0  0  0  0  0  0  0
    3.7204    0.0506    0.0000 C   0  0  0  0  0  0  0  0  0  0  0  0
  2  1  1  0
  3  1  2  0
  4  1  1  0
  5  6  2  0
  6  3  1  0
  7  2  2  0
  8 11  1  0
  9  4  1  0
 10  5  1  0
 11  4  1  0
 12  8  1  0
 13 12  1  0
 14 13  1  0
 15 14  1  0
  7  5  1  0
M  END
> <chembl_id>
CHEMBL1987462

> <chembl_pref_name>
BAMETHAN
