
     RDKit          2D

 76 83  0  0  0  0  0  0  0  0999 V2000
    8.2375   -1.8042    0.0000 Cl  0  0  0  0  0  0  0  0  0  0  0  0
   -1.5208   -1.9042    0.0000 C   0  0  0  0  0  0  0  0  0  0  0  0
   -2.1958   -1.9125    0.0000 C   0  0  0  0  0  0  0  0  0  0  0  0
   -1.1833   -1.3000    0.0000 C   0  0  0  0  0  0  0  0  0  0  0  0
   -2.5333   -2.5042    0.0000 C   0  0  0  0  0  0  0  0  0  0  0  0
   -1.1625   -2.4917    0.0000 C   0  0  0  0  0  0  0  0  0  0  0  0
   -1.8000   -2.8000    0.0000 O   0  0  0  0  0  0  0  0  0  0  0  0
   -1.5375   -0.7042    0.0000 C   0  0  0  0  0  0  0  0  0  0  0  0
   -2.5500   -1.3250    0.0000 C   0  0  0  0  0  0  0  0  0  0  0  0
   -0.4958   -1.2875    0.0000 C   0  0  0  0  0  0  0  0  0  0  0  0
   -2.2250   -0.7250    0.0000 C   0  0  0  0  0  0  0  0  0  0  0  0
   -1.2000   -0.1167    0.0000 N   0  0  0  0  0  0  0  0  0  0  0  0
   -1.8625   -1.3042    0.0000 C   0  0  0  0  0  0  0  0  0  0  0  0
   -0.1375   -1.8792    0.0000 C   0  0  0  0  0  0  0  0  0  0  0  0
   -0.4708   -2.4792    0.0000 C   0  0  0  0  0  0  0  0  0  0  0  0
   -3.2208   -2.5250    0.0000 C   0  0  0  0  0  0  0  0  0  0  0  0
   -1.8833   -0.1167    0.0000 C   0  0  0  0  0  0  0  0  0  0  0  0
   -3.2375   -1.3375    0.0000 C   0  0  0  0  0  0  0  0  0  0  0  0
   -3.5708   -1.9375    0.0000 C   0  0  0  0  0  0  0  0  0  0  0  0
   -3.5625   -3.1125    0.0000 O   0  0  0  0  0  0  0  0  0  0  0  0
   -0.1333   -3.0750    0.0000 O   0  0  0  0  0  0  0  0  0  0  0  0
   -0.6083    0.2333    0.0000 C   0  0  0  0  0  0  0  0  0  0  0  0
   -2.0515    0.1536    0.0000 H   0  0  0  0  0  0  0  0  0  0  0  0
   -0.9304   -3.4644    0.0000 H   0  0  0  0  0  0  0  0  0  0  0  0
   -0.6968   -0.4263    0.0000 H   0  0  0  0  0  0  0  0  0  0  0  0
   12.1792   -1.8792    0.0000 C   0  0  0  0  0  0  0  0  0  0  0  0
   11.5042   -1.8792    0.0000 C   0  0  0  0  0  0  0  0  0  0  0  0
   12.5167   -1.3042    0.0000 C   0  0  0  0  0  0  0  0  0  0  0  0
   11.1667   -2.4667    0.0000 C   0  0  0  0  0  0  0  0  0  0  0  0
   12.5167   -2.4667    0.0000 C   0  0  0  0  0  0  0  0  0  0  0  0
   11.7875   -3.0917    0.0000 O   0  0  0  0  0  0  0  0  0  0  0  0
   12.1792   -0.7250    0.0000 C   0  0  0  0  0  0  0  0  0  0  0  0
   12.4917   -0.1875    0.0000 N   0  0  0  0  0  0  0  0  0  0  0  0
   11.1667   -1.3042    0.0000 C   0  0  0  0  0  0  0  0  0  0  0  0
   13.1875   -1.3042    0.0000 C   0  0  0  0  0  0  0  0  0  0  0  0
   11.5000   -0.7250    0.0000 C   0  0  0  0  0  0  0  0  0  0  0  0
   12.8417   -1.8917    0.0000 C   0  0  0  0  0  0  0  0  0  0  0  0
   13.5250   -1.8792    0.0000 C   0  0  0  0  0  0  0  0  0  0  0  0
   13.1792   -2.4667    0.0000 C   0  0  0  0  0  0  0  0  0  0  0  0
   10.4917   -2.4667    0.0000 C   0  0  0  0  0  0  0  0  0  0  0  0
   12.8500   -0.3375    0.0000 C   0  0  0  0  0  0  0  0  0  0  0  0
   10.4917   -1.3042    0.0000 C   0  0  0  0  0  0  0  0  0  0  0  0
   10.1625   -1.8792    0.0000 C   0  0  0  0  0  0  0  0  0  0  0  0
   12.8667    0.3125    0.0000 C   0  0  0  0  0  0  0  0  0  0  0  0
   13.4667   -3.0667    0.0000 O   0  0  0  0  0  0  0  0  0  0  0  0
   10.1292   -3.1042    0.0000 O   0  0  0  0  0  0  0  0  0  0  0  0
   10.4292   -3.7292    0.0000 C   0  0  0  0  0  0  0  0  0  0  0  0
   11.6805    0.1418    0.0000 H   0  0  0  0  0  0  0  0  0  0  0  0
   13.0150   -0.4372    0.0000 H   0  0  0  0  0  0  0  0  0  0  0  0
    6.1667   -0.4625    0.0000 C   0  0  0  0  0  0  0  0  0  0  0  0
    6.7875   -0.8167    0.0000 C   0  0  0  0  0  0  0  0  0  0  0  0
    5.5375   -0.8167    0.0000 C   0  0  0  0  0  0  0  0  0  0  0  0
    6.1667    0.2500    0.0000 C   0  0  0  0  0  0  0  0  0  0  0  0
    4.9125   -0.4625    0.0000 C   0  0  0  0  0  0  0  0  0  0  0  0
    4.9125    0.2500    0.0000 C   0  0  0  0  0  0  0  0  0  0  0  0
    5.5375    0.6125    0.0000 C   0  0  0  0  0  0  0  0  0  0  0  0
    7.4042   -0.4625    0.0000 N   0  0  0  0  0  0  0  0  0  0  0  0
    6.2875   -3.1542    0.0000 C   0  0  0  0  0  0  0  0  0  0  0  0
    6.7750   -1.4250    0.0000 C   0  0  0  0  0  0  0  0  0  0  0  0
    5.6375   -3.1542    0.0000 C   0  0  0  0  0  0  0  0  0  0  0  0
    6.6500   -2.5292    0.0000 C   0  0  0  0  0  0  0  0  0  0  0  0
    6.3042   -1.9167    0.0000 C   0  0  0  0  0  0  0  0  0  0  0  0
    5.2167   -2.5500    0.0000 C   0  0  0  0  0  0  0  0  0  0  0  0
    5.5917   -1.9125    0.0000 C   0  0  0  0  0  0  0  0  0  0  0  0
    7.4042    0.2500    0.0000 C   0  0  0  0  0  0  0  0  0  0  0  0
    4.2667   -0.8000    0.0000 O   0  0  0  0  0  0  0  0  0  0  0  0
    4.2667    0.5875    0.0000 O   0  0  0  0  0  0  0  0  0  0  0  0
    6.6792   -3.7750    0.0000 O   0  0  0  0  0  0  0  0  0  0  0  0
    5.3250   -3.8042    0.0000 O   0  0  0  0  0  0  0  0  0  0  0  0
    6.7875    0.6125    0.0000 C   0  0  0  0  0  0  0  0  0  0  0  0
    3.6667   -0.4167    0.0000 C   0  0  0  0  0  0  0  0  0  0  0  0
    6.3542   -4.4042    0.0000 C   0  0  0  0  0  0  0  0  0  0  0  0
    3.6667    0.2083    0.0000 C   0  0  0  0  0  0  0  0  0  0  0  0
    4.6250   -3.9292    0.0000 C   0  0  0  0  0  0  0  0  0  0  0  0
   13.6750   -0.3167    0.0000 Cl  0  0  0  0  0  0  0  0  0  0  0  0
    1.5792   -1.3917    0.0000 Cl  0  0  0  0  0  0  0  0  0  0  0  0
  3  2  1  0
  4  2  1  0
  5  3  1  0
  6  2  1  0
  7  6  1  0
  8  4  1  0
  9  3  2  0
 10  4  1  0
 11  8  1  0
 12 17  1  0
  2 13  1  1
 14 15  1  0
 15  6  1  0
 16  5  2  0
 17 13  1  0
 18  9  1  0
 19 18  2  0
 20 16  1  0
 15 21  1  6
 22 12  1  0
  5  7  1  0
  8 12  1  0
 14 10  2  0
 11  9  1  0
 19 16  1  0
  8 23  1  6
  6 24  1  1
  4 25  1  1
 27 26  1  0
 28 26  1  0
 29 27  2  0
 30 26  1  0
 31 30  1  0
 32 28  1  0
 33 41  1  0
 34 27  1  0
 35 28  1  0
 36 32  1  0
 26 37  1  1
 38 39  1  0
 39 30  1  0
 40 29  1  0
 41 37  1  0
 42 34  2  0
 43 42  1  0
 44 33  1  0
 39 45  1  6
 46 40  1  0
 47 46  1  0
 31 29  1  0
 32 33  1  0
 38 35  2  0
 36 34  1  0
 43 40  2  0
 32 48  1  6
 28 49  1  1
 51 50  2  0
 52 50  1  0
 53 50  1  0
 54 52  2  0
 55 56  2  0
 56 53  1  0
 57 51  1  0
 58 61  2  0
 59 51  1  0
 60 63  2  0
 61 62  1  0
 62 59  1  0
 63 64  1  0
 64 62  2  0
 65 70  1  0
 66 54  1  0
 67 55  1  0
 68 58  1  0
 69 60  1  0
 70 53  2  0
 71 66  1  0
 72 68  1  0
 73 67  1  0
 74 69  1  0
 65 57  2  0
 55 54  1  0
 60 58  1  0
M  END
> <chembl_id>
CHEMBL3833334

> <chembl_pref_name>
PAPAVERETUM
