
     RDKit          2D

 19 19  0  0  0  0  0  0  0  0999 V2000
   -0.3458   -1.4583    0.0000 Na  0  0  0  0  0 15  0  0  0  0  0  0
   -0.5250   -3.2875    0.0000 C   0  0  0  0  0  0  0  0  0  0  0  0
   -0.5292   -2.5792    0.0000 C   0  0  0  0  0  0  0  0  0  0  0  0
   -1.1458   -3.6458    0.0000 N   0  0  0  0  0  0  0  0  0  0  0  0
    0.1458   -3.5000    0.0000 N   0  0  0  0  0  0  0  0  0  0  0  0
    0.1417   -2.3500    0.0000 N   0  0  0  0  0  0  0  0  0  0  0  0
   -1.7625   -2.5792    0.0000 N   0  0  0  0  0  0  0  0  0  0  0  0
   -1.7625   -3.2875    0.0000 C   0  0  0  0  0  0  0  0  0  0  0  0
   -1.1458   -2.2167    0.0000 C   0  0  0  0  0  0  0  0  0  0  0  0
    0.5625   -2.9250    0.0000 C   0  0  0  0  0  0  0  0  0  0  0  0
    0.1417   -4.2125    0.0000 C   0  0  0  0  0  0  0  0  0  0  0  0
   -1.1458   -1.5083    0.0000 O   0  0  0  0  0  0  0  0  0  0  0  0
   -2.3792   -3.6417    0.0000 N   0  0  0  0  0  0  0  0  0  0  0  0
    0.7542   -4.5750    0.0000 O   0  0  0  0  0  0  0  0  0  0  0  0
    0.7458   -5.2875    0.0000 C   0  0  0  0  0  0  0  0  0  0  0  0
    1.9792   -5.3042    0.0000 O   0  0  0  0  0  0  0  0  0  0  0  0
   -0.4875   -5.2750    0.0000 O   0  0  0  0  0  0  0  0  0  0  0  0
    0.1250   -5.6333    0.0000 C   0  0  0  0  0  0  0  0  0  0  0  0
    1.3583   -5.6500    0.0000 C   0  0  0  0  0  0  0  0  0  0  0  0
  3  2  2  0
  4  2  1  0
  5  2  1  0
  6  3  1  0
  7  9  2  0
  8  4  2  0
  9  3  1  0
 10  5  1  0
 11  5  1  0
 12  9  1  0
 13  8  1  0
 14 11  1  0
 15 14  1  0
 16 19  1  0
 17 18  1  0
 18 15  1  0
 19 15  1  0
  6 10  2  0
  8  7  1  0
M  CHG  2   1   1  12  -1
M  END
> <chembl_id>
CHEMBL1200850

> <chembl_pref_name>
GANCICLOVIR SODIUM
