
     RDKit          2D

 25 27  0  0  0  0  0  0  0  0999 V2000
    7.5125   -6.4667    0.0000 Br  0  0  0  0  0  0  0  0  0  0  0  0
    4.0750   -5.5792    0.0000 C   0  0  0  0  0  0  0  0  0  0  0  0
    3.6167   -5.0875    0.0000 C   0  0  0  0  0  0  0  0  0  0  0  0
    4.7167   -3.9417    0.0000 C   0  0  0  0  0  0  0  0  0  0  0  0
    4.7167   -4.8625    0.0000 C   0  0  0  0  0  0  0  0  0  0  0  0
    5.2417   -4.4292    0.0000 N   0  0  0  0  0  0  0  0  0  0  0  0
    3.6167   -4.4292    0.0000 C   0  0  0  0  0  0  0  0  0  0  0  0
    4.0625   -3.9417    0.0000 C   0  0  0  0  0  0  0  0  0  0  0  0
    4.7625   -5.5792    0.0000 C   0  0  0  0  0  0  0  0  0  0  0  0
    5.2417   -5.0625    0.0000 C   0  0  0  0  0  0  0  0  0  0  0  0
    3.0375   -5.4250    0.0000 C   0  0  0  0  0  0  0  0  0  0  0  0
    5.8167   -4.1792    0.0000 C   0  0  0  0  0  0  0  0  0  0  0  0
    3.0375   -4.0917    0.0000 C   0  0  0  0  0  0  0  0  0  0  0  0
    2.4542   -5.1000    0.0000 C   0  0  0  0  0  0  0  0  0  0  0  0
    3.9542   -6.2542    0.0000 C   0  0  0  0  0  0  0  0  0  0  0  0
    6.3542   -4.6125    0.0000 C   0  0  0  0  0  0  0  0  0  0  0  0
    2.4542   -4.4292    0.0000 C   0  0  0  0  0  0  0  0  0  0  0  0
    5.4417   -5.5792    0.0000 C   0  0  0  0  0  0  0  0  0  0  0  0
    7.0000   -4.3667    0.0000 C   0  0  0  0  0  0  0  0  0  0  0  0
    1.8667   -5.4625    0.0000 O   0  0  0  0  0  0  0  0  0  0  0  0
    7.5417   -4.8042    0.0000 C   0  0  0  0  0  0  0  0  0  0  0  0
    7.0917   -3.6792    0.0000 C   0  0  0  0  0  0  0  0  0  0  0  0
    8.1792   -4.5417    0.0000 C   0  0  0  0  0  0  0  0  0  0  0  0
    7.7417   -3.4292    0.0000 C   0  0  0  0  0  0  0  0  0  0  0  0
    8.2792   -3.8625    0.0000 C   0  0  0  0  0  0  0  0  0  0  0  0
  3  2  1  0
  4  5  1  0
  5  2  1  0
  6 10  1  0
  7  3  2  0
  8  4  1  0
  9  2  1  0
 10  9  1  0
 11  3  1  0
 12  6  1  0
 13  7  1  0
 14 11  2  0
 15  2  1  0
 16 12  1  0
 17 14  1  0
 18  5  1  0
 19 16  1  0
 20 14  1  0
 21 19  2  0
 22 19  1  0
 23 21  1  0
 24 22  2  0
 25 23  2  0
  4  6  1  0
  7  8  1  0
 13 17  2  0
 24 25  1  0
M  END
> <chembl_id>
CHEMBL2107297

> <chembl_pref_name>
PHENAZOCINE HYDROBROMIDE
