
     RDKit          2D

 17 18  0  0  0  0  0  0  0  0999 V2000
    1.8542   -4.6917    0.0000 C   0  0  0  0  0  0  0  0  0  0  0  0
    1.2250   -5.0250    0.0000 N   0  0  0  0  0  0  0  0  0  0  0  0
    1.8792   -3.9875    0.0000 C   0  0  0  0  0  0  0  0  0  0  0  0
    0.6250   -4.6417    0.0000 C   0  0  0  0  0  0  0  0  0  0  0  0
    1.2792   -3.6042    0.0000 C   0  0  0  0  0  0  0  0  0  0  0  0
    2.4875   -3.6375    0.0000 C   0  0  0  0  0  0  0  0  0  0  0  0
    2.4417   -5.0667    0.0000 O   0  0  0  0  0  0  0  0  0  0  0  0
   -0.0083   -4.9792    0.0000 O   0  0  0  0  0  0  0  0  0  0  0  0
    0.6500   -3.9417    0.0000 C   0  0  0  0  0  0  0  0  0  0  0  0
    3.1000   -3.9917    0.0000 C   0  0  0  0  0  0  0  0  0  0  0  0
    2.5000   -2.9292    0.0000 C   0  0  0  0  0  0  0  0  0  0  0  0
    3.7292   -2.9375    0.0000 C   0  0  0  0  0  0  0  0  0  0  0  0
    4.3375   -2.5875    0.0000 N   0  0  0  0  0  0  0  0  0  0  0  0
    3.1167   -2.5792    0.0000 C   0  0  0  0  0  0  0  0  0  0  0  0
    3.7167   -3.6500    0.0000 C   0  0  0  0  0  0  0  0  0  0  0  0
    1.8792   -3.2750    0.0000 C   0  0  0  0  0  0  0  0  0  0  0  0
    1.2667   -2.9167    0.0000 C   0  0  0  0  0  0  0  0  0  0  0  0
  2  1  1  0
  3  1  1  0
  4  2  1  0
  5  3  1  0
  6  3  1  0
  7  1  2  0
  8  4  2  0
  9  5  1  0
 10  6  2  0
 11  6  1  0
 12 14  1  0
 13 12  1  0
 14 11  2  0
 15 10  1  0
 16  3  1  0
 17 16  1  0
  4  9  1  0
 15 12  2  0
M  END
> <chembl_id>
CHEMBL488

> <chembl_pref_name>
AMINOGLUTETHIMIDE
