
     RDKit          2D

 71 74  0  0  1  0  0  0  0  0999 V2000
   -2.9250   -2.7167    0.0000 C   0  0  0  0  0  0  0  0  0  0  0  0
   -2.9250   -3.4250    0.0000 C   0  0  0  0  0  0  0  0  0  0  0  0
   -2.3125   -2.3667    0.0000 C   0  0  0  0  0  0  0  0  0  0  0  0
   -2.3125   -1.6625    0.0000 N   0  0  0  0  0  0  0  0  0  0  0  0
   -1.0958   -1.6542    0.0000 C   0  0  0  0  0  0  0  0  0  0  0  0
    2.5625   -2.3625    0.0000 C   0  0  0  0  0  0  0  0  0  0  0  0
   -0.4875   -1.3042    0.0000 O   0  0  0  0  0  0  0  0  0  0  0  0
    3.1750   -2.7167    0.0000 C   0  0  0  0  0  0  0  0  0  0  0  0
    1.9542   -1.3042    0.0000 C   0  0  0  0  0  0  0  0  0  0  0  0
   -1.7083   -1.3042    0.0000 C   0  0  0  0  0  0  0  0  0  0  0  0
   -2.3208   -3.7750    0.0000 O   0  0  0  0  0  0  0  0  0  0  0  0
    2.5625   -1.6542    0.0000 C   0  0  0  0  0  0  0  0  0  0  0  0
    1.9542   -0.6042    0.0000 C   0  0  0  0  0  0  0  0  0  0  0  0
   -0.4875   -0.6042    0.0000 C   0  0  0  0  0  0  0  0  0  0  0  0
    0.7375   -0.6042    0.0000 C   0  0  0  0  0  0  0  0  0  0  0  0
    0.1167   -0.2500    0.0000 C   0  0  0  0  0  0  0  0  0  0  0  0
    3.1667   -3.4250    0.0000 C   0  0  0  0  0  0  0  0  0  0  0  0
    1.3417   -0.2500    0.0000 C   0  0  0  0  0  0  0  0  0  0  0  0
   -0.4875   -4.8292    0.0000 C   0  0  0  0  0  0  0  0  0  0  0  0
   -1.0958   -4.4750    0.0000 C   0  0  0  0  0  0  0  0  0  0  0  0
   -3.5333   -2.3667    0.0000 O   0  0  0  0  0  0  0  0  0  0  0  0
   -3.5333   -3.7750    0.0000 C   0  0  0  0  0  0  0  0  0  0  0  0
   -1.7083   -4.8292    0.0000 C   0  0  0  0  0  0  0  0  0  0  0  0
   -1.7083   -2.7167    0.0000 O   0  0  0  0  0  0  0  0  0  0  0  0
   -2.3208   -4.4792    0.0000 C   0  0  0  0  0  0  0  0  0  0  0  0
   -1.0958   -2.3625    0.0000 O   0  0  0  0  0  0  0  0  0  0  0  0
   -2.9250    0.8083    0.0000 C   0  0  0  0  0  0  0  0  0  0  0  0
   -1.0958   -0.2500    0.0000 C   0  0  0  0  0  0  0  0  0  0  0  0
    3.7792   -2.3625    0.0000 O   0  0  0  0  0  0  0  0  0  0  0  0
    0.1167   -4.4750    0.0000 C   0  0  0  0  0  0  0  0  0  0  0  0
   -2.9333   -4.1292    0.0000 O   0  0  0  0  0  0  0  0  0  0  0  0
    3.7750   -3.7750    0.0000 C   0  0  0  0  0  0  0  0  0  0  0  0
   -2.3208    0.4583    0.0000 C   0  0  0  0  0  0  0  0  0  0  0  0
    0.7375   -1.3042    0.0000 O   0  0  0  0  0  0  0  0  0  0  0  0
   -1.0958    0.4583    0.0000 C   0  0  0  0  0  0  0  0  0  0  0  0
   -2.9250    1.5125    0.0000 C   0  0  0  0  0  0  0  0  0  0  0  0
    0.7292   -4.8292    0.0000 C   0  0  0  0  0  0  0  0  0  0  0  0
   -1.7083    0.8083    0.0000 C   0  0  0  0  0  0  0  0  0  0  0  0
    1.3417   -4.4750    0.0000 C   0  0  0  0  0  0  0  0  0  0  0  0
    1.9542   -4.8292    0.0000 C   0  0  0  0  0  0  0  0  0  0  0  0
    2.5625   -4.4750    0.0000 C   0  0  0  0  0  0  0  0  0  0  0  0
   -3.5333   -4.4792    0.0000 C   0  0  0  0  0  0  0  0  0  0  0  0
   -2.3125    1.8708    0.0000 C   0  0  0  0  0  0  0  0  0  0  0  0
    1.9542   -2.7167    0.0000 O   0  0  0  0  0  0  0  0  0  0  0  0
   -2.9250   -1.3042    0.0000 C   0  0  0  0  0  0  0  0  0  0  0  0
    3.1750   -1.3042    0.0000 O   0  0  0  0  0  0  0  0  0  0  0  0
   -2.9250   -4.8292    0.0000 C   0  0  0  0  0  0  0  0  0  0  0  0
    3.8000   -4.5000    0.0000 C   0  0  0  0  0  0  0  0  0  0  0  0
   -1.7083    1.5125    0.0000 C   0  0  0  0  0  0  0  0  0  0  0  0
   -1.0958   -3.7667    0.0000 O   0  0  0  0  0  0  0  0  0  0  0  0
   -3.5375    0.4625    0.0000 O   0  0  0  0  0  0  0  0  0  0  0  0
    1.3417   -1.6542    0.0000 C   0  0  0  0  0  0  0  0  0  0  0  0
   -3.5333    1.8708    0.0000 O   0  0  0  0  0  0  0  0  0  0  0  0
   -1.7083   -0.6042    0.0000 C   0  0  0  0  0  0  0  0  0  0  0  0
   -5.3625    1.5208    0.0000 O   0  0  0  0  0  0  0  0  0  0  0  0
   -0.4875   -5.5292    0.0000 C   0  0  0  0  0  0  0  0  0  0  0  0
    2.5625   -3.7667    0.0000 C   0  0  0  0  0  0  0  0  0  0  0  0
    1.3417    0.4583    0.0000 C   0  0  0  0  0  0  0  0  0  0  0  0
   -1.1000   -0.9542    0.0000 C   0  0  0  0  0  0  0  0  0  0  0  0
   -4.1458   -3.4250    0.0000 C   0  0  0  0  0  0  0  0  0  0  0  0
   -4.7583    1.8750    0.0000 C   0  0  0  0  0  0  0  0  0  0  0  0
   -4.1458    1.5208    0.0000 C   0  0  0  0  0  0  0  0  0  0  0  0
    1.3417   -2.3625    0.0000 C   0  0  0  0  0  0  0  0  0  0  0  0
   -0.4875   -3.4167    0.0000 C   0  0  0  0  0  0  0  0  0  0  0  0
   -4.1458    0.8125    0.0000 C   0  0  0  0  0  0  0  0  0  0  0  0
    4.4125   -4.8542    0.0000 C   0  0  0  0  0  0  0  0  0  0  0  0
   -2.9208   -0.6042    0.0000 C   0  0  0  0  0  0  0  0  0  0  0  0
   -2.3125   -0.2500    0.0000 C   0  0  0  0  0  0  0  0  0  0  0  0
   -2.3179   -5.4792    0.0000 H   0  0  0  0  0  0  0  0  0  0  0  0
    0.3802   -1.1013    0.0000 H   0  0  0  0  0  0  0  0  0  0  0  0
   -0.8434   -0.8023    0.0000 H   0  0  0  0  0  0  0  0  0  0  0  0
  2  1  1  0
  3  1  1  0
  4  3  1  0
 10  5  1  0
  6 12  1  0
  7  5  1  0
  8  6  1  0
  9 13  2  0
 10  4  1  0
 11  2  1  0
 12  9  1  0
 13 18  1  0
 14  7  1  0
 15 16  1  0
 16 14  1  0
 17 32  1  0
 18 15  1  0
 19 20  1  0
 20 23  1  0
 21  1  2  0
 22  2  1  0
 23 25  1  0
 24  3  2  0
 25 11  1  0
 26  5  2  0
 27 33  1  0
 28 14  1  0
 29  8  2  0
 30 19  2  0
  2 31  1  1
 32 48  1  0
 33 38  1  0
 34 15  2  0
 35 28  1  0
 36 43  1  0
 37 30  1  0
 38 35  1  1
 39 37  2  0
 40 39  1  0
 41 40  2  0
 42 22  1  0
 43 49  1  0
  6 44  1  6
 45  4  1  0
 12 46  1  1
 47 42  1  0
 48 41  1  0
 49 38  1  0
 20 50  1  6
 27 51  1  1
 52  9  1  0
 36 53  1  6
 54 10  1  0
 55 61  1  0
 56 19  1  0
 17 57  1  1
 18 58  1  6
 28 59  1  6
 22 60  1  1
 61 62  1  0
 62 53  1  0
 63 44  1  0
 64 50  1  0
 65 51  1  0
 48 66  1  6
 67 45  1  0
 68 67  1  0
 25 69  1  1
 25 47  1  0
 54 68  1  0
 27 36  1  0
  8 17  1  0
 14 70  1  1
 10 71  1  6
M  END
> <chembl_id>
CHEMBL1908360

> <chembl_pref_name>
EVEROLIMUS
