
     RDKit          2D

 45 50  0  0  0  0  0  0  0  0999 V2000
    8.0360   -4.3184    0.0000 C   0  0  0  0  0  0  0  0  0  0  0  0
    8.3733   -3.5647    0.0000 N   0  0  0  0  0  0  0  0  0  0  0  0
    7.7616   -3.0163    0.0000 C   0  0  0  0  0  0  0  0  0  0  0  0
    7.0465   -3.4284    0.0000 C   0  0  0  0  0  0  0  0  0  0  0  0
    7.2187   -4.2337    0.0000 N   0  0  0  0  0  0  0  0  0  0  0  0
    7.7616   -2.1921    0.0000 C   0  0  0  0  0  0  0  0  0  0  0  0
    7.0465   -1.7800    0.0000 C   0  0  0  0  0  0  0  0  0  0  0  0
    6.3312   -2.1921    0.0000 C   0  0  0  0  0  0  0  0  0  0  0  0
    6.3312   -3.0163    0.0000 C   0  0  0  0  0  0  0  0  0  0  0  0
    8.4726   -1.7800    0.0000 C   0  0  0  0  0  0  0  0  0  0  0  0
    9.1878   -2.1921    0.0000 O   0  0  0  0  0  0  0  0  0  0  0  0
    8.4726   -0.9558    0.0000 O   0  0  0  0  0  0  0  0  0  0  0  0
    9.1785   -3.3966    0.0000 C   0  0  0  0  0  0  0  0  0  0  0  0
    9.9029   -3.7857    0.0000 C   0  0  0  0  0  0  0  0  0  0  0  0
   10.6090   -3.3576    0.0000 C   0  0  0  0  0  0  0  0  0  0  0  0
   11.3295   -3.7532    0.0000 C   0  0  0  0  0  0  0  0  0  0  0  0
   11.3520   -4.5745    0.0000 C   0  0  0  0  0  0  0  0  0  0  0  0
   10.6472   -5.0066    0.0000 C   0  0  0  0  0  0  0  0  0  0  0  0
    9.9226   -4.6122    0.0000 C   0  0  0  0  0  0  0  0  0  0  0  0
   12.0766   -4.9689    0.0000 C   0  0  0  0  0  0  0  0  0  0  0  0
   12.7786   -4.5420    0.0000 C   0  0  0  0  0  0  0  0  0  0  0  0
   13.5032   -4.9364    0.0000 C   0  0  0  0  0  0  0  0  0  0  0  0
   13.5217   -5.7589    0.0000 C   0  0  0  0  0  0  0  0  0  0  0  0
   12.8208   -6.1898    0.0000 C   0  0  0  0  0  0  0  0  0  0  0  0
   12.0963   -5.7955    0.0000 C   0  0  0  0  0  0  0  0  0  0  0  0
   12.0802   -3.2510    0.0000 N   0  0  0  0  0  0  0  0  0  0  0  0
   12.3127   -2.4593    0.0000 N   0  0  0  0  0  0  0  0  0  0  0  0
   13.1392   -2.4397    0.0000 N   0  0  0  0  0  0  0  0  0  0  0  0
   13.4148   -3.2159    0.0000 N   0  0  0  0  0  0  0  0  0  0  0  0
   12.7589   -3.7154    0.0000 C   0  0  0  0  0  0  0  0  0  0  0  0
    8.4481   -5.0336    0.0000 O   0  0  0  0  0  0  0  0  0  0  0  0
    8.0360   -5.7487    0.0000 C   0  0  0  0  0  0  0  0  0  0  0  0
    8.4481   -6.4597    0.0000 C   0  0  0  0  0  0  0  0  0  0  0  0
    9.1878   -0.5437    0.0000 C   0  0  0  0  0  0  0  0  0  0  0  0
    9.9030   -0.9558    0.0000 C   0  0  0  0  0  0  0  0  0  0  0  0
    9.1878    0.2805    0.0000 O   0  0  0  0  0  0  0  0  0  0  0  0
    9.9030    0.6926    0.0000 C   0  0  0  0  0  0  0  0  0  0  0  0
   10.6141    0.2805    0.0000 O   0  0  0  0  0  0  0  0  0  0  0  0
    9.9030    1.5168    0.0000 O   0  0  0  0  0  0  0  0  0  0  0  0
   10.6141    1.9290    0.0000 C   0  0  0  0  0  0  0  0  0  0  0  0
   10.6141    2.7532    0.0000 C   0  0  0  0  0  0  0  0  0  0  0  0
   11.3292    3.1653    0.0000 C   0  0  0  0  0  0  0  0  0  0  0  0
   12.0444    2.7532    0.0000 C   0  0  0  0  0  0  0  0  0  0  0  0
   12.0444    1.9290    0.0000 C   0  0  0  0  0  0  0  0  0  0  0  0
   11.3292    1.5168    0.0000 C   0  0  0  0  0  0  0  0  0  0  0  0
  1  2  1  0
  2  3  1  0
  3  4  1  0
  4  5  1  0
  1  5  2  0
  6  7  1  0
  7  8  2  0
  8  9  1  0
  4  9  2  0
  3  6  2  0
 10 11  2  0
 10 12  1  0
  6 10  1  0
 14 15  1  0
 15 16  2  0
 16 17  1  0
 17 18  2  0
 18 19  1  0
 14 19  2  0
 20 21  1  0
 21 22  2  0
 22 23  1  0
 23 24  2  0
 24 25  1  0
 20 25  2  0
 26 27  1  0
 27 28  1  0
 28 29  2  0
 29 30  1  0
 26 30  2  0
 21 30  1  0
 17 20  1  0
 13 14  1  0
  2 13  1  0
 32 33  1  0
 31 32  1  0
  1 31  1  0
 34 35  1  0
 37 38  2  0
 40 41  1  0
 41 42  1  0
 42 43  1  0
 43 44  1  0
 44 45  1  0
 40 45  1  0
 39 40  1  0
 37 39  1  0
 36 37  1  0
 34 36  1  0
 12 34  1  0
M  END
> <chembl_id>
CHEMBL1014

> <chembl_pref_name>
CANDESARTAN CILEXETIL
