
     RDKit          2D

 21 21  0  0  0  0  0  0  0  0999 V2000
    9.6069   -3.7875    0.0000 C   0  0  0  0  0  0  0  0  0  0  0  0
    9.6057   -4.6148    0.0000 C   0  0  0  0  0  0  0  0  0  0  0  0
   10.3206   -5.0277    0.0000 C   0  0  0  0  0  0  0  0  0  0  0  0
   11.0370   -4.6144    0.0000 C   0  0  0  0  0  0  0  0  0  0  0  0
   11.0341   -3.7838    0.0000 C   0  0  0  0  0  0  0  0  0  0  0  0
   10.3188   -3.3747    0.0000 C   0  0  0  0  0  0  0  0  0  0  0  0
    8.8909   -5.0268    0.0000 C   0  0  0  0  0  0  0  0  0  0  0  0
    8.1768   -4.6137    0.0000 O   0  0  0  0  0  0  0  0  0  0  0  0
    8.8903   -5.8518    0.0000 O   0  0  0  0  0  0  0  0  0  0  0  0
    7.4620   -5.0256    0.0000 C   0  0  0  0  0  0  0  0  0  0  0  0
    6.7479   -4.6126    0.0000 C   0  0  0  0  0  0  0  0  0  0  0  0
    6.0331   -5.0245    0.0000 N   0  0  0  0  0  0  0  0  0  0  0  0
    5.3227   -4.6114    0.0000 C   0  0  0  0  0  0  0  0  0  0  0  0
    6.0324   -5.8495    0.0000 C   0  0  0  0  0  0  0  0  0  0  0  0
    5.3176   -6.2614    0.0000 C   0  0  0  0  0  0  0  0  0  0  0  0
    4.6070   -5.0217    0.0000 C   0  0  0  0  0  0  0  0  0  0  0  0
   11.7471   -3.3686    0.0000 N   0  0  0  0  0  0  0  0  0  0  0  0
    8.8923   -3.3751    0.0000 O   0  0  0  0  0  0  0  0  0  0  0  0
    8.1780   -3.7878    0.0000 C   0  0  0  0  0  0  0  0  0  0  0  0
    7.4634   -3.3755    0.0000 C   0  0  0  0  0  0  0  0  0  0  0  0
    6.7490   -3.7881    0.0000 C   0  0  0  0  0  0  0  0  0  0  0  0
 10 11  1  0
 11 12  1  0
  5  6  2  0
 12 13  1  0
  6  1  1  0
 12 14  1  0
  2  3  1  0
 14 15  1  0
  2  7  1  0
 13 16  1  0
  5 17  1  0
  7  8  1  0
  1 18  1  0
  3  4  2  0
 18 19  1  0
  7  9  2  0
 19 20  1  0
  1  2  2  0
 20 21  1  0
  8 10  1  0
  4  5  1  0
M  END
> <chembl_id>
CHEMBL1195

> <chembl_pref_name>
PROPOXYCAINE
