
     RDKit          2D

 32 33  0  0  0  0  0  0  0  0999 V2000
    8.7292   -5.5250    0.0000 C   0  0  0  0  0  0  0  0  0  0  0  0
    9.9500   -4.1167    0.0000 C   0  0  0  0  0  0  0  0  0  0  0  0
    9.3292   -5.1792    0.0000 C   0  0  0  0  0  0  0  0  0  0  0  0
    9.3292   -4.4542    0.0000 C   0  0  0  0  0  0  0  0  0  0  0  0
    8.7292   -6.2417    0.0000 O   0  0  0  0  0  0  0  0  0  0  0  0
    9.9500   -3.3917    0.0000 O   0  0  0  0  0  0  0  0  0  0  0  0
   10.5542   -4.4542    0.0000 O   0  0  0  0  0  0  0  0  0  0  0  0
    8.1042   -5.1792    0.0000 O   0  0  0  0  0  0  0  0  0  0  0  0
    5.5667   -5.2792    0.0000 C   0  0  0  0  0  0  0  0  0  0  0  0
    5.9750   -2.2250    0.0000 N   0  0  0  0  0  0  0  0  0  0  0  0
    4.9625   -5.6417    0.0000 C   0  0  0  0  0  0  0  0  0  0  0  0
    5.5542   -2.8167    0.0000 C   0  0  0  0  0  0  0  0  0  0  0  0
    6.1792   -5.6542    0.0000 C   0  0  0  0  0  0  0  0  0  0  0  0
    4.9542   -6.3500    0.0000 C   0  0  0  0  0  0  0  0  0  0  0  0
    4.3417   -5.2667    0.0000 C   0  0  0  0  0  0  0  0  0  0  0  0
    5.9042   -4.6750    0.0000 O   0  0  0  0  0  0  0  0  0  0  0  0
    3.7292   -6.3292    0.0000 C   0  0  0  0  0  0  0  0  0  0  0  0
    5.9292   -3.4375    0.0000 C   0  0  0  0  0  0  0  0  0  0  0  0
    4.3542   -6.7042    0.0000 C   0  0  0  0  0  0  0  0  0  0  0  0
    3.7375   -5.6375    0.0000 C   0  0  0  0  0  0  0  0  0  0  0  0
    3.1292   -6.6917    0.0000 Cl  0  0  0  0  0  0  0  0  0  0  0  0
    5.5417   -1.6625    0.0000 C   0  0  0  0  0  0  0  0  0  0  0  0
    5.5542   -4.0625    0.0000 C   0  0  0  0  0  0  0  0  0  0  0  0
    6.6792   -2.2167    0.0000 C   0  0  0  0  0  0  0  0  0  0  0  0
    5.0042   -4.7917    0.0000 C   0  0  0  0  0  0  0  0  0  0  0  0
    4.8667   -1.9000    0.0000 C   0  0  0  0  0  0  0  0  0  0  0  0
    4.8792   -2.6167    0.0000 C   0  0  0  0  0  0  0  0  0  0  0  0
    6.1875   -6.3542    0.0000 C   0  0  0  0  0  0  0  0  0  0  0  0
    6.7792   -5.2917    0.0000 C   0  0  0  0  0  0  0  0  0  0  0  0
    7.3917   -5.6625    0.0000 C   0  0  0  0  0  0  0  0  0  0  0  0
    6.7667   -6.7292    0.0000 C   0  0  0  0  0  0  0  0  0  0  0  0
    7.3792   -6.3667    0.0000 C   0  0  0  0  0  0  0  0  0  0  0  0
  2  4  1  0
  3  1  1  0
  4  3  2  0
  5  1  2  0
  6  2  2  0
  7  2  1  0
  8  1  1  0
 10 12  1  0
 11  9  1  0
 12 18  1  1
 13  9  1  0
 14 11  1  0
 15 11  2  0
  9 16  1  6
 17 20  2  0
 18 23  1  0
 19 14  2  0
 20 15  1  0
 21 17  1  0
 22 10  1  0
 23 16  1  0
 24 10  1  0
 25  9  1  0
 26 27  1  0
 27 12  1  0
 28 13  2  0
 29 13  1  0
 30 29  2  0
 31 28  1  0
 32 30  1  0
 17 19  1  0
 32 31  2  0
 26 22  1  0
M  END
> <chembl_id>
CHEMBL1200795

> <chembl_pref_name>
CLEMASTINE FUMARATE
