
     RDKit          2D

 37 39  0  0  0  0  0  0  0  0999 V2000
    7.6312   -0.9429    0.0000 Cl  0  0  0  0  0  0  0  0  0  0  0  0
    0.2946    0.2946    0.0000 C   0  0  0  0  0  0  0  0  0  0  0  0
   -0.4199   -0.1179    0.0000 C   0  0  0  0  0  0  0  0  0  0  0  0
   -0.4199   -0.9429    0.0000 C   0  0  0  0  0  0  0  0  0  0  0  0
    0.2946   -1.3554    0.0000 C   0  0  0  0  0  0  0  0  0  0  0  0
    1.0091   -0.9429    0.0000 C   0  0  0  0  0  0  0  0  0  0  0  0
    1.0091   -0.1179    0.0000 C   0  0  0  0  0  0  0  0  0  0  0  0
    1.7236    0.2947    0.0000 C   0  0  0  0  0  0  0  0  0  0  0  0
    2.4381   -0.1178    0.0000 N   0  0  0  0  0  0  0  0  0  0  0  0
    2.4381   -0.9428    0.0000 C   0  0  0  0  0  0  0  0  0  0  0  0
    1.7236   -1.3553    0.0000 N   0  0  0  0  0  0  0  0  0  0  0  0
    1.8951    1.1016    0.0000 N   0  0  0  0  0  0  0  0  0  0  0  0
    2.7156    1.1879    0.0000 C   0  0  0  0  0  0  0  0  0  0  0  0
    3.0512    0.4343    0.0000 C   0  0  0  0  0  0  0  0  0  0  0  0
    3.1526   -1.3553    0.0000 N   0  0  0  0  0  0  0  0  0  0  0  0
    3.8671   -0.9428    0.0000 C   0  0  0  0  0  0  0  0  0  0  0  0
    4.5815   -1.3553    0.0000 C   0  0  0  0  0  0  0  0  0  0  0  0
    3.8671   -0.1178    0.0000 O   0  0  0  0  0  0  0  0  0  0  0  0
    4.5815   -2.1803    0.0000 C   0  0  0  0  0  0  0  0  0  0  0  0
    5.2960   -2.5928    0.0000 N   0  0  0  0  0  0  0  0  0  0  0  0
    6.0105   -2.1803    0.0000 C   0  0  0  0  0  0  0  0  0  0  0  0
    6.0105   -1.3553    0.0000 N   0  0  0  0  0  0  0  0  0  0  0  0
    5.2960   -0.9428    0.0000 C   0  0  0  0  0  0  0  0  0  0  0  0
    6.7249   -2.5928    0.0000 N   0  0  0  0  0  0  0  0  0  0  0  0
   -1.1343   -1.3554    0.0000 O   0  0  0  0  0  0  0  0  0  0  0  0
   -1.8488   -0.9429    0.0000 C   0  0  0  0  0  0  0  0  0  0  0  0
   -2.5633   -1.3554    0.0000 C   0  0  0  0  0  0  0  0  0  0  0  0
   -3.2777   -0.9429    0.0000 C   0  0  0  0  0  0  0  0  0  0  0  0
   -3.9922   -1.3554    0.0000 N   0  0  0  0  0  0  0  0  0  0  0  0
   -4.7067   -0.9429    0.0000 C   0  0  0  0  0  0  0  0  0  0  0  0
   -5.4212   -1.3554    0.0000 C   0  0  0  0  0  0  0  0  0  0  0  0
   -5.4212   -2.1804    0.0000 O   0  0  0  0  0  0  0  0  0  0  0  0
   -4.7067   -2.5929    0.0000 C   0  0  0  0  0  0  0  0  0  0  0  0
   -3.9922   -2.1804    0.0000 C   0  0  0  0  0  0  0  0  0  0  0  0
    0.2946   -2.1804    0.0000 O   0  0  0  0  0  0  0  0  0  0  0  0
    1.0091   -2.5929    0.0000 C   0  0  0  0  0  0  0  0  0  0  0  0
    7.1893    0.5598    0.0000 Cl  0  0  0  0  0  0  0  0  0  0  0  0
  2  3  2  0
  2  7  1  0
  3  4  1  0
  4  5  2  0
  5  6  1  0
 11  6  1  0
  6  7  2  0
  7  8  1  0
  9 10  1  0
 10 11  2  0
  8 12  2  0
  9  8  1  0
  9 14  1  0
 12 13  1  0
 13 14  1  0
 10 15  1  0
 15 16  1  0
 16 17  1  0
 16 18  2  0
 17 19  1  0
 17 23  2  0
 19 20  2  0
 20 21  1  0
 21 22  2  0
 22 23  1  0
 21 24  1  0
  4 25  1  0
 25 26  1  0
 26 27  1  0
 27 28  1  0
 28 29  1  0
 29 30  1  0
 34 29  1  0
 30 31  1  0
 31 32  1  0
 32 33  1  0
 33 34  1  0
  5 35  1  0
 35 36  1  0
M  END
> <chembl_id>
CHEMBL3545068

> <chembl_pref_name>
COPANLISIB HYDROCHLORIDE
