
     RDKit          2D

 43 46  0  0  0  0  0  0  0  0999 V2000
   -0.5379    1.1626    0.0000 C   0  0  0  0  0  0  0  0  0  0  0  0
   -0.7928    1.9472    0.0000 C   0  0  0  0  0  0  0  0  0  0  0  0
   -1.5998    2.1188    0.0000 C   0  0  0  0  0  0  0  0  0  0  0  0
   -2.1518    1.5056    0.0000 C   0  0  0  0  0  0  0  0  0  0  0  0
   -1.8969    0.7210    0.0000 C   0  0  0  0  0  0  0  0  0  0  0  0
   -1.0899    0.5495    0.0000 C   0  0  0  0  0  0  0  0  0  0  0  0
   -2.3094    0.0066    0.0000 N   0  0  0  0  0  0  0  0  0  0  0  0
   -1.0036   -0.2710    0.0000 C   0  0  0  0  0  0  0  0  0  0  0  0
   -1.7573   -0.6065    0.0000 C   0  0  0  0  0  0  0  0  0  0  0  0
    0.4253   -0.2709    0.0000 N   0  0  0  0  0  0  0  0  0  0  0  0
   -0.2892   -0.6835    0.0000 C   0  0  0  0  0  0  0  0  0  0  0  0
   -0.2892   -1.5085    0.0000 C   0  0  0  0  0  0  0  0  0  0  0  0
    0.4253   -1.9209    0.0000 C   0  0  0  0  0  0  0  0  0  0  0  0
    1.1398   -1.5084    0.0000 N   0  0  0  0  0  0  0  0  0  0  0  0
    1.1398   -0.6834    0.0000 C   0  0  0  0  0  0  0  0  0  0  0  0
    3.2832   -0.2709    0.0000 C   0  0  0  0  0  0  0  0  0  0  0  0
    2.5687   -0.6834    0.0000 C   0  0  0  0  0  0  0  0  0  0  0  0
    2.5687   -1.5084    0.0000 C   0  0  0  0  0  0  0  0  0  0  0  0
    3.2832   -1.9209    0.0000 C   0  0  0  0  0  0  0  0  0  0  0  0
    3.9977   -1.5084    0.0000 C   0  0  0  0  0  0  0  0  0  0  0  0
    3.9977   -0.6834    0.0000 C   0  0  0  0  0  0  0  0  0  0  0  0
   -3.1298   -0.0797    0.0000 C   0  0  0  0  0  0  0  0  0  0  0  0
   -1.0036   -1.9210    0.0000 C   0  0  0  0  0  0  0  0  0  0  0  0
   -1.0036   -2.7460    0.0000 O   0  0  0  0  0  0  0  0  0  0  0  0
   -1.7181   -1.5085    0.0000 O   0  0  0  0  0  0  0  0  0  0  0  0
   -2.4326   -1.9210    0.0000 C   0  0  0  0  0  0  0  0  0  0  0  0
    1.8542   -0.2709    0.0000 N   0  0  0  0  0  0  0  0  0  0  0  0
    1.8543   -1.9209    0.0000 O   0  0  0  0  0  0  0  0  0  0  0  0
    1.8543   -2.7459    0.0000 C   0  0  0  0  0  0  0  0  0  0  0  0
    4.7121   -0.2709    0.0000 N   0  0  0  0  0  0  0  0  0  0  0  0
    4.7121   -1.9209    0.0000 N   0  0  0  0  0  0  0  0  0  0  0  0
    4.7121    0.5541    0.0000 C   0  0  0  0  0  0  0  0  0  0  0  0
    5.4266    0.9666    0.0000 C   0  0  0  0  0  0  0  0  0  0  0  0
    3.9976    0.9666    0.0000 O   0  0  0  0  0  0  0  0  0  0  0  0
    5.4266    1.7916    0.0000 C   0  0  0  0  0  0  0  0  0  0  0  0
    4.7122   -2.7459    0.0000 C   0  0  0  0  0  0  0  0  0  0  0  0
    5.4266   -1.5084    0.0000 C   0  0  0  0  0  0  0  0  0  0  0  0
    6.1411   -1.9209    0.0000 C   0  0  0  0  0  0  0  0  0  0  0  0
    6.8556   -1.5084    0.0000 N   0  0  0  0  0  0  0  0  0  0  0  0
    7.5700   -1.9209    0.0000 C   0  0  0  0  0  0  0  0  0  0  0  0
    6.8555   -0.6834    0.0000 C   0  0  0  0  0  0  0  0  0  0  0  0
   -3.1470   -1.5085    0.0000 C   0  0  0  0  0  0  0  0  0  0  0  0
   -2.4326   -2.7460    0.0000 C   0  0  0  0  0  0  0  0  0  0  0  0
  1  2  2  0
  2  3  1  0
  3  4  2  0
  4  5  1  0
  5  6  2  0
  1  6  1  0
  8  9  2  0
  7  9  1  0
  6  8  1  0
  7  5  1  0
 10 11  2  0
 11 12  1  0
 12 13  2  0
 13 14  1  0
 14 15  2  0
 10 15  1  0
 16 17  1  0
 17 18  2  0
 18 19  1  0
 19 20  2  0
 20 21  1  0
 16 21  2  0
  7 22  1  0
  8 11  1  0
 12 23  1  0
 23 24  2  0
 23 25  1  0
 25 26  1  0
 15 27  1  0
 27 17  1  0
 18 28  1  0
 28 29  1  0
 21 30  1  0
 20 31  1  0
 30 32  1  0
 32 33  1  0
 32 34  2  0
 33 35  2  0
 31 36  1  0
 31 37  1  0
 37 38  1  0
 38 39  1  0
 39 40  1  0
 39 41  1  0
 26 42  1  0
 26 43  1  0
M  END
> <chembl_id>
CHEMBL4650319

> <chembl_pref_name>
MOBOCERTINIB
