
     RDKit          2D

 65 70  0  0  0  0  0  0  0  0999 V2000
   11.1293   -1.9571    0.0000 C   0  0  0  0  0  0  0  0  0  0  0  0
   11.9139   -1.7022    0.0000 C   0  0  0  0  0  0  0  0  0  0  0  0
   10.3447   -2.2121    0.0000 C   0  0  0  0  0  0  0  0  0  0  0  0
    9.7316   -1.6601    0.0000 C   0  0  0  0  0  0  0  0  0  0  0  0
    8.9470   -1.9150    0.0000 C   0  0  0  0  0  0  0  0  0  0  0  0
    8.7754   -2.7220    0.0000 C   0  0  0  0  0  0  0  0  0  0  0  0
    7.9908   -2.9769    0.0000 N   0  0  0  0  0  0  0  0  0  0  0  0
    9.3885   -3.2740    0.0000 C   0  0  0  0  0  0  0  0  0  0  0  0
   10.1731   -3.0191    0.0000 C   0  0  0  0  0  0  0  0  0  0  0  0
   10.8744   -1.1725    0.0000 C   0  0  0  0  0  0  0  0  0  0  0  0
   11.3842   -2.7418    0.0000 C   0  0  0  0  0  0  0  0  0  0  0  0
    4.5887    0.5305    0.0000 C   0  0  0  0  0  0  0  0  0  0  0  0
    5.1408    1.1436    0.0000 N   0  0  0  0  0  0  0  0  0  0  0  0
    5.8944    0.8080    0.0000 C   0  0  0  0  0  0  0  0  0  0  0  0
    5.8082   -0.0125    0.0000 C   0  0  0  0  0  0  0  0  0  0  0  0
    5.0012   -0.1840    0.0000 C   0  0  0  0  0  0  0  0  0  0  0  0
   10.4191   -4.8769    0.0000 C   0  0  0  0  0  0  0  0  0  0  0  0
   10.8316   -5.5914    0.0000 C   0  0  0  0  0  0  0  0  0  0  0  0
   10.4960   -6.3450    0.0000 C   0  0  0  0  0  0  0  0  0  0  0  0
    9.6756   -6.4313    0.0000 N   0  0  0  0  0  0  0  0  0  0  0  0
   10.9810   -7.0125    0.0000 O   0  0  0  0  0  0  0  0  0  0  0  0
   11.6386   -5.4198    0.0000 N   0  0  0  0  0  0  0  0  0  0  0  0
   11.7248   -4.5994    0.0000 C   0  0  0  0  0  0  0  0  0  0  0  0
   10.9711   -4.2638    0.0000 C   0  0  0  0  0  0  0  0  0  0  0  0
    4.1846    2.2055    0.0000 C   0  0  0  0  0  0  0  0  0  0  0  0
    4.0131    3.0125    0.0000 N   0  0  0  0  0  0  0  0  0  0  0  0
    4.9692    1.9505    0.0000 C   0  0  0  0  0  0  0  0  0  0  0  0
    5.5823    2.5026    0.0000 O   0  0  0  0  0  0  0  0  0  0  0  0
   12.2517   -5.9719    0.0000 C   0  0  0  0  0  0  0  0  0  0  0  0
   13.0363   -5.7169    0.0000 C   0  0  0  0  0  0  0  0  0  0  0  0
   13.2078   -4.9100    0.0000 N   0  0  0  0  0  0  0  0  0  0  0  0
   13.6494   -6.2690    0.0000 C   0  0  0  0  0  0  0  0  0  0  0  0
   14.4340   -6.0140    0.0000 C   0  0  0  0  0  0  0  0  0  0  0  0
   13.4779   -7.0759    0.0000 C   0  0  0  0  0  0  0  0  0  0  0  0
   12.0801   -6.7788    0.0000 O   0  0  0  0  0  0  0  0  0  0  0  0
    7.3234    0.8080    0.0000 N   0  0  0  0  0  0  0  0  0  0  0  0
    7.3234   -0.0170    0.0000 C   0  0  0  0  0  0  0  0  0  0  0  0
    6.6089   -0.4295    0.0000 C   0  0  0  0  0  0  0  0  0  0  0  0
    6.6089   -1.2545    0.0000 C   0  0  0  0  0  0  0  0  0  0  0  0
    7.3234   -1.6670    0.0000 C   0  0  0  0  0  0  0  0  0  0  0  0
    8.0378   -0.4295    0.0000 C   0  0  0  0  0  0  0  0  0  0  0  0
    8.0378   -1.2545    0.0000 C   0  0  0  0  0  0  0  0  0  0  0  0
    7.7359   -3.7615    0.0000 C   0  0  0  0  0  0  0  0  0  0  0  0
    7.3234   -2.4920    0.0000 C   0  0  0  0  0  0  0  0  0  0  0  0
    6.6559   -2.9769    0.0000 C   0  0  0  0  0  0  0  0  0  0  0  0
    6.9109   -3.7615    0.0000 C   0  0  0  0  0  0  0  0  0  0  0  0
    8.2208   -4.4290    0.0000 C   0  0  0  0  0  0  0  0  0  0  0  0
    9.0413   -4.3427    0.0000 C   0  0  0  0  0  0  0  0  0  0  0  0
    9.5262   -5.0102    0.0000 C   0  0  0  0  0  0  0  0  0  0  0  0
    9.1906   -5.7638    0.0000 C   0  0  0  0  0  0  0  0  0  0  0  0
    7.8852   -5.1826    0.0000 C   0  0  0  0  0  0  0  0  0  0  0  0
    8.3702   -5.8501    0.0000 C   0  0  0  0  0  0  0  0  0  0  0  0
    6.6089    2.0455    0.0000 O   0  0  0  0  0  0  0  0  0  0  0  0
    6.6089    1.2205    0.0000 C   0  0  0  0  0  0  0  0  0  0  0  0
    3.5715    1.6535    0.0000 C   0  0  0  0  0  0  0  0  0  0  0  0
    3.7430    0.8465    0.0000 C   0  0  0  0  0  0  0  0  0  0  0  0
    2.7869    1.9084    0.0000 C   0  0  0  0  0  0  0  0  0  0  0  0
    2.6154    2.7154    0.0000 O   0  0  0  0  0  0  0  0  0  0  0  0
    3.2285    3.2674    0.0000 C   0  0  0  0  0  0  0  0  0  0  0  0
    3.0569    4.0744    0.0000 O   0  0  0  0  0  0  0  0  0  0  0  0
   14.1640   -3.8481    0.0000 O   0  0  0  0  0  0  0  0  0  0  0  0
   13.9924   -4.6550    0.0000 C   0  0  0  0  0  0  0  0  0  0  0  0
   14.6055   -5.2071    0.0000 O   0  0  0  0  0  0  0  0  0  0  0  0
    2.2723    4.3293    0.0000 C   0  0  0  0  0  0  0  0  0  0  0  0
   13.5509   -3.2960    0.0000 C   0  0  0  0  0  0  0  0  0  0  0  0
  1  2  1  0
  1  3  1  0
  1 10  1  0
  3  9  2  0
  4  3  1  0
  5  4  2  0
  5  6  1  0
  6  8  2  0
  7  6  1  0
  7 43  1  0
  9  8  1  0
 11  1  1  0
 12 13  1  0
 14 13  1  0
 14 15  1  0
 15 16  1  0
 16 12  1  0
 17 18  1  0
 18 22  1  0
 18 19  1  6
 19 20  1  0
 20 50  1  0
 21 19  2  0
 22 29  1  0
 23 22  1  0
 23 24  1  0
 24 17  1  0
 25 26  1  6
 25 27  1  0
 27 13  1  0
 28 27  2  0
 29 35  2  0
 30 31  1  0
 30 32  1  1
 30 29  1  0
 31 62  1  0
 32 34  1  0
 33 32  1  0
 36 37  1  0
 37 41  2  0
 38 37  1  0
 38 39  2  0
 40 39  1  0
 44 40  1  1
 41 42  1  0
 42 40  2  0
 43 47  1  6
 44 45  1  0
 44  7  1  0
 45 46  1  0
 46 43  1  0
 47 48  2  0
 47 51  1  0
 49 48  1  0
 50 49  2  0
 51 52  2  0
 52 50  1  0
 53 54  2  0
 54 36  1  0
 55 56  1  0
 25 55  1  0
 57 55  1  0
 58 59  2  0
 59 60  1  0
 59 26  1  0
 60 64  1  0
 61 62  1  0
 62 63  2  0
 65 61  1  0
 14 54  1  6
M  END
> <chembl_id>
CHEMBL3127326

> <chembl_pref_name>
OMBITASVIR
