
     RDKit          2D

 29 30  0  0  0  0  0  0  0  0999 V2000
    4.1839   -2.0330    0.0000 Cl  0  0  0  0  0  0  0  0  0  0  0  0
   -0.4117    3.0501    0.0000 C   0  0  0  0  0  0  0  0  0  0  0  0
    0.3028    2.6376    0.0000 N   0  0  0  0  0  0  0  0  0  0  0  0
    1.0173    3.0501    0.0000 C   0  0  0  0  0  0  0  0  0  0  0  0
    0.3028    1.8126    0.0000 C   0  0  0  0  0  0  0  0  0  0  0  0
   -0.4117    1.4001    0.0000 O   0  0  0  0  0  0  0  0  0  0  0  0
    1.0173    1.4000    0.0000 N   0  0  0  0  0  0  0  0  0  0  0  0
    1.0173    0.5751    0.0000 C   0  0  0  0  0  0  0  0  0  0  0  0
    1.7317    0.1625    0.0000 C   0  0  0  0  0  0  0  0  0  0  0  0
    1.7317   -0.6625    0.0000 C   0  0  0  0  0  0  0  0  0  0  0  0
    1.0173   -1.0750    0.0000 C   0  0  0  0  0  0  0  0  0  0  0  0
    0.3028   -0.6624    0.0000 C   0  0  0  0  0  0  0  0  0  0  0  0
    0.3028    0.1626    0.0000 C   0  0  0  0  0  0  0  0  0  0  0  0
    1.0173   -1.9000    0.0000 C   0  0  0  0  0  0  0  0  0  0  0  0
    1.7317   -2.3125    0.0000 C   0  0  0  0  0  0  0  0  0  0  0  0
    1.7317   -3.1375    0.0000 N   0  0  0  0  0  0  0  0  0  0  0  0
    2.4462   -3.5500    0.0000 C   0  0  0  0  0  0  0  0  0  0  0  0
    2.4462   -4.3750    0.0000 C   0  0  0  0  0  0  0  0  0  0  0  0
    1.7317   -4.7875    0.0000 N   0  0  0  0  0  0  0  0  0  0  0  0
    1.0173   -4.3750    0.0000 C   0  0  0  0  0  0  0  0  0  0  0  0
    1.0173   -3.5500    0.0000 C   0  0  0  0  0  0  0  0  0  0  0  0
    1.7317   -5.6125    0.0000 C   0  0  0  0  0  0  0  0  0  0  0  0
    1.0173   -6.0250    0.0000 C   0  0  0  0  0  0  0  0  0  0  0  0
    2.4462   -6.0250    0.0000 C   0  0  0  0  0  0  0  0  0  0  0  0
    2.4462   -6.8500    0.0000 C   0  0  0  0  0  0  0  0  0  0  0  0
    1.7317   -7.2625    0.0000 C   0  0  0  0  0  0  0  0  0  0  0  0
    1.0173   -6.8500    0.0000 C   0  0  0  0  0  0  0  0  0  0  0  0
    0.3028   -5.6125    0.0000 Cl  0  0  0  0  0  0  0  0  0  0  0  0
    0.3028   -7.2625    0.0000 Cl  0  0  0  0  0  0  0  0  0  0  0  0
  2  3  1  0
  3  4  1  0
  3  5  1  0
  5  6  2  0
  5  7  1  0
  8  9  1  0
  8 13  1  0
  9 10  1  0
 10 11  1  0
 11 12  1  0
 12 13  1  0
 11 14  1  6
 14 15  1  0
 15 16  1  0
 16 17  1  0
 16 21  1  0
 17 18  1  0
 18 19  1  0
 19 20  1  0
 20 21  1  0
 19 22  1  0
 23 22  2  0
 22 24  1  0
 23 27  1  0
 24 25  2  0
 25 26  1  0
 26 27  2  0
 23 28  1  0
 27 29  1  0
  8  7  1  1
M  END
> <chembl_id>
CHEMBL2024517

> <chembl_pref_name>
CARIPRAZINE HYDROCHLORIDE
