
     RDKit          2D

 20 20  0  0  0  0  0  0  0  0999 V2000
    5.7125   -1.0625    0.0000 Cl  0  0  0  0  0  0  0  0  0  0  0  0
    3.2375   -1.9750    0.0000 C   0  0  0  0  0  0  0  0  0  0  0  0
    3.8542   -2.3292    0.0000 O   0  0  0  0  0  0  0  0  0  0  0  0
    3.2292   -1.2792    0.0000 O   0  0  0  0  0  0  0  0  0  0  0  0
    2.6250   -2.3417    0.0000 C   0  0  0  0  0  0  0  0  0  0  0  0
    5.7000   -1.9417    0.0000 N   0  0  0  0  0  0  0  0  0  0  0  0
    5.0875   -2.3167    0.0000 C   0  0  0  0  0  0  0  0  0  0  0  0
    4.4667   -1.9625    0.0000 C   0  0  0  0  0  0  0  0  0  0  0  0
    6.3042   -2.3125    0.0000 C   0  0  0  0  0  0  0  0  0  0  0  0
    2.0042   -1.9917    0.0000 C   0  0  0  0  0  0  0  0  0  0  0  0
    2.6292   -3.0417    0.0000 C   0  0  0  0  0  0  0  0  0  0  0  0
    6.9167   -1.9542    0.0000 C   0  0  0  0  0  0  0  0  0  0  0  0
    6.3000   -3.0292    0.0000 C   0  0  0  0  0  0  0  0  0  0  0  0
    4.4542   -1.2625    0.0000 C   0  0  0  0  0  0  0  0  0  0  0  0
    1.3917   -2.3542    0.0000 C   0  0  0  0  0  0  0  0  0  0  0  0
    2.0250   -3.4125    0.0000 C   0  0  0  0  0  0  0  0  0  0  0  0
    6.9042   -3.3917    0.0000 C   0  0  0  0  0  0  0  0  0  0  0  0
    7.5250   -2.3250    0.0000 C   0  0  0  0  0  0  0  0  0  0  0  0
    1.4042   -3.0542    0.0000 C   0  0  0  0  0  0  0  0  0  0  0  0
    7.5167   -3.0417    0.0000 C   0  0  0  0  0  0  0  0  0  0  0  0
  3  2  1  0
  4  2  2  0
  5  2  1  0
  6  7  1  0
  7  8  1  0
  8  3  1  0
  9  6  1  0
 10  5  2  0
 11  5  1  0
 12  9  1  0
 13  9  1  0
 14  8  1  0
 15 10  1  0
 16 11  2  0
 17 13  1  0
 18 12  1  0
 19 15  2  0
 20 18  1  0
 19 16  1  0
 20 17  1  0
M  END
> <chembl_id>
CHEMBL1200715

> <chembl_pref_name>
HEXYLCAINE HYDROCHLORIDE
