
     RDKit          2D

 20 19  0  0  0  0  0  0  0  0999 V2000
    2.0250   -1.4667    0.0000 C   0  0  0  0  0  0  0  0  0  0  0  0
    3.2500   -1.4667    0.0000 N   0  0  0  0  0  0  0  0  0  0  0  0
    1.4125   -1.8292    0.0000 C   0  0  0  0  0  0  0  0  0  0  0  0
    2.6375   -1.8250    0.0000 C   0  0  0  0  0  0  0  0  0  0  0  0
    0.8000   -1.4750    0.0000 C   0  0  0  0  0  0  0  0  0  0  0  0
    1.4125   -2.5417    0.0000 C   0  0  0  0  0  0  0  0  0  0  0  0
    2.6417   -2.5292    0.0000 C   0  0  0  0  0  0  0  0  0  0  0  0
    0.8000   -2.8917    0.0000 C   0  0  0  0  0  0  0  0  0  0  0  0
    0.1875   -1.8292    0.0000 C   0  0  0  0  0  0  0  0  0  0  0  0
    0.1875   -2.5417    0.0000 C   0  0  0  0  0  0  0  0  0  0  0  0
    3.2667   -4.0292    0.0000 C   0  0  0  0  0  0  0  0  0  0  0  0
    0.2042   -4.3792    0.0000 C   0  0  0  0  0  0  0  0  0  0  0  0
    3.2667   -3.3250    0.0000 O   0  0  0  0  0  0  0  0  0  0  0  0
    0.2042   -5.0917    0.0000 O   0  0  0  0  0  0  0  0  0  0  0  0
   -0.4125   -4.0292    0.0000 O   0  0  0  0  0  0  0  0  0  0  0  0
    3.8792   -4.3792    0.0000 O   0  0  0  0  0  0  0  0  0  0  0  0
    0.8167   -4.0292    0.0000 C   0  0  0  0  0  0  0  0  0  0  0  0
    2.6542   -4.3792    0.0000 C   0  0  0  0  0  0  0  0  0  0  0  0
    2.0417   -4.0292    0.0000 C   0  0  0  0  0  0  0  0  0  0  0  0
    1.4292   -4.3792    0.0000 C   0  0  0  0  0  0  0  0  0  0  0  0
  2  4  1  0
  3  1  1  0
  4  1  1  0
  5  3  2  0
  6  3  1  0
  7  4  1  0
  8  6  2  0
  9  5  1  0
 10  8  1  0
 10  9  2  0
 12 17  1  0
 13 11  2  0
 14 12  2  0
 15 12  1  0
 16 11  1  0
 17 20  1  0
 18 11  1  0
 19 18  1  0
 20 19  1  0
M  END
> <chembl_id>
CHEMBL1200387

> <chembl_pref_name>
AMPHETAMINE ADIPATE
