
     RDKit          2D

 25 26  0  0  0  0  0  0  0  0999 V2000
    7.2417   -8.0917    0.0000 K   0  0  0  0  0 15  0  0  0  0  0  0
    5.2917   -6.7375    0.0000 N   0  0  0  0  0  0  0  0  0  0  0  0
    5.2917   -6.0292    0.0000 C   0  0  0  0  0  0  0  0  0  0  0  0
    4.5875   -6.7375    0.0000 C   0  0  0  0  0  0  0  0  0  0  0  0
    4.5875   -6.0292    0.0000 C   0  0  0  0  0  0  0  0  0  0  0  0
    5.9667   -6.9542    0.0000 C   0  0  0  0  0  0  0  0  0  0  0  0
    5.9667   -5.8042    0.0000 S   0  0  0  0  0  0  0  0  0  0  0  0
    6.3875   -6.3792    0.0000 C   0  0  0  0  0  0  0  0  0  0  0  0
    3.9667   -5.6750    0.0000 N   0  0  0  0  0  0  0  0  0  0  0  0
    5.9667   -7.6625    0.0000 C   0  0  0  0  0  0  0  0  0  0  0  0
    3.3500   -6.0292    0.0000 C   0  0  0  0  0  0  0  0  0  0  0  0
    4.0792   -7.2417    0.0000 O   0  0  0  0  0  0  0  0  0  0  0  0
    6.5750   -8.0167    0.0000 O   0  0  0  0  0  0  0  0  0  0  0  0
    5.3417   -8.0042    0.0000 O   0  0  0  0  0  0  0  0  0  0  0  0
    3.3500   -6.7375    0.0000 O   0  0  0  0  0  0  0  0  0  0  0  0
    2.7375   -5.6750    0.0000 C   0  0  0  0  0  0  0  0  0  0  0  0
    7.0000   -6.0167    0.0000 C   0  0  0  0  0  0  0  0  0  0  0  0
    7.0000   -6.7292    0.0000 C   0  0  0  0  0  0  0  0  0  0  0  0
    2.1250   -6.0292    0.0000 C   0  0  0  0  0  0  0  0  0  0  0  0
    1.5125   -5.6667    0.0000 C   0  0  0  0  0  0  0  0  0  0  0  0
    2.1250   -6.7292    0.0000 C   0  0  0  0  0  0  0  0  0  0  0  0
    1.5167   -7.0875    0.0000 C   0  0  0  0  0  0  0  0  0  0  0  0
    0.9000   -6.0250    0.0000 C   0  0  0  0  0  0  0  0  0  0  0  0
    0.9000   -6.7292    0.0000 C   0  0  0  0  0  0  0  0  0  0  0  0
    5.2875   -5.3167    0.0000 H   0  0  0  0  0  0  0  0  0  0  0  0
  3  2  1  0
  4  2  1  0
  5  4  1  0
  6  2  1  0
  7  3  1  0
  8  6  1  0
  5  9  1  1
  6 10  1  6
 11  9  1  0
 12  4  2  0
 13 10  1  0
 14 10  2  0
 15 11  2  0
 16 11  1  0
 17  8  1  0
 18  8  1  0
 19 16  1  0
 20 19  2  0
 21 19  1  0
 22 21  2  0
 23 20  1  0
 24 23  2  0
  3 25  1  6
  7  8  1  0
  5  3  1  0
 24 22  1  0
M  CHG  2   1   1  13  -1
M  END
> <chembl_id>
CHEMBL1223

> <chembl_pref_name>
PENICILLIN G POTASSIUM
