
     RDKit          2D

 19 21  0  0  0  0  0  0  0  0999 V2000
    4.9042   -3.5667    0.0000 N   0  0  0  0  0  0  0  0  0  0  0  0
    4.4167   -2.9042    0.0000 C   0  0  0  0  0  0  0  0  0  0  0  0
    6.1375   -2.8542    0.0000 C   0  0  0  0  0  0  0  0  0  0  0  0
    3.6292   -3.9792    0.0000 C   0  0  0  0  0  0  0  0  0  0  0  0
    6.9667   -2.8667    0.0000 N   0  0  0  0  0  0  0  0  0  0  0  0
    3.6375   -3.1542    0.0000 C   0  0  0  0  0  0  0  0  0  0  0  0
    5.7292   -3.5750    0.0000 C   0  0  0  0  0  0  0  0  0  0  0  0
    4.4167   -4.2375    0.0000 C   0  0  0  0  0  0  0  0  0  0  0  0
    7.3750   -3.5792    0.0000 C   0  0  0  0  0  0  0  0  0  0  0  0
    6.1375   -4.2917    0.0000 C   0  0  0  0  0  0  0  0  0  0  0  0
    4.6750   -2.1167    0.0000 O   0  0  0  0  0  0  0  0  0  0  0  0
    2.9167   -4.3917    0.0000 C   0  0  0  0  0  0  0  0  0  0  0  0
    5.7250   -2.1417    0.0000 O   0  0  0  0  0  0  0  0  0  0  0  0
    8.2000   -3.5792    0.0000 O   0  0  0  0  0  0  0  0  0  0  0  0
    6.9542   -4.2917    0.0000 C   0  0  0  0  0  0  0  0  0  0  0  0
    2.9042   -5.2167    0.0000 N   0  0  0  0  0  0  0  0  0  0  0  0
    2.9250   -2.7417    0.0000 C   0  0  0  0  0  0  0  0  0  0  0  0
    2.2125   -3.1542    0.0000 C   0  0  0  0  0  0  0  0  0  0  0  0
    2.2042   -3.9792    0.0000 C   0  0  0  0  0  0  0  0  0  0  0  0
  2  1  1  0
  3  7  1  0
  4  8  1  0
  5  3  1  0
  6  2  1  0
  7  1  1  0
  8  1  1  0
  9 15  1  0
 10  7  1  0
 11  2  2  0
 12  4  2  0
 13  3  2  0
 14  9  2  0
 15 10  1  0
 16 12  1  0
 17  6  2  0
 18 17  1  0
 19 12  1  0
  6  4  1  0
 18 19  2  0
  5  9  1  0
M  END
> <chembl_id>
CHEMBL848

> <chembl_pref_name>
LENALIDOMIDE
