
     RDKit          2D

 32 33  0  0  0  0  0  0  0  0999 V2000
   -3.2974  -11.3858    0.0000 C   0  0  0  0  0  0  0  0  0  0  0  0
   -2.8480  -12.0776    0.0000 C   0  0  0  0  0  0  0  0  0  0  0  0
   -3.2225  -12.8127    0.0000 O   0  0  0  0  0  0  0  0  0  0  0  0
   -2.0241  -12.0345    0.0000 C   0  0  0  0  0  0  0  0  0  0  0  0
   -1.5748  -12.7264    0.0000 O   0  0  0  0  0  0  0  0  0  0  0  0
   -1.6496  -11.2994    0.0000 O   0  0  0  0  0  0  0  0  0  0  0  0
   -5.4257  -14.1292    0.0000 C   0  0  0  0  0  0  0  0  0  0  0  0
   -3.9912  -14.9406    0.0000 N   0  0  0  0  0  0  0  0  0  0  0  0
   -5.4208  -14.9455    0.0000 C   0  0  0  0  0  0  0  0  0  0  0  0
   -4.7012  -13.6994    0.0000 C   0  0  0  0  0  0  0  0  0  0  0  0
   -6.1453  -13.7139    0.0000 C   0  0  0  0  0  0  0  0  0  0  0  0
   -1.1369  -14.9310    0.0000 C   0  0  0  0  0  0  0  0  0  0  0  0
   -0.4269  -15.3367    0.0000 C   0  0  0  0  0  0  0  0  0  0  0  0
   -1.1465  -14.1002    0.0000 O   0  0  0  0  0  0  0  0  0  0  0  0
   -4.0009  -14.1147    0.0000 C   0  0  0  0  0  0  0  0  0  0  0  0
   -4.6964  -15.3559    0.0000 C   0  0  0  0  0  0  0  0  0  0  0  0
   -6.8601  -14.1196    0.0000 C   0  0  0  0  0  0  0  0  0  0  0  0
   -6.1453  -12.8880    0.0000 C   0  0  0  0  0  0  0  0  0  0  0  0
   -0.4269  -16.1626    0.0000 C   0  0  0  0  0  0  0  0  0  0  0  0
    0.2735  -14.9261    0.0000 C   0  0  0  0  0  0  0  0  0  0  0  0
   -5.4353  -13.3033    0.0000 O   0  0  0  0  0  0  0  0  0  0  0  0
    1.0076  -16.1481    0.0000 C   0  0  0  0  0  0  0  0  0  0  0  0
   -7.5652  -12.8831    0.0000 C   0  0  0  0  0  0  0  0  0  0  0  0
    0.2831  -16.5828    0.0000 C   0  0  0  0  0  0  0  0  0  0  0  0
    0.9979  -15.3367    0.0000 C   0  0  0  0  0  0  0  0  0  0  0  0
   -6.8553  -12.4726    0.0000 C   0  0  0  0  0  0  0  0  0  0  0  0
   -7.5701  -13.7139    0.0000 C   0  0  0  0  0  0  0  0  0  0  0  0
    1.7320  -16.5489    0.0000 F   0  0  0  0  0  0  0  0  0  0  0  0
   -8.2946  -12.4678    0.0000 Cl  0  0  0  0  0  0  0  0  0  0  0  0
   -3.2668  -15.3512    0.0000 C   0  0  0  0  0  0  0  0  0  0  0  0
   -2.5664  -14.9310    0.0000 C   0  0  0  0  0  0  0  0  0  0  0  0
   -1.8468  -15.3367    0.0000 C   0  0  0  0  0  0  0  0  0  0  0  0
  1  2  1  0
  2  3  1  0
  2  4  1  0
  4  5  1  0
  4  6  2  0
  8 15  1  0
  9  7  1  0
 10  7  1  0
 11  7  1  0
 12 32  1  0
 13 12  1  0
 14 12  2  0
 15 10  1  0
 16  9  1  0
 17 11  1  0
 18 11  2  0
 19 13  2  0
 20 13  1  0
 21  7  1  0
 22 25  1  0
 23 26  2  0
 24 19  1  0
 25 20  2  0
 26 18  1  0
 27 17  2  0
 28 22  1  0
 29 23  1  0
 30  8  1  0
 31 30  1  0
 32 31  1  0
 16  8  1  0
 27 23  1  0
 24 22  2  0
M  END
> <chembl_id>
CHEMBL4297147

> <chembl_pref_name>
HALOPERIDOL LACTATE
