
     RDKit          2D

 18 17  0  0  0  0  0  0  0  0999 V2000
    1.8292    0.8000    0.0000 Cl  0  0  0  0  0  0  0  0  0  0  0  0
   -1.7750    1.0792    0.0000 C   0  0  0  0  0  0  0  0  0  0  0  0
   -2.3875    1.4333    0.0000 C   0  0  0  0  0  0  0  0  0  0  0  0
   -0.5500    1.0833    0.0000 C   0  0  0  0  0  0  0  0  0  0  0  0
   -3.0000    1.0792    0.0000 C   0  0  0  0  0  0  0  0  0  0  0  0
   -0.5542    0.3792    0.0000 N   0  0  0  0  0  0  0  0  0  0  0  0
   -1.1625    1.4333    0.0000 C   0  0  0  0  0  0  0  0  0  0  0  0
   -3.0000    0.3667    0.0000 C   0  0  0  0  0  0  0  0  0  0  0  0
   -1.7750    0.3667    0.0000 C   0  0  0  0  0  0  0  0  0  0  0  0
   -2.3875    0.0167    0.0000 C   0  0  0  0  0  0  0  0  0  0  0  0
   -3.6125    1.4333    0.0000 O   0  0  0  0  0  0  0  0  0  0  0  0
   -1.1667    2.1458    0.0000 O   0  0  0  0  0  0  0  0  0  0  0  0
   -3.6125    0.0208    0.0000 O   0  0  0  0  0  0  0  0  0  0  0  0
    0.0583    0.0208    0.0000 C   0  0  0  0  0  0  0  0  0  0  0  0
    0.0625    1.4417    0.0000 C   0  0  0  0  0  0  0  0  0  0  0  0
    0.6708    0.3792    0.0000 C   0  0  0  0  0  0  0  0  0  0  0  0
    0.0583   -0.6833    0.0000 C   0  0  0  0  0  0  0  0  0  0  0  0
    0.6750    1.0917    0.0000 C   0  0  0  0  0  0  0  0  0  0  0  0
  3  2  2  0
  4  7  1  0
  5  3  1  0
  4  6  1  0
  7  2  1  0
  8 10  1  0
  9  2  1  0
 10  9  2  0
 11  5  1  0
  7 12  1  0
 13  8  1  0
 14  6  1  0
 15  4  1  0
 16 14  1  0
 17 14  1  0
 18 15  1  0
  8  5  2  0
M  END
> <chembl_id>
CHEMBL1200920

> <chembl_pref_name>
ISOETHARINE HYDROCHLORIDE
