
     RDKit          2D

 31 33  0  0  0  0  0  0  0  0999 V2000
    5.0875   -7.3417    0.0000 Na  0  0  0  0  0 15  0  0  0  0  0  0
    3.1167   -5.8792    0.0000 N   0  0  0  0  0  0  0  0  0  0  0  0
    2.4042   -5.8792    0.0000 C   0  0  0  0  0  0  0  0  0  0  0  0
    3.1167   -5.1667    0.0000 C   0  0  0  0  0  0  0  0  0  0  0  0
    2.4042   -5.1667    0.0000 C   0  0  0  0  0  0  0  0  0  0  0  0
    3.7167   -6.2417    0.0000 C   0  0  0  0  0  0  0  0  0  0  0  0
    6.7417   -5.8167    0.0000 S   0  0  0  0  0  0  0  0  0  0  0  0
   -1.2000   -5.2167    0.0000 N   0  0  0  0  0  0  0  0  0  0  0  0
    3.7167   -4.8167    0.0000 S   0  0  0  0  0  0  0  0  0  0  0  0
   -0.6208   -4.7917    0.0000 N   0  0  0  0  0  0  0  0  0  0  0  0
   -0.0375   -5.2042    0.0000 N   0  0  0  0  0  0  0  0  0  0  0  0
    4.3417   -5.8792    0.0000 C   0  0  0  0  0  0  0  0  0  0  0  0
    6.1667   -6.2417    0.0000 C   0  0  0  0  0  0  0  0  0  0  0  0
   -0.9625   -5.8875    0.0000 N   0  0  0  0  0  0  0  0  0  0  0  0
    6.3750   -6.9125    0.0000 N   0  0  0  0  0  0  0  0  0  0  0  0
    7.0917   -6.9167    0.0000 N   0  0  0  0  0  0  0  0  0  0  0  0
    1.7792   -4.8167    0.0000 N   0  0  0  0  0  0  0  0  0  0  0  0
    3.7167   -6.9417    0.0000 C   0  0  0  0  0  0  0  0  0  0  0  0
    7.3125   -6.2417    0.0000 C   0  0  0  0  0  0  0  0  0  0  0  0
   -0.2625   -5.8875    0.0000 C   0  0  0  0  0  0  0  0  0  0  0  0
    1.1917   -5.1792    0.0000 C   0  0  0  0  0  0  0  0  0  0  0  0
    0.5667   -4.8500    0.0000 C   0  0  0  0  0  0  0  0  0  0  0  0
    4.3417   -5.1667    0.0000 C   0  0  0  0  0  0  0  0  0  0  0  0
    1.9000   -6.3792    0.0000 O   0  0  0  0  0  0  0  0  0  0  0  0
    5.5542   -5.8792    0.0000 S   0  0  0  0  0  0  0  0  0  0  0  0
    4.9417   -6.2417    0.0000 C   0  0  0  0  0  0  0  0  0  0  0  0
    4.3167   -7.3000    0.0000 O   0  0  0  0  0  0  0  0  0  0  0  0
    3.0875   -7.3000    0.0000 O   0  0  0  0  0  0  0  0  0  0  0  0
    1.2042   -5.8875    0.0000 O   0  0  0  0  0  0  0  0  0  0  0  0
    7.9917   -6.0167    0.0000 C   0  0  0  0  0  0  0  0  0  0  0  0
    3.1125   -4.4542    0.0000 H   0  0  0  0  0  0  0  0  0  0  0  0
  3  2  1  0
  4  2  1  0
  5  4  1  0
  6  2  1  0
  7 13  1  0
  8 10  2  0
  9  4  1  0
 10 11  1  0
 11 22  1  0
 12  6  2  0
 13 25  1  0
 14 20  2  0
 15 13  2  0
 16 15  1  0
  5 17  1  1
 18  6  1  0
 19  7  1  0
 20 11  1  0
 21 17  1  0
 22 21  1  0
 23 12  1  0
 24  3  2  0
 25 26  1  0
 26 12  1  0
 27 18  1  0
 28 18  2  0
 29 21  2  0
 30 19  1  0
  4 31  1  6
  5  3  1  0
 23  9  1  0
 16 19  2  0
  8 14  1  0
M  CHG  2   1   1  27  -1
M  END
> <chembl_id>
CHEMBL1200523

> <chembl_pref_name>
CEFAZOLIN SODIUM
