
     RDKit          2D

 22 23  0  0  0  0  0  0  0  0999 V2000
   -0.8833   -0.2292    0.0000 N   0  0  0  0  0  0  0  0  0  0  0  0
   -0.3583    0.0833    0.0000 C   0  0  0  0  0  0  0  0  0  0  0  0
    0.6875    0.6958    0.0000 C   0  0  0  0  0  0  0  0  0  0  0  0
    0.1667    0.9958    0.0000 N   0  0  0  0  0  0  0  0  0  0  0  0
   -0.3583    0.6958    0.0000 C   0  0  0  0  0  0  0  0  0  0  0  0
   -1.4208    0.0708    0.0000 C   0  0  0  0  0  0  0  0  0  0  0  0
   -1.9333   -0.2542    0.0000 N   0  0  0  0  0  0  0  0  0  0  0  0
    0.6875    0.2083    0.0000 O   0  0  0  0  0  0  0  0  0  0  0  0
   -0.8958    0.9833    0.0000 C   0  0  0  0  0  0  0  0  0  0  0  0
    0.1792   -0.2125    0.0000 N   0  0  0  0  0  0  0  0  0  0  0  0
   -1.4208    0.6833    0.0000 C   0  0  0  0  0  0  0  0  0  0  0  0
    1.2250    1.0083    0.0000 O   0  0  0  0  0  0  0  0  0  0  0  0
   -2.4583    0.0375    0.0000 C   0  0  0  0  0  0  0  0  0  0  0  0
   -3.9833   -0.8625    0.0000 C   0  0  0  0  0  0  0  0  0  0  0  0
   -2.9708   -0.2667    0.0000 C   0  0  0  0  0  0  0  0  0  0  0  0
   -4.4958   -1.1417    0.0000 F   0  0  0  0  0  0  0  0  0  0  0  0
   -3.9833   -0.2667    0.0000 C   0  0  0  0  0  0  0  0  0  0  0  0
   -3.4708   -1.1667    0.0000 C   0  0  0  0  0  0  0  0  0  0  0  0
   -3.4708    0.0208    0.0000 C   0  0  0  0  0  0  0  0  0  0  0  0
   -2.9708   -0.8625    0.0000 C   0  0  0  0  0  0  0  0  0  0  0  0
    1.7417    0.7000    0.0000 C   0  0  0  0  0  0  0  0  0  0  0  0
    2.2792    1.0000    0.0000 C   0  0  0  0  0  0  0  0  0  0  0  0
  2  1  1  0
  3  4  1  0
  4  5  1  0
  5  2  2  0
  6  1  2  0
  7  6  1  0
  8  3  2  0
  9 11  2  0
 10  2  1  0
 11  6  1  0
 12  3  1  0
 13  7  1  0
 14 18  2  0
 15 13  1  0
 16 14  1  0
 17 19  2  0
 18 20  1  0
 19 15  1  0
 20 15  2  0
 21 12  1  0
 22 21  1  0
  5  9  1  0
 17 14  1  0
M  END
> <chembl_id>
CHEMBL255044

> <chembl_pref_name>
FLUPIRTINE
