
     RDKit          2D

 45 51  0  0  1  0  0  0  0  0999 V2000
    2.0417   -0.3667    0.0000 N   0  0  0  0  0  0  0  0  0  0  0  0
    1.5042    0.0583    0.0000 C   0  0  0  0  0  0  0  0  0  0  0  0
    1.0375   -0.9042    0.0000 C   0  0  0  0  0  0  0  0  0  0  0  0
    1.7417   -1.0042    0.0000 C   0  0  0  0  0  0  0  0  0  0  0  0
    0.9417   -0.2667    0.0000 O   0  0  0  0  0  0  0  0  0  0  0  0
   -1.6958    0.3208    0.0000 C   0  0  0  0  0  0  0  0  0  0  0  0
   -3.0583    0.3208    0.0000 C   0  0  0  0  0  0  0  0  0  0  0  0
    2.7000   -0.1250    0.0000 C   0  0  0  0  0  0  0  0  0  0  0  0
    2.8000    0.5625    0.0000 C   0  0  0  0  0  0  0  0  0  0  0  0
    2.2542    0.9958    0.0000 N   0  0  0  0  0  0  0  0  0  0  0  0
   -3.6833    0.5833    0.0000 C   0  0  0  0  0  0  0  0  0  0  0  0
    0.3542   -0.8667    0.0000 N   0  0  0  0  0  0  0  0  0  0  0  0
   -2.7208    0.9083    0.0000 C   0  0  0  0  0  0  0  0  0  0  0  0
    1.6167    0.7500    0.0000 C   0  0  0  0  0  0  0  0  0  0  0  0
   -2.0375    0.9083    0.0000 C   0  0  0  0  0  0  0  0  0  0  0  0
   -2.0375   -0.2667    0.0000 C   0  0  0  0  0  0  0  0  0  0  0  0
   -1.0083    0.3208    0.0000 C   0  0  0  0  0  0  0  0  0  0  0  0
   -3.6833    1.2833    0.0000 N   0  0  0  0  0  0  0  0  0  0  0  0
   -0.6708   -0.2667    0.0000 C   0  0  0  0  0  0  0  0  0  0  0  0
   -1.6958   -0.8667    0.0000 N   0  0  0  0  0  0  0  0  0  0  0  0
    0.0167   -0.2667    0.0000 C   0  0  0  0  0  0  0  0  0  0  0  0
   -3.0583    1.4958    0.0000 C   0  0  0  0  0  0  0  0  0  0  0  0
   -2.7208   -0.2667    0.0000 C   0  0  0  0  0  0  0  0  0  0  0  0
   -1.0083   -0.8667    0.0000 C   0  0  0  0  0  0  0  0  0  0  0  0
    2.0667   -1.6042    0.0000 O   0  0  0  0  0  0  0  0  0  0  0  0
    3.4375    0.8125    0.0000 O   0  0  0  0  0  0  0  0  0  0  0  0
    0.9417    0.2083    0.0000 O   0  0  0  0  0  0  0  0  0  0  0  0
    3.2250   -0.5500    0.0000 C   0  0  0  0  0  0  0  0  0  0  0  0
    0.8917   -1.5792    0.0000 C   0  0  0  0  0  0  0  0  0  0  0  0
    0.1792    0.3333    0.0000 O   0  0  0  0  0  0  0  0  0  0  0  0
   -4.2708    0.2000    0.0000 Br  0  0  0  0  0  0  0  0  0  0  0  0
    2.2667    1.6958    0.0000 C   0  0  0  0  0  0  0  0  0  0  0  0
   -1.6958    1.4958    0.0000 C   0  0  0  0  0  0  0  0  0  0  0  0
   -2.0375   -1.4542    0.0000 C   0  0  0  0  0  0  0  0  0  0  0  0
    1.1542    1.3458    0.0000 C   0  0  0  0  0  0  0  0  0  0  0  0
   -2.7208    2.0958    0.0000 C   0  0  0  0  0  0  0  0  0  0  0  0
    1.5792    1.9625    0.0000 C   0  0  0  0  0  0  0  0  0  0  0  0
   -2.0375    2.0958    0.0000 C   0  0  0  0  0  0  0  0  0  0  0  0
    3.8042   -0.1875    0.0000 C   0  0  0  0  0  0  0  0  0  0  0  0
    0.2042   -1.6667    0.0000 C   0  0  0  0  0  0  0  0  0  0  0  0
    1.1667   -2.0875    0.0000 C   0  0  0  0  0  0  0  0  0  0  0  0
    4.3417   -0.6167    0.0000 C   0  0  0  0  0  0  0  0  0  0  0  0
    3.8542    0.4958    0.0000 C   0  0  0  0  0  0  0  0  0  0  0  0
    1.0792    0.7833    0.0000 H   0  0  0  0  0  0  0  0  0  0  0  0
   -2.3833   -0.8667    0.0000 H   0  0  0  0  0  0  0  0  0  0  0  0
  2  1  1  0
  3  4  1  0
  4  1  1  0
  5  2  1  0
  6 17  2  0
  7 23  1  0
  8  1  1  0
  9  8  1  0
 10  9  1  0
 11  7  2  0
 12  3  1  0
 13 15  1  0
 14  2  1  0
 15  6  1  0
 16 20  1  0
 17 19  1  0
 18 22  1  0
 19 21  1  1
 20 24  1  0
 21 12  1  0
 22 13  2  0
 23 16  1  0
 24 19  1  0
 25  4  2  0
 26  9  2  0
  2 27  1  6
  8 28  1  6
  3 29  1  1
 30 21  2  0
 31 11  1  0
 32 10  1  0
 33 15  2  0
 34 20  1  0
 35 14  1  0
 36 38  2  0
 37 35  1  0
 38 33  1  0
 39 28  1  0
 40 29  1  0
 41 29  1  0
 42 39  1  0
 43 39  1  0
 14 44  1  1
 16 45  1  1
 14 10  1  0
  5  3  1  0
 32 37  1  0
  6 16  1  0
 13  7  1  0
 22 36  1  0
 11 18  1  0
M  END
> <chembl_id>
CHEMBL493

> <chembl_pref_name>
BROMOCRIPTINE
