
     RDKit          2D

 32 35  0  0  0  0  0  0  0  0999 V2000
    4.0042   -3.6792    0.0000 C   0  0  0  0  0  0  0  0  0  0  0  0
    2.8000   -6.4875    0.0000 C   0  0  0  0  0  0  0  0  0  0  0  0
    3.4042   -6.8417    0.0000 C   0  0  0  0  0  0  0  0  0  0  0  0
    4.0042   -4.3792    0.0000 C   0  0  0  0  0  0  0  0  0  0  0  0
    4.6875   -3.4750    0.0000 C   0  0  0  0  0  0  0  0  0  0  0  0
    2.8000   -5.8042    0.0000 C   0  0  0  0  0  0  0  0  0  0  0  0
    3.4042   -7.5625    0.0000 C   0  0  0  0  0  0  0  0  0  0  0  0
    3.3917   -4.7375    0.0000 C   0  0  0  0  0  0  0  0  0  0  0  0
    3.3917   -5.4417    0.0000 C   0  0  0  0  0  0  0  0  0  0  0  0
    7.1000   -2.7792    0.0000 C   0  0  0  0  0  0  0  0  0  0  0  0
    7.7125   -3.1542    0.0000 C   0  0  0  0  0  0  0  0  0  0  0  0
    7.7125   -2.3625    0.0000 C   0  0  0  0  0  0  0  0  0  0  0  0
    5.8917   -2.7792    0.0000 C   0  0  0  0  0  0  0  0  0  0  0  0
    5.2917   -2.4292    0.0000 C   0  0  0  0  0  0  0  0  0  0  0  0
    4.6875   -4.6000    0.0000 C   0  0  0  0  0  0  0  0  0  0  0  0
    5.0792   -4.0292    0.0000 C   0  0  0  0  0  0  0  0  0  0  0  0
    2.8000   -7.9167    0.0000 C   0  0  0  0  0  0  0  0  0  0  0  0
    2.1750   -6.8417    0.0000 C   0  0  0  0  0  0  0  0  0  0  0  0
    6.4917   -2.4292    0.0000 C   0  0  0  0  0  0  0  0  0  0  0  0
    2.1750   -7.5625    0.0000 C   0  0  0  0  0  0  0  0  0  0  0  0
    4.6875   -2.7792    0.0000 C   0  0  0  0  0  0  0  0  0  0  0  0
    4.0042   -6.4875    0.0000 C   0  0  0  0  0  0  0  0  0  0  0  0
    3.3917   -3.3167    0.0000 C   0  0  0  0  0  0  0  0  0  0  0  0
    4.0042   -7.9167    0.0000 O   0  0  0  0  0  0  0  0  0  0  0  0
    4.0042   -3.0292    0.0000 C   0  0  0  0  0  0  0  0  0  0  0  0
    1.5792   -7.9167    0.0000 O   0  0  0  0  0  0  0  0  0  0  0  0
    6.4917   -1.7375    0.0000 O   0  0  0  0  0  0  0  0  0  0  0  0
    2.7792   -4.3792    0.0000 C   0  0  0  0  0  0  0  0  0  0  0  0
    2.7792   -3.6792    0.0000 C   0  0  0  0  0  0  0  0  0  0  0  0
    4.0792   -2.4292    0.0000 C   0  0  0  0  0  0  0  0  0  0  0  0
    4.0042   -5.1792    0.0000 H   0  0  0  0  0  0  0  0  0  0  0  0
    5.3417   -3.1000    0.0000 H   0  0  0  0  0  0  0  0  0  0  0  0
  2  6  2  0
  3  2  1  0
  4  1  1  0
  5  1  1  0
  6  9  1  0
  7  3  1  0
  8  4  1  0
  9  8  2  0
 10 19  1  0
 11 10  1  0
 12 10  1  0
 13 14  2  0
 14 21  1  0
 15  4  1  0
 16  5  1  0
 17 20  1  0
 18  2  1  0
 19 13  1  0
 20 18  1  0
 21  5  1  0
 22  3  2  0
 23  1  1  0
  7 24  1  1
  1 25  1  1
 20 26  1  6
 19 27  1  1
 28 29  1  0
 29 23  1  0
 21 30  1  6
  4 31  1  6
  5 32  1  6
 16 15  1  0
 28  8  1  0
 12 11  1  0
 17  7  1  0
M  END
> <chembl_id>
CHEMBL1200666

> <chembl_pref_name>
CALCIPOTRIENE
