
     RDKit          2D

 22 24  0  0  0  0  0  0  0  0999 V2000
    3.1625   -2.6667    0.0000 C   0  0  0  0  0  0  0  0  0  0  0  0
    2.9417   -3.3667    0.0000 C   0  0  0  0  0  0  0  0  0  0  0  0
    3.8917   -2.6667    0.0000 N   0  0  0  0  0  0  0  0  0  0  0  0
    3.5167   -3.7750    0.0000 O   0  0  0  0  0  0  0  0  0  0  0  0
    4.1125   -3.3417    0.0000 C   0  0  0  0  0  0  0  0  0  0  0  0
    2.8042   -2.0542    0.0000 C   0  0  0  0  0  0  0  0  0  0  0  0
    5.9292   -3.7500    0.0000 C   0  0  0  0  0  0  0  0  0  0  0  0
    2.3292   -3.6917    0.0000 C   0  0  0  0  0  0  0  0  0  0  0  0
    5.9250   -4.4375    0.0000 O   0  0  0  0  0  0  0  0  0  0  0  0
    4.7167   -3.7250    0.0000 C   0  0  0  0  0  0  0  0  0  0  0  0
    5.3292   -3.3625    0.0000 C   0  0  0  0  0  0  0  0  0  0  0  0
    6.5042   -3.3792    0.0000 O   0  0  0  0  0  0  0  0  0  0  0  0
    3.1625   -1.4417    0.0000 C   0  0  0  0  0  0  0  0  0  0  0  0
    2.3292   -4.3917    0.0000 C   0  0  0  0  0  0  0  0  0  0  0  0
    1.7292   -3.3500    0.0000 C   0  0  0  0  0  0  0  0  0  0  0  0
    2.1125   -2.0542    0.0000 C   0  0  0  0  0  0  0  0  0  0  0  0
    1.7375   -1.4375    0.0000 C   0  0  0  0  0  0  0  0  0  0  0  0
    2.8167   -0.8417    0.0000 C   0  0  0  0  0  0  0  0  0  0  0  0
    1.7167   -4.7667    0.0000 C   0  0  0  0  0  0  0  0  0  0  0  0
    1.1250   -3.6917    0.0000 C   0  0  0  0  0  0  0  0  0  0  0  0
    1.1042   -4.4042    0.0000 C   0  0  0  0  0  0  0  0  0  0  0  0
    2.0875   -0.8167    0.0000 C   0  0  0  0  0  0  0  0  0  0  0  0
  2  1  2  0
  3  1  1  0
  4  2  1  0
  5  3  2  0
  6  1  1  0
  7 11  1  0
  8  2  1  0
  9  7  2  0
 10  5  1  0
 11 10  1  0
 12  7  1  0
 13  6  1  0
 14  8  2  0
 15  8  1  0
 16  6  2  0
 17 16  1  0
 18 13  2  0
 19 14  1  0
 20 15  2  0
 21 20  1  0
 22 17  2  0
  5  4  1  0
 22 18  1  0
 21 19  2  0
M  END
> <chembl_id>
CHEMBL1071

> <chembl_pref_name>
OXAPROZIN
