
     RDKit          2D

 18 19  0  0  0  0  0  0  0  0999 V2000
   -2.3458   -0.2417    0.0000 C   0  0  0  0  0  0  0  0  0  0  0  0
   -2.3708    0.7625    0.0000 N   0  0  0  0  0  0  0  0  0  0  0  0
   -0.7708    0.3208    0.0000 N   0  0  0  0  0  0  0  0  0  0  0  0
   -3.1833   -0.8792    0.0000 N   0  0  0  0  0  0  0  0  0  0  0  0
   -1.3458   -0.5250    0.0000 C   0  0  0  0  0  0  0  0  0  0  0  0
   -1.4083    1.1375    0.0000 C   0  0  0  0  0  0  0  0  0  0  0  0
    3.3917    0.3208    0.0000 N   0  0  0  0  0  0  0  0  0  0  0  0
    0.2792    0.3208    0.0000 C   0  0  0  0  0  0  0  0  0  0  0  0
    2.3542    0.3208    0.0000 C   0  0  0  0  0  0  0  0  0  0  0  0
   -3.0708   -1.9042    0.0000 O   0  0  0  0  0  0  0  0  0  0  0  0
    3.9167    1.2208    0.0000 O   0  0  0  0  0  0  0  0  0  0  0  0
   -4.1458   -0.4542    0.0000 O   0  0  0  0  0  0  0  0  0  0  0  0
    3.9167   -0.5667    0.0000 O   0  0  0  0  0  0  0  0  0  0  0  0
    0.7792    1.2208    0.0000 C   0  0  0  0  0  0  0  0  0  0  0  0
    0.7792   -0.5667    0.0000 C   0  0  0  0  0  0  0  0  0  0  0  0
    1.8375    1.2208    0.0000 C   0  0  0  0  0  0  0  0  0  0  0  0
    1.8375   -0.5667    0.0000 C   0  0  0  0  0  0  0  0  0  0  0  0
   -1.1458    2.1625    0.0000 C   0  0  0  0  0  0  0  0  0  0  0  0
  2  1  1  0
  3  5  1  0
  4  1  1  0
  5  1  2  0
  6  2  2  0
  7  9  1  0
  8  3  1  0
  9 17  2  0
 10  4  1  0
 11  7  1  0
 12  4  2  0
 13  7  2  0
 14  8  1  0
 15  8  2  0
 16 14  2  0
 17 15  1  0
 18  6  1  0
  3  6  1  0
 16  9  1  0
M  CHG  4   4   1   7   1  10  -1  11  -1
M  END
> <chembl_id>
CHEMBL1909285

> <chembl_pref_name>
NITREFAZOLE
