
     RDKit          2D

 40 45  0  0  1  0  0  0  0  0999 V2000
    2.8542   -0.9375    0.0000 C   0  0  0  0  0  0  0  0  0  0  0  0
    2.8542   -0.1167    0.0000 C   0  0  0  0  0  0  0  0  0  0  0  0
    0.6917   -1.3500    0.0000 C   0  0  0  0  0  0  0  0  0  0  0  0
   -2.1500   -2.1667    0.0000 C   0  0  0  0  0  0  0  0  0  0  0  0
   -2.8333   -2.5667    0.0000 C   0  0  0  0  0  0  0  0  0  0  0  0
   -3.5333   -2.1667    0.0000 C   0  0  0  0  0  0  0  0  0  0  0  0
    2.1292   -1.3500    0.0000 C   0  0  0  0  0  0  0  0  0  0  0  0
    0.6917   -2.1667    0.0000 C   0  0  0  0  0  0  0  0  0  0  0  0
    1.4167   -0.9375    0.0000 C   0  0  0  0  0  0  0  0  0  0  0  0
   -2.1500   -1.3750    0.0000 O   0  0  0  0  0  0  0  0  0  0  0  0
   -3.5458   -1.3750    0.0000 C   0  0  0  0  0  0  0  0  0  0  0  0
    3.5875    0.1625    0.0000 C   0  0  0  0  0  0  0  0  0  0  0  0
    3.5875    1.0083    0.0000 C   0  0  0  0  0  0  0  0  0  0  0  0
   -2.8458   -0.9750    0.0000 C   0  0  0  0  0  0  0  0  0  0  0  0
   -0.0333   -2.5792    0.0000 C   0  0  0  0  0  0  0  0  0  0  0  0
    3.6500   -1.1417    0.0000 C   0  0  0  0  0  0  0  0  0  0  0  0
    2.1292    0.2958    0.0000 C   0  0  0  0  0  0  0  0  0  0  0  0
    4.2792    1.4208    0.0000 C   0  0  0  0  0  0  0  0  0  0  0  0
    3.5875    2.6333    0.0000 C   0  0  0  0  0  0  0  0  0  0  0  0
    2.9000    1.4208    0.0000 C   0  0  0  0  0  0  0  0  0  0  0  0
    4.2792    2.2208    0.0000 O   0  0  0  0  0  0  0  0  0  0  0  0
    1.4167   -0.1167    0.0000 C   0  0  0  0  0  0  0  0  0  0  0  0
   -1.4500   -2.5667    0.0000 O   0  0  0  0  0  0  0  0  0  0  0  0
   -0.0333   -0.9375    0.0000 C   0  0  0  0  0  0  0  0  0  0  0  0
    4.1042   -0.5000    0.0000 C   0  0  0  0  0  0  0  0  0  0  0  0
    2.1292   -2.1667    0.0000 C   0  0  0  0  0  0  0  0  0  0  0  0
    2.9000    2.2208    0.0000 C   0  0  0  0  0  0  0  0  0  0  0  0
    1.4167   -2.5792    0.0000 C   0  0  0  0  0  0  0  0  0  0  0  0
   -0.7583   -2.1667    0.0000 C   0  0  0  0  0  0  0  0  0  0  0  0
    3.5875    3.4250    0.0000 O   0  0  0  0  0  0  0  0  0  0  0  0
    2.8542   -1.7167    0.0000 O   0  0  0  0  0  0  0  0  0  0  0  0
   -2.8208   -3.3667    0.0000 O   0  0  0  0  0  0  0  0  0  0  0  0
   -4.2208   -2.5667    0.0000 O   0  0  0  0  0  0  0  0  0  0  0  0
   -4.2458   -0.9875    0.0000 O   0  0  0  0  0  0  0  0  0  0  0  0
   -0.7583   -1.3500    0.0000 C   0  0  0  0  0  0  0  0  0  0  0  0
    2.8542    0.6000    0.0000 C   0  0  0  0  0  0  0  0  0  0  0  0
    0.6917   -0.6000    0.0000 C   0  0  0  0  0  0  0  0  0  0  0  0
   -2.8458   -0.1750    0.0000 C   0  0  0  0  0  0  0  0  0  0  0  0
    2.1292   -0.5542    0.0000 H   0  0  0  0  0  0  0  0  0  0  0  0
    1.4167   -1.7000    0.0000 H   0  0  0  0  0  0  0  0  0  0  0  0
  2  1  1  0
  3  9  1  0
  4 23  1  1
  5  4  1  0
  6  5  1  0
  7  1  1  0
  8 28  1  0
  9  7  1  0
 10  4  1  0
 11 14  1  0
 12  2  1  0
 12 13  1  1
 14 10  1  0
 15  8  2  0
 16  1  1  0
 17  2  1  0
 18 13  2  0
 19 27  1  0
 20 13  1  0
 21 18  1  0
 22  9  1  0
 29 23  1  1
 24  3  1  0
 25 16  1  0
 26  7  1  0
 27 20  2  0
 28 26  1  0
 29 15  1  0
 30 19  2  0
  1 31  1  1
  5 32  1  6
  6 33  1  6
 11 34  1  1
 35 24  1  0
  2 36  1  1
  3 37  1  1
 14 38  1  6
  7 39  1  1
  9 40  1  6
 12 25  1  0
 17 22  1  0
  3  8  1  0
 35 29  1  0
 21 19  1  0
  6 11  1  0
M  END
> <chembl_id>
CHEMBL600325

> <chembl_pref_name>
PROSCILLARIDIN
