
     RDKit          2D

 28 28  0  0  0  0  0  0  0  0999 V2000
    5.8043   -1.3630    0.0000 C   0  0  0  0  0  0  0  0  0  0  0  0
    5.0898   -0.9505    0.0000 C   0  0  0  0  0  0  0  0  0  0  0  0
    5.0898   -0.1255    0.0000 N   0  0  0  0  0  0  0  0  0  0  0  0
    4.3754    0.2870    0.0000 C   0  0  0  0  0  0  0  0  0  0  0  0
    3.6609   -0.1255    0.0000 C   0  0  0  0  0  0  0  0  0  0  0  0
    2.9464    0.2870    0.0000 O   0  0  0  0  0  0  0  0  0  0  0  0
    5.8043    0.2870    0.0000 C   0  0  0  0  0  0  0  0  0  0  0  0
    6.5188   -0.1255    0.0000 C   0  0  0  0  0  0  0  0  0  0  0  0
    7.2333    0.2870    0.0000 C   0  0  0  0  0  0  0  0  0  0  0  0
    7.9477   -0.1255    0.0000 C   0  0  0  0  0  0  0  0  0  0  0  0
    7.9477   -0.9505    0.0000 C   0  0  0  0  0  0  0  0  0  0  0  0
    8.6622    0.2870    0.0000 N   0  0  0  0  0  0  0  0  0  0  0  0
    9.3767   -0.1255    0.0000 C   0  0  0  0  0  0  0  0  0  0  0  0
    9.3767   -0.9505    0.0000 C   0  0  0  0  0  0  0  0  0  0  0  0
   10.0911   -1.3630    0.0000 C   0  0  0  0  0  0  0  0  0  0  0  0
   10.8056   -0.9505    0.0000 N   0  0  0  0  0  0  0  0  0  0  0  0
   10.8056   -0.1255    0.0000 C   0  0  0  0  0  0  0  0  0  0  0  0
   11.5201    0.2870    0.0000 C   0  0  0  0  0  0  0  0  0  0  0  0
   11.5201    1.1120    0.0000 C   0  0  0  0  0  0  0  0  0  0  0  0
   12.2346    1.5245    0.0000 Cl  0  0  0  0  0  0  0  0  0  0  0  0
   10.8056    1.5245    0.0000 C   0  0  0  0  0  0  0  0  0  0  0  0
   10.0911    1.1120    0.0000 C   0  0  0  0  0  0  0  0  0  0  0  0
   10.0911    0.2870    0.0000 C   0  0  0  0  0  0  0  0  0  0  0  0
    0.0000   -0.8250    0.0000 O   0  0  0  0  0  0  0  0  0  0  0  0
    0.0000    0.0000    0.0000 S   0  0  0  0  0  0  0  0  0  0  0  0
    0.0000    0.8250    0.0000 O   0  0  0  0  0  0  0  0  0  0  0  0
    0.8250    0.0000    0.0000 O   0  0  0  0  0  0  0  0  0  0  0  0
   -0.8250    0.0000    0.0000 O   0  0  0  0  0  0  0  0  0  0  0  0
  1  2  1  0
  2  3  1  0
  3  4  1  0
  4  5  1  0
  5  6  1  0
  3  7  1  0
  7  8  1  0
  8  9  1  0
  9 10  1  0
 10 11  1  0
 10 12  1  0
 12 13  1  0
 13 23  2  0
 13 14  1  0
 14 15  2  0
 15 16  1  0
 16 17  2  0
 17 23  1  0
 17 18  1  0
 18 19  2  0
 19 20  1  0
 19 21  1  0
 21 22  2  0
 22 23  1  0
 24 25  1  0
 25 26  1  0
 25 27  2  0
 25 28  2  0
M  END
> <chembl_id>
CHEMBL1690

> <chembl_pref_name>
HYDROXYCHLOROQUINE SULFATE
