
     RDKit          2D

 11 11  0  0  0  0  0  0  0  0999 V2000
    4.7167   -7.0625    0.0000 C   0  0  0  0  0  0  0  0  0  0  0  0
    5.3292   -7.4167    0.0000 C   0  0  0  0  0  0  0  0  0  0  0  0
    4.1042   -7.4167    0.0000 C   0  0  0  0  0  0  0  0  0  0  0  0
    3.4875   -7.0542    0.0000 N   0  0  0  0  0  0  0  0  0  0  0  0
    4.7167   -6.3542    0.0000 O   0  0  0  0  0  0  0  0  0  0  0  0
    5.9417   -7.0667    0.0000 C   0  0  0  0  0  0  0  0  0  0  0  0
    5.3292   -8.1292    0.0000 C   0  0  0  0  0  0  0  0  0  0  0  0
    4.1042   -8.1292    0.0000 C   0  0  0  0  0  0  0  0  0  0  0  0
    5.9500   -8.4792    0.0000 C   0  0  0  0  0  0  0  0  0  0  0  0
    6.5625   -7.4250    0.0000 C   0  0  0  0  0  0  0  0  0  0  0  0
    6.5667   -8.1292    0.0000 C   0  0  0  0  0  0  0  0  0  0  0  0
  2  1  1  0
  3  1  1  0
  4  3  1  0
  5  1  1  0
  6  2  1  0
  7  2  2  0
  8  3  1  0
  9  7  1  0
 10  6  2  0
 11 10  1  0
 11  9  2  0
M  END
> <chembl_id>
CHEMBL61006

> <chembl_pref_name>
PHENYLPROPANOLAMINE
