
     RDKit          2D

 18 19  0  0  0  0  0  0  0  0999 V2000
    5.0792   -5.3750    0.0000 C   0  0  0  0  0  0  0  0  0  0  0  0
    5.7042   -4.3042    0.0000 C   0  0  0  0  0  0  0  0  0  0  0  0
    4.4625   -5.0167    0.0000 C   0  0  0  0  0  0  0  0  0  0  0  0
    6.9167   -4.3125    0.0000 C   0  0  0  0  0  0  0  0  0  0  0  0
    5.7042   -5.0167    0.0000 C   0  0  0  0  0  0  0  0  0  0  0  0
    6.3042   -3.9542    0.0000 C   0  0  0  0  0  0  0  0  0  0  0  0
    4.4625   -4.3042    0.0000 C   0  0  0  0  0  0  0  0  0  0  0  0
    5.0792   -3.9417    0.0000 C   0  0  0  0  0  0  0  0  0  0  0  0
    6.9125   -5.0167    0.0000 O   0  0  0  0  0  0  0  0  0  0  0  0
    3.8500   -5.3750    0.0000 C   0  0  0  0  0  0  0  0  0  0  0  0
    5.0792   -6.0792    0.0000 F   0  0  0  0  0  0  0  0  0  0  0  0
    7.5042   -3.9542    0.0000 O   0  0  0  0  0  0  0  0  0  0  0  0
    6.3042   -3.2500    0.0000 C   0  0  0  0  0  0  0  0  0  0  0  0
    3.2375   -5.0167    0.0000 C   0  0  0  0  0  0  0  0  0  0  0  0
    3.8500   -6.0875    0.0000 C   0  0  0  0  0  0  0  0  0  0  0  0
    3.2375   -6.4417    0.0000 C   0  0  0  0  0  0  0  0  0  0  0  0
    2.6167   -5.3750    0.0000 C   0  0  0  0  0  0  0  0  0  0  0  0
    2.6167   -6.0875    0.0000 C   0  0  0  0  0  0  0  0  0  0  0  0
  2  5  1  0
  3  1  1  0
  4  6  1  0
  5  1  2  0
  6  2  1  0
  7  3  2  0
  8  2  2  0
  9  4  2  0
 10  3  1  0
 11  1  1  0
 12  4  1  0
 13  6  1  0
 14 10  1  0
 15 10  2  0
 16 15  1  0
 17 14  2  0
 18 16  2  0
  8  7  1  0
 18 17  1  0
M  END
> <chembl_id>
CHEMBL563

> <chembl_pref_name>
FLURBIPROFEN
