
     RDKit          2D

 31 34  0  0  0  0  0  0  0  0999 V2000
   -1.1375   -1.2750    0.0000 N   0  0  0  0  0  0  0  0  0  0  0  0
   -1.5625   -0.6792    0.0000 C   0  0  0  0  0  0  0  0  0  0  0  0
   -2.3083   -0.9000    0.0000 C   0  0  0  0  0  0  0  0  0  0  0  0
   -1.5625   -1.9000    0.0000 O   0  0  0  0  0  0  0  0  0  0  0  0
   -2.3083   -1.6875    0.0000 C   0  0  0  0  0  0  0  0  0  0  0  0
    2.9792    0.1833    0.0000 C   0  0  0  0  0  0  0  0  0  0  0  0
   -0.8083    1.3958    0.0000 N   0  0  0  0  0  0  0  0  0  0  0  0
   -2.9583   -0.5292    0.0000 C   0  0  0  0  0  0  0  0  0  0  0  0
   -2.9583   -2.0542    0.0000 C   0  0  0  0  0  0  0  0  0  0  0  0
    2.2375    0.0000    0.0000 C   0  0  0  0  0  0  0  0  0  0  0  0
    1.7042    0.5708    0.0000 C   0  0  0  0  0  0  0  0  0  0  0  0
   -1.3000    0.0000    0.0000 C   0  0  0  0  0  0  0  0  0  0  0  0
    3.5000   -0.3542    0.0000 C   0  0  0  0  0  0  0  0  0  0  0  0
    1.9167    1.3000    0.0000 C   0  0  0  0  0  0  0  0  0  0  0  0
    3.1792    0.9083    0.0000 C   0  0  0  0  0  0  0  0  0  0  0  0
    4.2875   -0.2667    0.0000 O   0  0  0  0  0  0  0  0  0  0  0  0
    2.6500    1.4625    0.0000 C   0  0  0  0  0  0  0  0  0  0  0  0
   -3.6250   -1.6875    0.0000 C   0  0  0  0  0  0  0  0  0  0  0  0
   -0.5833    0.1458    0.0000 C   0  0  0  0  0  0  0  0  0  0  0  0
   -1.7833    0.5583    0.0000 C   0  0  0  0  0  0  0  0  0  0  0  0
   -0.3375    0.8250    0.0000 C   0  0  0  0  0  0  0  0  0  0  0  0
   -1.5250    1.2750    0.0000 C   0  0  0  0  0  0  0  0  0  0  0  0
   -3.6250   -0.9000    0.0000 C   0  0  0  0  0  0  0  0  0  0  0  0
    0.9750    0.4125    0.0000 O   0  0  0  0  0  0  0  0  0  0  0  0
   -4.2500   -2.0792    0.0000 F   0  0  0  0  0  0  0  0  0  0  0  0
    1.4125    1.8333    0.0000 O   0  0  0  0  0  0  0  0  0  0  0  0
   -0.5625    2.0875    0.0000 C   0  0  0  0  0  0  0  0  0  0  0  0
    0.1500    2.2208    0.0000 C   0  0  0  0  0  0  0  0  0  0  0  0
    3.3000   -1.0375    0.0000 C   0  0  0  0  0  0  0  0  0  0  0  0
    0.6792    1.6625    0.0000 C   0  0  0  0  0  0  0  0  0  0  0  0
    0.8042   -0.3167    0.0000 C   0  0  0  0  0  0  0  0  0  0  0  0
  2  1  2  0
  3  2  1  0
  4  1  1  0
  5  4  1  0
  6 15  1  0
  7 22  1  0
  8  3  1  0
  9  5  1  0
 10 11  1  0
 11 14  2  0
 12  2  1  0
 13  6  1  0
 14 26  1  0
 15 17  2  0
 16 13  2  0
 17 14  1  0
 18  9  2  0
 19 12  1  0
 20 12  1  0
 21 19  1  0
 22 20  1  0
 23  8  2  0
 24 11  1  0
 25 18  1  0
 26 30  1  0
 27  7  1  0
 28 27  1  0
 29 13  1  0
 30 28  1  0
 31 24  1  0
  3  5  2  0
 21  7  1  0
 23 18  1  0
 10  6  2  0
M  END
> <chembl_id>
CHEMBL14376

> <chembl_pref_name>
ILOPERIDONE
