
     RDKit          2D

 21 23  0  0  0  0  0  0  0  0999 V2000
    0.6917   -0.7625    0.0000 C   0  0  0  0  0  0  0  0  0  0  0  0
    2.8167   -0.2292    0.0000 N   0  0  0  0  0  0  0  0  0  0  0  0
   -2.5083   -0.2125    0.0000 N   0  0  0  0  0  0  0  0  0  0  0  0
    1.6000    0.0208    0.0000 C   0  0  0  0  0  0  0  0  0  0  0  0
    0.7167   -1.9917    0.0000 C   0  0  0  0  0  0  0  0  0  0  0  0
    1.6792   -2.7292    0.0000 N   0  0  0  0  0  0  0  0  0  0  0  0
   -0.3833   -0.1542    0.0000 C   0  0  0  0  0  0  0  0  0  0  0  0
   -1.4333   -0.8042    0.0000 C   0  0  0  0  0  0  0  0  0  0  0  0
    2.8542   -2.4375    0.0000 C   0  0  0  0  0  0  0  0  0  0  0  0
   -2.5083    1.0000    0.0000 O   0  0  0  0  0  0  0  0  0  0  0  0
   -3.5625   -0.8375    0.0000 O   0  0  0  0  0  0  0  0  0  0  0  0
    3.3500   -1.3375    0.0000 C   0  0  0  0  0  0  0  0  0  0  0  0
    1.3250    1.1833    0.0000 C   0  0  0  0  0  0  0  0  0  0  0  0
   -0.3375   -2.6167    0.0000 C   0  0  0  0  0  0  0  0  0  0  0  0
   -1.4333   -2.0375    0.0000 C   0  0  0  0  0  0  0  0  0  0  0  0
    3.6292   -3.3667    0.0000 O   0  0  0  0  0  0  0  0  0  0  0  0
    2.2125    2.0083    0.0000 C   0  0  0  0  0  0  0  0  0  0  0  0
    0.1542    1.5458    0.0000 C   0  0  0  0  0  0  0  0  0  0  0  0
    1.9292    3.2083    0.0000 C   0  0  0  0  0  0  0  0  0  0  0  0
   -0.1125    2.7500    0.0000 C   0  0  0  0  0  0  0  0  0  0  0  0
    0.7625    3.5958    0.0000 C   0  0  0  0  0  0  0  0  0  0  0  0
  2  4  2  0
  3  8  1  0
  4  1  1  0
  5  1  2  0
  6  5  1  0
  7  1  1  0
  8  7  2  0
  9  6  1  0
 10  3  1  0
 11  3  2  0
 12  2  1  0
 13  4  1  0
 14  5  1  0
 15  8  1  0
 16  9  2  0
 17 13  2  0
 18 13  1  0
 19 17  1  0
 20 18  2  0
 21 20  1  0
 14 15  2  0
 12  9  1  0
 19 21  2  0
M  CHG  2   3   1  10  -1
M  END
> <chembl_id>
CHEMBL13209

> <chembl_pref_name>
NITRAZEPAM
