
     RDKit          2D

 22 24  0  0  0  0  0  0  0  0999 V2000
   -0.5333    0.2125    0.0000 N   0  0  0  0  0  0  0  0  0  0  0  0
    0.7125    0.7708    0.0000 C   0  0  0  0  0  0  0  0  0  0  0  0
   -1.7458    0.8250    0.0000 C   0  0  0  0  0  0  0  0  0  0  0  0
   -0.5125   -1.1750    0.0000 C   0  0  0  0  0  0  0  0  0  0  0  0
    1.0542    2.1125    0.0000 C   0  0  0  0  0  0  0  0  0  0  0  0
   -2.0000    2.1458    0.0000 C   0  0  0  0  0  0  0  0  0  0  0  0
    0.7625   -1.8042    0.0000 C   0  0  0  0  0  0  0  0  0  0  0  0
    0.2042    3.1833    0.0000 C   0  0  0  0  0  0  0  0  0  0  0  0
   -1.1458    3.1833    0.0000 C   0  0  0  0  0  0  0  0  0  0  0  0
    1.9917   -1.1375    0.0000 C   0  0  0  0  0  0  0  0  0  0  0  0
    3.1542   -1.8250    0.0000 N   0  0  0  0  0  0  0  0  0  0  0  0
   -2.7833   -0.0667    0.0000 C   0  0  0  0  0  0  0  0  0  0  0  0
    1.7167   -0.1542    0.0000 C   0  0  0  0  0  0  0  0  0  0  0  0
    2.3792    2.5458    0.0000 C   0  0  0  0  0  0  0  0  0  0  0  0
   -3.3000    2.5833    0.0000 C   0  0  0  0  0  0  0  0  0  0  0  0
    0.7917   -3.1792    0.0000 C   0  0  0  0  0  0  0  0  0  0  0  0
    4.3417   -1.1542    0.0000 C   0  0  0  0  0  0  0  0  0  0  0  0
    3.1542   -3.1792    0.0000 C   0  0  0  0  0  0  0  0  0  0  0  0
   -4.0833    0.3833    0.0000 C   0  0  0  0  0  0  0  0  0  0  0  0
    3.0417    0.2125    0.0000 C   0  0  0  0  0  0  0  0  0  0  0  0
   -4.3458    1.6833    0.0000 C   0  0  0  0  0  0  0  0  0  0  0  0
    3.3542    1.5750    0.0000 C   0  0  0  0  0  0  0  0  0  0  0  0
  2  1  1  0
  3  1  1  0
  4  1  1  0
  5  2  2  0
  6  3  2  0
  7  4  1  0
  8  5  1  0
  9  6  1  0
 10  7  1  0
 11 10  1  0
 12  3  1  0
 13  2  1  0
 14  5  1  0
 15  6  1  0
 16  7  1  0
 17 11  1  0
 18 11  1  0
 19 12  2  0
 20 13  2  0
 21 19  1  0
 22 20  1  0
  8  9  1  0
 15 21  2  0
 14 22  2  0
M  END
> <chembl_id>
CHEMBL644

> <chembl_pref_name>
TRIMIPRAMINE
