
     RDKit          2D

 20 23  0  0  0  0  0  0  0  0999 V2000
   -8.3859    8.4271    0.0000 C   0  0  0  0  0  0  0  0  0  0  0  0
   -7.5609    8.4271    0.0000 C   0  0  0  0  0  0  0  0  0  0  0  0
   -8.9026    9.0729    0.0000 C   0  0  0  0  0  0  0  0  0  0  0  0
   -7.9734   10.2354    0.0000 O   0  0  0  0  0  0  0  0  0  0  0  0
   -8.7151    9.8771    0.0000 C   0  0  0  0  0  0  0  0  0  0  0  0
   -7.0484    9.0729    0.0000 C   0  0  0  0  0  0  0  0  0  0  0  0
   -7.2359    9.8771    0.0000 C   0  0  0  0  0  0  0  0  0  0  0  0
   -7.9734    7.1604    0.0000 N   0  0  0  0  0  0  0  0  0  0  0  0
   -8.6401    7.6479    0.0000 C   0  0  0  0  0  0  0  0  0  0  0  0
   -7.3109    7.6479    0.0000 C   0  0  0  0  0  0  0  0  0  0  0  0
   -9.7276    8.8729    0.0000 C   0  0  0  0  0  0  0  0  0  0  0  0
   -9.3026   10.4604    0.0000 C   0  0  0  0  0  0  0  0  0  0  0  0
  -10.3109    9.4521    0.0000 C   0  0  0  0  0  0  0  0  0  0  0  0
  -10.0984   10.2479    0.0000 C   0  0  0  0  0  0  0  0  0  0  0  0
  -11.1109    9.2396    0.0000 Cl  0  0  0  0  0  0  0  0  0  0  0  0
   -7.9734    6.3354    0.0000 C   0  0  0  0  0  0  0  0  0  0  0  0
   -6.2609    8.8354    0.0000 C   0  0  0  0  0  0  0  0  0  0  0  0
   -6.6276   10.4396    0.0000 C   0  0  0  0  0  0  0  0  0  0  0  0
   -5.6526    9.3979    0.0000 C   0  0  0  0  0  0  0  0  0  0  0  0
   -5.8359   10.1979    0.0000 C   0  0  0  0  0  0  0  0  0  0  0  0
  2  1  1  0
  1  3  1  0
  4  5  1  0
  5  3  1  0
  2  6  1  0
  7  6  2  0
  8  9  1  0
  1  9  1  0
  2 10  1  0
 11  3  2  0
 12  5  2  0
 13 11  1  0
 14 12  1  0
 15 13  1  0
 16  8  1  0
 17  6  1  0
 18  7  1  0
 19 17  2  0
 20 18  2  0
  8 10  1  0
  7  4  1  0
 14 13  2  0
 19 20  1  0
M  END
> <chembl_id>
CHEMBL3187365

> <chembl_pref_name>
ASENAPINE
