
     RDKit          2D

 29 30  0  0  1  0  0  0  0  0999 V2000
    4.2580   -2.7040    0.0000 O   0  0  0  0  0  0  0  0  0  0  0  0
    6.4181   -1.2354    0.0000 O   0  0  0  0  0  0  0  0  0  0  0  0
    7.7701   -3.2557    0.0000 O   0  0  0  0  0  0  0  0  0  0  0  0
    7.3272   -1.9037    0.0000 O   0  0  0  0  0  0  0  0  0  0  0  0
    2.8516    0.0000    0.0000 O   0  0  0  0  0  0  0  0  0  0  0  0
    4.2658    0.0000    0.0000 O   0  0  0  0  0  0  0  0  0  0  0  0
    5.7111   -2.4787    0.0000 N   0  0  0  0  0  0  0  0  0  0  0  0
    5.2915   -3.7530    0.0000 N   0  0  0  0  0  0  0  0  0  0  0  0
    4.2658   -1.6473    0.0000 N   0  0  0  0  0  0  0  0  0  0  0  0
    6.3793   -2.9604    0.0000 C   0  0  0  0  0  0  0  0  0  0  0  0
    5.0350   -2.9604    0.0000 C   0  0  0  0  0  0  0  0  0  0  0  0
    5.7111   -1.6473    0.0000 C   0  0  0  0  0  0  0  0  0  0  0  0
    6.1151   -3.7530    0.0000 C   0  0  0  0  0  0  0  0  0  0  0  0
    4.9962   -1.2354    0.0000 C   0  0  0  0  0  0  0  0  0  0  0  0
    7.1563   -2.7040    0.0000 C   0  0  0  0  0  0  0  0  0  0  0  0
    3.5665   -1.2354    0.0000 C   0  0  0  0  0  0  0  0  0  0  0  0
    4.8097   -4.4212    0.0000 C   0  0  0  0  0  0  0  0  0  0  0  0
    4.9962   -0.4273    0.0000 C   0  0  0  0  0  0  0  0  0  0  0  0
    3.5665   -0.4273    0.0000 C   0  0  0  0  0  0  0  0  0  0  0  0
    2.8516   -1.6473    0.0000 C   0  0  0  0  0  0  0  0  0  0  0  0
    2.1290   -1.2354    0.0000 C   0  0  0  0  0  0  0  0  0  0  0  0
    1.4219   -1.6473    0.0000 C   0  0  0  0  0  0  0  0  0  0  0  0
    0.7071   -1.2354    0.0000 C   0  0  0  0  0  0  0  0  0  0  0  0
    1.4219   -2.4787    0.0000 C   0  0  0  0  0  0  0  0  0  0  0  0
    2.1290   -0.4273    0.0000 C   0  0  0  0  0  0  0  0  0  0  0  0
    0.0000   -1.6473    0.0000 C   0  0  0  0  0  0  0  0  0  0  0  0
    0.7071   -2.8905    0.0000 C   0  0  0  0  0  0  0  0  0  0  0  0
    0.0000   -2.4787    0.0000 C   0  0  0  0  0  0  0  0  0  0  0  0
    1.4219    0.0000    0.0000 C   0  0  0  0  0  0  0  0  0  0  0  0
  1 11  2  0
  2 12  2  0
  3 15  2  0
  4 15  1  0
  5 19  1  0
  5 25  1  0
  6 19  2  0
  7 10  1  0
  7 11  1  0
  7 12  1  0
  8 11  1  0
  8 13  1  0
  8 17  1  0
  9 14  1  0
  9 16  1  0
 10 13  1  0
 10 15  1  6
 12 14  1  0
 14 18  1  1
 16 19  1  1
 16 20  1  0
 20 21  1  0
 21 22  1  0
 22 23  2  0
 22 24  1  0
 23 26  1  0
 24 27  2  0
 25 29  1  0
 26 28  2  0
 27 28  1  0
M  END
> <chembl_id>
CHEMBL317094

> <chembl_pref_name>
IMIDAPRIL
