
     RDKit          2D

 30 32  0  0  0  0  0  0  0  0999 V2000
    0.3241   -2.2688    0.0000 Na  0  0  0  0  0 15  0  0  0  0  0  0
    2.2688    2.5045    0.0000 C   0  0  0  0  0  0  0  0  0  0  0  0
    1.5543    2.0920    0.0000 C   0  0  0  0  0  0  0  0  0  0  0  0
    1.5543    1.2670    0.0000 C   0  0  0  0  0  0  0  0  0  0  0  0
    2.2688    0.8545    0.0000 C   0  0  0  0  0  0  0  0  0  0  0  0
    2.9833    1.2670    0.0000 C   0  0  0  0  0  0  0  0  0  0  0  0
    2.9833    2.0920    0.0000 C   0  0  0  0  0  0  0  0  0  0  0  0
    3.7678    1.0120    0.0000 O   0  0  0  0  0  0  0  0  0  0  0  0
    4.2528    1.6795    0.0000 C   0  0  0  0  0  0  0  0  0  0  0  0
    3.7679    2.3469    0.0000 O   0  0  0  0  0  0  0  0  0  0  0  0
    0.8398    2.5045    0.0000 C   0  0  0  0  0  0  0  0  0  0  0  0
    0.8398    0.8545    0.0000 C   0  0  0  0  0  0  0  0  0  0  0  0
    0.1253    1.2670    0.0000 C   0  0  0  0  0  0  0  0  0  0  0  0
   -0.5892    0.8545    0.0000 C   0  0  0  0  0  0  0  0  0  0  0  0
    0.1253    2.0920    0.0000 O   0  0  0  0  0  0  0  0  0  0  0  0
   -1.3428    1.1900    0.0000 S   0  0  0  0  0  0  0  0  0  0  0  0
   -1.8948    0.5769    0.0000 C   0  0  0  0  0  0  0  0  0  0  0  0
   -1.4823   -0.1375    0.0000 C   0  0  0  0  0  0  0  0  0  0  0  0
   -0.6754    0.0340    0.0000 C   0  0  0  0  0  0  0  0  0  0  0  0
   -0.0623   -0.5181    0.0000 S   0  0  0  0  0  0  0  0  0  0  0  0
    0.5210   -1.1014    0.0000 N   0  0  0  0  0  0  0  0  0  0  0  0
    0.5056    0.0804    0.0000 O   0  0  0  0  0  0  0  0  0  0  0  0
   -0.6302   -1.1165    0.0000 O   0  0  0  0  0  0  0  0  0  0  0  0
    1.3460   -1.1014    0.0000 C   0  0  0  0  0  0  0  0  0  0  0  0
    1.8310   -1.7689    0.0000 C   0  0  0  0  0  0  0  0  0  0  0  0
    2.6156   -1.5139    0.0000 C   0  0  0  0  0  0  0  0  0  0  0  0
    2.6156   -0.6889    0.0000 N   0  0  0  0  0  0  0  0  0  0  0  0
    1.8310   -0.4340    0.0000 O   0  0  0  0  0  0  0  0  0  0  0  0
    3.2830   -1.9988    0.0000 C   0  0  0  0  0  0  0  0  0  0  0  0
    1.5760   -2.5535    0.0000 Cl  0  0  0  0  0  0  0  0  0  0  0  0
  2  3  1  0
  2  7  2  0
  3  4  2  0
  4  5  1  0
  5  6  2  0
  7 10  1  0
  7  6  1  0
  6  8  1  0
  8  9  1  0
  9 10  1  0
  3 11  1  0
  4 12  1  0
 12 13  1  0
 13 14  1  0
 13 15  2  0
 14 16  1  0
 14 19  2  0
 16 17  1  0
 17 18  2  0
 18 19  1  0
 19 20  1  0
 20 21  1  0
 20 22  2  0
 20 23  2  0
 21 24  1  0
 24 25  2  0
 24 28  1  0
 25 26  1  0
 26 27  2  0
 27 28  1  0
 26 29  1  0
 25 30  1  0
M  CHG  2   1   1  21  -1
M  END
> <chembl_id>
CHEMBL2105740

> <chembl_pref_name>
SITAXENTAN SODIUM
