
     RDKit          2D

 19 21  0  0  1  0  0  0  0  0999 V2000
    7.0667   -2.6875    0.0000 N   0  0  0  0  0  0  0  0  0  0  0  0
    7.0750   -3.5125    0.0000 C   0  0  0  0  0  0  0  0  0  0  0  0
    6.3917   -2.4667    0.0000 C   0  0  0  0  0  0  0  0  0  0  0  0
    6.3917   -1.7542    0.0000 C   0  0  0  0  0  0  0  0  0  0  0  0
    7.0667   -1.5375    0.0000 N   0  0  0  0  0  0  0  0  0  0  0  0
    6.8542   -4.1875    0.0000 C   0  0  0  0  0  0  0  0  0  0  0  0
    7.4875   -2.1042    0.0000 C   0  0  0  0  0  0  0  0  0  0  0  0
    6.5000   -3.0917    0.0000 O   0  0  0  0  0  0  0  0  0  0  0  0
    6.1500   -4.1875    0.0000 C   0  0  0  0  0  0  0  0  0  0  0  0
    5.9292   -3.5125    0.0000 C   0  0  0  0  0  0  0  0  0  0  0  0
    5.7792   -1.4042    0.0000 C   0  0  0  0  0  0  0  0  0  0  0  0
    5.7792   -2.8250    0.0000 N   0  0  0  0  0  0  0  0  0  0  0  0
    5.1667   -1.7542    0.0000 N   0  0  0  0  0  0  0  0  0  0  0  0
    5.1667   -2.4667    0.0000 C   0  0  0  0  0  0  0  0  0  0  0  0
    7.2667   -4.7542    0.0000 O   0  0  0  0  0  0  0  0  0  0  0  0
    5.7792   -0.6917    0.0000 N   0  0  0  0  0  0  0  0  0  0  0  0
    5.7292   -4.7542    0.0000 O   0  0  0  0  0  0  0  0  0  0  0  0
    5.3125   -3.1542    0.0000 C   0  0  0  0  0  0  0  0  0  0  0  0
    4.6917   -3.5042    0.0000 O   0  0  0  0  0  0  0  0  0  0  0  0
  2  1  1  1
  3  1  1  0
  4  3  1  0
  5  7  2  0
  6  2  1  0
  7  1  1  0
  8  2  1  0
  9  6  1  0
 10  8  1  0
 11  4  2  0
 12  3  2  0
 13 14  2  0
 14 12  1  0
  6 15  1  1
 16 11  1  0
  9 17  1  6
 10 18  1  1
 19 18  1  0
  4  5  1  0
  9 10  1  0
 13 11  1  0
M  END
> <chembl_id>
CHEMBL1090

> <chembl_pref_name>
VIDARABINE
