
     RDKit          2D

 76 79  0  0  0  0  0  0  0  0999 V2000
    8.9667   -3.4292    0.0000 Cl  0  0  0  0  0  0  0  0  0  0  0  0
    9.7500   -2.3000    0.0000 N   0  0  0  0  0  0  0  0  0  0  0  0
   -0.5958   -1.9667    0.0000 N   0  0  0  0  0  0  0  0  0  0  0  0
   10.9750   -2.3000    0.0000 C   0  0  0  0  0  0  0  0  0  0  0  0
   -1.8458   -1.9667    0.0000 C   0  0  0  0  0  0  0  0  0  0  0  0
   -1.2333   -2.3375    0.0000 C   0  0  0  0  0  0  0  0  0  0  0  0
   10.3542   -1.9292    0.0000 C   0  0  0  0  0  0  0  0  0  0  0  0
   10.9750   -3.0000    0.0000 C   0  0  0  0  0  0  0  0  0  0  0  0
   -1.8458   -1.2292    0.0000 C   0  0  0  0  0  0  0  0  0  0  0  0
    8.5167    0.0208    0.0000 C   0  0  0  0  0  0  0  0  0  0  0  0
    0.6167   -4.0417    0.0000 C   0  0  0  0  0  0  0  0  0  0  0  0
   -2.4708   -2.3000    0.0000 C   0  0  0  0  0  0  0  0  0  0  0  0
   11.6042   -1.9292    0.0000 C   0  0  0  0  0  0  0  0  0  0  0  0
    9.1417    0.3750    0.0000 C   0  0  0  0  0  0  0  0  0  0  0  0
    0.0417   -4.4167    0.0000 C   0  0  0  0  0  0  0  0  0  0  0  0
    0.6167   -3.3417    0.0000 C   0  0  0  0  0  0  0  0  0  0  0  0
    8.5167   -0.7167    0.0000 C   0  0  0  0  0  0  0  0  0  0  0  0
   -3.0625   -1.9667    0.0000 C   0  0  0  0  0  0  0  0  0  0  0  0
   12.2000   -2.3000    0.0000 C   0  0  0  0  0  0  0  0  0  0  0  0
    9.7875   -0.7375    0.0000 C   0  0  0  0  0  0  0  0  0  0  0  0
   -0.6125   -3.3417    0.0000 C   0  0  0  0  0  0  0  0  0  0  0  0
   11.6042   -3.3417    0.0000 C   0  0  0  0  0  0  0  0  0  0  0  0
   -2.4708   -0.8792    0.0000 C   0  0  0  0  0  0  0  0  0  0  0  0
   -3.0625   -1.2292    0.0000 C   0  0  0  0  0  0  0  0  0  0  0  0
   12.2000   -3.0000    0.0000 C   0  0  0  0  0  0  0  0  0  0  0  0
   -1.2333   -3.0000    0.0000 C   0  0  0  0  0  0  0  0  0  0  0  0
   10.3542   -1.1167    0.0000 C   0  0  0  0  0  0  0  0  0  0  0  0
   -0.5958   -1.2292    0.0000 C   0  0  0  0  0  0  0  0  0  0  0  0
    9.7500   -3.0000    0.0000 C   0  0  0  0  0  0  0  0  0  0  0  0
    9.1417   -1.1000    0.0000 C   0  0  0  0  0  0  0  0  0  0  0  0
    9.7542   -0.0167    0.0000 C   0  0  0  0  0  0  0  0  0  0  0  0
   -0.6125   -4.0417    0.0000 C   0  0  0  0  0  0  0  0  0  0  0  0
   -0.0208   -2.9792    0.0000 C   0  0  0  0  0  0  0  0  0  0  0  0
    6.6792   -1.9667    0.0000 C   0  0  0  0  0  0  0  0  0  0  0  0
    2.4750   -2.2875    0.0000 C   0  0  0  0  0  0  0  0  0  0  0  0
   -1.2333   -0.8792    0.0000 C   0  0  0  0  0  0  0  0  0  0  0  0
   10.3542   -3.3417    0.0000 C   0  0  0  0  0  0  0  0  0  0  0  0
    2.4750   -3.0000    0.0000 O   0  0  0  0  0  0  0  0  0  0  0  0
    6.6792   -1.3125    0.0000 O   0  0  0  0  0  0  0  0  0  0  0  0
    4.2417   -1.9667    0.0000 C   0  0  0  0  0  0  0  0  0  0  0  0
    4.8292   -2.2667    0.0000 C   0  0  0  0  0  0  0  0  0  0  0  0
    0.0167   -2.2667    0.0000 C   0  0  0  0  0  0  0  0  0  0  0  0
    9.1250   -1.9667    0.0000 C   0  0  0  0  0  0  0  0  0  0  0  0
    7.8917    0.3250    0.0000 O   0  0  0  0  0  0  0  0  0  0  0  0
    1.2250   -4.3917    0.0000 O   0  0  0  0  0  0  0  0  0  0  0  0
    1.2250   -2.9417    0.0000 O   0  0  0  0  0  0  0  0  0  0  0  0
    9.1417    1.0375    0.0000 O   0  0  0  0  0  0  0  0  0  0  0  0
    7.8542   -1.1000    0.0000 O   0  0  0  0  0  0  0  0  0  0  0  0
    0.0417   -5.0917    0.0000 O   0  0  0  0  0  0  0  0  0  0  0  0
    0.0167   -1.6042    0.0000 C   0  0  0  0  0  0  0  0  0  0  0  0
    9.1292   -2.6500    0.0000 C   0  0  0  0  0  0  0  0  0  0  0  0
   12.8167   -1.9667    0.0000 O   0  0  0  0  0  0  0  0  0  0  0  0
   -3.7458   -2.3375    0.0000 O   0  0  0  0  0  0  0  0  0  0  0  0
   12.8167   -3.3667    0.0000 O   0  0  0  0  0  0  0  0  0  0  0  0
   -3.6833   -0.8625    0.0000 O   0  0  0  0  0  0  0  0  0  0  0  0
    1.8417   -1.9667    0.0000 O   0  0  0  0  0  0  0  0  0  0  0  0
    7.3125   -2.3000    0.0000 O   0  0  0  0  0  0  0  0  0  0  0  0
    8.5167   -2.3000    0.0000 C   0  0  0  0  0  0  0  0  0  0  0  0
    0.6167   -1.9667    0.0000 C   0  0  0  0  0  0  0  0  0  0  0  0
    6.0792   -2.3375    0.0000 C   0  0  0  0  0  0  0  0  0  0  0  0
    3.0417   -1.9667    0.0000 C   0  0  0  0  0  0  0  0  0  0  0  0
    3.6375   -2.2667    0.0000 C   0  0  0  0  0  0  0  0  0  0  0  0
    5.4875   -1.9667    0.0000 C   0  0  0  0  0  0  0  0  0  0  0  0
    1.2250   -2.2875    0.0000 C   0  0  0  0  0  0  0  0  0  0  0  0
    7.9250   -1.9667    0.0000 C   0  0  0  0  0  0  0  0  0  0  0  0
    7.1917    0.0583    0.0000 C   0  0  0  0  0  0  0  0  0  0  0  0
    1.8417   -4.0417    0.0000 C   0  0  0  0  0  0  0  0  0  0  0  0
    7.2250   -0.7375    0.0000 C   0  0  0  0  0  0  0  0  0  0  0  0
    0.6417   -5.4542    0.0000 C   0  0  0  0  0  0  0  0  0  0  0  0
    1.8667   -3.3125    0.0000 C   0  0  0  0  0  0  0  0  0  0  0  0
    8.5167    1.4125    0.0000 C   0  0  0  0  0  0  0  0  0  0  0  0
   13.4417   -3.0000    0.0000 C   0  0  0  0  0  0  0  0  0  0  0  0
   13.4417   -2.3000    0.0000 C   0  0  0  0  0  0  0  0  0  0  0  0
   -4.3458   -1.9917    0.0000 C   0  0  0  0  0  0  0  0  0  0  0  0
   -4.3458   -1.2792    0.0000 C   0  0  0  0  0  0  0  0  0  0  0  0
    0.1875   -1.0917    0.0000 Cl  0  0  0  0  0  0  0  0  0  0  0  0
  3 42  1  0
  4  7  1  0
  5  6  1  0
  6  3  1  0
  7  2  1  0
  8 37  1  0
  9 36  1  0
 10 14  2  0
 11 16  2  0
 12  5  1  0
 13  4  1  0
 14 31  1  0
 15 32  2  0
 16 33  1  0
 17 30  2  0
 18 12  2  0
 19 13  2  0
 20 27  1  0
 21 26  1  0
 22  8  1  0
 23  9  1  0
 24 23  2  0
 25 22  2  0
  6 26  1  6
  7 27  1  6
 28  3  1  0
 29  2  1  0
 30 20  1  0
 31 20  2  0
 32 21  1  0
 33 21  2  0
 34 57  1  0
 35 61  1  0
 36 28  1  0
 37 29  1  0
 38 35  2  0
 39 34  2  0
 40 41  2  0
 41 63  1  0
 42 59  1  0
 43  2  1  0
 44 10  1  0
 45 11  1  0
 46 16  1  0
 47 14  1  0
 48 17  1  0
 49 15  1  0
 50  3  1  0
 51  2  1  0
 52 19  1  0
 53 18  1  0
 54 25  1  0
 55 24  1  0
 56 35  1  0
 57 65  1  0
 58 43  1  0
 59 64  1  0
 60 34  1  0
 61 62  1  0
 62 40  1  0
 63 60  1  0
 64 56  1  0
 65 58  1  0
 66 44  1  0
 67 45  1  0
 68 48  1  0
 69 49  1  0
 70 46  1  0
 71 47  1  0
 72 54  1  0
 73 52  1  0
 74 53  1  0
 75 55  1  0
  8  4  2  0
 25 19  1  0
 10 17  1  0
  9  5  2  0
 24 18  1  0
 11 15  1  0
M  CHG  4   1  -1   2   1   3   1  76  -1
M  END
> <chembl_id>
CHEMBL984

> <chembl_pref_name>
MIVACURIUM CHLORIDE
