
     RDKit          2D

125134  0  0  0  0  0  0  0  0999 V2000
   11.7297   -3.9790    0.0000 O   0  0  0  0  0  0  0  0  0  0  0  0
   11.3777   -3.2888    0.0000 C   0  0  0  0  0  0  0  0  0  0  0  0
   12.1024   -2.8945    0.0000 N   0  0  0  0  0  0  0  0  0  0  0  0
   12.2943   -2.0921    0.0000 C   0  0  0  0  0  0  0  0  0  0  0  0
   13.1167   -2.0267    0.0000 C   0  0  0  0  0  0  0  0  0  0  0  0
   13.3527   -2.7041    0.0000 C   0  0  0  0  0  0  0  0  0  0  0  0
   14.2584   -2.7413    0.0000 S   0  0  0  0  0  0  0  0  0  0  0  0
   13.7056   -3.5383    0.0000 O   0  0  0  0  0  0  0  0  0  0  0  0
   15.0848   -3.2220    0.0000 O   0  0  0  0  0  0  0  0  0  0  0  0
   14.6726   -1.9161    0.0000 C   0  0  0  0  0  0  0  0  0  0  0  0
   14.2192   -1.2269    0.0000 C   0  0  0  0  0  0  0  0  0  0  0  0
   14.5893   -0.4896    0.0000 N   0  0  0  0  0  0  0  0  0  0  0  0
   14.1359    0.1996    0.0000 C   0  0  0  0  0  0  0  0  0  0  0  0
   14.5060    0.9369    0.0000 C   0  0  0  0  0  0  0  0  0  0  0  0
   15.4129   -0.4415    0.0000 C   0  0  0  0  0  0  0  0  0  0  0  0
   15.7831    0.2958    0.0000 C   0  0  0  0  0  0  0  0  0  0  0  0
   12.8062   -3.3250    0.0000 C   0  0  0  0  0  0  0  0  0  0  0  0
   10.6739   -2.8583    0.0000 C   0  0  0  0  0  0  0  0  0  0  0  0
   10.3449   -2.0651    0.0000 C   0  0  0  0  0  0  0  0  0  0  0  0
    9.5202   -2.0442    0.0000 O   0  0  0  0  0  0  0  0  0  0  0  0
    9.9492   -3.2526    0.0000 N   0  0  0  0  0  0  0  0  0  0  0  0
    9.2455   -2.8221    0.0000 C   0  0  0  0  0  0  0  0  0  0  0  0
    8.5208   -3.2164    0.0000 C   0  0  0  0  0  0  0  0  0  0  0  0
    8.4999   -4.0411    0.0000 C   0  0  0  0  0  0  0  0  0  0  0  0
    9.3100   -4.3748    0.0000 O   0  0  0  0  0  0  0  0  0  0  0  0
    7.7752   -4.4354    0.0000 C   0  0  0  0  0  0  0  0  0  0  0  0
    7.7543   -5.2601    0.0000 C   0  0  0  0  0  0  0  0  0  0  0  0
    7.0133   -5.6649    0.0000 O   0  0  0  0  0  0  0  0  0  0  0  0
    8.4581   -5.6906    0.0000 C   0  0  0  0  0  0  0  0  0  0  0  0
    9.1828   -5.2963    0.0000 C   0  0  0  0  0  0  0  0  0  0  0  0
    8.7185   -4.6444    0.0000 C   0  0  0  0  0  0  0  0  0  0  0  0
    9.8866   -5.7268    0.0000 C   0  0  0  0  0  0  0  0  0  0  0  0
   10.6113   -5.3325    0.0000 C   0  0  0  0  0  0  0  0  0  0  0  0
   11.3151   -5.7630    0.0000 C   0  0  0  0  0  0  0  0  0  0  0  0
   12.0397   -5.3687    0.0000 N   0  0  0  0  0  0  0  0  0  0  0  0
   12.7435   -5.7992    0.0000 C   0  0  0  0  0  0  0  0  0  0  0  0
   12.7925   -6.6502    0.0000 O   0  0  0  0  0  0  0  0  0  0  0  0
   13.5546   -5.4025    0.0000 C   0  0  0  0  0  0  0  0  0  0  0  0
   14.3569   -5.5945    0.0000 C   0  0  0  0  0  0  0  0  0  0  0  0
   14.7874   -4.8907    0.0000 C   0  0  0  0  0  0  0  0  0  0  0  0
   15.6346   -5.2446    0.0000 C   0  0  0  0  0  0  0  0  0  0  0  0
   14.2510   -4.2638    0.0000 C   0  0  0  0  0  0  0  0  0  0  0  0
   15.1322   -3.8906    0.0000 C   0  0  0  0  0  0  0  0  0  0  0  0
   15.7273   -3.0801    0.0000 C   0  0  0  0  0  0  0  0  0  0  0  0
   15.8169   -4.4362    0.0000 C   0  0  0  0  0  0  0  0  0  0  0  0
   14.2347   -3.3611    0.0000 O   0  0  0  0  0  0  0  0  0  0  0  0
   13.5309   -2.9307    0.0000 C   0  0  0  0  0  0  0  0  0  0  0  0
   13.7991   -1.9869    0.0000 O   0  0  0  0  0  0  0  0  0  0  0  0
   13.5877   -2.7011    0.0000 H   0  0  0  0  0  0  0  0  0  0  0  0
    3.1949   -3.4768    0.0000 N   0  0  0  0  0  0  0  0  0  0  0  0
    2.4827   -3.0614    0.0000 C   0  0  0  0  0  0  0  0  0  0  0  0
    1.7706   -1.8249    0.0000 N   0  0  0  0  0  0  0  0  0  0  0  0
    1.0534   -2.2403    0.0000 C   0  0  0  0  0  0  0  0  0  0  0  0
   -0.4995   -1.8249    0.0000 N   0  0  0  0  0  0  0  0  0  0  0  0
    2.4827   -2.2403    0.0000 C   0  0  0  0  0  0  0  0  0  0  0  0
    3.1949   -4.2928    0.0000 C   0  0  0  0  0  0  0  0  0  0  0  0
    1.7706   -4.2928    0.0000 N   0  0  0  0  0  0  0  0  0  0  0  0
   -1.8101   -4.7082    0.0000 C   0  0  0  0  0  0  0  0  0  0  0  0
   -1.2265   -2.2305    0.0000 C   0  0  0  0  0  0  0  0  0  0  0  0
    2.4827   -4.7082    0.0000 C   0  0  0  0  0  0  0  0  0  0  0  0
   -2.6261   -4.2335    0.0000 C   0  0  0  0  0  0  0  0  0  0  0  0
    0.3412   -4.2928    0.0000 C   0  0  0  0  0  0  0  0  0  0  0  0
   -2.5222   -5.9495    0.0000 C   0  0  0  0  0  0  0  0  0  0  0  0
   -2.6508   -2.2107    0.0000 N   0  0  0  0  0  0  0  0  0  0  0  0
   -1.8101   -5.5391    0.0000 N   0  0  0  0  0  0  0  0  0  0  0  0
    0.3314   -1.8249    0.0000 C   0  0  0  0  0  0  0  0  0  0  0  0
   -2.5321   -6.7705    0.0000 C   0  0  0  0  0  0  0  0  0  0  0  0
   -0.3808   -4.7082    0.0000 O   0  0  0  0  0  0  0  0  0  0  0  0
    3.9070   -3.0614    0.0000 C   0  0  0  0  0  0  0  0  0  0  0  0
    1.0534   -4.7082    0.0000 C   0  0  0  0  0  0  0  0  0  0  0  0
    3.9070   -4.7181    0.0000 C   0  0  0  0  0  0  0  0  0  0  0  0
    4.6192   -3.4768    0.0000 C   0  0  0  0  0  0  0  0  0  0  0  0
    4.6192   -4.2928    0.0000 C   0  0  0  0  0  0  0  0  0  0  0  0
   -1.9238   -1.8002    0.0000 C   0  0  0  0  0  0  0  0  0  0  0  0
   -1.0929   -4.2928    0.0000 C   0  0  0  0  0  0  0  0  0  0  0  0
    6.5578   -0.8507    0.0000 N   0  0  0  0  0  0  0  0  0  0  0  0
   -3.2443   -7.1860    0.0000 N   0  0  0  0  0  0  0  0  0  0  0  0
    5.8655   -1.9338    0.0000 C   0  0  0  0  0  0  0  0  0  0  0  0
    5.8655   -2.7596    0.0000 S   0  0  0  0  0  0  0  0  0  0  0  0
    1.7706   -3.4768    0.0000 O   0  0  0  0  0  0  0  0  0  0  0  0
    3.1949   -1.8151    0.0000 C   0  0  0  0  0  0  0  0  0  0  0  0
    1.0534   -3.0614    0.0000 O   0  0  0  0  0  0  0  0  0  0  0  0
    5.4501   -3.4768    0.0000 C   0  0  0  0  0  0  0  0  0  0  0  0
   -1.2314   -3.0564    0.0000 O   0  0  0  0  0  0  0  0  0  0  0  0
    5.7616   -1.1919    0.0000 C   0  0  0  0  0  0  0  0  0  0  0  0
   -3.3481   -4.6439    0.0000 O   0  0  0  0  0  0  0  0  0  0  0  0
    2.4827   -5.5391    0.0000 O   0  0  0  0  0  0  0  0  0  0  0  0
    0.3412   -3.4718    0.0000 O   0  0  0  0  0  0  0  0  0  0  0  0
   -1.8199   -7.1860    0.0000 C   0  0  0  0  0  0  0  0  0  0  0  0
   -3.2443   -5.5391    0.0000 O   0  0  0  0  0  0  0  0  0  0  0  0
    3.1949    0.6528    0.0000 C   0  0  0  0  0  0  0  0  0  0  0  0
    6.6964   -1.5777    0.0000 C   0  0  0  0  0  0  0  0  0  0  0  0
    3.1949    1.4787    0.0000 N   0  0  0  0  0  0  0  0  0  0  0  0
    5.3462   -4.7082    0.0000 O   0  0  0  0  0  0  0  0  0  0  0  0
    1.0534   -5.5391    0.0000 C   0  0  0  0  0  0  0  0  0  0  0  0
    3.9169    0.2374    0.0000 C   0  0  0  0  0  0  0  0  0  0  0  0
    2.4827    0.2374    0.0000 C   0  0  0  0  0  0  0  0  0  0  0  0
    7.4234   -1.9189    0.0000 C   0  0  0  0  0  0  0  0  0  0  0  0
    6.8299   -0.5638    0.0000 C   0  0  0  0  0  0  0  0  0  0  0  0
    7.2750   -1.1721    0.0000 C   0  0  0  0  0  0  0  0  0  0  0  0
    6.5875    0.0297    0.0000 C   0  0  0  0  0  0  0  0  0  0  0  0
   -0.7418   -1.0386    0.0000 C   0  0  0  0  0  0  0  0  0  0  0  0
    1.7706   -0.9990    0.0000 C   0  0  0  0  0  0  0  0  0  0  0  0
    3.1949   -0.9990    0.0000 C   0  0  0  0  0  0  0  0  0  0  0  0
    2.4827   -0.5836    0.0000 C   0  0  0  0  0  0  0  0  0  0  0  0
    3.9169   -0.5836    0.0000 C   0  0  0  0  0  0  0  0  0  0  0  0
    0.5935   -1.0436    0.0000 C   0  0  0  0  0  0  0  0  0  0  0  0
   -1.0979   -6.7656    0.0000 O   0  0  0  0  0  0  0  0  0  0  0  0
   -1.9139   -0.9792    0.0000 C   0  0  0  0  0  0  0  0  0  0  0  0
   -0.0742   -0.5539    0.0000 C   0  0  0  0  0  0  0  0  0  0  0  0
   -1.0929   -3.4718    0.0000 C   0  0  0  0  0  0  0  0  0  0  0  0
   -3.2443   -8.0118    0.0000 C   0  0  0  0  0  0  0  0  0  0  0  0
    2.4827    1.8941    0.0000 C   0  0  0  0  0  0  0  0  0  0  0  0
    3.9070    1.8991    0.0000 C   0  0  0  0  0  0  0  0  0  0  0  0
   -1.8101   -8.0118    0.0000 C   0  0  0  0  0  0  0  0  0  0  0  0
    1.7706   -5.9397    0.0000 C   0  0  0  0  0  0  0  0  0  0  0  0
    0.3314   -5.9397    0.0000 C   0  0  0  0  0  0  0  0  0  0  0  0
   -1.1968   -0.5836    0.0000 C   0  0  0  0  0  0  0  0  0  0  0  0
   -2.5321   -8.4273    0.0000 C   0  0  0  0  0  0  0  0  0  0  0  0
    0.3314   -6.7705    0.0000 C   0  0  0  0  0  0  0  0  0  0  0  0
    1.7706   -6.7705    0.0000 C   0  0  0  0  0  0  0  0  0  0  0  0
    1.0534   -7.1860    0.0000 C   0  0  0  0  0  0  0  0  0  0  0  0
    4.9290   -2.3310    0.0000 H   0  0  0  0  0  0  0  0  0  0  0  0
    1.4412   -1.4040    0.0000 H   0  0  0  0  0  0  0  0  0  0  0  0
    3.1888   -5.4797    0.0000 H   0  0  0  0  0  0  0  0  0  0  0  0
  2  1  2  0
  2  3  1  0
  2 18  1  0
  4  3  1  0
 17  3  1  0
  5  4  1  0
  6  5  1  0
  6  7  1  1
 17  6  1  0
  8  7  2  0
  9  7  2  0
 10  7  1  0
 10 11  1  0
 11 12  1  0
 13 12  1  0
 15 12  1  0
 13 14  1  0
 15 16  1  0
 17 47  1  0
 19 18  2  0
 18 21  1  0
 19 20  1  0
 22 20  1  0
 22 21  2  0
 22 23  1  0
 23 24  1  0
 24 25  2  0
 24 26  1  0
 26 27  1  0
 27 28  1  1
 27 29  1  0
 29 30  2  0
 30 31  1  0
 30 32  1  0
 32 33  2  0
 33 34  1  0
 34 35  1  0
 36 35  1  0
 36 37  2  0
 36 38  1  0
 38 39  2  0
 39 40  1  0
 40 41  1  6
 40 42  1  0
 42 43  1  1
 42 46  1  0
 43 44  1  0
 43 45  1  0
 47 46  1  0
 47 48  2  0
 17 49  1  1
 51 50  1  0
 52 55  1  0
 53 52  1  0
 54 66  1  0
 55 51  1  0
 56 50  1  0
 57 60  1  0
 58 75  1  0
 59 54  1  0
 56 60  1  0
 61 58  1  0
 62 70  1  0
 63 65  1  0
 64 74  1  0
 58 65  1  6
 66 53  1  0
 67 63  1  0
 68 62  1  0
 69 50  1  0
 70 57  1  0
 71 56  1  0
 72 69  1  0
 73 72  1  0
 74 59  1  0
 75 68  1  0
 76 85  1  0
 77 67  2  0
 78 79  1  6
 79 83  1  0
 80 51  2  0
 55 81  1  1
 82 53  2  0
 83 72  1  0
 84 59  2  0
 85 78  1  0
 86 61  2  0
 87 60  2  0
 88 62  2  0
 89 67  1  0
 90 63  2  0
 91 96  2  0
 92 78  1  0
 93 91  1  0
 94 73  2  0
 70 95  1  1
 96106  1  0
 97105  2  0
 98 92  1  0
 99 92  1  0
100 98  1  0
101 99  1  0
102 54  1  0
103 52  1  0
104 81  1  0
105104  1  0
106104  2  0
107 66  1  0
108 89  1  0
 74109  1  6
110107  1  0
 75111  1  1
112 77  1  0
113 93  1  0
114 93  1  0
115 89  2  0
116 95  1  0
117 95  2  0
118109  1  0
119115  1  0
120117  1  0
121116  2  0
122120  2  0
 72123  1  6
 66124  1  6
 73 71  1  0
 91 97  1  0
110102  1  0
101 76  1  0
100 76  1  0
122121  1  0
 61 64  1  0
119112  2  0
 56125  1  6
M  END
> <chembl_id>
CHEMBL3137691

> <chembl_pref_name>
QUINUPRISTIN/DALFOPRISTIN
