
     RDKit          2D

 24 26  0  0  1  0  0  0  0  0999 V2000
    5.7426   -2.9897    0.0000 C   0  0  0  0  0  0  0  0  0  0  0  0
    6.2208   -3.5692    0.0000 N   0  0  0  0  0  0  0  0  0  0  0  0
    6.2014   -2.2458    0.0000 N   0  0  0  0  0  0  0  0  0  0  0  0
    4.9312   -2.9897    0.0000 S   0  0  0  0  0  0  0  0  0  0  0  0
    7.0032   -2.5211    0.0000 C   0  0  0  0  0  0  0  0  0  0  0  0
    3.5113   -2.9703    0.0000 C   0  0  0  0  0  0  0  0  0  0  0  0
    2.8013   -2.5501    0.0000 C   0  0  0  0  0  0  0  0  0  0  0  0
    4.1778   -2.5840    0.0000 C   0  0  0  0  0  0  0  0  0  0  0  0
    7.0032   -3.3519    0.0000 C   0  0  0  0  0  0  0  0  0  0  0  0
    2.1058   -2.9703    0.0000 C   0  0  0  0  0  0  0  0  0  0  0  0
    3.5113   -3.7866    0.0000 N   0  0  0  0  0  0  0  0  0  0  0  0
    2.1058   -3.7866    0.0000 C   0  0  0  0  0  0  0  0  0  0  0  0
    7.7422   -2.0768    0.0000 C   0  0  0  0  0  0  0  0  0  0  0  0
    4.7863   -3.7817    0.0000 O   0  0  0  0  0  0  0  0  0  0  0  0
    2.8013   -4.1923    0.0000 C   0  0  0  0  0  0  0  0  0  0  0  0
    7.7422   -3.7576    0.0000 C   0  0  0  0  0  0  0  0  0  0  0  0
    8.4473   -2.5211    0.0000 C   0  0  0  0  0  0  0  0  0  0  0  0
    1.3910   -2.5501    0.0000 O   0  0  0  0  0  0  0  0  0  0  0  0
    8.4473   -3.3519    0.0000 C   0  0  0  0  0  0  0  0  0  0  0  0
    2.8013   -1.6856    0.0000 C   0  0  0  0  0  0  0  0  0  0  0  0
    9.1621   -2.1203    0.0000 O   0  0  0  0  0  0  0  0  0  0  0  0
    1.3910   -4.1923    0.0000 C   0  0  0  0  0  0  0  0  0  0  0  0
    0.6569   -2.9703    0.0000 C   0  0  0  0  0  0  0  0  0  0  0  0
    9.8672   -2.5260    0.0000 C   0  0  0  0  0  0  0  0  0  0  0  0
  2  1  1  0
  3  1  2  0
  4  1  1  0
  5  3  1  0
  6  8  1  0
  7  6  1  0
  8  4  1  0
  9  2  1  0
 10  7  2  0
 11  6  2  0
 12 15  2  0
 13  5  2  0
  4 14  1  1
 15 11  1  0
 16  9  2  0
 17 13  1  0
 18 10  1  0
 19 16  1  0
 20  7  1  0
 21 17  1  0
 22 12  1  0
 23 18  1  0
 24 21  1  0
  5  9  1  0
 17 19  2  0
 10 12  1  0
M  CHG  2   4   1  14  -1
M  END
> <chembl_id>
CHEMBL1201320

> <chembl_pref_name>
ESOMEPRAZOLE
