
     RDKit          2D

 20 22  0  0  0  0  0  0  0  0999 V2000
    3.1417   -4.7292    0.0000 C   0  0  0  0  0  0  0  0  0  0  0  0
    3.7875   -4.4250    0.0000 C   0  0  0  0  0  0  0  0  0  0  0  0
    2.5042   -4.4250    0.0000 C   0  0  0  0  0  0  0  0  0  0  0  0
    3.1417   -5.4292    0.0000 C   0  0  0  0  0  0  0  0  0  0  0  0
    3.9542   -3.7417    0.0000 C   0  0  0  0  0  0  0  0  0  0  0  0
    2.3542   -3.7292    0.0000 C   0  0  0  0  0  0  0  0  0  0  0  0
    3.5042   -3.1750    0.0000 C   0  0  0  0  0  0  0  0  0  0  0  0
    2.8000   -3.1750    0.0000 C   0  0  0  0  0  0  0  0  0  0  0  0
    4.3292   -6.8500    0.0000 N   0  0  0  0  0  0  0  0  0  0  0  0
    4.2917   -4.9292    0.0000 C   0  0  0  0  0  0  0  0  0  0  0  0
    1.9792   -4.8917    0.0000 C   0  0  0  0  0  0  0  0  0  0  0  0
    3.7250   -5.7875    0.0000 C   0  0  0  0  0  0  0  0  0  0  0  0
    4.6542   -3.5417    0.0000 C   0  0  0  0  0  0  0  0  0  0  0  0
    1.6792   -3.5125    0.0000 C   0  0  0  0  0  0  0  0  0  0  0  0
    3.7292   -6.4917    0.0000 C   0  0  0  0  0  0  0  0  0  0  0  0
    4.9292   -6.5042    0.0000 C   0  0  0  0  0  0  0  0  0  0  0  0
    4.9792   -4.7542    0.0000 C   0  0  0  0  0  0  0  0  0  0  0  0
    1.3042   -4.6875    0.0000 C   0  0  0  0  0  0  0  0  0  0  0  0
    1.1417   -3.9750    0.0000 C   0  0  0  0  0  0  0  0  0  0  0  0
    5.1625   -4.0542    0.0000 C   0  0  0  0  0  0  0  0  0  0  0  0
  2  1  1  0
  3  1  1  0
  4  1  2  0
  5  2  2  0
  6  3  2  0
  7  5  1  0
  8  6  1  0
  9 15  1  0
 10  2  1  0
 11  3  1  0
 12  4  1  0
 13  5  1  0
 14  6  1  0
 15 12  1  0
 16  9  1  0
 17 10  2  0
 18 11  2  0
 19 18  1  0
 20 17  1  0
  8  7  1  0
 19 14  2  0
 20 13  2  0
M  END
> <chembl_id>
CHEMBL445

> <chembl_pref_name>
NORTRIPTYLINE
