
     RDKit          2D

 29 32  0  0  0  0  0  0  0  0999 V2000
    7.4051    4.1132    0.0000 C   0  0  0  0  0  0  0  0  0  0  0  0
    6.7920    4.6652    0.0000 N   0  0  0  0  0  0  0  0  0  0  0  0
    8.1897    4.3681    0.0000 C   0  0  0  0  0  0  0  0  0  0  0  0
    6.9635    5.4722    0.0000 C   0  0  0  0  0  0  0  0  0  0  0  0
    8.3612    5.1751    0.0000 O   0  0  0  0  0  0  0  0  0  0  0  0
    7.7481    5.7271    0.0000 C   0  0  0  0  0  0  0  0  0  0  0  0
    4.4381    3.9004    0.0000 C   0  0  0  0  0  0  0  0  0  0  0  0
    4.6096    4.7073    0.0000 C   0  0  0  0  0  0  0  0  0  0  0  0
    5.0512    3.3483    0.0000 C   0  0  0  0  0  0  0  0  0  0  0  0
    5.3942    4.9623    0.0000 C   0  0  0  0  0  0  0  0  0  0  0  0
    5.8358    3.6033    0.0000 C   0  0  0  0  0  0  0  0  0  0  0  0
    6.0073    4.4103    0.0000 C   0  0  0  0  0  0  0  0  0  0  0  0
    6.3504    6.0242    0.0000 O   0  0  0  0  0  0  0  0  0  0  0  0
    3.6535    3.6454    0.0000 N   0  0  0  0  0  0  0  0  0  0  0  0
    2.9860    4.1304    0.0000 C   0  0  0  0  0  0  0  0  0  0  0  0
    3.3985    2.8608    0.0000 C   0  0  0  0  0  0  0  0  0  0  0  0
    2.3186    3.6454    0.0000 O   0  0  0  0  0  0  0  0  0  0  0  0
    2.5735    2.8608    0.0000 C   0  0  0  0  0  0  0  0  0  0  0  0
    2.9860    4.9554    0.0000 O   0  0  0  0  0  0  0  0  0  0  0  0
    2.0886    2.1934    0.0000 C   0  0  0  0  0  0  0  0  0  0  0  0
    2.4242    1.4397    0.0000 N   0  0  0  0  0  0  0  0  0  0  0  0
    1.9392    0.7723    0.0000 C   0  0  0  0  0  0  0  0  0  0  0  0
    1.8623   -0.6959    0.0000 S   0  0  0  0  0  0  0  0  0  0  0  0
    2.4143   -1.3090    0.0000 C   0  0  0  0  0  0  0  0  0  0  0  0
    2.2748    0.0186    0.0000 C   0  0  0  0  0  0  0  0  0  0  0  0
    3.1680   -0.9734    0.0000 C   0  0  0  0  0  0  0  0  0  0  0  0
    3.0818   -0.1529    0.0000 C   0  0  0  0  0  0  0  0  0  0  0  0
    1.1188    0.8585    0.0000 O   0  0  0  0  0  0  0  0  0  0  0  0
    2.2428   -2.1159    0.0000 Cl  0  0  0  0  0  0  0  0  0  0  0  0
  1  2  1  0
  1  3  1  0
  4  2  1  0
 12  2  1  0
  3  5  1  0
  4  6  1  0
  4 13  2  0
  6  5  1  0
  7  8  1  0
  7  9  2  0
  7 14  1  0
 10  8  2  0
 11  9  1  0
 10 12  1  0
 11 12  2  0
 15 14  1  0
 16 14  1  0
 15 17  1  0
 15 19  2  0
 16 18  1  0
 18 17  1  0
 18 20  1  6
 20 21  1  0
 22 21  1  0
 22 25  1  0
 22 28  2  0
 24 23  1  0
 25 23  1  0
 24 26  2  0
 24 29  1  0
 25 27  2  0
 26 27  1  0
M  END
> <chembl_id>
CHEMBL198362

> <chembl_pref_name>
RIVAROXABAN
