
     RDKit          2D

 43 45  0  0  0  0  0  0  0  0999 V2000
    6.9708   -4.4958    0.0000 O   0  0  0  0  0  0  0  0  0  0  0  0
    7.5843   -4.1417    0.0000 C   0  0  0  0  0  0  0  0  0  0  0  0
    8.3519   -4.5292    0.0000 C   0  0  0  0  0  0  0  0  0  0  0  0
   -1.6742   -3.0435    0.0000 C   0  0  0  0  0  0  0  0  0  0  0  0
   -2.8217   -3.0207    0.0000 O   0  0  0  0  0  0  0  0  0  0  0  0
   -2.2574   -3.4487    0.0000 C   0  0  0  0  0  0  0  0  0  0  0  0
   -2.5888   -2.3516    0.0000 C   0  0  0  0  0  0  0  0  0  0  0  0
   -1.8792   -2.3628    0.0000 C   0  0  0  0  0  0  0  0  0  0  0  0
   -1.6493   -1.6914    0.0000 C   0  0  0  0  0  0  0  0  0  0  0  0
   -2.2169   -1.2652    0.0000 C   0  0  0  0  0  0  0  0  0  0  0  0
   -2.7974   -1.6734    0.0000 O   0  0  0  0  0  0  0  0  0  0  0  0
    0.7792   -3.0292    0.0000 C   0  0  0  0  0  0  0  0  0  0  0  0
    0.1678   -3.3869    0.0000 N   0  0  0  0  0  0  0  0  0  0  0  0
    1.3947   -3.3797    0.0000 C   0  0  0  0  0  0  0  0  0  0  0  0
    2.0060   -3.0219    0.0000 C   0  0  0  0  0  0  0  0  0  0  0  0
    2.6215   -3.3725    0.0000 N   0  0  0  0  0  0  0  0  0  0  0  0
    3.2329   -3.0147    0.0000 S   0  0  0  0  0  0  0  0  0  0  0  0
    3.8484   -3.3653    0.0000 C   0  0  0  0  0  0  0  0  0  0  0  0
    2.6247   -4.0809    0.0000 C   0  0  0  0  0  0  0  0  0  0  0  0
    2.9667   -4.7012    0.0000 C   0  0  0  0  0  0  0  0  0  0  0  0
    2.6005   -5.3076    0.0000 C   0  0  0  0  0  0  0  0  0  0  0  0
    3.6749   -4.7152    0.0000 C   0  0  0  0  0  0  0  0  0  0  0  0
    3.8480   -4.0722    0.0000 C   0  0  0  0  0  0  0  0  0  0  0  0
    4.4628   -4.4227    0.0000 C   0  0  0  0  0  0  0  0  0  0  0  0
    5.0749   -4.0648    0.0000 C   0  0  0  0  0  0  0  0  0  0  0  0
    5.0685   -3.3529    0.0000 C   0  0  0  0  0  0  0  0  0  0  0  0
    4.4532   -3.0056    0.0000 C   0  0  0  0  0  0  0  0  0  0  0  0
    2.8708   -2.3958    0.0000 O   0  0  0  0  0  0  0  0  0  0  0  0
    3.5792   -2.3958    0.0000 O   0  0  0  0  0  0  0  0  0  0  0  0
   -0.4477   -3.0364    0.0000 C   0  0  0  0  0  0  0  0  0  0  0  0
   -1.0590   -3.3942    0.0000 O   0  0  0  0  0  0  0  0  0  0  0  0
   -0.4518   -2.3281    0.0000 O   0  0  0  0  0  0  0  0  0  0  0  0
    5.6909   -4.4146    0.0000 N   0  0  0  0  0  0  0  0  0  0  0  0
   -1.1750   -2.3625    0.0000 H   0  0  0  0  0  0  0  0  0  0  0  0
   -3.3000   -2.3500    0.0000 H   0  0  0  0  0  0  0  0  0  0  0  0
    0.7750   -2.3208    0.0000 C   0  0  0  0  0  0  0  0  0  0  0  0
    1.3863   -1.9631    0.0000 C   0  0  0  0  0  0  0  0  0  0  0  0
    2.0015   -2.3150    0.0000 C   0  0  0  0  0  0  0  0  0  0  0  0
    2.6125   -1.9579    0.0000 C   0  0  0  0  0  0  0  0  0  0  0  0
    2.6087   -1.2488    0.0000 C   0  0  0  0  0  0  0  0  0  0  0  0
    1.9889   -0.8984    0.0000 C   0  0  0  0  0  0  0  0  0  0  0  0
    1.3805   -1.2576    0.0000 C   0  0  0  0  0  0  0  0  0  0  0  0
    1.3988   -4.0880    0.0000 O   0  0  0  0  0  0  0  0  0  0  0  0
  1  2  1  0
  2  3  1  0
 23 24  1  0
 12 13  1  0
 24 25  2  0
  4  8  1  0
 25 26  1  0
 12 14  1  0
 26 27  2  0
 27 18  1  0
 17 28  2  0
 14 15  1  0
 17 29  2  0
 13 30  1  0
 15 16  1  0
 30 31  1  0
  7  5  1  0
 30 32  2  0
 16 17  1  0
 25 33  1  0
  4 31  1  1
  5  6  1  0
  8 34  1  6
 17 18  1  0
  7 35  1  6
  8  9  1  0
 12 36  1  1
 16 19  1  0
 36 37  1  0
  9 10  1  0
 37 38  2  0
 19 20  1  0
 38 39  1  0
 10 11  1  0
 39 40  2  0
 20 21  1  0
 40 41  1  0
 11  7  1  0
 41 42  2  0
 42 37  1  0
 20 22  1  0
 14 43  1  1
  6  4  1  0
 18 23  2  0
  7  8  1  0
M  END
> <chembl_id>
CHEMBL1201127

> <chembl_pref_name>
DARUNAVIR ETHANOLATE
