
     RDKit          2D

  7  6  0  0  0  0  0  0  0  0999 V2000
   -0.5833   -0.3792    0.0000 C   0  0  0  0  0  0  0  0  0  0  0  0
    0.6625    0.3333    0.0000 C   0  0  0  0  0  0  0  0  0  0  0  0
   -1.8208    0.3333    0.0000 Cl  0  0  0  0  0  0  0  0  0  0  0  0
   -1.2083   -1.6667    0.0000 Cl  0  0  0  0  0  0  0  0  0  0  0  0
    0.1125   -1.6292    0.0000 Cl  0  0  0  0  0  0  0  0  0  0  0  0
    0.6625    1.7708    0.0000 O   0  0  0  0  0  0  0  0  0  0  0  0
    1.9000   -0.3792    0.0000 O   0  0  0  0  0  0  0  0  0  0  0  0
  2  1  1  0
  3  1  1  0
  4  1  1  0
  5  1  1  0
  6  2  1  0
  7  2  1  0
M  END
> <chembl_id>
CHEMBL455917

> <chembl_pref_name>
CHLORAL HYDRATE
