
     RDKit          2D

 32 35  0  0  0  0  0  0  0  0999 V2000
   -6.1299   -1.0971    0.0000 C   0  0  0  0  0  0  0  0  0  0  0  0
   -6.8443   -1.5096    0.0000 O   0  0  0  0  0  0  0  0  0  0  0  0
   -6.8443   -2.3346    0.0000 C   0  0  0  0  0  0  0  0  0  0  0  0
   -6.1299   -2.7471    0.0000 C   0  0  0  0  0  0  0  0  0  0  0  0
   -5.4154   -2.3346    0.0000 N   0  0  0  0  0  0  0  0  0  0  0  0
   -5.4154   -1.5096    0.0000 C   0  0  0  0  0  0  0  0  0  0  0  0
   -4.7009   -2.7471    0.0000 C   0  0  0  0  0  0  0  0  0  0  0  0
   -3.9864   -2.3346    0.0000 C   0  0  0  0  0  0  0  0  0  0  0  0
   -3.2720   -2.7471    0.0000 O   0  0  0  0  0  0  0  0  0  0  0  0
   -2.5575   -2.3347    0.0000 C   0  0  0  0  0  0  0  0  0  0  0  0
   -2.5575   -1.5097    0.0000 C   0  0  0  0  0  0  0  0  0  0  0  0
   -1.8430   -2.7472    0.0000 C   0  0  0  0  0  0  0  0  0  0  0  0
   -1.1285   -2.3347    0.0000 C   0  0  0  0  0  0  0  0  0  0  0  0
   -1.1285   -1.5097    0.0000 C   0  0  0  0  0  0  0  0  0  0  0  0
   -1.8430   -1.0972    0.0000 C   0  0  0  0  0  0  0  0  0  0  0  0
   -0.4140   -1.0972    0.0000 C   0  0  0  0  0  0  0  0  0  0  0  0
    0.3004   -1.5097    0.0000 C   0  0  0  0  0  0  0  0  0  0  0  0
   -0.4140   -0.2722    0.0000 C   0  0  0  0  0  0  0  0  0  0  0  0
    0.3004    0.1404    0.0000 N   0  0  0  0  0  0  0  0  0  0  0  0
    1.0149   -0.2722    0.0000 C   0  0  0  0  0  0  0  0  0  0  0  0
    1.0149   -1.0972    0.0000 C   0  0  0  0  0  0  0  0  0  0  0  0
    2.4438   -1.0972    0.0000 O   0  0  0  0  0  0  0  0  0  0  0  0
    2.4438   -0.2722    0.0000 C   0  0  0  0  0  0  0  0  0  0  0  0
    1.7294    0.1403    0.0000 C   0  0  0  0  0  0  0  0  0  0  0  0
    3.8728   -0.2722    0.0000 C   0  0  0  0  0  0  0  0  0  0  0  0
    3.1583    0.1403    0.0000 N   0  0  0  0  0  0  0  0  0  0  0  0
    5.3018   -0.2723    0.0000 C   0  0  0  0  0  0  0  0  0  0  0  0
    4.5873    0.1403    0.0000 C   0  0  0  0  0  0  0  0  0  0  0  0
    4.5873    0.9653    0.0000 C   0  0  0  0  0  0  0  0  0  0  0  0
    5.3018    1.3778    0.0000 C   0  0  0  0  0  0  0  0  0  0  0  0
    6.0162    0.9653    0.0000 C   0  0  0  0  0  0  0  0  0  0  0  0
    6.0162    0.1402    0.0000 C   0  0  0  0  0  0  0  0  0  0  0  0
  1  2  1  0
  2  3  1  0
  3  4  1  0
  4  5  1  0
  5  6  1  0
  1  6  1  0
  7  8  1  0
  5  7  1  0
  9 10  1  0
 10 11  1  0
  8  9  1  0
 12 13  1  0
 13 14  2  0
 14 15  1  0
 10 12  2  0
 11 15  2  0
 16 17  1  0
 16 14  1  0
 18 19  1  0
 19 20  2  0
 20 21  1  0
 17 21  2  0
 16 18  2  0
 22 23  2  0
 23 24  1  0
 20 24  1  0
 25 26  1  0
 23 26  1  0
 27 28  1  0
 25 28  1  0
 29 30  1  0
 30 31  2  0
 31 32  1  0
 27 32  2  0
 28 29  2  0
M  END
> <chembl_id>
CHEMBL571546

> <chembl_pref_name>
TIRBANIBULIN
