
     RDKit          2D

 44 46  0  0  1  0  0  0  0  0999 V2000
    5.9667   -3.2750    0.0000 P   0  0  0  0  0  0  0  0  0  0  0  0
   10.1625   -1.8292    0.0000 N   0  0  0  0  0  0  0  0  0  0  0  0
    5.3500   -3.6292    0.0000 C   0  0  0  0  0  0  0  0  0  0  0  0
    9.4417   -1.5875    0.0000 C   0  0  0  0  0  0  0  0  0  0  0  0
   10.1792   -3.6292    0.0000 C   0  0  0  0  0  0  0  0  0  0  0  0
    9.4417   -0.8792    0.0000 C   0  0  0  0  0  0  0  0  0  0  0  0
    6.5792   -3.6292    0.0000 O   0  0  0  0  0  0  0  0  0  0  0  0
    4.7375   -3.2750    0.0000 P   0  0  0  0  0  0  0  0  0  0  0  0
    8.8750   -1.9667    0.0000 N   0  0  0  0  0  0  0  0  0  0  0  0
   10.1625   -0.6792    0.0000 N   0  0  0  0  0  0  0  0  0  0  0  0
    9.9625   -4.3042    0.0000 C   0  0  0  0  0  0  0  0  0  0  0  0
   10.5375   -1.2292    0.0000 C   0  0  0  0  0  0  0  0  0  0  0  0
    8.2167   -0.8792    0.0000 N   0  0  0  0  0  0  0  0  0  0  0  0
    9.6125   -3.2167    0.0000 O   0  0  0  0  0  0  0  0  0  0  0  0
    7.1917   -3.2750    0.0000 P   0  0  0  0  0  0  0  0  0  0  0  0
    8.8292   -0.5250    0.0000 C   0  0  0  0  0  0  0  0  0  0  0  0
    8.2167   -1.5917    0.0000 C   0  0  0  0  0  0  0  0  0  0  0  0
    9.0375   -3.6292    0.0000 C   0  0  0  0  0  0  0  0  0  0  0  0
    9.2542   -4.3042    0.0000 C   0  0  0  0  0  0  0  0  0  0  0  0
    5.7667   -1.5875    0.0000 C   0  0  0  0  0  0  0  0  0  0  0  0
    6.3167   -2.6542    0.0000 O   0  0  0  0  0  0  0  0  0  0  0  0
    8.4167   -3.2792    0.0000 C   0  0  0  0  0  0  0  0  0  0  0  0
    7.8042   -3.6292    0.0000 O   0  0  0  0  0  0  0  0  0  0  0  0
    5.0875   -2.6542    0.0000 O   0  0  0  0  0  0  0  0  0  0  0  0
    5.6042   -2.6542    0.0000 O   0  0  0  0  0  0  0  0  0  0  0  0
    7.5417   -2.6542    0.0000 O   0  0  0  0  0  0  0  0  0  0  0  0
    4.9917   -4.2417    0.0000 Cl  0  0  0  0  0  0  0  0  0  0  0  0
    5.7000   -4.2417    0.0000 Cl  0  0  0  0  0  0  0  0  0  0  0  0
    6.3792   -1.9417    0.0000 C   0  0  0  0  0  0  0  0  0  0  0  0
    7.6042   -1.9417    0.0000 S   0  0  0  0  0  0  0  0  0  0  0  0
    8.8292    0.1833    0.0000 N   0  0  0  0  0  0  0  0  0  0  0  0
    4.1250   -3.6292    0.0000 O   0  0  0  0  0  0  0  0  0  0  0  0
    4.3792   -2.6542    0.0000 O   0  0  0  0  0  0  0  0  0  0  0  0
   10.3792   -4.8792    0.0000 O   0  0  0  0  0  0  0  0  0  0  0  0
    6.8292   -2.6542    0.0000 O   0  0  0  0  0  0  0  0  0  0  0  0
    6.1167   -0.9667    0.0000 F   0  0  0  0  0  0  0  0  0  0  0  0
    5.4042   -0.9667    0.0000 F   0  0  0  0  0  0  0  0  0  0  0  0
    5.1542   -1.9417    0.0000 F   0  0  0  0  0  0  0  0  0  0  0  0
    8.8417   -4.8792    0.0000 O   0  0  0  0  0  0  0  0  0  0  0  0
    6.9917   -1.5917    0.0000 C   0  0  0  0  0  0  0  0  0  0  0  0
    6.9917    0.5333    0.0000 S   0  0  0  0  0  0  0  0  0  0  0  0
    8.2167    0.5333    0.0000 C   0  0  0  0  0  0  0  0  0  0  0  0
    7.6042    0.1833    0.0000 C   0  0  0  0  0  0  0  0  0  0  0  0
    6.3792    0.1750    0.0000 C   0  0  0  0  0  0  0  0  0  0  0  0
  5  2  1  1
  3  1  1  0
  4  2  1  0
  5 14  1  0
  6  4  1  0
  7  1  1  0
  8  3  1  0
  9  4  2  0
 10 12  2  0
 11 19  1  0
 12  2  1  0
 13 17  2  0
 14 18  1  0
 15  7  1  0
 16  6  2  0
 17  9  1  0
 18 22  1  1
 19 18  1  0
 20 29  1  0
 21  1  2  0
 22 23  1  0
 23 15  1  0
 24  8  2  0
 25  1  1  0
 26 15  2  0
 27  3  1  0
 28  3  1  0
 29 40  1  0
 30 17  1  0
 31 16  1  0
 32  8  1  0
 33  8  1  0
 11 34  1  6
 35 15  1  0
 36 20  1  0
 37 20  1  0
 38 20  1  0
 19 39  1  6
 40 30  1  0
 41 43  1  0
 42 31  1  0
 43 42  1  0
 44 41  1  0
  5 11  1  0
  6 10  1  0
 13 16  1  0
M  END
> <chembl_id>
CHEMBL334966

> <chembl_pref_name>
CANGRELOR
