
     RDKit          2D

 24 26  0  0  0  0  0  0  0  0999 V2000
    2.5292    0.6833    0.0000 C   0  0  0  0  0  0  0  0  0  0  0  0
    0.8000    0.6833    0.0000 C   0  0  0  0  0  0  0  0  0  0  0  0
    1.6500    1.1833    0.0000 C   0  0  0  0  0  0  0  0  0  0  0  0
    0.8000   -0.3292    0.0000 C   0  0  0  0  0  0  0  0  0  0  0  0
    2.5292   -0.3292    0.0000 C   0  0  0  0  0  0  0  0  0  0  0  0
    1.6500   -0.8250    0.0000 N   0  0  0  0  0  0  0  0  0  0  0  0
   -0.0500   -0.8250    0.0000 C   0  0  0  0  0  0  0  0  0  0  0  0
   -0.9000   -0.3292    0.0000 C   0  0  0  0  0  0  0  0  0  0  0  0
   -0.0500    1.1833    0.0000 C   0  0  0  0  0  0  0  0  0  0  0  0
   -1.7375   -0.8375    0.0000 N   0  0  0  0  0  0  0  0  0  0  0  0
    3.4042    1.1833    0.0000 C   0  0  0  0  0  0  0  0  0  0  0  0
   -0.9000    0.6833    0.0000 C   0  0  0  0  0  0  0  0  0  0  0  0
   -3.4708   -1.8417    0.0000 N   0  0  0  0  0  0  0  0  0  0  0  0
    1.6500    2.1625    0.0000 O   0  0  0  0  0  0  0  0  0  0  0  0
   -1.7458   -1.8167    0.0000 C   0  0  0  0  0  0  0  0  0  0  0  0
   -2.6083   -0.3542    0.0000 C   0  0  0  0  0  0  0  0  0  0  0  0
    3.4042    2.2083    0.0000 O   0  0  0  0  0  0  0  0  0  0  0  0
   -2.5750   -2.3167    0.0000 C   0  0  0  0  0  0  0  0  0  0  0  0
   -3.4750   -0.8417    0.0000 C   0  0  0  0  0  0  0  0  0  0  0  0
   -1.7833    1.1833    0.0000 F   0  0  0  0  0  0  0  0  0  0  0  0
    4.2667    0.7000    0.0000 O   0  0  0  0  0  0  0  0  0  0  0  0
    1.6500   -1.8167    0.0000 C   0  0  0  0  0  0  0  0  0  0  0  0
   -4.3458   -2.3042    0.0000 C   0  0  0  0  0  0  0  0  0  0  0  0
    2.5292   -2.3125    0.0000 C   0  0  0  0  0  0  0  0  0  0  0  0
  2  3  1  0
  3  1  1  0
  4  6  1  0
  5  1  2  0
  6  5  1  0
  7  4  1  0
  8  7  2  0
  9  2  1  0
 10  8  1  0
 11  1  1  0
 12  9  2  0
 13 19  1  0
 14  3  2  0
 15 10  1  0
 16 10  1  0
 17 11  2  0
 18 15  1  0
 19 16  1  0
 20 12  1  0
 21 11  1  0
 22  6  1  0
 23 13  1  0
 24 22  1  0
  4  2  2  0
  8 12  1  0
 18 13  1  0
M  END
> <chembl_id>
CHEMBL267648

> <chembl_pref_name>
PEFLOXACIN
