
     RDKit          2D

 36 39  0  0  1  0  0  0  0  0999 V2000
    1.8917   -3.6875    0.0000 N   0  0  0  0  0  0  0  0  0  0  0  0
    1.1792   -3.6875    0.0000 C   0  0  0  0  0  0  0  0  0  0  0  0
    1.8917   -2.9750    0.0000 C   0  0  0  0  0  0  0  0  0  0  0  0
    1.1792   -2.9750    0.0000 C   0  0  0  0  0  0  0  0  0  0  0  0
    5.5667   -3.5500    0.0000 N   0  0  0  0  0  0  0  0  0  0  0  0
    5.0042   -3.9792    0.0000 C   0  0  0  0  0  0  0  0  0  0  0  0
    2.5167   -4.0417    0.0000 C   0  0  0  0  0  0  0  0  0  0  0  0
    5.2292   -4.6542    0.0000 N   0  0  0  0  0  0  0  0  0  0  0  0
    5.9125   -4.6417    0.0000 N   0  0  0  0  0  0  0  0  0  0  0  0
    6.1375   -3.9667    0.0000 N   0  0  0  0  0  0  0  0  0  0  0  0
    2.5167   -2.6167    0.0000 S   0  0  0  0  0  0  0  0  0  0  0  0
    3.1292   -3.6875    0.0000 C   0  0  0  0  0  0  0  0  0  0  0  0
    5.5500   -2.8417    0.0000 C   0  0  0  0  0  0  0  0  0  0  0  0
    0.5667   -2.5917    0.0000 N   0  0  0  0  0  0  0  0  0  0  0  0
    2.5167   -4.7542    0.0000 C   0  0  0  0  0  0  0  0  0  0  0  0
   -0.0583   -2.9292    0.0000 C   0  0  0  0  0  0  0  0  0  0  0  0
    4.3792   -3.6417    0.0000 S   0  0  0  0  0  0  0  0  0  0  0  0
    3.1292   -2.9750    0.0000 C   0  0  0  0  0  0  0  0  0  0  0  0
    4.9417   -2.4792    0.0000 C   0  0  0  0  0  0  0  0  0  0  0  0
    0.6792   -4.1875    0.0000 O   0  0  0  0  0  0  0  0  0  0  0  0
    3.7667   -4.0417    0.0000 C   0  0  0  0  0  0  0  0  0  0  0  0
   -1.2708   -2.8542    0.0000 C   0  0  0  0  0  0  0  0  0  0  0  0
   -0.6458   -2.5292    0.0000 C   0  0  0  0  0  0  0  0  0  0  0  0
    1.9042   -5.1167    0.0000 O   0  0  0  0  0  0  0  0  0  0  0  0
   -0.0958   -3.6125    0.0000 O   0  0  0  0  0  0  0  0  0  0  0  0
    4.9417   -1.7667    0.0000 O   0  0  0  0  0  0  0  0  0  0  0  0
   -1.8875   -2.4917    0.0000 C   0  0  0  0  0  0  0  0  0  0  0  0
    3.1417   -5.1167    0.0000 O   0  0  0  0  0  0  0  0  0  0  0  0
    4.3000   -2.8000    0.0000 O   0  0  0  0  0  0  0  0  0  0  0  0
   -1.2583   -1.4042    0.0000 N   0  0  0  0  0  0  0  0  0  0  0  0
   -1.8875   -1.7625    0.0000 C   0  0  0  0  0  0  0  0  0  0  0  0
   -1.3083   -3.5500    0.0000 C   0  0  0  0  0  0  0  0  0  0  0  0
   -2.5083   -2.8167    0.0000 C   0  0  0  0  0  0  0  0  0  0  0  0
   -1.9250   -3.8917    0.0000 C   0  0  0  0  0  0  0  0  0  0  0  0
   -2.5208   -3.5292    0.0000 C   0  0  0  0  0  0  0  0  0  0  0  0
    1.8917   -2.2542    0.0000 H   0  0  0  0  0  0  0  0  0  0  0  0
  2  1  1  0
  3  1  1  0
  4  3  1  0
  5  6  1  0
  6 17  1  0
  7  1  1  0
  8  6  2  0
  9  8  1  0
 10  5  1  0
 11  3  1  0
 12  7  2  0
 13  5  1  0
  4 14  1  1
 15  7  1  0
 16 14  1  0
 17 21  1  0
 18 12  1  0
 19 13  1  0
 20  2  2  0
 21 12  1  0
 22 23  1  0
 23 16  1  0
 24 15  2  0
 25 16  2  0
 26 19  2  0
 27 22  1  0
 28 15  1  0
 29 19  1  0
 30 31  1  0
 31 27  1  0
 32 22  2  0
 33 27  2  0
 34 32  1  0
 35 34  2  0
  3 36  1  6
  4  2  1  0
 18 11  1  0
  9 10  2  0
 35 33  1  0
M  END
> <chembl_id>
CHEMBL1201046

> <chembl_pref_name>
CEFORANIDE
