
     RDKit          2D

 20 20  0  0  0  0  0  0  0  0999 V2000
   -5.4027   -0.8663    0.0000 Na  0  0  0  0  0 15  0  0  0  0  0  0
   -4.8601   -0.8670    0.0000 O   0  0  0  0  0  0  0  0  0  0  0  0
   -4.3603   -0.2106    0.0000 S   0  0  0  0  0  0  0  0  0  0  0  0
   -5.0167    0.2891    0.0000 O   0  0  0  0  0  0  0  0  0  0  0  0
   -3.7039   -0.7104    0.0000 O   0  0  0  0  0  0  0  0  0  0  0  0
   -3.8605    0.4458    0.0000 O   0  0  0  0  0  0  0  0  0  0  0  0
   -3.0422    0.3411    0.0000 N   0  0  0  0  0  0  0  0  0  0  0  0
   -2.5928    1.0330    0.0000 C   0  0  0  0  0  0  0  0  0  0  0  0
   -1.7717    1.1131    0.0000 N   0  0  0  0  0  0  0  0  0  0  0  0
   -2.7814   -0.4416    0.0000 C   0  0  0  0  0  0  0  0  0  0  0  0
   -1.1972    0.5211    0.0000 C   0  0  0  0  0  0  0  0  0  0  0  0
   -2.0068   -0.7257    0.0000 C   0  0  0  0  0  0  0  0  0  0  0  0
   -2.0822    0.2096    0.0000 C   0  0  0  0  0  0  0  0  0  0  0  0
   -1.3018   -0.2972    0.0000 C   0  0  0  0  0  0  0  0  0  0  0  0
   -0.6099   -0.7466    0.0000 C   0  0  0  0  0  0  0  0  0  0  0  0
   -2.8094   -1.2661    0.0000 H   0  0  0  0  0  0  0  0  0  0  0  0
   -3.0213    1.7381    0.0000 O   0  0  0  0  0  0  0  0  0  0  0  0
   -0.4145    0.7819    0.0000 C   0  0  0  0  0  0  0  0  0  0  0  0
    0.2027    0.2345    0.0000 O   0  0  0  0  0  0  0  0  0  0  0  0
   -0.2490    1.5901    0.0000 N   0  0  0  0  0  0  0  0  0  0  0  0
  2  3  1  0
  3  4  2  0
  3  5  2  0
  3  6  1  0
  6  7  1  0
  7  8  1  0
  8  9  1  0
  7 10  1  0
  9 11  1  0
 10 12  1  0
  9 13  1  0
 13 10  1  0
 11 14  1  0
 14 12  2  0
 14 15  1  0
 10 16  1  6
  8 17  2  0
 11 18  1  6
 18 19  2  0
 18 20  1  0
M  CHG  2   1   1   2  -1
M  END
> <chembl_id>
CHEMBL4297378

> <chembl_pref_name>
DURLOBACTAM SODIUM
