
     RDKit          2D

  4  3  0  0  0  0  0  0  0  0999 V2000
    0.1473   -1.1776    0.0000 O   0  0  0  0  0  0  0  0  0  0  0  0
    0.9416   -2.3860    0.0000 O   0  0  0  0  0  0  0  0  0  0  0  0
   -0.4671   -2.4677    0.0000 O   0  0  0  0  0  0  0  0  0  0  0  0
    0.2125   -2.0000    0.0000 Al  0  0  0  0  0  3  0  0  0  0  0  0
  1  4  1  0
  4  2  1  0
  4  3  1  0
M  END
> <chembl_id>
CHEMBL1200706

> <chembl_pref_name>
ALUMINUM HYDROXIDE
