
     RDKit          2D

 35 38  0  0  0  0  0  0  0  0999 V2000
    3.0348   -1.5321    0.0000 C   0  0  0  0  0  0  0  0  0  0  0  0
    2.3203   -1.9446    0.0000 C   0  0  0  0  0  0  0  0  0  0  0  0
    2.3203   -2.7696    0.0000 C   0  0  0  0  0  0  0  0  0  0  0  0
    3.0348   -3.1821    0.0000 C   0  0  0  0  0  0  0  0  0  0  0  0
    3.7493   -2.7696    0.0000 C   0  0  0  0  0  0  0  0  0  0  0  0
    3.7493   -1.9446    0.0000 C   0  0  0  0  0  0  0  0  0  0  0  0
    1.6059   -3.1821    0.0000 C   0  0  0  0  0  0  0  0  0  0  0  0
    1.6059   -4.0071    0.0000 C   0  0  0  0  0  0  0  0  0  0  0  0
    0.9384   -4.4921    0.0000 C   0  0  0  0  0  0  0  0  0  0  0  0
    1.1934   -5.2767    0.0000 C   0  0  0  0  0  0  0  0  0  0  0  0
    2.0184   -5.2767    0.0000 C   0  0  0  0  0  0  0  0  0  0  0  0
    2.2733   -4.4921    0.0000 C   0  0  0  0  0  0  0  0  0  0  0  0
    2.5704   -5.8898    0.0000 C   0  0  0  0  0  0  0  0  0  0  0  0
    3.3774   -5.7182    0.0000 C   0  0  0  0  0  0  0  0  0  0  0  0
    3.6323   -4.9335    0.0000 C   0  0  0  0  0  0  0  0  0  0  0  0
    3.0803   -4.3205    0.0000 C   0  0  0  0  0  0  0  0  0  0  0  0
    0.6413   -5.8898    0.0000 C   0  0  0  0  0  0  0  0  0  0  0  0
   -0.1657   -5.7183    0.0000 C   0  0  0  0  0  0  0  0  0  0  0  0
   -0.4206   -4.9336    0.0000 C   0  0  0  0  0  0  0  0  0  0  0  0
    0.1314   -4.3205    0.0000 C   0  0  0  0  0  0  0  0  0  0  0  0
    4.4638   -1.5321    0.0000 Cl  0  0  0  0  0  0  0  0  0  0  0  0
    2.3155   -6.6744    0.0000 C   0  0  0  0  0  0  0  0  0  0  0  0
    2.8675   -7.2875    0.0000 C   0  0  0  0  0  0  0  0  0  0  0  0
    4.4393   -4.7620    0.0000 Cl  0  0  0  0  0  0  0  0  0  0  0  0
   -1.2276   -4.7621    0.0000 Cl  0  0  0  0  0  0  0  0  0  0  0  0
    1.5085   -6.8459    0.0000 O   0  0  0  0  0  0  0  0  0  0  0  0
    3.6644   -7.0739    0.0000 N   0  0  0  0  0  0  0  0  0  0  0  0
    4.2478   -7.6573    0.0000 C   0  0  0  0  0  0  0  0  0  0  0  0
    3.8779   -6.2770    0.0000 C   0  0  0  0  0  0  0  0  0  0  0  0
    4.6748   -6.0635    0.0000 C   0  0  0  0  0  0  0  0  0  0  0  0
    4.8884   -5.2666    0.0000 C   0  0  0  0  0  0  0  0  0  0  0  0
    5.6852   -5.0531    0.0000 C   0  0  0  0  0  0  0  0  0  0  0  0
    5.0447   -7.4438    0.0000 C   0  0  0  0  0  0  0  0  0  0  0  0
    5.6280   -8.0271    0.0000 C   0  0  0  0  0  0  0  0  0  0  0  0
    6.4249   -7.8136    0.0000 C   0  0  0  0  0  0  0  0  0  0  0  0
  1  2  2  0
  1  6  1  0
  2  3  1  0
  3  4  2  0
  4  5  1  0
  5  6  2  0
  3  7  1  0
  7  8  2  0
  8  9  1  0
  8 12  1  0
 10 11  1  0
 11 13  2  0
 12 11  1  0
 12 16  2  0
 13 14  1  0
 14 15  2  0
 15 16  1  0
  9 20  2  0
  9 10  1  0
 10 17  2  0
 17 18  1  0
 18 19  2  0
 19 20  1  0
  6 21  1  0
 13 22  1  0
 22 23  1  0
 15 24  1  0
 19 25  1  0
 22 26  1  0
 23 27  1  0
 27 28  1  0
 27 29  1  0
 29 30  1  0
 30 31  1  0
 31 32  1  0
 28 33  1  0
 33 34  1  0
 34 35  1  0
M  END
> <chembl_id>
CHEMBL38827

> <chembl_pref_name>
LUMEFANTRINE
