
     RDKit          2D

 24 26  0  0  0  0  0  0  0  0999 V2000
    7.1417   -6.8750    0.0000 Cl  0  0  0  0  0  0  0  0  0  0  0  0
    5.7667   -3.9167    0.0000 N   0  0  0  0  0  0  0  0  0  0  0  0
    5.2000   -5.0750    0.0000 C   0  0  0  0  0  0  0  0  0  0  0  0
    5.7750   -5.5250    0.0000 C   0  0  0  0  0  0  0  0  0  0  0  0
    5.2000   -4.3542    0.0000 C   0  0  0  0  0  0  0  0  0  0  0  0
    6.4625   -5.3542    0.0000 N   0  0  0  0  0  0  0  0  0  0  0  0
    6.3542   -2.9417    0.0000 N   0  0  0  0  0  0  0  0  0  0  0  0
    6.4542   -4.0667    0.0000 C   0  0  0  0  0  0  0  0  0  0  0  0
    5.6917   -3.2167    0.0000 C   0  0  0  0  0  0  0  0  0  0  0  0
    5.4250   -6.1292    0.0000 C   0  0  0  0  0  0  0  0  0  0  0  0
    6.8042   -3.4667    0.0000 C   0  0  0  0  0  0  0  0  0  0  0  0
    6.7542   -4.7292    0.0000 C   0  0  0  0  0  0  0  0  0  0  0  0
    4.5875   -4.0167    0.0000 C   0  0  0  0  0  0  0  0  0  0  0  0
    4.5917   -5.4375    0.0000 C   0  0  0  0  0  0  0  0  0  0  0  0
    5.7667   -6.7500    0.0000 C   0  0  0  0  0  0  0  0  0  0  0  0
    3.9750   -5.0792    0.0000 C   0  0  0  0  0  0  0  0  0  0  0  0
    3.9750   -4.3625    0.0000 C   0  0  0  0  0  0  0  0  0  0  0  0
    6.4875   -6.7625    0.0000 F   0  0  0  0  0  0  0  0  0  0  0  0
    3.3667   -5.4375    0.0000 Cl  0  0  0  0  0  0  0  0  0  0  0  0
    4.6917   -6.1292    0.0000 C   0  0  0  0  0  0  0  0  0  0  0  0
    5.0792   -2.8625    0.0000 C   0  0  0  0  0  0  0  0  0  0  0  0
    5.4167   -7.3500    0.0000 C   0  0  0  0  0  0  0  0  0  0  0  0
    4.3375   -6.7417    0.0000 C   0  0  0  0  0  0  0  0  0  0  0  0
    4.7042   -7.3542    0.0000 C   0  0  0  0  0  0  0  0  0  0  0  0
  3  5  2  0
  4  3  1  0
  5  2  1  0
  6 12  1  0
  7  9  2  0
  8  2  1  0
  9  2  1  0
 10  4  1  0
 11  8  2  0
 12  8  1  0
 13  5  1  0
 14  3  1  0
 15 10  1  0
 16 17  1  0
 17 13  2  0
 18 15  1  0
 19 16  1  0
 20 10  2  0
 21  9  1  0
 22 15  2  0
 23 20  1  0
 24 23  2  0
  7 11  1  0
  6  4  2  0
 16 14  2  0
 24 22  1  0
M  END
> <chembl_id>
CHEMBL1200420

> <chembl_pref_name>
MIDAZOLAM HYDROCHLORIDE
