
     RDKit          2D

 25 26  0  0  0  0  0  0  0  0999 V2000
   -9.0952    3.4491    0.0000 C   0  0  0  0  0  0  0  0  0  0  0  0
   -9.8097    3.8616    0.0000 C   0  0  0  0  0  0  0  0  0  0  0  0
   -9.8097    4.6866    0.0000 C   0  0  0  0  0  0  0  0  0  0  0  0
   -9.0952    5.0991    0.0000 C   0  0  0  0  0  0  0  0  0  0  0  0
   -8.3807    4.6866    0.0000 C   0  0  0  0  0  0  0  0  0  0  0  0
   -8.3807    3.8616    0.0000 C   0  0  0  0  0  0  0  0  0  0  0  0
   -7.6663    3.4491    0.0000 C   0  0  0  0  0  0  0  0  0  0  0  0
   -6.9518    3.8616    0.0000 C   0  0  0  0  0  0  0  0  0  0  0  0
   -6.2373    3.4491    0.0000 C   0  0  0  0  0  0  0  0  0  0  0  0
   -5.5228    3.8616    0.0000 C   0  0  0  0  0  0  0  0  0  0  0  0
   -4.8084    3.4491    0.0000 C   0  0  0  0  0  0  0  0  0  0  0  0
  -10.5241    3.4491    0.0000 O   0  0  0  0  0  0  0  0  0  0  0  0
  -10.5241    5.0991    0.0000 C   0  0  0  0  0  0  0  0  0  0  0  0
  -11.2386    4.6866    0.0000 C   0  0  0  0  0  0  0  0  0  0  0  0
  -11.9531    5.0991    0.0000 C   0  0  0  0  0  0  0  0  0  0  0  0
  -11.9531    5.9241    0.0000 C   0  0  0  0  0  0  0  0  0  0  0  0
  -11.2386    6.3366    0.0000 C   0  0  0  0  0  0  0  0  0  0  0  0
  -10.5241    5.9241    0.0000 C   0  0  0  0  0  0  0  0  0  0  0  0
   -9.0952    5.9241    0.0000 O   0  0  0  0  0  0  0  0  0  0  0  0
  -12.6676    4.6866    0.0000 C   0  0  0  0  0  0  0  0  0  0  0  0
   -9.8097    6.3366    0.0000 C   0  0  0  0  0  0  0  0  0  0  0  0
   -8.9892    6.4228    0.0000 C   0  0  0  0  0  0  0  0  0  0  0  0
   -9.8097    7.1616    0.0000 C   0  0  0  0  0  0  0  0  0  0  0  0
  -10.5241    4.2741    0.0000 H   0  0  0  0  0  0  0  0  0  0  0  0
  -10.5241    6.7491    0.0000 H   0  0  0  0  0  0  0  0  0  0  0  0
  1  2  1  0
  1  6  2  0
  2  3  2  0
  3  4  1  0
  4  5  2  0
  5  6  1  0
  6  7  1  0
  7  8  1  0
  8  9  1  0
  9 10  1  0
 10 11  1  0
  2 12  1  0
 13  3  1  0
 13 14  1  0
 18 13  1  0
 14 15  2  0
 15 16  1  0
 16 17  1  0
 17 18  1  0
  4 19  1  0
 15 20  1  0
 18 21  1  0
 21 22  2  0
 21 23  1  0
 13 24  1  1
 18 25  1  6
M  END
> <chembl_id>
CHEMBL190461

> <chembl_pref_name>
CANNABIDIOL
