
     RDKit          2D

 21 21  0  0  0  0  0  0  0  0999 V2000
   -2.3936   -0.3419    0.0000 Cl  0  0  0  0  0  0  0  0  0  0  0  0
   -6.4514    1.3949    0.0000 C   0  0  0  0  0  0  0  0  0  0  0  0
   -7.1658    0.9824    0.0000 C   0  0  0  0  0  0  0  0  0  0  0  0
   -7.1658    0.1574    0.0000 C   0  0  0  0  0  0  0  0  0  0  0  0
   -6.4514   -0.2551    0.0000 C   0  0  0  0  0  0  0  0  0  0  0  0
   -5.7369    0.1574    0.0000 C   0  0  0  0  0  0  0  0  0  0  0  0
   -5.7369    0.9824    0.0000 N   0  0  0  0  0  0  0  0  0  0  0  0
   -5.0224    1.3949    0.0000 C   0  0  0  0  0  0  0  0  0  0  0  0
   -4.3080    0.9824    0.0000 C   0  0  0  0  0  0  0  0  0  0  0  0
   -3.5935    1.3949    0.0000 C   0  0  0  0  0  0  0  0  0  0  0  0
   -2.8790    0.9824    0.0000 O   0  0  0  0  0  0  0  0  0  0  0  0
   -2.1645    1.3949    0.0000 C   0  0  0  0  0  0  0  0  0  0  0  0
   -1.4501    0.9824    0.0000 C   0  0  0  0  0  0  0  0  0  0  0  0
   -0.7356    1.3949    0.0000 C   0  0  0  0  0  0  0  0  0  0  0  0
   -0.0211    0.9824    0.0000 C   0  0  0  0  0  0  0  0  0  0  0  0
    0.6933    1.3949    0.0000 C   0  0  0  0  0  0  0  0  0  0  0  0
   -0.0211    0.1574    0.0000 C   0  0  0  0  0  0  0  0  0  0  0  0
    0.6933   -0.2551    0.0000 C   0  0  0  0  0  0  0  0  0  0  0  0
    1.4078    0.1574    0.0000 C   0  0  0  0  0  0  0  0  0  0  0  0
    1.4078    0.9824    0.0000 C   0  0  0  0  0  0  0  0  0  0  0  0
    2.1223   -0.2551    0.0000 Cl  0  0  0  0  0  0  0  0  0  0  0  0
  2  3  1  0
  3  4  1  0
  4  5  1  0
  5  6  1  0
  6  7  1  0
  2  7  1  0
  8  9  1  0
  9 10  1  0
 10 11  1  0
 11 12  1  0
 12 13  1  0
 13 14  1  0
 14 15  1  0
  7  8  1  0
 17 18  1  0
 18 19  2  0
 19 20  1  0
 16 20  2  0
 16 15  1  0
 15 17  2  0
 19 21  1  0
M  END
> <chembl_id>
CHEMBL4164059

> <chembl_pref_name>
PITOLISANT HYDROCHLORIDE
