
     RDKit          2D

 78 81  0  0  0  0  0  0  0  0999 V2000
    0.0000   -3.9187    0.0000 Cl  0  0  0  0  0  0  0  0  0  0  0  0
  -13.9322   -1.8562    0.0000 C   0  0  0  0  0  0  0  0  0  0  0  0
  -13.2177   -2.2687    0.0000 C   0  0  0  0  0  0  0  0  0  0  0  0
  -12.5032   -1.8562    0.0000 C   0  0  0  0  0  0  0  0  0  0  0  0
  -12.5032   -1.0312    0.0000 C   0  0  0  0  0  0  0  0  0  0  0  0
  -13.2177   -0.6187    0.0000 C   0  0  0  0  0  0  0  0  0  0  0  0
  -13.9322   -1.0312    0.0000 C   0  0  0  0  0  0  0  0  0  0  0  0
  -14.6467   -0.6187    0.0000 C   0  0  0  0  0  0  0  0  0  0  0  0
  -13.2177    0.2063    0.0000 C   0  0  0  0  0  0  0  0  0  0  0  0
  -13.9322    0.6188    0.0000 C   0  0  0  0  0  0  0  0  0  0  0  0
  -14.6467    0.2063    0.0000 N   0  0  0  0  0  0  0  0  0  0  0  0
  -12.5032    0.6188    0.0000 C   0  0  0  0  0  0  0  0  0  0  0  0
  -13.2177    1.0313    0.0000 H   0  0  0  0  0  0  0  0  0  0  0  0
  -12.5032    1.4438    0.0000 C   0  0  0  0  0  0  0  0  0  0  0  0
  -11.7888    1.8563    0.0000 C   0  0  0  0  0  0  0  0  0  0  0  0
  -11.0743    1.4438    0.0000 C   0  0  0  0  0  0  0  0  0  0  0  0
  -11.0743    0.6188    0.0000 C   0  0  0  0  0  0  0  0  0  0  0  0
  -11.7888    0.2063    0.0000 C   0  0  0  0  0  0  0  0  0  0  0  0
  -15.3611    0.6188    0.0000 C   0  0  0  0  0  0  0  0  0  0  0  0
  -10.3598    0.2063    0.0000 S   0  0  0  0  0  0  0  0  0  0  0  0
  -10.7723   -0.5082    0.0000 O   0  0  0  0  0  0  0  0  0  0  0  0
   -9.9473    0.9207    0.0000 O   0  0  0  0  0  0  0  0  0  0  0  0
   -9.6454   -0.2062    0.0000 N   0  0  0  0  0  0  0  0  0  0  0  0
   -8.9309    0.2063    0.0000 C   0  0  0  0  0  0  0  0  0  0  0  0
   -8.2164   -0.2062    0.0000 C   0  0  0  0  0  0  0  0  0  0  0  0
   -7.5019    0.2062    0.0000 O   0  0  0  0  0  0  0  0  0  0  0  0
   -6.7875   -0.2063    0.0000 C   0  0  0  0  0  0  0  0  0  0  0  0
   -6.0730    0.2062    0.0000 C   0  0  0  0  0  0  0  0  0  0  0  0
   -5.3585   -0.2063    0.0000 O   0  0  0  0  0  0  0  0  0  0  0  0
   -4.6441    0.2062    0.0000 C   0  0  0  0  0  0  0  0  0  0  0  0
   -3.9296   -0.2063    0.0000 C   0  0  0  0  0  0  0  0  0  0  0  0
   -3.2151    0.2062    0.0000 N   0  0  0  0  0  0  0  0  0  0  0  0
   -2.5006   -0.2063    0.0000 C   0  0  0  0  0  0  0  0  0  0  0  0
   -1.7862    0.2062    0.0000 N   0  0  0  0  0  0  0  0  0  0  0  0
   -2.5006   -1.0313    0.0000 O   0  0  0  0  0  0  0  0  0  0  0  0
   -1.0717   -0.2063    0.0000 C   0  0  0  0  0  0  0  0  0  0  0  0
   -0.3572    0.2062    0.0000 C   0  0  0  0  0  0  0  0  0  0  0  0
    0.3572   -0.2063    0.0000 C   0  0  0  0  0  0  0  0  0  0  0  0
    1.0717    0.2062    0.0000 C   0  0  0  0  0  0  0  0  0  0  0  0
    1.7862   -0.2063    0.0000 N   0  0  0  0  0  0  0  0  0  0  0  0
    2.5006    0.2062    0.0000 C   0  0  0  0  0  0  0  0  0  0  0  0
    2.5006    1.0312    0.0000 O   0  0  0  0  0  0  0  0  0  0  0  0
    3.2151   -0.2063    0.0000 N   0  0  0  0  0  0  0  0  0  0  0  0
    3.9296    0.2062    0.0000 C   0  0  0  0  0  0  0  0  0  0  0  0
    4.6441   -0.2063    0.0000 C   0  0  0  0  0  0  0  0  0  0  0  0
    5.3585    0.2062    0.0000 O   0  0  0  0  0  0  0  0  0  0  0  0
    6.0730   -0.2063    0.0000 C   0  0  0  0  0  0  0  0  0  0  0  0
    6.7875    0.2062    0.0000 C   0  0  0  0  0  0  0  0  0  0  0  0
    7.5019   -0.2063    0.0000 O   0  0  0  0  0  0  0  0  0  0  0  0
    8.2164    0.2062    0.0000 C   0  0  0  0  0  0  0  0  0  0  0  0
    8.9309   -0.2063    0.0000 C   0  0  0  0  0  0  0  0  0  0  0  0
    9.6454    0.2062    0.0000 N   0  0  0  0  0  0  0  0  0  0  0  0
   10.3598   -0.2063    0.0000 S   0  0  0  0  0  0  0  0  0  0  0  0
    9.9473   -0.9207    0.0000 O   0  0  0  0  0  0  0  0  0  0  0  0
   10.7723    0.5082    0.0000 O   0  0  0  0  0  0  0  0  0  0  0  0
   11.0743   -0.6188    0.0000 C   0  0  0  0  0  0  0  0  0  0  0  0
   12.5032   -0.6188    0.0000 C   0  0  0  0  0  0  0  0  0  0  0  0
   11.7888   -0.2063    0.0000 C   0  0  0  0  0  0  0  0  0  0  0  0
   11.0743   -1.4438    0.0000 C   0  0  0  0  0  0  0  0  0  0  0  0
   11.7888   -1.8563    0.0000 C   0  0  0  0  0  0  0  0  0  0  0  0
   12.5032   -1.4438    0.0000 C   0  0  0  0  0  0  0  0  0  0  0  0
   13.2177   -0.2063    0.0000 C   0  0  0  0  0  0  0  0  0  0  0  0
   13.2177   -1.0313    0.0000 H   0  0  0  0  0  0  0  0  0  0  0  0
   14.6467    0.6187    0.0000 C   0  0  0  0  0  0  0  0  0  0  0  0
   14.6467   -0.2063    0.0000 N   0  0  0  0  0  0  0  0  0  0  0  0
   13.9322   -0.6188    0.0000 C   0  0  0  0  0  0  0  0  0  0  0  0
   13.2177    0.6187    0.0000 C   0  0  0  0  0  0  0  0  0  0  0  0
   13.9322    1.0312    0.0000 C   0  0  0  0  0  0  0  0  0  0  0  0
   13.9322    1.8562    0.0000 C   0  0  0  0  0  0  0  0  0  0  0  0
   12.5032    1.0312    0.0000 C   0  0  0  0  0  0  0  0  0  0  0  0
   12.5032    1.8562    0.0000 C   0  0  0  0  0  0  0  0  0  0  0  0
   13.2177    2.2687    0.0000 C   0  0  0  0  0  0  0  0  0  0  0  0
   11.7888    2.2688    0.0000 Cl  0  0  0  0  0  0  0  0  0  0  0  0
   14.6467    2.2687    0.0000 Cl  0  0  0  0  0  0  0  0  0  0  0  0
   15.3611   -0.6188    0.0000 C   0  0  0  0  0  0  0  0  0  0  0  0
  -14.6467   -2.2687    0.0000 Cl  0  0  0  0  0  0  0  0  0  0  0  0
  -11.7888   -2.2687    0.0000 Cl  0  0  0  0  0  0  0  0  0  0  0  0
   17.6004    0.0000    0.0000 Cl  0  0  0  0  0  0  0  0  0  0  0  0
  2  3  2  0
  3  4  1  0
  4  5  2  0
  5  6  1  0
  6  7  2  0
  2  7  1  0
  9 10  1  0
 10 11  1  0
  8 11  1  0
  6  9  1  0
  8  7  1  0
  9 12  1  1
  9 13  1  6
 14 15  2  0
 15 16  1  0
 16 17  2  0
 17 18  1  0
 12 14  1  0
 12 18  2  0
 11 19  1  0
 17 20  1  0
 20 21  2  0
 20 22  2  0
 20 23  1  0
 23 24  1  0
 24 25  1  0
 25 26  1  0
 26 27  1  0
 27 28  1  0
 28 29  1  0
 29 30  1  0
 30 31  1  0
 31 32  1  0
 32 33  1  0
 33 34  1  0
 33 35  2  0
 34 36  1  0
 36 37  1  0
 37 38  1  0
 38 39  1  0
 39 40  1  0
 40 41  1  0
 41 42  2  0
 41 43  1  0
 43 44  1  0
 44 45  1  0
 45 46  1  0
 46 47  1  0
 47 48  1  0
 48 49  1  0
 49 50  1  0
 50 51  1  0
 51 52  1  0
 52 53  1  0
 53 54  2  0
 53 55  2  0
 53 56  1  0
 57 58  1  0
 59 60  2  0
 60 61  1  0
 57 61  2  0
 58 56  2  0
 56 59  1  0
 62 57  1  1
 62 63  1  6
 64 65  1  0
 65 66  1  0
 64 68  1  0
 66 62  1  0
 62 67  1  0
 70 71  1  0
 71 72  2  0
 69 72  1  0
 69 68  2  0
 67 70  2  0
 68 67  1  0
 71 73  1  0
 69 74  1  0
 65 75  1  0
  2 76  1  0
  4 77  1  0
M  END
> <chembl_id>
CHEMBL3301627

> <chembl_pref_name>
TENAPANOR HYDROCHLORIDE
