
     RDKit          2D

 27 28  0  0  0  0  0  0  0  0999 V2000
    7.6607   -4.0661    0.0000 O   0  0  0  0  0  0  0  0  0  0  0  0
    7.6607   -4.8911    0.0000 C   0  0  0  0  0  0  0  0  0  0  0  0
    6.9462   -5.3036    0.0000 C   0  0  0  0  0  0  0  0  0  0  0  0
    8.3752   -5.3036    0.0000 C   0  0  0  0  0  0  0  0  0  0  0  0
    8.3752   -6.1286    0.0000 O   0  0  0  0  0  0  0  0  0  0  0  0
    9.0897   -4.8911    0.0000 O   0  0  0  0  0  0  0  0  0  0  0  0
    0.9797   -2.7107    0.0000 C   0  0  0  0  0  0  0  0  0  0  0  0
    0.2652   -2.2982    0.0000 C   0  0  0  0  0  0  0  0  0  0  0  0
   -0.4493   -2.7107    0.0000 C   0  0  0  0  0  0  0  0  0  0  0  0
   -0.4493   -3.5357    0.0000 C   0  0  0  0  0  0  0  0  0  0  0  0
    0.2652   -3.9482    0.0000 C   0  0  0  0  0  0  0  0  0  0  0  0
    0.9797   -3.5357    0.0000 C   0  0  0  0  0  0  0  0  0  0  0  0
    1.6942   -2.2982    0.0000 C   0  0  0  0  0  0  0  0  0  0  0  0
    2.4086   -2.7107    0.0000 C   0  0  0  0  0  0  0  0  0  0  0  0
    2.4086   -3.5357    0.0000 C   0  0  0  0  0  0  0  0  0  0  0  0
    1.6941   -3.9482    0.0000 C   0  0  0  0  0  0  0  0  0  0  0  0
    3.9188   -2.6518    0.0000 N   0  0  0  0  0  0  0  0  0  0  0  0
    4.6554   -3.9188    0.0000 C   0  0  0  0  0  0  0  0  0  0  0  0
    3.5063   -4.9205    0.0000 C   0  0  0  0  0  0  0  0  0  0  0  0
    3.1231   -3.9482    0.0000 C   0  0  0  0  0  0  0  0  0  0  0  0
    1.2928   -4.6690    0.0000 C   0  0  0  0  0  0  0  0  0  0  0  0
    4.3162   -1.9288    0.0000 C   0  0  0  0  0  0  0  0  0  0  0  0
    5.1412   -1.9288    0.0000 C   0  0  0  0  0  0  0  0  0  0  0  0
    5.5537   -1.2143    0.0000 C   0  0  0  0  0  0  0  0  0  0  0  0
    6.3787   -1.2143    0.0000 C   0  0  0  0  0  0  0  0  0  0  0  0
    5.1412   -0.4999    0.0000 C   0  0  0  0  0  0  0  0  0  0  0  0
   -1.1638   -3.9482    0.0000 O   0  0  0  0  0  0  0  0  0  0  0  0
  1  2  1  0
  2  3  1  0
  2  4  1  0
  4  5  2  0
  4  6  1  0
  7  8  1  0
  8  9  2  0
  9 10  1  0
 10 11  2  0
 11 12  1  0
 16 12  1  0
 12  7  2  0
  7 13  1  0
 13 14  1  0
 14 15  1  0
 15 16  1  0
 16 19  1  0
 19 18  1  0
 18 17  1  0
 14 17  1  0
 15 20  1  0
 16 21  1  0
 17 22  1  0
 22 23  1  0
 23 24  2  0
 24 25  1  0
 24 26  1  0
 10 27  1  0
M  END
> <chembl_id>
CHEMBL3989509

> <chembl_pref_name>
PENTAZOCINE LACTATE
