
     RDKit          2D

 40 40  0  0  0  0  0  0  0  0999 V2000
   -0.6493    1.6696    0.0000 N   0  0  0  0  0  0  0  0  0  0  0  0
    0.0651    2.0821    0.0000 C   0  0  0  0  0  0  0  0  0  0  0  0
    0.7796    1.6696    0.0000 N   0  0  0  0  0  0  0  0  0  0  0  0
    1.4941    2.0821    0.0000 C   0  0  0  0  0  0  0  0  0  0  0  0
    2.2086    1.6696    0.0000 C   0  0  0  0  0  0  0  0  0  0  0  0
    2.9230    2.0821    0.0000 C   0  0  0  0  0  0  0  0  0  0  0  0
    3.6375    1.6696    0.0000 C   0  0  0  0  0  0  0  0  0  0  0  0
    4.3520    2.0821    0.0000 C   0  0  0  0  0  0  0  0  0  0  0  0
    5.0664    1.6696    0.0000 O   0  0  0  0  0  0  0  0  0  0  0  0
    4.3520    2.9071    0.0000 O   0  0  0  0  0  0  0  0  0  0  0  0
    3.6375    0.8446    0.0000 N   0  0  0  0  0  0  0  0  0  0  0  0
    0.0651    2.9071    0.0000 N   0  0  0  0  0  0  0  0  0  0  0  0
   -3.6269    4.7313    0.0000 N   0  0  0  0  0  0  0  0  0  0  0  0
   -3.1423    5.4056    0.0000 C   0  0  0  0  0  0  0  0  0  0  0  0
   -3.3725    3.9397    0.0000 C   0  0  0  0  0  0  0  0  0  0  0  0
   -4.4103    4.9857    0.0000 C   0  0  0  0  0  0  0  0  0  0  0  0
   -3.6269    6.0639    0.0000 C   0  0  0  0  0  0  0  0  0  0  0  0
   -2.3265    5.4056    0.0000 C   0  0  0  0  0  0  0  0  0  0  0  0
   -3.6633    2.5464    0.0000 N   0  0  0  0  0  0  0  0  0  0  0  0
   -4.4103    5.8095    0.0000 C   0  0  0  0  0  0  0  0  0  0  0  0
   -3.9177    3.3339    0.0000 C   0  0  0  0  0  0  0  0  0  0  0  0
   -5.0282    2.1224    0.0000 C   0  0  0  0  0  0  0  0  0  0  0  0
   -4.2165    1.9447    0.0000 C   0  0  0  0  0  0  0  0  0  0  0  0
   -2.5688    3.7741    0.0000 O   0  0  0  0  0  0  0  0  0  0  0  0
   -1.9065    4.6949    0.0000 O   0  0  0  0  0  0  0  0  0  0  0  0
   -5.2261    2.7201    0.0000 O   0  0  0  0  0  0  0  0  0  0  0  0
   -1.9065    6.1205    0.0000 O   0  0  0  0  0  0  0  0  0  0  0  0
   -5.5775    1.5045    0.0000 O   0  0  0  0  0  0  0  0  0  0  0  0
   -5.1251    4.5738    0.0000 C   0  0  0  0  0  0  0  0  0  0  0  0
   -5.1251    6.2295    0.0000 C   0  0  0  0  0  0  0  0  0  0  0  0
   -4.7253    3.5035    0.0000 C   0  0  0  0  0  0  0  0  0  0  0  0
   -3.9661    1.1572    0.0000 C   0  0  0  0  0  0  0  0  0  0  0  0
   -6.3892    1.6661    0.0000 C   0  0  0  0  0  0  0  0  0  0  0  0
   -4.5194    0.5474    0.0000 C   0  0  0  0  0  0  0  0  0  0  0  0
   -5.8399    4.9857    0.0000 C   0  0  0  0  0  0  0  0  0  0  0  0
   -5.8399    5.8095    0.0000 C   0  0  0  0  0  0  0  0  0  0  0  0
   -6.9424    1.0562    0.0000 C   0  0  0  0  0  0  0  0  0  0  0  0
   -4.2690   -0.2401    0.0000 C   0  0  0  0  0  0  0  0  0  0  0  0
   -4.3982    4.1740    0.0000 H   0  0  0  0  0  0  0  0  0  0  0  0
   -4.4103    6.6293    0.0000 H   0  0  0  0  0  0  0  0  0  0  0  0
  1  2  1  0
  2  3  1  0
  3  4  1  0
  4  5  1  0
  5  6  1  0
  6  7  1  0
  7  8  1  0
  8  9  1  0
  8 10  2  0
  7 11  1  1
  2 12  2  0
 14 13  1  0
 15 13  1  0
 16 13  1  0
 17 14  1  0
 14 18  1  1
 19 21  1  0
 20 16  1  0
 21 15  1  0
 23 22  1  1
 23 19  1  0
 24 15  2  0
 25 18  2  0
 26 22  2  0
 27 18  1  0
 28 22  1  0
 29 16  1  0
 30 20  1  0
 21 31  1  1
 32 23  1  0
 33 28  1  0
 34 32  1  0
 35 29  1  0
 36 35  1  0
 37 33  1  0
 38 34  1  0
 16 39  1  6
 20 40  1  6
 20 17  1  0
 30 36  1  0
M  END
> <chembl_id>
CHEMBL3544986

> <chembl_pref_name>
PERINDOPRIL ARGININE
