
     RDKit          2D

 18 18  0  0  0  0  0  0  0  0999 V2000
    8.3982    3.1483    0.0000 C   0  0  0  0  0  0  0  0  0  0  0  0
    8.3982    2.3233    0.0000 C   0  0  0  0  0  0  0  0  0  0  0  0
    9.1099    1.9147    0.0000 C   0  0  0  0  0  0  0  0  0  0  0  0
    9.8216    2.3233    0.0000 C   0  0  0  0  0  0  0  0  0  0  0  0
    9.8216    3.1483    0.0000 O   0  0  0  0  0  0  0  0  0  0  0  0
    9.1099    3.5648    0.0000 C   0  0  0  0  0  0  0  0  0  0  0  0
    9.1099    4.3898    0.0000 C   0  0  0  0  0  0  0  0  0  0  0  0
    9.8244    4.8023    0.0000 O   0  0  0  0  0  0  0  0  0  0  0  0
    7.6825    3.5588    0.0000 O   0  0  0  0  0  0  0  0  0  0  0  0
    7.6842    1.9099    0.0000 O   0  0  0  0  0  0  0  0  0  0  0  0
    9.1099    1.0897    0.0000 N   0  0  0  0  0  0  0  0  0  0  0  0
    8.3954    0.6771    0.0000 C   0  0  0  0  0  0  0  0  0  0  0  0
   10.5357    1.9099    0.0000 O   0  0  0  0  0  0  0  0  0  0  0  0
    7.6809    1.0897    0.0000 O   0  0  0  0  0  0  0  0  0  0  0  0
    8.3954   -0.1479    0.0000 N   0  0  0  0  0  0  0  0  0  0  0  0
    7.6809   -0.5604    0.0000 C   0  0  0  0  0  0  0  0  0  0  0  0
    9.1099   -0.5604    0.0000 N   0  0  0  0  0  0  0  0  0  0  0  0
    9.1099   -1.3854    0.0000 O   0  0  0  0  0  0  0  0  0  0  0  0
  1  9  1  6
  2  3  1  0
  2 10  1  1
  3  4  1  0
  3 11  1  6
  4  5  1  0
 11 12  1  0
  5  6  1  0
  4 13  1  0
 12 14  2  0
  6  7  1  1
 12 15  1  0
  1  2  1  0
 15 16  1  0
  7  8  1  0
 15 17  1  0
  1  6  1  0
 17 18  2  0
M  END
> <chembl_id>
CHEMBL1651906

> <chembl_pref_name>
STREPTOZOCIN
