
     RDKit          2D

 27 30  0  0  1  0  0  0  0  0999 V2000
   -3.1000   -2.2792    0.0000 S   0  0  0  0  0  0  0  0  0  0  0  0
    2.7000    2.0833    0.0000 C   0  0  0  0  0  0  0  0  0  0  0  0
    2.6792    0.9958    0.0000 C   0  0  0  0  0  0  0  0  0  0  0  0
    1.7167    0.4458    0.0000 C   0  0  0  0  0  0  0  0  0  0  0  0
    0.7667    0.9958    0.0000 C   0  0  0  0  0  0  0  0  0  0  0  0
   -0.1875    0.4458    0.0000 C   0  0  0  0  0  0  0  0  0  0  0  0
   -0.2000   -0.6375    0.0000 C   0  0  0  0  0  0  0  0  0  0  0  0
    3.7292    2.4125    0.0000 C   0  0  0  0  0  0  0  0  0  0  0  0
    1.7167    2.6458    0.0000 C   0  0  0  0  0  0  0  0  0  0  0  0
    0.7667    2.0958    0.0000 C   0  0  0  0  0  0  0  0  0  0  0  0
    3.7167    0.6625    0.0000 C   0  0  0  0  0  0  0  0  0  0  0  0
    1.7167   -0.6500    0.0000 C   0  0  0  0  0  0  0  0  0  0  0  0
   -3.0958   -1.1792    0.0000 O   0  0  0  0  0  0  0  0  0  0  0  0
   -4.2083   -2.2750    0.0000 O   0  0  0  0  0  0  0  0  0  0  0  0
   -1.1375    0.9958    0.0000 C   0  0  0  0  0  0  0  0  0  0  0  0
   -3.1208   -3.3792    0.0000 O   0  0  0  0  0  0  0  0  0  0  0  0
   -2.0000   -2.3000    0.0000 O   0  0  0  0  0  0  0  0  0  0  0  0
   -1.1500   -1.1792    0.0000 C   0  0  0  0  0  0  0  0  0  0  0  0
    0.7667   -1.1917    0.0000 C   0  0  0  0  0  0  0  0  0  0  0  0
   -2.1208   -0.6375    0.0000 C   0  0  0  0  0  0  0  0  0  0  0  0
    4.3417    1.5500    0.0000 C   0  0  0  0  0  0  0  0  0  0  0  0
    4.1167    3.4625    0.0000 O   0  0  0  0  0  0  0  0  0  0  0  0
   -2.1000    0.4458    0.0000 C   0  0  0  0  0  0  0  0  0  0  0  0
    2.9750    3.1458    0.0000 C   0  0  0  0  0  0  0  0  0  0  0  0
    0.7167   -0.2042    0.0000 H   0  0  0  0  0  0  0  0  0  0  0  0
    2.8167   -0.1417    0.0000 H   0  0  0  0  0  0  0  0  0  0  0  0
    1.6917    1.7625    0.0000 H   0  0  0  0  0  0  0  0  0  0  0  0
  2  9  1  0
  3  4  1  0
  4  5  1  0
  5  6  1  0
  6 15  1  0
  7 18  1  0
  8  2  1  0
  9 10  1  0
 10  5  1  0
 11  3  1  0
 12 19  1  0
 13  1  1  0
 14  1  1  0
 15 23  2  0
 16  1  2  0
 17  1  2  0
 18 20  2  0
 19  7  1  0
 20 13  1  0
 21 11  1  0
 22  8  2  0
 23 20  1  0
  2 24  1  1
  5 25  1  6
  3 26  1  6
  4 27  1  1
  6  7  2  0
  4 12  1  0
  3  2  1  0
  8 21  1  0
M  END
> <chembl_id>
CHEMBL494753

> <chembl_pref_name>
ESTRONE SULFURIC ACID
