
     RDKit          2D

 21 23  0  0  0  0  0  0  0  0999 V2000
    0.1917    1.0958    0.0000 N   0  0  0  0  0  0  0  0  0  0  0  0
   -0.1208    2.4875    0.0000 C   0  0  0  0  0  0  0  0  0  0  0  0
   -0.6708    0.0208    0.0000 C   0  0  0  0  0  0  0  0  0  0  0  0
   -2.9708    1.0958    0.0000 N   0  0  0  0  0  0  0  0  0  0  0  0
   -2.6833    2.4625    0.0000 C   0  0  0  0  0  0  0  0  0  0  0  0
   -2.1083    0.0208    0.0000 C   0  0  0  0  0  0  0  0  0  0  0  0
   -1.4208    3.0833    0.0000 C   0  0  0  0  0  0  0  0  0  0  0  0
    0.0292   -1.2000    0.0000 C   0  0  0  0  0  0  0  0  0  0  0  0
   -2.7833   -1.2250    0.0000 C   0  0  0  0  0  0  0  0  0  0  0  0
    0.9667    3.3583    0.0000 O   0  0  0  0  0  0  0  0  0  0  0  0
    1.5542    0.7958    0.0000 C   0  0  0  0  0  0  0  0  0  0  0  0
   -3.7708    3.3583    0.0000 O   0  0  0  0  0  0  0  0  0  0  0  0
   -0.6583   -2.4417    0.0000 C   0  0  0  0  0  0  0  0  0  0  0  0
   -2.1083   -2.4417    0.0000 C   0  0  0  0  0  0  0  0  0  0  0  0
   -4.3458    0.7708    0.0000 C   0  0  0  0  0  0  0  0  0  0  0  0
    0.0542   -3.2542    0.0000 Cl  0  0  0  0  0  0  0  0  0  0  0  0
    2.5167    1.8333    0.0000 C   0  0  0  0  0  0  0  0  0  0  0  0
    1.9667   -0.5375    0.0000 C   0  0  0  0  0  0  0  0  0  0  0  0
    3.9167    1.5000    0.0000 C   0  0  0  0  0  0  0  0  0  0  0  0
    3.3500   -0.8667    0.0000 C   0  0  0  0  0  0  0  0  0  0  0  0
    4.3417    0.1625    0.0000 C   0  0  0  0  0  0  0  0  0  0  0  0
  2  1  1  0
  3  1  1  0
  4  6  1  0
  5  7  1  0
  6  3  2  0
  7  2  1  0
  8  3  1  0
  9  6  1  0
 10  2  2  0
 11  1  1  0
 12  5  2  0
 13  8  2  0
 14 13  1  0
 15  4  1  0
 16 13  1  0
 17 11  1  0
 18 11  2  0
 19 17  2  0
 20 18  1  0
 21 20  2  0
  4  5  1  0
 19 21  1  0
  9 14  2  0
M  END
> <chembl_id>
CHEMBL70418

> <chembl_pref_name>
CLOBAZAM
