
     RDKit          2D

 14 11  0  0  0  0  0  0  0  0999 V2000
    0.1667   -4.6375    0.0000 O   0  0  0  0  0  0  0  0  0  0  0  0
    2.9542   -3.6500    0.0000 C   0  0  0  0  0  0  0  0  0  0  0  0
    3.5542   -3.3125    0.0000 C   0  0  0  0  0  0  0  0  0  0  0  0
    2.6000   -4.2542    0.0000 C   0  0  0  0  0  0  0  0  0  0  0  0
    3.5542   -2.6167    0.0000 O   0  0  0  0  0  0  0  0  0  0  0  0
    3.3042   -4.2542    0.0000 N   0  0  0  0  0  0  0  0  0  0  0  0
    4.1625   -3.6667    0.0000 O   0  0  0  0  0  0  0  0  0  0  0  0
    1.8917   -4.2542    0.0000 F   0  0  0  0  0  0  0  0  0  0  0  0
    2.9417   -4.8792    0.0000 F   0  0  0  0  0  0  0  0  0  0  0  0
    2.3292   -3.2917    0.0000 C   0  0  0  0  0  0  0  0  0  0  0  0
    0.5000   -3.6500    0.0000 N   0  0  0  0  0  0  0  0  0  0  0  0
    1.1125   -3.2917    0.0000 C   0  0  0  0  0  0  0  0  0  0  0  0
    1.6917   -3.6500    0.0000 C   0  0  0  0  0  0  0  0  0  0  0  0
    0.8792   -4.6667    0.0000 Cl  0  0  0  0  0  0  0  0  0  0  0  0
  3  2  1  0
  4  2  1  0
  5  3  2  0
  6  2  1  0
  7  3  1  0
  8  4  1  0
  9  4  1  0
 10  2  1  0
 11 12  1  0
 12 13  1  0
 13 10  1  0
M  END
> <chembl_id>
CHEMBL1201037

> <chembl_pref_name>
EFLORNITHINE HYDROCHLORIDE
