
     RDKit          2D

 16 15  0  0  0  0  0  0  0  0999 V2000
    6.2792   -4.0250    0.0000 Cl  0  0  0  0  0  0  0  0  0  0  0  0
    4.3167   -3.8375    0.0000 N   0  0  0  0  0  0  0  0  0  0  0  0
    2.4750   -4.1917    0.0000 C   0  0  0  0  0  0  0  0  0  0  0  0
    4.9000   -4.1667    0.0000 C   0  0  0  0  0  0  0  0  0  0  0  0
    3.7042   -4.1917    0.0000 C   0  0  0  0  0  0  0  0  0  0  0  0
    3.0917   -3.8375    0.0000 C   0  0  0  0  0  0  0  0  0  0  0  0
    4.9000   -4.9042    0.0000 N   0  0  0  0  0  0  0  0  0  0  0  0
    2.4750   -4.9042    0.0000 C   0  0  0  0  0  0  0  0  0  0  0  0
    1.8542   -3.8375    0.0000 C   0  0  0  0  0  0  0  0  0  0  0  0
    3.7125   -4.8917    0.0000 O   0  0  0  0  0  0  0  0  0  0  0  0
    5.4792   -3.7667    0.0000 N   0  0  0  0  0  0  0  0  0  0  0  0
    1.8542   -3.1292    0.0000 Cl  0  0  0  0  0  0  0  0  0  0  0  0
    3.0917   -5.2667    0.0000 Cl  0  0  0  0  0  0  0  0  0  0  0  0
    1.2417   -4.9042    0.0000 C   0  0  0  0  0  0  0  0  0  0  0  0
    1.8542   -5.2667    0.0000 C   0  0  0  0  0  0  0  0  0  0  0  0
    1.2417   -4.1917    0.0000 C   0  0  0  0  0  0  0  0  0  0  0  0
  3  6  1  0
  4  2  1  0
  5  2  1  0
  6  5  1  0
  7  4  2  0
  8  3  2  0
  9  3  1  0
 10  5  2  0
 11  4  1  0
 12  9  1  0
 13  8  1  0
 14 16  1  0
 15  8  1  0
 16  9  2  0
 14 15  2  0
M  END
> <chembl_id>
CHEMBL1200494

> <chembl_pref_name>
GUANFACINE HYDROCHLORIDE
