
     RDKit          2D

 14 14  0  0  0  0  0  0  0  0999 V2000
    7.5065   17.2477    0.0000 N   0  0  0  0  0  0  0  0  0  0  0  0
    7.5065   16.4227    0.0000 C   0  0  0  0  0  0  0  0  0  0  0  0
    8.2210   16.0102    0.0000 C   0  0  0  0  0  0  0  0  0  0  0  0
    8.9354   16.4227    0.0000 O   0  0  0  0  0  0  0  0  0  0  0  0
    6.7920   16.0102    0.0000 C   0  0  0  0  0  0  0  0  0  0  0  0
    6.0775   16.4227    0.0000 C   0  0  0  0  0  0  0  0  0  0  0  0
    5.3631   16.0102    0.0000 C   0  0  0  0  0  0  0  0  0  0  0  0
    6.0775   17.2477    0.0000 C   0  0  0  0  0  0  0  0  0  0  0  0
    4.6486   16.4227    0.0000 C   0  0  0  0  0  0  0  0  0  0  0  0
    5.3631   17.6602    0.0000 C   0  0  0  0  0  0  0  0  0  0  0  0
    4.6486   17.2477    0.0000 C   0  0  0  0  0  0  0  0  0  0  0  0
    3.9341   17.6602    0.0000 O   0  0  0  0  0  0  0  0  0  0  0  0
    5.3631   18.4852    0.0000 O   0  0  0  0  0  0  0  0  0  0  0  0
    8.2210   15.1852    0.0000 O   0  0  0  0  0  0  0  0  0  0  0  0
  2  1  1  6
  3  2  1  0
  2  5  1  0
  3  4  2  0
  3 14  1  0
  5  6  1  0
  7  6  1  0
  8  6  2  0
  7  9  2  0
  8 10  1  0
  9 11  1  0
 10 11  2  0
 10 13  1  0
 11 12  1  0
M  END
> <chembl_id>
CHEMBL1009

> <chembl_pref_name>
LEVODOPA
