
     RDKit          2D

  9  9  0  0  0  0  0  0  0  0999 V2000
    0.0375    1.6708    0.0000 C   0  0  0  0  0  0  0  0  0  0  0  0
    1.2917    2.4125    0.0000 O   0  0  0  0  0  0  0  0  0  0  0  0
    0.0375    0.2208    0.0000 C   0  0  0  0  0  0  0  0  0  0  0  0
   -1.1833    2.4125    0.0000 O   0  0  0  0  0  0  0  0  0  0  0  0
   -1.1833   -0.4417    0.0000 C   0  0  0  0  0  0  0  0  0  0  0  0
    1.2542   -0.4417    0.0000 C   0  0  0  0  0  0  0  0  0  0  0  0
    1.2542   -1.9042    0.0000 C   0  0  0  0  0  0  0  0  0  0  0  0
   -1.2000   -1.8875    0.0000 C   0  0  0  0  0  0  0  0  0  0  0  0
    0.0167   -2.6292    0.0000 C   0  0  0  0  0  0  0  0  0  0  0  0
  2  1  2  0
  3  1  1  0
  4  1  1  0
  5  3  2  0
  6  3  1  0
  7  6  2  0
  8  5  1  0
  9  7  1  0
  8  9  2  0
M  END
> <chembl_id>
CHEMBL541

> <chembl_pref_name>
BENZOIC ACID
