
     RDKit          2D

 24 26  0  0  0  0  0  0  0  0999 V2000
    0.1792   -3.5042    0.0000 N   0  0  0  0  0  0  0  0  0  0  0  0
   -0.3708   -4.6667    0.0000 C   0  0  0  0  0  0  0  0  0  0  0  0
   -0.3708   -3.9417    0.0000 C   0  0  0  0  0  0  0  0  0  0  0  0
    0.2250   -5.0667    0.0000 C   0  0  0  0  0  0  0  0  0  0  0  0
    0.9000   -4.9042    0.0000 N   0  0  0  0  0  0  0  0  0  0  0  0
    0.9000   -3.7167    0.0000 C   0  0  0  0  0  0  0  0  0  0  0  0
    0.7875   -2.3292    0.0000 C   0  0  0  0  0  0  0  0  0  0  0  0
    0.1792   -2.6542    0.0000 C   0  0  0  0  0  0  0  0  0  0  0  0
    1.1875   -4.2667    0.0000 C   0  0  0  0  0  0  0  0  0  0  0  0
   -1.0125   -3.5917    0.0000 C   0  0  0  0  0  0  0  0  0  0  0  0
   -1.0125   -5.0167    0.0000 C   0  0  0  0  0  0  0  0  0  0  0  0
    0.2250   -5.7667    0.0000 C   0  0  0  0  0  0  0  0  0  0  0  0
    1.4500   -3.2792    0.0000 O   0  0  0  0  0  0  0  0  0  0  0  0
    1.3750   -2.7042    0.0000 F   0  0  0  0  0  0  0  0  0  0  0  0
    1.1375   -1.7167    0.0000 F   0  0  0  0  0  0  0  0  0  0  0  0
    0.4292   -1.7167    0.0000 F   0  0  0  0  0  0  0  0  0  0  0  0
   -1.5958   -4.6667    0.0000 C   0  0  0  0  0  0  0  0  0  0  0  0
   -1.5958   -3.9417    0.0000 C   0  0  0  0  0  0  0  0  0  0  0  0
   -2.1750   -5.0417    0.0000 Cl  0  0  0  0  0  0  0  0  0  0  0  0
   -0.4000   -6.1417    0.0000 C   0  0  0  0  0  0  0  0  0  0  0  0
    0.8167   -6.1417    0.0000 C   0  0  0  0  0  0  0  0  0  0  0  0
   -0.4000   -6.8417    0.0000 C   0  0  0  0  0  0  0  0  0  0  0  0
    0.8167   -6.8417    0.0000 C   0  0  0  0  0  0  0  0  0  0  0  0
    0.2250   -7.1917    0.0000 C   0  0  0  0  0  0  0  0  0  0  0  0
  2  3  2  0
  3  1  1  0
  4  2  1  0
  5  9  1  0
  6  1  1  0
  7  8  1  0
  8  1  1  0
  9  6  1  0
 10  3  1  0
 11  2  1  0
 12  4  1  0
 13  6  2  0
 14  7  1  0
 15  7  1  0
 16  7  1  0
 17 11  2  0
 18 10  2  0
 19 17  1  0
 20 12  2  0
 21 12  1  0
 22 20  1  0
 23 21  2  0
 24 23  1  0
  4  5  2  0
 18 17  1  0
 22 24  2  0
M  END
> <chembl_id>
CHEMBL970

> <chembl_pref_name>
HALAZEPAM
