
     RDKit          2D

 34 38  0  0  1  0  0  0  0  0999 V2000
    1.9500   -8.7250    0.0000 C   0  0  0  0  0  0  0  0  0  0  0  0
    1.2750   -8.9458    0.0000 C   0  0  0  0  0  0  0  0  0  0  0  0
    1.2750   -9.6542    0.0000 C   0  0  0  0  0  0  0  0  0  0  0  0
   -0.5625  -10.0042    0.0000 C   0  0  0  0  0  0  0  0  0  0  0  0
    0.6583  -10.0000    0.0000 C   0  0  0  0  0  0  0  0  0  0  0  0
    2.3667   -9.3000    0.0000 C   0  0  0  0  0  0  0  0  0  0  0  0
    0.0500   -9.6458    0.0000 C   0  0  0  0  0  0  0  0  0  0  0  0
   -0.5625  -10.7125    0.0000 C   0  0  0  0  0  0  0  0  0  0  0  0
    2.3625   -8.1542    0.0000 O   0  0  0  0  0  0  0  0  0  0  0  0
    0.6625   -8.5875    0.0000 C   0  0  0  0  0  0  0  0  0  0  0  0
    3.0375   -8.3708    0.0000 C   0  0  0  0  0  0  0  0  0  0  0  0
    0.0458   -8.9417    0.0000 C   0  0  0  0  0  0  0  0  0  0  0  0
    3.0417   -9.0792    0.0000 O   0  0  0  0  0  0  0  0  0  0  0  0
   -1.1750   -9.6500    0.0000 C   0  0  0  0  0  0  0  0  0  0  0  0
    1.9500   -9.8750    0.0000 C   0  0  0  0  0  0  0  0  0  0  0  0
    1.9417   -8.0167    0.0000 C   0  0  0  0  0  0  0  0  0  0  0  0
   -1.1750  -11.0667    0.0000 C   0  0  0  0  0  0  0  0  0  0  0  0
    0.6625  -10.7083    0.0000 C   0  0  0  0  0  0  0  0  0  0  0  0
   -1.7833  -10.0042    0.0000 C   0  0  0  0  0  0  0  0  0  0  0  0
   -1.7833  -10.7125    0.0000 C   0  0  0  0  0  0  0  0  0  0  0  0
    0.0500  -11.0625    0.0000 C   0  0  0  0  0  0  0  0  0  0  0  0
    1.3292   -7.6667    0.0000 O   0  0  0  0  0  0  0  0  0  0  0  0
   -2.4000  -11.0625    0.0000 O   0  0  0  0  0  0  0  0  0  0  0  0
    1.2667   -8.2375    0.0000 C   0  0  0  0  0  0  0  0  0  0  0  0
   -0.5667   -8.5833    0.0000 O   0  0  0  0  0  0  0  0  0  0  0  0
   -0.5708   -9.2917    0.0000 C   0  0  0  0  0  0  0  0  0  0  0  0
    2.5542   -7.6542    0.0000 C   0  0  0  0  0  0  0  0  0  0  0  0
    3.7417   -8.3667    0.0000 C   0  0  0  0  0  0  0  0  0  0  0  0
    3.3875   -7.7542    0.0000 C   0  0  0  0  0  0  0  0  0  0  0  0
    2.5500   -6.9458    0.0000 O   0  0  0  0  0  0  0  0  0  0  0  0
   -0.8190   -9.1509    0.0000 H   0  0  0  0  0  0  0  0  0  0  0  0
    2.9558  -10.1081    0.0000 H   0  0  0  0  0  0  0  0  0  0  0  0
    1.5227  -10.5029    0.0000 H   0  0  0  0  0  0  0  0  0  0  0  0
    1.3723  -10.6495    0.0000 H   0  0  0  0  0  0  0  0  0  0  0  0
  2  1  1  0
  3  2  1  0
  4  7  1  0
  5  3  1  0
  6  1  1  0
  7  5  1  0
  8  4  1  0
  1  9  1  0
 10  2  1  0
 11  9  1  0
 12 10  1  0
  6 13  1  0
 14  4  1  0
 15  6  1  0
  1 16  1  1
 17  8  2  0
 18  5  1  0
 19 14  2  0
 20 17  1  0
 21 18  1  0
 22 16  2  0
 23 20  2  0
  2 24  1  1
 12 25  1  1
  4 26  1  1
 27 16  1  0
 28 11  1  0
 29 11  1  0
 30 27  1  0
 11 13  1  0
 15  3  1  0
 12  7  1  0
 21  8  1  0
 20 19  1  0
  7 31  1  6
  6 32  1  1
  5 33  1  1
  3 34  1  6
M  END
> <chembl_id>
CHEMBL1201109

> <chembl_pref_name>
DESONIDE
