
     RDKit          2D

 30 33  0  0  1  0  0  0  0  0999 V2000
    4.8250   -6.3167    0.0000 C   0  0  0  0  0  0  0  0  0  0  0  0
    2.9750   -7.3792    0.0000 C   0  0  0  0  0  0  0  0  0  0  0  0
    2.9750   -8.0917    0.0000 C   0  0  0  0  0  0  0  0  0  0  0  0
    4.8250   -7.0292    0.0000 C   0  0  0  0  0  0  0  0  0  0  0  0
    3.5875   -7.0292    0.0000 C   0  0  0  0  0  0  0  0  0  0  0  0
    4.2125   -7.3792    0.0000 C   0  0  0  0  0  0  0  0  0  0  0  0
    5.5042   -6.0917    0.0000 C   0  0  0  0  0  0  0  0  0  0  0  0
    2.3667   -8.4417    0.0000 C   0  0  0  0  0  0  0  0  0  0  0  0
    4.2000   -5.9625    0.0000 C   0  0  0  0  0  0  0  0  0  0  0  0
    3.5875   -6.3167    0.0000 C   0  0  0  0  0  0  0  0  0  0  0  0
    5.5042   -7.2417    0.0000 C   0  0  0  0  0  0  0  0  0  0  0  0
    2.3667   -7.0292    0.0000 C   0  0  0  0  0  0  0  0  0  0  0  0
    5.9167   -6.6667    0.0000 C   0  0  0  0  0  0  0  0  0  0  0  0
    4.2125   -8.0917    0.0000 C   0  0  0  0  0  0  0  0  0  0  0  0
    5.5125   -5.3750    0.0000 C   0  0  0  0  0  0  0  0  0  0  0  0
    3.5875   -8.4417    0.0000 C   0  0  0  0  0  0  0  0  0  0  0  0
    1.7417   -8.0792    0.0000 C   0  0  0  0  0  0  0  0  0  0  0  0
    7.3292   -5.0292    0.0000 C   0  0  0  0  0  0  0  0  0  0  0  0
    6.1167   -5.0292    0.0000 C   0  0  0  0  0  0  0  0  0  0  0  0
    6.7250   -5.3875    0.0000 O   0  0  0  0  0  0  0  0  0  0  0  0
    7.3292   -4.3292    0.0000 O   0  0  0  0  0  0  0  0  0  0  0  0
    4.8917   -5.0167    0.0000 O   0  0  0  0  0  0  0  0  0  0  0  0
    1.1125   -8.4292    0.0000 O   0  0  0  0  0  0  0  0  0  0  0  0
    1.7417   -7.3792    0.0000 C   0  0  0  0  0  0  0  0  0  0  0  0
    4.8375   -5.6125    0.0000 C   0  0  0  0  0  0  0  0  0  0  0  0
    2.9750   -6.6667    0.0000 C   0  0  0  0  0  0  0  0  0  0  0  0
    7.9500   -5.3792    0.0000 C   0  0  0  0  0  0  0  0  0  0  0  0
    5.0774   -7.8811    0.0000 H   0  0  0  0  0  0  0  0  0  0  0  0
    2.7226   -6.5273    0.0000 H   0  0  0  0  0  0  0  0  0  0  0  0
    4.9328   -8.0234    0.0000 H   0  0  0  0  0  0  0  0  0  0  0  0
  2  5  1  0
  3  2  1  0
  4  1  1  0
  5 10  1  0
  6  4  1  0
  7  1  1  0
  8  3  2  0
  9  1  1  0
 10  9  1  0
 11  4  1  0
 12  2  1  0
 13  7  1  0
 14  6  1  0
  7 15  1  1
 16 14  1  0
 17 24  1  0
 18 20  1  0
 19 15  1  0
 20 19  1  0
 21 18  2  0
 22 15  2  0
 23 17  2  0
 24 12  1  0
  1 25  1  1
  2 26  1  1
 27 18  1  0
 11 13  1  0
  6  5  1  0
 16  3  1  0
  8 17  1  0
  6 28  1  1
  5 29  1  6
  4 30  1  6
M  END
> <chembl_id>
CHEMBL1200542

> <chembl_pref_name>
DESOXYCORTICOSTERONE ACETATE
