
     RDKit          2D

 10  8  0  0  0  0  0  0  0  0999 V2000
    6.1167   -6.5625    0.0000 Cl  0  0  0  0  0  0  0  0  0  0  0  0
    5.3542   -6.0167    0.0000 C   0  0  0  0  0  0  0  0  0  0  0  0
    4.7500   -5.6750    0.0000 N   0  0  0  0  0  0  0  0  0  0  0  0
    4.1250   -6.0167    0.0000 C   0  0  0  0  0  0  0  0  0  0  0  0
    5.3542   -6.7375    0.0000 N   0  0  0  0  0  0  0  0  0  0  0  0
    5.9750   -5.6625    0.0000 N   0  0  0  0  0  0  0  0  0  0  0  0
    4.0917   -6.7250    0.0000 N   0  0  0  0  0  0  0  0  0  0  0  0
    3.5167   -5.6417    0.0000 N   0  0  0  0  0  0  0  0  0  0  0  0
    6.5917   -6.0250    0.0000 C   0  0  0  0  0  0  0  0  0  0  0  0
    5.9750   -4.9625    0.0000 C   0  0  0  0  0  0  0  0  0  0  0  0
  3  2  1  0
  4  3  1  0
  5  2  2  0
  6  2  1  0
  7  4  2  0
  8  4  1  0
  9  6  1  0
 10  6  1  0
M  END
> <chembl_id>
CHEMBL1703

> <chembl_pref_name>
METFORMIN HYDROCHLORIDE
