
     RDKit          2D

 62 63  0  0  0  0  0  0  0  0999 V2000
    6.5792   -7.0875    0.0000 C   0  0  0  0  0  0  0  0  0  0  0  0
    2.9042   -7.0875    0.0000 C   0  0  0  0  0  0  0  0  0  0  0  0
    7.8042   -7.0875    0.0000 C   0  0  0  0  0  0  0  0  0  0  0  0
    1.6792   -7.0875    0.0000 C   0  0  0  0  0  0  0  0  0  0  0  0
    2.2917   -8.1542    0.0000 C   0  0  0  0  0  0  0  0  0  0  0  0
    7.1917   -8.1542    0.0000 C   0  0  0  0  0  0  0  0  0  0  0  0
    7.1917   -6.7292    0.0000 C   0  0  0  0  0  0  0  0  0  0  0  0
    2.9042   -7.8000    0.0000 C   0  0  0  0  0  0  0  0  0  0  0  0
    6.5792   -7.8000    0.0000 C   0  0  0  0  0  0  0  0  0  0  0  0
    2.2917   -6.7292    0.0000 C   0  0  0  0  0  0  0  0  0  0  0  0
    5.9667   -6.7292    0.0000 N   0  0  0  0  0  0  0  0  0  0  0  0
    3.5167   -6.7292    0.0000 N   0  0  0  0  0  0  0  0  0  0  0  0
    1.6792   -7.8000    0.0000 C   0  0  0  0  0  0  0  0  0  0  0  0
    7.8042   -7.8000    0.0000 C   0  0  0  0  0  0  0  0  0  0  0  0
    7.1917   -8.8625    0.0000 C   0  0  0  0  0  0  0  0  0  0  0  0
    8.4167   -6.7292    0.0000 C   0  0  0  0  0  0  0  0  0  0  0  0
    1.0667   -6.7292    0.0000 C   0  0  0  0  0  0  0  0  0  0  0  0
    2.3000   -8.8625    0.0000 C   0  0  0  0  0  0  0  0  0  0  0  0
    5.9750   -6.0167    0.0000 C   0  0  0  0  0  0  0  0  0  0  0  0
    3.5167   -6.0167    0.0000 C   0  0  0  0  0  0  0  0  0  0  0  0
    4.1292   -7.0792    0.0000 C   0  0  0  0  0  0  0  0  0  0  0  0
    5.3542   -7.0792    0.0000 C   0  0  0  0  0  0  0  0  0  0  0  0
    7.8042   -9.2167    0.0000 N   0  0  0  0  0  0  0  0  0  0  0  0
    0.4542   -7.0875    0.0000 N   0  0  0  0  0  0  0  0  0  0  0  0
    9.0292   -7.0875    0.0000 N   0  0  0  0  0  0  0  0  0  0  0  0
    1.6875   -9.2167    0.0000 N   0  0  0  0  0  0  0  0  0  0  0  0
    4.7417   -6.7250    0.0000 C   0  0  0  0  0  0  0  0  0  0  0  0
    6.5792   -9.2167    0.0000 O   0  0  0  0  0  0  0  0  0  0  0  0
    1.0667   -6.0250    0.0000 O   0  0  0  0  0  0  0  0  0  0  0  0
    2.9125   -9.2167    0.0000 O   0  0  0  0  0  0  0  0  0  0  0  0
    8.4167   -6.0250    0.0000 O   0  0  0  0  0  0  0  0  0  0  0  0
    4.1292   -5.6667    0.0000 O   0  0  0  0  0  0  0  0  0  0  0  0
    5.3625   -5.6667    0.0000 O   0  0  0  0  0  0  0  0  0  0  0  0
    8.4167   -8.1542    0.0000 I   0  0  0  0  0  0  0  0  0  0  0  0
    7.1917   -6.0250    0.0000 I   0  0  0  0  0  0  0  0  0  0  0  0
    2.2917   -6.0250    0.0000 I   0  0  0  0  0  0  0  0  0  0  0  0
    3.5250   -8.1542    0.0000 I   0  0  0  0  0  0  0  0  0  0  0  0
    1.0667   -8.1542    0.0000 I   0  0  0  0  0  0  0  0  0  0  0  0
    5.9667   -8.1542    0.0000 I   0  0  0  0  0  0  0  0  0  0  0  0
    8.4167   -8.8667    0.0000 C   0  0  0  0  0  0  0  0  0  0  0  0
   -0.1583   -6.7292    0.0000 C   0  0  0  0  0  0  0  0  0  0  0  0
    1.0667   -8.8667    0.0000 C   0  0  0  0  0  0  0  0  0  0  0  0
    9.6500   -6.7292    0.0000 C   0  0  0  0  0  0  0  0  0  0  0  0
   -0.7708   -7.0875    0.0000 C   0  0  0  0  0  0  0  0  0  0  0  0
    9.0292   -9.2167    0.0000 C   0  0  0  0  0  0  0  0  0  0  0  0
    0.4542   -9.2167    0.0000 C   0  0  0  0  0  0  0  0  0  0  0  0
   10.2625   -7.0875    0.0000 C   0  0  0  0  0  0  0  0  0  0  0  0
    4.7417   -6.0167    0.0000 O   0  0  0  0  0  0  0  0  0  0  0  0
    9.0292   -9.9292    0.0000 O   0  0  0  0  0  0  0  0  0  0  0  0
    0.4542   -9.9292    0.0000 O   0  0  0  0  0  0  0  0  0  0  0  0
   -0.7708   -7.7917    0.0000 O   0  0  0  0  0  0  0  0  0  0  0  0
   10.2625   -7.7917    0.0000 O   0  0  0  0  0  0  0  0  0  0  0  0
    2.9042   -5.6667    0.0000 C   0  0  0  0  0  0  0  0  0  0  0  0
    6.5875   -5.6667    0.0000 C   0  0  0  0  0  0  0  0  0  0  0  0
   -0.7708   -9.2167    0.0000 O   0  0  0  0  0  0  0  0  0  0  0  0
   -1.9958   -7.0875    0.0000 O   0  0  0  0  0  0  0  0  0  0  0  0
   10.2542   -9.2167    0.0000 O   0  0  0  0  0  0  0  0  0  0  0  0
   11.4875   -7.0875    0.0000 O   0  0  0  0  0  0  0  0  0  0  0  0
   10.8750   -6.7292    0.0000 C   0  0  0  0  0  0  0  0  0  0  0  0
   -1.3833   -6.7292    0.0000 C   0  0  0  0  0  0  0  0  0  0  0  0
    9.6417   -8.8667    0.0000 C   0  0  0  0  0  0  0  0  0  0  0  0
   -0.1583   -8.8667    0.0000 C   0  0  0  0  0  0  0  0  0  0  0  0
  2 12  1  0
  3  7  1  0
  4 10  1  0
  5  8  2  0
  6  9  2  0
  7  1  2  0
  8  2  1  0
  9  1  1  0
 10  2  2  0
 11  1  1  0
 12 21  1  0
 13  4  2  0
 14  6  1  0
 15  6  1  0
 16  3  1  0
 17  4  1  0
 18  5  1  0
 19 11  1  0
 20 12  1  0
 21 27  1  0
 22 11  1  0
 23 15  1  0
 24 17  1  0
 25 16  1  0
 26 18  1  0
 27 22  1  0
 28 15  2  0
 29 17  2  0
 30 18  2  0
 31 16  2  0
 32 20  2  0
 33 19  2  0
 34 14  1  0
 35  7  1  0
 36 10  1  0
 37  8  1  0
 38 13  1  0
 39  9  1  0
 40 23  1  0
 41 24  1  0
 42 26  1  0
 43 25  1  0
 44 41  1  0
 45 40  1  0
 46 42  1  0
 47 43  1  0
 48 27  1  0
 49 45  1  0
 50 46  1  0
 51 44  1  0
 52 47  1  0
 53 20  1  0
 54 19  1  0
 55 62  1  0
 56 60  1  0
 57 61  1  0
 58 59  1  0
 59 47  1  0
 60 44  1  0
 61 45  1  0
 62 46  1  0
 14  3  2  0
  5 13  1  0
M  END
> <chembl_id>
CHEMBL1200507

> <chembl_pref_name>
IODIXANOL
