
     RDKit          2D

 23 24  0  0  1  0  0  0  0  0999 V2000
    0.9375    0.7833    0.0000 C   0  0  0  0  0  0  0  0  0  0  0  0
    0.0250   -0.7792    0.0000 C   0  0  0  0  0  0  0  0  0  0  0  0
    1.3667    1.7333    0.0000 C   0  0  0  0  0  0  0  0  0  0  0  0
    0.0250   -1.8292    0.0000 C   0  0  0  0  0  0  0  0  0  0  0  0
   -0.1125    0.8833    0.0000 O   0  0  0  0  0  0  0  0  0  0  0  0
    0.9375   -0.2542    0.0000 O   0  0  0  0  0  0  0  0  0  0  0  0
   -0.8833   -2.3542    0.0000 C   0  0  0  0  0  0  0  0  0  0  0  0
   -0.8833   -0.2542    0.0000 O   0  0  0  0  0  0  0  0  0  0  0  0
    0.5792    2.4333    0.0000 C   0  0  0  0  0  0  0  0  0  0  0  0
   -1.7833   -1.8292    0.0000 C   0  0  0  0  0  0  0  0  0  0  0  0
   -0.3333    1.8958    0.0000 C   0  0  0  0  0  0  0  0  0  0  0  0
   -1.7833   -0.7792    0.0000 C   0  0  0  0  0  0  0  0  0  0  0  0
    1.8375    0.2583    0.0000 C   0  0  0  0  0  0  0  0  0  0  0  0
    2.3792    1.9458    0.0000 O   0  0  0  0  0  0  0  0  0  0  0  0
    0.9292   -2.3542    0.0000 O   0  0  0  0  0  0  0  0  0  0  0  0
   -0.8833   -3.4000    0.0000 O   0  0  0  0  0  0  0  0  0  0  0  0
    0.6917    3.4708    0.0000 O   0  0  0  0  0  0  0  0  0  0  0  0
   -2.6958   -2.3542    0.0000 O   0  0  0  0  0  0  0  0  0  0  0  0
   -1.2875    2.3000    0.0000 C   0  0  0  0  0  0  0  0  0  0  0  0
   -2.6958   -0.2542    0.0000 C   0  0  0  0  0  0  0  0  0  0  0  0
    2.7417    0.7833    0.0000 O   0  0  0  0  0  0  0  0  0  0  0  0
   -2.1250    1.6833    0.0000 O   0  0  0  0  0  0  0  0  0  0  0  0
   -2.6958    0.7833    0.0000 O   0  0  0  0  0  0  0  0  0  0  0  0
  2  6  1  6
  3  1  1  0
  4  2  1  0
  5  1  1  0
  6  1  1  0
  7  4  1  0
  8  2  1  0
  9  3  1  0
 10 12  1  0
 11  5  1  0
 12  8  1  0
  1 13  1  1
  3 14  1  6
  4 15  1  6
  7 16  1  1
  9 17  1  1
 10 18  1  6
 11 19  1  6
 12 20  1  1
 21 13  1  0
 22 19  1  0
 23 20  1  0
 11  9  1  0
  7 10  1  0
M  END
> <chembl_id>
CHEMBL253582

> <chembl_pref_name>
SUCROSE
