
     RDKit          2D

 16 17  0  0  0  0  0  0  0  0999 V2000
   -1.7250   -7.3000    0.0000 C   0  0  0  0  0  0  0  0  0  0  0  0
   -1.7250   -8.1292    0.0000 C   0  0  0  0  0  0  0  0  0  0  0  0
   -1.0088   -8.5417    0.0000 N   0  0  0  0  0  0  0  0  0  0  0  0
   -0.2926   -8.1292    0.0000 C   0  0  0  0  0  0  0  0  0  0  0  0
   -0.2926   -7.3000    0.0000 N   0  0  0  0  0  0  0  0  0  0  0  0
   -1.0088   -6.8833    0.0000 C   0  0  0  0  0  0  0  0  0  0  0  0
    0.4212   -8.5469    0.0000 O   0  0  0  0  0  0  0  0  0  0  0  0
   -2.4448   -6.8896    0.0000 Cl  0  0  0  0  0  0  0  0  0  0  0  0
   -1.0088   -6.0542    0.0000 O   0  0  0  0  0  0  0  0  0  0  0  0
   -2.4393   -8.5420    0.0000 C   0  0  0  0  0  0  0  0  0  0  0  0
   -3.1539   -8.1299    0.0000 N   0  0  0  0  0  0  0  0  0  0  0  0
   -3.2419   -7.3053    0.0000 C   0  0  0  0  0  0  0  0  0  0  0  0
   -4.0489   -7.1342    0.0000 C   0  0  0  0  0  0  0  0  0  0  0  0
   -4.4611   -7.8489    0.0000 C   0  0  0  0  0  0  0  0  0  0  0  0
   -3.9087   -8.4616    0.0000 C   0  0  0  0  0  0  0  0  0  0  0  0
   -4.0818   -9.2682    0.0000 N   0  0  0  0  0  0  0  0  0  0  0  0
  1  2  2  0
  6  9  2  0
  1  6  1  0
  2 10  1  0
  2  3  1  0
 10 11  1  0
 11 12  1  0
  3  4  1  0
  4  5  1  0
  5  6  1  0
 12 13  1  0
 13 14  1  0
 14 15  1  0
 15 11  1  0
  4  7  2  0
 15 16  2  0
  1  8  1  0
M  END
> <chembl_id>
CHEMBL235668

> <chembl_pref_name>
TIPIRACIL
