
     RDKit          2D

 27 28  0  0  0  0  0  0  0  0999 V2000
    0.4025   -5.9380    0.0000 Cl  0  0  0  0  0  0  0  0  0  0  0  0
    0.4357   -1.8175    0.0000 C   0  0  0  0  0  0  0  0  0  0  0  0
    1.1370   -1.4109    0.0000 N   0  0  0  0  0  0  0  0  0  0  0  0
   -0.2821   -1.4109    0.0000 C   0  0  0  0  0  0  0  0  0  0  0  0
    1.1370   -3.0499    0.0000 C   0  0  0  0  0  0  0  0  0  0  0  0
   -0.2821   -0.5893    0.0000 C   0  0  0  0  0  0  0  0  0  0  0  0
    1.8548   -1.8175    0.0000 C   0  0  0  0  0  0  0  0  0  0  0  0
    2.5769   -1.3984    0.0000 C   0  0  0  0  0  0  0  0  0  0  0  0
    0.4357   -2.6433    0.0000 C   0  0  0  0  0  0  0  0  0  0  0  0
    1.8548   -2.6391    0.0000 C   0  0  0  0  0  0  0  0  0  0  0  0
    1.1370   -3.8508    0.0000 C   0  0  0  0  0  0  0  0  0  0  0  0
    1.8548   -5.0915    0.0000 N   0  0  0  0  0  0  0  0  0  0  0  0
    1.8548   -4.2616    0.0000 C   0  0  0  0  0  0  0  0  0  0  0  0
    0.5395   -0.5893    0.0000 F   0  0  0  0  0  0  0  0  0  0  0  0
   -1.1037   -0.5893    0.0000 F   0  0  0  0  0  0  0  0  0  0  0  0
   -0.2821    0.2323    0.0000 F   0  0  0  0  0  0  0  0  0  0  0  0
    3.2989   -1.0001    0.0000 F   0  0  0  0  0  0  0  0  0  0  0  0
    2.9794   -2.1204    0.0000 F   0  0  0  0  0  0  0  0  0  0  0  0
    2.1702   -0.6847    0.0000 F   0  0  0  0  0  0  0  0  0  0  0  0
   -0.9959   -1.8299    0.0000 C   0  0  0  0  0  0  0  0  0  0  0  0
    0.4150   -4.2740    0.0000 O   0  0  0  0  0  0  0  0  0  0  0  0
   -0.2821   -3.0499    0.0000 C   0  0  0  0  0  0  0  0  0  0  0  0
    2.5561   -5.4940    0.0000 C   0  0  0  0  0  0  0  0  0  0  0  0
   -0.9959   -2.6391    0.0000 C   0  0  0  0  0  0  0  0  0  0  0  0
    2.5561   -3.8508    0.0000 C   0  0  0  0  0  0  0  0  0  0  0  0
    3.2782   -5.0915    0.0000 C   0  0  0  0  0  0  0  0  0  0  0  0
    3.2782   -4.2740    0.0000 C   0  0  0  0  0  0  0  0  0  0  0  0
  3  2  1  0
  4  2  1  0
  5  9  1  0
  6  4  1  0
  7  3  2  0
  8  7  1  0
  9  2  2  0
 10  5  2  0
 11  5  1  0
 12 13  1  0
 13 11  1  0
 14  6  1  0
 15  6  1  0
 16  6  1  0
 17  8  1  0
 18  8  1  0
 19  8  1  0
 20  4  2  0
 21 11  1  0
 22  9  1  0
 23 12  1  0
 24 22  2  0
 25 13  1  0
 26 27  1  0
 27 25  1  0
 20 24  1  0
  7 10  1  0
 23 26  1  0
M  END
> <chembl_id>
CHEMBL535650

> <chembl_pref_name>
MEFLOQUINE HYDROCHLORIDE
