
     RDKit          2D

 17 18  0  0  0  0  0  0  0  0999 V2000
    5.8292   -5.9375    0.0000 Cl  0  0  0  0  0  0  0  0  0  0  0  0
    4.8375   -4.1167    0.0000 C   0  0  0  0  0  0  0  0  0  0  0  0
    5.5375   -3.9000    0.0000 N   0  0  0  0  0  0  0  0  0  0  0  0
    4.8375   -4.8292    0.0000 N   0  0  0  0  0  0  0  0  0  0  0  0
    3.6125   -4.8292    0.0000 C   0  0  0  0  0  0  0  0  0  0  0  0
    4.2250   -3.7542    0.0000 N   0  0  0  0  0  0  0  0  0  0  0  0
    3.6125   -4.1167    0.0000 C   0  0  0  0  0  0  0  0  0  0  0  0
    4.2250   -5.1875    0.0000 C   0  0  0  0  0  0  0  0  0  0  0  0
    5.9250   -4.4750    0.0000 C   0  0  0  0  0  0  0  0  0  0  0  0
    2.9917   -5.1875    0.0000 C   0  0  0  0  0  0  0  0  0  0  0  0
    5.5375   -5.0417    0.0000 C   0  0  0  0  0  0  0  0  0  0  0  0
    2.3792   -4.8292    0.0000 C   0  0  0  0  0  0  0  0  0  0  0  0
    2.9917   -3.7542    0.0000 C   0  0  0  0  0  0  0  0  0  0  0  0
    6.6292   -4.4750    0.0000 O   0  0  0  0  0  0  0  0  0  0  0  0
    2.3792   -4.1167    0.0000 C   0  0  0  0  0  0  0  0  0  0  0  0
    2.9917   -5.8917    0.0000 Cl  0  0  0  0  0  0  0  0  0  0  0  0
    1.7625   -5.1875    0.0000 Cl  0  0  0  0  0  0  0  0  0  0  0  0
  3  2  1  0
  4  2  1  0
  5  7  2  0
  6  2  2  0
  7  6  1  0
  8  4  1  0
  9  3  1  0
 10  5  1  0
 11  4  1  0
 12 15  1  0
 13  7  1  0
 14  9  2  0
 15 13  2  0
 16 10  1  0
 17 12  1  0
  9 11  1  0
  5  8  1  0
 10 12  2  0
M  END
> <chembl_id>
CHEMBL1200759

> <chembl_pref_name>
ANAGRELIDE HYDROCHLORIDE
