
     RDKit          2D

 50 54  0  0  0  0  0  0  0  0999 V2000
   -4.5502    5.0599    0.0000 Cl  0  0  0  0  0  0  0  0  0  0  0  0
   -8.5436    6.3112    0.0000 C   0  0  0  0  0  0  0  0  0  0  0  0
   -9.1886    6.8256    0.0000 C   0  0  0  0  0  0  0  0  0  0  0  0
   -9.1886    7.6506    0.0000 C   0  0  0  0  0  0  0  0  0  0  0  0
   -8.5436    8.1649    0.0000 S   0  0  0  0  0  0  0  0  0  0  0  0
   -7.7392    7.9813    0.0000 C   0  0  0  0  0  0  0  0  0  0  0  0
   -7.3813    7.2381    0.0000 C   0  0  0  0  0  0  0  0  0  0  0  0
   -7.7392    6.4948    0.0000 C   0  0  0  0  0  0  0  0  0  0  0  0
   -7.2745    8.6630    0.0000 C   0  0  0  0  0  0  0  0  0  0  0  0
   -6.4518    8.6013    0.0000 C   0  0  0  0  0  0  0  0  0  0  0  0
   -6.0939    7.8580    0.0000 C   0  0  0  0  0  0  0  0  0  0  0  0
   -6.5586    7.1764    0.0000 C   0  0  0  0  0  0  0  0  0  0  0  0
   -7.2249    5.8497    0.0000 C   0  0  0  0  0  0  0  0  0  0  0  0
   -6.4091    5.9727    0.0000 C   0  0  0  0  0  0  0  0  0  0  0  0
   -5.8947    5.3277    0.0000 C   0  0  0  0  0  0  0  0  0  0  0  0
   -6.1961    4.5597    0.0000 C   0  0  0  0  0  0  0  0  0  0  0  0
   -7.0119    4.4368    0.0000 C   0  0  0  0  0  0  0  0  0  0  0  0
   -7.5263    5.0818    0.0000 C   0  0  0  0  0  0  0  0  0  0  0  0
   -5.6817    3.9147    0.0000 O   0  0  0  0  0  0  0  0  0  0  0  0
   -5.9831    3.1467    0.0000 C   0  0  0  0  0  0  0  0  0  0  0  0
   -5.4688    2.5017    0.0000 C   0  0  0  0  0  0  0  0  0  0  0  0
   -4.6530    2.6247    0.0000 C   0  0  0  0  0  0  0  0  0  0  0  0
   -4.1386    1.9797    0.0000 C   0  0  0  0  0  0  0  0  0  0  0  0
   -4.4400    1.2117    0.0000 C   0  0  0  0  0  0  0  0  0  0  0  0
   -5.2558    1.0887    0.0000 C   0  0  0  0  0  0  0  0  0  0  0  0
   -5.7702    1.7338    0.0000 C   0  0  0  0  0  0  0  0  0  0  0  0
   -3.9256    0.5667    0.0000 C   0  0  0  0  0  0  0  0  0  0  0  0
   -4.2270   -0.2013    0.0000 N   0  0  0  0  0  0  0  0  0  0  0  0
   -4.8059    0.3865    0.0000 C   0  0  0  0  0  0  0  0  0  0  0  0
   -4.9311   -0.3815    0.0000 C   0  0  0  0  0  0  0  0  0  0  0  0
   -4.3564   -0.9521    0.0000 N   0  0  0  0  0  0  0  0  0  0  0  0
   -4.7066   -1.7778    0.0000 C   0  0  0  0  0  0  0  0  0  0  0  0
   -4.7228   -1.1246    0.0000 C   0  0  0  0  0  0  0  0  0  0  0  0
   -3.3151   -0.1602    0.0000 C   0  0  0  0  0  0  0  0  0  0  0  0
   -3.4802   -0.9051    0.0000 C   0  0  0  0  0  0  0  0  0  0  0  0
   -8.7271    5.5069    0.0000 O   0  0  0  0  0  0  0  0  0  0  0  0
   -9.6883    6.1692    0.0000 C   0  0  0  0  0  0  0  0  0  0  0  0
  -10.0134    6.8441    0.0000 C   0  0  0  0  0  0  0  0  0  0  0  0
  -10.4418    6.1390    0.0000 C   0  0  0  0  0  0  0  0  0  0  0  0
  -11.2666    6.1575    0.0000 C   0  0  0  0  0  0  0  0  0  0  0  0
  -11.6629    6.8811    0.0000 C   0  0  0  0  0  0  0  0  0  0  0  0
   -9.3698    5.4081    0.0000 C   0  0  0  0  0  0  0  0  0  0  0  0
   -9.8696    4.7518    0.0000 C   0  0  0  0  0  0  0  0  0  0  0  0
  -10.6879    4.8564    0.0000 C   0  0  0  0  0  0  0  0  0  0  0  0
   -9.0723    8.7982    0.0000 O   0  0  0  0  0  0  0  0  0  0  0  0
   -8.3420    8.9649    0.0000 O   0  0  0  0  0  0  0  0  0  0  0  0
   -5.2712    7.7964    0.0000 N   0  0  0  0  0  0  0  0  0  0  0  0
   -4.9132    7.0531    0.0000 C   0  0  0  0  0  0  0  0  0  0  0  0
   -4.8064    8.4780    0.0000 C   0  0  0  0  0  0  0  0  0  0  0  0
   -9.3223    6.0387    0.0000 H   0  0  0  0  0  0  0  0  0  0  0  0
  2  3  1  0
  3  4  1  0
  4  5  1  0
  5  6  1  0
  7  8  1  0
  8  2  1  0
  6  9  2  0
  7  6  1  0
  7 12  2  0
  9 10  1  0
 10 11  2  0
 11 12  1  0
  8 13  1  1
 13 14  1  0
 13 18  2  0
 14 15  2  0
 15 16  1  0
 16 17  2  0
 17 18  1  0
 16 19  1  0
 19 20  1  0
 20 21  1  0
 21 22  1  0
 21 26  2  0
 22 23  2  0
 23 24  1  0
 24 25  2  0
 25 26  1  0
 24 27  1  0
 27 28  1  0
 28 29  1  0
 33 28  1  0
 29 30  1  0
 30 31  1  0
 31 32  1  0
 32 33  1  0
 28 34  1  0
 31 35  1  0
 35 34  1  0
  2 36  1  1
  3 37  1  0
  3 38  1  0
 38 39  1  0
 39 40  1  0
 40 41  1  0
 37 42  1  0
 42 43  1  0
 43 44  1  0
  5 45  2  0
  5 46  2  0
 11 47  1  0
 47 48  1  0
 47 49  1  0
  2 50  1  6
M  CHG  2   1  -1  28   1
M  END
> <chembl_id>
CHEMBL17879

> <chembl_pref_name>
MARALIXIBAT CHLORIDE
