
     RDKit          2D

 21 23  0  0  0  0  0  0  0  0999 V2000
    5.4292   -5.5375    0.0000 N   0  0  0  0  0  0  0  0  0  0  0  0
    4.8167   -5.8917    0.0000 C   0  0  0  0  0  0  0  0  0  0  0  0
    5.4292   -6.9542    0.0000 S   0  0  0  0  0  0  0  0  0  0  0  0
    6.0417   -5.9000    0.0000 C   0  0  0  0  0  0  0  0  0  0  0  0
    4.8125   -6.6000    0.0000 C   0  0  0  0  0  0  0  0  0  0  0  0
    6.0417   -6.6042    0.0000 C   0  0  0  0  0  0  0  0  0  0  0  0
    4.2042   -5.5375    0.0000 C   0  0  0  0  0  0  0  0  0  0  0  0
    4.2000   -6.9417    0.0000 C   0  0  0  0  0  0  0  0  0  0  0  0
    5.4417   -4.8375    0.0000 C   0  0  0  0  0  0  0  0  0  0  0  0
    3.5917   -5.8792    0.0000 C   0  0  0  0  0  0  0  0  0  0  0  0
    4.8292   -4.4750    0.0000 C   0  0  0  0  0  0  0  0  0  0  0  0
    4.2167   -3.4042    0.0000 N   0  0  0  0  0  0  0  0  0  0  0  0
    3.5917   -6.5917    0.0000 C   0  0  0  0  0  0  0  0  0  0  0  0
    2.9875   -5.5250    0.0000 Cl  0  0  0  0  0  0  0  0  0  0  0  0
    6.6625   -5.5417    0.0000 C   0  0  0  0  0  0  0  0  0  0  0  0
    6.6542   -6.9667    0.0000 C   0  0  0  0  0  0  0  0  0  0  0  0
    4.8292   -3.7667    0.0000 C   0  0  0  0  0  0  0  0  0  0  0  0
    4.2250   -2.6917    0.0000 C   0  0  0  0  0  0  0  0  0  0  0  0
    3.6042   -3.7542    0.0000 C   0  0  0  0  0  0  0  0  0  0  0  0
    7.2750   -5.9042    0.0000 C   0  0  0  0  0  0  0  0  0  0  0  0
    7.2667   -6.6250    0.0000 C   0  0  0  0  0  0  0  0  0  0  0  0
  2  1  1  0
  3  6  1  0
  4  1  1  0
  5  2  1  0
  6  4  2  0
  7  2  2  0
  8  5  2  0
  9  1  1  0
 10  7  1  0
 11  9  1  0
 12 17  1  0
 13 10  2  0
 14 10  1  0
 15  4  1  0
 16  6  1  0
 17 11  1  0
 18 12  1  0
 19 12  1  0
 20 15  2  0
 21 20  1  0
  5  3  1  0
 16 21  2  0
  8 13  1  0
M  END
> <chembl_id>
CHEMBL71

> <chembl_pref_name>
CHLORPROMAZINE
