
     RDKit          2D

 25 25  0  0  1  0  0  0  0  0999 V2000
   -2.6083   -1.9250    0.0000 C   0  0  0  0  0  0  0  0  0  0  0  0
   -1.7833   -2.4167    0.0000 C   0  0  0  0  0  0  0  0  0  0  0  0
   -4.0958   -1.4292    0.0000 C   0  0  0  0  0  0  0  0  0  0  0  0
   -2.6000   -0.9542    0.0000 C   0  0  0  0  0  0  0  0  0  0  0  0
   -3.5333   -2.2167    0.0000 C   0  0  0  0  0  0  0  0  0  0  0  0
   -3.5208   -0.6542    0.0000 C   0  0  0  0  0  0  0  0  0  0  0  0
   -0.9333   -1.9542    0.0000 C   0  0  0  0  0  0  0  0  0  0  0  0
    1.5042    2.5208    0.0000 C   0  0  0  0  0  0  0  0  0  0  0  0
    1.4875    3.4833    0.0000 O   0  0  0  0  0  0  0  0  0  0  0  0
   -0.9250   -0.9167    0.0000 C   0  0  0  0  0  0  0  0  0  0  0  0
   -0.1000   -0.4167    0.0000 C   0  0  0  0  0  0  0  0  0  0  0  0
   -3.8083    0.2708    0.0000 O   0  0  0  0  0  0  0  0  0  0  0  0
   -3.8375   -3.1375    0.0000 O   0  0  0  0  0  0  0  0  0  0  0  0
    2.3542    2.0500    0.0000 O   0  0  0  0  0  0  0  0  0  0  0  0
   -1.7833   -0.4542    0.0000 C   0  0  0  0  0  0  0  0  0  0  0  0
   -0.1083   -2.4417    0.0000 C   0  0  0  0  0  0  0  0  0  0  0  0
   -0.1208   -3.4167    0.0000 O   0  0  0  0  0  0  0  0  0  0  0  0
    0.6792    2.0208    0.0000 C   0  0  0  0  0  0  0  0  0  0  0  0
   -0.1208    0.5458    0.0000 C   0  0  0  0  0  0  0  0  0  0  0  0
    0.7375   -1.9792    0.0000 C   0  0  0  0  0  0  0  0  0  0  0  0
    0.7042    1.0458    0.0000 C   0  0  0  0  0  0  0  0  0  0  0  0
    3.2417   -2.5000    0.0000 C   0  0  0  0  0  0  0  0  0  0  0  0
    1.5667   -2.4750    0.0000 C   0  0  0  0  0  0  0  0  0  0  0  0
    2.4167   -2.0000    0.0000 C   0  0  0  0  0  0  0  0  0  0  0  0
    4.0875   -2.0250    0.0000 C   0  0  0  0  0  0  0  0  0  0  0  0
  1  2  1  1
  3  5  1  0
  4  1  1  0
  5  1  1  0
  6  4  1  0
  7  2  2  0
  8 18  1  0
  9  8  2  0
 10 15  1  0
 11 10  2  0
  6 12  1  6
  5 13  1  6
 14  8  1  0
  4 15  1  6
 16  7  1  0
 16 17  1  6
 18 21  1  0
 19 11  1  0
 20 16  1  0
 21 19  1  0
 22 24  1  0
 23 20  1  0
 24 23  1  0
 25 22  1  0
  6  3  1  0
M  END
> <chembl_id>
CHEMBL815

> <chembl_pref_name>
DINOPROST
