
     RDKit          2D

 18 20  0  0  0  0  0  0  0  0999 V2000
    0.0000    1.4833    0.0000 C   0  0  0  0  0  0  0  0  0  0  0  0
    1.2375    0.7625    0.0000 C   0  0  0  0  0  0  0  0  0  0  0  0
   -1.2458    0.7625    0.0000 C   0  0  0  0  0  0  0  0  0  0  0  0
    0.0000   -1.3792    0.0000 C   0  0  0  0  0  0  0  0  0  0  0  0
    1.2375   -0.6542    0.0000 C   0  0  0  0  0  0  0  0  0  0  0  0
   -1.2458   -0.6542    0.0000 C   0  0  0  0  0  0  0  0  0  0  0  0
    0.0000    2.9083    0.0000 O   0  0  0  0  0  0  0  0  0  0  0  0
    2.4792    1.4833    0.0000 C   0  0  0  0  0  0  0  0  0  0  0  0
   -2.4833    1.4833    0.0000 C   0  0  0  0  0  0  0  0  0  0  0  0
    0.0000   -2.8042    0.0000 O   0  0  0  0  0  0  0  0  0  0  0  0
    2.4792   -1.3792    0.0000 C   0  0  0  0  0  0  0  0  0  0  0  0
   -2.4833   -1.3792    0.0000 C   0  0  0  0  0  0  0  0  0  0  0  0
    2.4792    2.9083    0.0000 O   0  0  0  0  0  0  0  0  0  0  0  0
   -2.4833    2.9083    0.0000 O   0  0  0  0  0  0  0  0  0  0  0  0
    3.7375   -0.6542    0.0000 C   0  0  0  0  0  0  0  0  0  0  0  0
   -3.7458   -0.6542    0.0000 C   0  0  0  0  0  0  0  0  0  0  0  0
    3.7375    0.7625    0.0000 C   0  0  0  0  0  0  0  0  0  0  0  0
   -3.7458    0.7625    0.0000 C   0  0  0  0  0  0  0  0  0  0  0  0
  2  1  1  0
  3  1  1  0
  4  6  1  0
  5  2  2  0
  6  3  2  0
  7  1  2  0
  8  2  1  0
  9  3  1  0
 10  4  2  0
 11  5  1  0
 12  6  1  0
 13  8  1  0
 14  9  1  0
 15 17  1  0
 16 18  1  0
 17  8  2  0
 18  9  2  0
  5  4  1  0
 12 16  2  0
 11 15  2  0
M  END
> <chembl_id>
CHEMBL53418

> <chembl_pref_name>
DANTHRON
