
     RDKit          2D

 26 28  0  0  0  0  0  0  0  0999 V2000
    0.3625    0.5833    0.0000 C   0  0  0  0  0  0  0  0  0  0  0  0
   -1.1583    0.5833    0.0000 N   0  0  0  0  0  0  0  0  0  0  0  0
   -1.9208   -0.7417    0.0000 C   0  0  0  0  0  0  0  0  0  0  0  0
    0.3750   -0.1417    0.0000 C   0  0  0  0  0  0  0  0  0  0  0  0
   -0.3958    1.0000    0.0000 C   0  0  0  0  0  0  0  0  0  0  0  0
   -1.1583   -0.2917    0.0000 C   0  0  0  0  0  0  0  0  0  0  0  0
   -1.9208   -1.6167    0.0000 C   0  0  0  0  0  0  0  0  0  0  0  0
   -2.6583   -2.0625    0.0000 C   0  0  0  0  0  0  0  0  0  0  0  0
   -2.6583   -0.2917    0.0000 C   0  0  0  0  0  0  0  0  0  0  0  0
   -1.1583   -2.0625    0.0000 N   0  0  0  0  0  0  0  0  0  0  0  0
    0.7667   -0.7292    0.0000 O   0  0  0  0  0  0  0  0  0  0  0  0
    1.0417    0.2083    0.0000 O   0  0  0  0  0  0  0  0  0  0  0  0
   -3.4208   -1.6167    0.0000 C   0  0  0  0  0  0  0  0  0  0  0  0
   -0.3958   -0.7167    0.0000 C   0  0  0  0  0  0  0  0  0  0  0  0
   -3.4208   -0.7167    0.0000 C   0  0  0  0  0  0  0  0  0  0  0  0
    1.7917   -0.3792    0.0000 C   0  0  0  0  0  0  0  0  0  0  0  0
   -0.3958   -1.6167    0.0000 C   0  0  0  0  0  0  0  0  0  0  0  0
    2.6917   -0.7292    0.0000 C   0  0  0  0  0  0  0  0  0  0  0  0
   -4.1833   -2.1042    0.0000 Cl  0  0  0  0  0  0  0  0  0  0  0  0
    1.1000    1.0208    0.0000 C   0  0  0  0  0  0  0  0  0  0  0  0
    2.6917   -1.5542    0.0000 O   0  0  0  0  0  0  0  0  0  0  0  0
   -0.4083    1.8208    0.0000 C   0  0  0  0  0  0  0  0  0  0  0  0
    4.2417   -0.7042    0.0000 O   0  0  0  0  0  0  0  0  0  0  0  0
    3.5000   -0.3792    0.0000 C   0  0  0  0  0  0  0  0  0  0  0  0
    1.1000    1.9000    0.0000 C   0  0  0  0  0  0  0  0  0  0  0  0
    0.3167    2.3208    0.0000 C   0  0  0  0  0  0  0  0  0  0  0  0
  2  5  1  0
  3  6  2  0
  4  1  1  0
  5  1  2  0
  6  2  1  0
  7  3  1  0
  8  7  1  0
  9  3  1  0
 10 17  1  0
 11  4  1  0
 12  4  2  0
 13 15  1  0
 14  6  1  0
 15  9  2  0
 16 11  1  0
 17 14  2  0
 18 16  1  0
 19 13  1  0
 20  1  1  0
 21 18  1  0
 22  5  1  0
 23 24  1  0
 24 18  1  0
 25 20  2  0
 26 25  1  0
 22 26  2  0
  7 10  2  0
  8 13  2  0
M  END
> <chembl_id>
CHEMBL146095

> <chembl_pref_name>
GLAFENINE
