
     RDKit          2D

 34 36  0  0  0  0  0  0  0  0999 V2000
    5.6167  -10.9125    0.0000 Na  0  0  0  0  0 15  0  0  0  0  0  0
    3.5500   -9.6458    0.0000 N   0  0  0  0  0  0  0  0  0  0  0  0
    3.5500   -8.9375    0.0000 C   0  0  0  0  0  0  0  0  0  0  0  0
    2.8375   -9.6500    0.0000 C   0  0  0  0  0  0  0  0  0  0  0  0
    2.8375   -8.9375    0.0000 C   0  0  0  0  0  0  0  0  0  0  0  0
   -0.8500   -8.9375    0.0000 N   0  0  0  0  0  0  0  0  0  0  0  0
    4.2250   -9.8625    0.0000 C   0  0  0  0  0  0  0  0  0  0  0  0
    4.2208   -8.7167    0.0000 S   0  0  0  0  0  0  0  0  0  0  0  0
   -0.2333   -8.5833    0.0000 C   0  0  0  0  0  0  0  0  0  0  0  0
    4.6417   -9.2875    0.0000 C   0  0  0  0  0  0  0  0  0  0  0  0
    2.2167   -8.5792    0.0000 N   0  0  0  0  0  0  0  0  0  0  0  0
   -1.4208   -8.5167    0.0000 C   0  0  0  0  0  0  0  0  0  0  0  0
    1.6042   -8.9375    0.0000 C   0  0  0  0  0  0  0  0  0  0  0  0
    0.3792   -8.9375    0.0000 N   0  0  0  0  0  0  0  0  0  0  0  0
    0.9917   -8.5833    0.0000 C   0  0  0  0  0  0  0  0  0  0  0  0
    4.2167  -10.5667    0.0000 C   0  0  0  0  0  0  0  0  0  0  0  0
   -1.9958   -8.9375    0.0000 N   0  0  0  0  0  0  0  0  0  0  0  0
    2.3375  -10.1500    0.0000 O   0  0  0  0  0  0  0  0  0  0  0  0
   -0.2333   -7.8750    0.0000 O   0  0  0  0  0  0  0  0  0  0  0  0
   -1.4208   -7.8083    0.0000 O   0  0  0  0  0  0  0  0  0  0  0  0
    1.6042   -9.6458    0.0000 O   0  0  0  0  0  0  0  0  0  0  0  0
    4.8292  -10.9292    0.0000 O   0  0  0  0  0  0  0  0  0  0  0  0
    3.6000  -10.9167    0.0000 O   0  0  0  0  0  0  0  0  0  0  0  0
    0.9917   -7.8750    0.0000 C   0  0  0  0  0  0  0  0  0  0  0  0
   -1.0667   -9.6083    0.0000 C   0  0  0  0  0  0  0  0  0  0  0  0
   -1.7750   -9.6083    0.0000 C   0  0  0  0  0  0  0  0  0  0  0  0
    5.2542   -9.6417    0.0000 C   0  0  0  0  0  0  0  0  0  0  0  0
    5.2542   -8.9292    0.0000 C   0  0  0  0  0  0  0  0  0  0  0  0
    1.6083   -7.5208    0.0000 C   0  0  0  0  0  0  0  0  0  0  0  0
    0.3833   -7.5250    0.0000 C   0  0  0  0  0  0  0  0  0  0  0  0
    0.3792   -6.8167    0.0000 C   0  0  0  0  0  0  0  0  0  0  0  0
    1.6083   -6.8125    0.0000 C   0  0  0  0  0  0  0  0  0  0  0  0
    0.9958   -6.4583    0.0000 C   0  0  0  0  0  0  0  0  0  0  0  0
    3.5417   -8.2292    0.0000 H   0  0  0  0  0  0  0  0  0  0  0  0
  3  2  1  0
  4  2  1  0
  5  3  1  0
  6  9  1  0
  7  2  1  0
  8  3  1  0
  9 14  1  0
 10  7  1  0
  5 11  1  1
 12  6  1  0
 13 11  1  0
 14 15  1  0
 15 13  1  0
  7 16  1  6
 17 12  1  0
 18  4  2  0
 19  9  2  0
 20 12  2  0
 21 13  2  0
 22 16  1  0
 23 16  2  0
 15 24  1  6
 25  6  1  0
 26 25  1  0
 27 10  1  0
 28 10  1  0
 29 24  2  0
 30 24  1  0
 31 30  2  0
 32 29  1  0
 33 31  1  0
  3 34  1  6
  8 10  1  0
  4  5  1  0
 33 32  2  0
 26 17  1  0
M  CHG  2   1   1  22  -1
M  END
> <chembl_id>
CHEMBL1201041

> <chembl_pref_name>
AZLOCILLIN SODIUM
