
     RDKit          2D

 18 19  0  0  0  0  0  0  0  0999 V2000
    3.2750    2.0625    0.0000 O   0  0  0  0  0  0  0  0  0  0  0  0
   -3.7458   -0.6250    0.0000 O   0  0  0  0  0  0  0  0  0  0  0  0
   -3.2000   -1.6042    0.0000 C   0  0  0  0  0  0  0  0  0  0  0  0
    3.0792    0.8250    0.0000 C   0  0  0  0  0  0  0  0  0  0  0  0
   -4.3458   -1.6042    0.0000 C   0  0  0  0  0  0  0  0  0  0  0  0
    4.3417    1.1083    0.0000 C   0  0  0  0  0  0  0  0  0  0  0  0
   -2.1833   -2.2125    0.0000 C   0  0  0  0  0  0  0  0  0  0  0  0
    2.6667    0.0833    0.0000 C   0  0  0  0  0  0  0  0  0  0  0  0
    1.5167    0.0833    0.0000 O   0  0  0  0  0  0  0  0  0  0  0  0
   -1.1583   -1.6292    0.0000 O   0  0  0  0  0  0  0  0  0  0  0  0
    1.5417   -1.4000    0.0000 O   0  0  0  0  0  0  0  0  0  0  0  0
   -1.2458    0.2083    0.0000 O   0  0  0  0  0  0  0  0  0  0  0  0
   -0.1750   -2.2375    0.0000 C   0  0  0  0  0  0  0  0  0  0  0  0
    0.6292    0.8750    0.0000 C   0  0  0  0  0  0  0  0  0  0  0  0
   -0.5208   -0.7292    0.0000 C   0  0  0  0  0  0  0  0  0  0  0  0
    0.6542   -0.7292    0.0000 C   0  0  0  0  0  0  0  0  0  0  0  0
   -0.4083    0.8750    0.0000 C   0  0  0  0  0  0  0  0  0  0  0  0
    0.9667   -2.2375    0.0000 C   0  0  0  0  0  0  0  0  0  0  0  0
  2  3  1  0
  3  7  1  0
  4  1  1  0
  5  3  1  0
  6  1  1  0
  7 10  1  0
  8  4  1  0
  9  8  1  0
 10 13  1  0
 11 16  1  0
 12 17  1  0
 13 18  1  0
 14  9  1  0
 15 12  1  0
 16 15  1  0
 17 14  1  0
 18 11  1  0
  4  6  1  0
  5  2  1  0
M  END
> <chembl_id>
CHEMBL460287

> <chembl_pref_name>
ETOGLUCID
