
     RDKit          2D

 34 38  0  0  0  0  0  0  0  0999 V2000
    7.0090   -2.5863    0.0000 O   0  0  0  0  0  0  0  0  0  0  0  0
    7.8013   -2.8162    0.0000 C   0  0  0  0  0  0  0  0  0  0  0  0
    8.3321   -2.1847    0.0000 N   0  0  0  0  0  0  0  0  0  0  0  0
    9.4260   -3.1042    0.0000 N   0  0  0  0  0  0  0  0  0  0  0  0
    8.8951   -3.7357    0.0000 C   0  0  0  0  0  0  0  0  0  0  0  0
    8.0828   -3.5917    0.0000 C   0  0  0  0  0  0  0  0  0  0  0  0
    9.1445   -2.3287    0.0000 C   0  0  0  0  0  0  0  0  0  0  0  0
    8.2180   -1.3676    0.0000 C   0  0  0  0  0  0  0  0  0  0  0  0
    8.9598   -1.0066    0.0000 C   0  0  0  0  0  0  0  0  0  0  0  0
    9.5324   -1.6006    0.0000 C   0  0  0  0  0  0  0  0  0  0  0  0
   -0.8936   -0.1398    0.0000 C   0  0  0  0  0  0  0  0  0  0  0  0
   -0.9712   -0.9721    0.0000 C   0  0  0  0  0  0  0  0  0  0  0  0
   -0.1486    0.2024    0.0000 C   0  0  0  0  0  0  0  0  0  0  0  0
    0.5284   -0.2905    0.0000 C   0  0  0  0  0  0  0  0  0  0  0  0
    1.2744    0.0617    0.0000 C   0  0  0  0  0  0  0  0  0  0  0  0
    1.3424    0.8839    0.0000 O   0  0  0  0  0  0  0  0  0  0  0  0
    1.9084   -0.4675    0.0000 C   0  0  0  0  0  0  0  0  0  0  0  0
    2.4404    0.1630    0.0000 N   0  0  0  0  0  0  0  0  0  0  0  0
    3.2045   -0.1481    0.0000 C   0  0  0  0  0  0  0  0  0  0  0  0
    3.9053    0.2872    0.0000 C   0  0  0  0  0  0  0  0  0  0  0  0
    3.1447   -0.9709    0.0000 C   0  0  0  0  0  0  0  0  0  0  0  0
    2.3436   -1.1683    0.0000 C   0  0  0  0  0  0  0  0  0  0  0  0
    0.4470   -1.1111    0.0000 C   0  0  0  0  0  0  0  0  0  0  0  0
   -0.3095   -1.4514    0.0000 C   0  0  0  0  0  0  0  0  0  0  0  0
    4.6280   -0.1221    0.0000 C   0  0  0  0  0  0  0  0  0  0  0  0
    4.6308   -0.9508    0.0000 C   0  0  0  0  0  0  0  0  0  0  0  0
    5.3428    0.2981    0.0000 C   0  0  0  0  0  0  0  0  0  0  0  0
    6.0524   -0.1200    0.0000 C   0  0  0  0  0  0  0  0  0  0  0  0
    6.0504   -0.9513    0.0000 C   0  0  0  0  0  0  0  0  0  0  0  0
    6.7622   -1.3684    0.0000 N   0  0  0  0  0  0  0  0  0  0  0  0
    5.3374   -1.3502    0.0000 C   0  0  0  0  0  0  0  0  0  0  0  0
    7.4899   -0.9797    0.0000 C   0  0  0  0  0  0  0  0  0  0  0  0
    7.4999   -0.1548    0.0000 O   0  0  0  0  0  0  0  0  0  0  0  0
    1.2053   -0.8991    0.0000 H   0  0  0  0  0  0  0  0  0  0  0  0
  1  2  2  0
  2  3  1  0
  2  6  1  0
  3  7  1  0
  4  5  1  0
  6  5  2  0
  7  4  2  0
  8  3  1  0
  8  9  1  0
  9 10  1  0
 10  7  1  0
 11 12  1  0
 11 13  2  0
 12 24  2  0
 14 13  1  0
 14 15  1  0
 15 16  1  1
 17 18  1  0
 17 22  1  0
 17 15  1  0
 18 19  1  0
 19 21  1  0
 20 25  1  0
 21 22  1  0
 23 14  2  0
 24 23  1  0
 25 26  2  0
 25 27  1  0
 26 31  1  0
 27 28  2  0
 29 28  1  0
 29 30  1  0
 30 32  1  0
 31 29  2  0
 32 33  2  0
  8 32  1  6
 17 34  1  1
 19 20  1  6
M  END
> <chembl_id>
CHEMBL2107826

> <chembl_pref_name>
VIBEGRON
