
     RDKit          2D

 28 31  0  0  0  0  0  0  0  0999 V2000
    3.2167   -2.2292    0.0000 C   0  0  0  0  0  0  0  0  0  0  0  0
    2.8042   -2.8125    0.0000 N   0  0  0  0  0  0  0  0  0  0  0  0
    2.8125   -1.6542    0.0000 N   0  0  0  0  0  0  0  0  0  0  0  0
    2.7917   -3.5125    0.0000 C   0  0  0  0  0  0  0  0  0  0  0  0
    2.1542   -2.5792    0.0000 C   0  0  0  0  0  0  0  0  0  0  0  0
    2.1500   -1.8542    0.0000 C   0  0  0  0  0  0  0  0  0  0  0  0
    3.3917   -3.8792    0.0000 C   0  0  0  0  0  0  0  0  0  0  0  0
    2.8000   -4.9250    0.0000 N   0  0  0  0  0  0  0  0  0  0  0  0
    3.9375   -2.2417    0.0000 O   0  0  0  0  0  0  0  0  0  0  0  0
    2.1875   -3.8750    0.0000 C   0  0  0  0  0  0  0  0  0  0  0  0
    4.6250   -5.9917    0.0000 C   0  0  0  0  0  0  0  0  0  0  0  0
    5.2375   -5.6292    0.0000 C   0  0  0  0  0  0  0  0  0  0  0  0
    3.3875   -4.5875    0.0000 C   0  0  0  0  0  0  0  0  0  0  0  0
    4.6167   -6.7125    0.0000 O   0  0  0  0  0  0  0  0  0  0  0  0
    2.1917   -4.5917    0.0000 C   0  0  0  0  0  0  0  0  0  0  0  0
    5.8667   -5.9667    0.0000 C   0  0  0  0  0  0  0  0  0  0  0  0
    5.2042   -4.9000    0.0000 C   0  0  0  0  0  0  0  0  0  0  0  0
    6.4667   -4.8750    0.0000 C   0  0  0  0  0  0  0  0  0  0  0  0
    5.8250   -4.5292    0.0000 C   0  0  0  0  0  0  0  0  0  0  0  0
    6.4667   -5.5917    0.0000 C   0  0  0  0  0  0  0  0  0  0  0  0
    7.0792   -4.4875    0.0000 F   0  0  0  0  0  0  0  0  0  0  0  0
    2.7875   -5.6292    0.0000 C   0  0  0  0  0  0  0  0  0  0  0  0
    1.5167   -2.9417    0.0000 C   0  0  0  0  0  0  0  0  0  0  0  0
    1.5250   -1.5125    0.0000 C   0  0  0  0  0  0  0  0  0  0  0  0
    3.3625   -5.9792    0.0000 C   0  0  0  0  0  0  0  0  0  0  0  0
    3.9792   -5.6375    0.0000 C   0  0  0  0  0  0  0  0  0  0  0  0
    0.9042   -2.5542    0.0000 C   0  0  0  0  0  0  0  0  0  0  0  0
    0.9042   -1.8542    0.0000 C   0  0  0  0  0  0  0  0  0  0  0  0
  2  1  1  0
  3  1  1  0
  4  2  1  0
  5  2  1  0
  6  3  1  0
  7  4  2  0
  8 15  1  0
  9  1  2  0
 10  4  1  0
 11 26  1  0
 12 11  1  0
 13  7  1  0
 14 11  2  0
 15 10  1  0
 16 12  1  0
 17 12  2  0
 18 19  2  0
 19 17  1  0
 20 16  2  0
 21 18  1  0
 22  8  1  0
 23  5  1  0
 24  6  1  0
 25 22  1  0
 26 25  1  0
 27 23  2  0
 28 24  2  0
  6  5  2  0
 28 27  1  0
  8 13  1  0
 18 20  1  0
M  END
> <chembl_id>
CHEMBL1108

> <chembl_pref_name>
DROPERIDOL
