
     RDKit          2D

 57  8  0  0  0  0  0  0  0  0999 V2000
   -6.0991   -5.2152    0.0000 S   0  0  0  0  0  0  0  0  0  0  0  0
   -6.0991   -4.3902    0.0000 O   0  0  0  0  0  0  0  0  0  0  0  0
   -5.2741   -5.2152    0.0000 O   0  0  0  0  0  0  0  0  0  0  0  0
   -6.9241   -5.2152    0.0000 O   0  0  0  0  0  0  0  0  0  0  0  0
   -6.0991   -6.0402    0.0000 O   0  0  0  0  0  0  0  0  0  0  0  0
    0.5409   -2.0076    0.0000 O   0  0  0  0  0  0  0  0  0  0  0  0
    2.4413   -1.9345    0.0000 O   0  0  0  0  0  0  0  0  0  0  0  0
    1.1987   -2.7385    0.0000 Mg  0  0  0  0  0 15  0  0  0  0  0  0
   -0.8868   -1.4960    0.0000 O   0  0  0  0  0  0  0  0  0  0  0  0
   -2.9759   -2.0330    0.0000 Al  0  0  0  0  0 15  0  0  0  0  0  0
   -2.9464   -1.1491    0.0000 O   0  0  0  0  0  0  0  0  0  0  0  0
   -5.0384   -2.2982    0.0000 O   0  0  0  0  0  0  0  0  0  0  0  0
   -4.1545   -2.8286    0.0000 O   0  0  0  0  0  0  0  0  0  0  0  0
   -2.7991   -4.0071    0.0000 Al  0  0  0  0  0 15  0  0  0  0  0  0
   -1.2080   -4.0955    0.0000 Al  0  0  0  0  0 15  0  0  0  0  0  0
   -0.1473   -4.2723    0.0000 Al  0  0  0  0  0 15  0  0  0  0  0  0
    1.7384   -4.4786    0.0000 Al  0  0  0  0  0 15  0  0  0  0  0  0
    2.9170   -3.2116    0.0000 Mg  0  0  0  0  0 15  0  0  0  0  0  0
    4.2723   -2.2098    0.0000 Mg  0  0  0  0  0 15  0  0  0  0  0  0
    4.2723   -3.6241    0.0000 Mg  0  0  0  0  0 15  0  0  0  0  0  0
    3.7420   -4.7437    0.0000 Mg  0  0  0  0  0 15  0  0  0  0  0  0
    5.0973   -4.9500    0.0000 Mg  0  0  0  0  0 15  0  0  0  0  0  0
    5.8634   -3.9482    0.0000 Mg  0  0  0  0  0 15  0  0  0  0  0  0
    5.9223   -3.1527    0.0000 Mg  0  0  0  0  0 15  0  0  0  0  0  0
    6.0991   -1.9741    0.0000 Mg  0  0  0  0  0 15  0  0  0  0  0  0
    5.1857   -1.2964    0.0000 Mg  0  0  0  0  0 15  0  0  0  0  0  0
   -5.7161   -3.4179    0.0000 O   0  0  0  0  0  0  0  0  0  0  0  0
   -4.8027   -3.9482    0.0000 O   0  0  0  0  0  0  0  0  0  0  0  0
   -6.6000   -1.7384    0.0000 O   0  0  0  0  0  0  0  0  0  0  0  0
   -5.9812   -0.8250    0.0000 O   0  0  0  0  0  0  0  0  0  0  0  0
   -4.9500   -1.2964    0.0000 O   0  0  0  0  0  0  0  0  0  0  0  0
   -4.8027   -0.4420    0.0000 O   0  0  0  0  0  0  0  0  0  0  0  0
   -4.0366   -0.7661    0.0000 O   0  0  0  0  0  0  0  0  0  0  0  0
   -3.7420    0.2946    0.0000 O   0  0  0  0  0  0  0  0  0  0  0  0
   -2.8875   -0.4714    0.0000 O   0  0  0  0  0  0  0  0  0  0  0  0
   -2.4750    0.3830    0.0000 O   0  0  0  0  0  0  0  0  0  0  0  0
   -1.9741   -0.5304    0.0000 O   0  0  0  0  0  0  0  0  0  0  0  0
   -0.9429    0.1473    0.0000 O   0  0  0  0  0  0  0  0  0  0  0  0
   -1.3259    0.9429    0.0000 O   0  0  0  0  0  0  0  0  0  0  0  0
    0.7661    0.5893    0.0000 O   0  0  0  0  0  0  0  0  0  0  0  0
    0.2652   -0.7071    0.0000 O   0  0  0  0  0  0  0  0  0  0  0  0
   -0.0589    1.0018    0.0000 O   0  0  0  0  0  0  0  0  0  0  0  0
    1.2964    1.5027    0.0000 O   0  0  0  0  0  0  0  0  0  0  0  0
    2.5045    0.6187    0.0000 O   0  0  0  0  0  0  0  0  0  0  0  0
    1.7679   -0.1473    0.0000 O   0  0  0  0  0  0  0  0  0  0  0  0
    2.1509   -1.2375    0.0000 O   0  0  0  0  0  0  0  0  0  0  0  0
    2.9170   -0.8545    0.0000 O   0  0  0  0  0  0  0  0  0  0  0  0
    3.7714    0.1473    0.0000 O   0  0  0  0  0  0  0  0  0  0  0  0
    3.5946    1.2375    0.0000 O   0  0  0  0  0  0  0  0  0  0  0  0
    2.4750    1.8857    0.0000 O   0  0  0  0  0  0  0  0  0  0  0  0
    3.9188    2.1804    0.0000 O   0  0  0  0  0  0  0  0  0  0  0  0
    5.0384    1.2964    0.0000 O   0  0  0  0  0  0  0  0  0  0  0  0
   -8.0438   -3.5946    0.0000 S   0  0  0  0  0  0  0  0  0  0  0  0
   -8.0438   -2.7696    0.0000 O   0  0  0  0  0  0  0  0  0  0  0  0
   -7.2188   -3.5946    0.0000 O   0  0  0  0  0  0  0  0  0  0  0  0
   -8.8688   -3.5946    0.0000 O   0  0  0  0  0  0  0  0  0  0  0  0
   -8.0438   -4.4196    0.0000 O   0  0  0  0  0  0  0  0  0  0  0  0
  1  2  2  0
  1  3  1  0
  1  4  2  0
  1  5  1  0
 53 54  2  0
 53 55  1  0
 53 56  2  0
 53 57  1  0
M  CHG  8   3  -1   5  -1   6  -1   7  -1   8   2  10   3  11  -1  12  -1
M  CHG  8  13  -1  14   3  15   3  16   3  17   3  18   2  19   2  20   2
M  CHG  8  21   2  22   2  23   2  24   2  25   2  26   2  27  -1  28  -1
M  CHG  8  29  -1  30  -1  31  -1  32  -1  33  -1  34  -1  35  -1  36  -1
M  CHG  8  37  -1  38  -1  39  -1  40  -1  41  -1  42  -1  43  -1  44  -1
M  CHG  8  45  -1  46  -1  47  -1  48  -1  49  -1  50  -1  51  -1  52  -1
M  CHG  2  55  -1  57  -1
M  END
> <chembl_id>
CHEMBL3833350

> <chembl_pref_name>
MAGALDRATE
