
     RDKit          2D

 12 12  0  0  0  0  0  0  0  0999 V2000
    0.8949   -0.5095    0.0000 C   0  0  0  0  0  0  0  0  0  0  0  0
    1.6094   -0.9220    0.0000 O   0  0  0  0  0  0  0  0  0  0  0  0
    0.1804   -0.9220    0.0000 C   0  0  0  0  0  0  0  0  0  0  0  0
    0.1804   -1.7470    0.0000 N   0  0  0  0  0  0  0  0  0  0  0  0
   -0.5340   -0.5095    0.0000 C   0  0  0  0  0  0  0  0  0  0  0  0
   -1.2485   -0.9220    0.0000 O   0  0  0  0  0  0  0  0  0  0  0  0
   -0.5340    0.3155    0.0000 C   0  0  0  0  0  0  0  0  0  0  0  0
   -1.2485    0.7280    0.0000 O   0  0  0  0  0  0  0  0  0  0  0  0
    0.1804    0.7280    0.0000 C   0  0  0  0  0  0  0  0  0  0  0  0
    0.8949    0.3155    0.0000 O   0  0  0  0  0  0  0  0  0  0  0  0
    0.1804    1.5530    0.0000 C   0  0  0  0  0  0  0  0  0  0  0  0
   -0.5340    1.9655    0.0000 O   0  0  0  0  0  0  0  0  0  0  0  0
  1  2  1  0
  1  3  1  0
  1 10  1  0
  3  4  1  6
  3  5  1  0
  5  6  1  1
  5  7  1  0
  7  8  1  6
  7  9  1  0
  9 10  1  0
  9 11  1  1
 11 12  1  0
M  END
> <chembl_id>
CHEMBL493287

> <chembl_pref_name>
GLUCOSAMINE
