
     RDKit          2D

 37 40  0  0  0  0  0  0  0  0999 V2000
   -1.0083   -1.1750    0.0000 C   0  0  0  0  0  0  0  0  0  0  0  0
    5.7167    1.3083    0.0000 C   0  0  0  0  0  0  0  0  0  0  0  0
    6.3500    0.9583    0.0000 C   0  0  0  0  0  0  0  0  0  0  0  0
    0.8250   -0.1042    0.0000 N   0  0  0  0  0  0  0  0  0  0  0  0
    5.1250    0.9583    0.0000 C   0  0  0  0  0  0  0  0  0  0  0  0
   -0.4000   -0.8167    0.0000 C   0  0  0  0  0  0  0  0  0  0  0  0
    3.9042    0.2583    0.0000 C   0  0  0  0  0  0  0  0  0  0  0  0
    6.3500    0.2583    0.0000 O   0  0  0  0  0  0  0  0  0  0  0  0
   -1.6250   -0.8167    0.0000 C   0  0  0  0  0  0  0  0  0  0  0  0
   -1.0083   -1.8792    0.0000 C   0  0  0  0  0  0  0  0  0  0  0  0
    5.1250    0.2583    0.0000 C   0  0  0  0  0  0  0  0  0  0  0  0
    4.5167    1.3208    0.0000 C   0  0  0  0  0  0  0  0  0  0  0  0
    4.5167   -0.1042    0.0000 C   0  0  0  0  0  0  0  0  0  0  0  0
    3.9042    0.9583    0.0000 C   0  0  0  0  0  0  0  0  0  0  0  0
   -0.4000   -0.1042    0.0000 C   0  0  0  0  0  0  0  0  0  0  0  0
    0.2125   -1.1667    0.0000 C   0  0  0  0  0  0  0  0  0  0  0  0
    0.2000    0.2458    0.0000 C   0  0  0  0  0  0  0  0  0  0  0  0
    0.8250   -0.8167    0.0000 C   0  0  0  0  0  0  0  0  0  0  0  0
   -1.6208   -1.5542    0.0000 O   0  0  0  0  0  0  0  0  0  0  0  0
    3.2792   -0.0875    0.0000 C   0  0  0  0  0  0  0  0  0  0  0  0
    6.9500    1.3208    0.0000 O   0  0  0  0  0  0  0  0  0  0  0  0
    1.4542    0.2708    0.0000 C   0  0  0  0  0  0  0  0  0  0  0  0
    3.2792   -0.7792    0.0000 O   0  0  0  0  0  0  0  0  0  0  0  0
    5.3625    1.9208    0.0000 C   0  0  0  0  0  0  0  0  0  0  0  0
    6.0667    1.9208    0.0000 C   0  0  0  0  0  0  0  0  0  0  0  0
    2.0667   -0.0875    0.0000 C   0  0  0  0  0  0  0  0  0  0  0  0
    2.6792    0.2708    0.0000 C   0  0  0  0  0  0  0  0  0  0  0  0
   -1.6250   -0.1042    0.0000 C   0  0  0  0  0  0  0  0  0  0  0  0
   -2.2500   -1.1750    0.0000 C   0  0  0  0  0  0  0  0  0  0  0  0
   -1.6333   -2.2417    0.0000 C   0  0  0  0  0  0  0  0  0  0  0  0
   -0.4000   -2.2417    0.0000 C   0  0  0  0  0  0  0  0  0  0  0  0
   -1.6333   -2.9750    0.0000 C   0  0  0  0  0  0  0  0  0  0  0  0
   -0.4000   -2.9750    0.0000 C   0  0  0  0  0  0  0  0  0  0  0  0
   -2.2375    0.2583    0.0000 C   0  0  0  0  0  0  0  0  0  0  0  0
   -2.8583   -0.8125    0.0000 C   0  0  0  0  0  0  0  0  0  0  0  0
   -1.0083   -3.3250    0.0000 C   0  0  0  0  0  0  0  0  0  0  0  0
   -2.8583   -0.0917    0.0000 C   0  0  0  0  0  0  0  0  0  0  0  0
  2  5  1  0
  3  2  1  0
  4 18  1  0
  5 12  1  0
  6  1  1  0
  7 20  1  0
  8  3  2  0
  9  1  1  0
 10  1  1  0
 11 13  1  0
 12 14  2  0
 13  7  2  0
 14  7  1  0
 15  6  1  0
 16  6  1  0
 17 15  1  0
 18 16  1  0
 19  1  1  0
 20 27  1  0
 21  3  1  0
 22  4  1  0
 23 20  1  0
 24  2  1  0
 25  2  1  0
 26 22  1  0
 27 26  1  0
 28  9  2  0
 29  9  1  0
 30 10  2  0
 31 10  1  0
 32 30  1  0
 33 31  2  0
 34 28  1  0
 35 29  2  0
 36 33  1  0
 37 34  2  0
 17  4  1  0
 32 36  2  0
 35 37  1  0
 11  5  2  0
M  END
> <chembl_id>
CHEMBL914

> <chembl_pref_name>
FEXOFENADINE
