
     RDKit          2D

 35 36  0  0  0  0  0  0  0  0999 V2000
    0.0000   -4.1673    0.0000 Na  0  0  0  0  0 15  0  0  0  0  0  0
   -0.1229   -0.0423    0.0000 C   0  0  0  0  0  0  0  0  0  0  0  0
    0.5915    1.1952    0.0000 C   0  0  0  0  0  0  0  0  0  0  0  0
   -0.1229    0.7827    0.0000 C   0  0  0  0  0  0  0  0  0  0  0  0
   -0.8374   -0.4548    0.0000 C   0  0  0  0  0  0  0  0  0  0  0  0
    0.5915   -0.4548    0.0000 C   0  0  0  0  0  0  0  0  0  0  0  0
    1.3060    0.7827    0.0000 C   0  0  0  0  0  0  0  0  0  0  0  0
    0.5915   -1.2798    0.0000 C   0  0  0  0  0  0  0  0  0  0  0  0
   -0.8374   -1.2798    0.0000 C   0  0  0  0  0  0  0  0  0  0  0  0
    2.0205    1.1952    0.0000 O   0  0  0  0  0  0  0  0  0  0  0  0
    0.5915    2.0202    0.0000 C   0  0  0  0  0  0  0  0  0  0  0  0
   -0.1229   -1.6923    0.0000 O   0  0  0  0  0  0  0  0  0  0  0  0
   -0.8374    1.1952    0.0000 C   0  0  0  0  0  0  0  0  0  0  0  0
   -0.1229    2.4327    0.0000 C   0  0  0  0  0  0  0  0  0  0  0  0
   -0.8374    2.0202    0.0000 C   0  0  0  0  0  0  0  0  0  0  0  0
   -1.5519   -1.6923    0.0000 C   0  0  0  0  0  0  0  0  0  0  0  0
    1.3060   -1.6923    0.0000 C   0  0  0  0  0  0  0  0  0  0  0  0
    2.0205   -1.2798    0.0000 C   0  0  0  0  0  0  0  0  0  0  0  0
   -2.2664   -1.2798    0.0000 C   0  0  0  0  0  0  0  0  0  0  0  0
   -1.5519   -0.0423    0.0000 C   0  0  0  0  0  0  0  0  0  0  0  0
    1.3060   -0.0423    0.0000 C   0  0  0  0  0  0  0  0  0  0  0  0
   -2.2664   -0.4548    0.0000 C   0  0  0  0  0  0  0  0  0  0  0  0
    2.0205   -0.4548    0.0000 C   0  0  0  0  0  0  0  0  0  0  0  0
    1.7909    0.1153    0.0000 O   0  0  0  0  0  0  0  0  0  0  0  0
    2.7349   -0.0423    0.0000 I   0  0  0  0  0  0  0  0  0  0  0  0
   -2.9808   -0.0423    0.0000 I   0  0  0  0  0  0  0  0  0  0  0  0
    2.7349   -1.6923    0.0000 O   0  0  0  0  0  0  0  0  0  0  0  0
   -2.9808   -1.6923    0.0000 O   0  0  0  0  0  0  0  0  0  0  0  0
    1.3060    2.4327    0.0000 Cl  0  0  0  0  0  0  0  0  0  0  0  0
   -1.5519    0.7827    0.0000 Cl  0  0  0  0  0  0  0  0  0  0  0  0
   -0.1229    3.2577    0.0000 Cl  0  0  0  0  0  0  0  0  0  0  0  0
   -1.5519    2.4327    0.0000 Cl  0  0  0  0  0  0  0  0  0  0  0  0
   -1.5519   -2.5173    0.0000 I   0  0  0  0  0  0  0  0  0  0  0  0
    1.3060   -2.5173    0.0000 I   0  0  0  0  0  0  0  0  0  0  0  0
    4.9742    0.0000    0.0000 Na  0  0  0  0  0 15  0  0  0  0  0  0
  3  4  2  0
  4  2  1  0
  5  2  2  0
  6  2  1  0
  7 10  1  0
  8  6  1  0
  9  5  1  0
 11  3  1  0
 12  8  1  0
 13  4  1  0
 14 15  1  0
 15 13  2  0
 16  9  2  0
 17  8  2  0
 18 23  2  0
 19 22  1  0
 20  5  1  0
 21  6  2  0
 22 20  2  0
 23 21  1  0
 24  7  2  0
 25 23  1  0
 26 22  1  0
 27 18  1  0
 28 19  2  0
 29 11  1  0
 30 13  1  0
 31 14  1  0
 32 15  1  0
 33 16  1  0
 34 17  1  0
  7  3  1  0
 12  9  1  0
 17 18  1  0
 19 16  1  0
 14 11  2  0
M  CHG  4   1   1  10  -1  27  -1  35   1
M  ISO  2  25 131  26 131
M  END
> <chembl_id>
CHEMBL3989461

> <chembl_pref_name>
ROSE BENGAL SODIUM I 131
