
     RDKit          2D

 60 68  0  0  0  0  0  0  0  0999 V2000
    6.7670   -6.9860    0.0000 C   0  0  0  0  0  0  0  0  0  0  0  0
   10.7869   -7.1156    0.0000 C   0  0  0  0  0  0  0  0  0  0  0  0
    8.7916   -3.9449    0.0000 C   0  0  0  0  0  0  0  0  0  0  0  0
    8.0806   -3.5308    0.0000 C   0  0  0  0  0  0  0  0  0  0  0  0
   12.5103   -8.0861    0.0000 O   0  0  0  0  0  0  0  0  0  0  0  0
   10.3644   -4.2921    0.0000 C   0  0  0  0  0  0  0  0  0  0  0  0
    8.0806   -5.1788    0.0000 C   0  0  0  0  0  0  0  0  0  0  0  0
    7.3651   -4.7691    0.0000 C   0  0  0  0  0  0  0  0  0  0  0  0
    7.4155   -8.0861    0.0000 O   0  0  0  0  0  0  0  0  0  0  0  0
   10.0633   -5.0534    0.0000 N   0  0  0  0  0  0  0  0  0  0  0  0
   10.3393   -7.8099    0.0000 N   0  0  0  0  0  0  0  0  0  0  0  0
   12.7236   -6.0909    0.0000 O   0  0  0  0  0  0  0  0  0  0  0  0
   11.1759   -4.1666    0.0000 C   0  0  0  0  0  0  0  0  0  0  0  0
    4.7341   -4.0788    0.0000 C   0  0  0  0  0  0  0  0  0  0  0  0
    8.0806   -6.8228    0.0000 C   0  0  0  0  0  0  0  0  0  0  0  0
    8.1056   -7.6469    0.0000 C   0  0  0  0  0  0  0  0  0  0  0  0
    4.5710   -5.5051    0.0000 C   0  0  0  0  0  0  0  0  0  0  0  0
    5.8803   -6.2539    0.0000 N   0  0  0  0  0  0  0  0  0  0  0  0
   10.2765   -6.4672    0.0000 C   0  0  0  0  0  0  0  0  0  0  0  0
   10.6237   -8.5755    0.0000 C   0  0  0  0  0  0  0  0  0  0  0  0
    8.7916   -5.5804    0.0000 H   0  0  0  0  0  0  0  0  0  0  0  0
   12.9370   -7.5088    0.0000 O   0  0  0  0  0  0  0  0  0  0  0  0
   12.1756   -5.3546    0.0000 C   0  0  0  0  0  0  0  0  0  0  0  0
   13.2339   -6.7391    0.0000 C   0  0  0  0  0  0  0  0  0  0  0  0
    7.3651   -3.9449    0.0000 N   0  0  0  0  0  0  0  0  0  0  0  0
    8.7916   -4.7691    0.0000 C   0  0  0  0  0  0  0  0  0  0  0  0
   11.1508   -6.2790    0.0000 H   0  0  0  0  0  0  0  0  0  0  0  0
    7.3651   -6.4171    0.0000 C   0  0  0  0  0  0  0  0  0  0  0  0
    4.2447   -4.7565    0.0000 C   0  0  0  0  0  0  0  0  0  0  0  0
    8.0806   -6.0029    0.0000 C   0  0  0  0  0  0  0  0  0  0  0  0
    6.6666   -6.0029    0.0000 C   0  0  0  0  0  0  0  0  0  0  0  0
   12.6483   -8.9101    0.0000 C   0  0  0  0  0  0  0  0  0  0  0  0
    5.3950   -5.5930    0.0000 C   0  0  0  0  0  0  0  0  0  0  0  0
    7.4405   -8.9101    0.0000 C   0  0  0  0  0  0  0  0  0  0  0  0
    5.9806   -6.7601    0.0000 O   0  0  0  0  0  0  0  0  0  0  0  0
    5.8803   -4.9153    0.0000 C   0  0  0  0  0  0  0  0  0  0  0  0
   11.6863   -4.8192    0.0000 C   0  0  0  0  0  0  0  0  0  0  0  0
   12.3848   -4.5557    0.0000 C   0  0  0  0  0  0  0  0  0  0  0  0
    6.6666   -5.1788    0.0000 C   0  0  0  0  0  0  0  0  0  0  0  0
    6.9804   -7.7849    0.0000 O   0  0  0  0  0  0  0  0  0  0  0  0
    9.5529   -7.5841    0.0000 C   0  0  0  0  0  0  0  0  0  0  0  0
   11.2763   -7.6385    0.0000 H   0  0  0  0  0  0  0  0  0  0  0  0
    5.3950   -7.3373    0.0000 C   0  0  0  0  0  0  0  0  0  0  0  0
   11.3893   -5.5804    0.0000 C   0  0  0  0  0  0  0  0  0  0  0  0
    9.5112   -2.7039    0.0000 C   0  0  0  0  0  0  0  0  0  0  0  0
    5.5330   -4.1666    0.0000 C   0  0  0  0  0  0  0  0  0  0  0  0
   10.5777   -5.6935    0.0000 C   0  0  0  0  0  0  0  0  0  0  0  0
    9.3019   -5.4047    0.0000 C   0  0  0  0  0  0  0  0  0  0  0  0
    9.5097   -3.5321    0.0000 C   0  0  0  0  0  0  0  0  0  0  0  0
    8.8418   -8.0358    0.0000 C   0  0  0  0  0  0  0  0  0  0  0  0
   11.5984   -6.9902    0.0000 C   0  0  0  0  0  0  0  0  0  0  0  0
   14.0455   -6.6095    0.0000 C   0  0  0  0  0  0  0  0  0  0  0  0
    8.7665   -6.3794    0.0000 C   0  0  0  0  0  0  0  0  0  0  0  0
    9.5027   -6.7601    0.0000 C   0  0  0  0  0  0  0  0  0  0  0  0
   11.8995   -6.2163    0.0000 C   0  0  0  0  0  0  0  0  0  0  0  0
    9.4525   -6.2163    0.0000 C   0  0  0  0  0  0  0  0  0  0  0  0
   11.7364   -7.8016    0.0000 C   0  0  0  0  0  0  0  0  0  0  0  0
    5.9430   -3.9449    0.0000 C   0  0  0  0  0  0  0  0  0  0  0  0
   12.4099   -6.8479    0.0000 O   0  0  0  0  0  0  0  0  0  0  0  0
   11.1020   -8.3290    0.0000 O   0  0  0  0  0  0  0  0  0  0  0  0
 43 35  1  0
 51 59  1  1
 11 41  1  0
 10 47  1  0
  4 25  1  0
  7 30  1  0
 22 24  2  0
  6 10  1  0
 18 31  1  0
 24 12  1  0
 55 51  1  0
  7 21  1  6
 38 23  1  0
 33 36  1  0
 47 19  1  0
 48 56  1  0
 35  1  1  0
 17 33  2  0
 29 14  2  0
 19 56  1  1
 20 11  1  0
  8  7  1  0
 51  2  1  0
  3 49  1  0
 44 47  1  0
 37 44  1  0
 54 53  2  0
 40  1  2  0
 57 51  1  0
 49 45  1  0
 26  7  1  0
 36 39  1  0
 55 44  1  0
 19 54  1  0
 39 31  2  0
 13 37  2  0
  2 11  1  0
  2 19  1  0
 48 10  1  0
 25  8  1  0
 46 36  2  0
 41 54  1  0
  2 42  1  1
 29 17  1  0
 44 23  1  6
 28  1  1  1
 14 46  1  0
  5 57  1  0
 32  5  1  0
 53 15  1  0
  3 26  2  0
 47 27  1  6
 13  6  1  0
 15 28  1  0
 55 12  1  1
 33 18  1  0
  4  3  1  0
 50 16  1  0
 58 39  1  0
 34  9  1  0
 41 50  2  0
 16 15  2  0
  9 16  1  0
 30 28  1  0
 52 24  1  0
 31 28  1  0
 58 25  1  0
 57 60  2  0
M  END
> <chembl_id>
CHEMBL553025

> <chembl_pref_name>
VINORELBINE
