
     RDKit          2D

 25 26  0  0  0  0  0  0  0  0999 V2000
    5.3792   -5.7167    0.0000 C   0  0  0  0  0  0  0  0  0  0  0  0
    4.1667   -5.7167    0.0000 C   0  0  0  0  0  0  0  0  0  0  0  0
    4.7875   -5.3875    0.0000 C   0  0  0  0  0  0  0  0  0  0  0  0
    5.3792   -6.4167    0.0000 C   0  0  0  0  0  0  0  0  0  0  0  0
    4.1667   -6.4167    0.0000 C   0  0  0  0  0  0  0  0  0  0  0  0
    4.7792   -6.7750    0.0000 N   0  0  0  0  0  0  0  0  0  0  0  0
    4.7875   -4.2917    0.0000 C   0  0  0  0  0  0  0  0  0  0  0  0
    3.5625   -5.3667    0.0000 C   0  0  0  0  0  0  0  0  0  0  0  0
    6.0042   -5.3667    0.0000 C   0  0  0  0  0  0  0  0  0  0  0  0
    5.3792   -3.9542    0.0000 C   0  0  0  0  0  0  0  0  0  0  0  0
    5.3792   -3.2417    0.0000 C   0  0  0  0  0  0  0  0  0  0  0  0
    6.0042   -4.7042    0.0000 O   0  0  0  0  0  0  0  0  0  0  0  0
    3.5542   -4.7042    0.0000 O   0  0  0  0  0  0  0  0  0  0  0  0
    5.9417   -4.2542    0.0000 Cl  0  0  0  0  0  0  0  0  0  0  0  0
    2.9667   -5.7125    0.0000 O   0  0  0  0  0  0  0  0  0  0  0  0
    6.6042   -5.7042    0.0000 O   0  0  0  0  0  0  0  0  0  0  0  0
    4.1667   -3.9542    0.0000 C   0  0  0  0  0  0  0  0  0  0  0  0
    6.0042   -6.7750    0.0000 C   0  0  0  0  0  0  0  0  0  0  0  0
    3.5625   -6.7750    0.0000 C   0  0  0  0  0  0  0  0  0  0  0  0
    5.9667   -2.8875    0.0000 Cl  0  0  0  0  0  0  0  0  0  0  0  0
    4.1667   -3.2417    0.0000 C   0  0  0  0  0  0  0  0  0  0  0  0
    4.7875   -2.8792    0.0000 C   0  0  0  0  0  0  0  0  0  0  0  0
    7.2042   -5.3417    0.0000 C   0  0  0  0  0  0  0  0  0  0  0  0
    2.3542   -5.3375    0.0000 C   0  0  0  0  0  0  0  0  0  0  0  0
    7.7875   -5.7000    0.0000 C   0  0  0  0  0  0  0  0  0  0  0  0
  2  3  1  0
  3  1  1  0
  4  1  2  0
  5  6  1  0
  6  4  1  0
  7  3  1  0
  8  2  1  0
  9  1  1  0
 10  7  1  0
 11 10  2  0
 12  9  2  0
 13  8  2  0
 14 10  1  0
 15  8  1  0
 16  9  1  0
 17  7  2  0
 18  4  1  0
 19  5  1  0
 20 11  1  0
 21 17  1  0
 22 21  2  0
 23 16  1  0
 24 15  1  0
 25 23  1  0
  5  2  2  0
 22 11  1  0
M  END
> <chembl_id>
CHEMBL1480

> <chembl_pref_name>
FELODIPINE
