
     RDKit          2D

 29 28  0  0  0  0  0  0  0  0999 V2000
   72.6600   -6.7936    0.0000 C   0  0  0  0  0  0  0  0  0  0  0  0
   72.4712   -6.0093    0.0000 C   0  0  0  0  0  0  0  0  0  0  0  0
   72.0742   -7.3745    0.0000 C   0  0  0  0  0  0  0  0  0  0  0  0
   71.2804   -7.1276    0.0000 O   0  0  0  0  0  0  0  0  0  0  0  0
   71.6870   -5.7624    0.0000 C   0  0  0  0  0  0  0  0  0  0  0  0
   73.4588   -7.0356    0.0000 N   0  0  0  0  0  0  0  0  0  0  0  0
   71.0867   -6.3434    0.0000 C   0  0  0  0  0  0  0  0  0  0  0  0
   73.0763   -5.4429    0.0000 O   0  0  0  0  0  0  0  0  0  0  0  0
   71.4982   -4.9637    0.0000 O   0  0  0  0  0  0  0  0  0  0  0  0
   72.2534   -8.1733    0.0000 O   0  0  0  0  0  0  0  0  0  0  0  0
   70.2928   -6.1061    0.0000 C   0  0  0  0  0  0  0  0  0  0  0  0
   69.6974   -6.6629    0.0000 O   0  0  0  0  0  0  0  0  0  0  0  0
   64.1391   -6.9133    0.0000 C   0  0  0  0  0  0  0  0  0  0  0  0
   63.9503   -6.1290    0.0000 C   0  0  0  0  0  0  0  0  0  0  0  0
   63.5533   -7.4942    0.0000 C   0  0  0  0  0  0  0  0  0  0  0  0
   62.7595   -7.2473    0.0000 O   0  0  0  0  0  0  0  0  0  0  0  0
   63.1661   -5.8821    0.0000 C   0  0  0  0  0  0  0  0  0  0  0  0
   64.9379   -7.1553    0.0000 N   0  0  0  0  0  0  0  0  0  0  0  0
   62.5658   -6.4631    0.0000 C   0  0  0  0  0  0  0  0  0  0  0  0
   64.5554   -5.5626    0.0000 O   0  0  0  0  0  0  0  0  0  0  0  0
   62.9773   -5.0834    0.0000 O   0  0  0  0  0  0  0  0  0  0  0  0
   63.7325   -8.2930    0.0000 O   0  0  0  0  0  0  0  0  0  0  0  0
   61.7719   -6.2258    0.0000 C   0  0  0  0  0  0  0  0  0  0  0  0
   61.1765   -6.7826    0.0000 O   0  0  0  0  0  0  0  0  0  0  0  0
   67.8465   -6.4829    0.0000 S   0  0  0  0  0  0  0  0  0  0  0  0
   67.2632   -5.8996    0.0000 O   0  0  0  0  0  0  0  0  0  0  0  0
   68.4299   -5.8996    0.0000 O   0  0  0  0  0  0  0  0  0  0  0  0
   67.2632   -7.0663    0.0000 O   0  0  0  0  0  0  0  0  0  0  0  0
   68.4299   -7.0663    0.0000 O   0  0  0  0  0  0  0  0  0  0  0  0
  2  1  1  0
  3  1  1  0
  4  3  1  0
  5  2  1  0
  1  6  1  1
  7  4  1  0
  2  8  1  6
  5  9  1  1
  3 10  1  0
  7 11  1  6
 12 11  1  0
  5  7  1  0
 14 13  1  0
 15 13  1  0
 16 15  1  0
 17 14  1  0
 13 18  1  1
 19 16  1  0
 14 20  1  6
 17 21  1  1
 15 22  1  0
 19 23  1  6
 24 23  1  0
 17 19  1  0
 25 26  2  0
 25 27  1  0
 25 28  1  0
 25 29  2  0
M  END
> <chembl_id>
CHEMBL3989750

> <chembl_pref_name>
GLUCOSAMINE SULFATE
