
     RDKit          2D

 32 33  0  0  0  0  0  0  0  0999 V2000
   13.5268   -5.6518    0.0000 O   0  0  0  0  0  0  0  0  0  0  0  0
   18.2774   -5.3958    0.0000 C   0  0  0  0  0  0  0  0  0  0  0  0
   19.0743   -5.1823    0.0000 C   0  0  0  0  0  0  0  0  0  0  0  0
   19.6577   -5.7655    0.0000 C   0  0  0  0  0  0  0  0  0  0  0  0
   19.4441   -6.5625    0.0000 C   0  0  0  0  0  0  0  0  0  0  0  0
   18.6473   -6.7760    0.0000 C   0  0  0  0  0  0  0  0  0  0  0  0
   18.0639   -6.1926    0.0000 C   0  0  0  0  0  0  0  0  0  0  0  0
   17.6941   -4.8124    0.0000 C   0  0  0  0  0  0  0  0  0  0  0  0
   17.2670   -6.4061    0.0000 C   0  0  0  0  0  0  0  0  0  0  0  0
   16.5257   -5.4043    0.0000 C   0  0  0  0  0  0  0  0  0  0  0  0
   20.0275   -7.1459    0.0000 O   0  0  0  0  0  0  0  0  0  0  0  0
   16.5257   -4.5793    0.0000 C   0  0  0  0  0  0  0  0  0  0  0  0
   15.8112   -4.1668    0.0000 C   0  0  0  0  0  0  0  0  0  0  0  0
   15.8112   -3.3418    0.0000 C   0  0  0  0  0  0  0  0  0  0  0  0
   16.5257   -2.9293    0.0000 C   0  0  0  0  0  0  0  0  0  0  0  0
   17.2402   -3.3418    0.0000 C   0  0  0  0  0  0  0  0  0  0  0  0
   17.2402   -4.1668    0.0000 C   0  0  0  0  0  0  0  0  0  0  0  0
   15.0266   -4.4218    0.0000 C   0  0  0  0  0  0  0  0  0  0  0  0
   14.5417   -3.7543    0.0000 C   0  0  0  0  0  0  0  0  0  0  0  0
   15.0266   -3.0869    0.0000 C   0  0  0  0  0  0  0  0  0  0  0  0
   15.7250   -2.5213    0.0000 C   0  0  0  0  0  0  0  0  0  0  0  0
   15.7250   -4.9873    0.0000 H   0  0  0  0  0  0  0  0  0  0  0  0
   14.7717   -2.3023    0.0000 C   0  0  0  0  0  0  0  0  0  0  0  0
   13.9647   -2.1307    0.0000 C   0  0  0  0  0  0  0  0  0  0  0  0
   15.3237   -1.6892    0.0000 C   0  0  0  0  0  0  0  0  0  0  0  0
   15.0688   -0.9045    0.0000 C   0  0  0  0  0  0  0  0  0  0  0  0
   15.6208   -0.2915    0.0000 C   0  0  0  0  0  0  0  0  0  0  0  0
   16.4278   -0.4630    0.0000 C   0  0  0  0  0  0  0  0  0  0  0  0
   16.5993    0.3440    0.0000 O   0  0  0  0  0  0  0  0  0  0  0  0
   17.2347   -0.6345    0.0000 C   0  0  0  0  0  0  0  0  0  0  0  0
   16.2562   -1.2700    0.0000 C   0  0  0  0  0  0  0  0  0  0  0  0
   14.2118   -2.9578    0.0000 H   0  0  0  0  0  0  0  0  0  0  0  0
  2  3  1  0
  3  4  1  0
  4  5  1  0
  5  6  1  0
  6  7  1  0
  7  2  1  0
  2  8  2  0
  7  9  2  0
  9 10  1  0
  5 11  1  6
 10 12  2  0
 12 13  1  0
 17 12  1  0
 14 15  1  0
 15 16  1  0
 16 17  1  0
 13 18  1  0
 14 13  1  0
 14 20  1  0
 18 19  1  0
 19 20  1  0
 14 21  1  6
 13 22  1  1
 20 23  1  0
 23 24  1  6
 23 25  1  0
 25 26  1  0
 26 27  1  0
 27 28  1  0
 28 29  1  0
 28 30  1  0
 28 31  1  0
 20 32  1  1
M  END
> <chembl_id>
CHEMBL3544909

> <chembl_pref_name>
CALCIFEDIOL
