
     RDKit          2D

 36 40  0  0  1  0  0  0  0  0999 V2000
    5.7000   -1.6750    0.0000 C   0  0  0  0  0  0  0  0  0  0  0  0
    6.3125   -2.0292    0.0000 C   0  0  0  0  0  0  0  0  0  0  0  0
    6.3125   -1.3167    0.0000 C   0  0  0  0  0  0  0  0  0  0  0  0
    5.4792   -2.3500    0.0000 O   0  0  0  0  0  0  0  0  0  0  0  0
    6.3042   -0.6042    0.0000 N   0  0  0  0  0  0  0  0  0  0  0  0
    6.6542    0.4833    0.0000 N   0  0  0  0  0  0  0  0  0  0  0  0
    5.1250   -1.2542    0.0000 O   0  0  0  0  0  0  0  0  0  0  0  0
    1.0792   -3.7250    0.0000 N   0  0  0  0  0  0  0  0  0  0  0  0
    6.3042   -2.7292    0.0000 C   0  0  0  0  0  0  0  0  0  0  0  0
    5.7292   -0.1875    0.0000 N   0  0  0  0  0  0  0  0  0  0  0  0
   -0.1583   -4.4167    0.0000 N   0  0  0  0  0  0  0  0  0  0  0  0
    5.9500    0.4833    0.0000 C   0  0  0  0  0  0  0  0  0  0  0  0
    6.8750   -0.1875    0.0000 C   0  0  0  0  0  0  0  0  0  0  0  0
    6.9167   -1.6750    0.0000 C   0  0  0  0  0  0  0  0  0  0  0  0
    6.9167   -3.0792    0.0000 C   0  0  0  0  0  0  0  0  0  0  0  0
    1.6917   -3.3792    0.0000 C   0  0  0  0  0  0  0  0  0  0  0  0
    4.7750   -2.3500    0.0000 C   0  0  0  0  0  0  0  0  0  0  0  0
    0.4667   -3.3625    0.0000 C   0  0  0  0  0  0  0  0  0  0  0  0
    1.0750   -4.4292    0.0000 C   0  0  0  0  0  0  0  0  0  0  0  0
    0.4542   -4.7792    0.0000 C   0  0  0  0  0  0  0  0  0  0  0  0
   -0.1458   -3.7042    0.0000 C   0  0  0  0  0  0  0  0  0  0  0  0
    4.5542   -1.6750    0.0000 C   0  0  0  0  0  0  0  0  0  0  0  0
    1.7042   -2.6667    0.0000 C   0  0  0  0  0  0  0  0  0  0  0  0
    2.3042   -3.7375    0.0000 C   0  0  0  0  0  0  0  0  0  0  0  0
    7.5292   -2.7292    0.0000 C   0  0  0  0  0  0  0  0  0  0  0  0
   -0.7708   -4.7667    0.0000 C   0  0  0  0  0  0  0  0  0  0  0  0
    5.6917   -3.0875    0.0000 Cl  0  0  0  0  0  0  0  0  0  0  0  0
    3.5417   -2.3375    0.0000 O   0  0  0  0  0  0  0  0  0  0  0  0
    7.5250   -2.0167    0.0000 C   0  0  0  0  0  0  0  0  0  0  0  0
    2.9250   -2.6792    0.0000 C   0  0  0  0  0  0  0  0  0  0  0  0
    4.1542   -2.7000    0.0000 C   0  0  0  0  0  0  0  0  0  0  0  0
    2.9250   -3.3917    0.0000 C   0  0  0  0  0  0  0  0  0  0  0  0
    2.3167   -2.3167    0.0000 C   0  0  0  0  0  0  0  0  0  0  0  0
    8.1417   -3.0792    0.0000 Cl  0  0  0  0  0  0  0  0  0  0  0  0
   -1.3833   -4.4042    0.0000 C   0  0  0  0  0  0  0  0  0  0  0  0
   -0.7833   -5.4750    0.0000 C   0  0  0  0  0  0  0  0  0  0  0  0
  2  1  1  0
  1  3  1  1
  4  1  1  0
  5  3  1  0
  6 13  2  0
  7  1  1  0
  8 16  1  0
  9  2  2  0
 10  5  1  0
 11 20  1  0
 12 10  2  0
 13  5  1  0
 14  2  1  0
 15  9  1  0
 16 23  2  0
 17  4  1  0
 18  8  1  0
 19  8  1  0
 20 19  1  0
 21 18  1  0
 22  7  1  0
 23 33  1  0
 24 32  2  0
 25 29  1  0
 26 11  1  0
 27  9  1  0
 28 31  1  0
 29 14  2  0
 30 28  1  0
 17 31  1  1
 32 30  1  0
 33 30  2  0
 34 25  1  0
 35 26  1  0
 36 26  1  0
 17 22  1  0
  6 12  1  0
 25 15  2  0
 16 24  1  0
 11 21  1  0
M  END
> <chembl_id>
CHEMBL1306

> <chembl_pref_name>
TERCONAZOLE
