
     RDKit          2D

 21 22  0  0  0  0  0  0  0  0999 V2000
    0.0000   -0.9250    0.0000 N   0  0  0  0  0  0  0  0  0  0  0  0
    2.7250   -2.1167    0.0000 C   0  0  0  0  0  0  0  0  0  0  0  0
   -2.3833   -2.6917    0.0000 C   0  0  0  0  0  0  0  0  0  0  0  0
   -1.1958   -1.8042    0.0000 C   0  0  0  0  0  0  0  0  0  0  0  0
    1.3625   -1.5167    0.0000 C   0  0  0  0  0  0  0  0  0  0  0  0
    0.8500   -0.8292    0.0000 C   0  0  0  0  0  0  0  0  0  0  0  0
   -0.3375   -1.7125    0.0000 C   0  0  0  0  0  0  0  0  0  0  0  0
   -1.5333   -2.6000    0.0000 C   0  0  0  0  0  0  0  0  0  0  0  0
    2.2167   -1.4167    0.0000 C   0  0  0  0  0  0  0  0  0  0  0  0
   -0.5000   -0.2292    0.0000 C   0  0  0  0  0  0  0  0  0  0  0  0
    3.5792   -2.0167    0.0000 C   0  0  0  0  0  0  0  0  0  0  0  0
    2.3792   -2.9000    0.0000 C   0  0  0  0  0  0  0  0  0  0  0  0
   -2.7333   -3.4792    0.0000 C   0  0  0  0  0  0  0  0  0  0  0  0
   -2.8958   -2.0000    0.0000 C   0  0  0  0  0  0  0  0  0  0  0  0
   -1.3583   -0.3250    0.0000 C   0  0  0  0  0  0  0  0  0  0  0  0
    4.0875   -2.7125    0.0000 C   0  0  0  0  0  0  0  0  0  0  0  0
    2.8917   -3.5917    0.0000 C   0  0  0  0  0  0  0  0  0  0  0  0
   -3.5833   -3.5792    0.0000 C   0  0  0  0  0  0  0  0  0  0  0  0
   -3.7583   -2.1000    0.0000 C   0  0  0  0  0  0  0  0  0  0  0  0
    3.7500   -3.5000    0.0000 C   0  0  0  0  0  0  0  0  0  0  0  0
   -4.0958   -2.8917    0.0000 C   0  0  0  0  0  0  0  0  0  0  0  0
  2  9  1  0
  3  8  1  0
  4  7  1  0
  5  6  1  0
  6  1  1  0
  7  1  1  0
  8  4  1  0
  9  5  1  0
 10  1  1  0
 11  2  1  0
 12  2  2  0
 13  3  1  0
 14  3  2  0
 15 10  1  0
 16 11  2  0
 17 12  1  0
 18 13  2  0
 19 14  1  0
 20 17  2  0
 21 19  2  0
 18 21  1  0
 16 20  1  0
M  END
> <chembl_id>
CHEMBL253371

> <chembl_pref_name>
ALVERINE
