
     RDKit          2D

 22 22  0  0  0  0  0  0  0  0999 V2000
    2.0680   -0.9806    0.0000 Cl  0  0  0  0  0  0  0  0  0  0  0  0
   -0.1407    0.5922    0.0000 C   0  0  0  0  0  0  0  0  0  0  0  0
   -0.8592    0.1748    0.0000 C   0  0  0  0  0  0  0  0  0  0  0  0
   -0.8592   -0.6553    0.0000 C   0  0  0  0  0  0  0  0  0  0  0  0
   -1.5679    0.5922    0.0000 C   0  0  0  0  0  0  0  0  0  0  0  0
    0.5680    0.1748    0.0000 C   0  0  0  0  0  0  0  0  0  0  0  0
    1.2719    0.5922    0.0000 N   0  0  0  0  0  0  0  0  0  0  0  0
   -2.2961   -0.6408    0.0000 C   0  0  0  0  0  0  0  0  0  0  0  0
    4.8641   -0.5583    0.0000 C   0  0  0  0  0  0  0  0  0  0  0  0
   -2.2913    0.1748    0.0000 C   0  0  0  0  0  0  0  0  0  0  0  0
   -1.5728   -1.0680    0.0000 C   0  0  0  0  0  0  0  0  0  0  0  0
   -0.1407    1.4126    0.0000 O   0  0  0  0  0  0  0  0  0  0  0  0
    3.4224    0.2330    0.0000 C   0  0  0  0  0  0  0  0  0  0  0  0
    4.1554   -0.9806    0.0000 C   0  0  0  0  0  0  0  0  0  0  0  0
    4.8399    0.2718    0.0000 C   0  0  0  0  0  0  0  0  0  0  0  0
    3.4272   -0.5874    0.0000 C   0  0  0  0  0  0  0  0  0  0  0  0
    4.1263    0.6650    0.0000 C   0  0  0  0  0  0  0  0  0  0  0  0
    1.9952    0.1990    0.0000 C   0  0  0  0  0  0  0  0  0  0  0  0
   -3.0243   -1.0243    0.0000 O   0  0  0  0  0  0  0  0  0  0  0  0
    5.5972   -0.9661    0.0000 O   0  0  0  0  0  0  0  0  0  0  0  0
    2.7039    0.6213    0.0000 C   0  0  0  0  0  0  0  0  0  0  0  0
    0.5680   -0.6457    0.0000 C   0  0  0  0  0  0  0  0  0  0  0  0
  3  2  1  0
  4  3  2  0
  5  3  1  0
  6  2  1  0
  7  6  1  0
  8 10  1  0
  9 15  1  0
 10  5  2  0
 11  4  1  0
  2 12  1  0
 13 21  1  0
 14 16  1  0
 15 17  2  0
 16 13  2  0
 17 13  1  0
 18  7  1  0
 19  8  1  0
 20  9  1  0
 21 18  1  0
  6 22  1  0
  8 11  2  0
  9 14  2  0
M  END
> <chembl_id>
CHEMBL1367605

> <chembl_pref_name>
RITODRINE HYDROCHLORIDE
