
     RDKit          2D

 18 18  0  0  0  0  0  0  0  0999 V2000
    7.8042   -4.9667    0.0000 Cl  0  0  0  0  0  0  0  0  0  0  0  0
    6.4542   -4.0542    0.0000 C   0  0  0  0  0  0  0  0  0  0  0  0
    6.4542   -4.7625    0.0000 C   0  0  0  0  0  0  0  0  0  0  0  0
    7.6875   -4.0500    0.0000 N   0  0  0  0  0  0  0  0  0  0  0  0
    7.0750   -3.7042    0.0000 C   0  0  0  0  0  0  0  0  0  0  0  0
    5.8500   -3.7042    0.0000 C   0  0  0  0  0  0  0  0  0  0  0  0
    7.0750   -5.1167    0.0000 O   0  0  0  0  0  0  0  0  0  0  0  0
    5.8417   -5.1125    0.0000 O   0  0  0  0  0  0  0  0  0  0  0  0
    8.3042   -3.7000    0.0000 C   0  0  0  0  0  0  0  0  0  0  0  0
    5.2292   -4.0542    0.0000 C   0  0  0  0  0  0  0  0  0  0  0  0
    5.8542   -2.9875    0.0000 C   0  0  0  0  0  0  0  0  0  0  0  0
    7.0750   -2.9875    0.0000 C   0  0  0  0  0  0  0  0  0  0  0  0
    5.2250   -4.7542    0.0000 C   0  0  0  0  0  0  0  0  0  0  0  0
    8.3042   -2.9917    0.0000 C   0  0  0  0  0  0  0  0  0  0  0  0
    5.2292   -2.6292    0.0000 C   0  0  0  0  0  0  0  0  0  0  0  0
    4.6167   -3.7042    0.0000 C   0  0  0  0  0  0  0  0  0  0  0  0
    7.6917   -2.6292    0.0000 C   0  0  0  0  0  0  0  0  0  0  0  0
    4.6167   -2.9875    0.0000 C   0  0  0  0  0  0  0  0  0  0  0  0
  3  2  1  0
  4  5  1  0
  5  2  1  0
  6  2  1  0
  7  3  2  0
  8  3  1  0
  9  4  1  0
 10  6  1  0
 11  6  2  0
 12  5  1  0
 13  8  1  0
 14 17  1  0
 15 11  1  0
 16 10  2  0
 17 12  1  0
 18 16  1  0
 18 15  2  0
 14  9  1  0
M  END
> <chembl_id>
CHEMBL1722

> <chembl_pref_name>
METHYLPHENIDATE HYDROCHLORIDE
