
     RDKit          2D

 25 26  0  0  0  0  0  0  0  0999 V2000
    3.9167   -1.1917    0.0000 Br  0  0  0  0  0  0  0  0  0  0  0  0
    1.3542    0.6375    0.0000 C   0  0  0  0  0  0  0  0  0  0  0  0
    0.6792    0.8583    0.0000 C   0  0  0  0  0  0  0  0  0  0  0  0
    1.7667    1.2125    0.0000 O   0  0  0  0  0  0  0  0  0  0  0  0
    0.6792    1.5625    0.0000 C   0  0  0  0  0  0  0  0  0  0  0  0
   -1.7833    2.2833    0.0000 N   0  0  0  0  0  0  0  0  0  0  0  0
    1.3500   -0.0750    0.0000 C   0  0  0  0  0  0  0  0  0  0  0  0
   -1.1625    1.9250    0.0000 C   0  0  0  0  0  0  0  0  0  0  0  0
    0.0667    0.5000    0.0000 C   0  0  0  0  0  0  0  0  0  0  0  0
    1.3542    1.7833    0.0000 C   0  0  0  0  0  0  0  0  0  0  0  0
    0.0667    1.9208    0.0000 C   0  0  0  0  0  0  0  0  0  0  0  0
   -0.5458    1.5625    0.0000 C   0  0  0  0  0  0  0  0  0  0  0  0
    0.7375   -0.4250    0.0000 C   0  0  0  0  0  0  0  0  0  0  0  0
    1.9625   -0.4292    0.0000 C   0  0  0  0  0  0  0  0  0  0  0  0
   -0.5458    0.8583    0.0000 C   0  0  0  0  0  0  0  0  0  0  0  0
    1.3375   -1.4917    0.0000 C   0  0  0  0  0  0  0  0  0  0  0  0
    2.0667    0.6375    0.0000 C   0  0  0  0  0  0  0  0  0  0  0  0
    3.5000   -0.5875    0.0000 N   0  0  0  0  0  0  0  0  0  0  0  0
    1.9542   -1.1417    0.0000 C   0  0  0  0  0  0  0  0  0  0  0  0
    0.7292   -1.1292    0.0000 C   0  0  0  0  0  0  0  0  0  0  0  0
    1.3375   -2.2042    0.0000 F   0  0  0  0  0  0  0  0  0  0  0  0
    2.4292    0.0250    0.0000 C   0  0  0  0  0  0  0  0  0  0  0  0
    3.1417    0.0333    0.0000 C   0  0  0  0  0  0  0  0  0  0  0  0
    3.1500   -1.2042    0.0000 C   0  0  0  0  0  0  0  0  0  0  0  0
    4.2042   -0.5792    0.0000 C   0  0  0  0  0  0  0  0  0  0  0  0
  3  2  1  0
  4  2  1  0
  5  3  2  0
  6  8  3  0
  7  2  1  0
  8 12  1  0
  9  3  1  0
 10  4  1  0
 11  5  1  0
 12 15  1  0
 13  7  1  0
 14  7  2  0
 15  9  2  0
 16 19  2  0
 17  2  1  0
 18 23  1  0
 19 14  1  0
 20 13  2  0
 21 16  1  0
 22 17  1  0
 23 22  1  0
 24 18  1  0
 25 18  1  0
 10  5  1  0
 16 20  1  0
 12 11  2  0
M  END
> <chembl_id>
CHEMBL1200781

> <chembl_pref_name>
CITALOPRAM HYDROBROMIDE
