
     RDKit          2D

110115  0  0  0  0  0  0  0  0999 V2000
   -3.0054   -7.3071    0.0000 S   0  0  0  0  0  0  0  0  0  0  0  0
   -3.0054   -6.4821    0.0000 O   0  0  0  0  0  0  0  0  0  0  0  0
   -3.7198   -7.7196    0.0000 O   0  0  0  0  0  0  0  0  0  0  0  0
   -2.2909   -7.7196    0.0000 O   0  0  0  0  0  0  0  0  0  0  0  0
   -3.0054   -8.1321    0.0000 O   0  0  0  0  0  0  0  0  0  0  0  0
    0.8697   -2.9056    0.0000 C   0  0  0  0  0  0  0  0  0  0  0  0
   -0.3693   -2.1913    0.0000 C   0  0  0  0  0  0  0  0  0  0  0  0
    0.0388   -2.9056    0.0000 C   0  0  0  0  0  0  0  0  0  0  0  0
   -2.3225   -3.3283    0.0000 C   0  0  0  0  0  0  0  0  0  0  0  0
   -1.9144   -2.6140    0.0000 C   0  0  0  0  0  0  0  0  0  0  0  0
   -3.1436   -3.3283    0.0000 C   0  0  0  0  0  0  0  0  0  0  0  0
    1.9920   -4.0376    0.0000 C   0  0  0  0  0  0  0  0  0  0  0  0
   -1.2001   -2.2010    0.0000 O   0  0  0  0  0  0  0  0  0  0  0  0
    1.5839   -3.3234    0.0000 O   0  0  0  0  0  0  0  0  0  0  0  0
    2.8181   -4.0376    0.0000 O   0  0  0  0  0  0  0  0  0  0  0  0
   -3.5615   -2.6140    0.0000 C   0  0  0  0  0  0  0  0  0  0  0  0
    1.2778   -2.1913    0.0000 C   0  0  0  0  0  0  0  0  0  0  0  0
    0.0388   -1.4771    0.0000 C   0  0  0  0  0  0  0  0  0  0  0  0
   -2.3225   -1.8998    0.0000 O   0  0  0  0  0  0  0  0  0  0  0  0
    0.8697   -1.4771    0.0000 C   0  0  0  0  0  0  0  0  0  0  0  0
    3.2310   -4.7518    0.0000 C   0  0  0  0  0  0  0  0  0  0  0  0
   -3.1436   -1.8998    0.0000 C   0  0  0  0  0  0  0  0  0  0  0  0
    1.5791   -4.7518    0.0000 C   0  0  0  0  0  0  0  0  0  0  0  0
   -3.5615   -4.0425    0.0000 N   0  0  0  0  0  0  0  0  0  0  0  0
    2.8181   -5.4661    0.0000 C   0  0  0  0  0  0  0  0  0  0  0  0
    1.9920   -5.4661    0.0000 C   0  0  0  0  0  0  0  0  0  0  0  0
   -1.9046   -4.0425    0.0000 O   0  0  0  0  0  0  0  0  0  0  0  0
   -0.3693   -3.6198    0.0000 O   0  0  0  0  0  0  0  0  0  0  0  0
   -0.3693   -0.7629    0.0000 N   0  0  0  0  0  0  0  0  0  0  0  0
    2.1086   -2.2010    0.0000 N   0  0  0  0  0  0  0  0  0  0  0  0
    3.9405   -4.3340    0.0000 C   0  0  0  0  0  0  0  0  0  0  0  0
   -4.2903   -2.2059    0.0000 O   0  0  0  0  0  0  0  0  0  0  0  0
    3.9307   -3.5032    0.0000 N   0  0  0  0  0  0  0  0  0  0  0  0
    0.7531   -4.7518    0.0000 N   0  0  0  0  0  0  0  0  0  0  0  0
   -4.2903   -3.0222    0.0000 C   0  0  0  0  0  0  0  0  0  0  0  0
   -4.3825   -4.0425    0.0000 C   0  0  0  0  0  0  0  0  0  0  0  0
    4.6449   -3.0805    0.0000 C   0  0  0  0  0  0  0  0  0  0  0  0
    4.6595   -4.7373    0.0000 C   0  0  0  0  0  0  0  0  0  0  0  0
    0.8649   -3.7364    0.0000 H   0  0  0  0  0  0  0  0  0  0  0  0
   -1.2001   -3.0318    0.0000 H   0  0  0  0  0  0  0  0  0  0  0  0
    3.9405   -5.1649    0.0000 H   0  0  0  0  0  0  0  0  0  0  0  0
   12.4238   -2.9056    0.0000 C   0  0  0  0  0  0  0  0  0  0  0  0
   11.1848   -2.1913    0.0000 C   0  0  0  0  0  0  0  0  0  0  0  0
   11.5977   -2.9056    0.0000 C   0  0  0  0  0  0  0  0  0  0  0  0
    9.2364   -3.3283    0.0000 C   0  0  0  0  0  0  0  0  0  0  0  0
    9.6445   -2.6140    0.0000 C   0  0  0  0  0  0  0  0  0  0  0  0
    8.4055   -3.3283    0.0000 C   0  0  0  0  0  0  0  0  0  0  0  0
   13.5462   -4.0376    0.0000 C   0  0  0  0  0  0  0  0  0  0  0  0
   10.3588   -2.2010    0.0000 O   0  0  0  0  0  0  0  0  0  0  0  0
   13.1380   -3.3234    0.0000 O   0  0  0  0  0  0  0  0  0  0  0  0
   14.3672   -4.0376    0.0000 O   0  0  0  0  0  0  0  0  0  0  0  0
    7.9926   -2.6140    0.0000 C   0  0  0  0  0  0  0  0  0  0  0  0
   12.8367   -2.1913    0.0000 C   0  0  0  0  0  0  0  0  0  0  0  0
   11.5977   -1.4771    0.0000 C   0  0  0  0  0  0  0  0  0  0  0  0
    9.2364   -1.8998    0.0000 O   0  0  0  0  0  0  0  0  0  0  0  0
   12.4238   -1.4771    0.0000 C   0  0  0  0  0  0  0  0  0  0  0  0
   14.7851   -4.7518    0.0000 C   0  0  0  0  0  0  0  0  0  0  0  0
    8.4055   -1.8998    0.0000 C   0  0  0  0  0  0  0  0  0  0  0  0
   13.1282   -4.7518    0.0000 C   0  0  0  0  0  0  0  0  0  0  0  0
    7.9974   -4.0425    0.0000 N   0  0  0  0  0  0  0  0  0  0  0  0
   14.3672   -5.4661    0.0000 C   0  0  0  0  0  0  0  0  0  0  0  0
   13.5462   -5.4661    0.0000 C   0  0  0  0  0  0  0  0  0  0  0  0
    9.6445   -4.0425    0.0000 O   0  0  0  0  0  0  0  0  0  0  0  0
   11.1848   -3.6198    0.0000 O   0  0  0  0  0  0  0  0  0  0  0  0
   11.1848   -0.7629    0.0000 N   0  0  0  0  0  0  0  0  0  0  0  0
   13.6628   -2.2010    0.0000 N   0  0  0  0  0  0  0  0  0  0  0  0
   15.4896   -4.3340    0.0000 C   0  0  0  0  0  0  0  0  0  0  0  0
    7.2686   -2.2059    0.0000 O   0  0  0  0  0  0  0  0  0  0  0  0
   12.3023   -4.7518    0.0000 N   0  0  0  0  0  0  0  0  0  0  0  0
   15.4896   -3.5032    0.0000 N   0  0  0  0  0  0  0  0  0  0  0  0
    7.2686   -3.0222    0.0000 C   0  0  0  0  0  0  0  0  0  0  0  0
    7.1666   -4.0425    0.0000 C   0  0  0  0  0  0  0  0  0  0  0  0
   16.2136   -4.7373    0.0000 C   0  0  0  0  0  0  0  0  0  0  0  0
   10.3588   -3.0318    0.0000 H   0  0  0  0  0  0  0  0  0  0  0  0
   12.4140   -3.7364    0.0000 H   0  0  0  0  0  0  0  0  0  0  0  0
   15.4896   -5.1649    0.0000 H   0  0  0  0  0  0  0  0  0  0  0  0
    6.6418   -8.0218    0.0000 C   0  0  0  0  0  0  0  0  0  0  0  0
    5.4029   -7.3076    0.0000 C   0  0  0  0  0  0  0  0  0  0  0  0
    5.8208   -8.0218    0.0000 C   0  0  0  0  0  0  0  0  0  0  0  0
    3.4594   -8.4445    0.0000 C   0  0  0  0  0  0  0  0  0  0  0  0
    3.8676   -7.7303    0.0000 C   0  0  0  0  0  0  0  0  0  0  0  0
    2.6334   -8.4445    0.0000 C   0  0  0  0  0  0  0  0  0  0  0  0
    4.5818   -7.3076    0.0000 O   0  0  0  0  0  0  0  0  0  0  0  0
    7.3561   -8.4299    0.0000 O   0  0  0  0  0  0  0  0  0  0  0  0
    7.7642   -9.1442    0.0000 C   0  0  0  0  0  0  0  0  0  0  0  0
    2.2107   -7.7303    0.0000 C   0  0  0  0  0  0  0  0  0  0  0  0
    7.0598   -7.3076    0.0000 C   0  0  0  0  0  0  0  0  0  0  0  0
    5.8208   -6.5933    0.0000 C   0  0  0  0  0  0  0  0  0  0  0  0
    8.5950   -9.1442    0.0000 O   0  0  0  0  0  0  0  0  0  0  0  0
    3.4594   -7.0160    0.0000 O   0  0  0  0  0  0  0  0  0  0  0  0
    6.6418   -6.5933    0.0000 C   0  0  0  0  0  0  0  0  0  0  0  0
    2.6334   -7.0160    0.0000 C   0  0  0  0  0  0  0  0  0  0  0  0
    7.3561   -9.8584    0.0000 C   0  0  0  0  0  0  0  0  0  0  0  0
    2.2205   -9.1587    0.0000 N   0  0  0  0  0  0  0  0  0  0  0  0
    3.8724   -9.1587    0.0000 O   0  0  0  0  0  0  0  0  0  0  0  0
    5.4029   -8.7360    0.0000 O   0  0  0  0  0  0  0  0  0  0  0  0
    7.7642  -10.5726    0.0000 C   0  0  0  0  0  0  0  0  0  0  0  0
    7.8808   -7.3076    0.0000 N   0  0  0  0  0  0  0  0  0  0  0  0
    5.4029   -5.8791    0.0000 N   0  0  0  0  0  0  0  0  0  0  0  0
    9.0032   -9.8584    0.0000 C   0  0  0  0  0  0  0  0  0  0  0  0
    1.4964   -7.3172    0.0000 O   0  0  0  0  0  0  0  0  0  0  0  0
    6.5252   -9.8584    0.0000 N   0  0  0  0  0  0  0  0  0  0  0  0
    8.5950  -10.5726    0.0000 C   0  0  0  0  0  0  0  0  0  0  0  0
   10.4316   -9.8438    0.0000 N   0  0  0  0  0  0  0  0  0  0  0  0
    1.4964   -8.1384    0.0000 C   0  0  0  0  0  0  0  0  0  0  0  0
    9.7126   -9.4357    0.0000 C   0  0  0  0  0  0  0  0  0  0  0  0
    1.3944   -9.1587    0.0000 C   0  0  0  0  0  0  0  0  0  0  0  0
    4.5818   -8.1384    0.0000 H   0  0  0  0  0  0  0  0  0  0  0  0
    9.7174  -10.2762    0.0000 H   0  0  0  0  0  0  0  0  0  0  0  0
    6.6418   -8.8477    0.0000 H   0  0  0  0  0  0  0  0  0  0  0  0
  1  2  1  0
  1  3  2  0
  1  4  2  0
  1  5  1  0
 16 32  1  1
 23 34  1  1
 35 16  1  0
 36 24  1  0
 37 33  1  0
 38 31  1  0
  6 39  1  6
 10 40  1  1
 21 41  1  1
  7 18  1  0
 26 25  1  0
 11 16  1  0
  7  8  1  0
  8  6  1  0
  9 10  1  0
 10 13  1  0
 11  9  1  0
 12 14  1  1
  7 13  1  1
 14  6  1  0
 15 12  1  0
 16 22  1  0
 17  6  1  0
 18 20  1  0
 19 10  1  0
 20 17  1  0
 21 15  1  0
 22 19  1  0
 23 12  1  0
 11 24  1  1
 25 21  1  0
 26 23  1  0
  9 27  1  6
  8 28  1  6
 18 29  1  6
 17 30  1  6
 31 21  1  0
 31 33  1  0
 43 44  1  0
 44 42  1  0
 45 46  1  0
 46 49  1  0
 47 45  1  0
 48 50  1  1
 43 49  1  1
 50 42  1  0
 51 48  1  0
 52 58  1  0
 53 42  1  0
 54 56  1  0
 55 46  1  0
 56 53  1  0
 57 51  1  0
 58 55  1  0
 59 48  1  0
 47 60  1  1
 61 62  1  0
 62 59  1  0
 45 63  1  6
 44 64  1  6
 54 65  1  6
 53 66  1  6
 67 57  1  0
 52 68  1  1
 59 69  1  1
 71 52  1  0
 72 60  1  0
 73 67  1  0
 46 74  1  1
 42 75  1  6
 57 76  1  1
 54 43  1  0
 61 57  1  0
 47 52  1  0
 67 70  1  0
 78 79  1  0
 79 77  1  0
 80 81  1  0
 81 83  1  0
 82 80  1  0
 78 83  1  1
 84 77  1  0
 85 84  1  1
 86 92  1  0
 87 77  1  0
 88 91  1  0
 89 85  1  0
 90 81  1  0
 91 87  1  0
 92 90  1  0
 93 85  1  0
 82 94  1  1
 80 95  1  6
 79 96  1  6
 97 93  1  0
 87 98  1  6
 88 99  1  6
100 89  1  0
 86101  1  1
 93102  1  1
103 97  1  0
104106  1  0
105 86  1  0
106100  1  0
107 94  1  0
 81108  1  1
100109  1  1
 77110  1  6
 88 78  1  0
103100  1  0
 82 86  1  0
M  END
> <chembl_id>
CHEMBL3039594

> <chembl_pref_name>
GENTAMICIN SULFATE
