
     RDKit          2D

 37 43  0  0  1  0  0  0  0  0999 V2000
    2.5542   -5.1667    0.0000 C   0  0  0  0  0  0  0  0  0  0  0  0
    2.9167   -4.5625    0.0000 C   0  0  0  0  0  0  0  0  0  0  0  0
    1.8792   -5.1667    0.0000 C   0  0  0  0  0  0  0  0  0  0  0  0
    2.8542   -5.7417    0.0000 C   0  0  0  0  0  0  0  0  0  0  0  0
    1.5750   -5.7542    0.0000 C   0  0  0  0  0  0  0  0  0  0  0  0
    2.2375   -6.1542    0.0000 O   0  0  0  0  0  0  0  0  0  0  0  0
    2.5417   -3.9625    0.0000 C   0  0  0  0  0  0  0  0  0  0  0  0
    2.5542   -3.1875    0.0000 N   0  0  0  0  0  0  0  0  0  0  0  0
    1.5167   -4.5750    0.0000 C   0  0  0  0  0  0  0  0  0  0  0  0
    3.6375   -5.7500    0.0000 C   0  0  0  0  0  0  0  0  0  0  0  0
    4.2500   -6.1042    0.0000 N   0  0  0  0  0  0  0  0  0  0  0  0
    1.8625   -3.9625    0.0000 C   0  0  0  0  0  0  0  0  0  0  0  0
    4.8625   -5.7500    0.0000 C   0  0  0  0  0  0  0  0  0  0  0  0
    3.6125   -4.5625    0.0000 C   0  0  0  0  0  0  0  0  0  0  0  0
    2.0917   -4.7542    0.0000 C   0  0  0  0  0  0  0  0  0  0  0  0
    5.4792   -6.1042    0.0000 C   0  0  0  0  0  0  0  0  0  0  0  0
    3.9792   -5.1625    0.0000 C   0  0  0  0  0  0  0  0  0  0  0  0
    3.1167   -2.8667    0.0000 C   0  0  0  0  0  0  0  0  0  0  0  0
    6.0917   -5.7500    0.0000 C   0  0  0  0  0  0  0  0  0  0  0  0
    6.7042   -6.1042    0.0000 C   0  0  0  0  0  0  0  0  0  0  0  0
    0.8417   -5.7667    0.0000 C   0  0  0  0  0  0  0  0  0  0  0  0
    2.0917   -3.5292    0.0000 C   0  0  0  0  0  0  0  0  0  0  0  0
    3.7250   -3.2292    0.0000 C   0  0  0  0  0  0  0  0  0  0  0  0
    4.0667   -3.8417    0.0000 C   0  0  0  0  0  0  0  0  0  0  0  0
    4.4167   -3.2417    0.0000 C   0  0  0  0  0  0  0  0  0  0  0  0
    7.8167   -6.1042    0.0000 O   0  0  0  0  0  0  0  0  0  0  0  0
    0.8292   -4.5750    0.0000 C   0  0  0  0  0  0  0  0  0  0  0  0
    7.2667   -5.7000    0.0000 C   0  0  0  0  0  0  0  0  0  0  0  0
    3.2375   -4.0042    0.0000 O   0  0  0  0  0  0  0  0  0  0  0  0
    4.8625   -5.0417    0.0000 O   0  0  0  0  0  0  0  0  0  0  0  0
    6.9167   -6.7625    0.0000 C   0  0  0  0  0  0  0  0  0  0  0  0
    7.6042   -6.7625    0.0000 C   0  0  0  0  0  0  0  0  0  0  0  0
    0.4792   -5.1667    0.0000 C   0  0  0  0  0  0  0  0  0  0  0  0
    0.4917   -6.3875    0.0000 O   0  0  0  0  0  0  0  0  0  0  0  0
    4.2542   -6.8250    0.0000 C   0  0  0  0  0  0  0  0  0  0  0  0
    1.8403   -3.2497    0.0000 H   0  0  0  0  0  0  0  0  0  0  0  0
    3.1396   -6.7001    0.0000 H   0  0  0  0  0  0  0  0  0  0  0  0
  2  1  1  0
  3  1  1  0
  4  1  1  0
  5  3  1  0
  4  6  1  0
  7  2  1  0
  8 22  1  0
  9  3  2  0
 10  4  1  0
 10 11  1  1
 12  9  1  0
 13 11  1  0
 14  2  1  0
  1 15  1  1
 16 13  1  0
 17 10  1  0
 18  8  1  0
 19 16  2  0
 20 19  1  0
 21  5  2  0
 22 15  1  0
 23 18  1  0
 24 23  1  0
 25 23  1  0
 26 28  1  0
 27  9  1  0
 28 20  2  0
  2 29  1  1
 30 13  2  0
 31 20  1  0
 32 31  2  0
 33 27  2  0
 34 21  1  0
 35 11  1  0
  6  5  1  0
  7  8  1  0
 17 14  1  0
 12  7  1  0
 33 21  1  0
 25 24  1  0
 26 32  1  0
  7 36  1  6
  4 37  1  1
M  END
> <chembl_id>
CHEMBL267495

> <chembl_pref_name>
NALFURAFINE
