
     RDKit          2D

  4  3  0  0  0  0  0  0  0  0999 V2000
    0.1923   -0.3572    0.0000 C   0  0  0  0  0  0  0  0  0  0  0  0
    1.0173   -0.3572    0.0000 O   0  0  0  0  0  0  0  0  0  0  0  0
   -0.2202    0.3572    0.0000 C   0  0  0  0  0  0  0  0  0  0  0  0
   -1.0452    0.3572    0.0000 O   0  0  0  0  0  0  0  0  0  0  0  0
  1  2  1  0
  1  3  1  0
  3  4  1  0
M  END
> <chembl_id>
CHEMBL457299

> <chembl_pref_name>
MACROGOL
