
     RDKit          2D

 41 46  0  0  0  0  0  0  0  0999 V2000
    6.9375   -5.2417    0.0000 C   0  0  0  0  0  0  0  0  0  0  0  0
    8.1667   -4.5292    0.0000 S   0  0  0  0  0  0  0  0  0  0  0  0
    6.4417   -5.9125    0.0000 C   0  0  0  0  0  0  0  0  0  0  0  0
    6.4542   -4.5750    0.0000 C   0  0  0  0  0  0  0  0  0  0  0  0
    7.7625   -5.2417    0.0000 C   0  0  0  0  0  0  0  0  0  0  0  0
    5.6625   -5.6542    0.0000 C   0  0  0  0  0  0  0  0  0  0  0  0
    6.4500   -4.8875    0.0000 C   0  0  0  0  0  0  0  0  0  0  0  0
    5.6667   -4.8292    0.0000 C   0  0  0  0  0  0  0  0  0  0  0  0
    8.5792   -3.8125    0.0000 O   0  0  0  0  0  0  0  0  0  0  0  0
    7.7542   -3.8167    0.0000 O   0  0  0  0  0  0  0  0  0  0  0  0
    8.9917   -4.5167    0.0000 O   0  0  0  0  0  0  0  0  0  0  0  0
    5.8875   -5.0750    0.0000 C   0  0  0  0  0  0  0  0  0  0  0  0
    6.7125   -3.7917    0.0000 O   0  0  0  0  0  0  0  0  0  0  0  0
    5.8542   -6.4917    0.0000 C   0  0  0  0  0  0  0  0  0  0  0  0
    7.2417   -6.1250    0.0000 C   0  0  0  0  0  0  0  0  0  0  0  0
    1.3417   -3.1917    0.0000 N   0  0  0  0  0  0  0  0  0  0  0  0
    2.2417   -4.1792    0.0000 N   0  0  0  0  0  0  0  0  0  0  0  0
    1.4375   -4.0167    0.0000 C   0  0  0  0  0  0  0  0  0  0  0  0
    2.1000   -2.8542    0.0000 C   0  0  0  0  0  0  0  0  0  0  0  0
    2.6542   -3.4625    0.0000 C   0  0  0  0  0  0  0  0  0  0  0  0
    3.3042   -2.3042    0.0000 S   0  0  0  0  0  0  0  0  0  0  0  0
    2.5042   -2.1417    0.0000 C   0  0  0  0  0  0  0  0  0  0  0  0
    3.4042   -3.1167    0.0000 C   0  0  0  0  0  0  0  0  0  0  0  0
    0.6292   -2.7875    0.0000 C   0  0  0  0  0  0  0  0  0  0  0  0
    2.5792   -4.9375    0.0000 C   0  0  0  0  0  0  0  0  0  0  0  0
    0.8292   -4.5667    0.0000 O   0  0  0  0  0  0  0  0  0  0  0  0
    4.0542   -1.9625    0.0000 C   0  0  0  0  0  0  0  0  0  0  0  0
    2.1042   -5.6042    0.0000 C   0  0  0  0  0  0  0  0  0  0  0  0
   -0.0833   -3.2042    0.0000 C   0  0  0  0  0  0  0  0  0  0  0  0
    4.2125   -3.2792    0.0000 C   0  0  0  0  0  0  0  0  0  0  0  0
    4.6125   -2.5625    0.0000 C   0  0  0  0  0  0  0  0  0  0  0  0
   -0.8000   -2.7917    0.0000 C   0  0  0  0  0  0  0  0  0  0  0  0
    1.2792   -5.5167    0.0000 C   0  0  0  0  0  0  0  0  0  0  0  0
    2.4417   -6.3542    0.0000 C   0  0  0  0  0  0  0  0  0  0  0  0
   -0.0833   -4.0292    0.0000 C   0  0  0  0  0  0  0  0  0  0  0  0
    0.8000   -6.1917    0.0000 C   0  0  0  0  0  0  0  0  0  0  0  0
    1.9625   -7.0250    0.0000 C   0  0  0  0  0  0  0  0  0  0  0  0
   -1.5125   -3.2042    0.0000 C   0  0  0  0  0  0  0  0  0  0  0  0
   -0.8000   -4.4417    0.0000 C   0  0  0  0  0  0  0  0  0  0  0  0
    1.1375   -6.9417    0.0000 C   0  0  0  0  0  0  0  0  0  0  0  0
   -1.5125   -4.0292    0.0000 C   0  0  0  0  0  0  0  0  0  0  0  0
  2  5  1  0
  3  1  1  0
  4  1  1  0
  5  1  1  0
  6  3  1  0
  7  1  1  0
  8  4  1  0
  9  2  1  0
 10  2  2  0
 11  2  2  0
 12  7  1  0
 13  4  2  0
 14  3  1  0
 15  3  1  0
  6 12  1  0
  8  6  1  0
 17 18  1  0
 18 16  1  0
 19 16  1  0
 20 19  1  0
 21 22  1  0
 22 19  1  0
 23 20  1  0
 24 16  1  0
 25 17  1  0
 26 18  2  0
 27 21  1  0
 28 25  1  0
 29 24  1  0
 30 23  1  0
 31 27  1  0
 32 29  2  0
 33 28  2  0
 34 28  1  0
 35 29  1  0
 36 33  1  0
 37 34  2  0
 38 32  1  0
 39 35  2  0
 40 37  1  0
 41 38  2  0
 17 20  1  0
 21 23  1  0
 39 41  1  0
 30 31  1  0
 40 36  2  0
M  CHG  2   9  -1  21   1
M  END
> <chembl_id>
CHEMBL1245

> <chembl_pref_name>
TRIMETHAPHAN CAMSYLATE
