
     RDKit          2D

 51 55  0  0  0  0  0  0  0  0999 V2000
   -3.5973   -2.6000    0.0000 C   0  0  0  0  0  0  0  0  0  0  0  0
   -3.5984   -3.4273    0.0000 C   0  0  0  0  0  0  0  0  0  0  0  0
   -2.8836   -3.8402    0.0000 N   0  0  0  0  0  0  0  0  0  0  0  0
   -2.1672   -3.4269    0.0000 C   0  0  0  0  0  0  0  0  0  0  0  0
   -2.1700   -2.5963    0.0000 C   0  0  0  0  0  0  0  0  0  0  0  0
   -2.8854   -2.1872    0.0000 N   0  0  0  0  0  0  0  0  0  0  0  0
   -1.4571   -2.1811    0.0000 C   0  0  0  0  0  0  0  0  0  0  0  0
   -0.7411   -2.5909    0.0000 N   0  0  0  0  0  0  0  0  0  0  0  0
   -1.4602   -1.3561    0.0000 O   0  0  0  0  0  0  0  0  0  0  0  0
   -0.0282   -2.1758    0.0000 C   0  0  0  0  0  0  0  0  0  0  0  0
    0.6878   -2.5856    0.0000 C   0  0  0  0  0  0  0  0  0  0  0  0
   -0.0313   -1.3508    0.0000 C   0  0  0  0  0  0  0  0  0  0  0  0
    0.6878   -0.9369    0.0000 C   0  0  0  0  0  0  0  0  0  0  0  0
    0.6867   -0.1155    0.0000 C   0  0  0  0  0  0  0  0  0  0  0  0
   -0.0275    0.2982    0.0000 C   0  0  0  0  0  0  0  0  0  0  0  0
   -0.7423   -0.1158    0.0000 C   0  0  0  0  0  0  0  0  0  0  0  0
   -0.7428   -0.9434    0.0000 C   0  0  0  0  0  0  0  0  0  0  0  0
    0.6909   -3.4106    0.0000 O   0  0  0  0  0  0  0  0  0  0  0  0
    1.4008   -2.1704    0.0000 N   0  0  0  0  0  0  0  0  0  0  0  0
    2.1168   -2.5802    0.0000 C   0  0  0  0  0  0  0  0  0  0  0  0
    2.8297   -2.1650    0.0000 C   0  0  0  0  0  0  0  0  0  0  0  0
    2.1199   -3.4052    0.0000 C   0  0  0  0  0  0  0  0  0  0  0  0
    1.4070   -3.8204    0.0000 C   0  0  0  0  0  0  0  0  0  0  0  0
    2.8359   -3.8150    0.0000 C   0  0  0  0  0  0  0  0  0  0  0  0
    3.5457   -2.5748    0.0000 O   0  0  0  0  0  0  0  0  0  0  0  0
    2.8266   -1.3400    0.0000 N   0  0  0  0  0  0  0  0  0  0  0  0
    3.4918   -0.8551    0.0000 C   0  0  0  0  0  0  0  0  0  0  0  0
    2.1570   -0.8601    0.0000 C   0  0  0  0  0  0  0  0  0  0  0  0
    2.4089   -0.0745    0.0000 C   0  0  0  0  0  0  0  0  0  0  0  0
    3.2332   -0.0754    0.0000 C   0  0  0  0  0  0  0  0  0  0  0  0
    3.4888    0.7084    0.0000 C   0  0  0  0  0  0  0  0  0  0  0  0
    2.8224    1.1936    0.0000 C   0  0  0  0  0  0  0  0  0  0  0  0
    2.1550    0.7097    0.0000 C   0  0  0  0  0  0  0  0  0  0  0  0
    4.0542   -0.0750    0.0000 H   0  0  0  0  0  0  0  0  0  0  0  0
    1.5833   -0.0708    0.0000 H   0  0  0  0  0  0  0  0  0  0  0  0
    4.2091   -1.2625    0.0000 C   0  0  0  0  0  0  0  0  0  0  0  0
    4.2150   -2.0875    0.0000 O   0  0  0  0  0  0  0  0  0  0  0  0
    4.9205   -0.8449    0.0000 N   0  0  0  0  0  0  0  0  0  0  0  0
    5.6380   -1.2522    0.0000 C   0  0  0  0  0  0  0  0  0  0  0  0
    6.3494   -0.8346    0.0000 C   0  0  0  0  0  0  0  0  0  0  0  0
    5.6439   -2.0772    0.0000 C   0  0  0  0  0  0  0  0  0  0  0  0
    6.3613   -2.4846    0.0000 C   0  0  0  0  0  0  0  0  0  0  0  0
    6.3672   -3.3095    0.0000 C   0  0  0  0  0  0  0  0  0  0  0  0
    6.3435   -0.0096    0.0000 O   0  0  0  0  0  0  0  0  0  0  0  0
    7.0669   -1.2420    0.0000 C   0  0  0  0  0  0  0  0  0  0  0  0
    7.0728   -2.0669    0.0000 O   0  0  0  0  0  0  0  0  0  0  0  0
    7.7784   -0.8243    0.0000 N   0  0  0  0  0  0  0  0  0  0  0  0
    8.4958   -1.2317    0.0000 C   0  0  0  0  0  0  0  0  0  0  0  0
    8.9169   -1.9405    0.0000 C   0  0  0  0  0  0  0  0  0  0  0  0
    9.3242   -1.2231    0.0000 C   0  0  0  0  0  0  0  0  0  0  0  0
    2.1125   -4.2292    0.0000 C   0  0  0  0  0  0  0  0  0  0  0  0
 21 25  2  0
 12 13  1  0
 21 26  1  0
 26 27  1  0
  6  1  1  0
  1  2  2  0
 27 30  1  0
 29 28  1  0
 28 26  1  0
 29 30  1  0
  5  7  1  0
  3  4  2  0
  7  8  1  0
 12 17  1  0
 13 14  1  0
 30 31  1  0
 31 32  1  0
 32 33  1  0
 33 29  1  0
 14 15  1  0
 30 34  1  1
 15 16  1  0
 29 35  1  1
 16 17  1  0
 27 36  1  1
 36 37  2  0
 11 18  2  0
 36 38  1  0
  7  9  2  0
 38 39  1  0
 11 19  1  0
 39 40  1  0
  4  5  1  0
 39 41  1  6
 19 20  1  0
 41 42  1  0
  8 10  1  0
 42 43  1  0
 20 21  1  0
 40 44  2  0
  2  3  1  0
 40 45  1  0
 20 22  1  6
 45 46  2  0
 10 11  1  0
 45 47  1  0
 22 23  1  0
 47 48  1  0
 49 48  1  0
 50 49  1  0
 48 50  1  0
  5  6  2  0
 22 24  1  0
 10 12  1  1
 22 51  1  0
M  END
> <chembl_id>
CHEMBL231813

> <chembl_pref_name>
TELAPREVIR
