
     RDKit          2D

 10  8  0  0  0  0  0  0  0  0999 V2000
    5.5542   -4.2792    0.0000 Cl  0  0  0  0  0  0  0  0  0  0  0  0
    1.9000   -3.8875    0.0000 C   0  0  0  0  0  0  0  0  0  0  0  0
    1.9000   -3.1792    0.0000 O   0  0  0  0  0  0  0  0  0  0  0  0
    3.7167   -5.0000    0.0000 O   0  0  0  0  0  0  0  0  0  0  0  0
    3.7375   -4.2875    0.0000 C   0  0  0  0  0  0  0  0  0  0  0  0
    2.5042   -4.2542    0.0000 C   0  0  0  0  0  0  0  0  0  0  0  0
    1.2750   -4.2375    0.0000 O   0  0  0  0  0  0  0  0  0  0  0  0
    3.1375   -3.9250    0.0000 C   0  0  0  0  0  0  0  0  0  0  0  0
    4.9750   -4.3292    0.0000 N   0  0  0  0  0  0  0  0  0  0  0  0
    4.3625   -3.9542    0.0000 C   0  0  0  0  0  0  0  0  0  0  0  0
  3  2  2  0
  4  5  2  0
  5  8  1  0
  6  2  1  0
  7  2  1  0
  8  6  1  0
  9 10  1  0
 10  5  1  0
M  END
> <chembl_id>
CHEMBL1200582

> <chembl_pref_name>
AMINOLEVULINIC ACID HYDROCHLORIDE
