
     RDKit          2D

 14 13  0  0  0  0  0  0  0  0999 V2000
    5.0972   -0.1587    0.0000 O   0  0  0  0  0  0  0  0  0  0  0  0
    2.9538    1.9038    0.0000 N   0  0  0  0  0  0  0  0  0  0  0  0
    3.6682   -0.1587    0.0000 C   0  0  0  0  0  0  0  0  0  0  0  0
    4.3827   -0.5712    0.0000 C   0  0  0  0  0  0  0  0  0  0  0  0
    3.6682    0.6663    0.0000 C   0  0  0  0  0  0  0  0  0  0  0  0
    2.9538   -0.5712    0.0000 C   0  0  0  0  0  0  0  0  0  0  0  0
    4.3827   -1.3962    0.0000 C   0  0  0  0  0  0  0  0  0  0  0  0
    2.9538    1.0788    0.0000 C   0  0  0  0  0  0  0  0  0  0  0  0
    2.9538   -1.3962    0.0000 C   0  0  0  0  0  0  0  0  0  0  0  0
    3.6682   -1.8087    0.0000 C   0  0  0  0  0  0  0  0  0  0  0  0
    2.2393    0.6663    0.0000 C   0  0  0  0  0  0  0  0  0  0  0  0
    5.8116   -0.5712    0.0000 C   0  0  0  0  0  0  0  0  0  0  0  0
    2.2393    2.3163    0.0000 C   0  0  0  0  0  0  0  0  0  0  0  0
    0.0000    0.0000    0.0000 Cl  0  0  0  0  0  0  0  0  0  0  0  0
  1  4  1  0
  1 12  1  0
  2  8  1  0
  2 13  1  0
  3  4  2  0
  3  5  1  0
  3  6  1  0
  4  7  1  0
  5  8  1  0
  6  9  2  0
  7 10  2  0
  8 11  1  0
  9 10  1  0
M  END
> <chembl_id>
CHEMBL1985928

> <chembl_pref_name>
METHOXYPHENAMINE HYDROCHLORIDE
