
     RDKit          2D

 24 23  0  0  0  0  0  0  0  0999 V2000
   -5.9002  -12.4044    0.0000 C   0  0  0  0  0  0  0  0  0  0  0  0
   -6.6146  -12.8169    0.0000 C   0  0  0  0  0  0  0  0  0  0  0  0
   -6.6146  -13.6420    0.0000 C   0  0  0  0  0  0  0  0  0  0  0  0
   -5.1857  -12.8169    0.0000 C   0  0  0  0  0  0  0  0  0  0  0  0
   -4.4712  -12.4044    0.0000 C   0  0  0  0  0  0  0  0  0  0  0  0
   -3.7568  -12.8169    0.0000 C   0  0  0  0  0  0  0  0  0  0  0  0
   -7.3291  -14.0545    0.0000 C   0  0  0  0  0  0  0  0  0  0  0  0
   -7.3291  -14.8795    0.0000 C   0  0  0  0  0  0  0  0  0  0  0  0
   -6.6146  -15.2920    0.0000 C   0  0  0  0  0  0  0  0  0  0  0  0
   -6.6146  -16.1170    0.0000 C   0  0  0  0  0  0  0  0  0  0  0  0
   -5.9002  -16.5295    0.0000 C   0  0  0  0  0  0  0  0  0  0  0  0
   -5.1857  -16.1170    0.0000 C   0  0  0  0  0  0  0  0  0  0  0  0
   -4.4712  -16.5295    0.0000 C   0  0  0  0  0  0  0  0  0  0  0  0
   -3.7568  -16.1170    0.0000 C   0  0  0  0  0  0  0  0  0  0  0  0
   -3.7568  -15.2920    0.0000 C   0  0  0  0  0  0  0  0  0  0  0  0
   -3.0423  -14.8795    0.0000 C   0  0  0  0  0  0  0  0  0  0  0  0
   -2.3279  -15.2920    0.0000 C   0  0  0  0  0  0  0  0  0  0  0  0
   -2.3279  -16.1170    0.0000 C   0  0  0  0  0  0  0  0  0  0  0  0
   -1.6134  -16.5295    0.0000 C   0  0  0  0  0  0  0  0  0  0  0  0
   -3.0423  -12.4044    0.0000 C   0  0  0  0  0  0  0  0  0  0  0  0
   -2.3279  -12.8170    0.0000 O   0  0  0  0  0  0  0  0  0  0  0  0
   -3.0423  -11.5794    0.0000 O   0  0  0  0  0  0  0  0  0  0  0  0
   -1.6134  -12.4045    0.0000 C   0  0  0  0  0  0  0  0  0  0  0  0
   -0.8989  -12.8170    0.0000 C   0  0  0  0  0  0  0  0  0  0  0  0
  1  2  2  0
  1  4  1  0
  2  3  1  0
  5  4  1  0
  5  6  1  0
  3  7  1  0
  7  8  2  0
  8  9  1  0
  9 10  1  0
 10 11  2  0
 11 12  1  0
 12 13  1  0
 13 14  2  0
 14 15  1  0
 15 16  1  0
 16 17  2  0
 17 18  1  0
 18 19  1  0
  6 20  1  0
 20 21  1  0
 20 22  2  0
 21 23  1  0
 23 24  1  0
M  END
> <chembl_id>
CHEMBL2095209

> <chembl_pref_name>
ICOSAPENT ETHYL
