
     RDKit          2D

 86 88  0  0  0  0  0  0  0  0999 V2000
    6.7149    3.5665    0.0000 C   0  0  0  0  0  0  0  0  0  0  0  0
    6.7149    4.3863    0.0000 O   0  0  0  0  0  0  0  0  0  0  0  0
    7.4238    3.1566    0.0000 O   0  0  0  0  0  0  0  0  0  0  0  0
    6.0060    3.1566    0.0000 C   0  0  0  0  0  0  0  0  0  0  0  0
   -3.4109   -1.2780    0.0000 C   0  0  0  0  0  0  0  0  0  0  0  0
   -2.5859   -1.2780    0.0000 N   0  0  0  0  0  0  0  0  0  0  0  0
   -0.3320   -1.2780    0.0000 N   0  0  0  0  0  0  0  0  0  0  0  0
    2.6364   -0.0405    0.0000 C   0  0  0  0  0  0  0  0  0  0  0  0
    4.1759   -1.2780    0.0000 N   0  0  0  0  0  0  0  0  0  0  0  0
    6.4298   -1.2780    0.0000 N   0  0  0  0  0  0  0  0  0  0  0  0
    8.6838   -1.2780    0.0000 N   0  0  0  0  0  0  0  0  0  0  0  0
   10.9377   -1.2780    0.0000 N   0  0  0  0  0  0  0  0  0  0  0  0
   13.1917   -1.2780    0.0000 N   0  0  0  0  0  0  0  0  0  0  0  0
   15.4456   -1.2780    0.0000 N   0  0  0  0  0  0  0  0  0  0  0  0
    0.3825   -0.8655    0.0000 C   0  0  0  0  0  0  0  0  0  0  0  0
    0.3825   -0.0405    0.0000 C   0  0  0  0  0  0  0  0  0  0  0  0
    1.0970    0.3720    0.0000 S   0  0  0  0  0  0  0  0  0  0  0  0
    1.0970   -1.2780    0.0000 C   0  0  0  0  0  0  0  0  0  0  0  0
    1.0970   -2.1030    0.0000 O   0  0  0  0  0  0  0  0  0  0  0  0
    4.8904   -0.8655    0.0000 C   0  0  0  0  0  0  0  0  0  0  0  0
    4.8904   -0.0405    0.0000 C   0  0  0  0  0  0  0  0  0  0  0  0
    5.6048    0.3720    0.0000 C   0  0  0  0  0  0  0  0  0  0  0  0
    5.6911    1.1925    0.0000 C   0  0  0  0  0  0  0  0  0  0  0  0
    6.4981    1.3640    0.0000 N   0  0  0  0  0  0  0  0  0  0  0  0
    6.9106    0.6495    0.0000 C   0  0  0  0  0  0  0  0  0  0  0  0
    6.3585    0.0365    0.0000 N   0  0  0  0  0  0  0  0  0  0  0  0
    5.6048   -1.2780    0.0000 C   0  0  0  0  0  0  0  0  0  0  0  0
    5.6048   -2.1030    0.0000 O   0  0  0  0  0  0  0  0  0  0  0  0
   11.6522   -0.8655    0.0000 C   0  0  0  0  0  0  0  0  0  0  0  0
   11.6522   -0.0405    0.0000 C   0  0  0  0  0  0  0  0  0  0  0  0
   12.3667    0.3720    0.0000 C   0  0  0  0  0  0  0  0  0  0  0  0
   13.1203    0.0365    0.0000 C   0  0  0  0  0  0  0  0  0  0  0  0
   13.6724    0.6495    0.0000 N   0  0  0  0  0  0  0  0  0  0  0  0
   13.2599    1.3640    0.0000 C   0  0  0  0  0  0  0  0  0  0  0  0
   12.4529    1.1925    0.0000 C   0  0  0  0  0  0  0  0  0  0  0  0
   11.9009    1.8056    0.0000 C   0  0  0  0  0  0  0  0  0  0  0  0
   12.1558    2.5902    0.0000 C   0  0  0  0  0  0  0  0  0  0  0  0
   12.9628    2.7617    0.0000 C   0  0  0  0  0  0  0  0  0  0  0  0
   13.5148    2.1486    0.0000 C   0  0  0  0  0  0  0  0  0  0  0  0
   12.3667   -1.2780    0.0000 C   0  0  0  0  0  0  0  0  0  0  0  0
   12.3667   -2.1030    0.0000 O   0  0  0  0  0  0  0  0  0  0  0  0
    9.3983   -0.8655    0.0000 C   0  0  0  0  0  0  0  0  0  0  0  0
    9.3983   -0.0405    0.0000 C   0  0  0  0  0  0  0  0  0  0  0  0
   10.1127    0.3720    0.0000 C   0  0  0  0  0  0  0  0  0  0  0  0
   10.1127    1.1970    0.0000 C   0  0  0  0  0  0  0  0  0  0  0  0
   10.8272    1.6095    0.0000 N   0  0  0  0  0  0  0  0  0  0  0  0
   10.8272    2.4345    0.0000 C   0  0  0  0  0  0  0  0  0  0  0  0
   10.1127    2.8470    0.0000 N   0  0  0  0  0  0  0  0  0  0  0  0
   11.5417    2.8470    0.0000 N   0  0  0  0  0  0  0  0  0  0  0  0
   10.1127   -1.2780    0.0000 C   0  0  0  0  0  0  0  0  0  0  0  0
   10.8272   -0.8655    0.0000 O   0  0  0  0  0  0  0  0  0  0  0  0
    2.6364   -0.8655    0.0000 C   0  0  0  0  0  0  0  0  0  0  0  0
    1.9220   -1.2780    0.0000 N   0  0  0  0  0  0  0  0  0  0  0  0
    3.3509   -1.2780    0.0000 C   0  0  0  0  0  0  0  0  0  0  0  0
    3.3509   -2.1030    0.0000 O   0  0  0  0  0  0  0  0  0  0  0  0
   13.9061   -0.8655    0.0000 C   0  0  0  0  0  0  0  0  0  0  0  0
   13.9061   -0.0405    0.0000 C   0  0  0  0  0  0  0  0  0  0  0  0
   14.6206    0.3720    0.0000 S   0  0  0  0  0  0  0  0  0  0  0  0
   14.6206   -1.2780    0.0000 C   0  0  0  0  0  0  0  0  0  0  0  0
   14.6206   -2.1030    0.0000 O   0  0  0  0  0  0  0  0  0  0  0  0
    7.1443   -0.8655    0.0000 C   0  0  0  0  0  0  0  0  0  0  0  0
    7.1443   -0.0405    0.0000 C   0  0  0  0  0  0  0  0  0  0  0  0
    7.8588    0.3720    0.0000 C   0  0  0  0  0  0  0  0  0  0  0  0
    7.8588    1.1970    0.0000 C   0  0  0  0  0  0  0  0  0  0  0  0
    8.5733    1.6095    0.0000 C   0  0  0  0  0  0  0  0  0  0  0  0
    9.2877    1.1970    0.0000 C   0  0  0  0  0  0  0  0  0  0  0  0
    9.2877    0.3720    0.0000 C   0  0  0  0  0  0  0  0  0  0  0  0
    8.5733   -0.0405    0.0000 C   0  0  0  0  0  0  0  0  0  0  0  0
    7.8588   -1.2780    0.0000 C   0  0  0  0  0  0  0  0  0  0  0  0
    7.8588   -2.1030    0.0000 O   0  0  0  0  0  0  0  0  0  0  0  0
   -1.8715   -0.8655    0.0000 C   0  0  0  0  0  0  0  0  0  0  0  0
   -1.8715   -0.0405    0.0000 C   0  0  0  0  0  0  0  0  0  0  0  0
   -1.1570    0.3720    0.0000 C   0  0  0  0  0  0  0  0  0  0  0  0
   -1.1570    1.1970    0.0000 C   0  0  0  0  0  0  0  0  0  0  0  0
   -0.4425    1.6095    0.0000 N   0  0  0  0  0  0  0  0  0  0  0  0
   -0.4425    2.4345    0.0000 C   0  0  0  0  0  0  0  0  0  0  0  0
   -1.1570    2.8470    0.0000 N   0  0  0  0  0  0  0  0  0  0  0  0
    0.2720    2.8470    0.0000 N   0  0  0  0  0  0  0  0  0  0  0  0
   -1.1570   -1.2780    0.0000 C   0  0  0  0  0  0  0  0  0  0  0  0
   -0.4425   -0.8655    0.0000 O   0  0  0  0  0  0  0  0  0  0  0  0
   -3.8234   -1.9925    0.0000 O   0  0  0  0  0  0  0  0  0  0  0  0
   -3.8234   -0.5635    0.0000 C   0  0  0  0  0  0  0  0  0  0  0  0
    3.9109    2.6073    0.0000 C   0  0  0  0  0  0  0  0  0  0  0  0
    3.9109    3.4271    0.0000 O   0  0  0  0  0  0  0  0  0  0  0  0
    4.6198    2.1973    0.0000 O   0  0  0  0  0  0  0  0  0  0  0  0
    3.2020    2.1973    0.0000 C   0  0  0  0  0  0  0  0  0  0  0  0
  2  1  2  0
  3  1  1  0
  4  1  1  0
  5  6  1  0
 79  7  1  0
 18 53  1  0
 54  9  1  0
 27 10  1  0
 69 11  1  0
 50 12  1  0
 40 13  1  0
 59 14  1  0
 15  7  1  1
 15 16  1  0
 16 17  1  0
 15 18  1  0
 18 19  2  0
 20  9  1  1
 20 21  1  0
 21 22  1  0
 22 23  2  0
 23 24  1  0
 24 25  1  0
 25 26  2  0
 22 26  1  0
 20 27  1  0
 27 28  2  0
 29 12  1  1
 29 30  1  0
 30 31  1  0
 31 32  2  0
 32 33  1  0
 33 34  1  0
 34 35  2  0
 31 35  1  0
 35 36  1  0
 36 37  2  0
 37 38  1  0
 38 39  2  0
 34 39  1  0
 29 40  1  0
 40 41  2  0
 42 11  1  1
 42 43  1  0
 43 44  1  0
 44 45  1  0
 45 46  1  0
 46 47  1  0
 47 48  1  0
 47 49  2  0
 42 50  1  0
 50 51  2  0
  8 52  1  0
 52 53  1  6
 52 54  1  0
 54 55  2  0
 56 13  1  1
 56 57  1  0
 57 58  1  0
 56 59  1  0
 59 60  2  0
 61 10  1  6
 61 62  1  0
 62 63  1  0
 63 64  2  0
 64 65  1  0
 65 66  2  0
 66 67  1  0
 67 68  2  0
 63 68  1  0
 61 69  1  0
 69 70  2  0
 71  6  1  1
 71 72  1  0
 72 73  1  0
 73 74  1  0
 74 75  1  0
 75 76  1  0
 76 77  1  0
 76 78  2  0
 71 79  1  0
 79 80  2  0
  5 81  2  0
  5 82  1  0
 17 58  1  0
 84 83  2  0
 85 83  1  0
 86 83  1  0
M  END
> <chembl_id>
CHEMBL4650273

> <chembl_pref_name>
SETMELANOTIDE ACETATE
