
     RDKit          2D

 28 33  0  0  0  0  0  0  0  0999 V2000
    4.9542   -5.6792    0.0000 C   0  0  0  0  0  0  0  0  0  0  0  0
    5.3500   -4.9750    0.0000 C   0  0  0  0  0  0  0  0  0  0  0  0
    4.1292   -5.6792    0.0000 C   0  0  0  0  0  0  0  0  0  0  0  0
    5.3667   -3.5542    0.0000 N   0  0  0  0  0  0  0  0  0  0  0  0
    5.3500   -6.3792    0.0000 C   0  0  0  0  0  0  0  0  0  0  0  0
    3.7292   -6.4042    0.0000 C   0  0  0  0  0  0  0  0  0  0  0  0
    4.9542   -4.2667    0.0000 C   0  0  0  0  0  0  0  0  0  0  0  0
    4.5917   -7.0000    0.0000 O   0  0  0  0  0  0  0  0  0  0  0  0
    3.7000   -4.9750    0.0000 C   0  0  0  0  0  0  0  0  0  0  0  0
    4.1292   -4.2667    0.0000 C   0  0  0  0  0  0  0  0  0  0  0  0
    4.5417   -4.9792    0.0000 C   0  0  0  0  0  0  0  0  0  0  0  0
    6.1625   -4.9750    0.0000 C   0  0  0  0  0  0  0  0  0  0  0  0
    6.1625   -6.3792    0.0000 C   0  0  0  0  0  0  0  0  0  0  0  0
    4.9750   -2.7917    0.0000 C   0  0  0  0  0  0  0  0  0  0  0  0
    4.5417   -3.7917    0.0000 C   0  0  0  0  0  0  0  0  0  0  0  0
    2.9042   -6.4167    0.0000 C   0  0  0  0  0  0  0  0  0  0  0  0
    4.1167   -2.7500    0.0000 C   0  0  0  0  0  0  0  0  0  0  0  0
    3.4292   -2.3042    0.0000 C   0  0  0  0  0  0  0  0  0  0  0  0
    3.3875   -3.1250    0.0000 C   0  0  0  0  0  0  0  0  0  0  0  0
    2.8750   -4.9917    0.0000 C   0  0  0  0  0  0  0  0  0  0  0  0
    6.5625   -5.6792    0.0000 C   0  0  0  0  0  0  0  0  0  0  0  0
    5.7625   -4.2750    0.0000 O   0  0  0  0  0  0  0  0  0  0  0  0
    6.5667   -7.0792    0.0000 O   0  0  0  0  0  0  0  0  0  0  0  0
    2.4792   -5.7125    0.0000 C   0  0  0  0  0  0  0  0  0  0  0  0
    6.0417   -3.0292    0.0000 C   0  0  0  0  0  0  0  0  0  0  0  0
    2.5042   -7.1417    0.0000 O   0  0  0  0  0  0  0  0  0  0  0  0
    4.4547   -3.4004    0.0000 H   0  0  0  0  0  0  0  0  0  0  0  0
    5.6863   -7.3209    0.0000 H   0  0  0  0  0  0  0  0  0  0  0  0
  2  1  1  0
  3  1  1  0
  4 15  1  0
  5  1  1  0
  6  3  1  0
  7  2  1  0
  5  8  1  0
  9  3  2  0
 10  9  1  0
  1 11  1  1
 12  2  1  0
 13  5  1  0
 14  4  1  0
 15 11  1  0
 16  6  2  0
 17 14  1  0
 18 17  1  0
 19 17  1  0
 20  9  1  0
 21 13  1  0
  2 22  1  1
 23 13  2  0
 24 20  2  0
 25  4  1  0
 26 16  1  0
  6  8  1  0
  7  4  1  0
 21 12  1  0
  7 10  1  0
 24 16  1  0
 18 19  1  0
  7 27  1  6
  5 28  1  1
M  CHG  1   4   1
M  END
> <chembl_id>
CHEMBL1186579

> <chembl_pref_name>
METHYLNALTREXONE
