
     RDKit          2D

 13 12  0  0  0  0  0  0  0  0999 V2000
    1.5833   -5.5958    0.0000 Cl  0  0  0  0  0  0  0  0  0  0  0  0
   -0.7583   -4.6625    0.0000 C   0  0  0  0  0  0  0  0  0  0  0  0
   -1.3708   -4.3208    0.0000 C   0  0  0  0  0  0  0  0  0  0  0  0
   -0.1500   -4.3125    0.0000 C   0  0  0  0  0  0  0  0  0  0  0  0
   -1.9833   -4.6708    0.0000 C   0  0  0  0  0  0  0  0  0  0  0  0
    1.0875   -4.3000    0.0000 N   0  0  0  0  0  0  0  0  0  0  0  0
   -0.1500   -3.6083    0.0000 O   0  0  0  0  0  0  0  0  0  0  0  0
   -2.6083   -4.3250    0.0000 O   0  0  0  0  0  0  0  0  0  0  0  0
   -0.7500   -5.3833    0.0000 C   0  0  0  0  0  0  0  0  0  0  0  0
   -1.3708   -5.7333    0.0000 C   0  0  0  0  0  0  0  0  0  0  0  0
    0.4750   -4.6625    0.0000 C   0  0  0  0  0  0  0  0  0  0  0  0
   -1.9833   -5.3833    0.0000 C   0  0  0  0  0  0  0  0  0  0  0  0
    1.7042   -4.6500    0.0000 C   0  0  0  0  0  0  0  0  0  0  0  0
  3  2  2  0
  4  2  1  0
  5  3  1  0
  6 11  1  0
  4  7  1  1
  8  5  1  0
  9  2  1  0
 10  9  2  0
 11  4  1  0
 12 10  1  0
 13  6  1  0
 12  5  2  0
M  END
> <chembl_id>
CHEMBL1200339

> <chembl_pref_name>
PHENYLEPHRINE HYDROCHLORIDE
