
     RDKit          2D

 17 18  0  0  0  0  0  0  0  0999 V2000
   -0.1426    2.8722    0.0000 O   0  0  0  0  0  0  0  0  0  0  0  0
   -0.1426    2.0472    0.0000 C   0  0  0  0  0  0  0  0  0  0  0  0
   -0.8571    1.6347    0.0000 C   0  0  0  0  0  0  0  0  0  0  0  0
   -1.5716    2.0472    0.0000 C   0  0  0  0  0  0  0  0  0  0  0  0
   -0.8571    0.8097    0.0000 C   0  0  0  0  0  0  0  0  0  0  0  0
    0.5719    1.6347    0.0000 N   0  0  0  0  0  0  0  0  0  0  0  0
    0.5719    0.8097    0.0000 C   0  0  0  0  0  0  0  0  0  0  0  0
    1.2863    0.3972    0.0000 O   0  0  0  0  0  0  0  0  0  0  0  0
   -0.1426    0.3972    0.0000 N   0  0  0  0  0  0  0  0  0  0  0  0
   -0.1426   -0.4278    0.0000 C   0  0  0  0  0  0  0  0  0  0  0  0
    0.5248   -0.9127    0.0000 O   0  0  0  0  0  0  0  0  0  0  0  0
    0.2699   -1.6974    0.0000 C   0  0  0  0  0  0  0  0  0  0  0  0
    0.7548   -2.3648    0.0000 C   0  0  0  0  0  0  0  0  0  0  0  0
    1.5753   -2.2786    0.0000 O   0  0  0  0  0  0  0  0  0  0  0  0
   -0.5551   -1.6974    0.0000 C   0  0  0  0  0  0  0  0  0  0  0  0
   -1.0400   -2.3648    0.0000 O   0  0  0  0  0  0  0  0  0  0  0  0
   -0.8101   -0.9127    0.0000 C   0  0  0  0  0  0  0  0  0  0  0  0
  2  1  2  0
  2  6  1  0
  2  3  1  0
  3  4  1  0
  3  5  2  0
  5  9  1  0
  7  6  1  0
  7  8  2  0
  7  9  1  0
 10  9  1  1
 10 11  1  0
 10 17  1  0
 12 11  1  0
 12 13  1  1
 15 12  1  0
 13 14  1  0
 17 15  1  0
 15 16  1  6
M  END
> <chembl_id>
CHEMBL374731

> <chembl_pref_name>
TELBIVUDINE
