
     RDKit          2D

  9  9  0  0  0  0  0  0  0  0999 V2000
    4.9125   -6.3375    0.0000 C   0  0  0  0  0  0  0  0  0  0  0  0
    4.2917   -6.7000    0.0000 C   0  0  0  0  0  0  0  0  0  0  0  0
    4.9000   -5.6292    0.0000 N   0  0  0  0  0  0  0  0  0  0  0  0
    4.3000   -7.4042    0.0000 O   0  0  0  0  0  0  0  0  0  0  0  0
    6.1375   -6.3250    0.0000 N   0  0  0  0  0  0  0  0  0  0  0  0
    3.6792   -6.3542    0.0000 N   0  0  0  0  0  0  0  0  0  0  0  0
    5.5250   -6.6792    0.0000 C   0  0  0  0  0  0  0  0  0  0  0  0
    5.5167   -5.2667    0.0000 C   0  0  0  0  0  0  0  0  0  0  0  0
    6.1292   -5.6167    0.0000 C   0  0  0  0  0  0  0  0  0  0  0  0
  2  1  1  0
  3  1  2  0
  4  2  2  0
  5  7  2  0
  6  2  1  0
  7  1  1  0
  8  3  1  0
  9  5  1  0
  9  8  2  0
M  END
> <chembl_id>
CHEMBL614

> <chembl_pref_name>
PYRAZINAMIDE
