
     RDKit          2D

 12 10  0  0  0  0  0  0  0  0999 V2000
    0.0000    1.4458    0.0000 Cl  0  0  0  0  0  0  0  0  0  0  0  0
    2.1417   -2.7875    0.0000 N   0  0  0  0  0  0  0  0  0  0  0  0
    1.0667   -1.8375    0.0000 C   0  0  0  0  0  0  0  0  0  0  0  0
   -2.7083   -1.8167    0.0000 N   0  0  0  0  0  0  0  0  0  0  0  0
   -0.2833   -2.3042    0.0000 C   0  0  0  0  0  0  0  0  0  0  0  0
    3.5000   -2.3292    0.0000 C   0  0  0  0  0  0  0  0  0  0  0  0
   -1.3500   -1.3542    0.0000 C   0  0  0  0  0  0  0  0  0  0  0  0
   -3.7875   -0.8667    0.0000 C   0  0  0  0  0  0  0  0  0  0  0  0
    1.3417   -0.4292    0.0000 C   0  0  0  0  0  0  0  0  0  0  0  0
    3.7792   -0.9167    0.0000 C   0  0  0  0  0  0  0  0  0  0  0  0
    2.7000    0.0125    0.0000 C   0  0  0  0  0  0  0  0  0  0  0  0
    0.0000    2.8833    0.0000 Cl  0  0  0  0  0  0  0  0  0  0  0  0
  3  2  2  0
  4  7  1  0
  5  3  1  0
  6  2  1  0
  7  5  1  0
  8  4  1  0
  9  3  1  0
 10  6  2  0
 11 10  1  0
  9 11  2  0
M  END
> <chembl_id>
CHEMBL1446813

> <chembl_pref_name>
BETAHISTINE HYDROCHLORIDE
