
     RDKit          2D

 17 17  0  0  0  0  0  0  0  0999 V2000
    0.2500   -2.3667    0.0000 C   0  0  0  0  0  0  0  0  0  0  0  0
    3.3417   -2.6792    0.0000 O   0  0  0  0  0  0  0  0  0  0  0  0
    0.2292   -1.6542    0.0000 O   0  0  0  0  0  0  0  0  0  0  0  0
    3.9667   -2.3167    0.0000 C   0  0  0  0  0  0  0  0  0  0  0  0
    0.8750   -2.7125    0.0000 O   0  0  0  0  0  0  0  0  0  0  0  0
    4.5792   -2.6667    0.0000 C   0  0  0  0  0  0  0  0  0  0  0  0
   -0.3583   -2.7375    0.0000 N   0  0  0  0  0  0  0  0  0  0  0  0
    2.1125   -2.6917    0.0000 C   0  0  0  0  0  0  0  0  0  0  0  0
    2.7167   -2.3292    0.0000 C   0  0  0  0  0  0  0  0  0  0  0  0
    1.4875   -2.3500    0.0000 C   0  0  0  0  0  0  0  0  0  0  0  0
    4.5792   -3.3792    0.0000 O   0  0  0  0  0  0  0  0  0  0  0  0
    2.1292   -3.4167    0.0000 O   0  0  0  0  0  0  0  0  0  0  0  0
    3.9667   -1.6042    0.0000 C   0  0  0  0  0  0  0  0  0  0  0  0
    5.1917   -2.3167    0.0000 C   0  0  0  0  0  0  0  0  0  0  0  0
    3.9667   -3.7292    0.0000 C   0  0  0  0  0  0  0  0  0  0  0  0
    4.5792   -1.2500    0.0000 C   0  0  0  0  0  0  0  0  0  0  0  0
    5.1917   -1.6000    0.0000 C   0  0  0  0  0  0  0  0  0  0  0  0
  2  9  1  0
  3  1  2  0
  4  2  1  0
  5  1  1  0
  6  4  2  0
  7  1  1  0
  8 10  1  0
  9  8  1  0
 10  5  1  0
 11  6  1  0
 12  8  1  0
 13  4  1  0
 14  6  1  0
 15 11  1  0
 16 13  2  0
 17 16  1  0
 17 14  2  0
M  END
> <chembl_id>
CHEMBL1201117

> <chembl_pref_name>
METHOCARBAMOL
