
     RDKit          2D

 32 35  0  0  0  0  0  0  0  0999 V2000
   -1.3833    0.5375    0.0000 N   0  0  0  0  0  0  0  0  0  0  0  0
   -1.3833   -0.2792    0.0000 C   0  0  0  0  0  0  0  0  0  0  0  0
   -2.0458    1.0000    0.0000 C   0  0  0  0  0  0  0  0  0  0  0  0
   -2.0458    1.8083    0.0000 C   0  0  0  0  0  0  0  0  0  0  0  0
    2.0167   -1.4500    0.0000 C   0  0  0  0  0  0  0  0  0  0  0  0
   -1.4000    2.2958    0.0000 C   0  0  0  0  0  0  0  0  0  0  0  0
    1.3292   -1.8375    0.0000 N   0  0  0  0  0  0  0  0  0  0  0  0
    2.6917   -1.8625    0.0000 C   0  0  0  0  0  0  0  0  0  0  0  0
   -0.6833   -0.6625    0.0000 C   0  0  0  0  0  0  0  0  0  0  0  0
   -1.5458    3.0458    0.0000 N   0  0  0  0  0  0  0  0  0  0  0  0
   -2.0458   -0.6417    0.0000 O   0  0  0  0  0  0  0  0  0  0  0  0
    2.0167   -0.6625    0.0000 O   0  0  0  0  0  0  0  0  0  0  0  0
    3.3417   -1.4500    0.0000 C   0  0  0  0  0  0  0  0  0  0  0  0
   -0.6833   -1.4500    0.0000 C   0  0  0  0  0  0  0  0  0  0  0  0
   -0.0083   -0.2792    0.0000 C   0  0  0  0  0  0  0  0  0  0  0  0
    0.6750   -1.4500    0.0000 C   0  0  0  0  0  0  0  0  0  0  0  0
   -0.6333    0.7208    0.0000 C   0  0  0  0  0  0  0  0  0  0  0  0
    0.6750   -0.6625    0.0000 C   0  0  0  0  0  0  0  0  0  0  0  0
   -0.0083   -1.8375    0.0000 C   0  0  0  0  0  0  0  0  0  0  0  0
   -2.7208    2.2208    0.0000 C   0  0  0  0  0  0  0  0  0  0  0  0
   -2.7208    0.6208    0.0000 C   0  0  0  0  0  0  0  0  0  0  0  0
   -0.6333    2.0833    0.0000 C   0  0  0  0  0  0  0  0  0  0  0  0
   -0.3000    1.4208    0.0000 C   0  0  0  0  0  0  0  0  0  0  0  0
    2.6917   -2.6042    0.0000 C   0  0  0  0  0  0  0  0  0  0  0  0
   -0.9625    3.5458    0.0000 C   0  0  0  0  0  0  0  0  0  0  0  0
   -2.2625    3.2958    0.0000 C   0  0  0  0  0  0  0  0  0  0  0  0
    3.3417   -0.6917    0.0000 C   0  0  0  0  0  0  0  0  0  0  0  0
    4.0167   -1.8625    0.0000 C   0  0  0  0  0  0  0  0  0  0  0  0
   -3.3833    1.7958    0.0000 C   0  0  0  0  0  0  0  0  0  0  0  0
   -3.3833    1.0000    0.0000 C   0  0  0  0  0  0  0  0  0  0  0  0
    3.3417   -3.0042    0.0000 C   0  0  0  0  0  0  0  0  0  0  0  0
    4.0167   -2.6042    0.0000 C   0  0  0  0  0  0  0  0  0  0  0  0
  2  1  1  0
  3  1  1  0
  4  3  2  0
  5  7  1  0
  6  4  1  0
  7 16  1  0
  8  5  1  0
  9  2  1  0
 10  6  1  0
 11  2  2  0
 12  5  2  0
 13  8  2  0
 14  9  1  0
 15  9  2  0
 16 18  2  0
 17  1  1  0
 18 15  1  0
 19 14  2  0
 20  4  1  0
 21  3  1  0
 22 23  1  0
 23 17  1  0
 24  8  1  0
 25 10  1  0
 26 10  1  0
 27 13  1  0
 28 13  1  0
 29 30  1  0
 30 21  2  0
 31 24  2  0
 32 31  1  0
  6 22  1  0
 20 29  2  0
 19 16  1  0
 28 32  2  0
M  END
> <chembl_id>
CHEMBL420762

> <chembl_pref_name>
MOZAVAPTAN
