
     RDKit          2D

 21 22  0  0  0  0  0  0  0  0999 V2000
    1.6250   -2.9333    0.0000 C   0  0  0  0  0  0  0  0  0  0  0  0
    0.4000   -2.9417    0.0000 S   0  0  0  0  0  0  0  0  0  0  0  0
    1.0125   -2.5833    0.0000 N   0  0  0  0  0  0  0  0  0  0  0  0
    1.8417   -3.6083    0.0000 C   0  0  0  0  0  0  0  0  0  0  0  0
    2.1958   -2.5167    0.0000 O   0  0  0  0  0  0  0  0  0  0  0  0
    2.7708   -2.9333    0.0000 N   0  0  0  0  0  0  0  0  0  0  0  0
    2.5500   -3.6083    0.0000 C   0  0  0  0  0  0  0  0  0  0  0  0
    1.0083   -1.8750    0.0000 C   0  0  0  0  0  0  0  0  0  0  0  0
   -0.2167   -2.5875    0.0000 C   0  0  0  0  0  0  0  0  0  0  0  0
    0.0417   -3.5542    0.0000 O   0  0  0  0  0  0  0  0  0  0  0  0
    0.7500   -3.5542    0.0000 O   0  0  0  0  0  0  0  0  0  0  0  0
    1.6208   -1.5208    0.0000 O   0  0  0  0  0  0  0  0  0  0  0  0
   -0.8292   -2.9417    0.0000 C   0  0  0  0  0  0  0  0  0  0  0  0
   -0.2167   -1.8750    0.0000 C   0  0  0  0  0  0  0  0  0  0  0  0
    1.2250   -3.9542    0.0000 C   0  0  0  0  0  0  0  0  0  0  0  0
   -1.4417   -1.8750    0.0000 C   0  0  0  0  0  0  0  0  0  0  0  0
   -2.0542   -1.5208    0.0000 N   0  0  0  0  0  0  0  0  0  0  0  0
   -1.4417   -2.5875    0.0000 C   0  0  0  0  0  0  0  0  0  0  0  0
   -0.8292   -1.5208    0.0000 C   0  0  0  0  0  0  0  0  0  0  0  0
    0.3958   -1.5250    0.0000 C   0  0  0  0  0  0  0  0  0  0  0  0
    3.1625   -3.9625    0.0000 C   0  0  0  0  0  0  0  0  0  0  0  0
  2  3  1  0
  3  1  1  0
  4  1  2  0
  5  1  1  0
  6  5  1  0
  7  4  1  0
  8  3  1  0
  9  2  1  0
 10  2  2  0
 11  2  2  0
 12  8  2  0
 13  9  2  0
 14  9  1  0
 15  4  1  0
 16 19  1  0
 17 16  1  0
 18 13  1  0
 19 14  2  0
 20  8  1  0
 21  7  1  0
  6  7  2  0
 18 16  2  0
M  END
> <chembl_id>
CHEMBL1200910

> <chembl_pref_name>
SULFISOXAZOLE ACETYL
