
     RDKit          2D

 17 18  0  0  0  0  0  0  0  0999 V2000
    0.0375    0.5833    0.0000 C   0  0  0  0  0  0  0  0  0  0  0  0
   -1.0625    1.2208    0.0000 C   0  0  0  0  0  0  0  0  0  0  0  0
   -2.1458    0.6000    0.0000 C   0  0  0  0  0  0  0  0  0  0  0  0
    0.0375   -0.6667    0.0000 C   0  0  0  0  0  0  0  0  0  0  0  0
    2.2417   -0.6542    0.0000 N   0  0  0  0  0  0  0  0  0  0  0  0
    2.2292    0.5500    0.0000 C   0  0  0  0  0  0  0  0  0  0  0  0
    1.1542    1.2083    0.0000 C   0  0  0  0  0  0  0  0  0  0  0  0
   -2.1458   -0.6667    0.0000 C   0  0  0  0  0  0  0  0  0  0  0  0
   -1.0625   -1.3000    0.0000 C   0  0  0  0  0  0  0  0  0  0  0  0
    1.1500    2.4458    0.0000 O   0  0  0  0  0  0  0  0  0  0  0  0
    3.2292   -1.3042    0.0000 C   0  0  0  0  0  0  0  0  0  0  0  0
   -3.2458    1.2208    0.0000 C   0  0  0  0  0  0  0  0  0  0  0  0
   -3.2458   -1.3000    0.0000 C   0  0  0  0  0  0  0  0  0  0  0  0
    3.1875   -2.5875    0.0000 C   0  0  0  0  0  0  0  0  0  0  0  0
    4.3417   -0.7292    0.0000 C   0  0  0  0  0  0  0  0  0  0  0  0
   -4.3458    0.5833    0.0000 C   0  0  0  0  0  0  0  0  0  0  0  0
   -4.3458   -0.6667    0.0000 C   0  0  0  0  0  0  0  0  0  0  0  0
  2  1  2  0
  3  2  1  0
  4  1  1  0
  5  6  1  0
  6  7  1  0
  7  1  1  0
  8  9  1  0
  9  4  2  0
 10  7  1  0
 11  5  1  0
 12  3  2  0
 13  8  2  0
 14 11  1  0
 15 11  1  0
 16 12  1  0
 17 13  1  0
  3  8  1  0
 16 17  2  0
M  END
> <chembl_id>
CHEMBL16476

> <chembl_pref_name>
PRONETALOL
