
     RDKit          2D

 36 37  0  0  0  0  0  0  0  0999 V2000
    6.8792   -1.7500    0.0000 Na  0  0  0  0  0 15  0  0  0  0  0  0
    3.1042   -2.6917    0.0000 C   0  0  0  0  0  0  0  0  0  0  0  0
    1.8667   -3.3917    0.0000 C   0  0  0  0  0  0  0  0  0  0  0  0
    1.2500   -3.7500    0.0000 C   0  0  0  0  0  0  0  0  0  0  0  0
    3.0917   -3.4042    0.0000 C   0  0  0  0  0  0  0  0  0  0  0  0
    3.7792   -2.4792    0.0000 C   0  0  0  0  0  0  0  0  0  0  0  0
    2.4792   -3.7542    0.0000 C   0  0  0  0  0  0  0  0  0  0  0  0
    1.2500   -4.4542    0.0000 C   0  0  0  0  0  0  0  0  0  0  0  0
    5.6167   -1.3667    0.0000 P   0  0  0  0  0  0  0  0  0  0  0  0
    1.8667   -2.6792    0.0000 C   0  0  0  0  0  0  0  0  0  0  0  0
    2.4875   -2.3292    0.0000 C   0  0  0  0  0  0  0  0  0  0  0  0
    4.1917   -3.0542    0.0000 C   0  0  0  0  0  0  0  0  0  0  0  0
    0.6292   -3.3917    0.0000 C   0  0  0  0  0  0  0  0  0  0  0  0
    3.7667   -3.6292    0.0000 C   0  0  0  0  0  0  0  0  0  0  0  0
    3.7792   -1.7667    0.0000 C   0  0  0  0  0  0  0  0  0  0  0  0
    0.6292   -4.8167    0.0000 C   0  0  0  0  0  0  0  0  0  0  0  0
    2.4750   -4.4667    0.0000 C   0  0  0  0  0  0  0  0  0  0  0  0
    0.0167   -3.7500    0.0000 C   0  0  0  0  0  0  0  0  0  0  0  0
    0.0167   -4.4542    0.0000 C   0  0  0  0  0  0  0  0  0  0  0  0
    4.3875   -1.4000    0.0000 C   0  0  0  0  0  0  0  0  0  0  0  0
    5.0125   -1.7417    0.0000 O   0  0  0  0  0  0  0  0  0  0  0  0
    5.2542   -0.7500    0.0000 O   0  0  0  0  0  0  0  0  0  0  0  0
    6.2500   -1.7167    0.0000 O   0  0  0  0  0  0  0  0  0  0  0  0
    1.8625   -4.8167    0.0000 C   0  0  0  0  0  0  0  0  0  0  0  0
    5.9667   -0.7500    0.0000 O   0  0  0  0  0  0  0  0  0  0  0  0
    1.8542   -4.1042    0.0000 F   0  0  0  0  0  0  0  0  0  0  0  0
    3.1542   -1.4167    0.0000 O   0  0  0  0  0  0  0  0  0  0  0  0
   -0.6000   -4.8167    0.0000 O   0  0  0  0  0  0  0  0  0  0  0  0
    4.3917   -2.1167    0.0000 O   0  0  0  0  0  0  0  0  0  0  0  0
    3.1000   -1.9792    0.0000 C   0  0  0  0  0  0  0  0  0  0  0  0
    1.2542   -2.3167    0.0000 O   0  0  0  0  0  0  0  0  0  0  0  0
    1.2417   -3.0375    0.0000 C   0  0  0  0  0  0  0  0  0  0  0  0
    4.9042   -3.0667    0.0000 C   0  0  0  0  0  0  0  0  0  0  0  0
    3.0875   -4.1167    0.0000 H   0  0  0  0  0  0  0  0  0  0  0  0
    2.4667   -3.0375    0.0000 H   0  0  0  0  0  0  0  0  0  0  0  0
    4.4750   -0.7125    0.0000 Na  0  0  0  0  0 15  0  0  0  0  0  0
  3 10  1  0
  4  3  1  0
  5  2  1  0
  6  2  1  0
  7  5  1  0
  8  4  1  0
  9 21  1  0
 10 11  1  0
 11  2  1  0
 12  6  1  0
 13  4  1  0
 14  5  1  0
 15  6  1  0
 16  8  2  0
 17  7  1  0
 18 13  2  0
 19 18  1  0
 20 15  1  0
 21 20  1  0
 22  9  1  0
 23  9  1  0
 24 17  1  0
 25  9  2  0
  3 26  1  6
 27 15  2  0
 28 19  2  0
  6 29  1  6
  2 30  1  1
 10 31  1  1
  4 32  1  1
 12 33  1  1
  5 34  1  6
  7 35  1  1
 14 12  1  0
  7  3  1  0
  8 24  1  0
 16 19  1  0
M  CHG  4   1   1  22  -1  23  -1  36   1
M  END
> <chembl_id>
CHEMBL1200762

> <chembl_pref_name>
BETAMETHASONE SODIUM PHOSPHATE
