
     RDKit          2D

 63 65  0  0  0  0  0  0  0  0999 V2000
    0.8292   -2.9000    0.0000 C   0  0  0  0  0  0  0  0  0  0  0  0
    1.1833   -2.2875    0.0000 C   0  0  0  0  0  0  0  0  0  0  0  0
   -1.0833   -1.1917    0.0000 C   0  0  0  0  0  0  0  0  0  0  0  0
   -2.3000   -1.1917    0.0000 C   0  0  0  0  0  0  0  0  0  0  0  0
   -2.9125    0.5708    0.0000 C   0  0  0  0  0  0  0  0  0  0  0  0
   -1.6875   -1.5417    0.0000 C   0  0  0  0  0  0  0  0  0  0  0  0
   -0.4708   -0.1375    0.0000 C   0  0  0  0  0  0  0  0  0  0  0  0
   -1.0833   -0.4875    0.0000 C   0  0  0  0  0  0  0  0  0  0  0  0
   -2.3000    1.6208    0.0000 C   0  0  0  0  0  0  0  0  0  0  0  0
   -2.3000   -0.4917    0.0000 O   0  0  0  0  0  0  0  0  0  0  0  0
   -2.3000    0.9125    0.0000 C   0  0  0  0  0  0  0  0  0  0  0  0
    0.1250   -2.9000    0.0000 C   0  0  0  0  0  0  0  0  0  0  0  0
   -1.6958    1.9708    0.0000 C   0  0  0  0  0  0  0  0  0  0  0  0
    1.1792   -1.3417    0.0000 O   0  0  0  0  0  0  0  0  0  0  0  0
   -2.4708   -4.2750    0.0000 C   0  0  0  0  0  0  0  0  0  0  0  0
   -0.4708    0.5708    0.0000 C   0  0  0  0  0  0  0  0  0  0  0  0
   -1.4083   -3.6625    0.0000 C   0  0  0  0  0  0  0  0  0  0  0  0
   -1.7583   -4.2750    0.0000 C   0  0  0  0  0  0  0  0  0  0  0  0
    0.8292   -1.6750    0.0000 O   0  0  0  0  0  0  0  0  0  0  0  0
   -1.7583   -3.0500    0.0000 O   0  0  0  0  0  0  0  0  0  0  0  0
   -2.9125   -0.1417    0.0000 C   0  0  0  0  0  0  0  0  0  0  0  0
   -2.8250   -3.6625    0.0000 C   0  0  0  0  0  0  0  0  0  0  0  0
   -0.4667   -1.5417    0.0000 O   0  0  0  0  0  0  0  0  0  0  0  0
   -2.4708   -3.0500    0.0000 C   0  0  0  0  0  0  0  0  0  0  0  0
   -1.0833    1.6208    0.0000 C   0  0  0  0  0  0  0  0  0  0  0  0
    1.1875   -3.5125    0.0000 O   0  0  0  0  0  0  0  0  0  0  0  0
   -1.0833    0.9208    0.0000 C   0  0  0  0  0  0  0  0  0  0  0  0
   -0.2333   -2.2875    0.0000 C   0  0  0  0  0  0  0  0  0  0  0  0
    1.1792   -4.2167    0.0000 C   0  0  0  0  0  0  0  0  0  0  0  0
   -0.2292   -3.5125    0.0000 N   0  0  0  0  0  0  0  0  0  0  0  0
   -2.9167   -1.5500    0.0000 O   0  0  0  0  0  0  0  0  0  0  0  0
    3.0208   -4.5833    0.0000 C   0  0  0  0  0  0  0  0  0  0  0  0
    0.1250   -1.6750    0.0000 C   0  0  0  0  0  0  0  0  0  0  0  0
   -1.6958    2.6833    0.0000 O   0  0  0  0  0  0  0  0  0  0  0  0
    0.5667   -4.5708    0.0000 O   0  0  0  0  0  0  0  0  0  0  0  0
    3.0167   -5.2917    0.0000 O   0  0  0  0  0  0  0  0  0  0  0  0
   -3.2708    1.1833    0.0000 O   0  0  0  0  0  0  0  0  0  0  0  0
   -0.1208    1.1833    0.0000 O   0  0  0  0  0  0  0  0  0  0  0  0
   -1.6917    0.5583    0.0000 O   0  0  0  0  0  0  0  0  0  0  0  0
   -3.0833   -4.6250    0.0000 O   0  0  0  0  0  0  0  0  0  0  0  0
   -3.5333   -3.6625    0.0000 O   0  0  0  0  0  0  0  0  0  0  0  0
    1.7917   -4.5750    0.0000 C   0  0  0  0  0  0  0  0  0  0  0  0
    2.4083   -4.2250    0.0000 C   0  0  0  0  0  0  0  0  0  0  0  0
   -3.6208    0.5708    0.0000 C   0  0  0  0  0  0  0  0  0  0  0  0
   -1.6875   -2.2542    0.0000 C   0  0  0  0  0  0  0  0  0  0  0  0
   -1.6958   -0.1292    0.0000 C   0  0  0  0  0  0  0  0  0  0  0  0
   -2.9167    1.9708    0.0000 C   0  0  0  0  0  0  0  0  0  0  0  0
    3.6333   -4.2333    0.0000 O   0  0  0  0  0  0  0  0  0  0  0  0
   -2.4708   -4.9792    0.0000 C   0  0  0  0  0  0  0  0  0  0  0  0
    0.2417    0.5708    0.0000 C   0  0  0  0  0  0  0  0  0  0  0  0
   -3.5292   -0.4958    0.0000 C   0  0  0  0  0  0  0  0  0  0  0  0
   -2.8208   -2.4333    0.0000 C   0  0  0  0  0  0  0  0  0  0  0  0
   -0.4667    1.9792    0.0000 C   0  0  0  0  0  0  0  0  0  0  0  0
   -0.9375   -3.5125    0.0000 C   0  0  0  0  0  0  0  0  0  0  0  0
    0.1250   -4.1250    0.0000 C   0  0  0  0  0  0  0  0  0  0  0  0
   -0.2292   -1.0583    0.0000 C   0  0  0  0  0  0  0  0  0  0  0  0
    4.2458   -4.5917    0.0000 C   0  0  0  0  0  0  0  0  0  0  0  0
   -3.6958   -4.2625    0.0000 C   0  0  0  0  0  0  0  0  0  0  0  0
   -4.1417   -0.1417    0.0000 C   0  0  0  0  0  0  0  0  0  0  0  0
    4.8625   -4.2417    0.0000 C   0  0  0  0  0  0  0  0  0  0  0  0
    1.7917   -2.6417    0.0000 H   0  0  0  0  0  0  0  0  0  0  0  0
    0.2417   -0.1375    0.0000 H   0  0  0  0  0  0  0  0  0  0  0  0
   -0.7958   -4.0167    0.0000 H   0  0  0  0  0  0  0  0  0  0  0  0
  2  1  1  0
  3  8  1  0
  4  6  1  0
  5 21  1  0
  6  3  1  0
  7 14  1  0
  8  7  1  0
  9 13  1  0
 10  4  1  0
 11  9  1  0
 12  1  1  0
 13 25  1  0
 14  2  1  0
 15 18  1  0
 16  7  1  0
 17 23  1  0
 18 17  1  0
 19  2  1  0
 20 17  1  0
 21 10  1  0
 22 24  1  0
  3 23  1  6
 24 20  1  0
 25 27  1  0
  1 26  1  6
 27 16  1  0
 28 12  1  0
 29 26  1  0
 12 30  1  1
 31  4  2  0
 32 43  1  0
 33 28  1  0
 34 13  2  0
 35 29  2  0
 36 32  2  0
  5 37  1  1
 16 38  1  1
 11 39  1  1
 15 40  1  1
 22 41  1  1
 42 29  1  0
 43 42  1  0
 44  5  1  0
  6 45  1  1
  8 46  1  6
  9 47  1  1
 48 32  1  0
 49 15  1  0
 50 16  1  0
 21 51  1  6
 24 52  1  6
 25 53  1  6
 54 30  1  0
 55 30  1  0
 33 56  1  1
 57 48  1  0
 58 40  1  0
 59 51  1  0
 60 57  1  0
  2 61  1  6
  7 62  1  1
 17 63  1  6
 33 19  1  0
  5 11  1  0
 22 15  1  0
M  END
> <chembl_id>
CHEMBL1200688

> <chembl_pref_name>
ERYTHROMYCIN ETHYLSUCCINATE
