
     RDKit          2D

 30 33  0  0  0  0  0  0  0  0999 V2000
  -18.4152   -1.4683    0.0000 C   0  0  0  0  0  0  0  0  0  0  0  0
  -18.8277   -2.1828    0.0000 C   0  0  0  0  0  0  0  0  0  0  0  0
  -18.0027   -2.1828    0.0000 C   0  0  0  0  0  0  0  0  0  0  0  0
  -19.5421   -1.7703    0.0000 C   0  0  0  0  0  0  0  0  0  0  0  0
  -20.2566   -2.1828    0.0000 O   0  0  0  0  0  0  0  0  0  0  0  0
  -17.2882   -1.7703    0.0000 C   0  0  0  0  0  0  0  0  0  0  0  0
  -16.5738   -2.1828    0.0000 N   0  0  0  0  0  0  0  0  0  0  0  0
  -17.2882   -0.9453    0.0000 O   0  0  0  0  0  0  0  0  0  0  0  0
  -15.8593   -1.7703    0.0000 C   0  0  0  0  0  0  0  0  0  0  0  0
  -15.1448   -2.1828    0.0000 N   0  0  0  0  0  0  0  0  0  0  0  0
  -14.4303   -1.7703    0.0000 C   0  0  0  0  0  0  0  0  0  0  0  0
  -14.4304   -0.9453    0.0000 C   0  0  0  0  0  0  0  0  0  0  0  0
  -15.1448   -0.5328    0.0000 C   0  0  0  0  0  0  0  0  0  0  0  0
  -15.8593   -0.9453    0.0000 C   0  0  0  0  0  0  0  0  0  0  0  0
  -13.7159   -0.5328    0.0000 F   0  0  0  0  0  0  0  0  0  0  0  0
  -20.9711   -1.7703    0.0000 C   0  0  0  0  0  0  0  0  0  0  0  0
  -20.9711   -0.9453    0.0000 C   0  0  0  0  0  0  0  0  0  0  0  0
  -21.6855   -0.5328    0.0000 N   0  0  0  0  0  0  0  0  0  0  0  0
  -22.4000   -0.9453    0.0000 C   0  0  0  0  0  0  0  0  0  0  0  0
  -22.4000   -1.7703    0.0000 N   0  0  0  0  0  0  0  0  0  0  0  0
  -21.6856   -2.1828    0.0000 C   0  0  0  0  0  0  0  0  0  0  0  0
  -23.1145   -0.5328    0.0000 C   0  0  0  0  0  0  0  0  0  0  0  0
  -20.2566   -0.5328    0.0000 C   0  0  0  0  0  0  0  0  0  0  0  0
  -19.0412   -2.9797    0.0000 C   0  0  0  0  0  0  0  0  0  0  0  0
  -19.8381   -3.1932    0.0000 C   0  0  0  0  0  0  0  0  0  0  0  0
  -20.0516   -3.9901    0.0000 C   0  0  0  0  0  0  0  0  0  0  0  0
  -19.4682   -4.5735    0.0000 C   0  0  0  0  0  0  0  0  0  0  0  0
  -18.6713   -4.3600    0.0000 C   0  0  0  0  0  0  0  0  0  0  0  0
  -18.4578   -3.5631    0.0000 C   0  0  0  0  0  0  0  0  0  0  0  0
  -18.0880   -4.9433    0.0000 F   0  0  0  0  0  0  0  0  0  0  0  0
  1  2  1  0
  2  3  1  0
  3  1  1  0
  2  4  1  1
  4  5  1  0
  3  6  1  1
  6  7  1  0
  6  8  2  0
  7  9  1  0
  9 10  1  0
  9 14  2  0
 10 11  2  0
 11 12  1  0
 12 13  2  0
 13 14  1  0
 12 15  1  0
  5 16  1  0
 16 17  1  0
 16 21  2  0
 17 18  2  0
 18 19  1  0
 19 20  2  0
 20 21  1  0
 19 22  1  0
 17 23  1  0
  2 24  1  0
 24 25  1  0
 24 29  2  0
 25 26  2  0
 26 27  1  0
 27 28  2  0
 28 29  1  0
 28 30  1  0
M  END
> <chembl_id>
CHEMBL3545367

> <chembl_pref_name>
LEMBOREXANT
