
     RDKit          2D

 22 24  0  0  0  0  0  0  0  0999 V2000
    0.6167   -0.9792    0.0000 C   0  0  0  0  0  0  0  0  0  0  0  0
    1.2375   -0.6250    0.0000 C   0  0  0  0  0  0  0  0  0  0  0  0
    2.4667   -0.6167    0.0000 N   0  0  0  0  0  0  0  0  0  0  0  0
    0.9750   -1.5917    0.0000 C   0  0  0  0  0  0  0  0  0  0  0  0
    1.8542   -0.9750    0.0000 C   0  0  0  0  0  0  0  0  0  0  0  0
    0.0042   -0.6250    0.0000 C   0  0  0  0  0  0  0  0  0  0  0  0
    0.2625   -1.5917    0.0000 O   0  0  0  0  0  0  0  0  0  0  0  0
    3.0792   -0.9750    0.0000 C   0  0  0  0  0  0  0  0  0  0  0  0
    2.4625    0.0958    0.0000 C   0  0  0  0  0  0  0  0  0  0  0  0
    0.6167   -2.2042    0.0000 C   0  0  0  0  0  0  0  0  0  0  0  0
    1.6750   -1.5917    0.0000 C   0  0  0  0  0  0  0  0  0  0  0  0
   -0.6083   -0.9792    0.0000 C   0  0  0  0  0  0  0  0  0  0  0  0
    0.0042    0.0875    0.0000 C   0  0  0  0  0  0  0  0  0  0  0  0
    3.0792    0.4458    0.0000 C   0  0  0  0  0  0  0  0  0  0  0  0
    3.6917   -0.6167    0.0000 C   0  0  0  0  0  0  0  0  0  0  0  0
    2.0292   -2.2042    0.0000 C   0  0  0  0  0  0  0  0  0  0  0  0
    0.9667   -2.8167    0.0000 C   0  0  0  0  0  0  0  0  0  0  0  0
   -1.2208   -0.6250    0.0000 C   0  0  0  0  0  0  0  0  0  0  0  0
   -0.6083    0.4458    0.0000 C   0  0  0  0  0  0  0  0  0  0  0  0
    1.6750   -2.8167    0.0000 C   0  0  0  0  0  0  0  0  0  0  0  0
    3.6917    0.0875    0.0000 C   0  0  0  0  0  0  0  0  0  0  0  0
   -1.2208    0.0875    0.0000 C   0  0  0  0  0  0  0  0  0  0  0  0
  2  1  1  0
  3  5  1  0
  4  1  1  0
  5  2  1  0
  6  1  1  0
  7  1  1  0
  8  3  1  0
  9  3  1  0
 10  4  2  0
 11  4  1  0
 12  6  1  0
 13  6  1  0
 14  9  1  0
 15  8  1  0
 16 11  2  0
 17 10  1  0
 18 12  1  0
 19 13  1  0
 20 17  2  0
 21 15  1  0
 22 18  1  0
 22 19  1  0
 20 16  1  0
 21 14  1  0
M  END
> <chembl_id>
CHEMBL1490

> <chembl_pref_name>
TRIHEXYPHENIDYL
