
     RDKit          2D

 20 21  0  0  0  0  0  0  0  0999 V2000
    0.7167   -1.6542    0.0000 N   0  0  0  0  0  0  0  0  0  0  0  0
    0.7167   -2.3667    0.0000 C   0  0  0  0  0  0  0  0  0  0  0  0
    0.1000   -1.3042    0.0000 C   0  0  0  0  0  0  0  0  0  0  0  0
    0.1000   -0.5917    0.0000 C   0  0  0  0  0  0  0  0  0  0  0  0
    1.3250   -0.5875    0.0000 C   0  0  0  0  0  0  0  0  0  0  0  0
    0.7125   -0.2292    0.0000 C   0  0  0  0  0  0  0  0  0  0  0  0
    0.1042   -2.7167    0.0000 C   0  0  0  0  0  0  0  0  0  0  0  0
    1.3292   -2.7125    0.0000 C   0  0  0  0  0  0  0  0  0  0  0  0
   -0.5125   -0.2375    0.0000 C   0  0  0  0  0  0  0  0  0  0  0  0
    1.3292   -1.2917    0.0000 O   0  0  0  0  0  0  0  0  0  0  0  0
   -0.5125   -1.6542    0.0000 C   0  0  0  0  0  0  0  0  0  0  0  0
   -1.1250   -0.5917    0.0000 C   0  0  0  0  0  0  0  0  0  0  0  0
    1.9417   -2.3542    0.0000 Cl  0  0  0  0  0  0  0  0  0  0  0  0
   -0.5083   -2.3667    0.0000 F   0  0  0  0  0  0  0  0  0  0  0  0
    1.9375   -0.2292    0.0000 O   0  0  0  0  0  0  0  0  0  0  0  0
   -1.1250   -1.3042    0.0000 C   0  0  0  0  0  0  0  0  0  0  0  0
    0.7167   -3.7792    0.0000 C   0  0  0  0  0  0  0  0  0  0  0  0
    1.3292   -3.4167    0.0000 C   0  0  0  0  0  0  0  0  0  0  0  0
    0.1042   -3.4292    0.0000 C   0  0  0  0  0  0  0  0  0  0  0  0
   -1.7375   -0.2375    0.0000 C   0  0  0  0  0  0  0  0  0  0  0  0
  2  1  1  0
  3  1  1  0
  4  3  1  0
  5  6  1  0
  6  4  1  0
  7  2  2  0
  8  2  1  0
  9  4  2  0
 10  5  2  0
 11  3  2  0
 12 16  2  0
 13  8  1  0
 14  7  1  0
 15  5  1  0
 16 11  1  0
 17 18  1  0
 18  8  2  0
 19  7  1  0
 20 12  1  0
 17 19  2  0
 12  9  1  0
M  END
> <chembl_id>
CHEMBL404108

> <chembl_pref_name>
LUMIRACOXIB
