
     RDKit          2D

 24 19  0  0  0  0  0  0  0  0999 V2000
    1.8482   -2.8661    0.0000 O   0  0  0  0  0  0  0  0  0  0  0  0
   -2.1250    0.9083    0.0000 C   0  0  0  0  0  0  0  0  0  0  0  0
   -1.4105    1.3208    0.0000 C   0  0  0  0  0  0  0  0  0  0  0  0
   -0.6961    0.9083    0.0000 N   0  0  0  0  0  0  0  0  0  0  0  0
    0.0184    1.3208    0.0000 C   0  0  0  0  0  0  0  0  0  0  0  0
    0.7329    0.9083    0.0000 C   0  0  0  0  0  0  0  0  0  0  0  0
    1.4474    1.3208    0.0000 O   0  0  0  0  0  0  0  0  0  0  0  0
    0.7329    0.0833    0.0000 O   0  0  0  0  0  0  0  0  0  0  0  0
   -2.8395    1.3208    0.0000 O   0  0  0  0  0  0  0  0  0  0  0  0
   -2.1250    0.0833    0.0000 O   0  0  0  0  0  0  0  0  0  0  0  0
   -0.6961    0.0833    0.0000 C   0  0  0  0  0  0  0  0  0  0  0  0
   -1.4105   -0.3292    0.0000 C   0  0  0  0  0  0  0  0  0  0  0  0
   -1.4105   -1.1542    0.0000 N   0  0  0  0  0  0  0  0  0  0  0  0
   -0.6961   -1.5667    0.0000 C   0  0  0  0  0  0  0  0  0  0  0  0
   -2.1250   -1.5667    0.0000 C   0  0  0  0  0  0  0  0  0  0  0  0
   -2.8395   -1.1542    0.0000 C   0  0  0  0  0  0  0  0  0  0  0  0
   -3.5539   -1.5667    0.0000 O   0  0  0  0  0  0  0  0  0  0  0  0
   -2.8395   -0.3292    0.0000 O   0  0  0  0  0  0  0  0  0  0  0  0
   -0.6961   -2.3917    0.0000 C   0  0  0  0  0  0  0  0  0  0  0  0
    0.0184   -2.8042    0.0000 O   0  0  0  0  0  0  0  0  0  0  0  0
   -1.4105   -2.8042    0.0000 O   0  0  0  0  0  0  0  0  0  0  0  0
    3.3417    0.4708    0.0000 Na  0  0  0  0  0 15  0  0  0  0  0  0
    3.6833   -1.5292    0.0000 Na  0  0  0  0  0 15  0  0  0  0  0  0
    2.1964   -1.9286    0.0000 O   0  0  0  0  0  0  0  0  0  0  0  0
 11 12  1  0
  5  6  1  0
 12 13  1  0
  2  3  1  0
 13 14  1  0
  6  7  1  0
 13 15  1  0
 15 16  1  0
  6  8  2  0
 16 17  1  0
  3  4  1  0
 16 18  2  0
  2  9  1  0
 14 19  1  0
 19 20  1  0
  2 10  2  0
 19 21  2  0
  4  5  1  0
  4 11  1  0
M  CHG  4   7  -1  20  -1  22   1  23   1
M  END
> <chembl_id>
CHEMBL3989507

> <chembl_pref_name>
EDETATE DISODIUM
