
     RDKit          2D

 12 11  0  0  0  0  0  0  0  0999 V2000
    5.5167   -5.0000    0.0000 Cl  0  0  0  0  0  0  0  0  0  0  0  0
    3.8292   -5.1792    0.0000 N   0  0  0  0  0  0  0  0  0  0  0  0
    3.2167   -4.1292    0.0000 C   0  0  0  0  0  0  0  0  0  0  0  0
    2.6000   -4.4917    0.0000 C   0  0  0  0  0  0  0  0  0  0  0  0
    3.8292   -4.4792    0.0000 C   0  0  0  0  0  0  0  0  0  0  0  0
    4.4292   -5.5292    0.0000 C   0  0  0  0  0  0  0  0  0  0  0  0
    1.9792   -4.1292    0.0000 C   0  0  0  0  0  0  0  0  0  0  0  0
    2.6000   -5.2042    0.0000 C   0  0  0  0  0  0  0  0  0  0  0  0
    4.4375   -4.1167    0.0000 C   0  0  0  0  0  0  0  0  0  0  0  0
    1.3667   -4.4917    0.0000 C   0  0  0  0  0  0  0  0  0  0  0  0
    1.9792   -5.5667    0.0000 C   0  0  0  0  0  0  0  0  0  0  0  0
    1.3667   -5.2042    0.0000 C   0  0  0  0  0  0  0  0  0  0  0  0
  3  5  1  0
  4  3  1  0
  5  2  1  6
  6  2  1  0
  7  4  1  0
  8  4  2  0
  9  5  1  0
 10  7  2  0
 11  8  1  0
 12 10  1  0
 12 11  2  0
M  END
> <chembl_id>
CHEMBL1200952

> <chembl_pref_name>
METHAMPHETAMINE HYDROCHLORIDE
