
     RDKit          2D

 32 34  0  0  0  0  0  0  0  0999 V2000
    0.1958    4.8792    0.0000 C   0  0  0  0  0  0  0  0  0  0  0  0
    0.1958    5.7042    0.0000 C   0  0  0  0  0  0  0  0  0  0  0  0
   -1.2333    2.4083    0.0000 C   0  0  0  0  0  0  0  0  0  0  0  0
   -0.5208   -3.7792    0.0000 C   0  0  0  0  0  0  0  0  0  0  0  0
   -0.5208   -2.9542    0.0000 C   0  0  0  0  0  0  0  0  0  0  0  0
   -1.2333    3.2333    0.0000 N   0  0  0  0  0  0  0  0  0  0  0  0
   -1.2333   -2.5417    0.0000 C   0  0  0  0  0  0  0  0  0  0  0  0
    0.9083    4.4667    0.0000 C   0  0  0  0  0  0  0  0  0  0  0  0
   -1.9500    1.9958    0.0000 N   0  0  0  0  0  0  0  0  0  0  0  0
   -0.5208    4.4667    0.0000 C   0  0  0  0  0  0  0  0  0  0  0  0
    0.1958   -2.5417    0.0000 N   0  0  0  0  0  0  0  0  0  0  0  0
   -1.2333   -1.7167    0.0000 C   0  0  0  0  0  0  0  0  0  0  0  0
   -0.5208    3.6458    0.0000 C   0  0  0  0  0  0  0  0  0  0  0  0
   -0.5208    1.9958    0.0000 O   0  0  0  0  0  0  0  0  0  0  0  0
    0.1958   -4.1917    0.0000 O   0  0  0  0  0  0  0  0  0  0  0  0
   -1.9500   -1.3042    0.0000 O   0  0  0  0  0  0  0  0  0  0  0  0
    1.0208    5.7042    0.0000 F   0  0  0  0  0  0  0  0  0  0  0  0
    0.1958    6.5292    0.0000 F   0  0  0  0  0  0  0  0  0  0  0  0
   -0.6292    5.7042    0.0000 F   0  0  0  0  0  0  0  0  0  0  0  0
    0.9083    3.6458    0.0000 C   0  0  0  0  0  0  0  0  0  0  0  0
   -1.2333   -4.1917    0.0000 N   0  0  0  0  0  0  0  0  0  0  0  0
   -1.9500    1.1708    0.0000 C   0  0  0  0  0  0  0  0  0  0  0  0
   -1.9500   -0.4792    0.0000 C   0  0  0  0  0  0  0  0  0  0  0  0
    0.1958   -1.7167    0.0000 C   0  0  0  0  0  0  0  0  0  0  0  0
    0.1958    3.2333    0.0000 C   0  0  0  0  0  0  0  0  0  0  0  0
    1.6250    4.8792    0.0000 Cl  0  0  0  0  0  0  0  0  0  0  0  0
   -0.5208   -1.3042    0.0000 C   0  0  0  0  0  0  0  0  0  0  0  0
   -1.2333    0.7583    0.0000 C   0  0  0  0  0  0  0  0  0  0  0  0
   -2.6625    0.7583    0.0000 C   0  0  0  0  0  0  0  0  0  0  0  0
   -1.2333   -0.0667    0.0000 C   0  0  0  0  0  0  0  0  0  0  0  0
   -2.6625   -0.0667    0.0000 C   0  0  0  0  0  0  0  0  0  0  0  0
   -1.2333   -5.0167    0.0000 C   0  0  0  0  0  0  0  0  0  0  0  0
  2  1  1  0
  3  6  1  0
  4  5  1  0
  5  7  2  0
  6 13  1  0
  7 12  1  0
  8  1  1  0
  9  3  1  0
 10  1  2  0
 11 24  2  0
 12 16  1  0
 13 10  1  0
 14  3  2  0
 15  4  2  0
 16 23  1  0
 17  2  1  0
 18  2  1  0
 19  2  1  0
 20  8  2  0
 21  4  1  0
 22  9  1  0
 23 30  1  0
 24 27  1  0
 25 13  2  0
 26  8  1  0
 27 12  2  0
 28 22  1  0
 29 22  2  0
 30 28  2  0
 31 29  1  0
 32 21  1  0
 25 20  1  0
 23 31  2  0
  5 11  1  0
M  END
> <chembl_id>
CHEMBL1336

> <chembl_pref_name>
SORAFENIB
