
     RDKit          2D

 28 29  0  0  0  0  0  0  0  0999 V2000
    4.0292   -6.5792    0.0000 C   0  0  0  0  0  0  0  0  0  0  0  0
    4.0292   -7.2917    0.0000 C   0  0  0  0  0  0  0  0  0  0  0  0
    5.2542   -5.1667    0.0000 N   0  0  0  0  0  0  0  0  0  0  0  0
    6.2000   -4.5000    0.0000 N   0  0  0  0  0  0  0  0  0  0  0  0
    4.6417   -6.2167    0.0000 C   0  0  0  0  0  0  0  0  0  0  0  0
    5.4875   -4.4875    0.0000 C   0  0  0  0  0  0  0  0  0  0  0  0
    3.4125   -7.6417    0.0000 C   0  0  0  0  0  0  0  0  0  0  0  0
    3.4125   -6.2250    0.0000 C   0  0  0  0  0  0  0  0  0  0  0  0
    4.6500   -5.5042    0.0000 C   0  0  0  0  0  0  0  0  0  0  0  0
    5.2500   -6.5792    0.0000 O   0  0  0  0  0  0  0  0  0  0  0  0
    6.4125   -5.1792    0.0000 C   0  0  0  0  0  0  0  0  0  0  0  0
    5.8292   -5.5792    0.0000 C   0  0  0  0  0  0  0  0  0  0  0  0
    2.7917   -7.2917    0.0000 C   0  0  0  0  0  0  0  0  0  0  0  0
    4.6417   -7.6417    0.0000 Cl  0  0  0  0  0  0  0  0  0  0  0  0
    2.7917   -6.5750    0.0000 C   0  0  0  0  0  0  0  0  0  0  0  0
    5.8750   -6.2250    0.0000 C   0  0  0  0  0  0  0  0  0  0  0  0
    7.7250   -7.3042    0.0000 C   0  0  0  0  0  0  0  0  0  0  0  0
    6.4917   -6.5792    0.0000 C   0  0  0  0  0  0  0  0  0  0  0  0
    2.1750   -7.6417    0.0000 Cl  0  0  0  0  0  0  0  0  0  0  0  0
    8.3375   -7.6542    0.0000 Cl  0  0  0  0  0  0  0  0  0  0  0  0
    7.7292   -6.5792    0.0000 C   0  0  0  0  0  0  0  0  0  0  0  0
    7.1042   -7.6500    0.0000 C   0  0  0  0  0  0  0  0  0  0  0  0
    7.1042   -6.2250    0.0000 C   0  0  0  0  0  0  0  0  0  0  0  0
    6.4875   -7.2917    0.0000 C   0  0  0  0  0  0  0  0  0  0  0  0
    9.1917   -6.4875    0.0000 N   0  0  0  0  0  0  0  0  0  0  0  0
    8.5750   -6.1417    0.0000 O   0  0  0  0  0  0  0  0  0  0  0  0
    9.7917   -6.1167    0.0000 O   0  0  0  0  0  0  0  0  0  0  0  0
    9.2125   -7.2042    0.0000 O   0  0  0  0  0  0  0  0  0  0  0  0
  2  1  1  0
  3  9  1  0
  4  6  2  0
  5  1  1  0
  6  3  1  0
  7  2  2  0
  8  1  2  0
  9  5  1  0
 10  5  1  0
 11 12  2  0
 12  3  1  0
 13 15  2  0
 14  2  1  0
 15  8  1  0
 16 10  1  0
 17 22  2  0
 18 16  1  0
 19 13  1  0
 20 17  1  0
 21 23  2  0
 22 24  1  0
 23 18  1  0
 24 18  2  0
 13  7  1  0
  4 11  1  0
 17 21  1  0
 26 25  1  0
 27 25  2  0
 28 25  1  0
M  CHG  2  25   1  26  -1
M  END
> <chembl_id>
CHEMBL1201049

> <chembl_pref_name>
ECONAZOLE NITRATE
