
     RDKit          2D

 10 10  0  0  0  0  0  0  0  0999 V2000
    2.3238   -0.1256    0.0000 O   0  0  0  0  0  0  0  0  0  0  0  0
    1.2990   -0.7500    0.0000 B   0  0  0  0  0  0  0  0  0  0  0  0
    1.2709   -1.9497    0.0000 O   0  0  0  0  0  0  0  0  0  0  0  0
    1.2990    0.7500    0.0000 O   0  0  0  0  0  0  0  0  0  0  0  0
    0.0000    1.5000    0.0000 O   0  0  0  0  0  0  0  0  0  0  0  0
   -1.2990    0.7500    0.0000 B   0  0  0  0  0  0  0  0  0  0  0  0
   -1.2707    1.9497    0.0000 O   0  0  0  0  0  0  0  0  0  0  0  0
   -2.3239    0.1257    0.0000 O   0  0  0  0  0  0  0  0  0  0  0  0
   -1.2990   -0.7500    0.0000 O   0  0  0  0  0  0  0  0  0  0  0  0
    0.0000   -1.5000    0.0000 O   0  0  0  0  0  0  0  0  0  0  0  0
  1  2  1  0
  2  3  1  0
  2  4  1  0
  4  5  1  0
  5  6  1  0
  6  7  1  0
  6  8  1  0
  6  9  1  0
  9 10  1  0
  2 10  1  0
M  CHG  2   2  -1   6  -1
M  END
> <chembl_id>
CHEMBL3707334

> <chembl_pref_name>
PERBORIC ACID
