
     RDKit          2D

 18 19  0  0  1  0  0  0  0  0999 V2000
    5.2667   -4.6167    0.0000 C   0  0  0  0  0  0  0  0  0  0  0  0
    4.6917   -5.0417    0.0000 N   0  0  0  0  0  0  0  0  0  0  0  0
    5.5875   -5.7042    0.0000 N   0  0  0  0  0  0  0  0  0  0  0  0
    5.2667   -3.9167    0.0000 C   0  0  0  0  0  0  0  0  0  0  0  0
    4.9000   -5.7042    0.0000 C   0  0  0  0  0  0  0  0  0  0  0  0
    4.0792   -4.6917    0.0000 C   0  0  0  0  0  0  0  0  0  0  0  0
    5.8375   -5.0417    0.0000 C   0  0  0  0  0  0  0  0  0  0  0  0
    4.6625   -3.5750    0.0000 O   0  0  0  0  0  0  0  0  0  0  0  0
    3.4625   -5.0500    0.0000 C   0  0  0  0  0  0  0  0  0  0  0  0
    5.8917   -3.5625    0.0000 O   0  0  0  0  0  0  0  0  0  0  0  0
    4.0792   -3.9917    0.0000 C   0  0  0  0  0  0  0  0  0  0  0  0
    2.8417   -4.6792    0.0000 C   0  0  0  0  0  0  0  0  0  0  0  0
    3.4625   -5.7750    0.0000 C   0  0  0  0  0  0  0  0  0  0  0  0
    6.5125   -3.9167    0.0000 C   0  0  0  0  0  0  0  0  0  0  0  0
    7.1167   -3.5542    0.0000 C   0  0  0  0  0  0  0  0  0  0  0  0
    2.8417   -6.1292    0.0000 C   0  0  0  0  0  0  0  0  0  0  0  0
    2.2292   -5.0500    0.0000 C   0  0  0  0  0  0  0  0  0  0  0  0
    2.2292   -5.7750    0.0000 C   0  0  0  0  0  0  0  0  0  0  0  0
  2  1  1  0
  3  7  1  0
  4  1  1  0
  5  2  1  0
  6  2  1  0
  7  1  2  0
  8  4  2  0
  9  6  1  0
 10  4  1  0
  6 11  1  1
 12  9  1  0
 13  9  2  0
 14 10  1  0
 15 14  1  0
 16 13  1  0
 17 12  2  0
 18 16  2  0
  3  5  2  0
 18 17  1  0
M  END
> <chembl_id>
CHEMBL681

> <chembl_pref_name>
ETOMIDATE
