
     RDKit          2D

 36 39  0  0  0  0  0  0  0  0999 V2000
    4.3333   -2.5208    0.0000 S   0  0  0  0  0  0  0  0  0  0  0  0
    4.6792   -1.9042    0.0000 O   0  0  0  0  0  0  0  0  0  0  0  0
    3.9750   -1.9042    0.0000 O   0  0  0  0  0  0  0  0  0  0  0  0
    3.7167   -2.8708    0.0000 C   0  0  0  0  0  0  0  0  0  0  0  0
    4.9417   -2.8792    0.0000 O   0  0  0  0  0  0  0  0  0  0  0  0
    3.1083   -2.5125    0.0000 C   0  0  0  0  0  0  0  0  0  0  0  0
    3.7167   -3.5792    0.0000 C   0  0  0  0  0  0  0  0  0  0  0  0
    3.0833   -3.9333    0.0000 C   0  0  0  0  0  0  0  0  0  0  0  0
    2.4792   -2.8708    0.0000 C   0  0  0  0  0  0  0  0  0  0  0  0
    2.4875   -3.5708    0.0000 C   0  0  0  0  0  0  0  0  0  0  0  0
    0.4292   -2.8167    0.0000 C   0  0  0  0  0  0  0  0  0  0  0  0
    1.0375   -2.4792    0.0000 S   0  0  0  0  0  0  0  0  0  0  0  0
    1.0375   -1.7542    0.0000 O   0  0  0  0  0  0  0  0  0  0  0  0
    1.6417   -2.8292    0.0000 C   0  0  0  0  0  0  0  0  0  0  0  0
   -0.1875   -2.4667    0.0000 C   0  0  0  0  0  0  0  0  0  0  0  0
    0.4292   -3.5292    0.0000 C   0  0  0  0  0  0  0  0  0  0  0  0
   -0.8083   -2.8167    0.0000 C   0  0  0  0  0  0  0  0  0  0  0  0
   -0.1875   -3.8917    0.0000 C   0  0  0  0  0  0  0  0  0  0  0  0
   -1.4208   -2.4667    0.0000 N   0  0  0  0  0  0  0  0  0  0  0  0
   -0.8083   -3.5292    0.0000 C   0  0  0  0  0  0  0  0  0  0  0  0
   -2.0208   -2.8167    0.0000 C   0  0  0  0  0  0  0  0  0  0  0  0
   -1.4208   -1.7542    0.0000 C   0  0  0  0  0  0  0  0  0  0  0  0
   -1.4208   -3.8917    0.0000 S   0  0  0  0  0  0  0  0  0  0  0  0
   -2.0208   -3.5292    0.0000 C   0  0  0  0  0  0  0  0  0  0  0  0
   -2.6375   -2.4667    0.0000 C   0  0  0  0  0  0  0  0  0  0  0  0
   -0.8083   -1.4042    0.0000 C   0  0  0  0  0  0  0  0  0  0  0  0
   -2.6375   -3.8917    0.0000 C   0  0  0  0  0  0  0  0  0  0  0  0
   -3.2458   -2.8167    0.0000 C   0  0  0  0  0  0  0  0  0  0  0  0
   -0.8083   -0.6917    0.0000 C   0  0  0  0  0  0  0  0  0  0  0  0
   -3.2458   -3.5292    0.0000 C   0  0  0  0  0  0  0  0  0  0  0  0
   -0.1875   -0.3417    0.0000 N   0  0  0  0  0  0  0  0  0  0  0  0
   -1.4250   -0.3542    0.0000 C   0  0  0  0  0  0  0  0  0  0  0  0
    0.4292   -0.6667    0.0000 C   0  0  0  0  0  0  0  0  0  0  0  0
   -0.1958    0.3708    0.0000 C   0  0  0  0  0  0  0  0  0  0  0  0
   -1.4250    0.3583    0.0000 C   0  0  0  0  0  0  0  0  0  0  0  0
   -0.8083    0.7083    0.0000 C   0  0  0  0  0  0  0  0  0  0  0  0
  2  1  2  0
  3  1  2  0
  4  1  1  0
  5  1  1  0
  6  4  1  0
  7  4  2  0
  8  7  1  0
  9  6  2  0
 10  8  2  0
 10  9  1  0
 11 12  1  0
 13 12  1  0
 12 14  1  0
 11 15  2  0
 16 11  1  0
 15 17  1  0
 16 18  2  0
 17 19  1  0
 20 17  2  0
 18 20  1  0
 21 19  1  0
 22 19  1  0
 23 20  1  0
 24 21  2  0
 25 21  1  0
 26 22  1  0
 23 24  1  0
 27 24  1  0
 28 25  2  0
 29 26  1  0
 30 27  2  0
 28 30  1  0
 31 29  1  0
 32 29  1  0
 33 31  1  0
 34 31  1  0
 35 32  1  0
 36 34  1  0
 35 36  1  0
M  CHG  2  12   1  13  -1
M  END
> <chembl_id>
CHEMBL1201052

> <chembl_pref_name>
MESORIDAZINE BESYLATE
