
     RDKit          2D

 43 45  0  0  0  0  0  0  0  0999 V2000
   16.6368    8.3676    0.0000 N   0  0  0  0  0  0  0  0  0  0  0  0
   22.7355    2.1129    0.0000 O   0  0  0  0  0  0  0  0  0  0  0  0
   19.1007    0.0000    0.0000 O   0  0  0  0  0  0  0  0  0  0  0  0
   21.5313    0.0087    0.0000 O   0  0  0  0  0  0  0  0  0  0  0  0
   11.3159    5.8803    0.0000 O   0  0  0  0  0  0  0  0  0  0  0  0
   19.0583    9.7920    0.0000 F   0  0  0  0  0  0  0  0  0  0  0  0
   21.5047    5.6012    0.0000 F   0  0  0  0  0  0  0  0  0  0  0  0
   14.2465    1.3911    0.0000 F   0  0  0  0  0  0  0  0  0  0  0  0
   16.6650    5.5939    0.0000 Cl  0  0  0  0  0  0  0  0  0  0  0  0
   20.2845    7.6974    0.0000 C   0  0  0  0  0  0  0  0  0  0  0  0
   16.6723    1.3896    0.0000 C   0  0  0  0  0  0  0  0  0  0  0  0
   20.3030    3.5118    0.0000 C   0  0  0  0  0  0  0  0  0  0  0  0
   12.8909    3.8289    0.0000 C   0  0  0  0  0  0  0  0  0  0  0  0
   13.8802    5.5433    0.0000 C   0  0  0  0  0  0  0  0  0  0  0  0
   17.8679    6.2822    0.0000 N   0  0  0  0  0  0  0  0  0  0  0  0
   21.5259    1.4084    0.0000 C   0  0  0  0  0  0  0  0  0  0  0  0
   17.8550    7.6784    0.0000 C   0  0  0  0  0  0  0  0  0  0  0  0
   19.0676    8.3922    0.0000 C   0  0  0  0  0  0  0  0  0  0  0  0
   20.2912    6.2990    0.0000 C   0  0  0  0  0  0  0  0  0  0  0  0
   15.4593    2.0899    0.0000 C   0  0  0  0  0  0  0  0  0  0  0  0
   20.3109    2.1035    0.0000 C   0  0  0  0  0  0  0  0  0  0  0  0
   16.6692    4.1942    0.0000 C   0  0  0  0  0  0  0  0  0  0  0  0
   19.0808    5.6024    0.0000 C   0  0  0  0  0  0  0  0  0  0  0  0
   15.4614    3.4938    0.0000 C   0  0  0  0  0  0  0  0  0  0  0  0
   19.0978    1.3997    0.0000 C   0  0  0  0  0  0  0  0  0  0  0  0
   17.8842    2.0971    0.0000 C   0  0  0  0  0  0  0  0  0  0  0  0
   17.8828    3.4999    0.0000 C   0  0  0  0  0  0  0  0  0  0  0  0
   12.5282    5.1808    0.0000 C   0  0  0  0  0  0  0  0  0  0  0  0
   14.2489    4.1933    0.0000 N   0  0  0  0  0  0  0  0  0  0  0  0
   19.0883    4.2026    0.0000 N   0  0  0  0  0  0  0  0  0  0  0  0
    7.4584    6.7486    0.0000 C   0  0  0  0  0  0  0  0  0  0  0  0
    0.4101    2.2525    0.0000 O   0  0  0  0  0  0  0  0  0  0  0  0
    0.0000    4.6490    0.0000 O   0  0  0  0  0  0  0  0  0  0  0  0
    6.4332    5.3489    0.0000 O   0  0  0  0  0  0  0  0  0  0  0  0
    1.9087    6.5578    0.0000 O   0  0  0  0  0  0  0  0  0  0  0  0
    3.1247    3.4330    0.0000 O   0  0  0  0  0  0  0  0  0  0  0  0
    1.3997    3.2493    0.0000 C   0  0  0  0  0  0  0  0  0  0  0  0
    5.0335    6.7486    0.0000 C   0  0  0  0  0  0  0  0  0  0  0  0
    6.2495    7.4485    0.0000 N   0  0  0  0  0  0  0  0  0  0  0  0
    1.3997    4.6490    0.0000 C   0  0  0  0  0  0  0  0  0  0  0  0
    5.0335    5.3489    0.0000 C   0  0  0  0  0  0  0  0  0  0  0  0
    2.6086    5.3489    0.0000 C   0  0  0  0  0  0  0  0  0  0  0  0
    3.8246    4.6490    0.0000 C   0  0  0  0  0  0  0  0  0  0  0  0
  1 17  1  0
  2 16  2  0
  3 25  2  0
  4 16  1  0
  5 28  1  0
  6 18  1  0
  7 19  1  0
  8 20  1  0
  9 22  1  0
 10 18  1  0
 10 19  2  0
 11 20  2  0
 11 26  1  0
 12 21  2  0
 12 30  1  0
 13 28  1  0
 13 29  1  0
 14 28  1  0
 14 29  1  0
 15 17  1  0
 15 23  2  0
 16 21  1  0
 17 18  2  0
 19 23  1  0
 20 24  1  0
 21 25  1  0
 22 24  2  0
 22 27  1  0
 23 30  1  0
 24 29  1  0
 25 26  1  0
 26 27  2  0
 27 30  1  0
 31 39  1  0
 32 37  1  0
 40 33  1  1
 41 34  1  6
 42 35  1  1
 43 36  1  1
 37 40  1  0
 38 39  1  0
 38 41  1  0
 40 42  1  0
 41 43  1  0
 42 43  1  0
M  END
> <chembl_id>
CHEMBL2105638

> <chembl_pref_name>
DELAFLOXACIN MEGLUMINE
