
     RDKit          2D

 13 10  0  0  0  0  0  0  0  0999 V2000
    5.1167   -4.1542    0.0000 Ca  0  0  0  0  0 15  0  0  0  0  0  0
    3.8417   -4.6917    0.0000 C   0  0  0  0  0  0  0  0  0  0  0  0
    4.4625   -5.0375    0.0000 O   0  0  0  0  0  0  0  0  0  0  0  0
    3.8417   -3.9750    0.0000 O   0  0  0  0  0  0  0  0  0  0  0  0
    3.2167   -5.0375    0.0000 C   0  0  0  0  0  0  0  0  0  0  0  0
    2.6042   -4.6917    0.0000 O   0  0  0  0  0  0  0  0  0  0  0  0
    3.2167   -5.7500    0.0000 C   0  0  0  0  0  0  0  0  0  0  0  0
    6.3042   -4.6917    0.0000 C   0  0  0  0  0  0  0  0  0  0  0  0
    5.6875   -5.0375    0.0000 O   0  0  0  0  0  0  0  0  0  0  0  0
    6.3042   -3.9750    0.0000 O   0  0  0  0  0  0  0  0  0  0  0  0
    6.9250   -5.0375    0.0000 C   0  0  0  0  0  0  0  0  0  0  0  0
    7.5417   -4.6917    0.0000 O   0  0  0  0  0  0  0  0  0  0  0  0
    6.9250   -5.7500    0.0000 C   0  0  0  0  0  0  0  0  0  0  0  0
  3  2  1  0
  4  2  2  0
  5  2  1  0
  6  5  1  0
  7  5  1  0
  9  8  1  0
 10  8  2  0
 11  8  1  0
 12 11  1  0
 13 11  1  0
M  CHG  3   1   2   3  -1   9  -1
M  END
> <chembl_id>
CHEMBL2106111

> <chembl_pref_name>
CALCIUM LACTATE
