
     RDKit          2D

 34 33  0  0  0  0  0  0  0  0999 V2000
    6.5929   -7.0001    0.0000 C   0  0  0  0  0  0  0  0  0  0  0  0
    6.1712   -6.2826    0.0000 N   0  0  0  0  0  0  0  0  0  0  0  0
    7.3055   -7.4170    0.0000 C   0  0  0  0  0  0  0  0  0  0  0  0
    7.0001   -6.2826    0.0000 C   0  0  0  0  0  0  0  0  0  0  0  0
    5.8803   -7.4170    0.0000 C   0  0  0  0  0  0  0  0  0  0  0  0
    5.1628   -7.0001    0.0000 O   0  0  0  0  0  0  0  0  0  0  0  0
    7.8242   -6.2730    0.0000 O   0  0  0  0  0  0  0  0  0  0  0  0
    8.0182   -7.0001    0.0000 O   0  0  0  0  0  0  0  0  0  0  0  0
   -2.1330   -9.1443    0.0000 C   0  0  0  0  0  0  0  0  0  0  0  0
   -1.4203   -9.5660    0.0000 C   0  0  0  0  0  0  0  0  0  0  0  0
   -3.3982   -8.7225    0.0000 C   0  0  0  0  0  0  0  0  0  0  0  0
   -2.1184   -8.3202    0.0000 C   0  0  0  0  0  0  0  0  0  0  0  0
   -2.9183   -9.3964    0.0000 C   0  0  0  0  0  0  0  0  0  0  0  0
   -2.9037   -8.0584    0.0000 C   0  0  0  0  0  0  0  0  0  0  0  0
   -1.4349   -7.0937    0.0000 C   0  0  0  0  0  0  0  0  0  0  0  0
   -0.7223   -6.6720    0.0000 C   0  0  0  0  0  0  0  0  0  0  0  0
   -3.1801  -10.1769    0.0000 O   0  0  0  0  0  0  0  0  0  0  0  0
   -3.1510   -7.2731    0.0000 O   0  0  0  0  0  0  0  0  0  0  0  0
   -1.4058   -7.9081    0.0000 C   0  0  0  0  0  0  0  0  0  0  0  0
   -0.7059   -9.1535    0.0000 C   0  0  0  0  0  0  0  0  0  0  0  0
    0.0086   -9.5660    0.0000 C   0  0  0  0  0  0  0  0  0  0  0  0
    0.7231   -9.1535    0.0000 C   0  0  0  0  0  0  0  0  0  0  0  0
   -0.5748  -10.1494    0.0000 C   0  0  0  0  0  0  0  0  0  0  0  0
    0.5920  -10.1494    0.0000 O   0  0  0  0  0  0  0  0  0  0  0  0
    1.4375   -9.5660    0.0000 C   0  0  0  0  0  0  0  0  0  0  0  0
    2.1520   -9.1535    0.0000 C   0  0  0  0  0  0  0  0  0  0  0  0
    2.8665   -9.5660    0.0000 C   0  0  0  0  0  0  0  0  0  0  0  0
    3.5810   -9.1535    0.0000 C   0  0  0  0  0  0  0  0  0  0  0  0
   -0.0078   -7.0845    0.0000 C   0  0  0  0  0  0  0  0  0  0  0  0
    0.7067   -6.6720    0.0000 C   0  0  0  0  0  0  0  0  0  0  0  0
    1.4211   -7.0845    0.0000 C   0  0  0  0  0  0  0  0  0  0  0  0
    2.1356   -6.6720    0.0000 C   0  0  0  0  0  0  0  0  0  0  0  0
    2.8501   -7.0845    0.0000 O   0  0  0  0  0  0  0  0  0  0  0  0
    2.1356   -5.8470    0.0000 O   0  0  0  0  0  0  0  0  0  0  0  0
  2  1  1  0
  3  1  1  0
  4  1  1  0
  5  1  1  0
  6  5  1  0
  7  4  1  0
  8  3  1  0
  9 10  1  1
 11 13  1  0
 12  9  1  0
 13  9  1  0
 14 12  1  0
 15 19  1  0
 16 15  2  0
 13 17  1  6
 14 18  1  6
 12 19  1  6
 14 11  1  0
 10 20  2  0
 20 21  1  0
 21 22  1  0
 21 23  1  0
 21 24  1  6
 22 25  1  0
 25 26  1  0
 26 27  1  0
 27 28  1  0
 16 29  1  0
 29 30  1  0
 30 31  1  0
 31 32  1  0
 32 33  1  0
 32 34  2  0
M  END
> <chembl_id>
CHEMBL1237105

> <chembl_pref_name>
CARBOPROST TROMETHAMINE
