
     RDKit          2D

 28 29  0  0  1  0  0  0  0  0999 V2000
    3.7910   -8.8212    0.0000 O   0  0  0  0  0  0  0  0  0  0  0  0
    2.7280   -8.2055    0.0000 C   0  0  0  0  0  0  0  0  0  0  0  0
    2.7280   -6.9709    0.0000 C   0  0  0  0  0  0  0  0  0  0  0  0
    3.7936   -6.3598    0.0000 C   0  0  0  0  0  0  0  0  0  0  0  0
    4.8556   -6.9771    0.0000 O   0  0  0  0  0  0  0  0  0  0  0  0
    5.9211   -6.3660    0.0000 C   0  0  0  0  0  0  0  0  0  0  0  0
    6.5322   -7.4316    0.0000 C   0  0  0  0  0  0  0  0  0  0  0  0
    5.3100   -5.3004    0.0000 C   0  0  0  0  0  0  0  0  0  0  0  0
    6.9867   -5.7549    0.0000 C   0  0  0  0  0  0  0  0  0  0  0  0
    1.6625   -6.3476    0.0000 N   0  0  0  0  0  0  0  0  0  0  0  0
    1.6625   -5.1192    0.0000 C   0  0  0  0  0  0  0  0  0  0  0  0
    0.5988   -4.5050    0.0000 O   0  0  0  0  0  0  0  0  0  0  0  0
    2.7263   -4.5050    0.0000 C   0  0  0  0  0  0  0  0  0  0  0  0
    2.7263   -3.2767    0.0000 C   0  0  0  0  0  0  0  0  0  0  0  0
    1.6625   -2.6625    0.0000 N   0  0  0  0  0  0  0  0  0  0  0  0
    3.7901   -2.6625    0.0000 C   0  0  0  0  0  0  0  0  0  0  0  0
    3.7901   -1.4342    0.0000 C   0  0  0  0  0  0  0  0  0  0  0  0
    2.7299   -0.8200    0.0000 C   0  0  0  0  0  0  0  0  0  0  0  0
    2.7299    0.4146    0.0000 C   0  0  0  0  0  0  0  0  0  0  0  0
    1.6698    1.0351    0.0000 F   0  0  0  0  0  0  0  0  0  0  0  0
    3.8011    1.0288    0.0000 C   0  0  0  0  0  0  0  0  0  0  0  0
    3.8011    2.2571    0.0000 F   0  0  0  0  0  0  0  0  0  0  0  0
    4.8612    0.4085    0.0000 C   0  0  0  0  0  0  0  0  0  0  0  0
    4.8612   -0.8200    0.0000 C   0  0  0  0  0  0  0  0  0  0  0  0
    5.9241   -1.4358    0.0000 F   0  0  0  0  0  0  0  0  0  0  0  0
    0.5970   -6.9709    0.0000 C   0  0  0  0  0  0  0  0  0  0  0  0
    0.5970   -8.2055    0.0000 C   0  0  0  0  0  0  0  0  0  0  0  0
    1.6625   -8.8168    0.0000 N   0  0  0  0  0  0  0  0  0  0  0  0
  2  1  2  0
  2  3  1  0
  3  4  1  6
  5  4  1  0
  6  5  1  0
  6  7  1  0
  6  8  1  0
  6  9  1  0
  3 10  1  0
 11 10  1  0
 11 12  2  0
 11 13  1  0
 13 14  1  0
 14 15  1  6
 14 16  1  0
 17 16  1  0
 17 18  1  0
 19 18  2  0
 20 19  1  0
 21 19  1  0
 22 21  1  0
 23 21  2  0
 24 23  1  0
 25 24  1  0
 17 24  2  0
 10 26  1  0
 26 27  1  0
 28 27  1  0
 28  2  1  0
M  END
> <chembl_id>
CHEMBL1779710

> <chembl_pref_name>
EVOGLIPTIN
