
     RDKit          2D

  6  5  0  0  0  0  0  0  0  0999 V2000
   -0.1625   -0.2302    0.0000 C   0  0  0  0  0  0  0  0  0  0  0  0
    0.6623   -0.2495    0.0000 O   0  0  0  0  0  0  0  0  0  0  0  0
   -0.5916   -0.9348    0.0000 N   0  0  0  0  0  0  0  0  0  0  0  0
   -0.5582    0.4937    0.0000 O   0  0  0  0  0  0  0  0  0  0  0  0
   -0.1266    1.2022    0.0000 C   0  0  0  0  0  0  0  0  0  0  0  0
    0.6977    1.1700    0.0000 C   0  0  0  0  0  0  0  0  0  0  0  0
  2  1  2  0
  3  1  1  0
  4  1  1  0
  5  4  1  0
  6  5  1  0
M  END
> <chembl_id>
CHEMBL462547

> <chembl_pref_name>
URETHANE
