
     RDKit          2D

 23 24  0  0  0  0  0  0  0  0999 V2000
    1.4542    0.3583    0.0000 C   0  0  0  0  0  0  0  0  0  0  0  0
    2.4167    0.3583    0.0000 C   0  0  0  0  0  0  0  0  0  0  0  0
    2.8917   -0.4667    0.0000 C   0  0  0  0  0  0  0  0  0  0  0  0
    0.9667    1.1875    0.0000 O   0  0  0  0  0  0  0  0  0  0  0  0
    2.4000   -1.3167    0.0000 O   0  0  0  0  0  0  0  0  0  0  0  0
    2.8917   -2.1792    0.0000 C   0  0  0  0  0  0  0  0  0  0  0  0
   -3.3625    2.0375    0.0000 C   0  0  0  0  0  0  0  0  0  0  0  0
   -2.8958    1.2083    0.0000 N   0  0  0  0  0  0  0  0  0  0  0  0
    0.9667   -0.4667    0.0000 O   0  0  0  0  0  0  0  0  0  0  0  0
    3.8500   -2.1792    0.0000 O   0  0  0  0  0  0  0  0  0  0  0  0
   -2.8958    2.8625    0.0000 O   0  0  0  0  0  0  0  0  0  0  0  0
    0.0042    1.1875    0.0000 C   0  0  0  0  0  0  0  0  0  0  0  0
   -1.9333    1.2083    0.0000 C   0  0  0  0  0  0  0  0  0  0  0  0
    2.8917    1.1875    0.0000 C   0  0  0  0  0  0  0  0  0  0  0  0
   -0.4833    2.0375    0.0000 C   0  0  0  0  0  0  0  0  0  0  0  0
   -0.4833    0.3583    0.0000 C   0  0  0  0  0  0  0  0  0  0  0  0
   -1.4458    2.0375    0.0000 C   0  0  0  0  0  0  0  0  0  0  0  0
   -1.4458    0.3833    0.0000 C   0  0  0  0  0  0  0  0  0  0  0  0
    3.8667   -0.4667    0.0000 C   0  0  0  0  0  0  0  0  0  0  0  0
    2.4000   -3.0125    0.0000 C   0  0  0  0  0  0  0  0  0  0  0  0
   -4.3458    2.0208    0.0000 C   0  0  0  0  0  0  0  0  0  0  0  0
    3.8500    1.1875    0.0000 C   0  0  0  0  0  0  0  0  0  0  0  0
    4.3417    0.3583    0.0000 C   0  0  0  0  0  0  0  0  0  0  0  0
  2  1  1  0
  3  2  2  0
  4  1  1  0
  5  3  1  0
  6  5  1  0
  7  8  1  0
  8 13  1  0
  9  1  2  0
 10  6  2  0
 11  7  2  0
 12  4  1  0
 13 18  1  0
 14  2  1  0
 15 12  2  0
 16 12  1  0
 17 15  1  0
 18 16  2  0
 19  3  1  0
 20  6  1  0
 21  7  1  0
 22 14  2  0
 23 22  1  0
 17 13  2  0
 19 23  2  0
M  END
> <chembl_id>
CHEMBL162036

> <chembl_pref_name>
BENORILATE
