
     RDKit          2D

 44 47  0  0  1  0  0  0  0  0999 V2000
   16.2110   -7.3640    0.0000 C   0  0  0  0  0  0  0  0  0  0  0  0
   17.6188   -7.3899    0.0000 C   0  0  0  0  0  0  0  0  0  0  0  0
   16.2092   -6.5922    0.0000 C   0  0  0  0  0  0  0  0  0  0  0  0
   16.9207   -7.7847    0.0000 C   0  0  0  0  0  0  0  0  0  0  0  0
   18.3673   -7.7522    0.0000 C   0  0  0  0  0  0  0  0  0  0  0  0
    6.0641   -9.0043    0.0000 C   0  0  0  0  0  0  0  0  0  0  0  0
   18.3692   -8.5824    0.0000 C   0  0  0  0  0  0  0  0  0  0  0  0
   16.9226   -8.5857    0.0000 C   0  0  0  0  0  0  0  0  0  0  0  0
    6.8059   -8.5947    0.0000 C   0  0  0  0  0  0  0  0  0  0  0  0
   17.6516   -8.9918    0.0000 C   0  0  0  0  0  0  0  0  0  0  0  0
   16.9169   -6.1682    0.0000 C   0  0  0  0  0  0  0  0  0  0  0  0
   17.6169   -6.5889    0.0000 C   0  0  0  0  0  0  0  0  0  0  0  0
   15.4397   -7.6134    0.0000 C   0  0  0  0  0  0  0  0  0  0  0  0
   19.0508   -7.3574    0.0000 C   0  0  0  0  0  0  0  0  0  0  0  0
   15.4367   -6.3319    0.0000 C   0  0  0  0  0  0  0  0  0  0  0  0
    9.6603   -8.6027    0.0000 S   0  0  0  0  0  0  0  0  0  0  0  0
   19.0983   -8.9739    0.0000 C   0  0  0  0  0  0  0  0  0  0  0  0
   15.0014   -7.0028    0.0000 C   0  0  0  0  0  0  0  0  0  0  0  0
    9.6583   -7.7289    0.0000 O   0  0  0  0  0  0  0  0  0  0  0  0
    5.3787   -8.5835    0.0000 F   0  0  0  0  0  0  0  0  0  0  0  0
    5.6580   -9.7188    0.0000 F   0  0  0  0  0  0  0  0  0  0  0  0
    6.4832   -9.7169    0.0000 F   0  0  0  0  0  0  0  0  0  0  0  0
    6.3964   -7.8772    0.0000 F   0  0  0  0  0  0  0  0  0  0  0  0
    7.2217   -7.8753    0.0000 F   0  0  0  0  0  0  0  0  0  0  0  0
   19.8205   -8.5353    0.0000 C   0  0  0  0  0  0  0  0  0  0  0  0
   19.8187   -7.7488    0.0000 C   0  0  0  0  0  0  0  0  0  0  0  0
   16.2072   -5.7621    0.0000 C   0  0  0  0  0  0  0  0  0  0  0  0
   15.2165   -5.5605    0.0000 O   0  0  0  0  0  0  0  0  0  0  0  0
    7.5205   -9.0009    0.0000 C   0  0  0  0  0  0  0  0  0  0  0  0
   16.2148   -8.9952    0.0000 C   0  0  0  0  0  0  0  0  0  0  0  0
   20.5350   -8.9122    0.0000 O   0  0  0  0  0  0  0  0  0  0  0  0
    8.9476   -8.9976    0.0000 C   0  0  0  0  0  0  0  0  0  0  0  0
    8.1991   -8.6060    0.0000 C   0  0  0  0  0  0  0  0  0  0  0  0
   10.4040   -9.0087    0.0000 C   0  0  0  0  0  0  0  0  0  0  0  0
   15.4420   -8.6038    0.0000 C   0  0  0  0  0  0  0  0  0  0  0  0
   11.1166   -8.5993    0.0000 C   0  0  0  0  0  0  0  0  0  0  0  0
   12.5827   -8.6104    0.0000 C   0  0  0  0  0  0  0  0  0  0  0  0
   11.8555   -9.0053    0.0000 C   0  0  0  0  0  0  0  0  0  0  0  0
   14.0002   -8.6071    0.0000 C   0  0  0  0  0  0  0  0  0  0  0  0
   14.7294   -8.9987    0.0000 C   0  0  0  0  0  0  0  0  0  0  0  0
   13.2730   -9.0020    0.0000 C   0  0  0  0  0  0  0  0  0  0  0  0
   17.6498   -8.2054    0.0000 H   0  0  0  0  0  0  0  0  0  0  0  0
   16.2130   -8.2379    0.0000 H   0  0  0  0  0  0  0  0  0  0  0  0
   16.9186   -6.8964    0.0000 H   0  0  0  0  0  0  0  0  0  0  0  0
  2  4  1  0
  3  1  1  0
  4  1  1  0
  5  2  1  0
  6  9  1  0
  7  5  2  0
  8  4  1  0
  9 29  1  0
 10  8  1  0
 11  3  1  0
 12  2  1  0
 13  1  1  0
 14  5  1  0
 15  3  1  0
 16 34  1  0
 17  7  1  0
 18 13  1  0
 19 16  1  0
 20  6  1  0
 21  6  1  0
 22  6  1  0
 23  9  1  0
 24  9  1  0
 25 17  2  0
 26 14  2  0
  3 27  1  6
 15 28  1  6
 29 33  1  0
  8 30  1  1
 31 25  1  0
 32 16  1  0
 33 32  1  0
 34 36  1  0
 35 30  1  0
 36 38  1  0
 37 41  1  0
 38 37  1  0
 39 40  1  0
 40 35  1  0
 41 39  1  0
  2 42  1  1
  1 43  1  1
  4 44  1  6
 15 18  1  0
 11 12  1  0
 10  7  1  0
 26 25  1  0
M  CHG  2  16   1  19  -1
M  END
> <chembl_id>
CHEMBL1358

> <chembl_pref_name>
FULVESTRANT
