
     RDKit          2D

 43 44  0  0  0  0  0  0  0  0999 V2000
   -2.2500   -0.4167    0.0000 C   0  0  0  0  0  0  0  0  0  0  0  0
   -1.6083   -1.5417    0.0000 C   0  0  0  0  0  0  0  0  0  0  0  0
   -2.8958   -1.5417    0.0000 C   0  0  0  0  0  0  0  0  0  0  0  0
    2.3042    0.7083    0.0000 C   0  0  0  0  0  0  0  0  0  0  0  0
    1.6667    1.8333    0.0000 C   0  0  0  0  0  0  0  0  0  0  0  0
    1.0167    0.7083    0.0000 C   0  0  0  0  0  0  0  0  0  0  0  0
   -2.8958   -0.8000    0.0000 C   0  0  0  0  0  0  0  0  0  0  0  0
   -1.6083   -0.8000    0.0000 C   0  0  0  0  0  0  0  0  0  0  0  0
    1.6667    0.3458    0.0000 C   0  0  0  0  0  0  0  0  0  0  0  0
    1.0167    1.4708    0.0000 C   0  0  0  0  0  0  0  0  0  0  0  0
   -2.2500   -1.9250    0.0000 C   0  0  0  0  0  0  0  0  0  0  0  0
    2.3042    1.4708    0.0000 C   0  0  0  0  0  0  0  0  0  0  0  0
   -2.2500    0.3458    0.0000 N   0  0  0  0  0  0  0  0  0  0  0  0
   -0.9458   -1.9417    0.0000 C   0  0  0  0  0  0  0  0  0  0  0  0
   -3.5583   -1.9417    0.0000 C   0  0  0  0  0  0  0  0  0  0  0  0
    2.9750    0.3208    0.0000 C   0  0  0  0  0  0  0  0  0  0  0  0
    1.6667    2.5958    0.0000 C   0  0  0  0  0  0  0  0  0  0  0  0
    0.3792    0.3458    0.0000 N   0  0  0  0  0  0  0  0  0  0  0  0
   -1.6083    0.7083    0.0000 C   0  0  0  0  0  0  0  0  0  0  0  0
    0.3792   -0.4167    0.0000 C   0  0  0  0  0  0  0  0  0  0  0  0
   -0.2833   -1.5625    0.0000 N   0  0  0  0  0  0  0  0  0  0  0  0
   -0.9458   -2.7042    0.0000 O   0  0  0  0  0  0  0  0  0  0  0  0
   -4.2083   -1.5625    0.0000 O   0  0  0  0  0  0  0  0  0  0  0  0
    3.6375    0.7083    0.0000 O   0  0  0  0  0  0  0  0  0  0  0  0
    1.0167    2.9583    0.0000 O   0  0  0  0  0  0  0  0  0  0  0  0
   -1.6083    1.4708    0.0000 O   0  0  0  0  0  0  0  0  0  0  0  0
   -0.9458   -0.4000    0.0000 I   0  0  0  0  0  0  0  0  0  0  0  0
   -3.5583   -0.4000    0.0000 I   0  0  0  0  0  0  0  0  0  0  0  0
    1.6667   -0.4167    0.0000 I   0  0  0  0  0  0  0  0  0  0  0  0
    2.9750    1.8500    0.0000 I   0  0  0  0  0  0  0  0  0  0  0  0
   -2.2500   -2.6667    0.0000 I   0  0  0  0  0  0  0  0  0  0  0  0
    0.3542    1.8500    0.0000 I   0  0  0  0  0  0  0  0  0  0  0  0
    1.0167   -0.8000    0.0000 O   0  0  0  0  0  0  0  0  0  0  0  0
   -3.5583   -2.7042    0.0000 N   0  0  0  0  0  0  0  0  0  0  0  0
    2.9750   -0.4375    0.0000 N   0  0  0  0  0  0  0  0  0  0  0  0
   -0.2833   -0.7875    0.0000 C   0  0  0  0  0  0  0  0  0  0  0  0
    2.3042    2.9583    0.0000 O   0  0  0  0  0  0  0  0  0  0  0  0
   -2.8958    0.7083    0.0000 C   0  0  0  0  0  0  0  0  0  0  0  0
   -0.9625    0.3458    0.0000 C   0  0  0  0  0  0  0  0  0  0  0  0
    4.2542   -1.9417    0.0000 O   0  0  0  0  0  0  0  0  0  0  0  0
    3.6167   -0.8167    0.0000 C   0  0  0  0  0  0  0  0  0  0  0  0
   -2.9125   -3.0667    0.0000 C   0  0  0  0  0  0  0  0  0  0  0  0
    3.6167   -1.5792    0.0000 C   0  0  0  0  0  0  0  0  0  0  0  0
  2  8  2  0
  3  7  1  0
  4  9  1  0
  5 10  2  0
  6 18  1  0
  7  1  2  0
  8  1  1  0
  9  6  2  0
 10  6  1  0
 11  2  1  0
 12  5  1  0
 13  1  1  0
 14  2  1  0
 15  3  1  0
 16  4  1  0
 17  5  1  0
 18 20  1  0
 19 13  1  0
 20 36  1  0
 21 14  1  0
 22 14  2  0
 23 15  2  0
 24 16  2  0
 25 17  2  0
 26 19  2  0
 27  8  1  0
 28  7  1  0
 29  9  1  0
 30 12  1  0
 31 11  1  0
 32 10  1  0
 33 20  2  0
 34 15  1  0
 35 16  1  0
 36 21  1  0
 37 17  1  0
 38 13  1  0
 39 19  1  0
 40 43  1  0
 41 35  1  0
 42 34  1  0
 43 41  1  0
  3 11  2  0
  4 12  2  0
M  END
> <chembl_id>
CHEMBL1201291

> <chembl_pref_name>
IOXAGLIC ACID
