
     RDKit          2D

 30 33  0  0  1  0  0  0  0  0999 V2000
    2.8292   -7.1500    0.0000 N   0  0  0  0  0  0  0  0  0  0  0  0
    2.1208   -7.1500    0.0000 C   0  0  0  0  0  0  0  0  0  0  0  0
    2.1208   -6.4417    0.0000 C   0  0  0  0  0  0  0  0  0  0  0  0
    2.8292   -6.4417    0.0000 C   0  0  0  0  0  0  0  0  0  0  0  0
    1.5042   -6.0875    0.0000 C   0  0  0  0  0  0  0  0  0  0  0  0
    3.4417   -7.5042    0.0000 C   0  0  0  0  0  0  0  0  0  0  0  0
    3.4417   -6.0792    0.0000 C   0  0  0  0  0  0  0  0  0  0  0  0
    1.6208   -7.6500    0.0000 O   0  0  0  0  0  0  0  0  0  0  0  0
   -0.3375   -6.4500    0.0000 C   0  0  0  0  0  0  0  0  0  0  0  0
    0.8917   -6.4417    0.0000 C   0  0  0  0  0  0  0  0  0  0  0  0
    3.4333   -8.2083    0.0000 C   0  0  0  0  0  0  0  0  0  0  0  0
    4.0458   -7.1542    0.0000 C   0  0  0  0  0  0  0  0  0  0  0  0
    3.4333   -5.3792    0.0000 C   0  0  0  0  0  0  0  0  0  0  0  0
    4.0542   -6.4333    0.0000 C   0  0  0  0  0  0  0  0  0  0  0  0
   -0.9500   -6.0958    0.0000 C   0  0  0  0  0  0  0  0  0  0  0  0
   -0.3333   -7.1542    0.0000 C   0  0  0  0  0  0  0  0  0  0  0  0
    0.2750   -6.0917    0.0000 C   0  0  0  0  0  0  0  0  0  0  0  0
   -1.5583   -7.1625    0.0000 C   0  0  0  0  0  0  0  0  0  0  0  0
    4.6542   -8.2125    0.0000 C   0  0  0  0  0  0  0  0  0  0  0  0
    4.6583   -5.3667    0.0000 C   0  0  0  0  0  0  0  0  0  0  0  0
   -1.5625   -6.4500    0.0000 C   0  0  0  0  0  0  0  0  0  0  0  0
    4.0417   -8.5625    0.0000 C   0  0  0  0  0  0  0  0  0  0  0  0
   -0.9417   -7.5125    0.0000 C   0  0  0  0  0  0  0  0  0  0  0  0
    4.6542   -7.5042    0.0000 C   0  0  0  0  0  0  0  0  0  0  0  0
    4.6625   -6.0750    0.0000 C   0  0  0  0  0  0  0  0  0  0  0  0
    4.0375   -5.0208    0.0000 C   0  0  0  0  0  0  0  0  0  0  0  0
    5.2667   -8.5667    0.0000 F   0  0  0  0  0  0  0  0  0  0  0  0
   -2.1708   -7.5167    0.0000 F   0  0  0  0  0  0  0  0  0  0  0  0
    0.2708   -5.3833    0.0000 O   0  0  0  0  0  0  0  0  0  0  0  0
    5.2667   -5.0042    0.0000 O   0  0  0  0  0  0  0  0  0  0  0  0
  2  1  1  0
  3  4  1  0
  4  1  1  0
  3  5  1  6
  6  1  1  0
  4  7  1  1
  8  2  2  0
  9 17  1  0
 10  5  1  0
 11  6  2  0
 12  6  1  0
 13  7  1  0
 14  7  2  0
 15  9  2  0
 16  9  1  0
 17 10  1  0
 18 23  1  0
 19 24  1  0
 20 25  2  0
 21 15  1  0
 22 11  1  0
 23 16  2  0
 24 12  2  0
 25 14  1  0
 26 13  2  0
 27 19  1  0
 28 18  1  0
 17 29  1  1
 30 20  1  0
  2  3  1  0
 19 22  2  0
 26 20  1  0
 18 21  2  0
M  END
> <chembl_id>
CHEMBL1138

> <chembl_pref_name>
EZETIMIBE
