
     RDKit          2D

 40 41  0  0  0  0  0  0  0  0999 V2000
    3.1527   -8.4268    0.0000 O   0  0  0  0  0  0  0  0  0  0  0  0
    8.1574   -5.7002    0.0000 S   0  0  0  0  0  0  0  0  0  0  0  0
    7.4444   -6.1173    0.0000 C   0  0  0  0  0  0  0  0  0  0  0  0
    6.7266   -5.7099    0.0000 C   0  0  0  0  0  0  0  0  0  0  0  0
    8.5600   -4.9776    0.0000 O   0  0  0  0  0  0  0  0  0  0  0  0
    7.7403   -4.9776    0.0000 O   0  0  0  0  0  0  0  0  0  0  0  0
    6.0185   -6.1271    0.0000 C   0  0  0  0  0  0  0  0  0  0  0  0
    8.8704   -6.1076    0.0000 O   0  0  0  0  0  0  0  0  0  0  0  0
    7.4493   -6.9467    0.0000 C   0  0  0  0  0  0  0  0  0  0  0  0
    6.0185   -6.9516    0.0000 C   0  0  0  0  0  0  0  0  0  0  0  0
    6.7363   -7.3639    0.0000 C   0  0  0  0  0  0  0  0  0  0  0  0
    5.3055   -5.7148    0.0000 C   0  0  0  0  0  0  0  0  0  0  0  0
    5.3055   -7.3687    0.0000 C   0  0  0  0  0  0  0  0  0  0  0  0
    4.5925   -6.1271    0.0000 C   0  0  0  0  0  0  0  0  0  0  0  0
    4.5925   -6.9565    0.0000 C   0  0  0  0  0  0  0  0  0  0  0  0
    0.6056   -5.8215    0.0000 C   0  0  0  0  0  0  0  0  0  0  0  0
    1.3234   -6.2386    0.0000 C   0  0  0  0  0  0  0  0  0  0  0  0
   -0.1074   -6.2386    0.0000 O   0  0  0  0  0  0  0  0  0  0  0  0
   -0.1074   -7.0583    0.0000 C   0  0  0  0  0  0  0  0  0  0  0  0
    0.1885   -5.1085    0.0000 C   0  0  0  0  0  0  0  0  0  0  0  0
    2.0364   -5.8215    0.0000 C   0  0  0  0  0  0  0  0  0  0  0  0
    1.0130   -5.1085    0.0000 C   0  0  0  0  0  0  0  0  0  0  0  0
    0.6056   -7.4754    0.0000 O   0  0  0  0  0  0  0  0  0  0  0  0
    2.7494   -6.2386    0.0000 N   0  0  0  0  0  0  0  0  0  0  0  0
   -0.6409   -5.1133    0.0000 C   0  0  0  0  0  0  0  0  0  0  0  0
    1.3234   -7.0583    0.0000 C   0  0  0  0  0  0  0  0  0  0  0  0
   -0.8204   -7.4754    0.0000 C   0  0  0  0  0  0  0  0  0  0  0  0
    1.8375   -5.0987    0.0000 C   0  0  0  0  0  0  0  0  0  0  0  0
    0.5910   -4.4003    0.0000 C   0  0  0  0  0  0  0  0  0  0  0  0
    3.4624   -5.8215    0.0000 C   0  0  0  0  0  0  0  0  0  0  0  0
    2.7494   -7.0583    0.0000 C   0  0  0  0  0  0  0  0  0  0  0  0
   -1.0436   -5.8263    0.0000 C   0  0  0  0  0  0  0  0  0  0  0  0
   -1.0532   -4.4003    0.0000 C   0  0  0  0  0  0  0  0  0  0  0  0
   -1.5334   -7.0583    0.0000 C   0  0  0  0  0  0  0  0  0  0  0  0
    2.2401   -4.3810    0.0000 C   0  0  0  0  0  0  0  0  0  0  0  0
    0.9888   -3.6873    0.0000 C   0  0  0  0  0  0  0  0  0  0  0  0
   -1.8632   -5.8361    0.0000 C   0  0  0  0  0  0  0  0  0  0  0  0
   -1.8777   -4.4052    0.0000 C   0  0  0  0  0  0  0  0  0  0  0  0
    1.8182   -3.6728    0.0000 C   0  0  0  0  0  0  0  0  0  0  0  0
   -2.2852   -5.1231    0.0000 C   0  0  0  0  0  0  0  0  0  0  0  0
  3  2  1  0
  4  3  2  0
  5  2  2  0
  6  2  2  0
  7  4  1  0
  8  2  1  0
  9  3  1  0
 10  7  1  0
 11  9  2  0
 12  7  2  0
 13 10  2  0
 14 12  1  0
 15 13  1  0
 11 10  1  0
 15 14  2  0
 17 16  1  0
 18 16  1  0
 19 18  1  0
 16 20  1  1
 21 17  1  0
 22 16  1  0
 23 19  2  0
 24 21  1  0
 25 20  1  0
 17 26  1  1
 27 19  1  0
 28 22  2  0
 29 22  1  0
 30 24  1  0
 31 24  1  0
 32 25  1  0
 33 25  2  0
 34 27  1  0
 35 28  1  0
 36 29  2  0
 37 32  2  0
 38 33  1  0
 39 35  2  0
 40 37  1  0
 36 39  1  0
 40 38  2  0
M  END
> <chembl_id>
CHEMBL3989716

> <chembl_pref_name>
PROPOXYPHENE NAPSYLATE
