
     RDKit          2D

 38 41  0  0  1  0  0  0  0  0999 V2000
    4.1417   -8.6292    0.0000 C   0  0  0  0  0  0  0  0  0  0  0  0
    2.9042   -9.3292    0.0000 C   0  0  0  0  0  0  0  0  0  0  0  0
    4.8167   -8.4125    0.0000 C   0  0  0  0  0  0  0  0  0  0  0  0
    2.2875   -9.6792    0.0000 C   0  0  0  0  0  0  0  0  0  0  0  0
    4.1292   -9.3375    0.0000 C   0  0  0  0  0  0  0  0  0  0  0  0
    3.5167   -9.6875    0.0000 C   0  0  0  0  0  0  0  0  0  0  0  0
    2.2875  -10.3917    0.0000 C   0  0  0  0  0  0  0  0  0  0  0  0
    2.9042   -8.6167    0.0000 C   0  0  0  0  0  0  0  0  0  0  0  0
    3.5250   -8.2625    0.0000 C   0  0  0  0  0  0  0  0  0  0  0  0
    5.2292   -8.9917    0.0000 C   0  0  0  0  0  0  0  0  0  0  0  0
    1.6667   -9.3292    0.0000 C   0  0  0  0  0  0  0  0  0  0  0  0
    4.8042   -9.5667    0.0000 C   0  0  0  0  0  0  0  0  0  0  0  0
    4.8167   -7.6917    0.0000 C   0  0  0  0  0  0  0  0  0  0  0  0
    1.6667  -10.7542    0.0000 C   0  0  0  0  0  0  0  0  0  0  0  0
    5.4375   -8.0500    0.0000 O   0  0  0  0  0  0  0  0  0  0  0  0
    3.5125  -10.4000    0.0000 C   0  0  0  0  0  0  0  0  0  0  0  0
    1.0542   -9.6792    0.0000 C   0  0  0  0  0  0  0  0  0  0  0  0
    1.0542  -10.3917    0.0000 C   0  0  0  0  0  0  0  0  0  0  0  0
    6.1500   -8.0500    0.0000 C   0  0  0  0  0  0  0  0  0  0  0  0
    2.9000  -10.7542    0.0000 C   0  0  0  0  0  0  0  0  0  0  0  0
    6.0375   -6.2625    0.0000 C   0  0  0  0  0  0  0  0  0  0  0  0
    2.9000  -10.0375    0.0000 F   0  0  0  0  0  0  0  0  0  0  0  0
    5.4292   -7.3375    0.0000 C   0  0  0  0  0  0  0  0  0  0  0  0
    4.1917   -7.3500    0.0000 O   0  0  0  0  0  0  0  0  0  0  0  0
    5.4250   -6.6250    0.0000 O   0  0  0  0  0  0  0  0  0  0  0  0
    6.5042   -8.6667    0.0000 O   0  0  0  0  0  0  0  0  0  0  0  0
    6.0292   -5.5500    0.0000 O   0  0  0  0  0  0  0  0  0  0  0  0
    0.4375  -10.7500    0.0000 O   0  0  0  0  0  0  0  0  0  0  0  0
    4.1375   -7.9125    0.0000 C   0  0  0  0  0  0  0  0  0  0  0  0
    2.2917   -8.2542    0.0000 O   0  0  0  0  0  0  0  0  0  0  0  0
    2.2792   -8.9667    0.0000 C   0  0  0  0  0  0  0  0  0  0  0  0
    5.9417   -9.0000    0.0000 C   0  0  0  0  0  0  0  0  0  0  0  0
    6.5042   -7.4292    0.0000 C   0  0  0  0  0  0  0  0  0  0  0  0
    6.6542   -6.6167    0.0000 C   0  0  0  0  0  0  0  0  0  0  0  0
    7.2750   -6.2542    0.0000 C   0  0  0  0  0  0  0  0  0  0  0  0
    7.2167   -7.4292    0.0000 C   0  0  0  0  0  0  0  0  0  0  0  0
    3.5125   -8.9750    0.0000 H   0  0  0  0  0  0  0  0  0  0  0  0
    4.1292  -10.0500    0.0000 H   0  0  0  0  0  0  0  0  0  0  0  0
  2  8  1  0
  3  1  1  0
  4  2  1  0
  5  1  1  0
  6  5  1  0
  7  4  1  0
  8  9  1  0
  9  1  1  0
 10  3  1  0
 11  4  1  0
 12  5  1  0
 13  3  1  0
 14  7  2  0
  3 15  1  6
 16  6  1  0
 17 11  2  0
 18 17  1  0
 19 15  1  0
 20 16  1  0
 21 25  1  0
  2 22  1  6
 23 13  1  0
 24 13  2  0
 25 23  1  0
 26 19  2  0
 27 21  2  0
 28 18  2  0
  1 29  1  1
  8 30  1  1
  4 31  1  1
 10 32  1  1
 33 19  1  0
 34 21  1  0
 35 34  1  0
 36 33  1  0
  6 37  1  1
  5 38  1  6
 12 10  1  0
  6  2  1  0
  7 20  1  0
 14 18  1  0
M  END
> <chembl_id>
CHEMBL1200384

> <chembl_pref_name>
BETAMETHASONE DIPROPIONATE
