
     RDKit          2D

 27 26  0  0  0  0  0  0  0  0999 V2000
    4.9821  -23.9196    0.0000 O   0  0  0  0  0  0  0  0  0  0  0  0
    6.8762  -21.6738    0.0000 N   0  0  0  0  0  0  0  0  0  0  0  0
    6.8762  -20.8898    0.0000 C   0  0  0  0  0  0  0  0  0  0  0  0
    7.5414  -22.1585    0.0000 C   0  0  0  0  0  0  0  0  0  0  0  0
    5.4506  -20.8898    0.0000 N   0  0  0  0  0  0  0  0  0  0  0  0
    6.1491  -20.4763    0.0000 C   0  0  0  0  0  0  0  0  0  0  0  0
    8.2020  -21.7309    0.0000 C   0  0  0  0  0  0  0  0  0  0  0  0
    4.7330  -19.6495    0.0000 C   0  0  0  0  0  0  0  0  0  0  0  0
    4.7330  -20.4763    0.0000 C   0  0  0  0  0  0  0  0  0  0  0  0
    7.5747  -20.4906    0.0000 O   0  0  0  0  0  0  0  0  0  0  0  0
    8.2020  -21.0181    0.0000 O   0  0  0  0  0  0  0  0  0  0  0  0
    4.0344  -19.2883    0.0000 O   0  0  0  0  0  0  0  0  0  0  0  0
    4.0202  -20.8898    0.0000 C   0  0  0  0  0  0  0  0  0  0  0  0
    6.1919  -22.1585    0.0000 C   0  0  0  0  0  0  0  0  0  0  0  0
    8.8815  -22.0730    0.0000 O   0  0  0  0  0  0  0  0  0  0  0  0
    5.3508  -19.3216    0.0000 O   0  0  0  0  0  0  0  0  0  0  0  0
    3.3074  -20.4763    0.0000 C   0  0  0  0  0  0  0  0  0  0  0  0
    7.2896  -22.9426    0.0000 C   0  0  0  0  0  0  0  0  0  0  0  0
    2.5994  -20.8898    0.0000 C   0  0  0  0  0  0  0  0  0  0  0  0
    6.4485  -22.9426    0.0000 C   0  0  0  0  0  0  0  0  0  0  0  0
    6.1491  -19.6447    0.0000 C   0  0  0  0  0  0  0  0  0  0  0  0
    2.5994  -21.7166    0.0000 C   0  0  0  0  0  0  0  0  0  0  0  0
    1.8818  -20.4621    0.0000 C   0  0  0  0  0  0  0  0  0  0  0  0
    1.8818  -22.1158    0.0000 C   0  0  0  0  0  0  0  0  0  0  0  0
    1.1738  -20.8898    0.0000 C   0  0  0  0  0  0  0  0  0  0  0  0
    1.1738  -21.7166    0.0000 C   0  0  0  0  0  0  0  0  0  0  0  0
    3.9489  -23.0139    0.0000 O   0  0  0  0  0  0  0  0  0  0  0  0
  3  2  1  0
  4  2  1  0
  5  6  1  0
  6  3  1  0
  4  7  1  6
  9  8  1  1
  9  5  1  0
 10  3  2  0
 11  7  2  0
 12  8  2  0
 13  9  1  0
 14  2  1  0
 15  7  1  0
 16  8  1  0
 17 13  1  0
 18  4  1  0
 19 17  1  0
 20 14  1  0
  6 21  1  1
 22 19  2  0
 23 19  1  0
 24 22  1  0
 25 23  2  0
 26 24  2  0
 18 20  1  0
 25 26  1  0
M  END
> <chembl_id>
CHEMBL3989406

> <chembl_pref_name>
ENALAPRILAT
