
     RDKit          2D

 22 25  0  0  0  0  0  0  0  0999 V2000
   -0.3500   -1.8250    0.0000 C   0  0  0  0  0  0  0  0  0  0  0  0
   -0.9958   -2.1250    0.0000 C   0  0  0  0  0  0  0  0  0  0  0  0
    0.2875   -2.1417    0.0000 C   0  0  0  0  0  0  0  0  0  0  0  0
   -0.3458   -1.1167    0.0000 C   0  0  0  0  0  0  0  0  0  0  0  0
   -0.3250    0.2958    0.0000 N   0  0  0  0  0  0  0  0  0  0  0  0
   -1.5083   -1.6292    0.0000 N   0  0  0  0  0  0  0  0  0  0  0  0
   -1.1583   -2.8167    0.0000 C   0  0  0  0  0  0  0  0  0  0  0  0
    0.4417   -2.8375    0.0000 C   0  0  0  0  0  0  0  0  0  0  0  0
    0.2750   -0.7750    0.0000 C   0  0  0  0  0  0  0  0  0  0  0  0
   -0.9583   -0.7625    0.0000 C   0  0  0  0  0  0  0  0  0  0  0  0
   -0.0083   -3.3875    0.0000 C   0  0  0  0  0  0  0  0  0  0  0  0
   -0.7208   -3.3792    0.0000 C   0  0  0  0  0  0  0  0  0  0  0  0
   -0.9458   -0.0542    0.0000 C   0  0  0  0  0  0  0  0  0  0  0  0
    0.2792   -0.0667    0.0000 C   0  0  0  0  0  0  0  0  0  0  0  0
    0.8042   -1.6542    0.0000 C   0  0  0  0  0  0  0  0  0  0  0  0
   -0.3208    1.0083    0.0000 C   0  0  0  0  0  0  0  0  0  0  0  0
   -2.1958   -1.8375    0.0000 C   0  0  0  0  0  0  0  0  0  0  0  0
   -1.8458   -3.0250    0.0000 C   0  0  0  0  0  0  0  0  0  0  0  0
    1.1250   -3.0500    0.0000 C   0  0  0  0  0  0  0  0  0  0  0  0
   -2.3583   -2.5375    0.0000 C   0  0  0  0  0  0  0  0  0  0  0  0
    1.4875   -1.8667    0.0000 C   0  0  0  0  0  0  0  0  0  0  0  0
    1.6500   -2.5667    0.0000 C   0  0  0  0  0  0  0  0  0  0  0  0
  2  1  1  0
  3  1  1  0
  4  1  2  0
  5 13  1  0
  6  2  1  0
  7  2  2  0
  8  3  2  0
  9  4  1  0
 10  4  1  0
 11  8  1  0
 12  7  1  0
 13 10  1  0
 14  9  1  0
 15  3  1  0
 16  5  1  0
 17  6  2  0
 18  7  1  0
 19  8  1  0
 20 18  2  0
 21 15  2  0
 22 19  2  0
 14  5  1  0
 12 11  1  0
 21 22  1  0
 17 20  1  0
M  END
> <chembl_id>
CHEMBL946

> <chembl_pref_name>
AZATADINE
