
     RDKit          2D

117124  0  0  1  0  0  0  0  0999 V2000
   13.7401   -5.4286    0.0000 N   0  0  0  0  0  0  0  0  0  0  0  0
    8.3740    1.5331    0.0000 N   0  0  0  0  0  0  0  0  0  0  0  0
   13.0277   -5.0244    0.0000 C   0  0  0  0  0  0  0  0  0  0  0  0
    7.5408    1.5456    0.0000 C   0  0  0  0  0  0  0  0  0  0  0  0
   15.1733   -5.4286    0.0000 C   0  0  0  0  0  0  0  0  0  0  0  0
    7.1159    0.8332    0.0000 N   0  0  0  0  0  0  0  0  0  0  0  0
    8.7740    0.8082    0.0000 C   0  0  0  0  0  0  0  0  0  0  0  0
    4.4412   -5.0161    0.0000 C   0  0  0  0  0  0  0  0  0  0  0  0
   14.4608   -5.0161    0.0000 C   0  0  0  0  0  0  0  0  0  0  0  0
    7.5158    0.1125    0.0000 C   0  0  0  0  0  0  0  0  0  0  0  0
    2.2914   -5.4286    0.0000 C   0  0  0  0  0  0  0  0  0  0  0  0
   10.8863   -5.4369    0.0000 C   0  0  0  0  0  0  0  0  0  0  0  0
    8.7407   -5.0244    0.0000 C   0  0  0  0  0  0  0  0  0  0  0  0
    0.1375   -5.0161    0.0000 C   0  0  0  0  0  0  0  0  0  0  0  0
    6.5992   -5.4369    0.0000 C   0  0  0  0  0  0  0  0  0  0  0  0
   -2.0206   -5.4286    0.0000 C   0  0  0  0  0  0  0  0  0  0  0  0
    7.0909   -0.5999    0.0000 C   0  0  0  0  0  0  0  0  0  0  0  0
    3.0164   -5.0161    0.0000 N   0  0  0  0  0  0  0  0  0  0  0  0
    3.7288   -5.4369    0.0000 C   0  0  0  0  0  0  0  0  0  0  0  0
    5.1661   -5.4369    0.0000 N   0  0  0  0  0  0  0  0  0  0  0  0
    7.3159   -5.0244    0.0000 N   0  0  0  0  0  0  0  0  0  0  0  0
    0.8541   -5.4286    0.0000 N   0  0  0  0  0  0  0  0  0  0  0  0
    9.4614   -5.4369    0.0000 N   0  0  0  0  0  0  0  0  0  0  0  0
   -1.2999   -5.0161    0.0000 N   0  0  0  0  0  0  0  0  0  0  0  0
   11.6029   -5.0244    0.0000 N   0  0  0  0  0  0  0  0  0  0  0  0
    8.3407    0.0958    0.0000 C   0  0  0  0  0  0  0  0  0  0  0  0
   15.8857   -5.0244    0.0000 N   0  0  0  0  0  0  0  0  0  0  0  0
    5.8785   -5.0161    0.0000 C   0  0  0  0  0  0  0  0  0  0  0  0
    8.0283   -5.4369    0.0000 C   0  0  0  0  0  0  0  0  0  0  0  0
   -0.5832   -5.4286    0.0000 C   0  0  0  0  0  0  0  0  0  0  0  0
    1.5748   -5.0161    0.0000 C   0  0  0  0  0  0  0  0  0  0  0  0
   10.1738   -5.0244    0.0000 C   0  0  0  0  0  0  0  0  0  0  0  0
    9.2364   -9.8239    0.0000 C   0  0  0  0  0  0  0  0  0  0  0  0
   12.3153   -5.4369    0.0000 C   0  0  0  0  0  0  0  0  0  0  0  0
   -2.7330   -5.0161    0.0000 C   0  0  0  0  0  0  0  0  0  0  0  0
   17.3147   -5.0244    0.0000 C   0  0  0  0  0  0  0  0  0  0  0  0
   -3.4496   -5.4286    0.0000 N   0  0  0  0  0  0  0  0  0  0  0  0
    7.5116   -1.3123    0.0000 N   0  0  0  0  0  0  0  0  0  0  0  0
   -4.1703   -5.0119    0.0000 C   0  0  0  0  0  0  0  0  0  0  0  0
   16.6023   -5.4369    0.0000 C   0  0  0  0  0  0  0  0  0  0  0  0
    9.6531   -9.1115    0.0000 N   0  0  0  0  0  0  0  0  0  0  0  0
   13.0277   -4.1912    0.0000 O   0  0  0  0  0  0  0  0  0  0  0  0
    7.1409    2.2705    0.0000 O   0  0  0  0  0  0  0  0  0  0  0  0
   15.1733   -6.2535    0.0000 O   0  0  0  0  0  0  0  0  0  0  0  0
   -2.7330   -4.1870    0.0000 C   0  0  0  0  0  0  0  0  0  0  0  0
    4.4412   -4.1912    0.0000 O   0  0  0  0  0  0  0  0  0  0  0  0
    0.1375   -4.1870    0.0000 O   0  0  0  0  0  0  0  0  0  0  0  0
    2.2914   -6.2618    0.0000 O   0  0  0  0  0  0  0  0  0  0  0  0
   10.8863   -6.2618    0.0000 O   0  0  0  0  0  0  0  0  0  0  0  0
    6.5992   -6.2660    0.0000 O   0  0  0  0  0  0  0  0  0  0  0  0
   -2.0206   -6.2618    0.0000 O   0  0  0  0  0  0  0  0  0  0  0  0
    8.7407   -4.1912    0.0000 O   0  0  0  0  0  0  0  0  0  0  0  0
    6.2618   -0.5791    0.0000 O   0  0  0  0  0  0  0  0  0  0  0  0
   -2.3455   -2.0415    0.0000 C   0  0  0  0  0  0  0  0  0  0  0  0
    9.6031    0.7874    0.0000 O   0  0  0  0  0  0  0  0  0  0  0  0
   -0.5832   -6.2618    0.0000 C   0  0  0  0  0  0  0  0  0  0  0  0
    8.0283   -6.2618    0.0000 C   0  0  0  0  0  0  0  0  0  0  0  0
    5.8785   -4.1912    0.0000 C   0  0  0  0  0  0  0  0  0  0  0  0
   -2.3247   -3.4663    0.0000 C   0  0  0  0  0  0  0  0  0  0  0  0
    1.5748   -4.1870    0.0000 C   0  0  0  0  0  0  0  0  0  0  0  0
   -2.7455   -2.7539    0.0000 C   0  0  0  0  0  0  0  0  0  0  0  0
    8.4115   -9.8156    0.0000 O   0  0  0  0  0  0  0  0  0  0  0  0
   17.3147   -4.1912    0.0000 O   0  0  0  0  0  0  0  0  0  0  0  0
   10.1738   -4.1912    0.0000 C   0  0  0  0  0  0  0  0  0  0  0  0
    1.9623   -2.0498    0.0000 N   0  0  0  0  0  0  0  0  0  0  0  0
   -4.1703   -4.1787    0.0000 O   0  0  0  0  0  0  0  0  0  0  0  0
   -1.5123   -2.0290    0.0000 C   0  0  0  0  0  0  0  0  0  0  0  0
    7.1034   -2.0290    0.0000 C   0  0  0  0  0  0  0  0  0  0  0  0
    9.6406  -10.5405    0.0000 N   0  0  0  0  0  0  0  0  0  0  0  0
   -1.0957   -2.7372    0.0000 C   0  0  0  0  0  0  0  0  0  0  0  0
   18.0271   -5.4286    0.0000 N   0  0  0  0  0  0  0  0  0  0  0  0
   13.7401   -4.6037    0.0000 C   0  0  0  0  0  0  0  0  0  0  0  0
    9.2406   -8.3907    0.0000 C   0  0  0  0  0  0  0  0  0  0  0  0
    6.2910   -3.4663    0.0000 C   0  0  0  0  0  0  0  0  0  0  0  0
    8.4407   -6.9742    0.0000 C   0  0  0  0  0  0  0  0  0  0  0  0
   -0.3708   -7.0617    0.0000 C   0  0  0  0  0  0  0  0  0  0  0  0
   -1.4998   -3.4538    0.0000 C   0  0  0  0  0  0  0  0  0  0  0  0
    0.0542   -8.6532    0.0000 C   0  0  0  0  0  0  0  0  0  0  0  0
    1.9790   -3.4663    0.0000 C   0  0  0  0  0  0  0  0  0  0  0  0
   13.7401   -8.7365    0.0000 N   0  0  0  0  0  0  0  0  0  0  0  0
    0.2667   -9.4531    0.0000 Cl  0  0  0  0  0  0  0  0  0  0  0  0
    3.7288   -6.2660    0.0000 C   0  0  0  0  0  0  0  0  0  0  0  0
    6.2743   -2.0415    0.0000 C   0  0  0  0  0  0  0  0  0  0  0  0
    7.5241   -2.7414    0.0000 C   0  0  0  0  0  0  0  0  0  0  0  0
    8.4240   -8.3907    0.0000 C   0  0  0  0  0  0  0  0  0  0  0  0
    9.6614   -7.6866    0.0000 C   0  0  0  0  0  0  0  0  0  0  0  0
   -0.9582   -7.6408    0.0000 C   0  0  0  0  0  0  0  0  0  0  0  0
    0.4250   -7.2659    0.0000 C   0  0  0  0  0  0  0  0  0  0  0  0
    7.1159   -3.4621    0.0000 C   0  0  0  0  0  0  0  0  0  0  0  0
    9.2531   -6.9742    0.0000 C   0  0  0  0  0  0  0  0  0  0  0  0
    5.8660   -2.7622    0.0000 C   0  0  0  0  0  0  0  0  0  0  0  0
    8.0158   -7.6783    0.0000 C   0  0  0  0  0  0  0  0  0  0  0  0
    0.6416   -8.0658    0.0000 C   0  0  0  0  0  0  0  0  0  0  0  0
   -0.7457   -8.4365    0.0000 C   0  0  0  0  0  0  0  0  0  0  0  0
   14.4608   -4.1912    0.0000 C   0  0  0  0  0  0  0  0  0  0  0  0
    4.4495   -6.6784    0.0000 O   0  0  0  0  0  0  0  0  0  0  0  0
    1.5623   -2.7664    0.0000 C   0  0  0  0  0  0  0  0  0  0  0  0
   13.9526   -3.8038    0.0000 C   0  0  0  0  0  0  0  0  0  0  0  0
   12.3153   -6.2618    0.0000 C   0  0  0  0  0  0  0  0  0  0  0  0
   10.5780   -3.4788    0.0000 C   0  0  0  0  0  0  0  0  0  0  0  0
   -4.8952   -5.4244    0.0000 C   0  0  0  0  0  0  0  0  0  0  0  0
    2.7914   -2.0373    0.0000 C   0  0  0  0  0  0  0  0  0  0  0  0
   13.0277   -9.1489    0.0000 C   0  0  0  0  0  0  0  0  0  0  0  0
   16.6023   -6.2618    0.0000 C   0  0  0  0  0  0  0  0  0  0  0  0
   -2.7705   -1.3290    0.0000 C   0  0  0  0  0  0  0  0  0  0  0  0
   13.7401   -7.9116    0.0000 C   0  0  0  0  0  0  0  0  0  0  0  0
   -1.1082   -1.3041    0.0000 C   0  0  0  0  0  0  0  0  0  0  0  0
    2.8039   -3.4621    0.0000 C   0  0  0  0  0  0  0  0  0  0  0  0
   13.0277   -6.6742    0.0000 C   0  0  0  0  0  0  0  0  0  0  0  0
   13.0277   -7.4991    0.0000 C   0  0  0  0  0  0  0  0  0  0  0  0
   11.4029   -3.4746    0.0000 C   0  0  0  0  0  0  0  0  0  0  0  0
   10.1613   -2.7664    0.0000 C   0  0  0  0  0  0  0  0  0  0  0  0
   13.0277   -9.9739    0.0000 C   0  0  0  0  0  0  0  0  0  0  0  0
   12.3153   -8.7365    0.0000 C   0  0  0  0  0  0  0  0  0  0  0  0
    3.2038   -2.7414    0.0000 C   0  0  0  0  0  0  0  0  0  0  0  0
   -2.3705   -0.6041    0.0000 C   0  0  0  0  0  0  0  0  0  0  0  0
   -1.5331   -0.5916    0.0000 C   0  0  0  0  0  0  0  0  0  0  0  0
  2  7  1  0
  3  1  1  0
  4  6  1  0
  5  9  1  0
  6 10  1  0
  7 26  1  0
  8 20  1  0
  9  1  1  0
 10 17  1  0
 11 18  1  0
 12 25  1  0
 13 23  1  0
 14 22  1  0
 15 21  1  0
 16 24  1  0
 17 38  1  0
 18 19  1  0
 19  8  1  0
 20 28  1  0
 21 29  1  0
 22 31  1  0
 23 32  1  0
 24 30  1  0
 25 34  1  0
 10 26  1  1
 27  5  1  0
 28 15  1  0
 29 13  1  0
 30 14  1  0
 31 11  1  0
 32 12  1  0
 33 41  1  0
 34  3  1  0
 35 16  1  0
 36 40  1  0
 37 35  1  0
 38 68  1  0
 39 37  1  0
 40 27  1  0
 41 73  1  0
 42  3  2  0
 43  4  2  0
 44  5  2  0
 35 45  1  6
 46  8  2  0
 47 14  2  0
 48 11  2  0
 49 12  2  0
 50 15  2  0
 51 16  2  0
 52 13  2  0
 53 17  2  0
 54 61  2  0
 55  7  2  0
 30 56  1  1
 29 57  1  1
 28 58  1  1
 59 45  1  0
 31 60  1  6
 61 59  1  0
 62 33  2  0
 63 36  2  0
 32 64  1  1
 65 97  2  0
 66 39  2  0
 67 70  2  0
 68 83  1  0
 69 33  1  0
 70 77  1  0
 71 36  1  0
 72  1  1  0
 73 85  2  0
 74 58  1  0
 75 57  1  0
 76 56  1  0
 77 59  2  0
 78 93  1  0
 79 60  1  0
 80106  1  0
 81 78  1  0
 19 82  1  6
 83 91  2  0
 84 89  1  0
 85 92  1  0
 86 90  2  0
 87 76  2  0
 88 76  1  0
 89 74  2  0
 90 75  1  0
 91 74  1  0
 92 75  2  0
 93 88  2  0
 94 87  1  0
  9 95  1  1
 96 82  1  0
 97 79  1  0
 98 72  1  0
 34 99  1  6
100 64  1  0
101 39  1  0
102115  2  0
103 80  1  0
 40104  1  1
105 54  1  0
106110  1  0
107 67  1  0
108 79  2  0
109 99  1  0
110109  1  0
111100  1  0
112100  1  0
113103  1  0
114103  1  0
115108  1  0
116105  2  0
117107  2  0
 98 95  1  0
 73 86  1  0
 68 84  2  0
  2  4  1  0
102 65  1  0
 78 94  2  0
 67 54  1  0
117116  1  0
M  END
> <chembl_id>
CHEMBL415606

> <chembl_pref_name>
DEGARELIX
