
     RDKit          2D

 47 52  0  0  1  0  0  0  0  0999 V2000
    0.8292   -8.9375    0.0000 C   0  0  0  0  0  0  0  0  0  0  0  0
    0.1542   -9.1542    0.0000 N   0  0  0  0  0  0  0  0  0  0  0  0
    0.8292   -8.2292    0.0000 C   0  0  0  0  0  0  0  0  0  0  0  0
    2.0417  -11.0417    0.0000 C   0  0  0  0  0  0  0  0  0  0  0  0
    2.0500  -10.3417    0.0000 C   0  0  0  0  0  0  0  0  0  0  0  0
    1.4417   -9.2875    0.0000 C   0  0  0  0  0  0  0  0  0  0  0  0
    2.0542   -8.9375    0.0000 N   0  0  0  0  0  0  0  0  0  0  0  0
   -0.2625   -8.5875    0.0000 C   0  0  0  0  0  0  0  0  0  0  0  0
    0.1542   -8.0167    0.0000 C   0  0  0  0  0  0  0  0  0  0  0  0
    2.6625   -9.9917    0.0000 C   0  0  0  0  0  0  0  0  0  0  0  0
    3.2667  -11.0542    0.0000 C   0  0  0  0  0  0  0  0  0  0  0  0
    4.4917  -11.0542    0.0000 C   0  0  0  0  0  0  0  0  0  0  0  0
    1.4375   -9.9917    0.0000 C   0  0  0  0  0  0  0  0  0  0  0  0
    2.6542  -11.4000    0.0000 C   0  0  0  0  0  0  0  0  0  0  0  0
    5.1042  -11.4167    0.0000 C   0  0  0  0  0  0  0  0  0  0  0  0
    6.3250  -12.1292    0.0000 C   0  0  0  0  0  0  0  0  0  0  0  0
    1.4292  -11.3917    0.0000 C   0  0  0  0  0  0  0  0  0  0  0  0
    3.8792  -11.4042    0.0000 O   0  0  0  0  0  0  0  0  0  0  0  0
    2.6667   -9.2875    0.0000 C   0  0  0  0  0  0  0  0  0  0  0  0
    6.3250  -11.4167    0.0000 C   0  0  0  0  0  0  0  0  0  0  0  0
    5.7042  -12.4792    0.0000 C   0  0  0  0  0  0  0  0  0  0  0  0
    3.2667  -10.3417    0.0000 C   0  0  0  0  0  0  0  0  0  0  0  0
    1.4417   -7.8750    0.0000 C   0  0  0  0  0  0  0  0  0  0  0  0
    5.7167  -11.0667    0.0000 C   0  0  0  0  0  0  0  0  0  0  0  0
    5.1000  -12.1250    0.0000 C   0  0  0  0  0  0  0  0  0  0  0  0
   -0.9583   -8.5167    0.0000 C   0  0  0  0  0  0  0  0  0  0  0  0
   -0.1333   -7.3750    0.0000 C   0  0  0  0  0  0  0  0  0  0  0  0
    2.0542   -8.2292    0.0000 C   0  0  0  0  0  0  0  0  0  0  0  0
    4.4917  -10.3500    0.0000 O   0  0  0  0  0  0  0  0  0  0  0  0
    1.4292  -12.1042    0.0000 O   0  0  0  0  0  0  0  0  0  0  0  0
   -1.2500   -7.8792    0.0000 C   0  0  0  0  0  0  0  0  0  0  0  0
    6.9375  -12.4875    0.0000 O   0  0  0  0  0  0  0  0  0  0  0  0
   -0.8375   -7.3000    0.0000 C   0  0  0  0  0  0  0  0  0  0  0  0
    2.6500  -12.1042    0.0000 O   0  0  0  0  0  0  0  0  0  0  0  0
    0.8167  -11.0375    0.0000 O   0  0  0  0  0  0  0  0  0  0  0  0
    6.9417  -11.0667    0.0000 O   0  0  0  0  0  0  0  0  0  0  0  0
    5.7042  -13.1917    0.0000 O   0  0  0  0  0  0  0  0  0  0  0  0
   -1.9583   -7.8042    0.0000 O   0  0  0  0  0  0  0  0  0  0  0  0
    6.9292  -13.1917    0.0000 C   0  0  0  0  0  0  0  0  0  0  0  0
    2.0292  -12.4542    0.0000 C   0  0  0  0  0  0  0  0  0  0  0  0
    7.5542  -11.4167    0.0000 C   0  0  0  0  0  0  0  0  0  0  0  0
    5.0875  -13.5417    0.0000 C   0  0  0  0  0  0  0  0  0  0  0  0
    0.2042  -11.3875    0.0000 C   0  0  0  0  0  0  0  0  0  0  0  0
   -2.2458   -7.1625    0.0000 C   0  0  0  0  0  0  0  0  0  0  0  0
    0.8250   -9.6375    0.0000 H   0  0  0  0  0  0  0  0  0  0  0  0
    1.4292  -10.6917    0.0000 H   0  0  0  0  0  0  0  0  0  0  0  0
    3.2750   -9.6375    0.0000 H   0  0  0  0  0  0  0  0  0  0  0  0
  2  1  1  0
  3  1  2  0
  4  5  1  0
  5 13  1  0
  6  1  1  0
  7  6  1  0
  8  2  1  0
  9  3  1  0
 10  5  1  0
 11 22  1  0
 12 18  1  0
 13  6  1  0
 14  4  1  0
 15 12  1  0
 16 21  2  0
  4 17  1  1
 11 18  1  1
 19  7  1  0
 20 24  2  0
 21 25  1  0
 22 10  1  0
 23  3  1  0
 24 15  1  0
 25 15  2  0
 26  8  1  0
 27  9  1  0
 28  7  1  0
 29 12  2  0
 30 17  2  0
 31 26  2  0
 32 16  1  0
 33 27  2  0
 14 34  1  6
 35 17  1  0
 36 20  1  0
 37 21  1  0
 38 31  1  0
 39 32  1  0
 40 34  1  0
 41 36  1  0
 42 37  1  0
 43 35  1  0
 44 38  1  0
  6 45  1  1
  5 46  1  6
 10 47  1  6
  9  8  2  0
 23 28  1  0
 19 10  1  0
 31 33  1  0
 11 14  1  0
 20 16  1  0
M  END
> <chembl_id>
CHEMBL772

> <chembl_pref_name>
RESERPINE
