
     RDKit          2D

 62 70  0  0  0  0  0  0  0  0999 V2000
   -0.4727   -2.0942    0.0000 C   0  0  0  0  0  0  0  0  0  0  0  0
    0.0158   -2.7617    0.0000 C   0  0  0  0  0  0  0  0  0  0  0  0
    0.8375   -2.6778    0.0000 C   0  0  0  0  0  0  0  0  0  0  0  0
   -0.1376   -1.3454    0.0000 C   0  0  0  0  0  0  0  0  0  0  0  0
    0.6831   -1.2505    0.0000 C   0  0  0  0  0  0  0  0  0  0  0  0
    1.1730   -1.9188    0.0000 C   0  0  0  0  0  0  0  0  0  0  0  0
    1.9561   -1.6574    0.0000 N   0  0  0  0  0  0  0  0  0  0  0  0
    1.1608   -0.5780    0.0000 C   0  0  0  0  0  0  0  0  0  0  0  0
    1.9498   -0.8311    0.0000 C   0  0  0  0  0  0  0  0  0  0  0  0
    2.5564   -0.2782    0.0000 C   0  0  0  0  0  0  0  0  0  0  0  0
    2.3820    0.5289    0.0000 C   0  0  0  0  0  0  0  0  0  0  0  0
    0.9807    0.2224    0.0000 C   0  0  0  0  0  0  0  0  0  0  0  0
    1.5940    0.7740    0.0000 C   0  0  0  0  0  0  0  0  0  0  0  0
    1.4226    1.5788    0.0000 C   0  0  0  0  0  0  0  0  0  0  0  0
    0.6404    1.8331    0.0000 C   0  0  0  0  0  0  0  0  0  0  0  0
    0.0312    1.2816    0.0000 C   0  0  0  0  0  0  0  0  0  0  0  0
    0.1983    0.4719    0.0000 N   0  0  0  0  0  0  0  0  0  0  0  0
   -0.2288   -0.2422    0.0000 C   0  0  0  0  0  0  0  0  0  0  0  0
    0.3379   -0.8363    0.0000 C   0  0  0  0  0  0  0  0  0  0  0  0
    2.9856    1.0852    0.0000 O   0  0  0  0  0  0  0  0  0  0  0  0
    3.1505    0.2878    0.0000 O   0  0  0  0  0  0  0  0  0  0  0  0
    3.7732    0.8368    0.0000 C   0  0  0  0  0  0  0  0  0  0  0  0
    4.3842    1.3942    0.0000 C   0  0  0  0  0  0  0  0  0  0  0  0
    3.9515    0.0346    0.0000 O   0  0  0  0  0  0  0  0  0  0  0  0
    3.1255   -0.8790    0.0000 C   0  0  0  0  0  0  0  0  0  0  0  0
    2.8860   -1.6681    0.0000 O   0  0  0  0  0  0  0  0  0  0  0  0
    3.9231   -0.6856    0.0000 O   0  0  0  0  0  0  0  0  0  0  0  0
    4.4910   -1.2871    0.0000 C   0  0  0  0  0  0  0  0  0  0  0  0
    2.6260   -2.1360    0.0000 C   0  0  0  0  0  0  0  0  0  0  0  0
    2.6466   -0.9935    0.0000 H   0  0  0  0  0  0  0  0  0  0  0  0
   -2.6576   -0.0902    0.0000 N   0  0  0  0  0  0  0  0  0  0  0  0
   -2.1992   -0.7771    0.0000 C   0  0  0  0  0  0  0  0  0  0  0  0
   -1.3805   -0.7230    0.0000 C   0  0  0  0  0  0  0  0  0  0  0  0
   -1.0149    0.0121    0.0000 C   0  0  0  0  0  0  0  0  0  0  0  0
   -1.4732    0.6988    0.0000 C   0  0  0  0  0  0  0  0  0  0  0  0
   -2.2974    0.6466    0.0000 C   0  0  0  0  0  0  0  0  0  0  0  0
   -4.7815   -1.6774    0.0000 C   0  0  0  0  0  0  0  0  0  0  0  0
   -4.8146   -2.5005    0.0000 C   0  0  0  0  0  0  0  0  0  0  0  0
   -4.1171   -2.9445    0.0000 C   0  0  0  0  0  0  0  0  0  0  0  0
   -4.0519   -1.2929    0.0000 C   0  0  0  0  0  0  0  0  0  0  0  0
   -3.3515   -1.7351    0.0000 C   0  0  0  0  0  0  0  0  0  0  0  0
   -3.3891   -2.5621    0.0000 C   0  0  0  0  0  0  0  0  0  0  0  0
   -2.6140   -2.8481    0.0000 N   0  0  0  0  0  0  0  0  0  0  0  0
   -2.5554   -1.5149    0.0000 C   0  0  0  0  0  0  0  0  0  0  0  0
   -2.1018   -2.1995    0.0000 C   0  0  0  0  0  0  0  0  0  0  0  0
   -1.2882   -2.1479    0.0000 C   0  0  0  0  0  0  0  0  0  0  0  0
   -0.9232   -1.4161    0.0000 C   0  0  0  0  0  0  0  0  0  0  0  0
   -3.3792   -0.3676    0.0000 C   0  0  0  0  0  0  0  0  0  0  0  0
   -0.5647   -0.6720    0.0000 H   0  0  0  0  0  0  0  0  0  0  0  0
   -0.3202   -3.5139    0.0000 O   0  0  0  0  0  0  0  0  0  0  0  0
    0.1650   -4.1857    0.0000 C   0  0  0  0  0  0  0  0  0  0  0  0
   -1.4594   -2.9557    0.0000 C   0  0  0  0  0  0  0  0  0  0  0  0
   -0.8541   -3.5091    0.0000 O   0  0  0  0  0  0  0  0  0  0  0  0
   -2.2491   -3.2097    0.0000 O   0  0  0  0  0  0  0  0  0  0  0  0
   -2.4236   -4.0092    0.0000 C   0  0  0  0  0  0  0  0  0  0  0  0
    2.1342    1.3978    0.0000 C   0  0  0  0  0  0  0  0  0  0  0  0
    1.8644    2.1800    0.0000 C   0  0  0  0  0  0  0  0  0  0  0  0
    1.7900    0.0592    0.0000 H   0  0  0  0  0  0  0  0  0  0  0  0
   -1.1086    1.4358    0.0000 C   0  0  0  0  0  0  0  0  0  0  0  0
   -0.7018    2.1510    0.0000 C   0  0  0  0  0  0  0  0  0  0  0  0
   -1.8347    1.8215    0.0000 F   0  0  0  0  0  0  0  0  0  0  0  0
   -0.3828    1.0494    0.0000 F   0  0  0  0  0  0  0  0  0  0  0  0
  5  4  2  0
  4  1  1  0
  5  6  1  0
  6  7  1  0
  7  9  1  0
  8  5  1  0
  8  9  1  0
  8 12  1  0
  9 10  1  0
 10 11  1  0
 11 13  1  0
 12 13  1  0
 12 17  1  0
 13 14  1  0
 14 15  2  0
 15 16  1  0
 16 17  1  0
 17 18  1  0
 18 19  1  0
  8 19  1  1
 11 20  1  1
 10 21  1  1
 20 22  1  0
 22 23  1  0
 22 24  2  0
 10 25  1  0
 25 26  2  0
 25 27  1  0
 27 28  1  0
  7 29  1  0
  9 30  1  1
 31 32  1  0
 31 36  1  0
 32 33  1  0
 33 34  1  0
 34 35  1  0
 35 36  1  0
 37 38  2  0
 38 39  1  0
 39 42  2  0
 41 40  2  0
 40 37  1  0
 41 42  1  0
 44 41  1  0
 42 43  1  0
 43 45  1  0
 44 45  2  0
 45 46  1  0
 46 47  1  0
 47 33  1  0
 31 48  1  0
 33 49  1  6
 46  1  1  0
  2 50  1  0
 50 51  1  0
 46 52  1  1
 52 53  2  0
 52 54  1  0
 54 55  1  0
 13 56  1  6
 56 57  1  0
 12 58  1  6
 35 59  1  6
  1  2  2  0
 59 60  1  0
  2  3  1  0
 59 61  1  0
  3  6  2  0
 59 62  1  0
 44 48  1  0
M  END
> <chembl_id>
CHEMBL2110725

> <chembl_pref_name>
VINFLUNINE
