
     RDKit          2D

 25 23  0  0  0  0  0  0  0  0999 V2000
   -1.7664   -1.9912    0.0000 O   0  0  0  0  0  0  0  0  0  0  0  0
   -1.0520   -2.4037    0.0000 C   0  0  0  0  0  0  0  0  0  0  0  0
   -0.3375   -1.9912    0.0000 O   0  0  0  0  0  0  0  0  0  0  0  0
   -1.0520   -3.2287    0.0000 C   0  0  0  0  0  0  0  0  0  0  0  0
   -0.3375   -3.6412    0.0000 N   0  0  0  0  0  0  0  0  0  0  0  0
    0.3770   -3.2287    0.0000 C   0  0  0  0  0  0  0  0  0  0  0  0
    0.3770   -2.4037    0.0000 C   0  0  0  0  0  0  0  0  0  0  0  0
    0.0414   -1.6500    0.0000 O   0  0  0  0  0  0  0  0  0  0  0  0
    1.0915   -1.9912    0.0000 O   0  0  0  0  0  0  0  0  0  0  0  0
   -0.3375   -4.4662    0.0000 C   0  0  0  0  0  0  0  0  0  0  0  0
    0.3300   -4.9511    0.0000 C   0  0  0  0  0  0  0  0  0  0  0  0
    1.1146   -4.6962    0.0000 C   0  0  0  0  0  0  0  0  0  0  0  0
    1.8992   -4.4412    0.0000 N   0  0  0  0  0  0  0  0  0  0  0  0
    0.0750   -5.7357    0.0000 C   0  0  0  0  0  0  0  0  0  0  0  0
    0.5599   -6.4032    0.0000 C   0  0  0  0  0  0  0  0  0  0  0  0
    1.3804   -6.3169    0.0000 C   0  0  0  0  0  0  0  0  0  0  0  0
    1.7160   -5.5632    0.0000 O   0  0  0  0  0  0  0  0  0  0  0  0
    1.8653   -6.9844    0.0000 O   0  0  0  0  0  0  0  0  0  0  0  0
   -0.7500   -5.7357    0.0000 C   0  0  0  0  0  0  0  0  0  0  0  0
   -1.0049   -4.9511    0.0000 S   0  0  0  0  0  0  0  0  0  0  0  0
   -1.2349   -6.4032    0.0000 C   0  0  0  0  0  0  0  0  0  0  0  0
   -2.0554   -6.3169    0.0000 O   0  0  0  0  0  0  0  0  0  0  0  0
   -0.8993   -7.1568    0.0000 O   0  0  0  0  0  0  0  0  0  0  0  0
    0.0000    0.0000    0.0000 Sr  0  0  0  0  0 15  0  0  0  0  0  0
    1.1196    0.0000    0.0000 Sr  0  0  0  0  0 15  0  0  0  0  0  0
  1  2  1  0
  2  3  2  0
  2  4  1  0
  4  5  1  0
  5  6  1  0
  6  7  1  0
  7  8  1  0
  7  9  2  0
  5 10  1  0
 10 11  2  0
 11 12  1  0
 12 13  3  0
 11 14  1  0
 14 15  1  0
 15 16  1  0
 16 17  1  0
 16 18  2  0
 14 19  2  0
 19 20  1  0
 10 20  1  0
 19 21  1  0
 21 22  1  0
 21 23  2  0
M  CHG  6   1  -1   8  -1  17  -1  22  -1  24   2  25   2
M  END
> <chembl_id>
CHEMBL3707306

> <chembl_pref_name>
STRONTIUM RANELATE
