
     RDKit          2D

 18 19  0  0  0  0  0  0  0  0999 V2000
   -3.0458   -0.2375    0.0000 C   0  0  0  0  0  0  0  0  0  0  0  0
   -0.7208   -0.2000    0.0000 N   0  0  0  0  0  0  0  0  0  0  0  0
   -1.9083    0.4625    0.0000 C   0  0  0  0  0  0  0  0  0  0  0  0
    0.4625    0.5000    0.0000 C   0  0  0  0  0  0  0  0  0  0  0  0
   -3.0333   -1.6000    0.0000 C   0  0  0  0  0  0  0  0  0  0  0  0
    1.6250   -0.1792    0.0000 C   0  0  0  0  0  0  0  0  0  0  0  0
    2.7917    0.5208    0.0000 C   0  0  0  0  0  0  0  0  0  0  0  0
   -1.8458   -2.2417    0.0000 O   0  0  0  0  0  0  0  0  0  0  0  0
   -4.1750   -2.2792    0.0000 O   0  0  0  0  0  0  0  0  0  0  0  0
    3.9750   -0.1542    0.0000 Cl  0  0  0  0  0  0  0  0  0  0  0  0
   -4.2458    0.4208    0.0000 C   0  0  0  0  0  0  0  0  0  0  0  0
    0.4750    1.8458    0.0000 C   0  0  0  0  0  0  0  0  0  0  0  0
    1.6250   -1.5167    0.0000 C   0  0  0  0  0  0  0  0  0  0  0  0
   -1.8875    1.8250    0.0000 C   0  0  0  0  0  0  0  0  0  0  0  0
    1.6125    2.5333    0.0000 C   0  0  0  0  0  0  0  0  0  0  0  0
    2.7917    1.8833    0.0000 C   0  0  0  0  0  0  0  0  0  0  0  0
   -4.2375    1.7750    0.0000 C   0  0  0  0  0  0  0  0  0  0  0  0
   -3.1000    2.4833    0.0000 C   0  0  0  0  0  0  0  0  0  0  0  0
  2  3  1  0
  3  1  1  0
  4  2  1  0
  5  1  1  0
  6  4  2  0
  7  6  1  0
  8  5  2  0
  9  5  1  0
 10  7  1  0
 11  1  2  0
 12  4  1  0
 13  6  1  0
 14  3  2  0
 15 12  2  0
 16 15  1  0
 17 11  1  0
 18 17  2  0
 14 18  1  0
  7 16  2  0
M  END
> <chembl_id>
CHEMBL121626

> <chembl_pref_name>
TOLFENAMIC ACID
