
     RDKit          2D

 32 36  0  0  1  0  0  0  0  0999 V2000
    0.4000   -1.6542    0.0000 C   0  0  0  0  0  0  0  0  0  0  0  0
    0.4542    2.1208    0.0000 C   0  0  0  0  0  0  0  0  0  0  0  0
    1.2917   -1.9417    0.0000 C   0  0  0  0  0  0  0  0  0  0  0  0
    1.2500   -0.4250    0.0000 C   0  0  0  0  0  0  0  0  0  0  0  0
    1.2500    1.6708    0.0000 C   0  0  0  0  0  0  0  0  0  0  0  0
    0.4000   -0.7167    0.0000 C   0  0  0  0  0  0  0  0  0  0  0  0
    1.8250   -1.1917    0.0000 O   0  0  0  0  0  0  0  0  0  0  0  0
   -0.3375    1.6708    0.0000 C   0  0  0  0  0  0  0  0  0  0  0  0
   -1.1333    2.1208    0.0000 C   0  0  0  0  0  0  0  0  0  0  0  0
    0.4542    3.0208    0.0000 C   0  0  0  0  0  0  0  0  0  0  0  0
    2.0417    2.1208    0.0000 N   0  0  0  0  0  0  0  0  0  0  0  0
   -0.4083   -2.1250    0.0000 C   0  0  0  0  0  0  0  0  0  0  0  0
   -1.1333    3.0208    0.0000 C   0  0  0  0  0  0  0  0  0  0  0  0
   -0.3375    3.4833    0.0000 C   0  0  0  0  0  0  0  0  0  0  0  0
   -0.4083   -0.2417    0.0000 C   0  0  0  0  0  0  0  0  0  0  0  0
   -2.7208    2.1208    0.0000 O   0  0  0  0  0  0  0  0  0  0  0  0
   -1.9333    3.4833    0.0000 O   0  0  0  0  0  0  0  0  0  0  0  0
    1.6042   -2.8667    0.0000 O   0  0  0  0  0  0  0  0  0  0  0  0
   -1.2250   -1.6542    0.0000 C   0  0  0  0  0  0  0  0  0  0  0  0
    1.2500    3.4833    0.0000 C   0  0  0  0  0  0  0  0  0  0  0  0
   -2.7208    3.0208    0.0000 C   0  0  0  0  0  0  0  0  0  0  0  0
    2.0417    3.0208    0.0000 C   0  0  0  0  0  0  0  0  0  0  0  0
   -1.2250   -0.7167    0.0000 C   0  0  0  0  0  0  0  0  0  0  0  0
   -0.3375    0.7208    0.0000 O   0  0  0  0  0  0  0  0  0  0  0  0
   -0.3958   -3.1000    0.0000 O   0  0  0  0  0  0  0  0  0  0  0  0
   -2.0625   -2.1542    0.0000 O   0  0  0  0  0  0  0  0  0  0  0  0
    2.8917    1.6458    0.0000 C   0  0  0  0  0  0  0  0  0  0  0  0
   -1.1333    0.2583    0.0000 C   0  0  0  0  0  0  0  0  0  0  0  0
   -1.2000   -3.5917    0.0000 C   0  0  0  0  0  0  0  0  0  0  0  0
   -2.9000   -1.6792    0.0000 C   0  0  0  0  0  0  0  0  0  0  0  0
    2.2250    0.7958    0.0000 H   0  0  0  0  0  0  0  0  0  0  0  0
    0.4542    0.4833    0.0000 H   0  0  0  0  0  0  0  0  0  0  0  0
  2  5  1  0
  3  1  1  0
  4  6  1  0
  5  4  1  0
  6  1  2  0
  7  3  1  0
  8  2  1  0
  9  8  2  0
 10  2  2  0
 11  5  1  0
 12  1  1  0
 13 14  2  0
 14 10  1  0
 15  6  1  0
 16  9  1  0
 17 13  1  0
 18  3  2  0
 19 12  2  0
 20 22  1  0
 21 16  1  0
 22 11  1  0
 23 19  1  0
 24  8  1  0
 25 12  1  0
 26 19  1  0
 27 11  1  0
 28 24  1  0
 29 25  1  0
 30 26  1  0
  5 31  1  6
  4 32  1  6
  4  7  1  0
 15 23  2  0
 10 20  1  0
  9 13  1  0
 17 21  1  0
M  END
> <chembl_id>
CHEMBL364713

> <chembl_pref_name>
NOSCAPINE
