
     RDKit          2D

 31 34  0  0  0  0  0  0  0  0999 V2000
    1.3086   -3.4842    0.0000 O   0  0  0  0  0  0  0  0  0  0  0  0
    5.0342   -3.4021    0.0000 C   0  0  0  0  0  0  0  0  0  0  0  0
    5.7486   -2.9896    0.0000 C   0  0  0  0  0  0  0  0  0  0  0  0
    4.3197   -2.9896    0.0000 N   0  0  0  0  0  0  0  0  0  0  0  0
    5.0342   -4.2271    0.0000 C   0  0  0  0  0  0  0  0  0  0  0  0
    5.7486   -4.6396    0.0000 C   0  0  0  0  0  0  0  0  0  0  0  0
    6.4631   -4.2271    0.0000 C   0  0  0  0  0  0  0  0  0  0  0  0
    6.4631   -3.4021    0.0000 C   0  0  0  0  0  0  0  0  0  0  0  0
    2.8907   -0.5146    0.0000 C   0  0  0  0  0  0  0  0  0  0  0  0
    3.6052   -0.9271    0.0000 C   0  0  0  0  0  0  0  0  0  0  0  0
    2.1763   -0.9271    0.0000 C   0  0  0  0  0  0  0  0  0  0  0  0
    2.1763   -1.7521    0.0000 C   0  0  0  0  0  0  0  0  0  0  0  0
    2.8907   -2.1646    0.0000 C   0  0  0  0  0  0  0  0  0  0  0  0
    2.8907   -2.9896    0.0000 C   0  0  0  0  0  0  0  0  0  0  0  0
    3.6052   -3.4021    0.0000 C   0  0  0  0  0  0  0  0  0  0  0  0
    3.6052   -4.2271    0.0000 C   0  0  0  0  0  0  0  0  0  0  0  0
    2.8907   -4.6396    0.0000 N   0  0  0  0  0  0  0  0  0  0  0  0
    3.6052   -1.7521    0.0000 C   0  0  0  0  0  0  0  0  0  0  0  0
    4.3197   -2.1646    0.0000 C   0  0  0  0  0  0  0  0  0  0  0  0
    5.0342   -1.7521    0.0000 O   0  0  0  0  0  0  0  0  0  0  0  0
    4.3197   -0.5146    0.0000 Cl  0  0  0  0  0  0  0  0  0  0  0  0
    2.1763   -5.8771    0.0000 C   0  0  0  0  0  0  0  0  0  0  0  0
    2.8907   -5.4646    0.0000 C   0  0  0  0  0  0  0  0  0  0  0  0
    1.3916   -5.6221    0.0000 N   0  0  0  0  0  0  0  0  0  0  0  0
    1.3916   -6.9570    0.0000 N   0  0  0  0  0  0  0  0  0  0  0  0
    2.1763   -6.7021    0.0000 C   0  0  0  0  0  0  0  0  0  0  0  0
    2.8907   -7.1146    0.0000 N   0  0  0  0  0  0  0  0  0  0  0  0
    3.6052   -5.8771    0.0000 N   0  0  0  0  0  0  0  0  0  0  0  0
    3.6052   -6.7021    0.0000 C   0  0  0  0  0  0  0  0  0  0  0  0
    0.9067   -6.2896    0.0000 C   0  0  0  0  0  0  0  0  0  0  0  0
    4.3197   -4.6396    0.0000 C   0  0  0  0  0  0  0  0  0  0  0  0
  2  3  1  0
  2  5  2  0
  3  8  2  0
  4  2  1  0
  5  6  1  0
  6  7  2  0
  8  7  1  0
  9 10  2  0
  9 11  1  0
 10 21  1  0
 11 12  2  0
 12 13  1  0
 13 18  2  0
 14 13  1  0
 14 15  2  0
 15 16  1  0
 15  4  1  0
 16 17  1  0
 17 23  1  0
 18 10  1  0
 19 18  1  0
 19  4  1  0
 20 19  2  0
 22 23  1  0
 22 26  2  0
 23 28  2  0
 24 22  1  0
 24 30  1  0
 25 26  1  0
 26 27  1  0
 27 29  2  0
 29 28  1  0
 30 25  2  0
 16 31  1  6
M  END
> <chembl_id>
CHEMBL5315125

> <chembl_pref_name>
DUVELISIB MONOHYDRATE
