
     RDKit          2D

 21 20  0  0  0  0  0  0  0  0999 V2000
    8.2083   -5.2250    0.0000 C   0  0  0  0  0  0  0  0  0  0  0  0
    8.2083   -4.5167    0.0000 O   0  0  0  0  0  0  0  0  0  0  0  0
    8.8208   -5.5792    0.0000 O   0  0  0  0  0  0  0  0  0  0  0  0
    7.5917   -5.5792    0.0000 C   0  0  0  0  0  0  0  0  0  0  0  0
    3.2625   -4.5542    0.0000 N   0  0  0  0  0  0  0  0  0  0  0  0
    2.6500   -4.9125    0.0000 C   0  0  0  0  0  0  0  0  0  0  0  0
    3.8750   -4.9083    0.0000 C   0  0  0  0  0  0  0  0  0  0  0  0
    4.4875   -4.5500    0.0000 C   0  0  0  0  0  0  0  0  0  0  0  0
    2.6500   -5.6208    0.0000 C   0  0  0  0  0  0  0  0  0  0  0  0
    5.7125   -4.5458    0.0000 N   0  0  0  0  0  0  0  0  0  0  0  0
    5.1000   -4.9042    0.0000 C   0  0  0  0  0  0  0  0  0  0  0  0
    3.8750   -5.6208    0.0000 C   0  0  0  0  0  0  0  0  0  0  0  0
    6.3292   -4.9000    0.0000 C   0  0  0  0  0  0  0  0  0  0  0  0
    3.2625   -5.9750    0.0000 C   0  0  0  0  0  0  0  0  0  0  0  0
    4.4833   -3.8417    0.0000 O   0  0  0  0  0  0  0  0  0  0  0  0
    2.0375   -5.9750    0.0000 O   0  0  0  0  0  0  0  0  0  0  0  0
    2.0375   -4.5542    0.0000 C   0  0  0  0  0  0  0  0  0  0  0  0
    1.4250   -4.9083    0.0000 O   0  0  0  0  0  0  0  0  0  0  0  0
    5.9667   -5.5125    0.0000 C   0  0  0  0  0  0  0  0  0  0  0  0
    6.6792   -5.5125    0.0000 C   0  0  0  0  0  0  0  0  0  0  0  0
    6.9417   -4.5417    0.0000 C   0  0  0  0  0  0  0  0  0  0  0  0
  2  1  2  0
  3  1  1  0
  4  1  1  0
  6  5  1  0
  7  5  2  0
  8  7  1  0
  9  6  2  0
 10 11  1  0
 11  8  1  0
 12  7  1  0
 13 10  1  0
 14  9  1  0
 15  8  1  0
 16  9  1  0
 17  6  1  0
 18 17  1  0
 19 13  1  0
 20 13  1  0
 21 13  1  0
 12 14  2  0
M  END
> <chembl_id>
CHEMBL1200444

> <chembl_pref_name>
PIRBUTEROL ACETATE
