
     RDKit          2D

 17 18  0  0  0  0  0  0  0  0999 V2000
    5.2833  -10.5076    0.0000 N   0  0  0  0  0  0  0  0  0  0  0  0
    4.4604  -10.5076    0.0000 N   0  0  0  0  0  0  0  0  0  0  0  0
    5.7720   -9.8569    0.0000 C   0  0  0  0  0  0  0  0  0  0  0  0
    5.7737  -11.1879    0.0000 N   0  0  0  0  0  0  0  0  0  0  0  0
    4.0472   -9.7805    0.0000 C   0  0  0  0  0  0  0  0  0  0  0  0
    4.0400  -11.2190    0.0000 C   0  0  0  0  0  0  0  0  0  0  0  0
    6.5526  -10.1219    0.0000 C   0  0  0  0  0  0  0  0  0  0  0  0
    6.5584  -10.9326    0.0000 O   0  0  0  0  0  0  0  0  0  0  0  0
    3.2222   -9.7782    0.0000 C   0  0  0  0  0  0  0  0  0  0  0  0
    3.2149  -11.2124    0.0000 C   0  0  0  0  0  0  0  0  0  0  0  0
    7.2227   -9.6371    0.0000 N   0  0  0  0  0  0  0  0  0  0  0  0
    2.8061  -10.4985    0.0000 O   0  0  0  0  0  0  0  0  0  0  0  0
    7.9779   -9.9729    0.0000 C   0  0  0  0  0  0  0  0  0  0  0  0
    8.6187   -9.4541    0.0000 O   0  0  0  0  0  0  0  0  0  0  0  0
    8.0633  -10.7977    0.0000 O   0  0  0  0  0  0  0  0  0  0  0  0
    9.3921   -9.7513    0.0000 C   0  0  0  0  0  0  0  0  0  0  0  0
   10.0328   -9.2327    0.0000 C   0  0  0  0  0  0  0  0  0  0  0  0
  1  2  1  0
  1  3  1  0
  1  4  2  0
  2  5  1  0
  2  6  1  0
  3  7  2  0
  4  8  1  0
  5  9  1  0
  6 10  1  0
  7 11  1  0
  7  8  1  0
  9 12  1  0
 10 12  1  0
 11 13  1  0
 13 14  1  0
 13 15  2  0
 14 16  1  0
 16 17  1  0
M  CHG  2   1   1  11  -1
M  END
> <chembl_id>
CHEMBL1329455

> <chembl_pref_name>
MOLSIDOMINE
