
     RDKit          2D

 31 33  0  0  0  0  0  0  0  0999 V2000
   -0.0097    0.7077    0.0000 C   0  0  0  0  0  0  0  0  0  0  0  0
    0.4799    1.3767    0.0000 C   0  0  0  0  0  0  0  0  0  0  0  0
   -0.0097   -0.1212    0.0000 C   0  0  0  0  0  0  0  0  0  0  0  0
   -0.0097    2.0457    0.0000 O   0  0  0  0  0  0  0  0  0  0  0  0
    0.6981   -0.5381    0.0000 C   0  0  0  0  0  0  0  0  0  0  0  0
   -0.7950    0.9550    0.0000 C   0  0  0  0  0  0  0  0  0  0  0  0
   -0.7950    1.7839    0.0000 C   0  0  0  0  0  0  0  0  0  0  0  0
    2.1136   -1.3719    0.0000 C   0  0  0  0  0  0  0  0  0  0  0  0
    1.3865   -1.7791    0.0000 C   0  0  0  0  0  0  0  0  0  0  0  0
    2.1136   -0.5430    0.0000 C   0  0  0  0  0  0  0  0  0  0  0  0
    0.6835   -1.3574    0.0000 C   0  0  0  0  0  0  0  0  0  0  0  0
    1.4107   -0.1309    0.0000 C   0  0  0  0  0  0  0  0  0  0  0  0
    4.9641   -1.4010    0.0000 N   0  0  0  0  0  0  0  0  0  0  0  0
   -0.7368   -0.5236    0.0000 O   0  0  0  0  0  0  0  0  0  0  0  0
    1.3865   -2.6032    0.0000 I   0  0  0  0  0  0  0  0  0  0  0  0
    2.8359   -0.1358    0.0000 I   0  0  0  0  0  0  0  0  0  0  0  0
    2.8214   -1.7937    0.0000 O   0  0  0  0  0  0  0  0  0  0  0  0
    1.2992    1.3816    0.0000 C   0  0  0  0  0  0  0  0  0  0  0  0
    4.2515   -1.8082    0.0000 C   0  0  0  0  0  0  0  0  0  0  0  0
    3.5389   -1.3865    0.0000 C   0  0  0  0  0  0  0  0  0  0  0  0
   -1.5076    0.5381    0.0000 C   0  0  0  0  0  0  0  0  0  0  0  0
   -1.5076    2.1911    0.0000 C   0  0  0  0  0  0  0  0  0  0  0  0
    5.6767   -1.8179    0.0000 C   0  0  0  0  0  0  0  0  0  0  0  0
    4.9738   -0.5721    0.0000 C   0  0  0  0  0  0  0  0  0  0  0  0
    1.7064    2.1039    0.0000 C   0  0  0  0  0  0  0  0  0  0  0  0
    2.5354    2.1039    0.0000 C   0  0  0  0  0  0  0  0  0  0  0  0
    6.3893   -1.4156    0.0000 C   0  0  0  0  0  0  0  0  0  0  0  0
    5.6913   -0.1745    0.0000 C   0  0  0  0  0  0  0  0  0  0  0  0
   -2.2202    0.9550    0.0000 C   0  0  0  0  0  0  0  0  0  0  0  0
   -2.2202    1.7743    0.0000 C   0  0  0  0  0  0  0  0  0  0  0  0
    2.9426    2.8214    0.0000 C   0  0  0  0  0  0  0  0  0  0  0  0
  2  1  2  0
  3  1  1  0
  4  2  1  0
  5  3  1  0
  6  1  1  0
  7  6  1  0
  8 10  1  0
  9 11  1  0
 10 12  2  0
 11  5  2  0
 12  5  1  0
 13 19  1  0
 14  3  2  0
 15  9  1  0
 16 10  1  0
 17  8  1  0
 18  2  1  0
 19 20  1  0
 20 17  1  0
 21  6  2  0
 22  7  2  0
 23 13  1  0
 24 13  1  0
 25 18  1  0
 26 25  1  0
 27 23  1  0
 28 24  1  0
 29 21  1  0
 30 29  2  0
 31 26  1  0
  7  4  1  0
 30 22  1  0
  8  9  2  0
M  END
> <chembl_id>
CHEMBL633

> <chembl_pref_name>
AMIODARONE
