
     RDKit          2D

101105  0  0  0  0  0  0  0  0999 V2000
   -3.3433   -8.1702    0.0000 S   0  0  0  0  0  0  0  0  0  0  0  0
   -3.3433   -7.3452    0.0000 O   0  0  0  0  0  0  0  0  0  0  0  0
   -4.0577   -8.5827    0.0000 O   0  0  0  0  0  0  0  0  0  0  0  0
   -2.6288   -8.5827    0.0000 O   0  0  0  0  0  0  0  0  0  0  0  0
   -3.3433   -8.9952    0.0000 O   0  0  0  0  0  0  0  0  0  0  0  0
   -7.6585   -6.9857    0.0000 C   0  0  0  0  0  0  0  0  0  0  0  0
   -8.2314   -6.6580    0.0000 C   0  0  0  0  0  0  0  0  0  0  0  0
   -8.2335   -6.1081    0.0000 O   0  0  0  0  0  0  0  0  0  0  0  0
   -8.9444   -7.0739    0.0000 C   0  0  0  0  0  0  0  0  0  0  0  0
   -9.6601   -6.6627    0.0000 N   0  0  0  0  0  0  0  0  0  0  0  0
   -9.6624   -5.8373    0.0000 C   0  0  0  0  0  0  0  0  0  0  0  0
   -9.0916   -5.5060    0.0000 O   0  0  0  0  0  0  0  0  0  0  0  0
  -10.3780   -5.4261    0.0000 C   0  0  0  0  0  0  0  0  0  0  0  0
  -10.9488   -5.7574    0.0000 C   0  0  0  0  0  0  0  0  0  0  0  0
  -10.3802   -4.6006    0.0000 C   0  0  0  0  0  0  0  0  0  0  0  0
   -9.9046   -4.3245    0.0000 O   0  0  0  0  0  0  0  0  0  0  0  0
  -11.0959   -4.1894    0.0000 C   0  0  0  0  0  0  0  0  0  0  0  0
  -11.5715   -4.4655    0.0000 C   0  0  0  0  0  0  0  0  0  0  0  0
  -11.0981   -3.3640    0.0000 N   0  0  0  0  0  0  0  0  0  0  0  0
  -10.3847   -2.9489    0.0000 C   0  0  0  0  0  0  0  0  0  0  0  0
   -9.8122   -3.2772    0.0000 O   0  0  0  0  0  0  0  0  0  0  0  0
  -10.3869   -2.1235    0.0000 C   0  0  0  0  0  0  0  0  0  0  0  0
  -11.1026   -1.7123    0.0000 N   0  0  0  0  0  0  0  0  0  0  0  0
  -11.1048   -0.8868    0.0000 C   0  0  0  0  0  0  0  0  0  0  0  0
  -10.6292   -0.6108    0.0000 O   0  0  0  0  0  0  0  0  0  0  0  0
  -11.8205   -0.4756    0.0000 C   0  0  0  0  0  0  0  0  0  0  0  0
  -11.8205    0.3493    0.0000 N   0  0  0  0  0  0  0  0  0  0  0  0
  -12.5349    0.7618    0.0000 C   0  0  0  0  0  0  0  0  0  0  0  0
  -13.2493    0.3493    0.0000 N   0  0  0  0  0  0  0  0  0  0  0  0
  -13.2493   -0.4756    0.0000 C   0  0  0  0  0  0  0  0  0  0  0  0
  -13.8209   -0.8056    0.0000 N   0  0  0  0  0  0  0  0  0  0  0  0
  -12.5349   -0.8881    0.0000 C   0  0  0  0  0  0  0  0  0  0  0  0
  -12.5349   -1.5481    0.0000 C   0  0  0  0  0  0  0  0  0  0  0  0
  -12.5366    1.5872    0.0000 C   0  0  0  0  0  0  0  0  0  0  0  0
  -11.8234    2.0027    0.0000 C   0  0  0  0  0  0  0  0  0  0  0  0
  -11.8260    2.8281    0.0000 C   0  0  0  0  0  0  0  0  0  0  0  0
  -11.2557    3.1602    0.0000 O   0  0  0  0  0  0  0  0  0  0  0  0
  -12.3987    3.1561    0.0000 N   0  0  0  0  0  0  0  0  0  0  0  0
  -13.2520    1.9989    0.0000 N   0  0  0  0  0  0  0  0  0  0  0  0
  -13.2537    2.8243    0.0000 C   0  0  0  0  0  0  0  0  0  0  0  0
  -13.9691    3.2360    0.0000 C   0  0  0  0  0  0  0  0  0  0  0  0
  -14.5401    2.9050    0.0000 N   0  0  0  0  0  0  0  0  0  0  0  0
  -13.9709    4.0614    0.0000 C   0  0  0  0  0  0  0  0  0  0  0  0
  -14.5429    4.3906    0.0000 O   0  0  0  0  0  0  0  0  0  0  0  0
  -13.3999    4.3924    0.0000 N   0  0  0  0  0  0  0  0  0  0  0  0
   -9.6731   -1.7091    0.0000 C   0  0  0  0  0  0  0  0  0  0  0  0
   -8.9579   -2.1213    0.0000 O   0  0  0  0  0  0  0  0  0  0  0  0
   -8.2432   -1.7084    0.0000 C   0  0  0  0  0  0  0  0  0  0  0  0
   -8.2450   -0.8834    0.0000 O   0  0  0  0  0  0  0  0  0  0  0  0
   -7.5314   -0.4694    0.0000 C   0  0  0  0  0  0  0  0  0  0  0  0
   -7.5350    0.3560    0.0000 C   0  0  0  0  0  0  0  0  0  0  0  0
   -8.1076    0.6839    0.0000 O   0  0  0  0  0  0  0  0  0  0  0  0
   -6.8161   -0.8803    0.0000 C   0  0  0  0  0  0  0  0  0  0  0  0
   -6.3404   -0.6043    0.0000 O   0  0  0  0  0  0  0  0  0  0  0  0
   -6.8143   -1.7053    0.0000 C   0  0  0  0  0  0  0  0  0  0  0  0
   -6.2420   -2.0340    0.0000 O   0  0  0  0  0  0  0  0  0  0  0  0
   -7.5278   -2.1193    0.0000 C   0  0  0  0  0  0  0  0  0  0  0  0
   -7.5243   -2.9447    0.0000 O   0  0  0  0  0  0  0  0  0  0  0  0
   -6.8079   -3.3548    0.0000 C   0  0  0  0  0  0  0  0  0  0  0  0
   -6.0958   -2.9383    0.0000 O   0  0  0  0  0  0  0  0  0  0  0  0
   -5.3791   -3.3467    0.0000 C   0  0  0  0  0  0  0  0  0  0  0  0
   -4.6674   -2.9285    0.0000 C   0  0  0  0  0  0  0  0  0  0  0  0
   -4.6713   -2.3785    0.0000 O   0  0  0  0  0  0  0  0  0  0  0  0
   -5.3743   -4.1717    0.0000 C   0  0  0  0  0  0  0  0  0  0  0  0
   -4.8009   -4.4984    0.0000 O   0  0  0  0  0  0  0  0  0  0  0  0
   -6.0864   -4.5882    0.0000 C   0  0  0  0  0  0  0  0  0  0  0  0
   -6.0801   -5.4136    0.0000 O   0  0  0  0  0  0  0  0  0  0  0  0
   -5.3623   -5.8212    0.0000 C   0  0  0  0  0  0  0  0  0  0  0  0
   -5.3572   -6.4812    0.0000 O   0  0  0  0  0  0  0  0  0  0  0  0
   -4.7932   -5.4870    0.0000 N   0  0  0  0  0  0  0  0  0  0  0  0
   -6.8032   -4.1798    0.0000 C   0  0  0  0  0  0  0  0  0  0  0  0
   -7.3729   -4.5130    0.0000 O   0  0  0  0  0  0  0  0  0  0  0  0
   -9.6741   -0.8837    0.0000 C   0  0  0  0  0  0  0  0  0  0  0  0
   -9.0085   -0.4084    0.0000 C   0  0  0  0  0  0  0  0  0  0  0  0
   -9.2663    0.3753    0.0000 N   0  0  0  0  0  0  0  0  0  0  0  0
  -10.0912    0.3723    0.0000 C   0  0  0  0  0  0  0  0  0  0  0  0
  -10.3433   -0.4133    0.0000 N   0  0  0  0  0  0  0  0  0  0  0  0
   -8.9422   -7.8993    0.0000 C   0  0  0  0  0  0  0  0  0  0  0  0
   -9.5130   -8.2307    0.0000 O   0  0  0  0  0  0  0  0  0  0  0  0
   -8.2265   -8.3106    0.0000 N   0  0  0  0  0  0  0  0  0  0  0  0
   -8.2243   -9.1360    0.0000 C   0  0  0  0  0  0  0  0  0  0  0  0
   -7.5087   -9.5472    0.0000 C   0  0  0  0  0  0  0  0  0  0  0  0
   -7.5064  -10.3726    0.0000 C   0  0  0  0  0  0  0  0  0  0  0  0
   -6.8387  -10.8451    0.0000 N   0  0  0  0  0  0  0  0  0  0  0  0
   -7.0932  -11.6299    0.0000 C   0  0  0  0  0  0  0  0  0  0  0  0
   -7.9181  -11.6304    0.0000 C   0  0  0  0  0  0  0  0  0  0  0  0
   -8.1735  -10.8459    0.0000 S   0  0  0  0  0  0  0  0  0  0  0  0
   -6.6076  -12.2973    0.0000 C   0  0  0  0  0  0  0  0  0  0  0  0
   -5.7940  -12.3505    0.0000 N   0  0  0  0  0  0  0  0  0  0  0  0
   -5.6007  -13.1525    0.0000 C   0  0  0  0  0  0  0  0  0  0  0  0
   -6.3037  -13.5841    0.0000 C   0  0  0  0  0  0  0  0  0  0  0  0
   -6.9315  -13.0489    0.0000 S   0  0  0  0  0  0  0  0  0  0  0  0
   -4.8398  -13.4688    0.0000 C   0  0  0  0  0  0  0  0  0  0  0  0
   -4.3158  -13.0674    0.0000 O   0  0  0  0  0  0  0  0  0  0  0  0
   -4.7326  -14.2871    0.0000 N   0  0  0  0  0  0  0  0  0  0  0  0
   -3.9704  -14.6040    0.0000 C   0  0  0  0  0  0  0  0  0  0  0  0
   -3.8631  -15.4223    0.0000 C   0  0  0  0  0  0  0  0  0  0  0  0
   -3.1008  -15.7392    0.0000 C   0  0  0  0  0  0  0  0  0  0  0  0
   -2.9936  -16.5575    0.0000 S   0  0  0  0  0  0  0  0  0  0  0  0
   -2.3842  -16.8108    0.0000 C   0  0  0  0  0  0  0  0  0  0  0  0
   -3.5175  -16.9588    0.0000 C   0  0  0  0  0  0  0  0  0  0  0  0
  1  2  1  0
  1  3  2  0
  1  4  2  0
  1  5  1  0
  7  6  1  6
  7  8  1  0
  7  9  1  0
  9 10  1  1
 10 11  1  0
 11 12  2  0
 11 13  1  0
 13 14  1  1
 13 15  1  0
 15 16  1  1
 15 17  1  0
 17 18  1  1
 17 19  1  0
 19 20  1  0
 20 21  2  0
 20 22  1  0
 22 23  1  1
 23 24  1  0
 24 25  2  0
 24 26  1  0
 26 27  2  0
 27 28  1  0
 28 29  2  0
 29 30  1  0
 30 31  1  0
 30 32  2  0
 32 26  1  0
 32 33  1  0
 28 34  1  0
 34 35  1  1
 35 36  1  0
 36 37  2  0
 36 38  1  0
 34 39  1  0
 39 40  1  0
 40 41  1  0
 41 42  1  6
 41 43  1  0
 43 44  2  0
 43 45  1  0
 22 46  1  0
 46 47  1  6
 48 47  1  6
 48 49  1  0
 49 50  1  0
 50 51  1  1
 51 52  1  0
 50 53  1  0
 53 54  1  1
 53 55  1  0
 55 56  1  6
 55 57  1  0
 57 48  1  0
 57 58  1  6
 59 58  1  1
 59 60  1  0
 60 61  1  0
 61 62  1  6
 62 63  1  0
 61 64  1  0
 64 65  1  1
 64 66  1  0
 66 67  1  6
 67 68  1  0
 68 69  2  0
 68 70  1  0
 66 71  1  0
 71 59  1  0
 71 72  1  6
 46 73  1  0
 73 74  2  0
 74 75  1  0
 75 76  1  0
 76 77  2  0
 77 73  1  0
  9 78  1  0
 78 79  2  0
 78 80  1  0
 80 81  1  0
 81 82  1  0
 82 83  1  0
 83 84  2  0
 84 85  1  0
 85 86  2  0
 86 87  1  0
 87 83  1  0
 85 88  1  0
 88 89  2  0
 89 90  1  0
 90 91  2  0
 91 92  1  0
 92 88  1  0
 90 93  1  0
 93 94  2  0
 93 95  1  0
 95 96  1  0
 96 97  1  0
 97 98  1  0
 98 99  1  0
 99100  1  0
 99101  1  0
M  CHG  1  99   1
M  END
> <chembl_id>
CHEMBL3085504

> <chembl_pref_name>
BLEOMYCIN SULFATE
