
     RDKit          2D

 17 16  0  0  0  0  0  0  0  0999 V2000
    7.2292   -7.8375    0.0000 Cl  0  0  0  0  0  0  0  0  0  0  0  0
    4.6042   -4.9917    0.0000 C   0  0  0  0  0  0  0  0  0  0  0  0
    6.0375   -4.9917    0.0000 C   0  0  0  0  0  0  0  0  0  0  0  0
    5.3167   -4.5792    0.0000 C   0  0  0  0  0  0  0  0  0  0  0  0
    6.7500   -4.5792    0.0000 C   0  0  0  0  0  0  0  0  0  0  0  0
    3.8917   -4.5792    0.0000 C   0  0  0  0  0  0  0  0  0  0  0  0
    7.4625   -4.9917    0.0000 N   0  0  0  0  0  0  0  0  0  0  0  0
    3.1792   -4.9917    0.0000 C   0  0  0  0  0  0  0  0  0  0  0  0
    2.4625   -4.5792    0.0000 O   0  0  0  0  0  0  0  0  0  0  0  0
    4.6042   -5.8167    0.0000 C   0  0  0  0  0  0  0  0  0  0  0  0
    3.8917   -6.2292    0.0000 C   0  0  0  0  0  0  0  0  0  0  0  0
    6.0375   -5.8167    0.0000 C   0  0  0  0  0  0  0  0  0  0  0  0
    5.3167   -3.7542    0.0000 C   0  0  0  0  0  0  0  0  0  0  0  0
    3.1792   -5.8167    0.0000 C   0  0  0  0  0  0  0  0  0  0  0  0
    8.1792   -4.5792    0.0000 C   0  0  0  0  0  0  0  0  0  0  0  0
    7.4625   -5.8167    0.0000 C   0  0  0  0  0  0  0  0  0  0  0  0
    6.0375   -3.3417    0.0000 C   0  0  0  0  0  0  0  0  0  0  0  0
  3  4  1  0
  4  2  1  0
  5  3  1  0
  6  2  2  0
  7  5  1  0
  8  6  1  0
  9  8  1  0
 10  2  1  0
 11 10  2  0
  3 12  1  6
  4 13  1  6
 14 11  1  0
 15  7  1  0
 16  7  1  0
 17 13  1  0
  8 14  2  0
M  END
> <chembl_id>
CHEMBL1201777

> <chembl_pref_name>
TAPENTADOL HYDROCHLORIDE
