
     RDKit          2D

 32 33  0  0  0  0  0  0  0  0999 V2000
    4.6125   -9.7417    0.0000 Na  0  0  0  0  0 15  0  0  0  0  0  0
    2.5500   -8.3042    0.0000 N   0  0  0  0  0  0  0  0  0  0  0  0
    1.8375   -8.3042    0.0000 C   0  0  0  0  0  0  0  0  0  0  0  0
    1.8375   -7.5917    0.0000 C   0  0  0  0  0  0  0  0  0  0  0  0
    2.5500   -7.5917    0.0000 C   0  0  0  0  0  0  0  0  0  0  0  0
    3.1583   -8.6542    0.0000 C   0  0  0  0  0  0  0  0  0  0  0  0
   -0.6333   -7.5833    0.0000 C   0  0  0  0  0  0  0  0  0  0  0  0
   -0.0208   -7.2333    0.0000 C   0  0  0  0  0  0  0  0  0  0  0  0
   -1.2083   -7.1625    0.0000 N   0  0  0  0  0  0  0  0  0  0  0  0
    1.2167   -7.2292    0.0000 N   0  0  0  0  0  0  0  0  0  0  0  0
    0.5958   -7.5917    0.0000 C   0  0  0  0  0  0  0  0  0  0  0  0
    3.1667   -7.2375    0.0000 S   0  0  0  0  0  0  0  0  0  0  0  0
    3.7750   -8.3083    0.0000 C   0  0  0  0  0  0  0  0  0  0  0  0
   -1.7833   -7.5833    0.0000 C   0  0  0  0  0  0  0  0  0  0  0  0
    3.1542   -9.3667    0.0000 C   0  0  0  0  0  0  0  0  0  0  0  0
   -0.8542   -8.2542    0.0000 C   0  0  0  0  0  0  0  0  0  0  0  0
   -1.5625   -8.2542    0.0000 S   0  0  0  0  0  0  0  0  0  0  0  0
    3.7792   -7.6000    0.0000 C   0  0  0  0  0  0  0  0  0  0  0  0
   -0.0208   -6.5250    0.0000 N   0  0  0  0  0  0  0  0  0  0  0  0
    1.3375   -8.8083    0.0000 O   0  0  0  0  0  0  0  0  0  0  0  0
    4.3833   -8.6667    0.0000 C   0  0  0  0  0  0  0  0  0  0  0  0
    5.6167   -8.6792    0.0000 C   0  0  0  0  0  0  0  0  0  0  0  0
    0.5958   -8.3042    0.0000 O   0  0  0  0  0  0  0  0  0  0  0  0
    3.7667   -9.7292    0.0000 O   0  0  0  0  0  0  0  0  0  0  0  0
    2.5333   -9.7208    0.0000 O   0  0  0  0  0  0  0  0  0  0  0  0
    5.0042   -8.3167    0.0000 O   0  0  0  0  0  0  0  0  0  0  0  0
    5.6083   -9.3875    0.0000 O   0  0  0  0  0  0  0  0  0  0  0  0
   -2.4000   -7.2292    0.0000 N   0  0  0  0  0  0  0  0  0  0  0  0
    0.5958   -6.1708    0.0000 O   0  0  0  0  0  0  0  0  0  0  0  0
    6.2333   -8.3292    0.0000 C   0  0  0  0  0  0  0  0  0  0  0  0
    1.2083   -6.5250    0.0000 C   0  0  0  0  0  0  0  0  0  0  0  0
    2.5417   -6.8792    0.0000 H   0  0  0  0  0  0  0  0  0  0  0  0
  3  2  1  0
  4  5  1  0
  5  2  1  0
  6  2  1  0
  7  8  1  0
  8 11  1  0
  9  7  1  0
  4 10  1  1
 11 10  1  0
 12  5  1  0
 13  6  2  0
 14  9  2  0
 15  6  1  0
 16  7  2  0
 17 16  1  0
 18 13  1  0
 19  8  2  0
 20  3  2  0
 21 13  1  0
 22 26  1  0
 23 11  2  0
 24 15  1  0
 25 15  2  0
 26 21  1  0
 27 22  2  0
 28 14  1  0
 29 19  1  0
 30 22  1  0
 31 29  1  0
  5 32  1  6
  3  4  1  0
 12 18  1  0
 17 14  1  0
M  CHG  2   1   1  24  -1
M  END
> <chembl_id>
CHEMBL1010

> <chembl_pref_name>
CEFOTAXIME SODIUM
