
     RDKit          2D

 27 28  0  0  0  0  0  0  0  0999 V2000
    8.2917   -7.7500    0.0000 Cl  0  0  0  0  0  0  0  0  0  0  0  0
    3.5042   -5.9750    0.0000 N   0  0  0  0  0  0  0  0  0  0  0  0
    3.8500   -5.3292    0.0000 C   0  0  0  0  0  0  0  0  0  0  0  0
    2.7917   -5.9792    0.0000 C   0  0  0  0  0  0  0  0  0  0  0  0
    7.0000   -4.7042    0.0000 C   0  0  0  0  0  0  0  0  0  0  0  0
    6.6417   -5.3292    0.0000 N   0  0  0  0  0  0  0  0  0  0  0  0
    2.7625   -4.7500    0.0000 C   0  0  0  0  0  0  0  0  0  0  0  0
    2.4042   -5.3792    0.0000 C   0  0  0  0  0  0  0  0  0  0  0  0
    3.4625   -4.7500    0.0000 C   0  0  0  0  0  0  0  0  0  0  0  0
    5.9417   -6.5667    0.0000 N   0  0  0  0  0  0  0  0  0  0  0  0
    7.7167   -4.7042    0.0000 N   0  0  0  0  0  0  0  0  0  0  0  0
    6.6292   -4.0917    0.0000 N   0  0  0  0  0  0  0  0  0  0  0  0
    2.4667   -6.6167    0.0000 O   0  0  0  0  0  0  0  0  0  0  0  0
    4.5167   -5.3292    0.0000 O   0  0  0  0  0  0  0  0  0  0  0  0
    5.9250   -5.3375    0.0000 C   0  0  0  0  0  0  0  0  0  0  0  0
    7.0125   -5.9125    0.0000 C   0  0  0  0  0  0  0  0  0  0  0  0
    5.5792   -5.9542    0.0000 C   0  0  0  0  0  0  0  0  0  0  0  0
    6.6625   -6.5417    0.0000 C   0  0  0  0  0  0  0  0  0  0  0  0
    3.8625   -6.5750    0.0000 C   0  0  0  0  0  0  0  0  0  0  0  0
    7.7000   -3.4750    0.0000 C   0  0  0  0  0  0  0  0  0  0  0  0
    5.5917   -7.1792    0.0000 C   0  0  0  0  0  0  0  0  0  0  0  0
    8.0625   -4.0917    0.0000 C   0  0  0  0  0  0  0  0  0  0  0  0
    6.9792   -3.4792    0.0000 C   0  0  0  0  0  0  0  0  0  0  0  0
    2.0875   -4.5292    0.0000 C   0  0  0  0  0  0  0  0  0  0  0  0
    2.7625   -4.1000    0.0000 C   0  0  0  0  0  0  0  0  0  0  0  0
    4.5667   -6.5792    0.0000 C   0  0  0  0  0  0  0  0  0  0  0  0
    4.7917   -7.1792    0.0000 C   0  0  0  0  0  0  0  0  0  0  0  0
  3  2  1  0
  4  2  1  0
  5  6  1  0
  6 16  1  0
  7  8  1  0
  8  4  1  0
  9  3  1  0
 10 21  1  0
 11  5  2  0
 12  5  1  0
 13  4  2  0
 14  3  2  0
 15 17  1  0
 16 18  1  0
 17 10  1  0
 18 10  1  0
 19  2  1  0
 20 23  1  0
 21 27  1  0
 22 11  1  0
 23 12  2  0
 24  7  1  0
 25  7  1  0
 26 19  1  0
 27 26  1  0
  9  7  1  0
 15  6  1  0
 22 20  2  0
M  END
> <chembl_id>
CHEMBL1204187

> <chembl_pref_name>
GEPIRONE HYDROCHLORIDE
