
     RDKit          2D

 25 27  0  0  0  0  0  0  0  0999 V2000
    2.5042   -0.6417    0.0000 C   0  0  0  0  0  0  0  0  0  0  0  0
    0.7792   -0.6542    0.0000 C   0  0  0  0  0  0  0  0  0  0  0  0
    1.6375    0.8333    0.0000 N   0  0  0  0  0  0  0  0  0  0  0  0
    0.7792    0.3208    0.0000 C   0  0  0  0  0  0  0  0  0  0  0  0
    1.6417   -1.1417    0.0000 C   0  0  0  0  0  0  0  0  0  0  0  0
   -0.0625    0.8333    0.0000 C   0  0  0  0  0  0  0  0  0  0  0  0
    2.5042    0.3208    0.0000 C   0  0  0  0  0  0  0  0  0  0  0  0
   -0.9333    0.3250    0.0000 C   0  0  0  0  0  0  0  0  0  0  0  0
   -1.7833    0.8333    0.0000 N   0  0  0  0  0  0  0  0  0  0  0  0
   -0.9333   -0.6625    0.0000 C   0  0  0  0  0  0  0  0  0  0  0  0
   -0.0625   -1.1417    0.0000 C   0  0  0  0  0  0  0  0  0  0  0  0
    3.3542   -1.1167    0.0000 C   0  0  0  0  0  0  0  0  0  0  0  0
   -2.6208    0.3208    0.0000 C   0  0  0  0  0  0  0  0  0  0  0  0
    1.6375   -2.1250    0.0000 O   0  0  0  0  0  0  0  0  0  0  0  0
   -3.4833    1.7958    0.0000 N   0  0  0  0  0  0  0  0  0  0  0  0
    3.3542   -2.1000    0.0000 O   0  0  0  0  0  0  0  0  0  0  0  0
   -0.0583    1.8083    0.0000 F   0  0  0  0  0  0  0  0  0  0  0  0
   -1.7625   -1.1542    0.0000 F   0  0  0  0  0  0  0  0  0  0  0  0
   -1.7833    1.8208    0.0000 C   0  0  0  0  0  0  0  0  0  0  0  0
    1.6375    1.8083    0.0000 C   0  0  0  0  0  0  0  0  0  0  0  0
   -3.4875    0.8125    0.0000 C   0  0  0  0  0  0  0  0  0  0  0  0
    4.2667   -0.6042    0.0000 O   0  0  0  0  0  0  0  0  0  0  0  0
   -2.6000    2.3125    0.0000 C   0  0  0  0  0  0  0  0  0  0  0  0
   -4.3458    0.3208    0.0000 C   0  0  0  0  0  0  0  0  0  0  0  0
    2.4542    2.3000    0.0000 C   0  0  0  0  0  0  0  0  0  0  0  0
  2  5  1  0
  3  7  1  0
  4  3  1  0
  5  1  1  0
  6  4  1  0
  7  1  2  0
  8  6  2  0
  9  8  1  0
 10 11  2  0
 11  2  1  0
 12  1  1  0
 13  9  1  0
 14  5  2  0
 15 23  1  0
 16 12  2  0
 17  6  1  0
 18 10  1  0
 19  9  1  0
 20  3  1  0
 21 13  1  0
 22 12  1  0
 23 19  1  0
 24 21  1  0
 25 20  1  0
  4  2  2  0
  8 10  1  0
 21 15  1  0
M  END
> <chembl_id>
CHEMBL561

> <chembl_pref_name>
LOMEFLOXACIN
