
     RDKit          2D

 39 36  0  0  0  0  0  0  0  0999 V2000
    1.9042    2.1458    0.0000 O   0  0  0  0  0  0  0  0  0  0  0  0
    1.6125   -0.5292    0.0000 C   0  0  0  0  0  0  0  0  0  0  0  0
    1.9417    0.0708    0.0000 C   0  0  0  0  0  0  0  0  0  0  0  0
    2.6542    0.0500    0.0000 C   0  0  0  0  0  0  0  0  0  0  0  0
    0.2250   -0.5000    0.0000 C   0  0  0  0  0  0  0  0  0  0  0  0
    1.9417   -1.1500    0.0000 O   0  0  0  0  0  0  0  0  0  0  0  0
   -0.1875    0.0625    0.0000 C   0  0  0  0  0  0  0  0  0  0  0  0
    0.2250    0.6208    0.0000 C   0  0  0  0  0  0  0  0  0  0  0  0
    0.9417   -0.4875    0.0000 O   0  0  0  0  0  0  0  0  0  0  0  0
    3.0125   -0.5542    0.0000 C   0  0  0  0  0  0  0  0  0  0  0  0
    2.6250   -1.1667    0.0000 C   0  0  0  0  0  0  0  0  0  0  0  0
   -0.1708    1.2083    0.0000 C   0  0  0  0  0  0  0  0  0  0  0  0
   -0.1708   -1.1000    0.0000 C   0  0  0  0  0  0  0  0  0  0  0  0
   -0.8833    1.1625    0.0000 O   0  0  0  0  0  0  0  0  0  0  0  0
    0.1375    1.8500    0.0000 O   0  0  0  0  0  0  0  0  0  0  0  0
    1.8875    0.6875    0.0000 O   0  0  0  0  0  0  0  0  0  0  0  0
    3.0417    0.6708    0.0000 O   0  0  0  0  0  0  0  0  0  0  0  0
    0.9417    0.6125    0.0000 O   0  0  0  0  0  0  0  0  0  0  0  0
   -0.8958    0.0625    0.0000 O   0  0  0  0  0  0  0  0  0  0  0  0
    3.7167   -0.5542    0.0000 O   0  0  0  0  0  0  0  0  0  0  0  0
   -0.8708   -1.1042    0.0000 O   0  0  0  0  0  0  0  0  0  0  0  0
    2.9542   -1.8167    0.0000 C   0  0  0  0  0  0  0  0  0  0  0  0
    2.5625   -2.4000    0.0000 O   0  0  0  0  0  0  0  0  0  0  0  0
   -0.1458   -2.2542    0.0000 O   0  0  0  0  0  0  0  0  0  0  0  0
    0.2500   -1.6875    0.0000 C   0  0  0  0  0  0  0  0  0  0  0  0
   -3.0208    0.6458    0.0000 C   0  0  0  0  0  0  0  0  0  0  0  0
   -2.6083    0.0833    0.0000 C   0  0  0  0  0  0  0  0  0  0  0  0
   -3.0208   -0.4792    0.0000 C   0  0  0  0  0  0  0  0  0  0  0  0
   -2.6208    1.2333    0.0000 C   0  0  0  0  0  0  0  0  0  0  0  0
   -2.6208   -1.0792    0.0000 C   0  0  0  0  0  0  0  0  0  0  0  0
   -1.9083    1.1750    0.0000 O   0  0  0  0  0  0  0  0  0  0  0  0
   -2.9333    1.8708    0.0000 O   0  0  0  0  0  0  0  0  0  0  0  0
   -3.7250    0.6333    0.0000 O   0  0  0  0  0  0  0  0  0  0  0  0
   -1.8958    0.0833    0.0000 O   0  0  0  0  0  0  0  0  0  0  0  0
   -3.7250   -0.4667    0.0000 O   0  0  0  0  0  0  0  0  0  0  0  0
   -1.9208   -1.0917    0.0000 O   0  0  0  0  0  0  0  0  0  0  0  0
   -2.6458   -2.2417    0.0000 O   0  0  0  0  0  0  0  0  0  0  0  0
   -3.0458   -1.6750    0.0000 C   0  0  0  0  0  0  0  0  0  0  0  0
   -1.5333    2.0000    0.0000 Ca  0  0  0  0  0 15  0  0  0  0  0  0
  3  2  1  0
  4  3  1  0
  5  9  1  6
  6  2  1  0
  7  5  1  0
  8  7  1  0
  2  9  1  1
 10 11  1  0
 11  6  1  0
 12  8  1  0
 13  5  1  0
 14 12  1  0
 15 12  2  0
  3 16  1  6
  4 17  1  1
  8 18  1  6
  7 19  1  6
 10 20  1  1
 13 21  1  1
 11 22  1  1
 23 22  1  0
 24 25  1  0
 25 13  1  0
  4 10  1  0
 27 26  1  0
 28 27  1  0
 29 26  1  0
 30 28  1  0
 31 29  1  0
 32 29  2  0
 26 33  1  1
 27 34  1  1
 28 35  1  1
 30 36  1  6
 37 38  1  0
 38 30  1  0
M  CHG  3  14  -1  31  -1  39   2
M  END
> <chembl_id>
CHEMBL2104594

> <chembl_pref_name>
CALCIUM GLUBIONATE
