
     RDKit          2D

 23 25  0  0  0  0  0  0  0  0999 V2000
   -2.0708    0.1833    0.0000 S   0  0  0  0  0  0  0  0  0  0  0  0
   -2.8750   -0.2792    0.0000 N   0  0  0  0  0  0  0  0  0  0  0  0
    1.8042   -1.9167    0.0000 N   0  0  0  0  0  0  0  0  0  0  0  0
    0.9292   -0.7042    0.0000 C   0  0  0  0  0  0  0  0  0  0  0  0
    1.7917   -0.4167    0.0000 C   0  0  0  0  0  0  0  0  0  0  0  0
    2.3500   -1.1667    0.0000 C   0  0  0  0  0  0  0  0  0  0  0  0
   -1.6083   -0.6167    0.0000 C   0  0  0  0  0  0  0  0  0  0  0  0
    0.9292   -1.6292    0.0000 C   0  0  0  0  0  0  0  0  0  0  0  0
   -2.5375    0.9833    0.0000 O   0  0  0  0  0  0  0  0  0  0  0  0
   -1.4125    0.8375    0.0000 O   0  0  0  0  0  0  0  0  0  0  0  0
    0.1292   -0.2417    0.0000 C   0  0  0  0  0  0  0  0  0  0  0  0
   -0.6750   -0.7042    0.0000 C   0  0  0  0  0  0  0  0  0  0  0  0
    2.0292    0.4833    0.0000 C   0  0  0  0  0  0  0  0  0  0  0  0
    0.1292   -2.0917    0.0000 C   0  0  0  0  0  0  0  0  0  0  0  0
    3.4167    1.2958    0.0000 N   0  0  0  0  0  0  0  0  0  0  0  0
    2.9542    0.4833    0.0000 C   0  0  0  0  0  0  0  0  0  0  0  0
   -0.6708   -1.6292    0.0000 C   0  0  0  0  0  0  0  0  0  0  0  0
   -3.7208    0.1000    0.0000 C   0  0  0  0  0  0  0  0  0  0  0  0
   -2.9833   -1.2000    0.0000 C   0  0  0  0  0  0  0  0  0  0  0  0
    4.3417    1.2958    0.0000 C   0  0  0  0  0  0  0  0  0  0  0  0
    2.9500    2.0958    0.0000 C   0  0  0  0  0  0  0  0  0  0  0  0
   -4.3458   -0.5792    0.0000 C   0  0  0  0  0  0  0  0  0  0  0  0
   -3.8958   -1.3875    0.0000 C   0  0  0  0  0  0  0  0  0  0  0  0
  2  1  1  0
  3  8  1  0
  4 11  1  0
  5  4  1  0
  6  5  2  0
  7  1  1  0
  8 14  1  0
  9  1  2  0
 10  1  2  0
 11 12  2  0
 12  7  1  0
 13  5  1  0
 14 17  2  0
 15 16  1  0
 16 13  1  0
 17 12  1  0
 18  2  1  0
 19  2  1  0
 20 15  1  0
 21 15  1  0
 22 18  1  0
 23 19  1  0
 22 23  1  0
  4  8  2  0
  3  6  1  0
M  END
> <chembl_id>
CHEMBL1505

> <chembl_pref_name>
ALMOTRIPTAN
