
     RDKit          2D

 29 31  0  0  0  0  0  0  0  0999 V2000
   10.5775   -1.0486    0.0000 O   0  0  0  0  0  0  0  0  0  0  0  0
   10.4190    0.5815    0.0000 Cl  0  0  0  0  0  0  0  0  0  0  0  0
    6.6952   -0.7797    0.0000 C   0  0  0  0  0  0  0  0  0  0  0  0
    7.1094   -0.0682    0.0000 C   0  0  0  0  0  0  0  0  0  0  0  0
    5.8717   -0.7845    0.0000 C   0  0  0  0  0  0  0  0  0  0  0  0
    7.0996   -1.4960    0.0000 C   0  0  0  0  0  0  0  0  0  0  0  0
    5.4624   -1.4960    0.0000 C   0  0  0  0  0  0  0  0  0  0  0  0
    6.3151   -2.0076    0.0000 O   0  0  0  0  0  0  0  0  0  0  0  0
    6.7001    0.6432    0.0000 C   0  0  0  0  0  0  0  0  0  0  0  0
    7.1142    1.3595    0.0000 N   0  0  0  0  0  0  0  0  0  0  0  0
    5.4624   -0.0682    0.0000 C   0  0  0  0  0  0  0  0  0  0  0  0
    5.8717    0.6481    0.0000 C   0  0  0  0  0  0  0  0  0  0  0  0
    7.9232   -1.5008    0.0000 C   0  0  0  0  0  0  0  0  0  0  0  0
    6.2762   -0.0585    0.0000 C   0  0  0  0  0  0  0  0  0  0  0  0
    7.9329   -0.0731    0.0000 C   0  0  0  0  0  0  0  0  0  0  0  0
    7.8257    1.7785    0.0000 C   0  0  0  0  0  0  0  0  0  0  0  0
    4.6340   -1.4960    0.0000 C   0  0  0  0  0  0  0  0  0  0  0  0
    6.2859    1.3595    0.0000 C   0  0  0  0  0  0  0  0  0  0  0  0
    8.5468    1.3741    0.0000 C   0  0  0  0  0  0  0  0  0  0  0  0
    8.9708    0.6627    0.0000 C   0  0  0  0  0  0  0  0  0  0  0  0
    9.3801    1.3838    0.0000 C   0  0  0  0  0  0  0  0  0  0  0  0
    8.3374   -0.7894    0.0000 C   0  0  0  0  0  0  0  0  0  0  0  0
    4.6340   -0.0682    0.0000 C   0  0  0  0  0  0  0  0  0  0  0  0
    7.5188    0.6529    0.0000 O   0  0  0  0  0  0  0  0  0  0  0  0
    4.2247   -0.7845    0.0000 C   0  0  0  0  0  0  0  0  0  0  0  0
    8.3325   -2.2220    0.0000 C   0  0  0  0  0  0  0  0  0  0  0  0
    4.2198   -2.2123    0.0000 O   0  0  0  0  0  0  0  0  0  0  0  0
    7.0948   -2.3243    0.0000 H   0  0  0  0  0  0  0  0  0  0  0  0
   10.5547   -0.2736    0.0000 O   0  0  0  0  0  0  0  0  0  0  0  0
  4  3  1  0
  5  3  1  0
  6  3  1  0
  7  5  1  0
  8  6  1  0
  9  4  1  0
  9 10  1  1
 11  5  2  0
 12  9  1  0
 13  6  1  0
  3 14  1  1
 15  4  1  0
 16 10  1  0
 17  7  2  0
 18 14  1  0
 19 16  1  0
 20 19  1  0
 21 19  1  0
 22 15  1  0
 23 11  1  0
  4 24  1  1
 25 23  2  0
 26 13  2  0
 27 17  1  0
  6 28  1  1
 18 10  1  0
  8  7  1  0
 12 11  1  0
 22 13  1  0
 17 25  1  0
 20 21  1  0
M  END
> <chembl_id>
CHEMBL5315055

> <chembl_pref_name>
NALMEFENE HYDROCHLORIDE DIHYDRATE
