
     RDKit          2D

 49 50  0  0  0  0  0  0  0  0999 V2000
   -7.1688   -0.8571    0.0000 Cl  0  0  0  0  0  0  0  0  0  0  0  0
   -6.4480    3.3185    0.0000 C   0  0  0  0  0  0  0  0  0  0  0  0
   -7.1625    2.9060    0.0000 N   0  0  0  0  0  0  0  0  0  0  0  0
   -7.1625    2.0809    0.0000 C   0  0  0  0  0  0  0  0  0  0  0  0
   -6.4480    1.6684    0.0000 C   0  0  0  0  0  0  0  0  0  0  0  0
   -5.7335    2.0809    0.0000 N   0  0  0  0  0  0  0  0  0  0  0  0
   -5.7335    2.9060    0.0000 C   0  0  0  0  0  0  0  0  0  0  0  0
   -4.3051    2.1690    0.0000 C   0  0  0  0  0  0  0  0  0  0  0  0
   -5.0195    1.7566    0.0000 C   0  0  0  0  0  0  0  0  0  0  0  0
   -5.0195    0.9316    0.0000 N   0  0  0  0  0  0  0  0  0  0  0  0
   -4.3051    0.5191    0.0000 C   0  0  0  0  0  0  0  0  0  0  0  0
   -3.5907    0.9316    0.0000 C   0  0  0  0  0  0  0  0  0  0  0  0
   -3.5907    1.7566    0.0000 C   0  0  0  0  0  0  0  0  0  0  0  0
   -2.2012    3.3574    0.0000 C   0  0  0  0  0  0  0  0  0  0  0  0
   -2.9156    2.9449    0.0000 C   0  0  0  0  0  0  0  0  0  0  0  0
   -2.9156    2.1199    0.0000 C   0  0  0  0  0  0  0  0  0  0  0  0
   -2.2012    1.7074    0.0000 C   0  0  0  0  0  0  0  0  0  0  0  0
   -1.4867    2.1199    0.0000 C   0  0  0  0  0  0  0  0  0  0  0  0
   -1.4867    2.9449    0.0000 C   0  0  0  0  0  0  0  0  0  0  0  0
   -2.1818    1.0198    0.0000 C   0  0  0  0  0  0  0  0  0  0  0  0
   -2.8962    0.6072    0.0000 N   0  0  0  0  0  0  0  0  0  0  0  0
   -2.8962   -0.2177    0.0000 C   0  0  0  0  0  0  0  0  0  0  0  0
   -2.1818   -0.6302    0.0000 C   0  0  0  0  0  0  0  0  0  0  0  0
   -1.4673   -0.2177    0.0000 C   0  0  0  0  0  0  0  0  0  0  0  0
   -1.4673    0.6072    0.0000 C   0  0  0  0  0  0  0  0  0  0  0  0
   -0.7528    1.0198    0.0000 C   0  0  0  0  0  0  0  0  0  0  0  0
   -0.7528   -0.6302    0.0000 C   0  0  0  0  0  0  0  0  0  0  0  0
   -0.0383   -0.2177    0.0000 C   0  0  0  0  0  0  0  0  0  0  0  0
   -0.0383    0.6072    0.0000 C   0  0  0  0  0  0  0  0  0  0  0  0
   -7.6817    3.5471    0.0000 C   0  0  0  0  0  0  0  0  0  0  0  0
   -7.9875    2.9060    0.0000 C   0  0  0  0  0  0  0  0  0  0  0  0
   -8.5067    2.2648    0.0000 O   0  0  0  0  0  0  0  0  0  0  0  0
   -9.3317    2.2648    0.0000 P   0  0  0  0  0  0  0  0  0  0  0  0
   -9.7442    2.9793    0.0000 O   0  0  0  0  0  0  0  0  0  0  0  0
   -9.3504    1.4290    0.0000 O   0  0  0  0  0  0  0  0  0  0  0  0
   -3.6076    3.3942    0.0000 C   0  0  0  0  0  0  0  0  0  0  0  0
   -3.5637   -0.7026    0.0000 O   0  0  0  0  0  0  0  0  0  0  0  0
   -2.7338   -1.2433    0.0000 C   0  0  0  0  0  0  0  0  0  0  0  0
   -1.7324   -1.3221    0.0000 C   0  0  0  0  0  0  0  0  0  0  0  0
   -0.7528    1.8448    0.0000 C   0  0  0  0  0  0  0  0  0  0  0  0
   -1.2053    2.5400    0.0000 F   0  0  0  0  0  0  0  0  0  0  0  0
   -0.6787    2.6711    0.0000 F   0  0  0  0  0  0  0  0  0  0  0  0
   -0.2412    2.5050    0.0000 F   0  0  0  0  0  0  0  0  0  0  0  0
    0.5746   -0.7697    0.0000 C   0  0  0  0  0  0  0  0  0  0  0  0
    1.3895   -0.6405    0.0000 F   0  0  0  0  0  0  0  0  0  0  0  0
    1.2665   -1.2190    0.0000 F   0  0  0  0  0  0  0  0  0  0  0  0
    0.8703   -1.5399    0.0000 F   0  0  0  0  0  0  0  0  0  0  0  0
   -9.9991    1.7799    0.0000 O   0  0  0  0  0  0  0  0  0  0  0  0
   -7.2207   -0.1558    0.0000 Cl  0  0  0  0  0  0  0  0  0  0  0  0
  2  3  1  0
  3  4  1  0
  4  5  1  0
  5  6  1  0
  6  7  1  0
  2  7  1  0
  8  9  1  0
  9 10  2  0
 10 11  1  0
 11 12  2  0
 12 13  1  0
  8 13  2  0
 14 15  1  0
 15 16  2  0
 16 17  1  0
 17 18  2  0
 18 19  1  0
 14 19  2  0
 20 21  1  0
 21 22  1  0
 22 23  1  0
 23 24  1  0
 24 25  2  0
 27 28  2  0
 28 29  1  0
 26 29  2  0
 24 27  1  0
 26 25  1  0
  3 30  1  0
  3 31  1  0
 31 32  1  0
 32 33  1  0
 33 34  2  0
 33 35  1  0
  6  9  1  0
 13 16  1  0
 15 36  1  0
 12 21  1  0
 22 37  2  0
 23 38  1  0
 23 39  1  0
 26 40  1  0
 40 41  1  0
 40 42  1  0
 40 43  1  0
 28 44  1  0
 44 45  1  0
 44 46  1  0
 44 47  1  0
 33 48  1  0
M  CHG  2   3   1  49  -1
M  END
> <chembl_id>
CHEMBL3989919

> <chembl_pref_name>
FOSNETUPITANT CHLORIDE HYDROCHLORIDE
