
     RDKit          2D

 28 29  0  0  0  0  0  0  0  0999 V2000
    8.3000   -2.7792    0.0000 Br  0  0  0  0  0  0  0  0  0  0  0  0
   10.8292   -1.0750    0.0000 C   0  0  0  0  0  0  0  0  0  0  0  0
   10.8292    0.3458    0.0000 O   0  0  0  0  0  0  0  0  0  0  0  0
   11.4542   -0.7167    0.0000 C   0  0  0  0  0  0  0  0  0  0  0  0
   10.2167   -0.7167    0.0000 C   0  0  0  0  0  0  0  0  0  0  0  0
    8.3750   -1.7667    0.0000 N   0  0  0  0  0  0  0  0  0  0  0  0
   11.4542   -0.0042    0.0000 C   0  0  0  0  0  0  0  0  0  0  0  0
   10.2167   -0.0042    0.0000 C   0  0  0  0  0  0  0  0  0  0  0  0
   10.8292   -1.7875    0.0000 C   0  0  0  0  0  0  0  0  0  0  0  0
   11.4542   -2.1375    0.0000 O   0  0  0  0  0  0  0  0  0  0  0  0
    7.7625   -2.1167    0.0000 C   0  0  0  0  0  0  0  0  0  0  0  0
    8.0167   -1.1500    0.0000 C   0  0  0  0  0  0  0  0  0  0  0  0
   10.2167   -2.1375    0.0000 O   0  0  0  0  0  0  0  0  0  0  0  0
    8.9875   -2.1250    0.0000 C   0  0  0  0  0  0  0  0  0  0  0  0
    8.7250   -1.1500    0.0000 C   0  0  0  0  0  0  0  0  0  0  0  0
    9.6042   -1.7750    0.0000 C   0  0  0  0  0  0  0  0  0  0  0  0
   12.0667   -1.0750    0.0000 C   0  0  0  0  0  0  0  0  0  0  0  0
    9.6167   -1.0750    0.0000 C   0  0  0  0  0  0  0  0  0  0  0  0
    9.6167    0.3458    0.0000 C   0  0  0  0  0  0  0  0  0  0  0  0
   12.0667    0.3458    0.0000 C   0  0  0  0  0  0  0  0  0  0  0  0
    7.1500   -1.7583    0.0000 C   0  0  0  0  0  0  0  0  0  0  0  0
    7.7542   -2.8250    0.0000 C   0  0  0  0  0  0  0  0  0  0  0  0
    8.3667   -0.5333    0.0000 C   0  0  0  0  0  0  0  0  0  0  0  0
    7.3042   -1.1500    0.0000 C   0  0  0  0  0  0  0  0  0  0  0  0
    8.9917   -0.7167    0.0000 C   0  0  0  0  0  0  0  0  0  0  0  0
   12.6792   -0.7167    0.0000 C   0  0  0  0  0  0  0  0  0  0  0  0
   12.6792   -0.0042    0.0000 C   0  0  0  0  0  0  0  0  0  0  0  0
    8.9917   -0.0042    0.0000 C   0  0  0  0  0  0  0  0  0  0  0  0
  3  8  1  0
  4  2  1  0
  5  2  1  0
  6 14  1  0
  7  4  1  0
  8  5  2  0
  9  2  1  0
 10  9  2  0
 11  6  1  0
 12  6  1  0
 13  9  1  0
 14 16  1  0
 15  6  1  0
 16 13  1  0
 17  4  2  0
 18  5  1  0
 19  8  1  0
 20  7  2  0
 21 11  1  0
 22 11  1  0
 23 12  1  0
 24 12  1  0
 25 18  2  0
 26 17  1  0
 27 20  1  0
 28 19  2  0
  3  7  1  0
 25 28  1  0
 26 27  2  0
M  CHG  2   1  -1   6   1
M  END
> <chembl_id>
CHEMBL1240

> <chembl_pref_name>
PROPANTHELINE BROMIDE
