
     RDKit          2D

 38 40  0  0  0  0  0  0  0  0999 V2000
    8.3000   -2.3750    0.0000 Na  0  0  0  0  0 15  0  0  0  0  0  0
    4.9792   -2.3292    0.0000 N   0  0  0  0  0  0  0  0  0  0  0  0
   -0.4500   -1.6250    0.0000 N   0  0  0  0  0  0  0  0  0  0  0  0
    0.6792   -1.6250    0.0000 N   0  0  0  0  0  0  0  0  0  0  0  0
    0.1125   -1.2167    0.0000 C   0  0  0  0  0  0  0  0  0  0  0  0
    4.9917   -1.6292    0.0000 C   0  0  0  0  0  0  0  0  0  0  0  0
    4.2917   -2.3292    0.0000 C   0  0  0  0  0  0  0  0  0  0  0  0
    4.2917   -1.6292    0.0000 C   0  0  0  0  0  0  0  0  0  0  0  0
   -1.0500   -1.2750    0.0000 S   0  0  0  0  0  0  0  0  0  0  0  0
    6.1917   -2.3292    0.0000 C   0  0  0  0  0  0  0  0  0  0  0  0
    1.2792   -1.2750    0.0000 C   0  0  0  0  0  0  0  0  0  0  0  0
    5.5917   -1.2792    0.0000 S   0  0  0  0  0  0  0  0  0  0  0  0
    6.1917   -1.6292    0.0000 C   0  0  0  0  0  0  0  0  0  0  0  0
    3.6917   -1.2750    0.0000 N   0  0  0  0  0  0  0  0  0  0  0  0
    1.8792   -1.6250    0.0000 N   0  0  0  0  0  0  0  0  0  0  0  0
    3.0875   -1.6250    0.0000 C   0  0  0  0  0  0  0  0  0  0  0  0
   -0.2375   -2.2917    0.0000 C   0  0  0  0  0  0  0  0  0  0  0  0
    2.4875   -1.2750    0.0000 C   0  0  0  0  0  0  0  0  0  0  0  0
    6.7917   -2.6750    0.0000 C   0  0  0  0  0  0  0  0  0  0  0  0
    0.4625   -2.2917    0.0000 C   0  0  0  0  0  0  0  0  0  0  0  0
    0.1125   -0.5167    0.0000 O   0  0  0  0  0  0  0  0  0  0  0  0
    3.7917   -2.8167    0.0000 O   0  0  0  0  0  0  0  0  0  0  0  0
   -1.6583   -0.9292    0.0000 O   0  0  0  0  0  0  0  0  0  0  0  0
   -0.4583   -0.9250    0.0000 O   0  0  0  0  0  0  0  0  0  0  0  0
    1.2792   -0.5750    0.0000 O   0  0  0  0  0  0  0  0  0  0  0  0
    3.0875   -2.3250    0.0000 O   0  0  0  0  0  0  0  0  0  0  0  0
    7.3917   -2.3292    0.0000 O   0  0  0  0  0  0  0  0  0  0  0  0
    6.7917   -3.3750    0.0000 O   0  0  0  0  0  0  0  0  0  0  0  0
    2.4875   -0.5750    0.0000 C   0  0  0  0  0  0  0  0  0  0  0  0
   -1.6583   -1.6250    0.0000 C   0  0  0  0  0  0  0  0  0  0  0  0
    6.8875   -1.6292    0.0000 C   0  0  0  0  0  0  0  0  0  0  0  0
    6.1792   -0.9375    0.0000 C   0  0  0  0  0  0  0  0  0  0  0  0
    1.8792   -0.2292    0.0000 C   0  0  0  0  0  0  0  0  0  0  0  0
    3.0917   -0.2292    0.0000 C   0  0  0  0  0  0  0  0  0  0  0  0
    3.0917    0.4708    0.0000 C   0  0  0  0  0  0  0  0  0  0  0  0
    1.8792    0.4625    0.0000 C   0  0  0  0  0  0  0  0  0  0  0  0
    2.4875    0.8208    0.0000 C   0  0  0  0  0  0  0  0  0  0  0  0
    4.9792   -0.9250    0.0000 H   0  0  0  0  0  0  0  0  0  0  0  0
  3  5  1  0
  4 11  1  0
  5  4  1  0
  6  2  1  0
  7  2  1  0
  8  7  1  0
  9  3  1  0
 10  2  1  0
 11 15  1  0
 12  6  1  0
 13 10  1  0
  8 14  1  1
 15 18  1  0
 16 14  1  0
 17 20  1  0
 18 16  1  0
 10 19  1  6
 20  4  1  0
 21  5  2  0
 22  7  2  0
 23  9  2  0
 24  9  2  0
 25 11  2  0
 26 16  2  0
 27 19  1  0
 28 19  2  0
 18 29  1  6
 30  9  1  0
 31 13  1  0
 32 13  1  0
 33 29  1  0
 34 29  2  0
 35 34  1  0
 36 33  2  0
 37 36  1  0
  6 38  1  6
 12 13  1  0
  8  6  1  0
 35 37  2  0
 17  3  1  0
M  CHG  2   1   1  27  -1
M  END
> <chembl_id>
CHEMBL1697708

> <chembl_pref_name>
MEZLOCILLIN SODIUM
