
     RDKit          2D

 28 31  0  0  0  0  0  0  0  0999 V2000
    6.0524    4.8920    0.0000 H   0  0  0  0  0  0  0  0  0  0  0  0
    3.6314    4.8920    0.0000 H   0  0  0  0  0  0  0  0  0  0  0  0
    4.8419    2.7954    0.0000 H   0  0  0  0  0  0  0  0  0  0  0  0
    7.2627    2.7954    0.0000 H   0  0  0  0  0  0  0  0  0  0  0  0
   10.2796    7.8037    0.0000 C   0  0  0  0  0  0  0  0  0  0  0  0
    4.8419    0.0000    0.0000 C   0  0  0  0  0  0  0  0  0  0  0  0
    7.2627    6.9886    0.0000 C   0  0  0  0  0  0  0  0  0  0  0  0
    7.9411    8.4302    0.0000 O   0  0  0  0  0  0  0  0  0  0  0  0
    0.0000    1.3977    0.0000 O   0  0  0  0  0  0  0  0  0  0  0  0
    9.9654    6.0919    0.0000 O   0  0  0  0  0  0  0  0  0  0  0  0
    2.4210    1.3977    0.0000 C   0  0  0  0  0  0  0  0  0  0  0  0
    6.0524    2.0966    0.0000 C   0  0  0  0  0  0  0  0  0  0  0  0
    1.2103    3.4943    0.0000 C   0  0  0  0  0  0  0  0  0  0  0  0
    2.4210    4.1932    0.0000 C   0  0  0  0  0  0  0  0  0  0  0  0
    4.8419    5.5909    0.0000 C   0  0  0  0  0  0  0  0  0  0  0  0
    8.6861    3.8333    0.0000 C   0  0  0  0  0  0  0  0  0  0  0  0
    6.0524    6.2898    0.0000 C   0  0  0  0  0  0  0  0  0  0  0  0
    9.4473    5.0055    0.0000 C   0  0  0  0  0  0  0  0  0  0  0  0
    8.9295    7.4420    0.0000 C   0  0  0  0  0  0  0  0  0  0  0  0
    4.8419    1.3977    0.0000 C   0  0  0  0  0  0  0  0  0  0  0  0
    1.2103    2.0966    0.0000 C   0  0  0  0  0  0  0  0  0  0  0  0
    3.6314    2.0966    0.0000 C   0  0  0  0  0  0  0  0  0  0  0  0
    6.0524    3.4943    0.0000 C   0  0  0  0  0  0  0  0  0  0  0  0
    3.6314    3.4943    0.0000 C   0  0  0  0  0  0  0  0  0  0  0  0
    4.8419    4.1932    0.0000 C   0  0  0  0  0  0  0  0  0  0  0  0
    7.2627    4.1932    0.0000 C   0  0  0  0  0  0  0  0  0  0  0  0
    7.2627    5.5909    0.0000 C   0  0  0  0  0  0  0  0  0  0  0  0
    8.5676    6.0919    0.0000 C   0  0  0  0  0  0  0  0  0  0  0  0
 23  1  1  1
 24  2  1  1
 25  3  1  6
 26  4  1  6
  5 19  1  0
  6 20  1  0
 27  7  1  1
  8 19  2  0
  9 21  2  0
 28 10  1  6
 11 21  1  0
 11 22  2  0
 12 20  2  0
 12 23  1  0
 13 14  1  0
 13 21  1  0
 14 24  1  0
 15 17  1  0
 15 25  1  0
 16 18  1  0
 16 26  1  0
 17 27  1  0
 18 28  1  0
 28 19  1  1
 20 22  1  0
 22 24  1  0
 23 25  1  0
 23 26  1  0
 24 25  1  0
 26 27  1  0
 27 28  1  0
M  END
> <chembl_id>
CHEMBL2105722

> <chembl_pref_name>
NOMEGESTROL
