
     RDKit          2D

 41 45  0  0  0  0  0  0  0  0999 V2000
    4.3516   -4.3101    0.0000 O   0  0  0  0  0  0  0  0  0  0  0  0
    4.6065   -3.5255    0.0000 P   0  0  0  0  0  0  0  0  0  0  0  0
    3.8219   -3.2705    0.0000 O   0  0  0  0  0  0  0  0  0  0  0  0
    5.3912   -3.7804    0.0000 O   0  0  0  0  0  0  0  0  0  0  0  0
    4.8615   -2.7409    0.0000 O   0  0  0  0  0  0  0  0  0  0  0  0
    5.6685   -2.5693    0.0000 C   0  0  0  0  0  0  0  0  0  0  0  0
    8.1370   -1.5298    0.0000 N   0  0  0  0  0  0  0  0  0  0  0  0
    7.4225   -1.9423    0.0000 C   0  0  0  0  0  0  0  0  0  0  0  0
    7.4225   -0.2923    0.0000 C   0  0  0  0  0  0  0  0  0  0  0  0
    8.1370   -0.7048    0.0000 C   0  0  0  0  0  0  0  0  0  0  0  0
    5.9234   -1.7847    0.0000 N   0  0  0  0  0  0  0  0  0  0  0  0
    6.7080   -1.5298    0.0000 C   0  0  0  0  0  0  0  0  0  0  0  0
    6.7080   -0.7048    0.0000 C   0  0  0  0  0  0  0  0  0  0  0  0
    5.9234   -0.4498    0.0000 C   0  0  0  0  0  0  0  0  0  0  0  0
    5.4385   -1.1173    0.0000 C   0  0  0  0  0  0  0  0  0  0  0  0
    7.4225   -2.7673    0.0000 N   0  0  0  0  0  0  0  0  0  0  0  0
    8.0899   -3.2522    0.0000 N   0  0  0  0  0  0  0  0  0  0  0  0
    7.8350   -4.0368    0.0000 C   0  0  0  0  0  0  0  0  0  0  0  0
    7.0100   -4.0368    0.0000 N   0  0  0  0  0  0  0  0  0  0  0  0
    6.7551   -3.2522    0.0000 C   0  0  0  0  0  0  0  0  0  0  0  0
    8.3199   -4.7043    0.0000 C   0  0  0  0  0  0  0  0  0  0  0  0
    7.4225    0.5327    0.0000 O   0  0  0  0  0  0  0  0  0  0  0  0
    8.1370    0.9452    0.0000 C   0  0  0  0  0  0  0  0  0  0  0  0
    5.6685    0.3348    0.0000 C   0  0  0  0  0  0  0  0  0  0  0  0
    4.8615    0.5063    0.0000 C   0  0  0  0  0  0  0  0  0  0  0  0
    6.2205    0.9479    0.0000 O   0  0  0  0  0  0  0  0  0  0  0  0
    4.3095   -0.1068    0.0000 O   0  0  0  0  0  0  0  0  0  0  0  0
    3.7996    1.4625    0.0000 C   0  0  0  0  0  0  0  0  0  0  0  0
    3.5446    2.2471    0.0000 C   0  0  0  0  0  0  0  0  0  0  0  0
    4.0967    2.8602    0.0000 N   0  0  0  0  0  0  0  0  0  0  0  0
    4.9036    2.6887    0.0000 C   0  0  0  0  0  0  0  0  0  0  0  0
    5.1586    1.9040    0.0000 C   0  0  0  0  0  0  0  0  0  0  0  0
    4.6065    1.2909    0.0000 N   0  0  0  0  0  0  0  0  0  0  0  0
    3.8417    3.6448    0.0000 C   0  0  0  0  0  0  0  0  0  0  0  0
    3.0348    3.8163    0.0000 O   0  0  0  0  0  0  0  0  0  0  0  0
    4.3938    4.2579    0.0000 C   0  0  0  0  0  0  0  0  0  0  0  0
    4.1388    5.0425    0.0000 C   0  0  0  0  0  0  0  0  0  0  0  0
    4.6909    5.6556    0.0000 C   0  0  0  0  0  0  0  0  0  0  0  0
    5.4978    5.4841    0.0000 C   0  0  0  0  0  0  0  0  0  0  0  0
    5.7528    4.6995    0.0000 C   0  0  0  0  0  0  0  0  0  0  0  0
    5.2007    4.0864    0.0000 C   0  0  0  0  0  0  0  0  0  0  0  0
  1  2  1  0
  2  3  1  0
  2  4  2  0
  2  5  1  0
  7  8  2  0
  8 12  1  0
 13  9  1  0
  9 10  2  0
  7 10  1  0
 11 12  1  0
 12 13  2  0
 13 14  1  0
 14 15  2  0
 11 15  1  0
 16 17  1  0
 17 18  2  0
 18 19  1  0
 19 20  2  0
 16 20  1  0
 18 21  1  0
  8 16  1  0
 22 23  1  0
  9 22  1  0
 24 25  1  0
 24 26  2  0
 25 27  2  0
 28 29  1  0
 29 30  1  0
 30 31  1  0
 31 32  1  0
 32 33  1  0
 28 33  1  0
 34 35  2  0
 34 36  1  0
 36 37  2  0
 37 38  1  0
 38 39  2  0
 39 40  1  0
 40 41  2  0
 36 41  1  0
 30 34  1  0
 25 33  1  0
 14 24  1  0
  6 11  1  0
  5  6  1  0
M  END
> <chembl_id>
CHEMBL3301594

> <chembl_pref_name>
FOSTEMSAVIR
