
     RDKit          2D

 27 29  0  0  0  0  0  0  0  0999 V2000
    4.7875   -5.7792    0.0000 C   0  0  0  0  0  0  0  0  0  0  0  0
    5.9792   -5.7792    0.0000 C   0  0  0  0  0  0  0  0  0  0  0  0
    5.3792   -5.4292    0.0000 C   0  0  0  0  0  0  0  0  0  0  0  0
    5.3792   -4.2167    0.0000 C   0  0  0  0  0  0  0  0  0  0  0  0
    4.7875   -3.8792    0.0000 C   0  0  0  0  0  0  0  0  0  0  0  0
    4.7875   -6.4792    0.0000 C   0  0  0  0  0  0  0  0  0  0  0  0
    5.9792   -6.4792    0.0000 C   0  0  0  0  0  0  0  0  0  0  0  0
    4.1875   -5.4292    0.0000 C   0  0  0  0  0  0  0  0  0  0  0  0
    5.3792   -6.8167    0.0000 N   0  0  0  0  0  0  0  0  0  0  0  0
    4.7875   -3.1875    0.0000 C   0  0  0  0  0  0  0  0  0  0  0  0
    4.1125   -4.1042    0.0000 N   0  0  0  0  0  0  0  0  0  0  0  0
    3.7292   -3.5292    0.0000 O   0  0  0  0  0  0  0  0  0  0  0  0
    4.1125   -2.9750    0.0000 N   0  0  0  0  0  0  0  0  0  0  0  0
    6.5750   -5.4417    0.0000 C   0  0  0  0  0  0  0  0  0  0  0  0
    3.5792   -5.7750    0.0000 O   0  0  0  0  0  0  0  0  0  0  0  0
    5.9875   -3.8792    0.0000 C   0  0  0  0  0  0  0  0  0  0  0  0
    4.1875   -4.7417    0.0000 O   0  0  0  0  0  0  0  0  0  0  0  0
    5.9875   -3.1875    0.0000 C   0  0  0  0  0  0  0  0  0  0  0  0
    5.3792   -2.8292    0.0000 C   0  0  0  0  0  0  0  0  0  0  0  0
    6.5750   -4.7542    0.0000 O   0  0  0  0  0  0  0  0  0  0  0  0
    7.1667   -5.7792    0.0000 O   0  0  0  0  0  0  0  0  0  0  0  0
    6.5750   -6.8625    0.0000 C   0  0  0  0  0  0  0  0  0  0  0  0
    4.1875   -6.8167    0.0000 C   0  0  0  0  0  0  0  0  0  0  0  0
    2.9792   -5.4292    0.0000 C   0  0  0  0  0  0  0  0  0  0  0  0
    7.7542   -5.4417    0.0000 C   0  0  0  0  0  0  0  0  0  0  0  0
    2.3792   -5.7792    0.0000 C   0  0  0  0  0  0  0  0  0  0  0  0
    2.9792   -4.7625    0.0000 C   0  0  0  0  0  0  0  0  0  0  0  0
  2  3  1  0
  3  1  1  0
  4  3  1  0
  5  4  1  0
  6  1  2  0
  7  9  1  0
  8  1  1  0
  9  6  1  0
 10  5  1  0
 11  5  2  0
 12 11  1  0
 13 10  2  0
 14  2  1  0
 15  8  1  0
 16  4  2  0
 17  8  2  0
 18 16  1  0
 19 18  2  0
 20 14  2  0
 21 14  1  0
 22  7  1  0
 23  6  1  0
 24 15  1  0
 25 21  1  0
 26 24  1  0
 27 24  1  0
  7  2  2  0
 19 10  1  0
 12 13  1  0
M  END
> <chembl_id>
CHEMBL1648

> <chembl_pref_name>
ISRADIPINE
