
     RDKit          2D

 16 15  0  0  0  0  0  0  0  0999 V2000
    5.1417   -3.4417    0.0000 Cl  0  0  0  0  0  0  0  0  0  0  0  0
    2.2417   -3.3167    0.0000 C   0  0  0  0  0  0  0  0  0  0  0  0
    2.2500   -2.6042    0.0000 C   0  0  0  0  0  0  0  0  0  0  0  0
    2.8542   -3.6750    0.0000 C   0  0  0  0  0  0  0  0  0  0  0  0
    1.6167   -3.6792    0.0000 C   0  0  0  0  0  0  0  0  0  0  0  0
    2.8542   -4.3917    0.0000 C   0  0  0  0  0  0  0  0  0  0  0  0
    2.8792   -2.2542    0.0000 C   0  0  0  0  0  0  0  0  0  0  0  0
    1.6250   -4.3917    0.0000 C   0  0  0  0  0  0  0  0  0  0  0  0
    1.6292   -2.2542    0.0000 O   0  0  0  0  0  0  0  0  0  0  0  0
    3.3625   -2.5167    0.0000 N   0  0  0  0  0  0  0  0  0  0  0  0
    2.2417   -4.7417    0.0000 C   0  0  0  0  0  0  0  0  0  0  0  0
    3.4792   -3.3042    0.0000 O   0  0  0  0  0  0  0  0  0  0  0  0
    0.9792   -4.7417    0.0000 O   0  0  0  0  0  0  0  0  0  0  0  0
    2.8792   -1.5417    0.0000 C   0  0  0  0  0  0  0  0  0  0  0  0
    4.0917   -3.6417    0.0000 C   0  0  0  0  0  0  0  0  0  0  0  0
    0.3625   -4.3667    0.0000 C   0  0  0  0  0  0  0  0  0  0  0  0
  3  2  1  0
  4  2  1  0
  5  2  2  0
  6  4  2  0
  7  3  1  0
  8  5  1  0
  9  3  1  0
 10  7  1  0
 11  8  2  0
 12  4  1  0
 13  8  1  0
 14  7  1  0
 15 12  1  0
 16 13  1  0
 11  6  1  0
M  END
> <chembl_id>
CHEMBL1201103

> <chembl_pref_name>
METHOXAMINE HYDROCHLORIDE
