
     RDKit          2D

 36 37  0  0  0  0  0  0  0  0999 V2000
    4.4109    0.2022    0.0000 C   0  0  0  0  0  0  0  0  0  0  0  0
    5.1254   -0.2103    0.0000 C   0  0  0  0  0  0  0  0  0  0  0  0
    5.8398    0.2022    0.0000 C   0  0  0  0  0  0  0  0  0  0  0  0
    5.4273    0.9167    0.0000 O   0  0  0  0  0  0  0  0  0  0  0  0
    6.2523   -0.5123    0.0000 C   0  0  0  0  0  0  0  0  0  0  0  0
    6.5543    0.6147    0.0000 C   0  0  0  0  0  0  0  0  0  0  0  0
    7.2688    0.2022    0.0000 C   0  0  0  0  0  0  0  0  0  0  0  0
    7.9832    0.6147    0.0000 O   0  0  0  0  0  0  0  0  0  0  0  0
    7.2688   -0.6228    0.0000 O   0  0  0  0  0  0  0  0  0  0  0  0
    3.6964   -0.2103    0.0000 O   0  0  0  0  0  0  0  0  0  0  0  0
    4.4109    1.0272    0.0000 O   0  0  0  0  0  0  0  0  0  0  0  0
    5.8398   -1.2268    0.0000 O   0  0  0  0  0  0  0  0  0  0  0  0
    6.9198   -0.9972    0.0000 O   0  0  0  0  0  0  0  0  0  0  0  0
   -2.0675   -2.5251    0.0000 N   0  0  0  0  0  0  0  0  0  0  0  0
   -2.5524   -1.8577    0.0000 C   0  0  0  0  0  0  0  0  0  0  0  0
   -2.0675   -1.1903    0.0000 C   0  0  0  0  0  0  0  0  0  0  0  0
   -1.2829   -1.4452    0.0000 C   0  0  0  0  0  0  0  0  0  0  0  0
   -0.5684   -2.6827    0.0000 N   0  0  0  0  0  0  0  0  0  0  0  0
   -1.2829   -2.2702    0.0000 C   0  0  0  0  0  0  0  0  0  0  0  0
   -0.5684   -1.0327    0.0000 C   0  0  0  0  0  0  0  0  0  0  0  0
    0.1461   -1.4452    0.0000 N   0  0  0  0  0  0  0  0  0  0  0  0
    0.1461   -2.2702    0.0000 C   0  0  0  0  0  0  0  0  0  0  0  0
   -0.5684   -0.2077    0.0000 N   0  0  0  0  0  0  0  0  0  0  0  0
   -1.2829    0.2048    0.0000 C   0  0  0  0  0  0  0  0  0  0  0  0
    0.1461    0.2048    0.0000 C   0  0  0  0  0  0  0  0  0  0  0  0
    1.5750    0.2048    0.0000 C   0  0  0  0  0  0  0  0  0  0  0  0
    0.8605   -0.2077    0.0000 C   0  0  0  0  0  0  0  0  0  0  0  0
    0.1461    1.0298    0.0000 C   0  0  0  0  0  0  0  0  0  0  0  0
    0.8605    1.4423    0.0000 N   0  0  0  0  0  0  0  0  0  0  0  0
    1.5750    1.0298    0.0000 C   0  0  0  0  0  0  0  0  0  0  0  0
    0.8605   -1.0327    0.0000 C   0  0  0  0  0  0  0  0  0  0  0  0
    0.8605    2.2673    0.0000 C   0  0  0  0  0  0  0  0  0  0  0  0
    0.1461    2.6798    0.0000 O   0  0  0  0  0  0  0  0  0  0  0  0
    1.5750    2.6798    0.0000 C   0  0  0  0  0  0  0  0  0  0  0  0
    1.5750    3.5048    0.0000 C   0  0  0  0  0  0  0  0  0  0  0  0
    1.5750    4.3298    0.0000 N   0  0  0  0  0  0  0  0  0  0  0  0
  1  2  1  0
  2  3  1  0
  3  4  1  0
  3  5  1  0
  3  6  1  0
  6  7  1  0
  7  8  1  0
  7  9  2  0
  1 10  1  0
  1 11  2  0
  5 12  1  0
  5 13  2  0
 19 14  1  0
 14 15  1  0
 15 16  2  0
 16 17  1  0
 17 20  1  0
 18 19  1  0
 18 22  2  0
 20 21  2  0
 21 22  1  0
 19 17  2  0
 20 23  1  0
 23 24  1  0
 25 23  1  1
 27 25  1  0
 25 28  1  0
 26 27  1  0
 26 30  1  0
 28 29  1  0
 29 30  1  0
 27 31  1  1
 29 32  1  0
 32 33  2  0
 32 34  1  0
 34 35  1  0
 35 36  3  0
M  END
> <chembl_id>
CHEMBL2103743

> <chembl_pref_name>
TOFACITINIB CITRATE
