
     RDKit          2D

 20 21  0  0  0  0  0  0  0  0999 V2000
    8.4348   -6.4078    0.0000 N   0  0  0  0  0  0  0  0  0  0  0  0
    5.5599   -6.4078    0.0000 C   0  0  0  0  0  0  0  0  0  0  0  0
    4.8290   -6.8414    0.0000 C   0  0  0  0  0  0  0  0  0  0  0  0
    5.5599   -5.5599    0.0000 C   0  0  0  0  0  0  0  0  0  0  0  0
    4.1127   -6.4078    0.0000 C   0  0  0  0  0  0  0  0  0  0  0  0
    4.8290   -7.6649    0.0000 C   0  0  0  0  0  0  0  0  0  0  0  0
    3.3964   -7.6649    0.0000 C   0  0  0  0  0  0  0  0  0  0  0  0
    6.2762   -6.8171    0.0000 O   0  0  0  0  0  0  0  0  0  0  0  0
    4.1127   -8.0743    0.0000 C   0  0  0  0  0  0  0  0  0  0  0  0
    3.3964   -6.8414    0.0000 C   0  0  0  0  0  0  0  0  0  0  0  0
    2.6605   -8.0986    0.0000 Br  0  0  0  0  0  0  0  0  0  0  0  0
    7.7088   -6.8171    0.0000 C   0  0  0  0  0  0  0  0  0  0  0  0
    6.9925   -6.4078    0.0000 C   0  0  0  0  0  0  0  0  0  0  0  0
    8.4348   -5.5745    0.0000 C   0  0  0  0  0  0  0  0  0  0  0  0
    9.1414   -6.8171    0.0000 C   0  0  0  0  0  0  0  0  0  0  0  0
    6.2762   -5.1506    0.0000 C   0  0  0  0  0  0  0  0  0  0  0  0
    4.8436   -5.1506    0.0000 C   0  0  0  0  0  0  0  0  0  0  0  0
    4.8436   -4.3270    0.0000 C   0  0  0  0  0  0  0  0  0  0  0  0
    6.2762   -4.3270    0.0000 C   0  0  0  0  0  0  0  0  0  0  0  0
    5.5599   -3.9080    0.0000 C   0  0  0  0  0  0  0  0  0  0  0  0
  2  8  1  0
  3  2  1  0
  4  2  1  0
  5  3  2  0
  6  3  1  0
  7 10  2  0
  8 13  1  0
  9  6  2  0
 10  5  1  0
 11  7  1  0
 12  1  1  0
 13 12  1  0
 14  1  1  0
 15  1  1  0
 16  4  2  0
 17  4  1  0
 18 17  2  0
 19 16  1  0
 20 19  2  0
  7  9  1  0
 20 18  1  0
M  END
> <chembl_id>
CHEMBL1201245

> <chembl_pref_name>
BROMODIPHENHYDRAMINE
