
     RDKit          2D

 26 27  0  0  1  0  0  0  0  0999 V2000
    3.3855    0.0715    0.0000 S   0  0  0  0  0  0  0  0  0  0  0  0
    3.3855   -0.7535    0.0000 S   0  0  0  0  0  0  0  0  0  0  0  0
    2.0036   -2.4759    0.0000 O   0  0  0  0  0  0  0  0  0  0  0  0
    6.2434    1.7215    0.0000 O   0  0  0  0  0  0  0  0  0  0  0  0
    3.3855    2.5465    0.0000 O   0  0  0  0  0  0  0  0  0  0  0  0
    5.5289    0.4840    0.0000 N   0  0  0  0  0  0  0  0  0  0  0  0
    8.3868    0.4840    0.0000 N   0  0  0  0  0  0  0  0  0  0  0  0
    7.6723    1.7215    0.0000 N   0  0  0  0  0  0  0  0  0  0  0  0
    7.6723   -0.7535    0.0000 N   0  0  0  0  0  0  0  0  0  0  0  0
    6.9578    0.4840    0.0000 C   0  0  0  0  0  0  0  0  0  0  0  0
    4.8144    0.0715    0.0000 C   0  0  0  0  0  0  0  0  0  0  0  0
    6.2434    0.0715    0.0000 C   0  0  0  0  0  0  0  0  0  0  0  0
    4.1000    0.4840    0.0000 C   0  0  0  0  0  0  0  0  0  0  0  0
    7.6723    0.0715    0.0000 C   0  0  0  0  0  0  0  0  0  0  0  0
    6.9578    1.3090    0.0000 C   0  0  0  0  0  0  0  0  0  0  0  0
    8.3868    1.3090    0.0000 C   0  0  0  0  0  0  0  0  0  0  0  0
    5.5289    1.3090    0.0000 C   0  0  0  0  0  0  0  0  0  0  0  0
    4.1000    1.3090    0.0000 C   0  0  0  0  0  0  0  0  0  0  0  0
    4.8144   -0.7535    0.0000 C   0  0  0  0  0  0  0  0  0  0  0  0
    2.6710   -1.9910    0.0000 C   0  0  0  0  0  0  0  0  0  0  0  0
    2.6710   -1.1660    0.0000 C   0  0  0  0  0  0  0  0  0  0  0  0
    3.3384   -2.4759    0.0000 C   0  0  0  0  0  0  0  0  0  0  0  0
    9.1012    1.7215    0.0000 C   0  0  0  0  0  0  0  0  0  0  0  0
    3.3855    1.7215    0.0000 C   0  0  0  0  0  0  0  0  0  0  0  0
    2.2585   -3.2605    0.0000 C   0  0  0  0  0  0  0  0  0  0  0  0
    3.0835   -3.2605    0.0000 C   0  0  0  0  0  0  0  0  0  0  0  0
  1  2  1  0
  1 13  1  0
  2 21  1  0
  3 20  1  0
  3 25  1  0
  4 17  2  0
  5 24  1  0
  6 11  1  0
  6 12  1  0
  6 17  1  0
  7 14  2  0
  7 16  1  0
  8 15  1  0
  8 16  2  0
  9 14  1  0
 10 12  1  0
 10 14  1  0
 10 15  2  0
 11 13  2  0
 11 19  1  0
 13 18  1  0
 16 23  1  0
 18 24  1  0
 20 21  1  0
 20 22  1  0
 22 26  1  0
 25 26  1  0
M  END
> <chembl_id>
CHEMBL1740659

> <chembl_pref_name>
FURSULTIAMINE
