
     RDKit          2D

 36 39  0  0  0  0  0  0  0  0999 V2000
   -4.9808    4.6767    0.0000 S   0  0  0  0  0  0  0  0  0  0  0  0
   -5.7488    4.3298    0.0000 O   0  0  0  0  0  0  0  0  0  0  0  0
   -4.7275    3.8907    0.0000 O   0  0  0  0  0  0  0  0  0  0  0  0
   -4.2439    4.3528    0.0000 O   0  0  0  0  0  0  0  0  0  0  0  0
   -5.0024    5.5014    0.0000 O   0  0  0  0  0  0  0  0  0  0  0  0
   -5.4196    2.0227    0.0000 C   0  0  0  0  0  0  0  0  0  0  0  0
   -6.1114    1.5734    0.0000 C   0  0  0  0  0  0  0  0  0  0  0  0
   -5.8979    0.7765    0.0000 C   0  0  0  0  0  0  0  0  0  0  0  0
   -5.0740    0.7334    0.0000 N   0  0  0  0  0  0  0  0  0  0  0  0
   -4.7784    1.5035    0.0000 C   0  0  0  0  0  0  0  0  0  0  0  0
   -6.8465    1.9479    0.0000 O   0  0  0  0  0  0  0  0  0  0  0  0
   -4.6247    0.0415    0.0000 C   0  0  0  0  0  0  0  0  0  0  0  0
   -5.0372   -0.6730    0.0000 O   0  0  0  0  0  0  0  0  0  0  0  0
   -3.8008    0.0847    0.0000 N   0  0  0  0  0  0  0  0  0  0  0  0
   -3.3515   -0.6072    0.0000 C   0  0  0  0  0  0  0  0  0  0  0  0
   -2.5276   -0.6504    0.0000 C   0  0  0  0  0  0  0  0  0  0  0  0
   -3.6471   -1.3774    0.0000 C   0  0  0  0  0  0  0  0  0  0  0  0
   -3.0060   -1.8966    0.0000 N   0  0  0  0  0  0  0  0  0  0  0  0
   -2.3141   -1.4473    0.0000 N   0  0  0  0  0  0  0  0  0  0  0  0
   -1.1474   -0.2806    0.0000 C   0  0  0  0  0  0  0  0  0  0  0  0
   -1.9443   -0.0671    0.0000 N   0  0  0  0  0  0  0  0  0  0  0  0
   -1.5172   -1.6608    0.0000 C   0  0  0  0  0  0  0  0  0  0  0  0
   -0.9339   -1.0775    0.0000 C   0  0  0  0  0  0  0  0  0  0  0  0
   -0.5640    0.3028    0.0000 N   0  0  0  0  0  0  0  0  0  0  0  0
    0.2508    0.1737    0.0000 C   0  0  0  0  0  0  0  0  0  0  0  0
    0.6254    0.9087    0.0000 C   0  0  0  0  0  0  0  0  0  0  0  0
    0.0420    1.4921    0.0000 C   0  0  0  0  0  0  0  0  0  0  0  0
   -0.6930    1.1176    0.0000 C   0  0  0  0  0  0  0  0  0  0  0  0
   -1.4281    1.4922    0.0000 C   0  0  0  0  0  0  0  0  0  0  0  0
   -2.1425    2.7297    0.0000 C   0  0  0  0  0  0  0  0  0  0  0  0
   -2.8570    2.3172    0.0000 C   0  0  0  0  0  0  0  0  0  0  0  0
   -2.8570    1.4922    0.0000 C   0  0  0  0  0  0  0  0  0  0  0  0
   -2.1426    1.0797    0.0000 C   0  0  0  0  0  0  0  0  0  0  0  0
   -1.4281    2.3172    0.0000 C   0  0  0  0  0  0  0  0  0  0  0  0
   -2.0994    0.2558    0.0000 F   0  0  0  0  0  0  0  0  0  0  0  0
   -2.1425    3.5547    0.0000 F   0  0  0  0  0  0  0  0  0  0  0  0
  1  2  2  0
  1  3  1  0
  1  4  1  0
  1  5  2  0
  6  7  1  0
  7  8  1  0
  8  9  1  0
  9 10  1  0
  6 10  1  0
  7 11  1  1
  9 12  1  0
 12 13  2  0
 12 14  1  0
 14 15  1  0
 17 18  2  0
 18 19  1  0
 16 19  1  0
 16 15  2  0
 15 17  1  0
 20 21  2  0
 22 23  2  0
 20 23  1  0
 19 22  1  0
 21 16  1  0
 20 24  1  0
 25 26  1  0
 26 27  1  0
 27 28  1  0
 24 25  1  0
 24 28  1  0
 28 29  1  1
 30 31  1  0
 31 32  2  0
 32 33  1  0
 30 34  2  0
 33 29  2  0
 29 34  1  0
 33 35  1  0
 30 36  1  0
M  END
> <chembl_id>
CHEMBL3989939

> <chembl_pref_name>
LAROTRECTINIB SULFATE
