
     RDKit          2D

 21 23  0  0  1  0  0  0  0  0999 V2000
   -1.5458   -0.6792    0.0000 C   0  0  0  0  0  0  0  0  0  0  0  0
    2.7167    0.2458    0.0000 N   0  0  0  0  0  0  0  0  0  0  0  0
    2.0292   -0.6792    0.0000 C   0  0  0  0  0  0  0  0  0  0  0  0
    2.7167   -0.8917    0.0000 C   0  0  0  0  0  0  0  0  0  0  0  0
   -0.9708   -1.0875    0.0000 N   0  0  0  0  0  0  0  0  0  0  0  0
    3.1167   -0.3167    0.0000 C   0  0  0  0  0  0  0  0  0  0  0  0
    2.0292    0.0333    0.0000 C   0  0  0  0  0  0  0  0  0  0  0  0
   -1.3333   -0.0042    0.0000 O   0  0  0  0  0  0  0  0  0  0  0  0
    1.4167   -1.0417    0.0000 C   0  0  0  0  0  0  0  0  0  0  0  0
   -2.1583   -1.0417    0.0000 O   0  0  0  0  0  0  0  0  0  0  0  0
   -0.4333   -0.6792    0.0000 C   0  0  0  0  0  0  0  0  0  0  0  0
    0.8042   -0.6792    0.0000 C   0  0  0  0  0  0  0  0  0  0  0  0
    2.7167   -1.6250    0.0000 C   0  0  0  0  0  0  0  0  0  0  0  0
    1.4167    0.3958    0.0000 C   0  0  0  0  0  0  0  0  0  0  0  0
   -0.6208   -0.0042    0.0000 C   0  0  0  0  0  0  0  0  0  0  0  0
    0.1917   -1.0417    0.0000 C   0  0  0  0  0  0  0  0  0  0  0  0
    3.9417   -1.6250    0.0000 N   0  0  0  0  0  0  0  0  0  0  0  0
    3.3292   -1.9875    0.0000 C   0  0  0  0  0  0  0  0  0  0  0  0
    0.8042    0.0333    0.0000 C   0  0  0  0  0  0  0  0  0  0  0  0
    4.5667   -1.9875    0.0000 C   0  0  0  0  0  0  0  0  0  0  0  0
    3.9417   -0.9042    0.0000 C   0  0  0  0  0  0  0  0  0  0  0  0
  2  7  1  0
  3  9  1  0
  4  3  1  0
  5  1  1  0
  6  4  2  0
  7 14  1  0
  8  1  1  0
  9 12  2  0
 10  1  2  0
 11  5  1  0
 12 16  1  0
 13  4  1  0
 14 19  2  0
 15  8  1  0
 11 16  1  6
 17 18  1  0
 18 13  1  0
 19 12  1  0
 20 17  1  0
 21 17  1  0
 11 15  1  0
  3  7  2  0
  2  6  1  0
M  END
> <chembl_id>
CHEMBL1185

> <chembl_pref_name>
ZOLMITRIPTAN
