
     RDKit          2D

 21 23  0  0  1  0  0  0  0  0999 V2000
    2.1167  -15.2333    0.0000 C   0  0  0  0  0  0  0  0  0  0  0  0
    0.8917  -15.9500    0.0000 C   0  0  0  0  0  0  0  0  0  0  0  0
    0.8875  -15.2417    0.0000 O   0  0  0  0  0  0  0  0  0  0  0  0
    2.6875  -14.8167    0.0000 S   0  0  0  0  0  0  0  0  0  0  0  0
    1.5000  -14.8833    0.0000 C   0  0  0  0  0  0  0  0  0  0  0  0
    0.2833  -16.3083    0.0000 C   0  0  0  0  0  0  0  0  0  0  0  0
    2.3333  -15.9083    0.0000 C   0  0  0  0  0  0  0  0  0  0  0  0
    3.2625  -15.2333    0.0000 C   0  0  0  0  0  0  0  0  0  0  0  0
    3.0417  -15.9083    0.0000 C   0  0  0  0  0  0  0  0  0  0  0  0
    0.2833  -17.0167    0.0000 C   0  0  0  0  0  0  0  0  0  0  0  0
    1.4958  -14.1750    0.0000 C   0  0  0  0  0  0  0  0  0  0  0  0
    2.7208  -14.1708    0.0000 N   0  0  0  0  0  0  0  0  0  0  0  0
    1.5083  -16.3000    0.0000 C   0  0  0  0  0  0  0  0  0  0  0  0
    1.5125  -17.0125    0.0000 C   0  0  0  0  0  0  0  0  0  0  0  0
    2.1083  -13.8167    0.0000 C   0  0  0  0  0  0  0  0  0  0  0  0
   -0.3292  -15.9542    0.0000 C   0  0  0  0  0  0  0  0  0  0  0  0
    0.9000  -17.3708    0.0000 C   0  0  0  0  0  0  0  0  0  0  0  0
    3.3333  -13.8125    0.0000 C   0  0  0  0  0  0  0  0  0  0  0  0
   -0.3292  -17.3750    0.0000 C   0  0  0  0  0  0  0  0  0  0  0  0
   -0.9417  -16.3125    0.0000 C   0  0  0  0  0  0  0  0  0  0  0  0
   -0.9417  -17.0208    0.0000 C   0  0  0  0  0  0  0  0  0  0  0  0
  2  3  1  0
  3  5  1  0
  4  1  1  0
  5  1  1  0
  6  2  1  0
  7  1  2  0
  8  4  1  0
  9  7  1  0
 10  6  1  0
  5 11  1  1
 12 15  1  0
 13  2  2  0
 14 13  1  0
 15 11  1  0
 16  6  2  0
 17 10  1  0
 18 12  1  0
 19 10  2  0
 20 16  1  0
 21 20  2  0
  8  9  2  0
 14 17  2  0
 19 21  1  0
M  END
> <chembl_id>
CHEMBL1175

> <chembl_pref_name>
DULOXETINE
