
     RDKit          2D

 33 36  0  0  0  0  0  0  0  0999 V2000
    7.2042  -12.4250    0.0000 C   0  0  0  0  0  0  0  0  0  0  0  0
    7.2125  -11.4125    0.0000 C   0  0  0  0  0  0  0  0  0  0  0  0
    6.3625  -10.9125    0.0000 C   0  0  0  0  0  0  0  0  0  0  0  0
    7.2250   -9.3125    0.0000 C   0  0  0  0  0  0  0  0  0  0  0  0
    8.0667  -12.9292    0.0000 C   0  0  0  0  0  0  0  0  0  0  0  0
    6.3542   -9.8917    0.0000 C   0  0  0  0  0  0  0  0  0  0  0  0
    5.4667  -12.4167    0.0000 C   0  0  0  0  0  0  0  0  0  0  0  0
    5.4667  -11.4167    0.0000 C   0  0  0  0  0  0  0  0  0  0  0  0
    6.3292  -12.9167    0.0000 O   0  0  0  0  0  0  0  0  0  0  0  0
    7.1542   -8.3167    0.0000 C   0  0  0  0  0  0  0  0  0  0  0  0
    8.9292  -12.4292    0.0000 C   0  0  0  0  0  0  0  0  0  0  0  0
    4.5875  -12.9167    0.0000 C   0  0  0  0  0  0  0  0  0  0  0  0
    5.4667   -9.4375    0.0000 C   0  0  0  0  0  0  0  0  0  0  0  0
    8.0750  -10.9167    0.0000 C   0  0  0  0  0  0  0  0  0  0  0  0
    6.2625   -7.8875    0.0000 C   0  0  0  0  0  0  0  0  0  0  0  0
    5.4250   -8.4375    0.0000 C   0  0  0  0  0  0  0  0  0  0  0  0
    8.9375  -11.4250    0.0000 C   0  0  0  0  0  0  0  0  0  0  0  0
    3.7250  -12.4167    0.0000 C   0  0  0  0  0  0  0  0  0  0  0  0
    8.2125   -9.1417    0.0000 C   0  0  0  0  0  0  0  0  0  0  0  0
    3.7292  -11.4125    0.0000 C   0  0  0  0  0  0  0  0  0  0  0  0
    4.6042  -10.9125    0.0000 C   0  0  0  0  0  0  0  0  0  0  0  0
    8.0542  -13.9292    0.0000 I   0  0  0  0  0  0  0  0  0  0  0  0
    4.5875  -13.9250    0.0000 I   0  0  0  0  0  0  0  0  0  0  0  0
    9.8042  -10.9292    0.0000 I   0  0  0  0  0  0  0  0  0  0  0  0
    2.8667  -10.9042    0.0000 I   0  0  0  0  0  0  0  0  0  0  0  0
    2.8500  -12.9125    0.0000 O   0  0  0  0  0  0  0  0  0  0  0  0
    9.8042  -12.9292    0.0000 O   0  0  0  0  0  0  0  0  0  0  0  0
    9.4625   -9.6167    0.0000 O   0  0  0  0  0  0  0  0  0  0  0  0
    8.9000   -8.6167    0.0000 O   0  0  0  0  0  0  0  0  0  0  0  0
    7.9875   -7.7542    0.0000 Cl  0  0  0  0  0  0  0  0  0  0  0  0
    4.6292   -9.9792    0.0000 Cl  0  0  0  0  0  0  0  0  0  0  0  0
    4.5292   -7.9792    0.0000 Cl  0  0  0  0  0  0  0  0  0  0  0  0
    6.1917   -6.8875    0.0000 Cl  0  0  0  0  0  0  0  0  0  0  0  0
  2  1  1  0
  3  2  2  0
  4  6  2  0
  5  1  2  0
  6  3  1  0
  7  9  1  0
  8  7  2  0
  9  1  1  0
 10  4  1  0
 11  5  1  0
 12  7  1  0
 13  6  1  0
 14  2  1  0
 15 16  1  0
 16 13  2  0
 17 11  1  0
 18 12  2  0
 19  4  1  0
 20 18  1  0
 21  8  1  0
 22  5  1  0
 23 12  1  0
 24 17  1  0
 25 20  1  0
 26 18  1  0
 27 11  2  0
 28 19  1  0
 29 19  2  0
 30 10  1  0
 31 13  1  0
 32 16  1  0
 33 15  1  0
  3  8  1  0
 14 17  2  0
 21 20  2  0
 10 15  2  0
M  END
> <chembl_id>
CHEMBL1208422

> <chembl_pref_name>
ROSE BENGAL FREE ACID
