
     RDKit          2D

 32 33  0  0  0  0  0  0  0  0999 V2000
    8.2768   -6.8036    0.0000 Cl  0  0  0  0  0  0  0  0  0  0  0  0
    3.7707   -7.2259    0.0000 N   0  0  0  0  0  0  0  0  0  0  0  0
    4.4840   -7.6481    0.0000 C   0  0  0  0  0  0  0  0  0  0  0  0
    3.7707   -8.9098    0.0000 S   0  0  0  0  0  0  0  0  0  0  0  0
    3.0622   -7.6481    0.0000 C   0  0  0  0  0  0  0  0  0  0  0  0
    4.4840   -8.4925    0.0000 C   0  0  0  0  0  0  0  0  0  0  0  0
    3.0622   -8.4925    0.0000 C   0  0  0  0  0  0  0  0  0  0  0  0
    5.2119   -7.2259    0.0000 C   0  0  0  0  0  0  0  0  0  0  0  0
    5.8962   -5.9739    0.0000 N   0  0  0  0  0  0  0  0  0  0  0  0
    7.3278   -5.1295    0.0000 N   0  0  0  0  0  0  0  0  0  0  0  0
    9.4679   -3.8775    0.0000 C   0  0  0  0  0  0  0  0  0  0  0  0
    5.2119   -8.9098    0.0000 C   0  0  0  0  0  0  0  0  0  0  0  0
    8.7837   -3.3630    0.0000 O   0  0  0  0  0  0  0  0  0  0  0  0
    3.7707   -6.4057    0.0000 C   0  0  0  0  0  0  0  0  0  0  0  0
    5.9011   -7.6481    0.0000 C   0  0  0  0  0  0  0  0  0  0  0  0
    6.5950   -4.7218    0.0000 C   0  0  0  0  0  0  0  0  0  0  0  0
    6.5999   -6.3815    0.0000 C   0  0  0  0  0  0  0  0  0  0  0  0
    5.8865   -5.1392    0.0000 C   0  0  0  0  0  0  0  0  0  0  0  0
    7.3278   -5.9593    0.0000 C   0  0  0  0  0  0  0  0  0  0  0  0
    4.4744   -5.9981    0.0000 C   0  0  0  0  0  0  0  0  0  0  0  0
    9.4776   -4.7024    0.0000 O   0  0  0  0  0  0  0  0  0  0  0  0
    5.9011   -8.4925    0.0000 C   0  0  0  0  0  0  0  0  0  0  0  0
    6.5950   -7.2114    0.0000 Cl  0  0  0  0  0  0  0  0  0  0  0  0
    5.2023   -6.3961    0.0000 C   0  0  0  0  0  0  0  0  0  0  0  0
    8.0412   -4.7218    0.0000 C   0  0  0  0  0  0  0  0  0  0  0  0
    2.3634   -7.2259    0.0000 C   0  0  0  0  0  0  0  0  0  0  0  0
    8.7691   -5.1295    0.0000 C   0  0  0  0  0  0  0  0  0  0  0  0
    2.3634   -8.9098    0.0000 C   0  0  0  0  0  0  0  0  0  0  0  0
   10.1473   -3.4989    0.0000 C   0  0  0  0  0  0  0  0  0  0  0  0
    1.6742   -7.6190    0.0000 C   0  0  0  0  0  0  0  0  0  0  0  0
    1.6742   -8.5216    0.0000 C   0  0  0  0  0  0  0  0  0  0  0  0
    9.0408   -7.8956    0.0000 Cl  0  0  0  0  0  0  0  0  0  0  0  0
  3  2  1  0
  4  7  1  0
  5  2  1  0
  6  3  2  0
  7  5  2  0
  8  3  1  0
  9 24  1  0
 10 16  1  0
 11 21  1  0
 12  6  1  0
 13 11  2  0
 14  2  1  0
 15  8  2  0
 16 18  1  0
 17  9  1  0
 18  9  1  0
 19 17  1  0
 20 14  1  0
 21 27  1  0
 22 15  1  0
 23 15  1  0
 24 20  1  0
 25 10  1  0
 26  5  1  0
 27 25  1  0
 28  7  1  0
 29 11  1  0
 30 26  2  0
 31 30  1  0
  6  4  1  0
 28 31  2  0
 12 22  2  0
 19 10  1  0
M  END
> <chembl_id>
CHEMBL3989786

> <chembl_pref_name>
THIOPROPAZATE HYDROCHLORIDE
