
     RDKit          2D

 25 27  0  0  1  0  0  0  0  0999 V2000
    6.4792   -1.4542    0.0000 C   0  0  0  0  0  0  0  0  0  0  0  0
    6.8292   -0.8375    0.0000 C   0  0  0  0  0  0  0  0  0  0  0  0
    5.8667   -1.8125    0.0000 C   0  0  0  0  0  0  0  0  0  0  0  0
    5.2500   -1.4583    0.0000 C   0  0  0  0  0  0  0  0  0  0  0  0
    6.7458   -3.6042    0.0000 N   0  0  0  0  0  0  0  0  0  0  0  0
    7.0958   -2.5167    0.0000 N   0  0  0  0  0  0  0  0  0  0  0  0
    7.0917   -1.8083    0.0000 C   0  0  0  0  0  0  0  0  0  0  0  0
    7.5375   -0.8292    0.0000 C   0  0  0  0  0  0  0  0  0  0  0  0
    7.6708   -2.9292    0.0000 N   0  0  0  0  0  0  0  0  0  0  0  0
    7.4542   -3.6042    0.0000 C   0  0  0  0  0  0  0  0  0  0  0  0
    6.5250   -2.9333    0.0000 C   0  0  0  0  0  0  0  0  0  0  0  0
    6.4667   -0.2292    0.0000 C   0  0  0  0  0  0  0  0  0  0  0  0
    4.6375   -1.8125    0.0000 C   0  0  0  0  0  0  0  0  0  0  0  0
    5.2500   -0.7458    0.0000 N   0  0  0  0  0  0  0  0  0  0  0  0
    7.8875   -0.2125    0.0000 C   0  0  0  0  0  0  0  0  0  0  0  0
    4.0250   -0.7500    0.0000 N   0  0  0  0  0  0  0  0  0  0  0  0
    6.1167   -0.8375    0.0000 O   0  0  0  0  0  0  0  0  0  0  0  0
    4.6375   -0.3917    0.0000 C   0  0  0  0  0  0  0  0  0  0  0  0
    7.5250    0.4000    0.0000 C   0  0  0  0  0  0  0  0  0  0  0  0
    7.9000   -1.4417    0.0000 F   0  0  0  0  0  0  0  0  0  0  0  0
    4.6417   -2.5208    0.0000 F   0  0  0  0  0  0  0  0  0  0  0  0
    6.8125    0.3917    0.0000 C   0  0  0  0  0  0  0  0  0  0  0  0
    4.0250   -1.4583    0.0000 C   0  0  0  0  0  0  0  0  0  0  0  0
    7.8708    1.0167    0.0000 F   0  0  0  0  0  0  0  0  0  0  0  0
    5.8667   -2.5208    0.0000 C   0  0  0  0  0  0  0  0  0  0  0  0
  1  2  1  1
  3  1  1  0
  4  3  1  0
  5 11  2  0
  6  7  1  0
  7  1  1  0
  8  2  2  0
  9  6  1  0
 10  9  2  0
 11  6  1  0
 12  2  1  0
 13  4  2  0
 14  4  1  0
 15  8  1  0
 16 18  1  0
 17  1  1  0
 18 14  2  0
 19 22  1  0
 20  8  1  0
 21 13  1  0
 22 12  2  0
 23 13  1  0
 24 19  1  0
  3 25  1  1
 10  5  1  0
 23 16  2  0
 19 15  2  0
M  END
> <chembl_id>
CHEMBL638

> <chembl_pref_name>
VORICONAZOLE
