
     RDKit          2D

 38 41  0  0  0  0  0  0  0  0999 V2000
   -3.7222    6.4851    0.0000 N   0  0  0  0  0  0  0  0  0  0  0  0
   -4.4655    6.1271    0.0000 C   0  0  0  0  0  0  0  0  0  0  0  0
   -4.6491    5.3228    0.0000 C   0  0  0  0  0  0  0  0  0  0  0  0
   -4.1347    4.6778    0.0000 C   0  0  0  0  0  0  0  0  0  0  0  0
   -3.3098    4.6778    0.0000 N   0  0  0  0  0  0  0  0  0  0  0  0
   -2.7954    5.3228    0.0000 C   0  0  0  0  0  0  0  0  0  0  0  0
   -2.9789    6.1271    0.0000 C   0  0  0  0  0  0  0  0  0  0  0  0
   -5.4375    5.0796    0.0000 C   0  0  0  0  0  0  0  0  0  0  0  0
   -6.0423    5.6407    0.0000 C   0  0  0  0  0  0  0  0  0  0  0  0
   -5.8587    6.4450    0.0000 C   0  0  0  0  0  0  0  0  0  0  0  0
   -5.0703    6.6882    0.0000 C   0  0  0  0  0  0  0  0  0  0  0  0
   -4.4927    3.9345    0.0000 C   0  0  0  0  0  0  0  0  0  0  0  0
   -5.3154    3.8729    0.0000 N   0  0  0  0  0  0  0  0  0  0  0  0
   -5.6734    3.1296    0.0000 C   0  0  0  0  0  0  0  0  0  0  0  0
   -5.2086    2.4479    0.0000 C   0  0  0  0  0  0  0  0  0  0  0  0
   -4.3860    2.5095    0.0000 C   0  0  0  0  0  0  0  0  0  0  0  0
   -4.0280    3.2528    0.0000 C   0  0  0  0  0  0  0  0  0  0  0  0
   -3.6115    7.3026    0.0000 C   0  0  0  0  0  0  0  0  0  0  0  0
   -2.7998    7.4499    0.0000 C   0  0  0  0  0  0  0  0  0  0  0  0
   -2.4088    6.7234    0.0000 N   0  0  0  0  0  0  0  0  0  0  0  0
   -4.2246    7.8546    0.0000 C   0  0  0  0  0  0  0  0  0  0  0  0
   -6.8125    5.3451    0.0000 Br  0  0  0  0  0  0  0  0  0  0  0  0
   -1.9911    5.1393    0.0000 C   0  0  0  0  0  0  0  0  0  0  0  0
   -1.7895    4.3393    0.0000 C   0  0  0  0  0  0  0  0  0  0  0  0
   -0.9852    4.1557    0.0000 C   0  0  0  0  0  0  0  0  0  0  0  0
   -0.4240    4.7605    0.0000 O   0  0  0  0  0  0  0  0  0  0  0  0
   -0.7420    3.3674    0.0000 O   0  0  0  0  0  0  0  0  0  0  0  0
    0.0516    3.1420    0.0000 C   0  0  0  0  0  0  0  0  0  0  0  0
    2.4955    5.5463    0.0000 C   0  0  0  0  0  0  0  0  0  0  0  0
    2.4955    4.7213    0.0000 C   0  0  0  0  0  0  0  0  0  0  0  0
    1.7811    4.3088    0.0000 C   0  0  0  0  0  0  0  0  0  0  0  0
    1.0666    4.7213    0.0000 C   0  0  0  0  0  0  0  0  0  0  0  0
    1.0666    5.5463    0.0000 C   0  0  0  0  0  0  0  0  0  0  0  0
    1.7811    5.9588    0.0000 C   0  0  0  0  0  0  0  0  0  0  0  0
    1.7811    6.7838    0.0000 S   0  0  0  0  0  0  0  0  0  0  0  0
    1.7811    7.6088    0.0000 O   0  0  0  0  0  0  0  0  0  0  0  0
    2.6061    6.7838    0.0000 O   0  0  0  0  0  0  0  0  0  0  0  0
    0.9561    6.7838    0.0000 O   0  0  0  0  0  0  0  0  0  0  0  0
  1  2  1  0
  2  3  1  0
  3  4  1  0
  4  5  2  0
  5  6  1  0
  6  7  1  0
  7  1  1  0
  8  9  1  0
  9 10  2  0
 10 11  1  0
  2 11  2  0
  3  8  2  0
 12 13  2  0
 13 14  1  0
 14 15  2  0
 15 16  1  0
 16 17  2  0
 12 17  1  0
 18 19  2  0
 19 20  1  0
  7 20  2  0
  1 18  1  0
 18 21  1  0
  9 22  1  0
  4 12  1  0
  6 23  1  6
 23 24  1  0
 24 25  1  0
 25 26  2  0
 25 27  1  0
 27 28  1  0
 29 30  1  0
 30 31  2  0
 31 32  1  0
 32 33  2  0
 33 34  1  0
 29 34  2  0
 34 35  1  0
 35 36  2  0
 35 37  2  0
 35 38  1  0
M  END
> <chembl_id>
CHEMBL4594301

> <chembl_pref_name>
REMIMAZOLAM BESYLATE
