
     RDKit          2D

 57 62  0  0  1  0  0  0  0  0999 V2000
    4.0958   -8.7417    0.0000 C   0  0  0  0  0  0  0  0  0  0  0  0
    4.0958   -8.0292    0.0000 C   0  0  0  0  0  0  0  0  0  0  0  0
    4.6250   -9.2083    0.0000 N   0  0  0  0  0  0  0  0  0  0  0  0
    4.3375   -9.8542    0.0000 C   0  0  0  0  0  0  0  0  0  0  0  0
    3.6417   -9.7833    0.0000 N   0  0  0  0  0  0  0  0  0  0  0  0
    3.4917   -9.0958    0.0000 C   0  0  0  0  0  0  0  0  0  0  0  0
    2.2583   -9.0958    0.0000 C   0  0  0  0  0  0  0  0  0  0  0  0
    1.6500   -8.7458    0.0000 C   0  0  0  0  0  0  0  0  0  0  0  0
    2.8708   -8.0333    0.0000 C   0  0  0  0  0  0  0  0  0  0  0  0
    2.8708   -8.7417    0.0000 C   0  0  0  0  0  0  0  0  0  0  0  0
    1.4208   -9.8625    0.0000 C   0  0  0  0  0  0  0  0  0  0  0  0
    4.7083   -7.6708    0.0000 N   0  0  0  0  0  0  0  0  0  0  0  0
    1.1292   -9.2208    0.0000 O   0  0  0  0  0  0  0  0  0  0  0  0
    3.4833   -7.6750    0.0000 C   0  0  0  0  0  0  0  0  0  0  0  0
    2.2583   -7.6792    0.0000 C   0  0  0  0  0  0  0  0  0  0  0  0
    2.1167   -9.7833    0.0000 C   0  0  0  0  0  0  0  0  0  0  0  0
    1.6417   -8.0375    0.0000 C   0  0  0  0  0  0  0  0  0  0  0  0
    0.6208   -7.2167    0.0000 C   0  0  0  0  0  0  0  0  0  0  0  0
    4.7042   -6.9625    0.0000 C   0  0  0  0  0  0  0  0  0  0  0  0
    1.2333   -6.8583    0.0000 C   0  0  0  0  0  0  0  0  0  0  0  0
    2.2458   -5.5542    0.0000 C   0  0  0  0  0  0  0  0  0  0  0  0
    1.2292   -6.1500    0.0000 C   0  0  0  0  0  0  0  0  0  0  0  0
    5.3208   -9.1333    0.0000 C   0  0  0  0  0  0  0  0  0  0  0  0
    0.6250   -7.9250    0.0000 C   0  0  0  0  0  0  0  0  0  0  0  0
    4.7542  -10.4208    0.0000 C   0  0  0  0  0  0  0  0  0  0  0  0
    2.8625   -5.9083    0.0000 C   0  0  0  0  0  0  0  0  0  0  0  0
    5.3167   -6.6083    0.0000 C   0  0  0  0  0  0  0  0  0  0  0  0
    0.8042  -10.2125    0.0000 O   0  0  0  0  0  0  0  0  0  0  0  0
    0.0042   -6.8625    0.0000 O   0  0  0  0  0  0  0  0  0  0  0  0
    5.7333   -9.6958    0.0000 C   0  0  0  0  0  0  0  0  0  0  0  0
    5.4500  -10.3458    0.0000 C   0  0  0  0  0  0  0  0  0  0  0  0
    0.1917   -9.8500    0.0000 C   0  0  0  0  0  0  0  0  0  0  0  0
   -0.6042   -7.2208    0.0000 C   0  0  0  0  0  0  0  0  0  0  0  0
    0.4333   -9.1417    0.0000 C   0  0  0  0  0  0  0  0  0  0  0  0
    0.1250   -8.5417    0.0000 C   0  0  0  0  0  0  0  0  0  0  0  0
    4.7000   -5.5458    0.0000 C   0  0  0  0  0  0  0  0  0  0  0  0
    2.5958  -10.3083    0.0000 O   0  0  0  0  0  0  0  0  0  0  0  0
    5.3125   -5.9000    0.0000 C   0  0  0  0  0  0  0  0  0  0  0  0
    4.0917   -6.6125    0.0000 O   0  0  0  0  0  0  0  0  0  0  0  0
    3.4750   -5.5500    0.0000 C   0  0  0  0  0  0  0  0  0  0  0  0
    4.0875   -5.9042    0.0000 C   0  0  0  0  0  0  0  0  0  0  0  0
   -0.6042   -7.9292    0.0000 O   0  0  0  0  0  0  0  0  0  0  0  0
    3.4792   -6.9667    0.0000 O   0  0  0  0  0  0  0  0  0  0  0  0
    2.2625   -6.9708    0.0000 O   0  0  0  0  0  0  0  0  0  0  0  0
    0.6125   -5.7958    0.0000 O   0  0  0  0  0  0  0  0  0  0  0  0
    2.8625   -6.6167    0.0000 O   0  0  0  0  0  0  0  0  0  0  0  0
    1.4167  -10.5667    0.0000 C   0  0  0  0  0  0  0  0  0  0  0  0
    1.0250   -7.6833    0.0000 C   0  0  0  0  0  0  0  0  0  0  0  0
    1.8500   -7.2125    0.0000 C   0  0  0  0  0  0  0  0  0  0  0  0
    2.2458   -4.8458    0.0000 C   0  0  0  0  0  0  0  0  0  0  0  0
   -0.5833   -8.5417    0.0000 O   0  0  0  0  0  0  0  0  0  0  0  0
    1.2375   -8.2750    0.0000 C   0  0  0  0  0  0  0  0  0  0  0  0
    5.9333   -6.9583    0.0000 C   0  0  0  0  0  0  0  0  0  0  0  0
    5.8708  -10.9167    0.0000 C   0  0  0  0  0  0  0  0  0  0  0  0
   -1.2208   -6.8667    0.0000 C   0  0  0  0  0  0  0  0  0  0  0  0
    3.4708   -4.8417    0.0000 C   0  0  0  0  0  0  0  0  0  0  0  0
   -0.9417   -9.1500    0.0000 C   0  0  0  0  0  0  0  0  0  0  0  0
  2  1  1  0
  3  1  1  0
  4  3  1  0
  5  6  1  0
  6  1  2  0
  7 10  2  0
  8  7  1  0
  9 14  1  0
 10  6  1  0
 11 16  1  0
 12  2  1  0
 13  8  1  0
 14  2  2  0
 15  9  2  0
 16  7  1  0
 17 15  1  0
 18 24  1  0
 19 12  1  0
 20 22  1  0
 21 26  1  0
 22 21  1  0
 23  3  1  0
 24 35  1  0
 25  4  1  0
 26 40  1  0
 27 19  1  0
 28 11  1  0
 18 29  1  1
 30 23  2  0
 31 25  2  0
 32 28  1  0
 33 29  1  0
 34 32  2  0
 35 34  1  0
 36 38  1  0
 37 16  2  0
 38 27  2  0
 39 19  2  0
 40 41  1  0
 41 36  2  0
 42 33  2  0
 43 14  1  0
 44 15  1  0
 22 45  1  6
 26 46  1  6
 11 47  1  6
 48 17  1  0
 20 49  1  1
 21 50  1  6
 35 51  1  6
 24 52  1  6
 53 27  1  0
 54 31  1  0
 55 33  1  0
 40 56  1  1
 57 51  1  0
  9 10  1  0
  4  5  2  0
 30 31  1  0
  8 17  2  0
 11 13  1  0
 18 20  1  0
M  END
> <chembl_id>
CHEMBL1617

> <chembl_pref_name>
RIFAXIMIN
