
     RDKit          2D

 15 15  0  0  0  0  0  0  0  0999 V2000
   10.4466    0.3563    0.0000 C   0  0  0  0  0  0  0  0  0  0  0  0
    9.7332    0.7786    0.0000 N   0  0  0  0  0  0  0  0  0  0  0  0
    9.7332   -0.8909    0.0000 N   0  0  0  0  0  0  0  0  0  0  0  0
   11.1551    0.7640    0.0000 C   0  0  0  0  0  0  0  0  0  0  0  0
   10.4466   -0.4687    0.0000 C   0  0  0  0  0  0  0  0  0  0  0  0
   11.8734    0.3563    0.0000 N   0  0  0  0  0  0  0  0  0  0  0  0
    9.0149    0.3563    0.0000 C   0  0  0  0  0  0  0  0  0  0  0  0
    9.0149   -0.4687    0.0000 C   0  0  0  0  0  0  0  0  0  0  0  0
   12.5820    0.7640    0.0000 C   0  0  0  0  0  0  0  0  0  0  0  0
   12.5820    1.5939    0.0000 N   0  0  0  0  0  0  0  0  0  0  0  0
   11.1551    1.5939    0.0000 O   0  0  0  0  0  0  0  0  0  0  0  0
   11.1551   -0.8812    0.0000 N   0  0  0  0  0  0  0  0  0  0  0  0
    8.2918   -0.8667    0.0000 N   0  0  0  0  0  0  0  0  0  0  0  0
   13.2954    0.3563    0.0000 N   0  0  0  0  0  0  0  0  0  0  0  0
    8.2918    0.7543    0.0000 Cl  0  0  0  0  0  0  0  0  0  0  0  0
  2  1  1  0
  3  5  1  0
  4  1  1  0
  5  1  2  0
  6  4  1  0
  7  2  2  0
  8  3  2  0
  9  6  1  0
 10  9  2  0
 11  4  2  0
 12  5  1  0
 13  8  1  0
 14  9  1  0
 15  7  1  0
  7  8  1  0
M  END
> <chembl_id>
CHEMBL945

> <chembl_pref_name>
AMILORIDE
