
     RDKit          2D

 86 90  0  0  0  0  0  0  0  0999 V2000
    5.0250   -5.5292    0.0000 Cl  0  0  0  0  0  0  0  0  0  0  0  0
   11.7750   -3.1542    0.0000 N   0  0  0  0  0  0  0  0  0  0  0  0
   11.1625   -2.8000    0.0000 C   0  0  0  0  0  0  0  0  0  0  0  0
    1.9625   -1.7333    0.0000 C   0  0  0  0  0  0  0  0  0  0  0  0
    3.8042   -2.7917    0.0000 C   0  0  0  0  0  0  0  0  0  0  0  0
    1.9625   -3.1500    0.0000 C   0  0  0  0  0  0  0  0  0  0  0  0
    0.1250   -2.7958    0.0000 C   0  0  0  0  0  0  0  0  0  0  0  0
    9.3250   -3.1542    0.0000 C   0  0  0  0  0  0  0  0  0  0  0  0
   -1.7125   -3.1542    0.0000 C   0  0  0  0  0  0  0  0  0  0  0  0
   -2.9042   -3.2208    0.0000 N   0  0  0  0  0  0  0  0  0  0  0  0
   12.3500   -2.7333    0.0000 C   0  0  0  0  0  0  0  0  0  0  0  0
    2.5750   -2.7917    0.0000 N   0  0  0  0  0  0  0  0  0  0  0  0
    3.1875   -3.1458    0.0000 C   0  0  0  0  0  0  0  0  0  0  0  0
    3.1083   -1.7500    0.0000 N   0  0  0  0  0  0  0  0  0  0  0  0
    0.7375   -3.1500    0.0000 N   0  0  0  0  0  0  0  0  0  0  0  0
   -1.1042   -2.7958    0.0000 N   0  0  0  0  0  0  0  0  0  0  0  0
    4.4167   -3.1542    0.0000 N   0  0  0  0  0  0  0  0  0  0  0  0
    9.9375   -2.8000    0.0000 N   0  0  0  0  0  0  0  0  0  0  0  0
    2.5292   -2.1583    0.0000 C   0  0  0  0  0  0  0  0  0  0  0  0
   -0.4917   -3.1500    0.0000 C   0  0  0  0  0  0  0  0  0  0  0  0
    1.3458   -2.7917    0.0000 C   0  0  0  0  0  0  0  0  0  0  0  0
   12.3500   -2.0250    0.0000 C   0  0  0  0  0  0  0  0  0  0  0  0
    5.6417   -3.1542    0.0000 C   0  0  0  0  0  0  0  0  0  0  0  0
   10.5458   -3.1542    0.0000 C   0  0  0  0  0  0  0  0  0  0  0  0
    1.2708   -4.1833    0.0000 N   0  0  0  0  0  0  0  0  0  0  0  0
    5.0250   -2.8000    0.0000 C   0  0  0  0  0  0  0  0  0  0  0  0
    8.7083   -2.8000    0.0000 C   0  0  0  0  0  0  0  0  0  0  0  0
   -2.3292   -2.8042    0.0000 C   0  0  0  0  0  0  0  0  0  0  0  0
   11.7750   -5.9875    0.0000 C   0  0  0  0  0  0  0  0  0  0  0  0
   -3.4750   -2.8042    0.0000 C   0  0  0  0  0  0  0  0  0  0  0  0
    2.1958   -1.0625    0.0000 C   0  0  0  0  0  0  0  0  0  0  0  0
    1.3458   -2.0875    0.0000 C   0  0  0  0  0  0  0  0  0  0  0  0
    8.0958   -3.1542    0.0000 N   0  0  0  0  0  0  0  0  0  0  0  0
    0.1250   -4.2125    0.0000 C   0  0  0  0  0  0  0  0  0  0  0  0
   -0.4917   -3.8583    0.0000 C   0  0  0  0  0  0  0  0  0  0  0  0
    0.3625   -4.8792    0.0000 N   0  0  0  0  0  0  0  0  0  0  0  0
    7.4833   -2.7958    0.0000 C   0  0  0  0  0  0  0  0  0  0  0  0
   12.9625   -1.6708    0.0000 N   0  0  0  0  0  0  0  0  0  0  0  0
    6.2542   -2.7958    0.0000 N   0  0  0  0  0  0  0  0  0  0  0  0
    1.0667   -4.8583    0.0000 C   0  0  0  0  0  0  0  0  0  0  0  0
    2.9000   -1.0750    0.0000 C   0  0  0  0  0  0  0  0  0  0  0  0
   14.1917   -1.6708    0.0000 C   0  0  0  0  0  0  0  0  0  0  0  0
   11.1625   -6.3417    0.0000 N   0  0  0  0  0  0  0  0  0  0  0  0
    0.6875   -3.7792    0.0000 C   0  0  0  0  0  0  0  0  0  0  0  0
   11.1625   -2.0917    0.0000 O   0  0  0  0  0  0  0  0  0  0  0  0
    3.8042   -2.0833    0.0000 O   0  0  0  0  0  0  0  0  0  0  0  0
    9.3250   -3.8625    0.0000 O   0  0  0  0  0  0  0  0  0  0  0  0
    0.1250   -2.0875    0.0000 O   0  0  0  0  0  0  0  0  0  0  0  0
    1.9625   -3.8542    0.0000 O   0  0  0  0  0  0  0  0  0  0  0  0
   -1.7083   -3.8625    0.0000 O   0  0  0  0  0  0  0  0  0  0  0  0
    5.0250   -2.0917    0.0000 C   0  0  0  0  0  0  0  0  0  0  0  0
   11.7375   -1.6708    0.0000 O   0  0  0  0  0  0  0  0  0  0  0  0
    5.6417   -3.8625    0.0000 O   0  0  0  0  0  0  0  0  0  0  0  0
    8.7083   -2.0917    0.0000 C   0  0  0  0  0  0  0  0  0  0  0  0
   -4.0958   -3.1542    0.0000 O   0  0  0  0  0  0  0  0  0  0  0  0
    7.4833   -2.0875    0.0000 O   0  0  0  0  0  0  0  0  0  0  0  0
   14.1917   -0.9625    0.0000 O   0  0  0  0  0  0  0  0  0  0  0  0
   -2.5500   -2.1333    0.0000 C   0  0  0  0  0  0  0  0  0  0  0  0
   11.7750   -5.2792    0.0000 N   0  0  0  0  0  0  0  0  0  0  0  0
    6.8667   -3.1500    0.0000 C   0  0  0  0  0  0  0  0  0  0  0  0
   13.5750   -2.0250    0.0000 C   0  0  0  0  0  0  0  0  0  0  0  0
   12.3875   -6.3417    0.0000 N   0  0  0  0  0  0  0  0  0  0  0  0
   11.9958   -3.8250    0.0000 C   0  0  0  0  0  0  0  0  0  0  0  0
   -3.2542   -2.1333    0.0000 C   0  0  0  0  0  0  0  0  0  0  0  0
   14.8042   -2.0250    0.0000 N   0  0  0  0  0  0  0  0  0  0  0  0
    5.6417   -1.7375    0.0000 C   0  0  0  0  0  0  0  0  0  0  0  0
    6.8667   -1.0292    0.0000 C   0  0  0  0  0  0  0  0  0  0  0  0
    3.1875   -3.8542    0.0000 C   0  0  0  0  0  0  0  0  0  0  0  0
    5.6417   -1.0292    0.0000 C   0  0  0  0  0  0  0  0  0  0  0  0
    6.2542   -2.0917    0.0000 C   0  0  0  0  0  0  0  0  0  0  0  0
    6.8667   -1.7375    0.0000 C   0  0  0  0  0  0  0  0  0  0  0  0
    6.2542   -0.6750    0.0000 C   0  0  0  0  0  0  0  0  0  0  0  0
   12.9250   -3.1542    0.0000 C   0  0  0  0  0  0  0  0  0  0  0  0
    7.4833   -0.6750    0.0000 O   0  0  0  0  0  0  0  0  0  0  0  0
    3.8042   -4.2083    0.0000 O   0  0  0  0  0  0  0  0  0  0  0  0
   12.7042   -3.8250    0.0000 C   0  0  0  0  0  0  0  0  0  0  0  0
   10.5458   -3.8625    0.0000 C   0  0  0  0  0  0  0  0  0  0  0  0
    1.8458   -0.4417    0.0000 C   0  0  0  0  0  0  0  0  0  0  0  0
    9.3250   -1.7375    0.0000 C   0  0  0  0  0  0  0  0  0  0  0  0
    3.2667   -0.4667    0.0000 C   0  0  0  0  0  0  0  0  0  0  0  0
   11.1625   -4.9250    0.0000 C   0  0  0  0  0  0  0  0  0  0  0  0
   11.1625   -4.2167    0.0000 C   0  0  0  0  0  0  0  0  0  0  0  0
    9.3250   -1.0292    0.0000 C   0  0  0  0  0  0  0  0  0  0  0  0
    9.9375   -2.0917    0.0000 C   0  0  0  0  0  0  0  0  0  0  0  0
    2.2125    0.1625    0.0000 C   0  0  0  0  0  0  0  0  0  0  0  0
    2.9250    0.1542    0.0000 C   0  0  0  0  0  0  0  0  0  0  0  0
  3  2  1  0
  4 32  1  0
  5 17  1  0
  6 12  1  0
  7 15  1  0
  8 18  1  0
  9 16  1  0
 10 28  1  0
 11  2  1  0
 13 12  1  6
 13  5  1  0
 14 19  1  0
 21 15  1  1
 20 16  1  6
 26 17  1  1
 24 18  1  6
 19  4  2  0
 20  7  1  0
 21  6  1  0
 11 22  1  6
 23 39  1  0
 24  3  1  0
 25 44  1  0
 26 23  1  0
 27  8  1  0
 28  9  1  1
 29 59  1  0
 30 10  1  0
 31  4  1  0
 21 32  1  0
 27 33  1  1
 34 35  1  0
 20 35  1  0
 36 34  1  0
 37 33  1  0
 38 22  1  0
 39 60  1  0
 40 36  1  0
 41 31  2  0
 42 61  1  0
 43 29  2  0
 44 34  2  0
 45  3  2  0
 46  5  2  0
 47  8  2  0
 48  7  2  0
 49  6  2  0
 50  9  2  0
 26 51  1  0
 52 22  2  0
 53 23  2  0
 27 54  1  0
 55 30  2  0
 56 37  2  0
 57 42  2  0
 58 28  1  0
 59 81  1  0
 60 37  1  0
 61 38  1  0
 62 29  1  0
 63  2  1  0
 64 58  1  0
 65 42  1  0
 66 51  1  0
 67 71  2  0
 13 68  1  0
 69 66  1  0
 70 66  2  0
 71 70  1  0
 72 69  2  0
 73 11  1  0
 74 67  1  0
 75 68  1  0
 76 63  1  0
 24 77  1  0
 78 31  1  0
 79 54  1  0
 80 41  1  0
 81 82  1  0
 82 77  1  0
 83 79  1  0
 84 79  1  0
 85 78  2  0
 86 85  1  0
 73 76  1  0
 67 72  1  0
 14 41  1  0
 80 86  2  0
 40 25  2  0
 30 64  1  0
M  END
> <chembl_id>
CHEMBL1200516

> <chembl_pref_name>
GONADORELIN HYDROCHLORIDE
