
  SciTegic07291911532D

 32 36  0  0  0  0            999 V2000
   -6.8003   -1.9849    0.0000 C   0  0
   -6.0859   -2.3974    0.0000 C   0  0
   -5.3714   -1.9849    0.0000 N   0  0
   -5.3714   -1.1599    0.0000 C   0  0
   -4.6569   -0.7473    0.0000 C   0  0
   -4.6569   -2.3974    0.0000 C   0  0
   -3.9425   -1.9849    0.0000 C   0  0
   -3.9425   -1.1599    0.0000 N   0  0
   -3.2280   -0.7473    0.0000 C   0  0
   -2.5135   -1.9849    0.0000 C   0  0
   -2.5135   -1.1599    0.0000 C   0  0
   -1.7991   -0.7473    0.0000 C   0  0
   -1.7991   -2.3974    0.0000 C   0  0
   -1.0846   -1.9849    0.0000 C   0  0
   -1.0846   -1.1599    0.0000 C   0  0
   -0.3701   -2.3974    0.0000 N   0  0
    0.3443   -1.9849    0.0000 S   0  0
    1.0588   -2.3974    0.0000 C   0  0
    1.7733   -1.9849    0.0000 C   0  0
    1.7732   -1.1599    0.0000 N   0  0
    2.4876   -0.7473    0.0000 C   0  0
    2.4876   -2.3974    0.0000 C   0  0
    3.2022   -1.9849    0.0000 C   0  0
    3.2022   -1.1598    0.0000 C   0  0
    1.0588   -3.2224    0.0000 C   0  0
    1.7733   -3.6349    0.0000 C   0  0
    2.4876   -3.2224    0.0000 C   0  0
   -7.2128   -1.2705    0.0000 C   0  0
   -7.6253   -1.9849    0.0000 C   0  0
   -3.2210    0.0765    0.0000 O   0  0
   -0.1628   -1.3824    0.0000 O   0  0
    0.7796   -1.3161    0.0000 O   0  0
  1  2  1  0
  2  3  1  0
  3  4  1  0
  6  7  1  0
  7  8  1  0
  5  8  1  0
  3  6  1  0
  5  4  1  0
 10 11  2  0
  9 11  1  0
  9  8  1  0
 13 14  2  0
 14 15  1  0
 12 15  2  0
 10 13  1  0
 12 11  1  0
 16 17  1  0
 14 16  1  0
 18 19  1  0
 19 20  1  0
 17 18  1  0
 22 23  1  0
 23 24  2  0
 21 24  1  0
 19 22  2  0
 21 20  2  0
 25 26  1  0
 26 27  2  0
 18 25  2  0
 27 22  1  0
  1 28  1  0
 28 29  1  0
 29  1  1  0
  9 30  2  0
 17 31  2  0
 17 32  2  0
M  END
> <chembl_id>
CHEMBL4299940

> <chembl_pref_name>
MITAPIVAT
