
     RDKit          2D

 46 47  0  0  0  0  0  0  0  0999 V2000
  -10.1946    2.1455    0.0000 N   0  0  0  0  0  0  0  0  0  0  0  0
  -10.8621    1.6606    0.0000 C   0  0  0  0  0  0  0  0  0  0  0  0
  -10.6071    0.8760    0.0000 C   0  0  0  0  0  0  0  0  0  0  0  0
   -9.7821    0.8760    0.0000 C   0  0  0  0  0  0  0  0  0  0  0  0
   -9.5272    1.6606    0.0000 C   0  0  0  0  0  0  0  0  0  0  0  0
   -8.7426    1.9155    0.0000 C   0  0  0  0  0  0  0  0  0  0  0  0
   -8.5711    2.7225    0.0000 O   0  0  0  0  0  0  0  0  0  0  0  0
   -8.1295    1.3635    0.0000 N   0  0  0  0  0  0  0  0  0  0  0  0
   -7.3449    1.6184    0.0000 C   0  0  0  0  0  0  0  0  0  0  0  0
   -6.7318    1.0664    0.0000 C   0  0  0  0  0  0  0  0  0  0  0  0
   -7.1314    2.4153    0.0000 C   0  0  0  0  0  0  0  0  0  0  0  0
   -6.3345    2.6288    0.0000 C   0  0  0  0  0  0  0  0  0  0  0  0
   -7.7147    2.9987    0.0000 Cl  0  0  0  0  0  0  0  0  0  0  0  0
   -6.9033    0.2594    0.0000 C   0  0  0  0  0  0  0  0  0  0  0  0
   -6.2902   -0.2926    0.0000 C   0  0  0  0  0  0  0  0  0  0  0  0
   -5.5056   -0.0377    0.0000 C   0  0  0  0  0  0  0  0  0  0  0  0
   -5.3341    0.7692    0.0000 C   0  0  0  0  0  0  0  0  0  0  0  0
   -5.9472    1.3213    0.0000 O   0  0  0  0  0  0  0  0  0  0  0  0
   -4.5494    1.0242    0.0000 S   0  0  0  0  0  0  0  0  0  0  0  0
   -4.3779    1.8311    0.0000 C   0  0  0  0  0  0  0  0  0  0  0  0
   -4.8925   -0.5898    0.0000 O   0  0  0  0  0  0  0  0  0  0  0  0
   -6.4618   -1.0996    0.0000 O   0  0  0  0  0  0  0  0  0  0  0  0
   -7.6879    0.0045    0.0000 O   0  0  0  0  0  0  0  0  0  0  0  0
  -10.1946    2.9705    0.0000 C   0  0  0  0  0  0  0  0  0  0  0  0
  -11.0921    0.2086    0.0000 C   0  0  0  0  0  0  0  0  0  0  0  0
  -11.9171    0.2086    0.0000 C   0  0  0  0  0  0  0  0  0  0  0  0
  -12.3296   -0.5059    0.0000 C   0  0  0  0  0  0  0  0  0  0  0  0
   -5.1060   -1.3867    0.0000 C   0  0  0  0  0  0  0  0  0  0  0  0
   -4.5227   -1.9700    0.0000 O   0  0  0  0  0  0  0  0  0  0  0  0
   -5.9029   -1.6002    0.0000 C   0  0  0  0  0  0  0  0  0  0  0  0
   -6.1164   -2.3971    0.0000 C   0  0  0  0  0  0  0  0  0  0  0  0
   -6.9133   -2.6106    0.0000 C   0  0  0  0  0  0  0  0  0  0  0  0
   -7.1269   -3.4075    0.0000 C   0  0  0  0  0  0  0  0  0  0  0  0
   -7.9237   -3.6210    0.0000 C   0  0  0  0  0  0  0  0  0  0  0  0
   -8.1373   -4.4179    0.0000 C   0  0  0  0  0  0  0  0  0  0  0  0
   -8.9342   -4.6314    0.0000 C   0  0  0  0  0  0  0  0  0  0  0  0
   -9.1477   -5.4283    0.0000 C   0  0  0  0  0  0  0  0  0  0  0  0
   -9.9446   -5.6418    0.0000 C   0  0  0  0  0  0  0  0  0  0  0  0
  -10.1581   -6.4387    0.0000 C   0  0  0  0  0  0  0  0  0  0  0  0
  -10.9550   -6.6523    0.0000 C   0  0  0  0  0  0  0  0  0  0  0  0
  -11.1685   -7.4491    0.0000 C   0  0  0  0  0  0  0  0  0  0  0  0
  -11.9654   -7.6627    0.0000 C   0  0  0  0  0  0  0  0  0  0  0  0
  -12.1789   -8.4596    0.0000 C   0  0  0  0  0  0  0  0  0  0  0  0
  -12.9758   -8.6731    0.0000 C   0  0  0  0  0  0  0  0  0  0  0  0
   -6.5480    1.8319    0.0000 H   0  0  0  0  0  0  0  0  0  0  0  0
   -7.4463    0.6539    0.0000 H   0  0  0  0  0  0  0  0  0  0  0  0
  1  2  1  0
  2  3  1  0
  3  4  1  0
  4  5  1  0
  1  5  1  0
  5  6  1  6
  6  7  2  0
  6  8  1  0
  8  9  1  0
 10  9  1  0
  9 11  1  0
 11 12  1  0
 11 13  1  1
 10 14  1  0
 18 10  1  0
 14 15  1  0
 15 16  1  0
 16 17  1  0
 17 18  1  0
 17 19  1  6
 19 20  1  0
 16 21  1  6
 15 22  1  1
 14 23  1  1
  1 24  1  0
  3 25  1  1
 25 26  1  0
 26 27  1  0
 21 28  1  0
 28 29  2  0
 28 30  1  0
 30 31  1  0
 31 32  1  0
 32 33  1  0
 33 34  1  0
 34 35  1  0
 35 36  1  0
 36 37  1  0
 37 38  1  0
 38 39  1  0
 39 40  1  0
 40 41  1  0
 41 42  1  0
 42 43  1  0
 43 44  1  0
  9 45  1  1
 10 46  1  6
M  END
> <chembl_id>
CHEMBL1201289

> <chembl_pref_name>
CLINDAMYCIN PALMITATE
