
     RDKit          2D

 34 33  0  0  0  0  0  0  0  0999 V2000
    9.6696   -7.7411    0.0000 O   0  0  0  0  0  0  0  0  0  0  0  0
    3.8111   -2.9416    0.0000 C   0  0  0  0  0  0  0  0  0  0  0  0
    3.8099   -3.7690    0.0000 C   0  0  0  0  0  0  0  0  0  0  0  0
    4.5247   -4.1819    0.0000 C   0  0  0  0  0  0  0  0  0  0  0  0
    4.5229   -2.5289    0.0000 C   0  0  0  0  0  0  0  0  0  0  0  0
    5.2383   -2.9380    0.0000 C   0  0  0  0  0  0  0  0  0  0  0  0
    5.2371   -3.7711    0.0000 C   0  0  0  0  0  0  0  0  0  0  0  0
    5.9540   -4.1863    0.0000 N   0  0  0  0  0  0  0  0  0  0  0  0
    5.9564   -2.5202    0.0000 N   0  0  0  0  0  0  0  0  0  0  0  0
    6.6779   -2.9401    0.0000 C   0  0  0  0  0  0  0  0  0  0  0  0
    6.6748   -3.7752    0.0000 C   0  0  0  0  0  0  0  0  0  0  0  0
    7.3925   -4.1931    0.0000 N   0  0  0  0  0  0  0  0  0  0  0  0
    8.1179   -3.7805    0.0000 C   0  0  0  0  0  0  0  0  0  0  0  0
    8.1210   -2.9453    0.0000 N   0  0  0  0  0  0  0  0  0  0  0  0
    7.3987   -2.5228    0.0000 C   0  0  0  0  0  0  0  0  0  0  0  0
    7.4005   -1.6978    0.0000 O   0  0  0  0  0  0  0  0  0  0  0  0
    8.8303   -4.1966    0.0000 O   0  0  0  0  0  0  0  0  0  0  0  0
    5.9512   -5.0113    0.0000 C   0  0  0  0  0  0  0  0  0  0  0  0
    6.6643   -5.4262    0.0000 C   0  0  0  0  0  0  0  0  0  0  0  0
    6.6616   -6.2512    0.0000 C   0  0  0  0  0  0  0  0  0  0  0  0
    7.3802   -5.0161    0.0000 O   0  0  0  0  0  0  0  0  0  0  0  0
    5.9457   -6.6613    0.0000 O   0  0  0  0  0  0  0  0  0  0  0  0
    7.3747   -6.6661    0.0000 C   0  0  0  0  0  0  0  0  0  0  0  0
    7.3719   -7.4911    0.0000 C   0  0  0  0  0  0  0  0  0  0  0  0
    8.0905   -6.2560    0.0000 O   0  0  0  0  0  0  0  0  0  0  0  0
    8.0850   -7.9060    0.0000 O   0  0  0  0  0  0  0  0  0  0  0  0
    8.0792   -8.7292    0.0000 P   0  0  0  0  0  0  0  0  0  0  0  0
    7.2542   -8.7250    0.0000 O   0  0  0  0  0  0  0  0  0  0  0  0
    8.7917   -9.1417    0.0000 O   0  0  0  0  0  0  0  0  0  0  0  0
    7.8625   -9.5250    0.0000 O   0  0  0  0  0  0  0  0  0  0  0  0
    3.0965   -2.5293    0.0000 C   0  0  0  0  0  0  0  0  0  0  0  0
    3.0951   -4.1809    0.0000 C   0  0  0  0  0  0  0  0  0  0  0  0
   10.6042   -9.0208    0.0000 Na  0  0  0  0  0 15  0  0  0  0  0  0
   10.0179   -6.0268    0.0000 O   0  0  0  0  0  0  0  0  0  0  0  0
  3  4  1  0
 15 16  2  0
  4  7  2  0
 13 17  2  0
  6  9  1  0
  8 18  1  0
  7  8  1  0
 18 19  1  0
  8 11  1  0
 19 20  1  0
 10  9  2  0
 19 21  1  6
 10 11  1  0
 20 22  1  1
 20 23  1  0
  6  5  2  0
 23 24  1  0
  5  2  1  0
 23 25  1  6
  6  7  1  0
 24 26  1  0
  2  3  2  0
 26 27  1  0
 27 28  2  0
 10 15  1  0
 27 29  1  0
 11 12  2  0
 27 30  1  0
 12 13  1  0
  2 31  1  0
 13 14  1  0
  3 32  1  0
 14 15  1  0
M  CHG  2  29  -1  33   1
M  END
> <chembl_id>
CHEMBL3989697

> <chembl_pref_name>
RIBOFLAVIN 5'-PHOSPHATE SODIUM
