
     RDKit          2D

 33 36  0  0  1  0  0  0  0  0999 V2000
    2.1792    0.8458    0.0000 N   0  0  0  0  0  0  0  0  0  0  0  0
    2.1792    0.0833    0.0000 C   0  0  0  0  0  0  0  0  0  0  0  0
    1.4167    0.8458    0.0000 C   0  0  0  0  0  0  0  0  0  0  0  0
    1.4167    0.0833    0.0000 C   0  0  0  0  0  0  0  0  0  0  0  0
   -3.0083   -1.1167    0.0000 N   0  0  0  0  0  0  0  0  0  0  0  0
    2.9167    1.0750    0.0000 C   0  0  0  0  0  0  0  0  0  0  0  0
    2.9167   -0.1542    0.0000 S   0  0  0  0  0  0  0  0  0  0  0  0
   -2.0958   -1.1167    0.0000 C   0  0  0  0  0  0  0  0  0  0  0  0
    3.3625    0.4458    0.0000 C   0  0  0  0  0  0  0  0  0  0  0  0
    0.5167    0.5625    0.0000 N   0  0  0  0  0  0  0  0  0  0  0  0
   -3.8083   -0.8292    0.0000 C   0  0  0  0  0  0  0  0  0  0  0  0
    0.1250   -0.2792    0.0000 C   0  0  0  0  0  0  0  0  0  0  0  0
   -1.2083   -0.7417    0.0000 N   0  0  0  0  0  0  0  0  0  0  0  0
   -0.8333    0.0208    0.0000 C   0  0  0  0  0  0  0  0  0  0  0  0
    3.5417    1.5208    0.0000 C   0  0  0  0  0  0  0  0  0  0  0  0
   -4.2458   -1.6042    0.0000 N   0  0  0  0  0  0  0  0  0  0  0  0
    0.8917    1.3875    0.0000 O   0  0  0  0  0  0  0  0  0  0  0  0
   -1.6708   -1.8542    0.0000 O   0  0  0  0  0  0  0  0  0  0  0  0
   -4.2458   -0.1667    0.0000 O   0  0  0  0  0  0  0  0  0  0  0  0
    0.2917   -1.1042    0.0000 O   0  0  0  0  0  0  0  0  0  0  0  0
    3.7417    2.1000    0.0000 O   0  0  0  0  0  0  0  0  0  0  0  0
   -1.8583    0.4958    0.0000 C   0  0  0  0  0  0  0  0  0  0  0  0
   -3.0083   -1.9417    0.0000 C   0  0  0  0  0  0  0  0  0  0  0  0
    4.2792    1.4083    0.0000 O   0  0  0  0  0  0  0  0  0  0  0  0
   -3.6708   -2.1917    0.0000 C   0  0  0  0  0  0  0  0  0  0  0  0
    3.9667    0.8000    0.0000 C   0  0  0  0  0  0  0  0  0  0  0  0
    3.9542    0.0000    0.0000 C   0  0  0  0  0  0  0  0  0  0  0  0
   -1.8583    1.2583    0.0000 C   0  0  0  0  0  0  0  0  0  0  0  0
   -2.5208    0.1208    0.0000 C   0  0  0  0  0  0  0  0  0  0  0  0
   -3.1750    0.4958    0.0000 C   0  0  0  0  0  0  0  0  0  0  0  0
   -2.5000    1.6458    0.0000 C   0  0  0  0  0  0  0  0  0  0  0  0
   -3.1750    1.2750    0.0000 C   0  0  0  0  0  0  0  0  0  0  0  0
    2.0241   -0.9046    0.0000 H   0  0  0  0  0  0  0  0  0  0  0  0
  2  1  1  0
  3  1  1  0
  4  3  1  0
  5  8  1  0
  6  1  1  0
  7  2  1  0
  8 13  1  0
  9  6  1  0
  4 10  1  6
 11  5  1  0
 12 10  1  0
 14 13  1  6
 14 12  1  0
  6 15  1  1
 16 11  1  0
 17  3  2  0
 18  8  2  0
 19 11  2  0
 20 12  2  0
 21 15  2  0
 14 22  1  0
 23  5  1  0
 24 15  1  0
 25 23  1  0
 26  9  1  0
 27  9  1  0
 28 22  2  0
 29 22  1  0
 30 29  2  0
 31 28  1  0
 32 30  1  0
  7  9  1  0
  2  4  1  0
 31 32  2  0
 16 25  1  0
  2 33  1  1
M  END
> <chembl_id>
CHEMBL1537

> <chembl_pref_name>
AZLOCILLIN
