
     RDKit          2D

 32 36  0  0  0  0  0  0  0  0999 V2000
   -2.8454    0.5166    0.0000 C   0  0  0  0  0  0  0  0  0  0  0  0
   -3.2200   -0.2185    0.0000 C   0  0  0  0  0  0  0  0  0  0  0  0
   -2.7706   -0.9104    0.0000 C   0  0  0  0  0  0  0  0  0  0  0  0
   -1.9468   -0.8672    0.0000 C   0  0  0  0  0  0  0  0  0  0  0  0
   -1.5722   -0.1322    0.0000 C   0  0  0  0  0  0  0  0  0  0  0  0
   -2.0216    0.5598    0.0000 C   0  0  0  0  0  0  0  0  0  0  0  0
   -3.1452   -1.6455    0.0000 Cl  0  0  0  0  0  0  0  0  0  0  0  0
   -1.4974   -1.5591    0.0000 C   0  0  0  0  0  0  0  0  0  0  0  0
   -0.7754    0.0813    0.0000 N   0  0  0  0  0  0  0  0  0  0  0  0
   -0.7322    0.9052    0.0000 C   0  0  0  0  0  0  0  0  0  0  0  0
   -1.5023    1.2009    0.0000 N   0  0  0  0  0  0  0  0  0  0  0  0
   -0.0403    1.3545    0.0000 C   0  0  0  0  0  0  0  0  0  0  0  0
    0.6867    2.4740    0.0000 C   0  0  0  0  0  0  0  0  0  0  0  0
   -0.1102    2.6876    0.0000 C   0  0  0  0  0  0  0  0  0  0  0  0
   -0.5595    1.9957    0.0000 C   0  0  0  0  0  0  0  0  0  0  0  0
    0.7299    1.6502    0.0000 N   0  0  0  0  0  0  0  0  0  0  0  0
    1.3710    1.1310    0.0000 C   0  0  0  0  0  0  0  0  0  0  0  0
    2.1247    1.4665    0.0000 O   0  0  0  0  0  0  0  0  0  0  0  0
    1.2420    0.3161    0.0000 C   0  0  0  0  0  0  0  0  0  0  0  0
    0.4718    0.0205    0.0000 C   0  0  0  0  0  0  0  0  0  0  0  0
    0.3427   -0.7944    0.0000 C   0  0  0  0  0  0  0  0  0  0  0  0
    0.9838   -1.3136    0.0000 C   0  0  0  0  0  0  0  0  0  0  0  0
    1.7540   -1.0179    0.0000 C   0  0  0  0  0  0  0  0  0  0  0  0
    1.8831   -0.2031    0.0000 C   0  0  0  0  0  0  0  0  0  0  0  0
   -0.4275   -1.0900    0.0000 O   0  0  0  0  0  0  0  0  0  0  0  0
   -1.0686   -0.5708    0.0000 C   0  0  0  0  0  0  0  0  0  0  0  0
    2.6533    0.0926    0.0000 N   0  0  0  0  0  0  0  0  0  0  0  0
    2.8668    0.8895    0.0000 N   0  0  0  0  0  0  0  0  0  0  0  0
    3.3452   -0.3567    0.0000 N   0  0  0  0  0  0  0  0  0  0  0  0
    3.9863    0.1625    0.0000 C   0  0  0  0  0  0  0  0  0  0  0  0
    3.6907    0.9326    0.0000 C   0  0  0  0  0  0  0  0  0  0  0  0
    0.2513    0.5828    0.0000 C   0  0  0  0  0  0  0  0  0  0  0  0
  1  2  2  0
  2  3  1  0
  3  4  2  0
  4  5  1  0
  5  6  2  0
  1  6  1  0
  3  7  1  0
  4  8  1  0
  9 10  2  0
 10 11  1  0
  5  9  1  0
  6 11  1  0
 12 10  1  0
 13 14  1  0
 14 15  1  0
 13 16  1  0
 15 12  1  0
 12 16  1  0
 16 17  1  0
 17 18  2  0
 17 19  1  0
 20 21  2  0
 21 22  1  0
 22 23  2  0
 23 24  1  0
 19 20  1  0
 19 24  2  0
 21 25  1  0
 25 26  1  0
 24 27  1  0
 29 30  2  0
 30 31  1  0
 28 31  2  0
 28 27  1  0
 27 29  1  0
 12 32  1  1
M  END
> <chembl_id>
CHEMBL4297590

> <chembl_pref_name>
DARIDOREXANT
