
     RDKit          2D

 36 36  0  0  0  0  0  0  0  0999 V2000
    3.7792    0.1333    0.0000 C   0  0  0  0  0  0  0  0  0  0  0  0
    3.4375    0.2833    0.0000 C   0  0  0  0  0  0  0  0  0  0  0  0
    3.7167   -0.2167    0.0000 C   0  0  0  0  0  0  0  0  0  0  0  0
    4.0167   -0.4542    0.0000 C   0  0  0  0  0  0  0  0  0  0  0  0
    3.3917    0.6583    0.0000 C   0  0  0  0  0  0  0  0  0  0  0  0
    3.1375    0.0625    0.0000 C   0  0  0  0  0  0  0  0  0  0  0  0
    2.7542    0.5833    0.0000 C   0  0  0  0  0  0  0  0  0  0  0  0
    3.0542    0.8083    0.0000 C   0  0  0  0  0  0  0  0  0  0  0  0
    2.7917    0.2125    0.0000 C   0  0  0  0  0  0  0  0  0  0  0  0
    2.4167    0.7375    0.0000 O   0  0  0  0  0  0  0  0  0  0  0  0
    3.9000    0.4958    0.0000 C   0  0  0  0  0  0  0  0  0  0  0  0
    4.1417    0.0458    0.0000 C   0  0  0  0  0  0  0  0  0  0  0  0
   -4.3000   -0.1750    0.0000 O   0  0  0  0  0  0  0  0  0  0  0  0
    0.4917    0.5208    0.0000 O   0  0  0  0  0  0  0  0  0  0  0  0
   -0.4458    0.2375    0.0000 O   0  0  0  0  0  0  0  0  0  0  0  0
   -1.4333    0.3208    0.0000 O   0  0  0  0  0  0  0  0  0  0  0  0
   -2.3708    0.0208    0.0000 O   0  0  0  0  0  0  0  0  0  0  0  0
   -3.3500    0.1083    0.0000 O   0  0  0  0  0  0  0  0  0  0  0  0
    1.4750    0.4458    0.0000 O   0  0  0  0  0  0  0  0  0  0  0  0
    3.8625   -0.8000    0.0000 C   0  0  0  0  0  0  0  0  0  0  0  0
    4.3417   -0.6417    0.0000 C   0  0  0  0  0  0  0  0  0  0  0  0
    4.2167   -0.1500    0.0000 C   0  0  0  0  0  0  0  0  0  0  0  0
   -3.9958    0.0375    0.0000 C   0  0  0  0  0  0  0  0  0  0  0  0
    2.1125    0.5208    0.0000 C   0  0  0  0  0  0  0  0  0  0  0  0
   -3.6583   -0.0917    0.0000 C   0  0  0  0  0  0  0  0  0  0  0  0
   -1.0958    0.1625    0.0000 C   0  0  0  0  0  0  0  0  0  0  0  0
    0.8292    0.3833    0.0000 C   0  0  0  0  0  0  0  0  0  0  0  0
   -1.7333    0.0958    0.0000 C   0  0  0  0  0  0  0  0  0  0  0  0
   -2.0708    0.2458    0.0000 C   0  0  0  0  0  0  0  0  0  0  0  0
    1.1292    0.6000    0.0000 C   0  0  0  0  0  0  0  0  0  0  0  0
   -2.7208    0.1833    0.0000 C   0  0  0  0  0  0  0  0  0  0  0  0
   -3.0208   -0.0292    0.0000 C   0  0  0  0  0  0  0  0  0  0  0  0
    0.1917    0.3083    0.0000 C   0  0  0  0  0  0  0  0  0  0  0  0
   -0.1458    0.4583    0.0000 C   0  0  0  0  0  0  0  0  0  0  0  0
    1.7750    0.6625    0.0000 C   0  0  0  0  0  0  0  0  0  0  0  0
   -0.7833    0.3833    0.0000 C   0  0  0  0  0  0  0  0  0  0  0  0
  2  1  1  0
  3  1  1  0
  4  3  1  0
  5  2  1  0
  6  2  2  0
  7  9  2  0
  8  5  2  0
  9  6  1  0
 10  7  1  0
 11  1  1  0
 12  1  1  0
 13 23  1  0
 14 27  1  0
 15 34  1  0
 16 26  1  0
 17 29  1  0
 18 32  1  0
 19 35  1  0
 20  4  1  0
 21  4  1  0
 22  4  1  0
 23 25  1  0
 24 10  1  0
 25 18  1  0
 26 36  1  0
 27 30  1  0
 28 16  1  0
 29 28  1  0
 30 19  1  0
 31 17  1  0
 32 31  1  0
 33 14  1  0
 34 33  1  0
 35 24  1  0
 36 15  1  0
  7  8  1  0
M  END
> <chembl_id>
CHEMBL2104613

> <chembl_pref_name>
OCTOXYNOL 9
