
     RDKit          2D

106110  0  0  0  0  0  0  0  0999 V2000
    3.8583   -7.8000    0.0000 C   0  0  0  0  0  0  0  0  0  0  0  0
    3.8583   -7.0917    0.0000 O   0  0  0  0  0  0  0  0  0  0  0  0
    4.4708   -8.1542    0.0000 O   0  0  0  0  0  0  0  0  0  0  0  0
    3.2417   -8.1542    0.0000 C   0  0  0  0  0  0  0  0  0  0  0  0
   10.9292   -5.0000    0.0000 N   0  0  0  0  0  0  0  0  0  0  0  0
   10.2250   -4.6875    0.0000 C   0  0  0  0  0  0  0  0  0  0  0  0
   12.2000   -4.7208    0.0000 C   0  0  0  0  0  0  0  0  0  0  0  0
    2.5333   -4.7208    0.0000 C   0  0  0  0  0  0  0  0  0  0  0  0
   11.5375   -5.0000    0.0000 C   0  0  0  0  0  0  0  0  0  0  0  0
    0.6792   -5.0417    0.0000 C   0  0  0  0  0  0  0  0  0  0  0  0
    8.2667   -5.0000    0.0000 C   0  0  0  0  0  0  0  0  0  0  0  0
   -1.2458   -4.7208    0.0000 C   0  0  0  0  0  0  0  0  0  0  0  0
    4.4292   -5.0417    0.0000 C   0  0  0  0  0  0  0  0  0  0  0  0
   -3.1125   -5.0417    0.0000 C   0  0  0  0  0  0  0  0  0  0  0  0
    6.2875   -4.6292    0.0000 C   0  0  0  0  0  0  0  0  0  0  0  0
    1.2667   -4.7208    0.0000 N   0  0  0  0  0  0  0  0  0  0  0  0
    1.9292   -5.0417    0.0000 C   0  0  0  0  0  0  0  0  0  0  0  0
    3.1583   -5.0417    0.0000 N   0  0  0  0  0  0  0  0  0  0  0  0
   -2.4875   -4.7208    0.0000 N   0  0  0  0  0  0  0  0  0  0  0  0
   -0.6125   -5.0417    0.0000 N   0  0  0  0  0  0  0  0  0  0  0  0
    6.9833   -5.0000    0.0000 N   0  0  0  0  0  0  0  0  0  0  0  0
    8.9292   -4.6875    0.0000 N   0  0  0  0  0  0  0  0  0  0  0  0
   12.8708   -5.0000    0.0000 N   0  0  0  0  0  0  0  0  0  0  0  0
    4.9833   -4.7208    0.0000 N   0  0  0  0  0  0  0  0  0  0  0  0
   -1.8417   -5.0417    0.0000 C   0  0  0  0  0  0  0  0  0  0  0  0
    3.7875   -4.7208    0.0000 C   0  0  0  0  0  0  0  0  0  0  0  0
    0.0250   -4.7208    0.0000 C   0  0  0  0  0  0  0  0  0  0  0  0
    7.6208   -4.6875    0.0000 C   0  0  0  0  0  0  0  0  0  0  0  0
    9.6417   -5.0000    0.0000 C   0  0  0  0  0  0  0  0  0  0  0  0
   -3.7667   -4.7208    0.0000 C   0  0  0  0  0  0  0  0  0  0  0  0
   11.4958   -6.8542    0.0000 C   0  0  0  0  0  0  0  0  0  0  0  0
    7.3917   -6.8542    0.0000 C   0  0  0  0  0  0  0  0  0  0  0  0
   14.2208   -5.0000    0.0000 C   0  0  0  0  0  0  0  0  0  0  0  0
   -4.4042   -5.0417    0.0000 N   0  0  0  0  0  0  0  0  0  0  0  0
    5.6208   -5.0417    0.0000 C   0  0  0  0  0  0  0  0  0  0  0  0
   -5.0458   -4.6875    0.0000 C   0  0  0  0  0  0  0  0  0  0  0  0
   13.4958   -4.7208    0.0000 C   0  0  0  0  0  0  0  0  0  0  0  0
   11.4958   -6.2833    0.0000 N   0  0  0  0  0  0  0  0  0  0  0  0
   10.2250   -3.9625    0.0000 O   0  0  0  0  0  0  0  0  0  0  0  0
   12.2000   -3.9625    0.0000 O   0  0  0  0  0  0  0  0  0  0  0  0
   -3.7667   -3.4583    0.0000 C   0  0  0  0  0  0  0  0  0  0  0  0
    2.5333   -4.0333    0.0000 O   0  0  0  0  0  0  0  0  0  0  0  0
   -3.1125   -5.7208    0.0000 O   0  0  0  0  0  0  0  0  0  0  0  0
   -1.2458   -4.0000    0.0000 O   0  0  0  0  0  0  0  0  0  0  0  0
    8.2667   -5.7750    0.0000 O   0  0  0  0  0  0  0  0  0  0  0  0
    4.4292   -5.7208    0.0000 O   0  0  0  0  0  0  0  0  0  0  0  0
    0.6792   -5.7625    0.0000 O   0  0  0  0  0  0  0  0  0  0  0  0
    6.2875   -3.8167    0.0000 O   0  0  0  0  0  0  0  0  0  0  0  0
   -1.9750   -3.1292    0.0000 C   0  0  0  0  0  0  0  0  0  0  0  0
   -1.8708   -5.9833    0.0000 C   0  0  0  0  0  0  0  0  0  0  0  0
    3.7875   -3.8667    0.0000 C   0  0  0  0  0  0  0  0  0  0  0  0
   -3.1083   -3.1292    0.0000 C   0  0  0  0  0  0  0  0  0  0  0  0
    0.0250   -3.9083    0.0000 C   0  0  0  0  0  0  0  0  0  0  0  0
   -2.5458   -3.4583    0.0000 C   0  0  0  0  0  0  0  0  0  0  0  0
    7.3917   -6.1875    0.0000 O   0  0  0  0  0  0  0  0  0  0  0  0
   14.2208   -5.8333    0.0000 O   0  0  0  0  0  0  0  0  0  0  0  0
    7.6208   -3.6917    0.0000 C   0  0  0  0  0  0  0  0  0  0  0  0
    1.1917   -2.5750    0.0000 N   0  0  0  0  0  0  0  0  0  0  0  0
   -5.0458   -4.0000    0.0000 O   0  0  0  0  0  0  0  0  0  0  0  0
   10.8500   -7.2625    0.0000 N   0  0  0  0  0  0  0  0  0  0  0  0
    6.7875   -7.2208    0.0000 N   0  0  0  0  0  0  0  0  0  0  0  0
   -1.9750   -2.4792    0.0000 C   0  0  0  0  0  0  0  0  0  0  0  0
   12.0583   -7.2625    0.0000 N   0  0  0  0  0  0  0  0  0  0  0  0
    8.0167   -7.2208    0.0000 N   0  0  0  0  0  0  0  0  0  0  0  0
   -2.5083   -2.1250    0.0000 C   0  0  0  0  0  0  0  0  0  0  0  0
   14.8042   -4.6667    0.0000 N   0  0  0  0  0  0  0  0  0  0  0  0
   10.6833   -5.6083    0.0000 C   0  0  0  0  0  0  0  0  0  0  0  0
    4.3875   -3.4833    0.0000 C   0  0  0  0  0  0  0  0  0  0  0  0
   -1.2458   -6.3333    0.0000 C   0  0  0  0  0  0  0  0  0  0  0  0
   -3.1083   -2.4792    0.0000 C   0  0  0  0  0  0  0  0  0  0  0  0
   -0.1208   -6.9625    0.0000 C   0  0  0  0  0  0  0  0  0  0  0  0
    5.5583   -2.7625    0.0000 C   0  0  0  0  0  0  0  0  0  0  0  0
    0.5917   -3.5625    0.0000 C   0  0  0  0  0  0  0  0  0  0  0  0
    0.4542   -7.2958    0.0000 Cl  0  0  0  0  0  0  0  0  0  0  0  0
    1.9292   -5.7625    0.0000 C   0  0  0  0  0  0  0  0  0  0  0  0
    4.9417   -3.8167    0.0000 C   0  0  0  0  0  0  0  0  0  0  0  0
   -1.2458   -6.9625    0.0000 C   0  0  0  0  0  0  0  0  0  0  0  0
   -0.6417   -6.0000    0.0000 C   0  0  0  0  0  0  0  0  0  0  0  0
    4.3875   -2.7625    0.0000 C   0  0  0  0  0  0  0  0  0  0  0  0
   -0.1208   -6.3333    0.0000 C   0  0  0  0  0  0  0  0  0  0  0  0
   -0.6625   -7.2625    0.0000 C   0  0  0  0  0  0  0  0  0  0  0  0
    5.5583   -3.4833    0.0000 C   0  0  0  0  0  0  0  0  0  0  0  0
    4.9833   -2.4375    0.0000 C   0  0  0  0  0  0  0  0  0  0  0  0
   11.7875   -5.6292    0.0000 C   0  0  0  0  0  0  0  0  0  0  0  0
    6.2250   -2.4375    0.0000 O   0  0  0  0  0  0  0  0  0  0  0  0
    2.5167   -6.0958    0.0000 O   0  0  0  0  0  0  0  0  0  0  0  0
    0.5917   -2.9292    0.0000 C   0  0  0  0  0  0  0  0  0  0  0  0
   11.2333   -6.0000    0.0000 C   0  0  0  0  0  0  0  0  0  0  0  0
    9.6417   -5.8583    0.0000 C   0  0  0  0  0  0  0  0  0  0  0  0
    8.2250   -3.3333    0.0000 C   0  0  0  0  0  0  0  0  0  0  0  0
   -5.6542   -5.0417    0.0000 C   0  0  0  0  0  0  0  0  0  0  0  0
    1.7625   -2.9292    0.0000 C   0  0  0  0  0  0  0  0  0  0  0  0
    5.6208   -5.8167    0.0000 C   0  0  0  0  0  0  0  0  0  0  0  0
   13.4958   -3.9625    0.0000 C   0  0  0  0  0  0  0  0  0  0  0  0
   -1.4083   -3.4417    0.0000 C   0  0  0  0  0  0  0  0  0  0  0  0
    6.2250   -6.8542    0.0000 C   0  0  0  0  0  0  0  0  0  0  0  0
   10.2250   -6.8875    0.0000 C   0  0  0  0  0  0  0  0  0  0  0  0
   -1.4083   -2.1250    0.0000 C   0  0  0  0  0  0  0  0  0  0  0  0
    1.1917   -3.9083    0.0000 C   0  0  0  0  0  0  0  0  0  0  0  0
   10.2250   -6.1667    0.0000 C   0  0  0  0  0  0  0  0  0  0  0  0
    6.2250   -6.0958    0.0000 C   0  0  0  0  0  0  0  0  0  0  0  0
    8.8667   -3.6917    0.0000 C   0  0  0  0  0  0  0  0  0  0  0  0
    8.2250   -2.5750    0.0000 C   0  0  0  0  0  0  0  0  0  0  0  0
    1.7625   -3.5625    0.0000 C   0  0  0  0  0  0  0  0  0  0  0  0
   -0.8000   -3.1292    0.0000 C   0  0  0  0  0  0  0  0  0  0  0  0
   -0.8000   -2.4792    0.0000 C   0  0  0  0  0  0  0  0  0  0  0  0
  2  1  2  0
  3  1  1  0
  4  1  1  0
  6  5  1  0
  9  7  1  6
  8 18  1  0
  9  5  1  0
 10 16  1  0
 11 22  1  0
 12 20  1  0
 13 24  1  0
 14 19  1  0
 15 21  1  0
 16 17  1  0
 17  8  1  0
 18 26  1  0
 19 25  1  0
 20 27  1  0
 21 28  1  0
 22 29  1  0
 23  7  1  0
 24 35  1  0
 25 12  1  0
 26 13  1  0
 27 10  1  0
 28 11  1  0
 29  6  1  0
 30 14  1  0
 31 60  1  0
 32 61  1  0
 33 37  1  0
 34 30  1  0
 35 15  1  0
 36 34  1  0
 37 23  1  0
 38 31  2  0
 39  6  2  0
 40  7  2  0
 30 41  1  6
 42  8  2  0
 43 14  2  0
 44 12  2  0
 45 11  2  0
 46 13  2  0
 47 10  2  0
 48 15  2  0
 49 54  1  0
 25 50  1  1
 26 51  1  1
 52 41  1  0
 27 53  1  6
 54 52  2  0
 55 32  2  0
 56 33  2  0
 28 57  1  1
 58 87  2  0
 59 36  2  0
 60 97  1  0
 61 96  1  0
 62 65  1  0
 63 31  1  0
 64 32  1  0
 65 70  2  0
 66 33  1  0
 67  5  1  0
 68 51  1  0
 69 50  1  0
 70 52  1  0
 71 80  2  0
 72 83  1  0
 73 53  1  0
 74 71  1  0
 17 75  1  6
 76 68  2  0
 77 69  1  0
 78 69  2  0
 79 68  1  0
 80 78  1  0
 81 77  2  0
 82 76  1  0
 83 79  2  0
 84  9  1  0
 85 72  1  0
 86 75  1  0
 87 73  1  0
 88 67  1  0
 29 89  1  6
 90 57  1  0
 91 36  1  0
 92104  2  0
 35 93  1  1
 37 94  1  6
 95 49  1  0
 96101  1  0
 97100  1  0
 98 62  1  0
 99 73  2  0
100 89  1  0
101 93  1  0
102 90  1  0
103 90  1  0
104 99  1  0
105 95  2  0
106 98  2  0
 84 88  1  0
 82 72  2  0
 58 92  1  0
 81 71  1  0
 49 62  2  0
105106  1  0
M  END
> <chembl_id>
CHEMBL2103735

> <chembl_pref_name>
CETRORELIX ACETATE
