
     RDKit          2D

 34 36  0  0  1  0  0  0  0  0999 V2000
   -2.7708   -0.4125    0.0000 C   0  0  0  0  0  0  0  0  0  0  0  0
   -2.7708    0.1750    0.0000 C   0  0  0  0  0  0  0  0  0  0  0  0
   -3.7625   -0.4125    0.0000 N   0  0  0  0  0  0  0  0  0  0  0  0
   -3.2625   -0.6917    0.0000 C   0  0  0  0  0  0  0  0  0  0  0  0
   -3.2833    0.4625    0.0000 N   0  0  0  0  0  0  0  0  0  0  0  0
   -2.2833   -0.6917    0.0000 N   0  0  0  0  0  0  0  0  0  0  0  0
   -3.7625    0.1750    0.0000 C   0  0  0  0  0  0  0  0  0  0  0  0
   -2.2833    0.4625    0.0000 N   0  0  0  0  0  0  0  0  0  0  0  0
    1.1500    0.7000    0.0000 C   0  0  0  0  0  0  0  0  0  0  0  0
    1.6417    0.4208    0.0000 N   0  0  0  0  0  0  0  0  0  0  0  0
   -1.7875   -0.4125    0.0000 C   0  0  0  0  0  0  0  0  0  0  0  0
    2.4417    1.1083    0.0000 C   0  0  0  0  0  0  0  0  0  0  0  0
   -2.2833   -1.2792    0.0000 C   0  0  0  0  0  0  0  0  0  0  0  0
    2.1250    0.7000    0.0000 C   0  0  0  0  0  0  0  0  0  0  0  0
    3.1750   -0.3542    0.0000 C   0  0  0  0  0  0  0  0  0  0  0  0
   -3.2625   -1.2792    0.0000 O   0  0  0  0  0  0  0  0  0  0  0  0
    0.6542    0.4208    0.0000 C   0  0  0  0  0  0  0  0  0  0  0  0
   -1.7875    0.1750    0.0000 C   0  0  0  0  0  0  0  0  0  0  0  0
    3.0167    1.1083    0.0000 O   0  0  0  0  0  0  0  0  0  0  0  0
    1.1500    1.2625    0.0000 O   0  0  0  0  0  0  0  0  0  0  0  0
   -1.3000   -0.1167    0.0000 C   0  0  0  0  0  0  0  0  0  0  0  0
   -0.8208   -0.4292    0.0000 N   0  0  0  0  0  0  0  0  0  0  0  0
    3.5167    0.1000    0.0000 O   0  0  0  0  0  0  0  0  0  0  0  0
    2.2500    1.6083    0.0000 O   0  0  0  0  0  0  0  0  0  0  0  0
   -4.2708    0.4625    0.0000 N   0  0  0  0  0  0  0  0  0  0  0  0
   -1.7875   -1.5667    0.0000 O   0  0  0  0  0  0  0  0  0  0  0  0
    3.1750   -0.9375    0.0000 O   0  0  0  0  0  0  0  0  0  0  0  0
    2.6250    0.4208    0.0000 C   0  0  0  0  0  0  0  0  0  0  0  0
    0.6542   -0.1417    0.0000 C   0  0  0  0  0  0  0  0  0  0  0  0
    0.1792    0.7333    0.0000 C   0  0  0  0  0  0  0  0  0  0  0  0
   -0.3083   -0.1667    0.0000 C   0  0  0  0  0  0  0  0  0  0  0  0
    2.6167   -0.1542    0.0000 C   0  0  0  0  0  0  0  0  0  0  0  0
   -0.3083    0.4458    0.0000 C   0  0  0  0  0  0  0  0  0  0  0  0
    0.1667   -0.4292    0.0000 C   0  0  0  0  0  0  0  0  0  0  0  0
  2  1  2  0
  3  4  1  0
  4  1  1  0
  5  2  1  0
  6  1  1  0
  7  3  2  0
  8  2  1  0
  9 17  1  0
 10  9  1  0
 11  6  1  0
 12 14  1  0
 13  6  1  0
 14 10  1  6
 15 32  1  0
 16  4  2  0
 17 29  2  0
 18 11  1  0
 19 12  1  0
 20  9  2  0
 11 21  1  6
 22 21  1  0
 23 15  1  0
 24 12  2  0
 25  7  1  0
 26 13  2  0
 27 15  2  0
 28 14  1  0
 29 34  1  0
 30 33  2  0
 31 22  1  0
 32 28  1  0
 33 31  1  0
 34 31  2  0
  8 18  1  0
  5  7  1  0
 30 17  1  0
M  END
> <chembl_id>
CHEMBL1908841

> <chembl_pref_name>
LEVOLEUCOVORIN
