
     RDKit          2D

 52 56  0  0  0  0  0  0  0  0999 V2000
    1.5875   -2.2875    0.0000 I   0  0  0  0  0  0  0  0  0  0  0  0
   -0.2583   -1.7250    0.0000 C   0  0  0  0  0  0  0  0  0  0  0  0
   -0.9583   -1.7250    0.0000 C   0  0  0  0  0  0  0  0  0  0  0  0
    0.1042   -2.3292    0.0000 C   0  0  0  0  0  0  0  0  0  0  0  0
    0.8125   -2.3375    0.0000 N   0  0  0  0  0  0  0  0  0  0  0  0
   -1.2833   -6.2250    0.0000 N   0  0  0  0  0  0  0  0  0  0  0  0
   -0.0583   -6.2250    0.0000 C   0  0  0  0  0  0  0  0  0  0  0  0
   -0.6708   -5.8667    0.0000 C   0  0  0  0  0  0  0  0  0  0  0  0
   -1.3125   -1.1167    0.0000 C   0  0  0  0  0  0  0  0  0  0  0  0
    0.1042   -1.1125    0.0000 C   0  0  0  0  0  0  0  0  0  0  0  0
    1.7750   -5.8625    0.0000 O   0  0  0  0  0  0  0  0  0  0  0  0
    1.1625   -6.2167    0.0000 C   0  0  0  0  0  0  0  0  0  0  0  0
   -1.7333   -2.8042    0.0000 O   0  0  0  0  0  0  0  0  0  0  0  0
    0.5500   -5.8667    0.0000 C   0  0  0  0  0  0  0  0  0  0  0  0
   -0.0583   -6.9292    0.0000 C   0  0  0  0  0  0  0  0  0  0  0  0
    1.7667   -5.1542    0.0000 C   0  0  0  0  0  0  0  0  0  0  0  0
   -0.9583   -0.5000    0.0000 C   0  0  0  0  0  0  0  0  0  0  0  0
   -0.2500   -0.5000    0.0000 C   0  0  0  0  0  0  0  0  0  0  0  0
    1.1625   -6.9292    0.0000 C   0  0  0  0  0  0  0  0  0  0  0  0
    0.5500   -7.2792    0.0000 C   0  0  0  0  0  0  0  0  0  0  0  0
    0.1250   -3.5125    0.0000 C   0  0  0  0  0  0  0  0  0  0  0  0
    1.1667   -1.7250    0.0000 C   0  0  0  0  0  0  0  0  0  0  0  0
   -1.2833   -6.9292    0.0000 C   0  0  0  0  0  0  0  0  0  0  0  0
   -0.3208   -5.2542    0.0000 C   0  0  0  0  0  0  0  0  0  0  0  0
    1.1542   -4.8042    0.0000 C   0  0  0  0  0  0  0  0  0  0  0  0
    2.3792   -4.8042    0.0000 C   0  0  0  0  0  0  0  0  0  0  0  0
    0.8125   -1.1125    0.0000 C   0  0  0  0  0  0  0  0  0  0  0  0
    1.1500   -4.1000    0.0000 C   0  0  0  0  0  0  0  0  0  0  0  0
   -0.6708   -7.2875    0.0000 C   0  0  0  0  0  0  0  0  0  0  0  0
   -1.3750   -3.4167    0.0000 C   0  0  0  0  0  0  0  0  0  0  0  0
    2.3792   -4.0917    0.0000 C   0  0  0  0  0  0  0  0  0  0  0  0
   -2.0208   -1.1167    0.0000 O   0  0  0  0  0  0  0  0  0  0  0  0
   -0.6708   -4.6417    0.0000 C   0  0  0  0  0  0  0  0  0  0  0  0
    1.7667   -3.7417    0.0000 C   0  0  0  0  0  0  0  0  0  0  0  0
   -1.3125    0.1208    0.0000 O   0  0  0  0  0  0  0  0  0  0  0  0
    0.8042   -3.0417    0.0000 C   0  0  0  0  0  0  0  0  0  0  0  0
    1.4250   -2.6917    0.0000 C   0  0  0  0  0  0  0  0  0  0  0  0
   -1.6375   -5.6042    0.0000 C   0  0  0  0  0  0  0  0  0  0  0  0
   -1.9875   -6.2250    0.0000 C   0  0  0  0  0  0  0  0  0  0  0  0
    1.7792   -7.2792    0.0000 O   0  0  0  0  0  0  0  0  0  0  0  0
   -1.7333   -4.0292    0.0000 C   0  0  0  0  0  0  0  0  0  0  0  0
   -0.6708   -3.4167    0.0000 C   0  0  0  0  0  0  0  0  0  0  0  0
   -1.3750   -4.6417    0.0000 C   0  0  0  0  0  0  0  0  0  0  0  0
   -0.3125   -4.0292    0.0000 C   0  0  0  0  0  0  0  0  0  0  0  0
    2.9917   -5.1542    0.0000 O   0  0  0  0  0  0  0  0  0  0  0  0
   -2.3750   -1.7292    0.0000 C   0  0  0  0  0  0  0  0  0  0  0  0
   -2.0208    0.1208    0.0000 C   0  0  0  0  0  0  0  0  0  0  0  0
    2.3917   -6.9292    0.0000 C   0  0  0  0  0  0  0  0  0  0  0  0
    3.6042   -4.8000    0.0000 C   0  0  0  0  0  0  0  0  0  0  0  0
   -1.0333   -5.2542    0.0000 H   0  0  0  0  0  0  0  0  0  0  0  0
   -0.5083   -2.6792    0.0000 H   0  0  0  0  0  0  0  0  0  0  0  0
   -2.6583   -6.1292    0.0000 I   0  0  0  0  0  0  0  0  0  0  0  0
  3  2  1  0
  4  2  1  0
  5  4  1  0
  6  8  1  0
  7 14  1  0
  8 24  1  0
  9  3  2  0
 10  2  2  0
 11 16  1  0
 12 11  1  0
 13  3  1  0
 14 12  2  0
 15 20  1  0
 16 25  1  0
 17 18  2  0
 18 10  1  0
 19 12  1  0
 20 19  2  0
 21  4  1  0
 22 27  1  0
 23  6  1  0
 24 33  1  0
 25 28  2  0
 26 31  1  0
 27 10  1  0
 28 21  1  0
 29 15  1  0
 30 13  1  0
 31 34  2  0
 32  9  1  0
 33 44  2  0
 34 28  1  0
 35 17  1  0
 36  5  1  0
 37  5  1  0
 38  6  1  0
 39  6  1  0
 40 19  1  0
 41 30  1  0
 42 30  2  0
 43 41  2  0
 44 42  1  0
 45 26  1  0
 46 32  1  0
 47 35  1  0
 48 40  1  0
 49 45  1  0
  8 50  1  6
  4 51  1  1
 22  5  1  0
 17  9  1  0
 33 43  1  0
 26 16  2  0
  7  8  1  0
 15  7  2  0
 29 23  1  0
M  CHG  4   1  -1   5   1   6   1  52  -1
M  END
> <chembl_id>
CHEMBL1739

> <chembl_pref_name>
METOCURINE IODIDE
