
     RDKit          2D

 24 25  0  0  0  0  0  0  0  0999 V2000
   -0.7333   -0.7542    0.0000 C   0  0  0  0  0  0  0  0  0  0  0  0
   -1.1000   -1.1625    0.0000 C   0  0  0  0  0  0  0  0  0  0  0  0
   -0.4458   -1.2292    0.0000 C   0  0  0  0  0  0  0  0  0  0  0  0
   -0.9333   -1.6792    0.0000 O   0  0  0  0  0  0  0  0  0  0  0  0
   -1.6208   -1.0375    0.0000 O   0  0  0  0  0  0  0  0  0  0  0  0
   -3.6625    0.8458    0.0000 N   0  0  0  0  0  0  0  0  0  0  0  0
   -1.1250   -0.4000    0.0000 C   0  0  0  0  0  0  0  0  0  0  0  0
   -0.2625   -0.4792    0.0000 C   0  0  0  0  0  0  0  0  0  0  0  0
   -2.4500    0.0875    0.0000 O   0  0  0  0  0  0  0  0  0  0  0  0
    0.0917   -1.2292    0.0000 C   0  0  0  0  0  0  0  0  0  0  0  0
   -0.7208   -1.7042    0.0000 C   0  0  0  0  0  0  0  0  0  0  0  0
   -3.1333    0.7208    0.0000 C   0  0  0  0  0  0  0  0  0  0  0  0
   -4.0208    0.4458    0.0000 C   0  0  0  0  0  0  0  0  0  0  0  0
   -3.8333    1.3583    0.0000 C   0  0  0  0  0  0  0  0  0  0  0  0
   -1.7833   -0.5375    0.0000 C   0  0  0  0  0  0  0  0  0  0  0  0
   -2.9833    0.2125    0.0000 C   0  0  0  0  0  0  0  0  0  0  0  0
   -2.3000   -0.4042    0.0000 C   0  0  0  0  0  0  0  0  0  0  0  0
   -0.3833    0.0333    0.0000 C   0  0  0  0  0  0  0  0  0  0  0  0
   -0.9000    0.0875    0.0000 C   0  0  0  0  0  0  0  0  0  0  0  0
   -3.8583   -0.0667    0.0000 C   0  0  0  0  0  0  0  0  0  0  0  0
   -4.3458    1.4708    0.0000 C   0  0  0  0  0  0  0  0  0  0  0  0
    0.3667   -1.7042    0.0000 C   0  0  0  0  0  0  0  0  0  0  0  0
   -0.4458   -2.1667    0.0000 C   0  0  0  0  0  0  0  0  0  0  0  0
    0.0917   -2.1667    0.0000 C   0  0  0  0  0  0  0  0  0  0  0  0
  2  1  1  0
  3  1  1  0
  4  2  2  0
  5  2  1  0
  6 12  1  0
  7  1  1  0
  8  1  1  0
  9 17  1  0
 10  3  1  0
 11  3  2  0
 12 16  1  0
 13  6  1  0
 14  6  1  0
 15  5  1  0
 16  9  1  0
 17 15  1  0
 18  8  1  0
 19  7  1  0
 20 13  1  0
 21 14  1  0
 22 10  2  0
 23 11  1  0
 24 23  2  0
 19 18  1  0
 22 24  1  0
M  END
> <chembl_id>
CHEMBL73234

> <chembl_pref_name>
CARBETAPENTANE
