
     RDKit          2D

 27 24  0  0  0  0  0  0  0  0999 V2000
    3.7690   -2.9892    0.0000 O   0  0  0  0  0  0  0  0  0  0  0  0
   -0.6253   -0.3717    0.0000 C   0  0  0  0  0  0  0  0  0  0  0  0
   -1.1773    0.2414    0.0000 N   0  0  0  0  0  0  0  0  0  0  0  0
   -1.9843    0.0699    0.0000 C   0  0  0  0  0  0  0  0  0  0  0  0
   -2.5363    0.6830    0.0000 N   0  0  0  0  0  0  0  0  0  0  0  0
   -2.2392   -0.7147    0.0000 N   0  0  0  0  0  0  0  0  0  0  0  0
    0.1952   -0.2854    0.0000 C   0  0  0  0  0  0  0  0  0  0  0  0
    0.6077    0.4290    0.0000 C   0  0  0  0  0  0  0  0  0  0  0  0
    0.1952    1.1435    0.0000 C   0  0  0  0  0  0  0  0  0  0  0  0
    0.6077    1.8580    0.0000 C   0  0  0  0  0  0  0  0  0  0  0  0
    0.1952    2.5724    0.0000 C   0  0  0  0  0  0  0  0  0  0  0  0
   -0.6298    1.1435    0.0000 C   0  0  0  0  0  0  0  0  0  0  0  0
   -1.0423    1.8580    0.0000 C   0  0  0  0  0  0  0  0  0  0  0  0
    1.4327    0.4290    0.0000 N   0  0  0  0  0  0  0  0  0  0  0  0
    1.8452    1.1435    0.0000 C   0  0  0  0  0  0  0  0  0  0  0  0
    1.4327    1.8580    0.0000 C   0  0  0  0  0  0  0  0  0  0  0  0
    2.6702    1.1435    0.0000 O   0  0  0  0  0  0  0  0  0  0  0  0
    0.5307   -1.0391    0.0000 C   0  0  0  0  0  0  0  0  0  0  0  0
    1.3377   -1.2106    0.0000 O   0  0  0  0  0  0  0  0  0  0  0  0
   -0.0823   -1.5912    0.0000 C   0  0  0  0  0  0  0  0  0  0  0  0
    0.0039   -2.4116    0.0000 C   0  0  0  0  0  0  0  0  0  0  0  0
   -0.6636   -2.8966    0.0000 O   0  0  0  0  0  0  0  0  0  0  0  0
    0.7576   -2.7472    0.0000 O   0  0  0  0  0  0  0  0  0  0  0  0
   -0.7968   -1.1787    0.0000 C   0  0  0  0  0  0  0  0  0  0  0  0
   -0.3495    0.5533    0.0000 H   0  0  0  0  0  0  0  0  0  0  0  0
    3.1192   -1.9495    0.0000 O   0  0  0  0  0  0  0  0  0  0  0  0
    2.5018   -3.0867    0.0000 O   0  0  0  0  0  0  0  0  0  0  0  0
  2  3  1  1
  2  7  1  0
 24  2  1  0
  4  3  1  0
  4  5  2  0
  4  6  1  0
  7  8  1  0
  7 18  1  0
  8  9  1  0
  8 14  1  6
  9 10  1  0
  9 12  1  0
 10 11  1  0
 12 13  1  0
 15 14  1  0
 15 16  1  0
 15 17  2  0
 18 19  1  6
 18 20  1  0
 20 21  1  1
 24 20  1  0
 21 22  2  0
 21 23  1  0
  7 25  1  1
M  END
> <chembl_id>
CHEMBL3989402

> <chembl_pref_name>
PERAMIVIR
