
     RDKit          2D

 12 11  0  0  1  0  0  0  0  0999 V2000
    3.3625   -4.2375    0.0000 C   0  0  0  0  0  0  0  0  0  0  0  0
    2.7500   -3.8875    0.0000 C   0  0  0  0  0  0  0  0  0  0  0  0
    3.9750   -3.8875    0.0000 C   0  0  0  0  0  0  0  0  0  0  0  0
    2.1292   -4.2375    0.0000 C   0  0  0  0  0  0  0  0  0  0  0  0
    3.3625   -4.9417    0.0000 O   0  0  0  0  0  0  0  0  0  0  0  0
    2.7500   -3.1750    0.0000 O   0  0  0  0  0  0  0  0  0  0  0  0
    3.9750   -3.1750    0.0000 O   0  0  0  0  0  0  0  0  0  0  0  0
    2.1292   -4.9417    0.0000 O   0  0  0  0  0  0  0  0  0  0  0  0
    5.2042   -3.8875    0.0000 O   0  0  0  0  0  0  0  0  0  0  0  0
    0.9042   -4.2375    0.0000 O   0  0  0  0  0  0  0  0  0  0  0  0
    1.5250   -3.8875    0.0000 C   0  0  0  0  0  0  0  0  0  0  0  0
    4.5875   -4.2375    0.0000 C   0  0  0  0  0  0  0  0  0  0  0  0
  2  1  1  0
  3  1  1  0
  4  2  1  0
  1  5  1  1
  2  6  1  1
  3  7  1  6
  4  8  1  1
  9 12  1  0
 10 11  1  0
 11  4  1  0
 12  3  1  0
M  END
> <chembl_id>
CHEMBL1682

> <chembl_pref_name>
SORBITOL
