
     RDKit          2D

 87 92  0  0  1  0  0  0  0  0999 V2000
   11.0542   -0.8625    0.0000 N   0  0  0  0  0  0  0  0  0  0  0  0
   10.4375   -0.5042    0.0000 C   0  0  0  0  0  0  0  0  0  0  0  0
    1.2167    0.4708    0.0000 C   0  0  0  0  0  0  0  0  0  0  0  0
    3.0792   -0.5625    0.0000 C   0  0  0  0  0  0  0  0  0  0  0  0
    1.2250   -0.9250    0.0000 C   0  0  0  0  0  0  0  0  0  0  0  0
   -0.6125   -0.6000    0.0000 C   0  0  0  0  0  0  0  0  0  0  0  0
    8.6000   -0.8625    0.0000 C   0  0  0  0  0  0  0  0  0  0  0  0
    4.9167   -0.8917    0.0000 C   0  0  0  0  0  0  0  0  0  0  0  0
    6.7417   -0.5250    0.0000 C   0  0  0  0  0  0  0  0  0  0  0  0
   -2.4625   -0.9500    0.0000 C   0  0  0  0  0  0  0  0  0  0  0  0
   -3.6375   -0.9500    0.0000 N   0  0  0  0  0  0  0  0  0  0  0  0
    1.8375   -0.5792    0.0000 N   0  0  0  0  0  0  0  0  0  0  0  0
   11.7250   -0.4667    0.0000 C   0  0  0  0  0  0  0  0  0  0  0  0
    2.4542   -0.9125    0.0000 C   0  0  0  0  0  0  0  0  0  0  0  0
    2.3667    0.5000    0.0000 N   0  0  0  0  0  0  0  0  0  0  0  0
    3.6875   -0.9000    0.0000 N   0  0  0  0  0  0  0  0  0  0  0  0
    0.0000   -0.9375    0.0000 N   0  0  0  0  0  0  0  0  0  0  0  0
   -1.8458   -0.6000    0.0000 N   0  0  0  0  0  0  0  0  0  0  0  0
    5.5167   -0.5417    0.0000 N   0  0  0  0  0  0  0  0  0  0  0  0
    7.3792   -0.8750    0.0000 N   0  0  0  0  0  0  0  0  0  0  0  0
    9.2042   -0.5167    0.0000 N   0  0  0  0  0  0  0  0  0  0  0  0
    1.7917    0.0750    0.0000 C   0  0  0  0  0  0  0  0  0  0  0  0
   -1.2333   -0.9375    0.0000 C   0  0  0  0  0  0  0  0  0  0  0  0
    0.6042   -0.6000    0.0000 C   0  0  0  0  0  0  0  0  0  0  0  0
   -0.5208   -2.7000    0.0000 N   0  0  0  0  0  0  0  0  0  0  0  0
    4.3000   -0.5500    0.0000 C   0  0  0  0  0  0  0  0  0  0  0  0
    7.9917   -0.5167    0.0000 C   0  0  0  0  0  0  0  0  0  0  0  0
    6.1292   -0.8750    0.0000 C   0  0  0  0  0  0  0  0  0  0  0  0
   12.4000   -0.8500    0.0000 C   0  0  0  0  0  0  0  0  0  0  0  0
    9.8250   -0.8500    0.0000 C   0  0  0  0  0  0  0  0  0  0  0  0
   -3.0625   -0.6125    0.0000 C   0  0  0  0  0  0  0  0  0  0  0  0
   11.0792   -3.6667    0.0000 C   0  0  0  0  0  0  0  0  0  0  0  0
   -3.6375   -1.6542    0.0000 C   0  0  0  0  0  0  0  0  0  0  0  0
    1.4000    1.1458    0.0000 C   0  0  0  0  0  0  0  0  0  0  0  0
    0.6042    0.1208    0.0000 C   0  0  0  0  0  0  0  0  0  0  0  0
   -0.5958   -2.0042    0.0000 C   0  0  0  0  0  0  0  0  0  0  0  0
   -1.2333   -1.6542    0.0000 C   0  0  0  0  0  0  0  0  0  0  0  0
    0.5167   -2.2542    0.0000 N   0  0  0  0  0  0  0  0  0  0  0  0
    0.1750   -2.8625    0.0000 C   0  0  0  0  0  0  0  0  0  0  0  0
    2.1417    1.1583    0.0000 C   0  0  0  0  0  0  0  0  0  0  0  0
   11.7042   -4.0167    0.0000 N   0  0  0  0  0  0  0  0  0  0  0  0
   10.4375    0.2083    0.0000 O   0  0  0  0  0  0  0  0  0  0  0  0
    0.0500   -1.7167    0.0000 C   0  0  0  0  0  0  0  0  0  0  0  0
    3.0667    0.1375    0.0000 O   0  0  0  0  0  0  0  0  0  0  0  0
    8.6125   -1.5667    0.0000 O   0  0  0  0  0  0  0  0  0  0  0  0
    6.7417    0.1750    0.0000 O   0  0  0  0  0  0  0  0  0  0  0  0
    1.2292   -1.6292    0.0000 O   0  0  0  0  0  0  0  0  0  0  0  0
   -0.6125    0.1208    0.0000 O   0  0  0  0  0  0  0  0  0  0  0  0
    4.9292   -1.6042    0.0000 O   0  0  0  0  0  0  0  0  0  0  0  0
   -2.4625   -1.6667    0.0000 O   0  0  0  0  0  0  0  0  0  0  0  0
    4.2875    0.1500    0.0000 C   0  0  0  0  0  0  0  0  0  0  0  0
   12.4042   -1.6167    0.0000 O   0  0  0  0  0  0  0  0  0  0  0  0
    6.1417   -1.5917    0.0000 C   0  0  0  0  0  0  0  0  0  0  0  0
    7.9792    0.1958    0.0000 C   0  0  0  0  0  0  0  0  0  0  0  0
   -4.2375   -2.0042    0.0000 O   0  0  0  0  0  0  0  0  0  0  0  0
   -2.6208   -1.1167    0.0000 C   0  0  0  0  0  0  0  0  0  0  0  0
   11.0792   -2.9500    0.0000 N   0  0  0  0  0  0  0  0  0  0  0  0
   13.0167   -0.4917    0.0000 N   0  0  0  0  0  0  0  0  0  0  0  0
   10.4583   -4.0167    0.0000 N   0  0  0  0  0  0  0  0  0  0  0  0
   11.0542   -1.4917    0.0000 C   0  0  0  0  0  0  0  0  0  0  0  0
   -2.9375   -1.7917    0.0000 C   0  0  0  0  0  0  0  0  0  0  0  0
    4.9167    0.5208    0.0000 C   0  0  0  0  0  0  0  0  0  0  0  0
    6.1125    1.2458    0.0000 C   0  0  0  0  0  0  0  0  0  0  0  0
    2.4667   -1.6292    0.0000 C   0  0  0  0  0  0  0  0  0  0  0  0
    5.5125    0.1583    0.0000 C   0  0  0  0  0  0  0  0  0  0  0  0
    4.9167    1.2250    0.0000 C   0  0  0  0  0  0  0  0  0  0  0  0
    5.5042    1.5875    0.0000 C   0  0  0  0  0  0  0  0  0  0  0  0
    6.1125    0.5208    0.0000 C   0  0  0  0  0  0  0  0  0  0  0  0
   12.0625   -0.9917    0.0000 C   0  0  0  0  0  0  0  0  0  0  0  0
    6.7292    1.6000    0.0000 O   0  0  0  0  0  0  0  0  0  0  0  0
    3.0792   -1.9792    0.0000 O   0  0  0  0  0  0  0  0  0  0  0  0
   11.7917   -1.6292    0.0000 C   0  0  0  0  0  0  0  0  0  0  0  0
    9.8292   -1.5417    0.0000 C   0  0  0  0  0  0  0  0  0  0  0  0
    1.0417    1.7625    0.0000 C   0  0  0  0  0  0  0  0  0  0  0  0
    8.5875    0.5583    0.0000 C   0  0  0  0  0  0  0  0  0  0  0  0
    6.7542   -1.9417    0.0000 C   0  0  0  0  0  0  0  0  0  0  0  0
    2.4792    1.7750    0.0000 C   0  0  0  0  0  0  0  0  0  0  0  0
   13.6417   -0.8500    0.0000 C   0  0  0  0  0  0  0  0  0  0  0  0
   10.4542   -2.6042    0.0000 C   0  0  0  0  0  0  0  0  0  0  0  0
   10.4500   -1.8917    0.0000 C   0  0  0  0  0  0  0  0  0  0  0  0
    9.2042    0.2083    0.0000 C   0  0  0  0  0  0  0  0  0  0  0  0
    8.5750    1.2750    0.0000 C   0  0  0  0  0  0  0  0  0  0  0  0
    7.3792   -1.5667    0.0000 C   0  0  0  0  0  0  0  0  0  0  0  0
    6.7667   -2.6500    0.0000 C   0  0  0  0  0  0  0  0  0  0  0  0
   14.2542   -0.4875    0.0000 C   0  0  0  0  0  0  0  0  0  0  0  0
    1.4000    2.3917    0.0000 C   0  0  0  0  0  0  0  0  0  0  0  0
    2.1167    2.3958    0.0000 C   0  0  0  0  0  0  0  0  0  0  0  0
  2  1  1  0
  3 35  1  0
  4 16  1  0
  5 12  1  0
  6 17  1  0
  7 21  1  0
  8 19  1  0
  9 20  1  0
 10 18  1  0
 31 11  1  6
 14 12  1  6
 13  1  1  6
 14  4  1  0
 15 22  1  0
 26 16  1  1
 24 17  1  1
 23 18  1  6
 28 19  1  1
 27 20  1  1
 30 21  1  6
 22  3  2  0
 23  6  1  0
 24  5  1  0
 25 36  1  0
 26  8  1  0
 27  7  1  0
 28  9  1  0
 29 13  1  0
 30  2  1  0
 31 10  1  0
 32 57  1  0
 33 11  1  0
 34  3  1  0
 35 24  1  0
 36 37  1  0
 37 23  1  0
 38 43  1  0
 39 25  2  0
 40 34  2  0
 41 32  2  0
 42  2  2  0
 43 36  2  0
 44  4  2  0
 45  7  2  0
 46  9  2  0
 47  5  2  0
 48  6  2  0
 49  8  2  0
 50 10  2  0
 51 26  1  0
 52 29  2  0
 53 28  1  0
 54 27  1  0
 55 33  2  0
 56 31  1  0
 57 79  1  0
 58 29  1  0
 59 32  1  0
 60  1  1  0
 61 56  1  0
 62 51  1  0
 63 68  1  0
 64 14  1  0
 65 62  1  0
 66 62  2  0
 67 66  1  0
 68 65  2  0
 69 13  1  0
 70 63  1  0
 71 64  1  0
 72 60  1  0
 73 30  1  0
 74 34  1  0
 75 54  1  0
 76 53  1  0
 77 40  1  0
 78 58  1  0
 79 80  1  0
 80 73  1  0
 81 75  1  0
 82 75  1  0
 83 76  1  0
 84 76  1  0
 85 78  1  0
 86 74  2  0
 87 86  1  0
 72 69  1  0
 63 67  2  0
 15 40  1  0
 87 77  2  0
 39 38  1  0
 33 61  1  0
M  END
> <chembl_id>
CHEMBL1201199

> <chembl_pref_name>
LEUPROLIDE
