
     RDKit          2D

 23 26  0  0  0  0  0  0  0  0999 V2000
    5.6375   -5.5792    0.0000 N   0  0  0  0  0  0  0  0  0  0  0  0
    5.0875   -6.7250    0.0000 C   0  0  0  0  0  0  0  0  0  0  0  0
    5.0792   -6.0250    0.0000 C   0  0  0  0  0  0  0  0  0  0  0  0
    5.6417   -7.1667    0.0000 C   0  0  0  0  0  0  0  0  0  0  0  0
    6.3417   -7.0042    0.0000 N   0  0  0  0  0  0  0  0  0  0  0  0
    6.3292   -5.7375    0.0000 C   0  0  0  0  0  0  0  0  0  0  0  0
    5.6750   -4.8667    0.0000 C   0  0  0  0  0  0  0  0  0  0  0  0
    6.6417   -6.3792    0.0000 C   0  0  0  0  0  0  0  0  0  0  0  0
    4.4792   -5.6667    0.0000 C   0  0  0  0  0  0  0  0  0  0  0  0
    4.4792   -7.0875    0.0000 C   0  0  0  0  0  0  0  0  0  0  0  0
    6.3167   -4.5542    0.0000 C   0  0  0  0  0  0  0  0  0  0  0  0
    6.7042   -3.9542    0.0000 C   0  0  0  0  0  0  0  0  0  0  0  0
    7.0292   -4.5917    0.0000 C   0  0  0  0  0  0  0  0  0  0  0  0
    5.2792   -7.7792    0.0000 C   0  0  0  0  0  0  0  0  0  0  0  0
    6.7750   -5.1792    0.0000 O   0  0  0  0  0  0  0  0  0  0  0  0
    3.8667   -6.7292    0.0000 C   0  0  0  0  0  0  0  0  0  0  0  0
    3.8625   -6.0167    0.0000 C   0  0  0  0  0  0  0  0  0  0  0  0
    3.2417   -7.0875    0.0000 Cl  0  0  0  0  0  0  0  0  0  0  0  0
    5.6250   -8.4042    0.0000 C   0  0  0  0  0  0  0  0  0  0  0  0
    4.5625   -7.7667    0.0000 C   0  0  0  0  0  0  0  0  0  0  0  0
    4.2042   -8.3792    0.0000 C   0  0  0  0  0  0  0  0  0  0  0  0
    5.2625   -9.0125    0.0000 C   0  0  0  0  0  0  0  0  0  0  0  0
    4.5500   -9.0000    0.0000 C   0  0  0  0  0  0  0  0  0  0  0  0
  2  3  1  0
  3  1  1  0
  4  2  1  0
  5  8  1  0
  6  1  1  0
  7  1  1  0
  8  6  1  0
  9  3  2  0
 10  2  2  0
 11  7  1  0
 12 11  1  0
 13 11  1  0
 14  4  1  0
 15  6  2  0
 16 17  2  0
 17  9  1  0
 18 16  1  0
 19 14  2  0
 20 14  1  0
 21 20  2  0
 22 19  1  0
 23 21  1  0
 13 12  1  0
  5  4  2  0
 16 10  1  0
 23 22  2  0
M  END
> <chembl_id>
CHEMBL969

> <chembl_pref_name>
PRAZEPAM
