
     RDKit          2D

 30 34  0  0  0  0  0  0  0  0999 V2000
    2.2542   -1.1917    0.0000 C   0  0  0  0  0  0  0  0  0  0  0  0
   -2.0458    0.9208    0.0000 C   0  0  0  0  0  0  0  0  0  0  0  0
    1.9042   -0.6000    0.0000 N   0  0  0  0  0  0  0  0  0  0  0  0
   -2.0458    1.5833    0.0000 N   0  0  0  0  0  0  0  0  0  0  0  0
    2.9042   -1.0417    0.0000 N   0  0  0  0  0  0  0  0  0  0  0  0
   -2.6208    0.5958    0.0000 N   0  0  0  0  0  0  0  0  0  0  0  0
    3.0167   -0.3417    0.0000 C   0  0  0  0  0  0  0  0  0  0  0  0
    2.3917   -0.0292    0.0000 C   0  0  0  0  0  0  0  0  0  0  0  0
   -3.1958    1.5833    0.0000 C   0  0  0  0  0  0  0  0  0  0  0  0
   -3.1958    0.9208    0.0000 C   0  0  0  0  0  0  0  0  0  0  0  0
    1.0125   -0.1500    0.0000 C   0  0  0  0  0  0  0  0  0  0  0  0
    3.6000    0.0333    0.0000 C   0  0  0  0  0  0  0  0  0  0  0  0
   -0.2083    0.5250    0.0000 N   0  0  0  0  0  0  0  0  0  0  0  0
    1.9542   -1.7917    0.0000 O   0  0  0  0  0  0  0  0  0  0  0  0
    2.3375    0.6458    0.0000 C   0  0  0  0  0  0  0  0  0  0  0  0
   -1.4208    0.5708    0.0000 O   0  0  0  0  0  0  0  0  0  0  0  0
    1.0125    0.5458    0.0000 C   0  0  0  0  0  0  0  0  0  0  0  0
    0.4375   -0.5167    0.0000 C   0  0  0  0  0  0  0  0  0  0  0  0
   -0.2000   -0.1792    0.0000 C   0  0  0  0  0  0  0  0  0  0  0  0
    0.3750    0.8833    0.0000 C   0  0  0  0  0  0  0  0  0  0  0  0
    3.5542    0.7250    0.0000 C   0  0  0  0  0  0  0  0  0  0  0  0
   -1.4333    1.9250    0.0000 C   0  0  0  0  0  0  0  0  0  0  0  0
   -0.8000    1.5875    0.0000 C   0  0  0  0  0  0  0  0  0  0  0  0
    2.9167    1.0500    0.0000 C   0  0  0  0  0  0  0  0  0  0  0  0
    4.1500    1.1083    0.0000 Cl  0  0  0  0  0  0  0  0  0  0  0  0
   -0.8125    0.8625    0.0000 C   0  0  0  0  0  0  0  0  0  0  0  0
   -3.7708    1.9083    0.0000 C   0  0  0  0  0  0  0  0  0  0  0  0
   -3.7708    0.5958    0.0000 C   0  0  0  0  0  0  0  0  0  0  0  0
   -4.3458    1.5833    0.0000 C   0  0  0  0  0  0  0  0  0  0  0  0
   -4.3458    0.9208    0.0000 C   0  0  0  0  0  0  0  0  0  0  0  0
  2  4  1  0
  3  1  1  0
  4 22  1  0
  5  1  1  0
  6  2  1  0
  7  5  1  0
  8  3  1  0
  9  4  1  0
 10  9  2  0
 11  3  1  0
 12  7  1  0
 13 19  1  0
 14  1  2  0
 15  8  1  0
 16  2  2  0
 17 11  1  0
 18 11  1  0
 19 18  1  0
 20 17  1  0
 21 12  2  0
 22 23  1  0
 23 26  1  0
 24 15  2  0
 25 21  1  0
 26 13  1  0
 27  9  1  0
 28 10  1  0
 29 27  2  0
 30 29  1  0
  8  7  2  0
 20 13  1  0
 24 21  1  0
 10  6  1  0
 28 30  2  0
M  END
> <chembl_id>
CHEMBL219916

> <chembl_pref_name>
DOMPERIDONE
