
     RDKit          2D

 28 29  0  0  0  0  0  0  0  0999 V2000
    2.6947   -3.6493    0.0000 N   0  0  0  0  0  0  0  0  0  0  0  0
    3.4489   -3.9874    0.0000 C   0  0  0  0  0  0  0  0  0  0  0  0
    3.3589   -4.8080    0.0000 C   0  0  0  0  0  0  0  0  0  0  0  0
    2.5518   -4.9787    0.0000 C   0  0  0  0  0  0  0  0  0  0  0  0
    2.1412   -4.2635    0.0000 C   0  0  0  0  0  0  0  0  0  0  0  0
    4.1598   -3.5727    0.0000 C   0  0  0  0  0  0  0  0  0  0  0  0
    4.1598   -2.7476    0.0000 O   0  0  0  0  0  0  0  0  0  0  0  0
    4.8749   -3.9874    0.0000 N   0  0  0  0  0  0  0  0  0  0  0  0
    2.2178   -5.7328    0.0000 C   0  0  0  0  0  0  0  0  0  0  0  0
    1.3972   -5.8186    0.0000 C   0  0  0  0  0  0  0  0  0  0  0  0
    1.0632   -6.5727    0.0000 C   0  0  0  0  0  0  0  0  0  0  0  0
    2.5199   -2.8422    0.0000 C   0  0  0  0  0  0  0  0  0  0  0  0
    5.5901   -3.5727    0.0000 C   0  0  0  0  0  0  0  0  0  0  0  0
    5.5901   -2.7476    0.0000 C   0  0  0  0  0  0  0  0  0  0  0  0
    4.8749   -2.3371    0.0000 C   0  0  0  0  0  0  0  0  0  0  0  0
    6.3052   -4.8125    0.0000 O   0  0  0  0  0  0  0  0  0  0  0  0
    6.3052   -3.9874    0.0000 C   0  0  0  0  0  0  0  0  0  0  0  0
    7.0203   -3.5727    0.0000 C   0  0  0  0  0  0  0  0  0  0  0  0
    7.7354   -3.9874    0.0000 C   0  0  0  0  0  0  0  0  0  0  0  0
    7.7354   -4.8125    0.0000 C   0  0  0  0  0  0  0  0  0  0  0  0
    7.0203   -5.2230    0.0000 C   0  0  0  0  0  0  0  0  0  0  0  0
    7.0203   -6.0480    0.0000 S   0  0  0  0  0  0  0  0  0  0  0  0
    7.7354   -6.4627    0.0000 C   0  0  0  0  0  0  0  0  0  0  0  0
    8.4505   -5.2230    0.0000 O   0  0  0  0  0  0  0  0  0  0  0  0
    8.4505   -3.5727    0.0000 O   0  0  0  0  0  0  0  0  0  0  0  0
    7.0203   -2.7476    0.0000 O   0  0  0  0  0  0  0  0  0  0  0  0
    6.3052   -2.3371    0.0000 O   0  0  0  0  0  0  0  0  0  0  0  0
    5.5826   -4.3846    0.0000 H   0  0  0  0  0  0  0  0  0  0  0  0
  1  2  1  0
  2  3  1  0
  3  4  1  0
  4  5  1  0
  1  5  1  0
  6  7  2  0
  6  8  1  0
  2  6  1  6
  9 10  1  0
 10 11  1  0
  4  9  1  1
  1 12  1  0
 13 14  1  0
 14 15  1  0
 16 17  1  0
 17 18  1  0
 18 19  1  0
 19 20  1  0
 20 21  1  0
 16 21  1  0
 22 23  1  0
 21 22  1  1
 20 24  1  1
 19 25  1  6
 18 26  1  6
 13 17  1  0
 14 27  1  1
 13  8  1  6
 17 28  1  1
M  END
> <chembl_id>
CHEMBL1447

> <chembl_pref_name>
LINCOMYCIN
