
     RDKit          2D

 14 14  0  0  0  0  0  0  0  0999 V2000
    0.8917   -0.4042    0.0000 S   0  0  0  0  0  0  0  0  0  0  0  0
    2.2292   -0.4042    0.0000 N   0  0  0  0  0  0  0  0  0  0  0  0
    2.8542    0.7083    0.0000 C   0  0  0  0  0  0  0  0  0  0  0  0
   -0.4083   -0.4042    0.0000 C   0  0  0  0  0  0  0  0  0  0  0  0
    0.8917    0.8833    0.0000 O   0  0  0  0  0  0  0  0  0  0  0  0
    0.8917   -1.7542    0.0000 O   0  0  0  0  0  0  0  0  0  0  0  0
    4.2000    0.7083    0.0000 O   0  0  0  0  0  0  0  0  0  0  0  0
   -1.0833    0.7083    0.0000 C   0  0  0  0  0  0  0  0  0  0  0  0
   -1.1000   -1.5292    0.0000 C   0  0  0  0  0  0  0  0  0  0  0  0
    2.4542    1.8708    0.0000 N   0  0  0  0  0  0  0  0  0  0  0  0
   -3.0000   -0.4042    0.0000 C   0  0  0  0  0  0  0  0  0  0  0  0
   -4.1000   -0.4292    0.0000 N   0  0  0  0  0  0  0  0  0  0  0  0
   -2.3750    0.7083    0.0000 C   0  0  0  0  0  0  0  0  0  0  0  0
   -2.4208   -1.5292    0.0000 C   0  0  0  0  0  0  0  0  0  0  0  0
  2  1  1  0
  3  2  1  0
  4  1  1  0
  5  1  2  0
  6  1  2  0
  7  3  2  0
  8  4  1  0
  9  4  2  0
 10  3  1  0
 11 14  2  0
 12 11  1  0
 13  8  2  0
 14  9  1  0
 13 11  1  0
M  END
> <chembl_id>
CHEMBL139877

> <chembl_pref_name>
SULFACARBAMIDE
