
     RDKit          2D

 27 28  0  0  0  0  0  0  0  0999 V2000
    4.1792   -8.0625    0.0000 Cl  0  0  0  0  0  0  0  0  0  0  0  0
    0.2542   -7.2625    0.0000 C   0  0  0  0  0  0  0  0  0  0  0  0
    5.7708   -6.9000    0.0000 C   0  0  0  0  0  0  0  0  0  0  0  0
    6.3833   -7.2542    0.0000 C   0  0  0  0  0  0  0  0  0  0  0  0
    0.8667   -6.9083    0.0000 C   0  0  0  0  0  0  0  0  0  0  0  0
    1.4792   -7.2583    0.0000 C   0  0  0  0  0  0  0  0  0  0  0  0
   -0.3583   -6.9125    0.0000 F   0  0  0  0  0  0  0  0  0  0  0  0
    0.6042   -7.8750    0.0000 F   0  0  0  0  0  0  0  0  0  0  0  0
   -0.1083   -7.8750    0.0000 F   0  0  0  0  0  0  0  0  0  0  0  0
    5.1583   -7.2542    0.0000 C   0  0  0  0  0  0  0  0  0  0  0  0
    6.9958   -6.9000    0.0000 C   0  0  0  0  0  0  0  0  0  0  0  0
    4.5417   -6.9000    0.0000 N   0  0  0  0  0  0  0  0  0  0  0  0
    2.0917   -6.9000    0.0000 C   0  0  0  0  0  0  0  0  0  0  0  0
    5.7708   -6.1875    0.0000 C   0  0  0  0  0  0  0  0  0  0  0  0
    0.8667   -6.1958    0.0000 C   0  0  0  0  0  0  0  0  0  0  0  0
    6.3833   -7.9583    0.0000 C   0  0  0  0  0  0  0  0  0  0  0  0
    6.3833   -5.8333    0.0000 C   0  0  0  0  0  0  0  0  0  0  0  0
    1.4792   -5.8417    0.0000 C   0  0  0  0  0  0  0  0  0  0  0  0
    6.9958   -6.1875    0.0000 C   0  0  0  0  0  0  0  0  0  0  0  0
    2.0917   -6.1958    0.0000 C   0  0  0  0  0  0  0  0  0  0  0  0
    3.9292   -7.2542    0.0000 C   0  0  0  0  0  0  0  0  0  0  0  0
    7.6083   -7.2500    0.0000 C   0  0  0  0  0  0  0  0  0  0  0  0
    5.1583   -7.9625    0.0000 C   0  0  0  0  0  0  0  0  0  0  0  0
    2.7042   -7.2542    0.0000 C   0  0  0  0  0  0  0  0  0  0  0  0
    3.3167   -6.9000    0.0000 C   0  0  0  0  0  0  0  0  0  0  0  0
    6.9958   -8.3125    0.0000 C   0  0  0  0  0  0  0  0  0  0  0  0
    7.6125   -7.9542    0.0000 C   0  0  0  0  0  0  0  0  0  0  0  0
  3 10  1  0
  4  3  1  0
  5  2  1  0
  6  5  2  0
  7  2  1  0
  8  2  1  0
  9  2  1  0
 10 12  1  0
 11  4  1  0
 12 21  1  0
 13  6  1  0
 14  3  2  0
 15  5  1  0
 16  4  2  0
 17 14  1  0
 18 15  2  0
 19 17  2  0
 20 13  2  0
 21 25  1  0
 22 11  2  0
 10 23  1  1
 24 13  1  0
 25 24  1  0
 26 16  1  0
 27 26  2  0
 18 20  1  0
 19 11  1  0
 22 27  1  0
M  END
> <chembl_id>
CHEMBL1200776

> <chembl_pref_name>
CINACALCET HYDROCHLORIDE
