
     RDKit          2D

 86 86  0  0  0  0  0  0  0  0999 V2000
    0.4526    4.8180    0.0000 N   0  0  0  0  0  0  0  0  0  0  0  0
    0.3836    5.6401    0.0000 C   0  0  0  0  0  0  0  0  0  0  0  0
    1.1583    4.3906    0.0000 C   0  0  0  0  0  0  0  0  0  0  0  0
    0.9700    3.5874    0.0000 C   0  0  0  0  0  0  0  0  0  0  0  0
    0.1504    3.4932    0.0000 O   0  0  0  0  0  0  0  0  0  0  0  0
    1.9189    4.7104    0.0000 C   0  0  0  0  0  0  0  0  0  0  0  0
    2.5760    4.2116    0.0000 O   0  0  0  0  0  0  0  0  0  0  0  0
    2.0222    5.5289    0.0000 C   0  0  0  0  0  0  0  0  0  0  0  0
    1.3651    6.0276    0.0000 C   0  0  0  0  0  0  0  0  0  0  0  0
    2.7828    5.8486    0.0000 C   0  0  0  0  0  0  0  0  0  0  0  0
    2.8861    6.6671    0.0000 C   0  0  0  0  0  0  0  0  0  0  0  0
    3.6467    6.9868    0.0000 C   0  0  0  0  0  0  0  0  0  0  0  0
    3.7501    7.8053    0.0000 C   0  0  0  0  0  0  0  0  0  0  0  0
    1.3702    2.7782    0.0000 N   0  0  0  0  0  0  0  0  0  0  0  0
    0.9428    2.0725    0.0000 C   0  0  0  0  0  0  0  0  0  0  0  0
    1.3403    1.3496    0.0000 C   0  0  0  0  0  0  0  0  0  0  0  0
    2.1651    1.3323    0.0000 O   0  0  0  0  0  0  0  0  0  0  0  0
    1.7676    2.0552    0.0000 C   0  0  0  0  0  0  0  0  0  0  0  0
    2.1950    2.7609    0.0000 C   0  0  0  0  0  0  0  0  0  0  0  0
    0.9129    0.6439    0.0000 N   0  0  0  0  0  0  0  0  0  0  0  0
    1.3104   -0.0791    0.0000 C   0  0  0  0  0  0  0  0  0  0  0  0
    0.8831   -0.7848    0.0000 C   0  0  0  0  0  0  0  0  0  0  0  0
    0.0582   -0.7675    0.0000 O   0  0  0  0  0  0  0  0  0  0  0  0
    0.0881    0.6611    0.0000 C   0  0  0  0  0  0  0  0  0  0  0  0
    1.2805   -1.5077    0.0000 N   0  0  0  0  0  0  0  0  0  0  0  0
    1.9580   -1.0368    0.0000 C   0  0  0  0  0  0  0  0  0  0  0  0
    0.8532   -2.2134    0.0000 C   0  0  0  0  0  0  0  0  0  0  0  0
    1.6780   -2.2306    0.0000 C   0  0  0  0  0  0  0  0  0  0  0  0
    2.1054   -1.5250    0.0000 C   0  0  0  0  0  0  0  0  0  0  0  0
    2.2087   -0.7065    0.0000 C   0  0  0  0  0  0  0  0  0  0  0  0
    2.9302   -1.5422    0.0000 C   0  0  0  0  0  0  0  0  0  0  0  0
    1.2507   -2.9363    0.0000 C   0  0  0  0  0  0  0  0  0  0  0  0
    2.0755   -2.9536    0.0000 O   0  0  0  0  0  0  0  0  0  0  0  0
    0.8233   -3.6420    0.0000 N   0  0  0  0  0  0  0  0  0  0  0  0
    1.2208   -4.3650    0.0000 C   0  0  0  0  0  0  0  0  0  0  0  0
    0.7934   -5.0707    0.0000 C   0  0  0  0  0  0  0  0  0  0  0  0
    1.1909   -5.7936    0.0000 O   0  0  0  0  0  0  0  0  0  0  0  0
    2.0456   -4.3822    0.0000 C   0  0  0  0  0  0  0  0  0  0  0  0
    2.4431   -5.1051    0.0000 C   0  0  0  0  0  0  0  0  0  0  0  0
    2.4730   -3.6765    0.0000 C   0  0  0  0  0  0  0  0  0  0  0  0
   -0.0314   -5.0534    0.0000 N   0  0  0  0  0  0  0  0  0  0  0  0
   -0.4288   -4.3305    0.0000 C   0  0  0  0  0  0  0  0  0  0  0  0
   -0.4587   -5.7591    0.0000 C   0  0  0  0  0  0  0  0  0  0  0  0
   -0.0613   -6.4820    0.0000 C   0  0  0  0  0  0  0  0  0  0  0  0
   -0.4886   -7.1877    0.0000 C   0  0  0  0  0  0  0  0  0  0  0  0
   -0.0911   -7.9107    0.0000 C   0  0  0  0  0  0  0  0  0  0  0  0
   -1.3134   -7.1705    0.0000 C   0  0  0  0  0  0  0  0  0  0  0  0
   -1.2835   -5.7418    0.0000 C   0  0  0  0  0  0  0  0  0  0  0  0
   -1.7109   -6.4475    0.0000 O   0  0  0  0  0  0  0  0  0  0  0  0
   -1.6810   -5.0189    0.0000 N   0  0  0  0  0  0  0  0  0  0  0  0
   -1.2537   -4.3132    0.0000 C   0  0  0  0  0  0  0  0  0  0  0  0
   -1.6511   -3.5903    0.0000 C   0  0  0  0  0  0  0  0  0  0  0  0
   -2.4760   -3.5730    0.0000 O   0  0  0  0  0  0  0  0  0  0  0  0
   -0.5762   -3.8424    0.0000 C   0  0  0  0  0  0  0  0  0  0  0  0
   -1.2238   -2.8846    0.0000 N   0  0  0  0  0  0  0  0  0  0  0  0
   -1.6213   -2.1616    0.0000 C   0  0  0  0  0  0  0  0  0  0  0  0
   -2.4461   -2.1444    0.0000 C   0  0  0  0  0  0  0  0  0  0  0  0
   -1.1939   -1.4560    0.0000 C   0  0  0  0  0  0  0  0  0  0  0  0
   -0.3691   -1.4732    0.0000 O   0  0  0  0  0  0  0  0  0  0  0  0
   -1.5914   -0.7330    0.0000 N   0  0  0  0  0  0  0  0  0  0  0  0
   -2.2688   -1.2039    0.0000 C   0  0  0  0  0  0  0  0  0  0  0  0
   -1.1640   -0.0273    0.0000 C   0  0  0  0  0  0  0  0  0  0  0  0
   -1.9889   -0.0101    0.0000 C   0  0  0  0  0  0  0  0  0  0  0  0
   -2.4162   -0.7158    0.0000 C   0  0  0  0  0  0  0  0  0  0  0  0
   -2.5196   -1.5343    0.0000 C   0  0  0  0  0  0  0  0  0  0  0  0
   -3.2410   -0.6985    0.0000 C   0  0  0  0  0  0  0  0  0  0  0  0
   -1.5615    0.6956    0.0000 C   0  0  0  0  0  0  0  0  0  0  0  0
   -2.3863    0.7129    0.0000 O   0  0  0  0  0  0  0  0  0  0  0  0
   -1.1342    1.4013    0.0000 N   0  0  0  0  0  0  0  0  0  0  0  0
   -0.3094    1.3841    0.0000 C   0  0  0  0  0  0  0  0  0  0  0  0
   -1.5316    2.1242    0.0000 C   0  0  0  0  0  0  0  0  0  0  0  0
   -2.3565    2.1415    0.0000 C   0  0  0  0  0  0  0  0  0  0  0  0
   -2.7539    2.8644    0.0000 C   0  0  0  0  0  0  0  0  0  0  0  0
   -3.5788    2.8817    0.0000 C   0  0  0  0  0  0  0  0  0  0  0  0
   -2.3266    3.5701    0.0000 C   0  0  0  0  0  0  0  0  0  0  0  0
   -1.1043    2.8299    0.0000 C   0  0  0  0  0  0  0  0  0  0  0  0
   -0.2795    2.8127    0.0000 O   0  0  0  0  0  0  0  0  0  0  0  0
   -1.5018    3.5529    0.0000 N   0  0  0  0  0  0  0  0  0  0  0  0
   -2.1589    4.0516    0.0000 C   0  0  0  0  0  0  0  0  0  0  0  0
   -1.0744    4.2586    0.0000 C   0  0  0  0  0  0  0  0  0  0  0  0
   -1.4875    4.9727    0.0000 C   0  0  0  0  0  0  0  0  0  0  0  0
   -1.0756    5.6875    0.0000 C   0  0  0  0  0  0  0  0  0  0  0  0
   -2.3125    4.9720    0.0000 C   0  0  0  0  0  0  0  0  0  0  0  0
   -0.1718    4.2789    0.0000 C   0  0  0  0  0  0  0  0  0  0  0  0
   -0.1280    3.4551    0.0000 O   0  0  0  0  0  0  0  0  0  0  0  0
    1.2315    5.3879    0.0000 H   0  0  0  0  0  0  0  0  0  0  0  0
  2  1  1  0
  3  1  1  0
  4  3  1  0
  3  6  1  0
  4  5  2  0
  6  7  1  1
  6  8  1  0
  8  9  1  6
 10  8  1  0
 10 11  1  0
 11 12  2  0
 13 12  1  0
 15 14  1  0
 16 15  1  0
 15 18  1  6
 16 17  2  0
 18 19  1  0
 21 20  1  0
 24 20  1  0
 22 21  1  0
 22 23  2  0
 26 25  1  0
 27 25  1  0
 27 28  1  6
 32 27  1  0
 28 29  1  0
 30 29  1  0
 31 29  1  0
 32 33  2  0
 35 34  1  0
 36 35  1  0
 35 38  1  1
 36 37  2  0
 38 39  1  0
 38 40  1  0
 42 41  1  0
 43 41  1  0
 43 44  1  1
 48 43  1  0
 44 45  1  0
 46 45  1  0
 47 45  1  0
 48 49  2  0
 51 50  1  0
 52 51  1  0
 51 54  1  6
 52 53  2  0
 56 55  1  0
 56 57  1  6
 58 56  1  0
 58 59  2  0
 61 60  1  0
 62 60  1  0
 62 63  1  6
 67 62  1  0
 63 64  1  0
 65 64  1  0
 66 64  1  0
 67 68  2  0
 70 69  1  0
 71 69  1  0
 71 72  1  1
 76 71  1  0
 72 73  1  0
 74 73  1  0
 75 73  1  0
 76 77  2  0
 79 78  1  0
 80 78  1  0
 80 81  1  1
 80 84  1  0
 81 82  1  0
 81 83  1  0
 84 85  2  0
 84  1  1  0
  4 14  1  0
 16 20  1  0
 22 25  1  0
 32 34  1  0
 36 41  1  0
 48 50  1  0
 52 55  1  0
 58 60  1  0
 67 69  1  0
 76 78  1  0
  3 86  1  6
M  END
> <chembl_id>
CHEMBL160

> <chembl_pref_name>
CYCLOSPORINE
