
     RDKit          2D

100106  0  0  0  0  0  0  0  0999 V2000
   12.5229  -13.4052    0.0000 N   0  0  0  0  0  0  0  0  0  0  0  0
   13.1349  -13.0510    0.0000 C   0  0  0  0  0  0  0  0  0  0  0  0
   13.7511  -13.4052    0.0000 C   0  0  0  0  0  0  0  0  0  0  0  0
   13.7511  -14.1135    0.0000 O   0  0  0  0  0  0  0  0  0  0  0  0
   11.5643  -11.2492    0.0000 C   0  0  0  0  0  0  0  0  0  0  0  0
   12.2726  -11.2492    0.0000 C   0  0  0  0  0  0  0  0  0  0  0  0
   12.4919  -11.9208    0.0000 C   0  0  0  0  0  0  0  0  0  0  0  0
   11.9185  -12.3409    0.0000 C   0  0  0  0  0  0  0  0  0  0  0  0
   11.3451  -11.9208    0.0000 N   0  0  0  0  0  0  0  0  0  0  0  0
    9.5038  -12.2756    0.0000 N   0  0  0  0  0  0  0  0  0  0  0  0
   10.1158  -11.9214    0.0000 C   0  0  0  0  0  0  0  0  0  0  0  0
   10.7320  -12.2756    0.0000 C   0  0  0  0  0  0  0  0  0  0  0  0
   10.7320  -12.9839    0.0000 O   0  0  0  0  0  0  0  0  0  0  0  0
   10.1158  -11.2131    0.0000 C   0  0  0  0  0  0  0  0  0  0  0  0
   10.7320  -10.8589    0.0000 C   0  0  0  0  0  0  0  0  0  0  0  0
   10.7320  -10.1506    0.0000 C   0  0  0  0  0  0  0  0  0  0  0  0
   11.3440   -9.7964    0.0000 N   0  0  0  0  0  0  0  0  0  0  0  0
   11.3440   -9.0881    0.0000 C   0  0  0  0  0  0  0  0  0  0  0  0
   11.9560   -8.7339    0.0000 N   0  0  0  0  0  0  0  0  0  0  0  0
   10.7320   -8.7339    0.0000 N   0  0  0  0  0  0  0  0  0  0  0  0
    7.6625  -11.9208    0.0000 N   0  0  0  0  0  0  0  0  0  0  0  0
    8.2745  -12.2750    0.0000 C   0  0  0  0  0  0  0  0  0  0  0  0
    8.8907  -11.9208    0.0000 C   0  0  0  0  0  0  0  0  0  0  0  0
    8.8907  -11.2125    0.0000 O   0  0  0  0  0  0  0  0  0  0  0  0
    8.2745  -12.9833    0.0000 C   0  0  0  0  0  0  0  0  0  0  0  0
    8.8907  -13.3375    0.0000 C   0  0  0  0  0  0  0  0  0  0  0  0
    8.8907  -14.0458    0.0000 C   0  0  0  0  0  0  0  0  0  0  0  0
    9.5027  -12.9833    0.0000 C   0  0  0  0  0  0  0  0  0  0  0  0
    3.9788  -11.9161    0.0000 N   0  0  0  0  0  0  0  0  0  0  0  0
    4.5908  -12.2702    0.0000 C   0  0  0  0  0  0  0  0  0  0  0  0
    5.2070  -11.9161    0.0000 C   0  0  0  0  0  0  0  0  0  0  0  0
    5.2070  -11.2077    0.0000 O   0  0  0  0  0  0  0  0  0  0  0  0
    4.5908  -12.9786    0.0000 C   0  0  0  0  0  0  0  0  0  0  0  0
    5.2070  -14.0411    0.0000 C   0  0  0  0  0  0  0  0  0  0  0  0
    5.8190  -14.3952    0.0000 C   0  0  0  0  0  0  0  0  0  0  0  0
    6.4310  -14.0411    0.0000 C   0  0  0  0  0  0  0  0  0  0  0  0
    6.4310  -13.3327    0.0000 C   0  0  0  0  0  0  0  0  0  0  0  0
    5.8190  -12.9786    0.0000 C   0  0  0  0  0  0  0  0  0  0  0  0
    5.2070  -13.3327    0.0000 C   0  0  0  0  0  0  0  0  0  0  0  0
    7.0472  -14.3952    0.0000 O   0  0  0  0  0  0  0  0  0  0  0  0
    2.1375  -12.2708    0.0000 N   0  0  0  0  0  0  0  0  0  0  0  0
    2.7495  -11.9167    0.0000 C   0  0  0  0  0  0  0  0  0  0  0  0
    3.3657  -12.2708    0.0000 C   0  0  0  0  0  0  0  0  0  0  0  0
    3.3657  -12.9792    0.0000 O   0  0  0  0  0  0  0  0  0  0  0  0
    2.7495  -11.2083    0.0000 C   0  0  0  0  0  0  0  0  0  0  0  0
    3.3657  -10.8542    0.0000 O   0  0  0  0  0  0  0  0  0  0  0  0
    0.2996  -11.9161    0.0000 N   0  0  0  0  0  0  0  0  0  0  0  0
    0.9116  -12.2702    0.0000 C   0  0  0  0  0  0  0  0  0  0  0  0
    1.5278  -11.9161    0.0000 C   0  0  0  0  0  0  0  0  0  0  0  0
    1.5278  -11.2077    0.0000 O   0  0  0  0  0  0  0  0  0  0  0  0
    0.9116  -12.9786    0.0000 C   0  0  0  0  0  0  0  0  0  0  0  0
    1.5278  -13.3320    0.0000 C   0  0  0  0  0  0  0  0  0  0  0  0
    2.0942  -12.9056    0.0000 C   0  0  0  0  0  0  0  0  0  0  0  0
    2.6734  -13.3143    0.0000 N   0  0  0  0  0  0  0  0  0  0  0  0
    1.7581  -14.0016    0.0000 C   0  0  0  0  0  0  0  0  0  0  0  0
    1.4120  -14.6234    0.0000 C   0  0  0  0  0  0  0  0  0  0  0  0
    1.7765  -15.2286    0.0000 C   0  0  0  0  0  0  0  0  0  0  0  0
    2.4879  -15.2162    0.0000 C   0  0  0  0  0  0  0  0  0  0  0  0
    2.8300  -14.5953    0.0000 C   0  0  0  0  0  0  0  0  0  0  0  0
    2.4655  -13.9901    0.0000 C   0  0  0  0  0  0  0  0  0  0  0  0
   -1.5417  -12.2708    0.0000 N   0  0  0  0  0  0  0  0  0  0  0  0
   -0.9296  -11.9167    0.0000 C   0  0  0  0  0  0  0  0  0  0  0  0
   -0.3135  -12.2708    0.0000 C   0  0  0  0  0  0  0  0  0  0  0  0
   -0.3135  -12.9792    0.0000 O   0  0  0  0  0  0  0  0  0  0  0  0
   -0.9296  -11.2083    0.0000 C   0  0  0  0  0  0  0  0  0  0  0  0
   -0.3136  -10.8549    0.0000 C   0  0  0  0  0  0  0  0  0  0  0  0
    0.2485  -11.2870    0.0000 C   0  0  0  0  0  0  0  0  0  0  0  0
    0.8317  -10.8842    0.0000 N   0  0  0  0  0  0  0  0  0  0  0  0
    0.6308  -10.2063    0.0000 C   0  0  0  0  0  0  0  0  0  0  0  0
   -0.0765  -10.1877    0.0000 N   0  0  0  0  0  0  0  0  0  0  0  0
   -3.7000  -12.9584    0.0000 C   0  0  0  0  0  0  0  0  0  0  0  0
   -2.9917  -12.9584    0.0000 C   0  0  0  0  0  0  0  0  0  0  0  0
   -2.7724  -12.2867    0.0000 C   0  0  0  0  0  0  0  0  0  0  0  0
   -3.3459  -11.8667    0.0000 N   0  0  0  0  0  0  0  0  0  0  0  0
   -3.9192  -12.2867    0.0000 C   0  0  0  0  0  0  0  0  0  0  0  0
   -4.5935  -12.0696    0.0000 O   0  0  0  0  0  0  0  0  0  0  0  0
   -2.1625  -11.9250    0.0000 C   0  0  0  0  0  0  0  0  0  0  0  0
   -2.1708  -11.2167    0.0000 O   0  0  0  0  0  0  0  0  0  0  0  0
    5.8201  -12.2708    0.0000 N   0  0  0  0  0  0  0  0  0  0  0  0
    6.4339  -11.9173    0.0000 C   0  0  0  0  0  0  0  0  0  0  0  0
    7.0470  -12.2720    0.0000 C   0  0  0  0  0  0  0  0  0  0  0  0
    7.0463  -12.9804    0.0000 O   0  0  0  0  0  0  0  0  0  0  0  0
    6.4346  -11.2089    0.0000 C   0  0  0  0  0  0  0  0  0  0  0  0
    6.7833  -10.5917    0.0000 C   0  0  0  0  0  0  0  0  0  0  0  0
    7.4932  -10.5875    0.0000 C   0  0  0  0  0  0  0  0  0  0  0  0
    7.8419   -9.9709    0.0000 C   0  0  0  0  0  0  0  0  0  0  0  0
    7.4817   -9.3594    0.0000 C   0  0  0  0  0  0  0  0  0  0  0  0
    6.4236   -9.9853    0.0000 C   0  0  0  0  0  0  0  0  0  0  0  0
    6.7683   -9.3712    0.0000 C   0  0  0  0  0  0  0  0  0  0  0  0
    6.4090   -8.7675    0.0000 C   0  0  0  0  0  0  0  0  0  0  0  0
    5.7050   -8.7768    0.0000 C   0  0  0  0  0  0  0  0  0  0  0  0
    5.3620   -9.3948    0.0000 C   0  0  0  0  0  0  0  0  0  0  0  0
    5.7233   -9.9961    0.0000 C   0  0  0  0  0  0  0  0  0  0  0  0
   11.9125  -13.0458    0.0000 C   0  0  0  0  0  0  0  0  0  0  0  0
   11.2961  -13.3948    0.0000 O   0  0  0  0  0  0  0  0  0  0  0  0
   14.3642  -13.0504    0.0000 N   0  0  0  0  0  0  0  0  0  0  0  0
   10.1417  -15.5375    0.0000 C   0  0  0  0  0  0  0  0  0  0  0  0
   10.1417  -14.8292    0.0000 O   0  0  0  0  0  0  0  0  0  0  0  0
   10.7542  -15.8958    0.0000 O   0  0  0  0  0  0  0  0  0  0  0  0
    9.5292  -15.8958    0.0000 C   0  0  0  0  0  0  0  0  0  0  0  0
 22 21  1  6
 22 23  1  0
 23 24  2  0
 48 47  1  6
 48 49  1  0
 49 50  2  0
 48 51  1  0
 52 53  2  0
 53 54  1  0
 55 52  1  0
 51 52  1  0
 60 54  1  0
 22 25  1  0
 25 26  1  0
 26 27  1  0
 26 28  1  0
 55 60  2  0
 55 56  1  0
 56 57  2  0
 57 58  1  0
 58 59  2  0
 59 60  1  0
  6  7  1  0
  7  8  1  0
 11 10  1  1
 11 12  1  0
 12 13  2  0
 11 14  1  0
 14 15  1  0
 15 16  1  0
 16 17  1  0
 62 61  1  1
 62 63  1  0
 63 64  2  0
 62 65  1  0
 66 67  2  0
 67 68  1  0
 68 69  2  0
 69 70  1  0
 70 66  1  0
 65 66  1  0
 71 72  1  0
 30 29  1  6
 30 31  1  0
 31 32  2  0
 30 33  1  0
 33 39  1  0
 72 73  1  0
 73 74  1  0
 74 75  1  0
 75 71  1  0
 39 34  1  0
 75 76  2  0
 34 35  2  0
 73 77  1  6
 77 61  1  0
 35 36  1  0
 77 78  2  0
 36 37  2  0
 63 47  1  0
 49 41  1  0
 43 29  1  0
 37 38  1  0
 31 79  1  0
 38 39  2  0
 80 79  1  6
 36 40  1  0
 80 81  1  0
 81 21  1  0
 17 18  1  0
 81 82  2  0
 18 19  1  0
 80 83  1  0
 18 20  2  0
 83 84  1  0
  8  9  1  0
 84 85  2  0
  9  5  1  0
 85 86  1  0
  1  2  1  0
 86 87  2  0
 87 89  1  0
 88 84  1  0
 42 41  1  1
 42 43  1  0
 88 89  1  0
 43 44  2  0
 89 90  2  0
 42 45  1  0
 90 91  1  0
 45 46  1  0
 91 92  2  0
  2  3  1  0
 92 93  1  0
 93 88  2  0
 23 10  1  0
 12  9  1  0
  3  4  2  0
  8 94  1  1
  5  6  1  0
 94 95  2  0
 94  1  1  0
  3 96  1  0
 98 97  2  0
 99 97  1  0
100 97  1  0
M  END
> <chembl_id>
CHEMBL1200671

> <chembl_pref_name>
NAFARELIN ACETATE
