
     RDKit          2D

 14 15  0  0  1  0  0  0  0  0999 V2000
    1.2792    1.3583    0.0000 C   0  0  0  0  0  0  0  0  0  0  0  0
    0.4792    0.9000    0.0000 N   0  0  0  0  0  0  0  0  0  0  0  0
    1.2792    2.3000    0.0000 N   0  0  0  0  0  0  0  0  0  0  0  0
    2.0792    0.9000    0.0000 C   0  0  0  0  0  0  0  0  0  0  0  0
    2.8667   -0.4792    0.0000 C   0  0  0  0  0  0  0  0  0  0  0  0
    2.0792   -0.0167    0.0000 C   0  0  0  0  0  0  0  0  0  0  0  0
    2.9917   -1.4042    0.0000 S   0  0  0  0  0  0  0  0  0  0  0  0
    3.9250   -1.5792    0.0000 C   0  0  0  0  0  0  0  0  0  0  0  0
    3.6917   -0.0792    0.0000 C   0  0  0  0  0  0  0  0  0  0  0  0
    4.3417   -0.7542    0.0000 C   0  0  0  0  0  0  0  0  0  0  0  0
   -0.3208    1.3583    0.0000 C   0  0  0  0  0  0  0  0  0  0  0  0
    0.4792    2.7583    0.0000 C   0  0  0  0  0  0  0  0  0  0  0  0
    0.4792   -0.0167    0.0000 C   0  0  0  0  0  0  0  0  0  0  0  0
   -0.3208    2.3000    0.0000 C   0  0  0  0  0  0  0  0  0  0  0  0
  2  1  1  0
  3  1  2  0
  4  1  1  0
  5  6  1  0
  6  4  2  0
  7  5  1  0
  8  7  1  0
  9  5  2  0
 10  9  1  0
 11  2  1  0
 12  3  1  0
 13  2  1  0
 14 12  1  0
 11 14  1  0
 10  8  2  0
M  END
> <chembl_id>
CHEMBL1626223

> <chembl_pref_name>
PYRANTEL
