
     RDKit          2D

 33 36  0  0  1  0  0  0  0  0999 V2000
    2.7792   -4.0458    0.0000 C   0  0  0  0  0  0  0  0  0  0  0  0
    0.9333   -5.0917    0.0000 C   0  0  0  0  0  0  0  0  0  0  0  0
    2.7708   -4.7500    0.0000 C   0  0  0  0  0  0  0  0  0  0  0  0
    1.5458   -4.7417    0.0000 C   0  0  0  0  0  0  0  0  0  0  0  0
    2.1583   -5.1000    0.0000 C   0  0  0  0  0  0  0  0  0  0  0  0
    0.9333   -5.8042    0.0000 C   0  0  0  0  0  0  0  0  0  0  0  0
    2.1542   -5.8083    0.0000 C   0  0  0  0  0  0  0  0  0  0  0  0
    3.4542   -3.8333    0.0000 C   0  0  0  0  0  0  0  0  0  0  0  0
    2.1667   -3.6833    0.0000 C   0  0  0  0  0  0  0  0  0  0  0  0
    1.5417   -6.1583    0.0000 C   0  0  0  0  0  0  0  0  0  0  0  0
    1.5500   -4.0333    0.0000 C   0  0  0  0  0  0  0  0  0  0  0  0
    3.4417   -4.9792    0.0000 C   0  0  0  0  0  0  0  0  0  0  0  0
    0.3208   -4.7417    0.0000 C   0  0  0  0  0  0  0  0  0  0  0  0
    3.8625   -4.4083    0.0000 C   0  0  0  0  0  0  0  0  0  0  0  0
    5.2875   -2.7542    0.0000 C   0  0  0  0  0  0  0  0  0  0  0  0
    0.3208   -6.1542    0.0000 C   0  0  0  0  0  0  0  0  0  0  0  0
    5.2792   -2.0458    0.0000 O   0  0  0  0  0  0  0  0  0  0  0  0
    3.4500   -3.1250    0.0000 C   0  0  0  0  0  0  0  0  0  0  0  0
    4.0583   -2.7625    0.0000 C   0  0  0  0  0  0  0  0  0  0  0  0
    2.7667   -6.1625    0.0000 O   0  0  0  0  0  0  0  0  0  0  0  0
    4.6750   -3.1125    0.0000 C   0  0  0  0  0  0  0  0  0  0  0  0
    2.7750   -3.3375    0.0000 C   0  0  0  0  0  0  0  0  0  0  0  0
   -0.2875   -5.0917    0.0000 C   0  0  0  0  0  0  0  0  0  0  0  0
   -0.2875   -5.8042    0.0000 C   0  0  0  0  0  0  0  0  0  0  0  0
    0.9292   -4.3833    0.0000 C   0  0  0  0  0  0  0  0  0  0  0  0
    5.9000   -3.1042    0.0000 O   0  0  0  0  0  0  0  0  0  0  0  0
   -0.9042   -6.1542    0.0000 O   0  0  0  0  0  0  0  0  0  0  0  0
    2.8333   -2.7750    0.0000 C   0  0  0  0  0  0  0  0  0  0  0  0
    2.7667   -5.4542    0.0000 H   0  0  0  0  0  0  0  0  0  0  0  0
    1.5417   -5.4500    0.0000 H   0  0  0  0  0  0  0  0  0  0  0  0
    0.9292   -6.5042    0.0000 H   0  0  0  0  0  0  0  0  0  0  0  0
    2.1542   -4.3917    0.0000 H   0  0  0  0  0  0  0  0  0  0  0  0
    4.0667   -3.4750    0.0000 H   0  0  0  0  0  0  0  0  0  0  0  0
  2  4  1  0
  3  1  1  0
  4  5  1  0
  5  3  1  0
  6  2  1  0
  7  5  1  0
  8  1  1  0
  9  1  1  0
 10  7  1  0
 11  9  1  0
 12  3  1  0
 13  2  1  0
 14  8  1  0
 15 21  1  0
 16  6  1  0
 17 15  2  0
 18  8  1  0
 19 18  1  0
  7 20  1  6
 21 19  1  0
  1 22  1  1
 23 13  1  0
 24 16  1  0
  2 25  1  1
 26 15  1  0
 24 27  1  6
 18 28  1  6
  3 29  1  6
  4 30  1  6
  6 31  1  1
  5 32  1  1
  8 33  1  6
 11  4  1  0
 14 12  1  0
 10  6  1  0
 24 23  1  0
M  END
> <chembl_id>
CHEMBL240597

> <chembl_pref_name>
CHENODIOL
