
     RDKit          2D

 83 88  0  0  0  0  0  0  0  0999 V2000
   -4.9582   -8.9917    0.0000 C   0  0  0  0  0  0  0  0  0  0  0  0
   -5.3635   -7.7469    0.0000 N   0  0  0  0  0  0  0  0  0  0  0  0
   -4.7122   -8.2390    0.0000 C   0  0  0  0  0  0  0  0  0  0  0  0
   -5.7639   -8.9917    0.0000 C   0  0  0  0  0  0  0  0  0  0  0  0
   -6.0293   -8.2390    0.0000 C   0  0  0  0  0  0  0  0  0  0  0  0
   -4.2586   -9.4500    0.0000 C   0  0  0  0  0  0  0  0  0  0  0  0
   -5.3586   -6.9364    0.0000 C   0  0  0  0  0  0  0  0  0  0  0  0
   -3.5543   -9.0206    0.0000 N   0  0  0  0  0  0  0  0  0  0  0  0
   -6.7819   -7.8482    0.0000 C   0  0  0  0  0  0  0  0  0  0  0  0
   -6.7771   -4.4035    0.0000 C   0  0  0  0  0  0  0  0  0  0  0  0
   -6.0727   -3.9982    0.0000 C   0  0  0  0  0  0  0  0  0  0  0  0
   -6.4780   -9.3824    0.0000 C   0  0  0  0  0  0  0  0  0  0  0  0
   -4.2635  -10.2460    0.0000 O   0  0  0  0  0  0  0  0  0  0  0  0
   -3.9885   -7.8338    0.0000 C   0  0  0  0  0  0  0  0  0  0  0  0
   -7.5056   -3.9838    0.0000 O   0  0  0  0  0  0  0  0  0  0  0  0
   -4.6494   -6.5456    0.0000 C   0  0  0  0  0  0  0  0  0  0  0  0
   -6.7771   -5.2285    0.0000 O   0  0  0  0  0  0  0  0  0  0  0  0
   -5.3586   -4.4324    0.0000 C   0  0  0  0  0  0  0  0  0  0  0  0
   -5.3586   -5.2719    0.0000 C   0  0  0  0  0  0  0  0  0  0  0  0
   -7.4767   -8.2631    0.0000 C   0  0  0  0  0  0  0  0  0  0  0  0
   -6.7819   -7.0232    0.0000 C   0  0  0  0  0  0  0  0  0  0  0  0
   -2.8402   -9.4355    0.0000 C   0  0  0  0  0  0  0  0  0  0  0  0
   -8.1955   -7.0232    0.0000 C   0  0  0  0  0  0  0  0  0  0  0  0
   -4.6494   -5.6772    0.0000 C   0  0  0  0  0  0  0  0  0  0  0  0
   -7.4767   -6.6035    0.0000 C   0  0  0  0  0  0  0  0  0  0  0  0
   -8.1955   -7.8482    0.0000 C   0  0  0  0  0  0  0  0  0  0  0  0
   -8.9385   -6.6035    0.0000 F   0  0  0  0  0  0  0  0  0  0  0  0
   -4.6784   -3.9982    0.0000 O   0  0  0  0  0  0  0  0  0  0  0  0
   -3.9451   -5.3588    0.0000 O   0  0  0  0  0  0  0  0  0  0  0  0
   -6.4780  -10.2074    0.0000 C   0  0  0  0  0  0  0  0  0  0  0  0
   -7.1872   -8.9772    0.0000 C   0  0  0  0  0  0  0  0  0  0  0  0
   -3.2744   -8.2390    0.0000 C   0  0  0  0  0  0  0  0  0  0  0  0
   -3.9885   -6.9943    0.0000 C   0  0  0  0  0  0  0  0  0  0  0  0
   -2.1214   -9.0206    0.0000 C   0  0  0  0  0  0  0  0  0  0  0  0
   -2.8402  -10.2653    0.0000 C   0  0  0  0  0  0  0  0  0  0  0  0
   -7.1872  -10.6272    0.0000 C   0  0  0  0  0  0  0  0  0  0  0  0
   -7.9350   -9.3824    0.0000 C   0  0  0  0  0  0  0  0  0  0  0  0
   -2.1214  -10.6851    0.0000 C   0  0  0  0  0  0  0  0  0  0  0  0
   -1.4073   -9.4259    0.0000 C   0  0  0  0  0  0  0  0  0  0  0  0
   -7.9350  -10.2074    0.0000 C   0  0  0  0  0  0  0  0  0  0  0  0
   -1.4073  -10.2653    0.0000 C   0  0  0  0  0  0  0  0  0  0  0  0
    3.4592   -9.0654    0.0000 C   0  0  0  0  0  0  0  0  0  0  0  0
    3.0539   -7.8207    0.0000 N   0  0  0  0  0  0  0  0  0  0  0  0
    3.7053   -8.3128    0.0000 C   0  0  0  0  0  0  0  0  0  0  0  0
    2.6535   -9.0654    0.0000 C   0  0  0  0  0  0  0  0  0  0  0  0
    2.3882   -8.3128    0.0000 C   0  0  0  0  0  0  0  0  0  0  0  0
    4.1588   -9.5237    0.0000 C   0  0  0  0  0  0  0  0  0  0  0  0
    3.0588   -7.0101    0.0000 C   0  0  0  0  0  0  0  0  0  0  0  0
    4.8632   -9.0943    0.0000 N   0  0  0  0  0  0  0  0  0  0  0  0
    1.6355   -7.9220    0.0000 C   0  0  0  0  0  0  0  0  0  0  0  0
    1.6404   -4.4772    0.0000 C   0  0  0  0  0  0  0  0  0  0  0  0
    2.3447   -4.0720    0.0000 C   0  0  0  0  0  0  0  0  0  0  0  0
    1.9395   -9.4562    0.0000 C   0  0  0  0  0  0  0  0  0  0  0  0
    4.1539  -10.3197    0.0000 O   0  0  0  0  0  0  0  0  0  0  0  0
    4.4289   -7.9075    0.0000 C   0  0  0  0  0  0  0  0  0  0  0  0
    0.9118   -4.0575    0.0000 O   0  0  0  0  0  0  0  0  0  0  0  0
    3.7680   -6.6193    0.0000 C   0  0  0  0  0  0  0  0  0  0  0  0
    1.6404   -5.3022    0.0000 O   0  0  0  0  0  0  0  0  0  0  0  0
    3.0588   -4.5062    0.0000 C   0  0  0  0  0  0  0  0  0  0  0  0
    3.0588   -5.3457    0.0000 C   0  0  0  0  0  0  0  0  0  0  0  0
    0.9408   -8.3368    0.0000 C   0  0  0  0  0  0  0  0  0  0  0  0
    1.6355   -7.0970    0.0000 C   0  0  0  0  0  0  0  0  0  0  0  0
    5.5772   -9.5092    0.0000 C   0  0  0  0  0  0  0  0  0  0  0  0
    0.2220   -7.0970    0.0000 C   0  0  0  0  0  0  0  0  0  0  0  0
    3.7680   -5.7509    0.0000 C   0  0  0  0  0  0  0  0  0  0  0  0
    0.9408   -6.6772    0.0000 C   0  0  0  0  0  0  0  0  0  0  0  0
    0.2220   -7.9220    0.0000 C   0  0  0  0  0  0  0  0  0  0  0  0
   -0.5211   -6.6772    0.0000 F   0  0  0  0  0  0  0  0  0  0  0  0
    3.7391   -4.0720    0.0000 O   0  0  0  0  0  0  0  0  0  0  0  0
    4.4724   -5.4325    0.0000 O   0  0  0  0  0  0  0  0  0  0  0  0
    1.9395  -10.2812    0.0000 C   0  0  0  0  0  0  0  0  0  0  0  0
    1.2303   -9.0509    0.0000 C   0  0  0  0  0  0  0  0  0  0  0  0
    5.1430   -8.3128    0.0000 C   0  0  0  0  0  0  0  0  0  0  0  0
    4.4289   -7.0680    0.0000 C   0  0  0  0  0  0  0  0  0  0  0  0
    6.2961   -9.0943    0.0000 C   0  0  0  0  0  0  0  0  0  0  0  0
    5.5772  -10.3391    0.0000 C   0  0  0  0  0  0  0  0  0  0  0  0
    1.2303  -10.7009    0.0000 C   0  0  0  0  0  0  0  0  0  0  0  0
    0.4825   -9.4562    0.0000 C   0  0  0  0  0  0  0  0  0  0  0  0
    6.2961  -10.7588    0.0000 C   0  0  0  0  0  0  0  0  0  0  0  0
    7.0101   -9.4996    0.0000 C   0  0  0  0  0  0  0  0  0  0  0  0
    0.4825  -10.2812    0.0000 C   0  0  0  0  0  0  0  0  0  0  0  0
    7.0101  -10.3391    0.0000 C   0  0  0  0  0  0  0  0  0  0  0  0
   -0.6175   -4.2697    0.0000 Ca  0  0  0  0  0 15  0  0  0  0  0  0
  2  3  1  0
  3  1  2  0
  4  1  1  0
  5  4  2  0
  6  1  1  0
  7  2  1  0
  8  6  1  0
  9  5  1  0
 10 11  1  0
 11 18  1  0
 12  4  1  0
 13  6  2  0
 14  3  1  0
 15 10  1  0
 16  7  1  0
 17 10  2  0
 18 19  1  0
 19 24  1  0
 20  9  1  0
 21  9  2  0
 22  8  1  0
 23 26  1  0
 24 16  1  6
 25 21  1  0
 26 20  2  0
 27 23  1  0
 18 28  1  6
 29 24  1  0
 30 12  2  0
 31 12  1  0
 32 14  1  0
 33 14  1  0
 34 22  1  0
 35 22  2  0
 36 30  1  0
 37 31  2  0
 38 35  1  0
 39 34  2  0
 40 36  2  0
 41 39  1  0
  5  2  1  0
 37 40  1  0
 25 23  2  0
 38 41  2  0
 43 44  1  0
 44 42  2  0
 45 42  1  0
 46 45  2  0
 47 42  1  0
 48 43  1  0
 49 47  1  0
 50 46  1  0
 51 52  1  0
 52 59  1  0
 53 45  1  0
 54 47  2  0
 55 44  1  0
 56 51  1  0
 57 48  1  0
 58 51  2  0
 59 60  1  0
 60 65  1  0
 61 50  1  0
 62 50  2  0
 63 49  1  0
 64 67  1  0
 65 57  1  6
 66 62  1  0
 67 61  2  0
 68 64  1  0
 59 69  1  6
 70 65  1  0
 71 53  2  0
 72 53  1  0
 73 55  1  0
 74 55  1  0
 75 63  1  0
 76 63  2  0
 77 71  1  0
 78 72  2  0
 79 76  1  0
 80 75  2  0
 81 77  2  0
 82 80  1  0
 46 43  1  0
 78 81  1  0
 66 64  2  0
 79 82  2  0
M  CHG  3  15  -1  56  -1  83   2
M  END
> <chembl_id>
CHEMBL393220

> <chembl_pref_name>
ATORVASTATIN CALCIUM
