
     RDKit          2D

 17 12  0  0  0  0  0  0  0  0999 V2000
   -1.6474    2.1814    0.0000 Al  0  0  0  0  0 15  0  0  0  0  0  0
    1.3126   -2.3451    0.0000 S   0  0  0  0  0  0  0  0  0  0  0  0
    1.2993   -3.8450    0.0000 O   0  0  0  0  0  0  0  0  0  0  0  0
   -0.1874   -2.3318    0.0000 O   0  0  0  0  0  0  0  0  0  0  0  0
    1.3259   -0.8451    0.0000 O   0  0  0  0  0  0  0  0  0  0  0  0
    2.8125   -2.3584    0.0000 O   0  0  0  0  0  0  0  0  0  0  0  0
    1.3525    2.1548    0.0000 S   0  0  0  0  0  0  0  0  0  0  0  0
    1.3392    0.6548    0.0000 O   0  0  0  0  0  0  0  0  0  0  0  0
   -0.1474    2.1681    0.0000 O   0  0  0  0  0  0  0  0  0  0  0  0
    1.3658    3.6547    0.0000 O   0  0  0  0  0  0  0  0  0  0  0  0
    2.8524    2.1414    0.0000 O   0  0  0  0  0  0  0  0  0  0  0  0
   -3.1872   -2.3052    0.0000 S   0  0  0  0  0  0  0  0  0  0  0  0
   -3.2005   -3.8051    0.0000 O   0  0  0  0  0  0  0  0  0  0  0  0
   -4.6872   -2.2918    0.0000 O   0  0  0  0  0  0  0  0  0  0  0  0
   -1.6873   -2.3185    0.0000 O   0  0  0  0  0  0  0  0  0  0  0  0
   -3.1739   -0.8052    0.0000 O   0  0  0  0  0  0  0  0  0  0  0  0
    2.8790    5.1413    0.0000 Al  0  0  0  0  0 15  0  0  0  0  0  0
  3  2  1  0
  4  2  1  0
  5  2  2  0
  6  2  2  0
  8  7  1  0
  9  7  1  0
 10  7  2  0
 11  7  2  0
 13 12  1  0
 14 12  1  0
 15 12  2  0
 16 12  2  0
M  CHG  8   1   3   3  -1   4  -1   8  -1   9  -1  13  -1  14  -1  17   3
M  END
> <chembl_id>
CHEMBL3833402

> <chembl_pref_name>
ALUMINUM SULFATE
