
     RDKit          2D

 39 40  0  0  0  0  0  0  0  0999 V2000
    7.9000   -9.9500    0.0000 Na  0  0  0  0  0 15  0  0  0  0  0  0
    5.1875   -7.8417    0.0000 C   0  0  0  0  0  0  0  0  0  0  0  0
    5.8917   -8.5500    0.0000 N   0  0  0  0  0  0  0  0  0  0  0  0
    5.1875   -8.5500    0.0000 C   0  0  0  0  0  0  0  0  0  0  0  0
    5.8958   -7.8417    0.0000 C   0  0  0  0  0  0  0  0  0  0  0  0
    2.4750   -6.9917    0.0000 C   0  0  0  0  0  0  0  0  0  0  0  0
    8.9583   -8.9000    0.0000 C   0  0  0  0  0  0  0  0  0  0  0  0
    6.5042   -8.9042    0.0000 C   0  0  0  0  0  0  0  0  0  0  0  0
    4.5667   -7.4875    0.0000 N   0  0  0  0  0  0  0  0  0  0  0  0
    1.8542   -6.6375    0.0000 C   0  0  0  0  0  0  0  0  0  0  0  0
    2.6625   -7.6750    0.0000 S   0  0  0  0  0  0  0  0  0  0  0  0
    3.1583   -6.8083    0.0000 S   0  0  0  0  0  0  0  0  0  0  0  0
    9.5375   -8.4833    0.0000 N   0  0  0  0  0  0  0  0  0  0  0  0
    9.1792   -9.5792    0.0000 N   0  0  0  0  0  0  0  0  0  0  0  0
    9.8917   -9.5792    0.0000 N   0  0  0  0  0  0  0  0  0  0  0  0
    3.3417   -7.4875    0.0000 C   0  0  0  0  0  0  0  0  0  0  0  0
   10.1083   -8.9000    0.0000 N   0  0  0  0  0  0  0  0  0  0  0  0
    6.5042   -7.4875    0.0000 S   0  0  0  0  0  0  0  0  0  0  0  0
    7.1167   -8.5500    0.0000 C   0  0  0  0  0  0  0  0  0  0  0  0
    3.9542   -7.8417    0.0000 C   0  0  0  0  0  0  0  0  0  0  0  0
    1.8542   -5.9292    0.0000 C   0  0  0  0  0  0  0  0  0  0  0  0
    6.5042   -9.6125    0.0000 C   0  0  0  0  0  0  0  0  0  0  0  0
    1.2417   -6.9917    0.0000 C   0  0  0  0  0  0  0  0  0  0  0  0
    8.3458   -8.5458    0.0000 S   0  0  0  0  0  0  0  0  0  0  0  0
    7.1167   -7.8417    0.0000 C   0  0  0  0  0  0  0  0  0  0  0  0
    4.6833   -9.0500    0.0000 O   0  0  0  0  0  0  0  0  0  0  0  0
    7.7333   -8.9000    0.0000 C   0  0  0  0  0  0  0  0  0  0  0  0
    5.1792   -7.1292    0.0000 O   0  0  0  0  0  0  0  0  0  0  0  0
    1.2417   -5.5750    0.0000 O   0  0  0  0  0  0  0  0  0  0  0  0
    7.1208   -9.9667    0.0000 O   0  0  0  0  0  0  0  0  0  0  0  0
    3.9583   -8.5500    0.0000 O   0  0  0  0  0  0  0  0  0  0  0  0
    2.4667   -5.5708    0.0000 O   0  0  0  0  0  0  0  0  0  0  0  0
    5.8917   -9.9667    0.0000 O   0  0  0  0  0  0  0  0  0  0  0  0
    1.2458   -7.7000    0.0000 O   0  0  0  0  0  0  0  0  0  0  0  0
    0.6292   -6.6375    0.0000 N   0  0  0  0  0  0  0  0  0  0  0  0
    9.5375   -7.7750    0.0000 C   0  0  0  0  0  0  0  0  0  0  0  0
    4.5667   -6.7792    0.0000 C   0  0  0  0  0  0  0  0  0  0  0  0
    5.8917   -7.1292    0.0000 H   0  0  0  0  0  0  0  0  0  0  0  0
    0.1833   -5.5625    0.0000 Na  0  0  0  0  0 15  0  0  0  0  0  0
  3  4  1  0
  4  2  1  0
  5  2  1  0
  6 11  1  0
  7 24  1  0
  8  3  1  0
  2  9  1  1
 10  6  2  0
 11 16  1  0
 12 16  1  0
 13  7  1  0
 14  7  2  0
 15 14  1  0
 16 20  1  0
 17 13  1  0
 18  5  1  0
 19  8  2  0
 20  9  1  0
 21 10  1  0
 22  8  1  0
 23 10  1  0
 24 27  1  0
 25 18  1  0
 26  4  2  0
 27 19  1  0
 28  2  1  0
 29 21  1  0
 30 22  1  0
 31 20  2  0
 32 21  2  0
 33 22  2  0
 34 23  2  0
 35 23  1  0
 36 13  1  0
 37 28  1  0
  5 38  1  6
  5  3  1  0
 25 19  1  0
  6 12  1  0
 17 15  2  0
M  CHG  4   1   1  29  -1  30  -1  39   1
M  END
> <chembl_id>
CHEMBL1201098

> <chembl_pref_name>
CEFOTETAN DISODIUM
