
     RDKit          2D

 34 36  0  0  0  0  0  0  0  0999 V2000
   -3.6458  -27.6000    0.0000 N   0  0  0  0  0  0  0  0  0  0  0  0
   -2.9333  -27.1750    0.0000 C   0  0  0  0  0  0  0  0  0  0  0  0
   -4.4708  -27.5917    0.0000 C   0  0  0  0  0  0  0  0  0  0  0  0
   -2.2208  -27.5792    0.0000 C   0  0  0  0  0  0  0  0  0  0  0  0
   -5.1958  -27.1792    0.0000 C   0  0  0  0  0  0  0  0  0  0  0  0
   -3.6458  -28.4208    0.0000 C   0  0  0  0  0  0  0  0  0  0  0  0
   -4.4708  -28.4208    0.0000 C   0  0  0  0  0  0  0  0  0  0  0  0
   -1.5083  -27.1542    0.0000 N   0  0  0  0  0  0  0  0  0  0  0  0
   -4.4958  -22.6417    0.0000 C   0  0  0  0  0  0  0  0  0  0  0  0
   -5.1958  -26.3542    0.0000 N   0  0  0  0  0  0  0  0  0  0  0  0
   -2.9458  -26.3500    0.0000 O   0  0  0  0  0  0  0  0  0  0  0  0
   -3.7833  -22.2292    0.0000 N   0  0  0  0  0  0  0  0  0  0  0  0
   -4.4875  -23.4667    0.0000 C   0  0  0  0  0  0  0  0  0  0  0  0
   -0.0833  -27.1292    0.0000 C   0  0  0  0  0  0  0  0  0  0  0  0
   -5.9083  -27.5917    0.0000 O   0  0  0  0  0  0  0  0  0  0  0  0
   -0.0958  -26.3042    0.0000 O   0  0  0  0  0  0  0  0  0  0  0  0
   -0.7875  -27.5542    0.0000 C   0  0  0  0  0  0  0  0  0  0  0  0
   -2.2083  -28.4042    0.0000 C   0  0  0  0  0  0  0  0  0  0  0  0
   -3.7708  -23.8792    0.0000 C   0  0  0  0  0  0  0  0  0  0  0  0
   -5.2083  -23.8917    0.0000 C   0  0  0  0  0  0  0  0  0  0  0  0
   -5.2083  -22.2375    0.0000 N   0  0  0  0  0  0  0  0  0  0  0  0
   -4.4833  -25.9417    0.0000 C   0  0  0  0  0  0  0  0  0  0  0  0
   -4.4833  -25.1167    0.0000 C   0  0  0  0  0  0  0  0  0  0  0  0
   -3.0625  -22.6375    0.0000 O   0  0  0  0  0  0  0  0  0  0  0  0
   -3.7708  -24.7042    0.0000 C   0  0  0  0  0  0  0  0  0  0  0  0
   -5.1958  -24.7125    0.0000 C   0  0  0  0  0  0  0  0  0  0  0  0
    0.6417  -27.5375    0.0000 O   0  0  0  0  0  0  0  0  0  0  0  0
   -2.9083  -28.8250    0.0000 C   0  0  0  0  0  0  0  0  0  0  0  0
   -1.4833  -28.7958    0.0000 C   0  0  0  0  0  0  0  0  0  0  0  0
    1.3500  -27.1125    0.0000 C   0  0  0  0  0  0  0  0  0  0  0  0
    2.0667  -27.5167    0.0000 C   0  0  0  0  0  0  0  0  0  0  0  0
   -1.4708  -29.6292    0.0000 C   0  0  0  0  0  0  0  0  0  0  0  0
   -2.9000  -29.6417    0.0000 C   0  0  0  0  0  0  0  0  0  0  0  0
   -2.1833  -30.0458    0.0000 C   0  0  0  0  0  0  0  0  0  0  0  0
  2  1  1  0
  3  1  1  0
  4  2  1  0
  3  5  1  1
  6  1  1  0
  7  6  1  0
  4  8  1  6
  9 13  1  0
 10  5  1  0
 11  2  2  0
 12  9  2  0
 13 20  1  0
 14 17  1  0
 15  5  2  0
 16 14  2  0
 17  8  1  0
 18  4  1  0
 19 25  1  0
 20 26  2  0
 21  9  1  0
 22 10  1  0
 23 22  1  0
 24 12  1  0
 25 23  2  0
 26 23  1  0
 27 14  1  0
 28 18  1  0
 29 18  1  0
 30 27  1  0
 31 30  1  0
 32 29  1  0
 33 28  1  0
 34 32  1  0
  3  7  1  0
 33 34  1  0
 19 13  2  0
M  END
> <chembl_id>
CHEMBL522038

> <chembl_pref_name>
XIMELAGATRAN
