
     RDKit          2D

 33 33  0  0  0  0  0  0  0  0999 V2000
    5.1000   -4.6417    0.0000 C   0  0  0  0  0  0  0  0  0  0  0  0
    5.7167   -5.7250    0.0000 C   0  0  0  0  0  0  0  0  0  0  0  0
    4.4750   -5.7125    0.0000 C   0  0  0  0  0  0  0  0  0  0  0  0
    5.7250   -5.0042    0.0000 C   0  0  0  0  0  0  0  0  0  0  0  0
    4.4667   -4.9917    0.0000 C   0  0  0  0  0  0  0  0  0  0  0  0
    5.0917   -6.0750    0.0000 C   0  0  0  0  0  0  0  0  0  0  0  0
    5.1042   -3.9292    0.0000 N   0  0  0  0  0  0  0  0  0  0  0  0
    6.3250   -6.0750    0.0000 C   0  0  0  0  0  0  0  0  0  0  0  0
    3.8542   -6.0792    0.0000 C   0  0  0  0  0  0  0  0  0  0  0  0
    4.5000   -3.5750    0.0000 C   0  0  0  0  0  0  0  0  0  0  0  0
    6.9375   -5.7250    0.0000 N   0  0  0  0  0  0  0  0  0  0  0  0
    3.2417   -5.7167    0.0000 N   0  0  0  0  0  0  0  0  0  0  0  0
    6.3292   -6.7792    0.0000 O   0  0  0  0  0  0  0  0  0  0  0  0
    3.8542   -6.7125    0.0000 O   0  0  0  0  0  0  0  0  0  0  0  0
    4.4875   -2.8667    0.0000 O   0  0  0  0  0  0  0  0  0  0  0  0
    3.8625   -4.6375    0.0000 I   0  0  0  0  0  0  0  0  0  0  0  0
    5.0917   -6.7792    0.0000 I   0  0  0  0  0  0  0  0  0  0  0  0
    6.3375   -4.6500    0.0000 I   0  0  0  0  0  0  0  0  0  0  0  0
    7.5417   -6.0917    0.0000 C   0  0  0  0  0  0  0  0  0  0  0  0
    2.6292   -6.0917    0.0000 C   0  0  0  0  0  0  0  0  0  0  0  0
    8.1667   -5.7542    0.0000 C   0  0  0  0  0  0  0  0  0  0  0  0
    2.0042   -5.7375    0.0000 C   0  0  0  0  0  0  0  0  0  0  0  0
    5.7167   -3.5750    0.0000 C   0  0  0  0  0  0  0  0  0  0  0  0
    3.8667   -3.9042    0.0000 C   0  0  0  0  0  0  0  0  0  0  0  0
    8.1792   -5.0500    0.0000 O   0  0  0  0  0  0  0  0  0  0  0  0
    2.0000   -5.0375    0.0000 O   0  0  0  0  0  0  0  0  0  0  0  0
    3.2167   -3.5542    0.0000 O   0  0  0  0  0  0  0  0  0  0  0  0
    9.3792   -5.7625    0.0000 O   0  0  0  0  0  0  0  0  0  0  0  0
    0.7625   -5.6667    0.0000 O   0  0  0  0  0  0  0  0  0  0  0  0
    6.9292   -3.6000    0.0000 O   0  0  0  0  0  0  0  0  0  0  0  0
    1.3750   -6.0667    0.0000 C   0  0  0  0  0  0  0  0  0  0  0  0
    8.7625   -6.1167    0.0000 C   0  0  0  0  0  0  0  0  0  0  0  0
    6.3167   -3.9417    0.0000 C   0  0  0  0  0  0  0  0  0  0  0  0
  2  4  2  0
  3  5  1  0
  4  1  1  0
  5  1  2  0
  6  3  2  0
  7  1  1  0
  8  2  1  0
  9  3  1  0
 10  7  1  0
 11  8  1  0
 12  9  1  0
 13  8  2  0
 14  9  2  0
 15 10  2  0
 16  5  1  0
 17  6  1  0
 18  4  1  0
 19 11  1  0
 20 12  1  0
 21 19  1  0
 22 20  1  0
 23  7  1  0
 24 10  1  0
 25 21  1  0
 26 22  1  0
 27 24  1  0
 28 32  1  0
 29 31  1  0
 30 33  1  0
 31 22  1  0
 32 21  1  0
 33 23  1  0
  6  2  1  0
M  END
> <chembl_id>
CHEMBL1200614

> <chembl_pref_name>
IOVERSOL
