
     RDKit          2D

 32 31  0  0  0  0  0  0  0  0999 V2000
    4.0955  -12.2866    0.0000 O   0  0  0  0  0  0  0  0  0  0  0  0
    0.6503   -9.5461    0.0000 C   0  0  0  0  0  0  0  0  0  0  0  0
    0.2378   -8.8327    0.0000 O   0  0  0  0  0  0  0  0  0  0  0  0
    0.2378  -10.2548    0.0000 C   0  0  0  0  0  0  0  0  0  0  0  0
   -0.9997   -9.5461    0.0000 C   0  0  0  0  0  0  0  0  0  0  0  0
   -0.5824  -10.2548    0.0000 C   0  0  0  0  0  0  0  0  0  0  0  0
    1.3589   -9.1288    0.0000 C   0  0  0  0  0  0  0  0  0  0  0  0
    2.7905   -9.1094    0.0000 C   0  0  0  0  0  0  0  0  0  0  0  0
    2.0820   -9.5316    0.0000 N   0  0  0  0  0  0  0  0  0  0  0  0
   -0.5824   -8.8327    0.0000 C   0  0  0  0  0  0  0  0  0  0  0  0
    4.1786   -9.0269    0.0000 N   0  0  0  0  0  0  0  0  0  0  0  0
    3.5088   -9.5123    0.0000 C   0  0  0  0  0  0  0  0  0  0  0  0
    4.8434   -9.5123    0.0000 C   0  0  0  0  0  0  0  0  0  0  0  0
    2.7809   -8.2844    0.0000 O   0  0  0  0  0  0  0  0  0  0  0  0
    3.7612  -10.2985    0.0000 C   0  0  0  0  0  0  0  0  0  0  0  0
    1.3491   -8.2989    0.0000 C   0  0  0  0  0  0  0  0  0  0  0  0
   -0.9949   -8.1145    0.0000 S   0  0  0  0  0  0  0  0  0  0  0  0
    4.5862  -10.2985    0.0000 C   0  0  0  0  0  0  0  0  0  0  0  0
   -1.8248   -9.5461    0.0000 O   0  0  0  0  0  0  0  0  0  0  0  0
    0.6552  -10.9730    0.0000 O   0  0  0  0  0  0  0  0  0  0  0  0
   -0.9949  -10.9730    0.0000 O   0  0  0  0  0  0  0  0  0  0  0  0
    4.1737   -8.2019    0.0000 C   0  0  0  0  0  0  0  0  0  0  0  0
    2.0626   -7.8816    0.0000 O   0  0  0  0  0  0  0  0  0  0  0  0
    5.2997  -10.7061    0.0000 C   0  0  0  0  0  0  0  0  0  0  0  0
   -1.8199   -8.1145    0.0000 C   0  0  0  0  0  0  0  0  0  0  0  0
    0.6310   -7.8913    0.0000 C   0  0  0  0  0  0  0  0  0  0  0  0
    6.0131  -10.2985    0.0000 C   0  0  0  0  0  0  0  0  0  0  0  0
    6.7265  -10.7158    0.0000 C   0  0  0  0  0  0  0  0  0  0  0  0
    1.3589   -9.9587    0.0000 H   0  0  0  0  0  0  0  0  0  0  0  0
    2.0723   -8.7115    0.0000 H   0  0  0  0  0  0  0  0  0  0  0  0
    2.7858   -9.9199    0.0000 H   0  0  0  0  0  0  0  0  0  0  0  0
    2.5430  -11.5360    0.0000 Cl  0  0  0  0  0  0  0  0  0  0  0  0
  3  2  1  0
  4  2  1  0
  5 10  1  0
  6  4  1  0
  7  2  1  0
  8  9  1  0
  9  7  1  0
 10  3  1  0
 11 12  1  0
 12  8  1  0
 13 11  1  0
 14  8  2  0
 15 12  1  0
 16  7  1  0
 10 17  1  1
 18 15  1  0
  5 19  1  1
  4 20  1  6
  6 21  1  6
 22 11  1  0
 16 23  1  1
 18 24  1  6
 25 17  1  0
 26 16  1  0
 27 24  1  0
 28 27  1  0
  2 29  1  1
  7 30  1  6
 12 31  1  6
  5  6  1  0
 13 18  1  0
M  END
> <chembl_id>
CHEMBL3989551

> <chembl_pref_name>
LINCOMYCIN HYDROCHLORIDE
