
     RDKit          2D

 12  4  0  0  0  0  0  0  0  0999 V2000
   15.5571  -10.2241    0.0000 O   0  0  0  0  0  0  0  0  0  0  0  0
   11.1624   -7.9502    0.0000 S   0  0  0  0  0  0  0  0  0  0  0  0
   11.5690   -7.2290    0.0000 S   0  0  0  0  0  0  0  0  0  0  0  0
   11.8740   -8.3617    0.0000 O   0  0  0  0  0  0  0  0  0  0  0  0
   10.4508   -8.3617    0.0000 O   0  0  0  0  0  0  0  0  0  0  0  0
   10.7412   -7.2290    0.0000 O   0  0  0  0  0  0  0  0  0  0  0  0
    9.5794   -8.4004    0.0000 Na  0  0  0  0  0 15  0  0  0  0  0  0
   12.5856   -8.3617    0.0000 Na  0  0  0  0  0 15  0  0  0  0  0  0
    9.6348  -10.1946    0.0000 O   0  0  0  0  0  0  0  0  0  0  0  0
   10.8723  -10.2241    0.0000 O   0  0  0  0  0  0  0  0  0  0  0  0
   12.3750  -10.2241    0.0000 O   0  0  0  0  0  0  0  0  0  0  0  0
   13.4652  -10.2241    0.0000 O   0  0  0  0  0  0  0  0  0  0  0  0
  3  2  2  0
  4  2  1  0
  5  2  1  0
  6  2  2  0
M  CHG  4   4  -1   5  -1   7   1   8   1
M  END
> <chembl_id>
CHEMBL2096650

> <chembl_pref_name>
SODIUM THIOSULFATE
