
     RDKit          2D

 27 28  0  0  0  0  0  0  0  0999 V2000
    4.9167   -5.3792    0.0000 Cl  0  0  0  0  0  0  0  0  0  0  0  0
    6.5000   -3.2417    0.0000 C   0  0  0  0  0  0  0  0  0  0  0  0
    6.4917   -2.5292    0.0000 C   0  0  0  0  0  0  0  0  0  0  0  0
    5.2750   -3.9500    0.0000 N   0  0  0  0  0  0  0  0  0  0  0  0
    5.8833   -2.8917    0.0000 C   0  0  0  0  0  0  0  0  0  0  0  0
    6.4958   -3.9542    0.0000 C   0  0  0  0  0  0  0  0  0  0  0  0
    7.1125   -3.5917    0.0000 C   0  0  0  0  0  0  0  0  0  0  0  0
    5.8792   -2.1792    0.0000 O   0  0  0  0  0  0  0  0  0  0  0  0
    5.2667   -3.2458    0.0000 C   0  0  0  0  0  0  0  0  0  0  0  0
    5.8875   -4.3042    0.0000 C   0  0  0  0  0  0  0  0  0  0  0  0
    4.6625   -4.3083    0.0000 C   0  0  0  0  0  0  0  0  0  0  0  0
    2.2125   -5.0250    0.0000 C   0  0  0  0  0  0  0  0  0  0  0  0
    7.1042   -2.1750    0.0000 O   0  0  0  0  0  0  0  0  0  0  0  0
    3.4375   -4.3125    0.0000 C   0  0  0  0  0  0  0  0  0  0  0  0
    1.6000   -5.3792    0.0000 N   0  0  0  0  0  0  0  0  0  0  0  0
    4.0500   -3.9542    0.0000 C   0  0  0  0  0  0  0  0  0  0  0  0
    2.2125   -4.3125    0.0000 C   0  0  0  0  0  0  0  0  0  0  0  0
    2.8250   -5.3792    0.0000 C   0  0  0  0  0  0  0  0  0  0  0  0
    2.8250   -3.9583    0.0000 C   0  0  0  0  0  0  0  0  0  0  0  0
    3.4375   -5.0250    0.0000 C   0  0  0  0  0  0  0  0  0  0  0  0
    7.7167   -3.2375    0.0000 C   0  0  0  0  0  0  0  0  0  0  0  0
    7.1125   -4.3000    0.0000 C   0  0  0  0  0  0  0  0  0  0  0  0
    7.7208   -2.5250    0.0000 C   0  0  0  0  0  0  0  0  0  0  0  0
    8.3333   -2.1667    0.0000 C   0  0  0  0  0  0  0  0  0  0  0  0
    7.7208   -4.6500    0.0000 C   0  0  0  0  0  0  0  0  0  0  0  0
    8.3292   -3.5875    0.0000 C   0  0  0  0  0  0  0  0  0  0  0  0
    8.3333   -4.2958    0.0000 C   0  0  0  0  0  0  0  0  0  0  0  0
  3  2  1  0
  4  9  1  0
  5  2  1  0
  6  2  1  0
  7  2  1  0
  8  3  2  0
  9  5  1  0
 10  6  1  0
 11  4  1  0
 12 17  2  0
 13  3  1  0
 14 16  1  0
 15 12  1  0
 16 11  1  0
 17 19  1  0
 18 20  2  0
 19 14  2  0
 20 14  1  0
 21  7  1  0
 22  7  2  0
 23 13  1  0
 24 23  1  0
 25 22  1  0
 26 21  2  0
 27 26  1  0
 10  4  1  0
 27 25  2  0
 18 12  1  0
M  END
> <chembl_id>
CHEMBL1201047

> <chembl_pref_name>
ANILERIDINE HYDROCHLORIDE
