
     RDKit          2D

 44 48  0  0  0  0  0  0  0  0999 V2000
   -9.2143    0.7714    0.0000 C   0  0  0  0  0  0  0  0  0  0  0  0
   -9.9288    0.3589    0.0000 C   0  0  0  0  0  0  0  0  0  0  0  0
   -9.9288   -0.4661    0.0000 C   0  0  0  0  0  0  0  0  0  0  0  0
   -9.2143   -0.8786    0.0000 C   0  0  0  0  0  0  0  0  0  0  0  0
   -8.4998   -0.4661    0.0000 C   0  0  0  0  0  0  0  0  0  0  0  0
   -8.4998    0.3589    0.0000 C   0  0  0  0  0  0  0  0  0  0  0  0
   -9.2143    1.5964    0.0000 C   0  0  0  0  0  0  0  0  0  0  0  0
   -8.4998    2.0089    0.0000 C   0  0  0  0  0  0  0  0  0  0  0  0
   -8.4998    2.8339    0.0000 C   0  0  0  0  0  0  0  0  0  0  0  0
   -9.2143    3.2464    0.0000 C   0  0  0  0  0  0  0  0  0  0  0  0
   -9.9288    2.8339    0.0000 C   0  0  0  0  0  0  0  0  0  0  0  0
   -9.9288    2.0089    0.0000 C   0  0  0  0  0  0  0  0  0  0  0  0
   -7.7853    0.7714    0.0000 N   0  0  0  0  0  0  0  0  0  0  0  0
   -7.0708    0.3589    0.0000 C   0  0  0  0  0  0  0  0  0  0  0  0
   -6.3564    0.7714    0.0000 O   0  0  0  0  0  0  0  0  0  0  0  0
   -7.0708   -0.4661    0.0000 O   0  0  0  0  0  0  0  0  0  0  0  0
   -5.6419    0.3590    0.0000 C   0  0  0  0  0  0  0  0  0  0  0  0
   -5.6419   -0.4660    0.0000 C   0  0  0  0  0  0  0  0  0  0  0  0
   -4.9274   -0.8785    0.0000 C   0  0  0  0  0  0  0  0  0  0  0  0
   -4.2129   -0.4661    0.0000 N   0  0  0  0  0  0  0  0  0  0  0  0
   -4.2129    0.3589    0.0000 C   0  0  0  0  0  0  0  0  0  0  0  0
   -4.9274    0.7715    0.0000 C   0  0  0  0  0  0  0  0  0  0  0  0
   -3.4984   -0.8785    0.0000 C   0  0  0  0  0  0  0  0  0  0  0  0
   -2.7840   -0.4660    0.0000 C   0  0  0  0  0  0  0  0  0  0  0  0
   -2.7840    0.3590    0.0000 N   0  0  0  0  0  0  0  0  0  0  0  0
   -2.0695    0.7715    0.0000 C   0  0  0  0  0  0  0  0  0  0  0  0
   -3.4985    0.7715    0.0000 C   0  0  0  0  0  0  0  0  0  0  0  0
   -2.0695    1.5965    0.0000 O   0  0  0  0  0  0  0  0  0  0  0  0
   -1.3550    0.3590    0.0000 C   0  0  0  0  0  0  0  0  0  0  0  0
   -1.3551   -0.4661    0.0000 C   0  0  0  0  0  0  0  0  0  0  0  0
   -0.6406   -0.8786    0.0000 C   0  0  0  0  0  0  0  0  0  0  0  0
    0.0739   -0.4660    0.0000 C   0  0  0  0  0  0  0  0  0  0  0  0
    0.0739    0.3590    0.0000 C   0  0  0  0  0  0  0  0  0  0  0  0
   -0.6406    0.7715    0.0000 C   0  0  0  0  0  0  0  0  0  0  0  0
    0.7884   -0.8785    0.0000 C   0  0  0  0  0  0  0  0  0  0  0  0
    1.5028   -0.4660    0.0000 N   0  0  0  0  0  0  0  0  0  0  0  0
    2.2173   -0.8785    0.0000 C   0  0  0  0  0  0  0  0  0  0  0  0
    2.9318   -0.4660    0.0000 C   0  0  0  0  0  0  0  0  0  0  0  0
    2.9318    0.3590    0.0000 C   0  0  0  0  0  0  0  0  0  0  0  0
    2.2173    0.7715    0.0000 C   0  0  0  0  0  0  0  0  0  0  0  0
    1.5029    0.3590    0.0000 C   0  0  0  0  0  0  0  0  0  0  0  0
    3.6463    0.7715    0.0000 C   0  0  0  0  0  0  0  0  0  0  0  0
    3.6463    1.5965    0.0000 O   0  0  0  0  0  0  0  0  0  0  0  0
    4.3608    0.3590    0.0000 N   0  0  0  0  0  0  0  0  0  0  0  0
  1  2  1  0
  1  6  2  0
  2  3  2  0
  3  4  1  0
  4  5  2  0
  5  6  1  0
  1  7  1  0
  7  8  1  0
  7 12  2  0
  8  9  2  0
  9 10  1  0
 10 11  2  0
 11 12  1  0
  6 13  1  0
 13 14  1  0
 14 15  1  0
 14 16  2  0
 15 17  1  0
 17 18  1  0
 22 17  1  0
 18 19  1  0
 19 20  1  0
 20 21  1  0
 21 22  1  0
 20 23  1  0
 23 24  1  0
 24 25  1  0
 25 26  1  0
 25 27  1  0
 26 28  2  0
 26 29  1  0
 29 30  1  0
 29 34  2  0
 30 31  2  0
 31 32  1  0
 32 33  2  0
 33 34  1  0
 32 35  1  0
 35 36  1  0
 36 37  1  0
 41 36  1  0
 37 38  1  0
 38 39  1  0
 39 40  1  0
 40 41  1  0
 39 42  1  0
 42 43  2  0
 42 44  1  0
M  END
> <chembl_id>
CHEMBL3833319

> <chembl_pref_name>
REVEFENACIN
