
     RDKit          2D

 36 37  0  0  0  0  0  0  0  0999 V2000
   -3.0858    1.2012    0.0000 C   0  0  0  0  0  0  0  0  0  0  0  0
   -3.0858    2.0262    0.0000 C   0  0  0  0  0  0  0  0  0  0  0  0
   -3.8002    0.7887    0.0000 C   0  0  0  0  0  0  0  0  0  0  0  0
   -3.8002    2.4387    0.0000 O   0  0  0  0  0  0  0  0  0  0  0  0
   -2.3713    2.4387    0.0000 O   0  0  0  0  0  0  0  0  0  0  0  0
   -4.5147    1.2012    0.0000 C   0  0  0  0  0  0  0  0  0  0  0  0
   -5.2292    0.7887    0.0000 O   0  0  0  0  0  0  0  0  0  0  0  0
   -4.5147    2.0262    0.0000 O   0  0  0  0  0  0  0  0  0  0  0  0
   -2.4074   -2.5234    0.0000 C   0  0  0  0  0  0  0  0  0  0  0  0
   -3.1290   -2.9234    0.0000 C   0  0  0  0  0  0  0  0  0  0  0  0
   -3.8362   -2.4985    0.0000 C   0  0  0  0  0  0  0  0  0  0  0  0
   -3.8217   -1.6736    0.0000 C   0  0  0  0  0  0  0  0  0  0  0  0
   -3.1002   -1.2737    0.0000 C   0  0  0  0  0  0  0  0  0  0  0  0
   -2.3931   -1.6986    0.0000 C   0  0  0  0  0  0  0  0  0  0  0  0
   -3.0858   -0.4488    0.0000 C   0  0  0  0  0  0  0  0  0  0  0  0
   -2.3713   -0.0363    0.0000 C   0  0  0  0  0  0  0  0  0  0  0  0
   -2.3713    0.7887    0.0000 N   0  0  0  0  0  0  0  0  0  0  0  0
   -1.6569   -0.4488    0.0000 C   0  0  0  0  0  0  0  0  0  0  0  0
   -0.9424   -0.0363    0.0000 C   0  0  0  0  0  0  0  0  0  0  0  0
   -0.9424    0.7887    0.0000 O   0  0  0  0  0  0  0  0  0  0  0  0
   -0.2279   -0.4488    0.0000 N   0  0  0  0  0  0  0  0  0  0  0  0
    0.4866   -0.0363    0.0000 C   0  0  0  0  0  0  0  0  0  0  0  0
   -0.2279   -1.2738    0.0000 C   0  0  0  0  0  0  0  0  0  0  0  0
    0.4866   -1.6864    0.0000 C   0  0  0  0  0  0  0  0  0  0  0  0
    1.2010   -1.2738    0.0000 N   0  0  0  0  0  0  0  0  0  0  0  0
    1.2010   -0.4488    0.0000 C   0  0  0  0  0  0  0  0  0  0  0  0
    1.9856   -1.5288    0.0000 C   0  0  0  0  0  0  0  0  0  0  0  0
    2.4705   -0.8614    0.0000 N   0  0  0  0  0  0  0  0  0  0  0  0
    1.9857   -0.1939    0.0000 N   0  0  0  0  0  0  0  0  0  0  0  0
   -1.7002   -2.9483    0.0000 F   0  0  0  0  0  0  0  0  0  0  0  0
   -3.1434   -3.7483    0.0000 F   0  0  0  0  0  0  0  0  0  0  0  0
   -4.5289   -1.2487    0.0000 F   0  0  0  0  0  0  0  0  0  0  0  0
    2.2405   -2.3134    0.0000 C   0  0  0  0  0  0  0  0  0  0  0  0
    1.4559   -2.5683    0.0000 F   0  0  0  0  0  0  0  0  0  0  0  0
    3.0252   -2.0585    0.0000 F   0  0  0  0  0  0  0  0  0  0  0  0
    2.4955   -3.0980    0.0000 F   0  0  0  0  0  0  0  0  0  0  0  0
  1  2  1  0
  1  3  2  0
  2  4  1  0
  2  5  2  0
  3  6  1  0
  6  7  1  0
  6  8  2  0
  9 10  1  0
 10 11  2  0
 11 12  1  0
 12 13  2  0
 13 14  1  0
  9 14  2  0
 15 16  1  0
 16 17  1  1
 13 15  1  0
 18 19  1  0
 19 20  2  0
 16 18  1  0
 21 22  1  0
 19 21  1  0
 23 24  1  0
 24 25  1  0
 25 26  1  0
 22 26  1  0
 21 23  1  0
 27 28  2  0
 28 29  1  0
 25 27  1  0
 26 29  2  0
  9 30  1  0
 10 31  1  0
 12 32  1  0
 27 33  1  0
 33 34  1  0
 33 35  1  0
 33 36  1  0
M  END
> <chembl_id>
CHEMBL5315049

> <chembl_pref_name>
SITAGLIPTIN FUMARATE
