
     RDKit          2D

199190  0  0  0  0  0  0  0  0999 V2000
   -1.0902   -8.8982    0.0000 C   0  0  0  0  0  0  0  0  0  0  0  0
   -0.3757   -9.3107    0.0000 C   0  0  0  0  0  0  0  0  0  0  0  0
    0.3388   -8.8982    0.0000 C   0  0  0  0  0  0  0  0  0  0  0  0
    1.0532   -9.3107    0.0000 C   0  0  0  0  0  0  0  0  0  0  0  0
    1.0532  -10.1357    0.0000 C   0  0  0  0  0  0  0  0  0  0  0  0
    0.3388  -10.5482    0.0000 C   0  0  0  0  0  0  0  0  0  0  0  0
    0.3388  -11.3732    0.0000 C   0  0  0  0  0  0  0  0  0  0  0  0
    1.0532  -11.7857    0.0000 C   0  0  0  0  0  0  0  0  0  0  0  0
    1.0532  -12.6107    0.0000 C   0  0  0  0  0  0  0  0  0  0  0  0
    1.7677  -13.0232    0.0000 C   0  0  0  0  0  0  0  0  0  0  0  0
    2.4822  -12.6107    0.0000 C   0  0  0  0  0  0  0  0  0  0  0  0
    3.1966  -13.0232    0.0000 C   0  0  0  0  0  0  0  0  0  0  0  0
    3.9111  -12.6107    0.0000 C   0  0  0  0  0  0  0  0  0  0  0  0
    3.9111  -11.7857    0.0000 C   0  0  0  0  0  0  0  0  0  0  0  0
    4.6256  -11.3732    0.0000 C   0  0  0  0  0  0  0  0  0  0  0  0
    5.3401  -11.7857    0.0000 C   0  0  0  0  0  0  0  0  0  0  0  0
    5.3401  -12.6107    0.0000 C   0  0  0  0  0  0  0  0  0  0  0  0
    6.0545  -13.0232    0.0000 C   0  0  0  0  0  0  0  0  0  0  0  0
    6.0545  -13.8482    0.0000 C   0  0  0  0  0  0  0  0  0  0  0  0
    5.3401  -14.2607    0.0000 C   0  0  0  0  0  0  0  0  0  0  0  0
    5.3401  -15.0857    0.0000 C   0  0  0  0  0  0  0  0  0  0  0  0
    6.0545  -15.4982    0.0000 C   0  0  0  0  0  0  0  0  0  0  0  0
    6.0545  -16.3232    0.0000 O   0  0  0  0  0  0  0  0  0  0  0  0
    6.7690  -15.0857    0.0000 O   0  0  0  0  0  0  0  0  0  0  0  0
    8.7769   -0.2127    0.0000 C   0  0  0  0  0  0  0  0  0  0  0  0
    9.4913    0.1998    0.0000 C   0  0  0  0  0  0  0  0  0  0  0  0
   10.2058   -0.2127    0.0000 C   0  0  0  0  0  0  0  0  0  0  0  0
   10.2058   -1.0377    0.0000 C   0  0  0  0  0  0  0  0  0  0  0  0
   10.9203   -1.4502    0.0000 C   0  0  0  0  0  0  0  0  0  0  0  0
   10.9203   -2.2752    0.0000 C   0  0  0  0  0  0  0  0  0  0  0  0
   10.2058   -2.6877    0.0000 C   0  0  0  0  0  0  0  0  0  0  0  0
   10.2058   -3.5127    0.0000 C   0  0  0  0  0  0  0  0  0  0  0  0
    9.4913   -3.9252    0.0000 C   0  0  0  0  0  0  0  0  0  0  0  0
    8.7769   -3.5127    0.0000 C   0  0  0  0  0  0  0  0  0  0  0  0
    8.0624   -3.9252    0.0000 C   0  0  0  0  0  0  0  0  0  0  0  0
    7.3479   -3.5127    0.0000 C   0  0  0  0  0  0  0  0  0  0  0  0
    7.3479   -2.6877    0.0000 C   0  0  0  0  0  0  0  0  0  0  0  0
    6.6334   -2.2752    0.0000 C   0  0  0  0  0  0  0  0  0  0  0  0
    6.6334   -1.4502    0.0000 C   0  0  0  0  0  0  0  0  0  0  0  0
    7.3479   -1.0377    0.0000 C   0  0  0  0  0  0  0  0  0  0  0  0
    7.3479   -0.2127    0.0000 C   0  0  0  0  0  0  0  0  0  0  0  0
    6.6334    0.1998    0.0000 C   0  0  0  0  0  0  0  0  0  0  0  0
    6.6334    1.0248    0.0000 C   0  0  0  0  0  0  0  0  0  0  0  0
    5.9190    1.4373    0.0000 O   0  0  0  0  0  0  0  0  0  0  0  0
    7.3479    1.4373    0.0000 O   0  0  0  0  0  0  0  0  0  0  0  0
    8.0624    0.1998    0.0000 C   0  0  0  0  0  0  0  0  0  0  0  0
   -1.7103    9.1923    0.0000 C   0  0  0  0  0  0  0  0  0  0  0  0
   -1.7103    8.3673    0.0000 C   0  0  0  0  0  0  0  0  0  0  0  0
   -0.9958    7.9548    0.0000 C   0  0  0  0  0  0  0  0  0  0  0  0
   -0.9958    7.1298    0.0000 C   0  0  0  0  0  0  0  0  0  0  0  0
   -0.2814    6.7173    0.0000 C   0  0  0  0  0  0  0  0  0  0  0  0
   -0.2814    5.8923    0.0000 C   0  0  0  0  0  0  0  0  0  0  0  0
    0.4331    5.4798    0.0000 C   0  0  0  0  0  0  0  0  0  0  0  0
    1.1476    5.8923    0.0000 C   0  0  0  0  0  0  0  0  0  0  0  0
    1.8621    5.4798    0.0000 C   0  0  0  0  0  0  0  0  0  0  0  0
    2.5765    5.8923    0.0000 C   0  0  0  0  0  0  0  0  0  0  0  0
    2.5765    6.7173    0.0000 C   0  0  0  0  0  0  0  0  0  0  0  0
    3.2910    7.1298    0.0000 C   0  0  0  0  0  0  0  0  0  0  0  0
    3.2910    7.9548    0.0000 C   0  0  0  0  0  0  0  0  0  0  0  0
    4.0055    8.3673    0.0000 C   0  0  0  0  0  0  0  0  0  0  0  0
    4.0055    9.1923    0.0000 C   0  0  0  0  0  0  0  0  0  0  0  0
    4.7199    9.6048    0.0000 C   0  0  0  0  0  0  0  0  0  0  0  0
    4.7199   10.4298    0.0000 C   0  0  0  0  0  0  0  0  0  0  0  0
    5.4344   10.8423    0.0000 C   0  0  0  0  0  0  0  0  0  0  0  0
    5.4344   11.6673    0.0000 O   0  0  0  0  0  0  0  0  0  0  0  0
    6.1489   10.4298    0.0000 O   0  0  0  0  0  0  0  0  0  0  0  0
    9.1045   10.0768    0.0000 C   0  0  0  0  0  0  0  0  0  0  0  0
    9.8189   10.4893    0.0000 O   0  0  0  0  0  0  0  0  0  0  0  0
    8.3900   10.4893    0.0000 O   0  0  0  0  0  0  0  0  0  0  0  0
    9.1045    9.2518    0.0000 C   0  0  0  0  0  0  0  0  0  0  0  0
    9.8189    8.8393    0.0000 C   0  0  0  0  0  0  0  0  0  0  0  0
    9.8189    8.0143    0.0000 C   0  0  0  0  0  0  0  0  0  0  0  0
   10.5334    7.6018    0.0000 C   0  0  0  0  0  0  0  0  0  0  0  0
   10.5334    6.7768    0.0000 C   0  0  0  0  0  0  0  0  0  0  0  0
   11.2479    6.3643    0.0000 C   0  0  0  0  0  0  0  0  0  0  0  0
   11.9623    6.7768    0.0000 C   0  0  0  0  0  0  0  0  0  0  0  0
   12.6768    6.3643    0.0000 C   0  0  0  0  0  0  0  0  0  0  0  0
   13.3913    6.7768    0.0000 C   0  0  0  0  0  0  0  0  0  0  0  0
   13.3913    7.6018    0.0000 C   0  0  0  0  0  0  0  0  0  0  0  0
   14.1058    8.0143    0.0000 C   0  0  0  0  0  0  0  0  0  0  0  0
   14.1058    8.8393    0.0000 C   0  0  0  0  0  0  0  0  0  0  0  0
   13.3913    9.2518    0.0000 C   0  0  0  0  0  0  0  0  0  0  0  0
   13.3913   10.0768    0.0000 C   0  0  0  0  0  0  0  0  0  0  0  0
   12.6768   10.4893    0.0000 C   0  0  0  0  0  0  0  0  0  0  0  0
   12.6768   11.3143    0.0000 C   0  0  0  0  0  0  0  0  0  0  0  0
   11.9623   11.7268    0.0000 C   0  0  0  0  0  0  0  0  0  0  0  0
   16.5295   10.0768    0.0000 O   0  0  0  0  0  0  0  0  0  0  0  0
   17.2439   10.4893    0.0000 C   0  0  0  0  0  0  0  0  0  0  0  0
   17.9584   10.0768    0.0000 C   0  0  0  0  0  0  0  0  0  0  0  0
   17.2439   11.3143    0.0000 O   0  0  0  0  0  0  0  0  0  0  0  0
   17.9584    9.2518    0.0000 C   0  0  0  0  0  0  0  0  0  0  0  0
   18.6729    8.8393    0.0000 C   0  0  0  0  0  0  0  0  0  0  0  0
   18.6729    8.0143    0.0000 C   0  0  0  0  0  0  0  0  0  0  0  0
   19.3873    7.6018    0.0000 C   0  0  0  0  0  0  0  0  0  0  0  0
   19.3873    6.7768    0.0000 C   0  0  0  0  0  0  0  0  0  0  0  0
   20.1018    6.3643    0.0000 C   0  0  0  0  0  0  0  0  0  0  0  0
   20.1018    5.5393    0.0000 C   0  0  0  0  0  0  0  0  0  0  0  0
   20.8163    5.1268    0.0000 C   0  0  0  0  0  0  0  0  0  0  0  0
   21.5308    5.5393    0.0000 C   0  0  0  0  0  0  0  0  0  0  0  0
   22.2452    5.1268    0.0000 C   0  0  0  0  0  0  0  0  0  0  0  0
   22.9597    5.5393    0.0000 C   0  0  0  0  0  0  0  0  0  0  0  0
   22.9597    6.3643    0.0000 C   0  0  0  0  0  0  0  0  0  0  0  0
   23.6742    6.7768    0.0000 C   0  0  0  0  0  0  0  0  0  0  0  0
   23.6742    7.6018    0.0000 C   0  0  0  0  0  0  0  0  0  0  0  0
   22.9597    8.0143    0.0000 C   0  0  0  0  0  0  0  0  0  0  0  0
   22.9597    8.8393    0.0000 C   0  0  0  0  0  0  0  0  0  0  0  0
   -0.0884    1.8562    0.0000 O   0  0  0  0  0  0  0  0  0  0  0  0
    0.6261    2.2687    0.0000 C   0  0  0  0  0  0  0  0  0  0  0  0
    1.3405    1.8562    0.0000 C   0  0  0  0  0  0  0  0  0  0  0  0
    1.3405    1.0312    0.0000 C   0  0  0  0  0  0  0  0  0  0  0  0
    2.0550    0.6187    0.0000 C   0  0  0  0  0  0  0  0  0  0  0  0
    2.0550   -0.2063    0.0000 C   0  0  0  0  0  0  0  0  0  0  0  0
    2.7695   -0.6188    0.0000 C   0  0  0  0  0  0  0  0  0  0  0  0
    0.6261    3.0937    0.0000 O   0  0  0  0  0  0  0  0  0  0  0  0
    2.7695   -1.4438    0.0000 C   0  0  0  0  0  0  0  0  0  0  0  0
    3.4840   -1.8563    0.0000 C   0  0  0  0  0  0  0  0  0  0  0  0
    3.4840   -2.6813    0.0000 C   0  0  0  0  0  0  0  0  0  0  0  0
    2.7695   -3.0938    0.0000 C   0  0  0  0  0  0  0  0  0  0  0  0
    2.7695   -3.9188    0.0000 C   0  0  0  0  0  0  0  0  0  0  0  0
    2.0550   -4.3313    0.0000 C   0  0  0  0  0  0  0  0  0  0  0  0
    1.3405   -3.9188    0.0000 C   0  0  0  0  0  0  0  0  0  0  0  0
    0.6261   -4.3313    0.0000 C   0  0  0  0  0  0  0  0  0  0  0  0
   -0.0884   -3.9188    0.0000 C   0  0  0  0  0  0  0  0  0  0  0  0
   -0.0884   -3.0938    0.0000 C   0  0  0  0  0  0  0  0  0  0  0  0
   -0.8029   -2.6813    0.0000 C   0  0  0  0  0  0  0  0  0  0  0  0
   -0.8029   -1.8563    0.0000 C   0  0  0  0  0  0  0  0  0  0  0  0
   -0.0884   -1.4438    0.0000 C   0  0  0  0  0  0  0  0  0  0  0  0
   -0.0884   -0.6188    0.0000 C   0  0  0  0  0  0  0  0  0  0  0  0
   15.2986   -0.3187    0.0000 C   0  0  0  0  0  0  0  0  0  0  0  0
   16.0131    0.0938    0.0000 C   0  0  0  0  0  0  0  0  0  0  0  0
   16.7276   -0.3187    0.0000 C   0  0  0  0  0  0  0  0  0  0  0  0
   16.7276   -1.1437    0.0000 C   0  0  0  0  0  0  0  0  0  0  0  0
   17.4421   -1.5562    0.0000 C   0  0  0  0  0  0  0  0  0  0  0  0
   17.4421   -2.3812    0.0000 C   0  0  0  0  0  0  0  0  0  0  0  0
   16.7276   -2.7937    0.0000 C   0  0  0  0  0  0  0  0  0  0  0  0
   16.7276   -3.6187    0.0000 C   0  0  0  0  0  0  0  0  0  0  0  0
   16.0131   -4.0312    0.0000 C   0  0  0  0  0  0  0  0  0  0  0  0
   15.2986   -3.6187    0.0000 C   0  0  0  0  0  0  0  0  0  0  0  0
   14.5842   -4.0312    0.0000 C   0  0  0  0  0  0  0  0  0  0  0  0
   13.8697   -3.6187    0.0000 C   0  0  0  0  0  0  0  0  0  0  0  0
   13.8697   -2.7937    0.0000 C   0  0  0  0  0  0  0  0  0  0  0  0
   13.1552   -2.3812    0.0000 C   0  0  0  0  0  0  0  0  0  0  0  0
   13.1552   -1.5562    0.0000 C   0  0  0  0  0  0  0  0  0  0  0  0
   13.8697   -1.1437    0.0000 C   0  0  0  0  0  0  0  0  0  0  0  0
   13.8697   -0.3187    0.0000 C   0  0  0  0  0  0  0  0  0  0  0  0
   13.1552    0.0938    0.0000 C   0  0  0  0  0  0  0  0  0  0  0  0
   13.1552    0.9188    0.0000 C   0  0  0  0  0  0  0  0  0  0  0  0
   12.4408    1.3313    0.0000 C   0  0  0  0  0  0  0  0  0  0  0  0
   14.5842    0.0938    0.0000 C   0  0  0  0  0  0  0  0  0  0  0  0
   12.4408    2.1563    0.0000 O   0  0  0  0  0  0  0  0  0  0  0  0
   11.7263    0.9188    0.0000 O   0  0  0  0  0  0  0  0  0  0  0  0
   22.6352   -0.1420    0.0000 C   0  0  0  0  0  0  0  0  0  0  0  0
   23.3497    0.2705    0.0000 C   0  0  0  0  0  0  0  0  0  0  0  0
   24.0642   -0.1420    0.0000 C   0  0  0  0  0  0  0  0  0  0  0  0
   24.0642   -0.9670    0.0000 C   0  0  0  0  0  0  0  0  0  0  0  0
   24.7787   -1.3795    0.0000 C   0  0  0  0  0  0  0  0  0  0  0  0
   24.7787   -2.2045    0.0000 C   0  0  0  0  0  0  0  0  0  0  0  0
   24.0642   -2.6170    0.0000 C   0  0  0  0  0  0  0  0  0  0  0  0
   24.0642   -3.4420    0.0000 C   0  0  0  0  0  0  0  0  0  0  0  0
   23.3497   -3.8545    0.0000 C   0  0  0  0  0  0  0  0  0  0  0  0
   22.6352   -3.4420    0.0000 C   0  0  0  0  0  0  0  0  0  0  0  0
   21.9208   -3.8545    0.0000 C   0  0  0  0  0  0  0  0  0  0  0  0
   21.2063   -3.4420    0.0000 C   0  0  0  0  0  0  0  0  0  0  0  0
   21.2063   -2.6170    0.0000 C   0  0  0  0  0  0  0  0  0  0  0  0
   20.4918   -2.2045    0.0000 C   0  0  0  0  0  0  0  0  0  0  0  0
   20.4918   -1.3795    0.0000 C   0  0  0  0  0  0  0  0  0  0  0  0
   21.2063   -0.9670    0.0000 C   0  0  0  0  0  0  0  0  0  0  0  0
   21.2063   -0.1420    0.0000 C   0  0  0  0  0  0  0  0  0  0  0  0
   20.4918    0.2705    0.0000 C   0  0  0  0  0  0  0  0  0  0  0  0
   21.9208    0.2705    0.0000 C   0  0  0  0  0  0  0  0  0  0  0  0
   19.7774   -0.1420    0.0000 C   0  0  0  0  0  0  0  0  0  0  0  0
   19.0629    0.2705    0.0000 C   0  0  0  0  0  0  0  0  0  0  0  0
   21.9208    1.0955    0.0000 C   0  0  0  0  0  0  0  0  0  0  0  0
   21.2063    1.5080    0.0000 O   0  0  0  0  0  0  0  0  0  0  0  0
   22.6352    1.5080    0.0000 O   0  0  0  0  0  0  0  0  0  0  0  0
   30.1486   -0.2009    0.0000 C   0  0  0  0  0  0  0  0  0  0  0  0
   30.8631    0.2116    0.0000 C   0  0  0  0  0  0  0  0  0  0  0  0
   31.5776   -0.2009    0.0000 C   0  0  0  0  0  0  0  0  0  0  0  0
   31.5776   -1.0259    0.0000 C   0  0  0  0  0  0  0  0  0  0  0  0
   32.2921   -1.4384    0.0000 C   0  0  0  0  0  0  0  0  0  0  0  0
   32.2921   -2.2634    0.0000 C   0  0  0  0  0  0  0  0  0  0  0  0
   31.5776   -2.6759    0.0000 C   0  0  0  0  0  0  0  0  0  0  0  0
   31.5776   -3.5009    0.0000 C   0  0  0  0  0  0  0  0  0  0  0  0
   30.8631   -3.9134    0.0000 C   0  0  0  0  0  0  0  0  0  0  0  0
   30.1486   -3.5009    0.0000 C   0  0  0  0  0  0  0  0  0  0  0  0
   29.4342   -3.9134    0.0000 C   0  0  0  0  0  0  0  0  0  0  0  0
   28.7197   -3.5009    0.0000 C   0  0  0  0  0  0  0  0  0  0  0  0
   28.7197   -2.6759    0.0000 C   0  0  0  0  0  0  0  0  0  0  0  0
   28.0052   -2.2634    0.0000 C   0  0  0  0  0  0  0  0  0  0  0  0
   28.0052   -1.4384    0.0000 C   0  0  0  0  0  0  0  0  0  0  0  0
   28.7197   -1.0259    0.0000 C   0  0  0  0  0  0  0  0  0  0  0  0
   28.7197   -0.2009    0.0000 C   0  0  0  0  0  0  0  0  0  0  0  0
   28.0052    0.2116    0.0000 C   0  0  0  0  0  0  0  0  0  0  0  0
   28.0052    1.0366    0.0000 C   0  0  0  0  0  0  0  0  0  0  0  0
   27.2908    1.4491    0.0000 C   0  0  0  0  0  0  0  0  0  0  0  0
   29.4342    0.2116    0.0000 C   0  0  0  0  0  0  0  0  0  0  0  0
   27.2908    2.2741    0.0000 C   0  0  0  0  0  0  0  0  0  0  0  0
   26.5763    2.6866    0.0000 O   0  0  0  0  0  0  0  0  0  0  0  0
   28.0052    2.6866    0.0000 O   0  0  0  0  0  0  0  0  0  0  0  0
  1  2  1  0
  2  3  1  0
  3  4  2  0
  4  5  1  0
  5  6  1  0
  6  7  2  0
  7  8  1  0
  8  9  1  0
  9 10  2  0
 10 11  1  0
 11 12  1  0
 12 13  2  0
 13 14  1  0
 14 15  1  0
 15 16  2  0
 16 17  1  0
 17 18  1  0
 18 19  2  0
 19 20  1  0
 20 21  1  0
 21 22  1  0
 22 23  2  0
 22 24  1  0
 25 26  1  0
 26 27  2  0
 27 28  1  0
 28 29  1  0
 29 30  2  0
 30 31  1  0
 31 32  1  0
 32 33  2  0
 33 34  1  0
 34 35  1  0
 35 36  2  0
 36 37  1  0
 37 38  1  0
 38 39  2  0
 39 40  1  0
 40 41  1  0
 41 42  1  0
 42 43  1  0
 43 44  1  0
 43 45  2  0
 25 46  1  0
 47 48  1  0
 48 49  1  0
 49 50  1  0
 50 51  1  0
 51 52  1  0
 52 53  2  0
 53 54  1  0
 54 55  1  0
 55 56  2  0
 56 57  1  0
 57 58  1  0
 58 59  1  0
 59 60  1  0
 60 61  1  0
 61 62  1  0
 62 63  1  0
 63 64  1  0
 64 65  1  0
 64 66  2  0
 67 68  2  0
 67 69  1  0
 67 70  1  0
 70 71  1  0
 71 72  1  0
 72 73  1  0
 73 74  1  0
 74 75  2  0
 75 76  1  0
 76 77  1  0
 77 78  2  0
 78 79  1  0
 79 80  1  0
 80 81  2  0
 81 82  1  0
 82 83  1  0
 83 84  1  0
 84 85  1  0
 85 86  1  0
 87 88  2  0
 88 89  1  0
 88 90  1  0
 89 91  1  0
 91 92  1  0
 92 93  1  0
 93 94  1  0
 94 95  1  0
 95 96  1  0
 96 97  1  0
 97 98  2  0
 98 99  1  0
 99100  1  0
100101  2  0
101102  1  0
102103  1  0
103104  2  0
104105  1  0
105106  1  0
107108  2  0
108109  1  0
109110  1  0
110111  1  0
111112  1  0
112113  1  0
108114  1  0
113115  1  0
115116  1  0
116117  2  0
117118  1  0
118119  1  0
119120  2  0
120121  1  0
121122  1  0
122123  2  0
123124  1  0
124125  1  0
125126  2  0
126127  1  0
127128  1  0
129130  1  0
130131  2  0
131132  1  0
132133  1  0
133134  2  0
134135  1  0
135136  1  0
136137  2  0
137138  1  0
138139  1  0
139140  2  0
140141  1  0
141142  1  0
142143  2  0
143144  1  0
144145  1  0
145146  1  0
146147  1  0
147148  1  0
129149  1  0
148150  1  0
148151  2  0
152153  1  0
153154  2  0
154155  1  0
155156  1  0
156157  2  0
157158  1  0
158159  1  0
159160  2  0
160161  1  0
161162  1  0
162163  2  0
163164  1  0
164165  1  0
165166  2  0
166167  1  0
167168  1  0
168169  1  0
152170  1  0
169171  1  0
171172  1  0
170173  1  0
173174  1  0
173175  2  0
176177  1  0
177178  2  0
178179  1  0
179180  1  0
180181  2  0
181182  1  0
182183  1  0
183184  2  0
184185  1  0
185186  1  0
186187  2  0
187188  1  0
188189  1  0
189190  2  0
190191  1  0
191192  1  0
192193  1  0
193194  1  0
194195  1  0
176196  1  0
195197  1  0
197198  1  0
197199  2  0
M  END
> <chembl_id>
CHEMBL3137327

> <chembl_pref_name>
OMEGA-3-CARBOXYLIC ACIDS
