
     RDKit          2D

 20 22  0  0  0  0  0  0  0  0999 V2000
   -1.0208   -0.2542    0.0000 C   0  0  0  0  0  0  0  0  0  0  0  0
   -0.3458   -1.2750    0.0000 C   0  0  0  0  0  0  0  0  0  0  0  0
   -1.0208   -2.2542    0.0000 O   0  0  0  0  0  0  0  0  0  0  0  0
   -0.6083    0.9000    0.0000 C   0  0  0  0  0  0  0  0  0  0  0  0
   -2.2083   -0.6250    0.0000 C   0  0  0  0  0  0  0  0  0  0  0  0
   -2.2083   -1.8792    0.0000 C   0  0  0  0  0  0  0  0  0  0  0  0
    0.5750    1.1375    0.0000 C   0  0  0  0  0  0  0  0  0  0  0  0
   -1.4250    1.8208    0.0000 O   0  0  0  0  0  0  0  0  0  0  0  0
    1.4250    0.2583    0.0000 C   0  0  0  0  0  0  0  0  0  0  0  0
    0.9792    2.2875    0.0000 C   0  0  0  0  0  0  0  0  0  0  0  0
    0.9167   -1.2750    0.0000 C   0  0  0  0  0  0  0  0  0  0  0  0
    2.9792    1.6458    0.0000 C   0  0  0  0  0  0  0  0  0  0  0  0
    2.1667    2.5625    0.0000 C   0  0  0  0  0  0  0  0  0  0  0  0
    2.6125    0.4875    0.0000 C   0  0  0  0  0  0  0  0  0  0  0  0
    4.2042    1.8833    0.0000 O   0  0  0  0  0  0  0  0  0  0  0  0
   -3.2583   -0.0167    0.0000 C   0  0  0  0  0  0  0  0  0  0  0  0
   -3.2583   -2.4917    0.0000 C   0  0  0  0  0  0  0  0  0  0  0  0
    1.5250   -2.3542    0.0000 C   0  0  0  0  0  0  0  0  0  0  0  0
   -4.3458   -0.6542    0.0000 C   0  0  0  0  0  0  0  0  0  0  0  0
   -4.3458   -1.8500    0.0000 C   0  0  0  0  0  0  0  0  0  0  0  0
  2  1  2  0
  3  2  1  0
  4  1  1  0
  5  1  1  0
  6  5  2  0
  7  4  1  0
  8  4  2  0
  9  7  2  0
 10  7  1  0
 11  2  1  0
 12 13  1  0
 13 10  2  0
 14  9  1  0
 15 12  1  0
 16  5  1  0
 17  6  1  0
 18 11  1  0
 19 16  2  0
 20 19  1  0
  6  3  1  0
 17 20  2  0
 14 12  2  0
M  END
> <chembl_id>
CHEMBL1474963

> <chembl_pref_name>
BENZARONE
