
     RDKit          2D

 62 63  0  0  0  0  0  0  0  0999 V2000
   -3.9777   -4.0661    0.0000 Na  0  0  0  0  0 15  0  0  0  0  0  0
   -0.3134   -4.5060    0.0000 C   0  0  0  0  0  0  0  0  0  0  0  0
    0.5126   -4.5198    0.0000 C   0  0  0  0  0  0  0  0  0  0  0  0
    0.9384   -3.8100    0.0000 C   0  0  0  0  0  0  0  0  0  0  0  0
    0.5323   -3.0849    0.0000 C   0  0  0  0  0  0  0  0  0  0  0  0
   -0.7144   -3.7817    0.0000 C   0  0  0  0  0  0  0  0  0  0  0  0
   -0.2927   -3.0762    0.0000 C   0  0  0  0  0  0  0  0  0  0  0  0
   -0.6927   -2.3605    0.0000 C   0  0  0  0  0  0  0  0  0  0  0  0
   -1.5143   -2.3489    0.0000 C   0  0  0  0  0  0  0  0  0  0  0  0
   -1.9342   -3.0590    0.0000 C   0  0  0  0  0  0  0  0  0  0  0  0
   -1.5318   -3.7719    0.0000 C   0  0  0  0  0  0  0  0  0  0  0  0
    0.9534   -2.3749    0.0000 O   0  0  0  0  0  0  0  0  0  0  0  0
    1.7637   -3.8224    0.0000 N   0  0  0  0  0  0  0  0  0  0  0  0
    2.1872   -3.1135    0.0000 N   0  0  0  0  0  0  0  0  0  0  0  0
    3.0126   -3.1258    0.0000 C   0  0  0  0  0  0  0  0  0  0  0  0
    3.4099   -3.8479    0.0000 C   0  0  0  0  0  0  0  0  0  0  0  0
    4.2345   -3.8605    0.0000 C   0  0  0  0  0  0  0  0  0  0  0  0
    4.6587   -3.1513    0.0000 C   0  0  0  0  0  0  0  0  0  0  0  0
    4.2523   -2.4278    0.0000 C   0  0  0  0  0  0  0  0  0  0  0  0
    3.4290   -2.4187    0.0000 C   0  0  0  0  0  0  0  0  0  0  0  0
    5.4812   -3.1632    0.0000 C   0  0  0  0  0  0  0  0  0  0  0  0
    5.8836   -3.8853    0.0000 C   0  0  0  0  0  0  0  0  0  0  0  0
    6.7083   -3.8969    0.0000 C   0  0  0  0  0  0  0  0  0  0  0  0
    7.1315   -3.1870    0.0000 C   0  0  0  0  0  0  0  0  0  0  0  0
    6.7242   -2.4642    0.0000 C   0  0  0  0  0  0  0  0  0  0  0  0
    5.9007   -2.4561    0.0000 C   0  0  0  0  0  0  0  0  0  0  0  0
    7.9571   -3.1972    0.0000 N   0  0  0  0  0  0  0  0  0  0  0  0
    8.3785   -2.4874    0.0000 N   0  0  0  0  0  0  0  0  0  0  0  0
    9.2040   -2.4975    0.0000 C   0  0  0  0  0  0  0  0  0  0  0  0
    9.6070   -3.2189    0.0000 C   0  0  0  0  0  0  0  0  0  0  0  0
    9.6223   -1.7897    0.0000 C   0  0  0  0  0  0  0  0  0  0  0  0
   10.4457   -1.7966    0.0000 C   0  0  0  0  0  0  0  0  0  0  0  0
    9.2161   -1.0710    0.0000 S   0  0  0  0  0  0  0  0  0  0  0  0
    9.6356   -0.3599    0.0000 O   0  0  0  0  0  0  0  0  0  0  0  0
    8.4901   -1.4677    0.0000 O   0  0  0  0  0  0  0  0  0  0  0  0
    8.5010   -0.6459    0.0000 O   0  0  0  0  0  0  0  0  0  0  0  0
   -0.2700   -1.6514    0.0000 N   0  0  0  0  0  0  0  0  0  0  0  0
   -2.7597   -3.0507    0.0000 S   0  0  0  0  0  0  0  0  0  0  0  0
   -3.1653   -2.3317    0.0000 O   0  0  0  0  0  0  0  0  0  0  0  0
   -3.5917   -3.0384    0.0000 O   0  0  0  0  0  0  0  0  0  0  0  0
   -2.3509   -3.7680    0.0000 O   0  0  0  0  0  0  0  0  0  0  0  0
    0.9133   -5.2415    0.0000 S   0  0  0  0  0  0  0  0  0  0  0  0
    0.4887   -5.9494    0.0000 O   0  0  0  0  0  0  0  0  0  0  0  0
    1.3061   -5.9646    0.0000 O   0  0  0  0  0  0  0  0  0  0  0  0
    1.6304   -4.8400    0.0000 O   0  0  0  0  0  0  0  0  0  0  0  0
    3.0231   -1.6997    0.0000 C   0  0  0  0  0  0  0  0  0  0  0  0
    7.1109   -4.6175    0.0000 C   0  0  0  0  0  0  0  0  0  0  0  0
    9.1847   -3.9282    0.0000 O   0  0  0  0  0  0  0  0  0  0  0  0
   10.8508   -2.5198    0.0000 C   0  0  0  0  0  0  0  0  0  0  0  0
   10.4291   -3.2276    0.0000 C   0  0  0  0  0  0  0  0  0  0  0  0
   10.8312   -3.9447    0.0000 C   0  0  0  0  0  0  0  0  0  0  0  0
   11.6549   -3.9550    0.0000 C   0  0  0  0  0  0  0  0  0  0  0  0
   12.0747   -3.2424    0.0000 C   0  0  0  0  0  0  0  0  0  0  0  0
   11.6702   -2.5283    0.0000 C   0  0  0  0  0  0  0  0  0  0  0  0
   10.4094   -4.6543    0.0000 N   0  0  0  0  0  0  0  0  0  0  0  0
   12.9002   -3.2495    0.0000 S   0  0  0  0  0  0  0  0  0  0  0  0
   13.3069   -3.9678    0.0000 O   0  0  0  0  0  0  0  0  0  0  0  0
   12.8951   -2.4222    0.0000 O   0  0  0  0  0  0  0  0  0  0  0  0
   13.4830   -2.6599    0.0000 O   0  0  0  0  0  0  0  0  0  0  0  0
   13.2295   -5.1563    0.0000 Na  0  0  0  0  0 15  0  0  0  0  0  0
    8.6920    1.1491    0.0000 Na  0  0  0  0  0 15  0  0  0  0  0  0
    1.8857   -7.0125    0.0000 Na  0  0  0  0  0 15  0  0  0  0  0  0
 30 50  1  0
  7  8  1  0
 32 31  2  0
 31 29  1  0
 15 16  2  0
 32 49  1  0
 16 17  1  0
  8  9  2  0
 17 18  2  0
  4  5  1  0
 18 19  1  0
 30 48  1  0
  9 10  1  0
 31 33  1  0
 19 20  2  0
 33 34  1  0
 20 15  1  0
 33 35  2  0
  5  7  2  0
 33 36  2  0
 10 11  2  0
  8 37  1  0
 21 22  2  0
 10 38  1  0
 11  6  1  0
 38 39  2  0
 22 23  1  0
 38 40  2  0
  2  3  1  0
 38 41  1  0
 23 24  2  0
  3 42  1  0
  5 12  1  0
 42 43  2  0
 24 25  1  0
 42 44  2  0
  6  2  2  0
 42 45  1  0
 25 26  2  0
 20 46  1  0
 26 21  1  0
 23 47  1  0
 18 21  1  0
 49 50  1  0
  4 13  1  0
 50 51  2  0
 24 27  1  0
 51 52  1  0
  6  7  1  0
 52 53  2  0
 27 28  2  0
 53 54  1  0
 54 49  2  0
 13 14  2  0
 51 55  1  0
 28 29  1  0
 53 56  1  0
  3  4  2  0
 56 57  1  0
 29 30  2  0
 56 58  2  0
 14 15  1  0
 56 59  2  0
M  CHG  8   1   1  34  -1  41  -1  45  -1  57  -1  60   1  61   1  62   1
M  END
> <chembl_id>
CHEMBL1640

> <chembl_pref_name>
TRYPAN BLUE
