
     RDKit          2D

 16 17  0  0  0  0  0  0  0  0999 V2000
    5.7000   -5.1875    0.0000 C   0  0  0  0  0  0  0  0  0  0  0  0
    5.0750   -4.8542    0.0000 O   0  0  0  0  0  0  0  0  0  0  0  0
    5.7167   -5.9000    0.0000 O   0  0  0  0  0  0  0  0  0  0  0  0
    6.3125   -4.8292    0.0000 C   0  0  0  0  0  0  0  0  0  0  0  0
    4.4750   -5.2125    0.0000 C   0  0  0  0  0  0  0  0  0  0  0  0
    3.8500   -4.8792    0.0000 C   0  0  0  0  0  0  0  0  0  0  0  0
    6.9292   -5.1667    0.0000 C   0  0  0  0  0  0  0  0  0  0  0  0
    6.2917   -4.1167    0.0000 C   0  0  0  0  0  0  0  0  0  0  0  0
    3.8375   -4.1667    0.0000 C   0  0  0  0  0  0  0  0  0  0  0  0
    3.2417   -5.2375    0.0000 C   0  0  0  0  0  0  0  0  0  0  0  0
    7.5417   -4.8042    0.0000 C   0  0  0  0  0  0  0  0  0  0  0  0
    6.9042   -3.7542    0.0000 C   0  0  0  0  0  0  0  0  0  0  0  0
    3.2125   -3.8250    0.0000 C   0  0  0  0  0  0  0  0  0  0  0  0
    2.6167   -4.9000    0.0000 C   0  0  0  0  0  0  0  0  0  0  0  0
    7.5292   -4.0917    0.0000 C   0  0  0  0  0  0  0  0  0  0  0  0
    2.6042   -4.1875    0.0000 C   0  0  0  0  0  0  0  0  0  0  0  0
  2  1  1  0
  3  1  2  0
  4  1  1  0
  5  2  1  0
  6  5  1  0
  7  4  2  0
  8  4  1  0
  9  6  2  0
 10  6  1  0
 11  7  1  0
 12  8  2  0
 13  9  1  0
 14 10  2  0
 15 12  1  0
 16 14  1  0
 15 11  2  0
 16 13  2  0
M  END
> <chembl_id>
CHEMBL1239

> <chembl_pref_name>
BENZYL BENZOATE
