
     RDKit          2D

 35 38  0  0  0  0  0  0  0  0999 V2000
    2.8542   -1.2000    0.0000 C   0  0  0  0  0  0  0  0  0  0  0  0
   -0.2583   -1.1917    0.0000 N   0  0  0  0  0  0  0  0  0  0  0  0
    2.1000   -1.1917    0.0000 O   0  0  0  0  0  0  0  0  0  0  0  0
   -1.0458    2.8958    0.0000 C   0  0  0  0  0  0  0  0  0  0  0  0
   -1.4458    2.2083    0.0000 C   0  0  0  0  0  0  0  0  0  0  0  0
   -2.6208    0.1750    0.0000 C   0  0  0  0  0  0  0  0  0  0  0  0
   -2.2208    0.8583    0.0000 C   0  0  0  0  0  0  0  0  0  0  0  0
    2.8542   -0.4292    0.0000 C   0  0  0  0  0  0  0  0  0  0  0  0
    2.8542   -2.0250    0.0000 C   0  0  0  0  0  0  0  0  0  0  0  0
   -3.4000    0.1750    0.0000 O   0  0  0  0  0  0  0  0  0  0  0  0
   -2.2208    2.2083    0.0000 C   0  0  0  0  0  0  0  0  0  0  0  0
   -1.0458    1.5250    0.0000 C   0  0  0  0  0  0  0  0  0  0  0  0
   -2.6208    1.5250    0.0000 C   0  0  0  0  0  0  0  0  0  0  0  0
   -1.4208    0.8583    0.0000 C   0  0  0  0  0  0  0  0  0  0  0  0
    1.3125   -1.1917    0.0000 C   0  0  0  0  0  0  0  0  0  0  0  0
    0.9292   -0.5125    0.0000 C   0  0  0  0  0  0  0  0  0  0  0  0
    0.9292   -1.8667    0.0000 C   0  0  0  0  0  0  0  0  0  0  0  0
    0.1375   -0.5125    0.0000 C   0  0  0  0  0  0  0  0  0  0  0  0
    0.1375   -1.8667    0.0000 C   0  0  0  0  0  0  0  0  0  0  0  0
   -1.0458   -1.1917    0.0000 C   0  0  0  0  0  0  0  0  0  0  0  0
   -1.4208   -0.5125    0.0000 C   0  0  0  0  0  0  0  0  0  0  0  0
   -2.2208   -0.5125    0.0000 C   0  0  0  0  0  0  0  0  0  0  0  0
   -0.3583    2.5083    0.0000 C   0  0  0  0  0  0  0  0  0  0  0  0
   -0.6625    3.5958    0.0000 C   0  0  0  0  0  0  0  0  0  0  0  0
   -1.7458    3.2833    0.0000 C   0  0  0  0  0  0  0  0  0  0  0  0
    2.1792   -0.0292    0.0000 C   0  0  0  0  0  0  0  0  0  0  0  0
    3.5292   -2.4042    0.0000 C   0  0  0  0  0  0  0  0  0  0  0  0
    2.1792   -2.4167    0.0000 C   0  0  0  0  0  0  0  0  0  0  0  0
    3.5417   -0.0292    0.0000 C   0  0  0  0  0  0  0  0  0  0  0  0
    3.5417    0.7583    0.0000 C   0  0  0  0  0  0  0  0  0  0  0  0
    2.1792    0.7458    0.0000 C   0  0  0  0  0  0  0  0  0  0  0  0
    3.5292   -3.2042    0.0000 C   0  0  0  0  0  0  0  0  0  0  0  0
    2.1792   -3.2042    0.0000 C   0  0  0  0  0  0  0  0  0  0  0  0
    2.8542    1.1625    0.0000 C   0  0  0  0  0  0  0  0  0  0  0  0
    2.8667   -3.5875    0.0000 C   0  0  0  0  0  0  0  0  0  0  0  0
  2 19  1  0
  3  1  1  0
  4  5  1  0
  5 12  2  0
  6 22  1  0
  7  6  1  0
  8  1  1  0
  9  1  1  0
 10  6  2  0
 11 13  2  0
 12 14  1  0
 13  7  1  0
 14  7  2  0
 15  3  1  0
 16 15  1  0
 17 15  1  0
 18 16  1  0
 19 17  1  0
 20  2  1  0
 21 20  1  0
 22 21  1  0
 23  4  1  0
 24  4  1  0
 25  4  1  0
 26  8  1  0
 27  9  1  0
 28  9  2  0
 29  8  2  0
 30 29  1  0
 31 26  2  0
 32 27  2  0
 33 28  1  0
 34 30  2  0
 35 33  2  0
 32 35  1  0
 31 34  1  0
 18  2  1  0
 11  5  1  0
M  END
> <chembl_id>
CHEMBL305660

> <chembl_pref_name>
EBASTINE
