
     RDKit          2D

 20 21  0  0  0  0  0  0  0  0999 V2000
    3.2167   -0.1542    0.0000 C   0  0  0  0  0  0  0  0  0  0  0  0
   -3.1208   -0.1667    0.0000 C   0  0  0  0  0  0  0  0  0  0  0  0
   -2.0625    0.4458    0.0000 C   0  0  0  0  0  0  0  0  0  0  0  0
   -3.1208   -1.3792    0.0000 C   0  0  0  0  0  0  0  0  0  0  0  0
   -1.0083   -0.1667    0.0000 N   0  0  0  0  0  0  0  0  0  0  0  0
    2.1625    0.4458    0.0000 C   0  0  0  0  0  0  0  0  0  0  0  0
    0.0417    0.4458    0.0000 C   0  0  0  0  0  0  0  0  0  0  0  0
    1.1000   -0.1667    0.0000 C   0  0  0  0  0  0  0  0  0  0  0  0
   -2.0375   -2.0250    0.0000 O   0  0  0  0  0  0  0  0  0  0  0  0
    4.2542    0.4833    0.0000 F   0  0  0  0  0  0  0  0  0  0  0  0
    2.8500   -1.3125    0.0000 F   0  0  0  0  0  0  0  0  0  0  0  0
    3.5375   -1.3250    0.0000 F   0  0  0  0  0  0  0  0  0  0  0  0
   -4.1958   -1.8667    0.0000 O   0  0  0  0  0  0  0  0  0  0  0  0
   -4.1833    0.4458    0.0000 C   0  0  0  0  0  0  0  0  0  0  0  0
   -2.0625    1.6458    0.0000 C   0  0  0  0  0  0  0  0  0  0  0  0
    2.1625    1.6458    0.0000 C   0  0  0  0  0  0  0  0  0  0  0  0
    1.1000    2.2500    0.0000 C   0  0  0  0  0  0  0  0  0  0  0  0
    0.0417    1.6458    0.0000 C   0  0  0  0  0  0  0  0  0  0  0  0
   -4.1833    1.6458    0.0000 C   0  0  0  0  0  0  0  0  0  0  0  0
   -3.1208    2.2500    0.0000 C   0  0  0  0  0  0  0  0  0  0  0  0
  2  3  1  0
  3  5  1  0
  4  2  1  0
  5  7  1  0
  6  1  1  0
  7  8  2  0
  8  6  1  0
  9  4  2  0
 10  1  1  0
 11  1  1  0
 12  1  1  0
 13  4  1  0
 14  2  2  0
 15  3  2  0
 16  6  2  0
 17 16  1  0
 18 17  2  0
 19 20  2  0
 20 15  1  0
  7 18  1  0
 14 19  1  0
M  END
> <chembl_id>
CHEMBL23588

> <chembl_pref_name>
FLUFENAMIC ACID
