
     RDKit          2D

 29 31  0  0  1  0  0  0  0  0999 V2000
    2.7417   -7.2792    0.0000 N   0  0  0  0  0  0  0  0  0  0  0  0
    2.0375   -7.2750    0.0000 C   0  0  0  0  0  0  0  0  0  0  0  0
    2.0375   -6.5667    0.0000 C   0  0  0  0  0  0  0  0  0  0  0  0
    2.7458   -6.5708    0.0000 C   0  0  0  0  0  0  0  0  0  0  0  0
    3.3542   -7.6292    0.0000 C   0  0  0  0  0  0  0  0  0  0  0  0
    1.4167   -6.2167    0.0000 N   0  0  0  0  0  0  0  0  0  0  0  0
    3.3542   -6.2167    0.0000 S   0  0  0  0  0  0  0  0  0  0  0  0
    3.9667   -7.2792    0.0000 C   0  0  0  0  0  0  0  0  0  0  0  0
    0.8042   -6.5708    0.0000 C   0  0  0  0  0  0  0  0  0  0  0  0
    3.3542   -8.3417    0.0000 C   0  0  0  0  0  0  0  0  0  0  0  0
    3.9667   -6.5667    0.0000 C   0  0  0  0  0  0  0  0  0  0  0  0
    0.1917   -6.2167    0.0000 C   0  0  0  0  0  0  0  0  0  0  0  0
    1.5333   -7.7792    0.0000 O   0  0  0  0  0  0  0  0  0  0  0  0
    4.5833   -7.6292    0.0000 C   0  0  0  0  0  0  0  0  0  0  0  0
    5.8083   -7.6292    0.0000 C   0  0  0  0  0  0  0  0  0  0  0  0
    0.8083   -7.2792    0.0000 O   0  0  0  0  0  0  0  0  0  0  0  0
    2.7417   -8.6917    0.0000 O   0  0  0  0  0  0  0  0  0  0  0  0
    5.1958   -7.2750    0.0000 O   0  0  0  0  0  0  0  0  0  0  0  0
    5.8083   -8.3375    0.0000 O   0  0  0  0  0  0  0  0  0  0  0  0
   -0.4208   -6.5750    0.0000 C   0  0  0  0  0  0  0  0  0  0  0  0
    0.1917   -5.5083    0.0000 N   0  0  0  0  0  0  0  0  0  0  0  0
    3.9708   -8.6917    0.0000 O   0  0  0  0  0  0  0  0  0  0  0  0
    6.4208   -7.2750    0.0000 C   0  0  0  0  0  0  0  0  0  0  0  0
   -0.4167   -7.2750    0.0000 C   0  0  0  0  0  0  0  0  0  0  0  0
   -1.0333   -6.2167    0.0000 C   0  0  0  0  0  0  0  0  0  0  0  0
   -1.6458   -6.5708    0.0000 C   0  0  0  0  0  0  0  0  0  0  0  0
   -1.0250   -7.6333    0.0000 C   0  0  0  0  0  0  0  0  0  0  0  0
   -1.6458   -7.2792    0.0000 C   0  0  0  0  0  0  0  0  0  0  0  0
    2.7417   -5.8625    0.0000 H   0  0  0  0  0  0  0  0  0  0  0  0
  2  1  1  0
  3  4  1  0
  4  1  1  0
  5  1  1  0
  3  6  1  1
  7  4  1  0
  8  5  2  0
  9  6  1  0
 10  5  1  0
 11  7  1  0
 12  9  1  0
 13  2  2  0
 14  8  1  0
 15 18  1  0
 16  9  2  0
 17 10  2  0
 18 14  1  0
 19 15  2  0
 20 12  1  0
 12 21  1  1
 22 10  1  0
 23 15  1  0
 24 20  1  0
 25 20  2  0
 26 25  1  0
 27 24  2  0
 28 27  1  0
  4 29  1  6
  2  3  1  0
 11  8  1  0
 28 26  2  0
M  END
> <chembl_id>
CHEMBL1200971

> <chembl_pref_name>
CEPHALOGLYCIN
