
     RDKit          2D

 47 50  0  0  0  0  0  0  0  0999 V2000
    3.2000   -3.3667    0.0000 S   0  0  0  0  0  0  0  0  0  0  0  0
    3.5500   -2.7417    0.0000 O   0  0  0  0  0  0  0  0  0  0  0  0
    2.8417   -2.7417    0.0000 O   0  0  0  0  0  0  0  0  0  0  0  0
    3.8125   -3.7167    0.0000 O   0  0  0  0  0  0  0  0  0  0  0  0
    2.5875   -3.7167    0.0000 C   0  0  0  0  0  0  0  0  0  0  0  0
    4.7292   -0.3875    0.0000 C   0  0  0  0  0  0  0  0  0  0  0  0
    5.3417   -0.7292    0.0000 N   0  0  0  0  0  0  0  0  0  0  0  0
    1.7167   -0.7167    0.0000 C   0  0  0  0  0  0  0  0  0  0  0  0
    1.9375   -1.4042    0.0000 C   0  0  0  0  0  0  0  0  0  0  0  0
    1.1917   -1.2917    0.0000 C   0  0  0  0  0  0  0  0  0  0  0  0
    4.7292    0.3458    0.0000 C   0  0  0  0  0  0  0  0  0  0  0  0
    5.9667    0.3458    0.0000 C   0  0  0  0  0  0  0  0  0  0  0  0
    4.1042   -0.7292    0.0000 N   0  0  0  0  0  0  0  0  0  0  0  0
    2.8417   -0.7292    0.0000 N   0  0  0  0  0  0  0  0  0  0  0  0
    5.3417    0.7000    0.0000 C   0  0  0  0  0  0  0  0  0  0  0  0
    5.9667   -0.3875    0.0000 C   0  0  0  0  0  0  0  0  0  0  0  0
    3.4542   -0.3875    0.0000 C   0  0  0  0  0  0  0  0  0  0  0  0
    0.5542   -1.6500    0.0000 N   0  0  0  0  0  0  0  0  0  0  0  0
    2.2792   -0.3167    0.0000 C   0  0  0  0  0  0  0  0  0  0  0  0
    2.6375   -1.4042    0.0000 C   0  0  0  0  0  0  0  0  0  0  0  0
    5.3417   -1.4667    0.0000 C   0  0  0  0  0  0  0  0  0  0  0  0
    4.1042    0.7000    0.0000 C   0  0  0  0  0  0  0  0  0  0  0  0
   -0.0500   -1.2917    0.0000 C   0  0  0  0  0  0  0  0  0  0  0  0
    6.5917    0.7000    0.0000 C   0  0  0  0  0  0  0  0  0  0  0  0
    3.4542    0.3458    0.0000 C   0  0  0  0  0  0  0  0  0  0  0  0
   -1.9083   -1.6500    0.0000 C   0  0  0  0  0  0  0  0  0  0  0  0
   -1.2958   -1.2917    0.0000 N   0  0  0  0  0  0  0  0  0  0  0  0
    5.9167   -1.8167    0.0000 C   0  0  0  0  0  0  0  0  0  0  0  0
   -0.6625   -1.6500    0.0000 C   0  0  0  0  0  0  0  0  0  0  0  0
    5.9167   -2.5250    0.0000 C   0  0  0  0  0  0  0  0  0  0  0  0
    4.7292   -1.8167    0.0000 C   0  0  0  0  0  0  0  0  0  0  0  0
    5.3417    1.4375    0.0000 O   0  0  0  0  0  0  0  0  0  0  0  0
   -0.0500   -0.5875    0.0000 O   0  0  0  0  0  0  0  0  0  0  0  0
   -1.9083   -2.3417    0.0000 O   0  0  0  0  0  0  0  0  0  0  0  0
    6.5917    1.4125    0.0000 O   0  0  0  0  0  0  0  0  0  0  0  0
   -2.4833   -1.2917    0.0000 C   0  0  0  0  0  0  0  0  0  0  0  0
    5.3417   -2.8625    0.0000 C   0  0  0  0  0  0  0  0  0  0  0  0
    2.8417    0.7000    0.0000 F   0  0  0  0  0  0  0  0  0  0  0  0
    6.5292   -1.4667    0.0000 F   0  0  0  0  0  0  0  0  0  0  0  0
    7.2000    0.3458    0.0000 O   0  0  0  0  0  0  0  0  0  0  0  0
    4.7292   -2.5250    0.0000 C   0  0  0  0  0  0  0  0  0  0  0  0
   -3.1083   -1.6500    0.0000 N   0  0  0  0  0  0  0  0  0  0  0  0
    5.3417   -3.5667    0.0000 F   0  0  0  0  0  0  0  0  0  0  0  0
   -0.6625   -2.3417    0.0000 C   0  0  0  0  0  0  0  0  0  0  0  0
   -2.4833   -0.5875    0.0000 C   0  0  0  0  0  0  0  0  0  0  0  0
    1.5042   -0.0542    0.0000 H   0  0  0  0  0  0  0  0  0  0  0  0
    2.1250   -2.0542    0.0000 H   0  0  0  0  0  0  0  0  0  0  0  0
  2  1  2  0
  3  1  2  0
  4  1  1  0
  5  1  1  0
  7  6  1  0
  8 19  1  0
  9 20  1  0
 10  8  1  0
 11  6  2  0
 12 15  1  0
 13  6  1  0
 14 17  1  0
 15 11  1  0
 16  7  1  0
 17 13  2  0
 10 18  1  6
 19 14  1  0
 20 14  1  0
 21  7  1  0
 22 11  1  0
 23 18  1  0
 24 12  1  0
 25 17  1  0
 26 27  1  0
 27 29  1  0
 28 21  1  0
 29 23  1  0
 30 28  2  0
 31 21  2  0
 32 15  2  0
 33 23  2  0
 34 26  2  0
 35 24  2  0
 36 26  1  0
 37 41  2  0
 38 25  1  0
 39 28  1  0
 40 24  1  0
 41 31  1  0
 42 36  1  0
 43 37  1  0
 29 44  1  6
 36 45  1  1
  8 46  1  6
  9 47  1  6
 16 12  2  0
 22 25  2  0
  8  9  1  0
 30 37  1  0
  9 10  1  0
M  END
> <chembl_id>
CHEMBL1200498

> <chembl_pref_name>
ALATROFLOXACIN MESYLATE
