
     RDKit          2D

 67 68  0  0  0  0  0  0  0  0999 V2000
   20.6220   -4.2758    0.0000 C   0  0  0  0  0  0  0  0  0  0  0  0
   21.3365   -3.8642    0.0000 N   0  0  0  0  0  0  0  0  0  0  0  0
   22.0509   -4.2758    0.0000 C   0  0  0  0  0  0  0  0  0  0  0  0
   22.7655   -3.8642    0.0000 C   0  0  0  0  0  0  0  0  0  0  0  0
   23.4799   -4.2758    0.0000 N   0  0  0  0  0  0  0  0  0  0  0  0
   23.4799   -5.1008    0.0000 C   0  0  0  0  0  0  0  0  0  0  0  0
   24.1943   -5.5142    0.0000 C   0  0  0  0  0  0  0  0  0  0  0  0
   24.9109   -5.1008    0.0000 C   0  0  0  0  0  0  0  0  0  0  0  0
   25.6231   -5.5142    0.0000 C   0  0  0  0  0  0  0  0  0  0  0  0
   26.3398   -5.1008    0.0000 C   0  0  0  0  0  0  0  0  0  0  0  0
   27.0541   -5.5142    0.0000 C   0  0  0  0  0  0  0  0  0  0  0  0
   27.7687   -5.1008    0.0000 C   0  0  0  0  0  0  0  0  0  0  0  0
   28.4831   -5.5142    0.0000 O   0  0  0  0  0  0  0  0  0  0  0  0
   27.7687   -4.2758    0.0000 O   0  0  0  0  0  0  0  0  0  0  0  0
   25.6231   -6.3392    0.0000 C   0  0  0  0  0  0  0  0  0  0  0  0
   24.9109   -6.7508    0.0000 C   0  0  0  0  0  0  0  0  0  0  0  0
   24.1943   -6.3392    0.0000 C   0  0  0  0  0  0  0  0  0  0  0  0
   23.4799   -6.7508    0.0000 O   0  0  0  0  0  0  0  0  0  0  0  0
   24.1943   -3.8642    0.0000 C   0  0  0  0  0  0  0  0  0  0  0  0
   24.1943   -3.0392    0.0000 C   0  0  0  0  0  0  0  0  0  0  0  0
   24.9088   -2.6258    0.0000 O   0  0  0  0  0  0  0  0  0  0  0  0
   23.4799   -2.6258    0.0000 O   0  0  0  0  0  0  0  0  0  0  0  0
   21.3365   -3.0392    0.0000 C   0  0  0  0  0  0  0  0  0  0  0  0
   22.0509   -2.6258    0.0000 C   0  0  0  0  0  0  0  0  0  0  0  0
   22.7655   -3.0392    0.0000 O   0  0  0  0  0  0  0  0  0  0  0  0
   22.0509   -1.8008    0.0000 O   0  0  0  0  0  0  0  0  0  0  0  0
   19.9076   -3.8642    0.0000 C   0  0  0  0  0  0  0  0  0  0  0  0
   19.1910   -4.2758    0.0000 C   0  0  0  0  0  0  0  0  0  0  0  0
   18.4786   -3.8642    0.0000 C   0  0  0  0  0  0  0  0  0  0  0  0
   17.7642   -4.2758    0.0000 C   0  0  0  0  0  0  0  0  0  0  0  0
   17.0496   -3.8642    0.0000 C   0  0  0  0  0  0  0  0  0  0  0  0
   16.3352   -4.2758    0.0000 C   0  0  0  0  0  0  0  0  0  0  0  0
   15.6207   -3.8642    0.0000 N   0  0  0  0  0  0  0  0  0  0  0  0
   14.9063   -4.2758    0.0000 C   0  0  0  0  0  0  0  0  0  0  0  0
   14.1919   -3.8642    0.0000 C   0  0  0  0  0  0  0  0  0  0  0  0
   13.4754   -4.2758    0.0000 C   0  0  0  0  0  0  0  0  0  0  0  0
   12.7608   -3.8642    0.0000 C   0  0  0  0  0  0  0  0  0  0  0  0
   12.0464   -4.2758    0.0000 C   0  0  0  0  0  0  0  0  0  0  0  0
   11.3320   -3.8642    0.0000 C   0  0  0  0  0  0  0  0  0  0  0  0
   10.6174   -4.2758    0.0000 N   0  0  0  0  0  0  0  0  0  0  0  0
    9.9031   -3.8642    0.0000 C   0  0  0  0  0  0  0  0  0  0  0  0
    9.1885   -4.2758    0.0000 C   0  0  0  0  0  0  0  0  0  0  0  0
    8.4741   -3.8642    0.0000 C   0  0  0  0  0  0  0  0  0  0  0  0
    7.7597   -4.2758    0.0000 C   0  0  0  0  0  0  0  0  0  0  0  0
    7.0451   -3.8642    0.0000 C   0  0  0  0  0  0  0  0  0  0  0  0
    7.0451   -3.0392    0.0000 N   0  0  0  0  0  0  0  0  0  0  0  0
    6.3307   -2.6258    0.0000 C   0  0  0  0  0  0  0  0  0  0  0  0
    5.6162   -3.0392    0.0000 N   0  0  0  0  0  0  0  0  0  0  0  0
    4.9018   -2.6258    0.0000 C   0  0  0  0  0  0  0  0  0  0  0  0
    4.1874   -3.0392    0.0000 C   0  0  0  0  0  0  0  0  0  0  0  0
    3.4728   -2.6258    0.0000 C   0  0  0  0  0  0  0  0  0  0  0  0
    2.7585   -3.0392    0.0000 C   0  0  0  0  0  0  0  0  0  0  0  0
    2.0419   -2.6258    0.0000 O   0  0  0  0  0  0  0  0  0  0  0  0
    2.7585   -3.8642    0.0000 O   0  0  0  0  0  0  0  0  0  0  0  0
    4.9018   -1.8008    0.0000 C   0  0  0  0  0  0  0  0  0  0  0  0
    4.1874   -1.3892    0.0000 O   0  0  0  0  0  0  0  0  0  0  0  0
    5.6162   -1.3892    0.0000 O   0  0  0  0  0  0  0  0  0  0  0  0
    6.3307   -1.8008    0.0000 O   0  0  0  0  0  0  0  0  0  0  0  0
    6.3307   -4.2758    0.0000 C   0  0  0  0  0  0  0  0  0  0  0  0
    5.6162   -3.8642    0.0000 O   0  0  0  0  0  0  0  0  0  0  0  0
    6.3307   -5.1008    0.0000 O   0  0  0  0  0  0  0  0  0  0  0  0
   11.3320   -3.0392    0.0000 O   0  0  0  0  0  0  0  0  0  0  0  0
   16.3352   -5.1008    0.0000 O   0  0  0  0  0  0  0  0  0  0  0  0
   18.4786   -3.0392    0.0000 C   0  0  0  0  0  0  0  0  0  0  0  0
   19.1910   -2.6258    0.0000 C   0  0  0  0  0  0  0  0  0  0  0  0
   19.9076   -3.0392    0.0000 C   0  0  0  0  0  0  0  0  0  0  0  0
   20.6220   -2.6258    0.0000 O   0  0  0  0  0  0  0  0  0  0  0  0
  1  2  1  0
  2  3  1  0
  3  4  1  0
  4  5  1  0
  5  6  1  0
  6  7  1  0
  7  8  2  0
  8  9  1  0
  9 10  1  0
 10 11  1  0
 11 12  1  0
 12 13  1  0
 12 14  2  0
  9 15  2  0
 16 15  1  0
  7 17  1  0
 17 16  2  0
 17 18  1  0
  5 19  1  0
 19 20  1  0
 20 21  1  0
 20 22  2  0
  2 23  1  0
 23 24  1  0
 24 25  1  0
 24 26  2  0
  1 27  1  0
 27 28  2  0
 28 29  1  0
 29 30  1  0
 30 31  1  0
 31 32  1  0
 32 33  1  0
 33 34  1  0
 34 35  1  0
 35 36  1  0
 36 37  1  0
 37 38  1  0
 38 39  1  0
 39 40  1  0
 40 41  1  0
 41 42  1  0
 42 43  1  0
 43 44  1  0
 44 45  1  0
 45 46  1  1
 46 47  1  0
 47 48  1  0
 48 49  1  0
 49 50  1  0
 50 51  1  0
 51 52  1  0
 52 53  1  0
 52 54  2  0
 49 55  1  1
 55 56  1  0
 55 57  2  0
 47 58  2  0
 45 59  1  0
 59 60  1  0
 59 61  2  0
 39 62  2  0
 32 63  2  0
 29 64  2  0
 65 64  1  0
 27 66  1  0
 66 65  2  0
 66 67  1  0
M  END
> <chembl_id>
CHEMBL3578202

> <chembl_pref_name>
GOZETOTIDE
