
     RDKit          2D

 16 16  0  0  0  0  0  0  0  0999 V2000
   -0.1833   -0.6625    0.0000 C   0  0  0  0  0  0  0  0  0  0  0  0
   -1.4458   -2.8167    0.0000 N   0  0  0  0  0  0  0  0  0  0  0  0
   -2.6875   -0.6625    0.0000 N   0  0  0  0  0  0  0  0  0  0  0  0
   -0.1833   -2.1042    0.0000 C   0  0  0  0  0  0  0  0  0  0  0  0
   -1.4250    0.0625    0.0000 C   0  0  0  0  0  0  0  0  0  0  0  0
   -2.6875   -2.1042    0.0000 C   0  0  0  0  0  0  0  0  0  0  0  0
    0.5375    0.5875    0.0000 C   0  0  0  0  0  0  0  0  0  0  0  0
   -1.4250    1.5458    0.0000 O   0  0  0  0  0  0  0  0  0  0  0  0
    0.9000   -2.6792    0.0000 O   0  0  0  0  0  0  0  0  0  0  0  0
   -3.9625   -2.8167    0.0000 O   0  0  0  0  0  0  0  0  0  0  0  0
    1.2042   -0.2875    0.0000 C   0  0  0  0  0  0  0  0  0  0  0  0
    1.9792    0.5875    0.0000 C   0  0  0  0  0  0  0  0  0  0  0  0
    2.7000    1.8458    0.0000 C   0  0  0  0  0  0  0  0  0  0  0  0
    2.2167   -1.3042    0.0000 C   0  0  0  0  0  0  0  0  0  0  0  0
    4.1375    1.8458    0.0000 C   0  0  0  0  0  0  0  0  0  0  0  0
    1.9750    3.0875    0.0000 C   0  0  0  0  0  0  0  0  0  0  0  0
  2  4  1  0
  3  5  1  0
  4  1  1  0
  5  1  1  0
  6  3  1  0
  7  1  1  0
  8  5  2  0
  9  4  2  0
 10  6  2  0
 11  1  1  0
 12  7  1  0
 13 12  1  0
 14 11  1  0
 15 13  1  0
 16 13  1  0
  2  6  1  0
M  END
> <chembl_id>
CHEMBL267894

> <chembl_pref_name>
AMOBARBITAL
