
     RDKit          2D

 33 28  0  0  0  0  0  0  0  0999 V2000
   -0.2946   -6.6884    0.0000 O   0  0  0  0  0  0  0  0  0  0  0  0
    0.8889   -2.9661    0.0000 C   0  0  0  0  0  0  0  0  0  0  0  0
   -0.5401   -2.9661    0.0000 C   0  0  0  0  0  0  0  0  0  0  0  0
   -0.5401   -2.1558    0.0000 C   0  0  0  0  0  0  0  0  0  0  0  0
    0.8889   -2.1558    0.0000 C   0  0  0  0  0  0  0  0  0  0  0  0
    0.1817   -3.3786    0.0000 O   0  0  0  0  0  0  0  0  0  0  0  0
    0.1817   -1.7433    0.0000 O   0  0  0  0  0  0  0  0  0  0  0  0
   -1.2473   -3.3786    0.0000 C   0  0  0  0  0  0  0  0  0  0  0  0
   -1.2473   -1.7433    0.0000 C   0  0  0  0  0  0  0  0  0  0  0  0
   -1.9692   -2.1558    0.0000 C   0  0  0  0  0  0  0  0  0  0  0  0
   -1.9692   -2.9661    0.0000 C   0  0  0  0  0  0  0  0  0  0  0  0
    1.6108   -3.3786    0.0000 C   0  0  0  0  0  0  0  0  0  0  0  0
    1.6108   -1.7433    0.0000 O   0  0  0  0  0  0  0  0  0  0  0  0
    2.3326   -2.9661    0.0000 C   0  0  0  0  0  0  0  0  0  0  0  0
    2.3326   -2.1558    0.0000 C   0  0  0  0  0  0  0  0  0  0  0  0
    0.8889   -3.9826    0.0000 O   0  0  0  0  0  0  0  0  0  0  0  0
    1.6108   -4.1889    0.0000 O   0  0  0  0  0  0  0  0  0  0  0  0
   -1.2473   -4.1889    0.0000 N   0  0  0  0  0  0  0  0  0  0  0  0
   -2.6910   -1.7433    0.0000 N   0  0  0  0  0  0  0  0  0  0  0  0
   -1.2473   -0.9183    0.0000 O   0  0  0  0  0  0  0  0  0  0  0  0
   -2.6910   -3.3786    0.0000 O   0  0  0  0  0  0  0  0  0  0  0  0
    3.0496   -1.7433    0.0000 C   0  0  0  0  0  0  0  0  0  0  0  0
   -0.5451   -4.6014    0.0000 C   0  0  0  0  0  0  0  0  0  0  0  0
   -3.3884   -2.1558    0.0000 C   0  0  0  0  0  0  0  0  0  0  0  0
   -0.5401   -3.8206    0.0000 H   0  0  0  0  0  0  0  0  0  0  0  0
   -0.5401   -1.3161    0.0000 H   0  0  0  0  0  0  0  0  0  0  0  0
    0.9134   -1.1246    0.0000 H   0  0  0  0  0  0  0  0  0  0  0  0
   -2.9612   -5.0433    0.0000 Cl  0  0  0  0  0  0  0  0  0  0  0  0
   -2.3277   -5.5393    0.0000 Cl  0  0  0  0  0  0  0  0  0  0  0  0
   -0.9134   -5.7161    0.0000 O   0  0  0  0  0  0  0  0  0  0  0  0
   -0.0295   -5.6571    0.0000 O   0  0  0  0  0  0  0  0  0  0  0  0
    1.2080   -5.2741    0.0000 O   0  0  0  0  0  0  0  0  0  0  0  0
    0.9134   -6.1875    0.0000 O   0  0  0  0  0  0  0  0  0  0  0  0
  3  6  1  0
  4  3  1  0
  5  2  1  0
  6  2  1  0
  7  5  1  0
  8  3  1  0
  9  4  1  0
 10 11  1  0
 11  8  1  0
 12  2  1  0
 13  5  1  0
 14 12  1  0
 15 14  1  0
  2 16  1  1
 17 12  2  0
  8 18  1  1
 10 19  1  1
  9 20  1  6
 11 21  1  1
 15 22  1  6
 23 18  1  0
 24 19  1  0
  3 25  1  1
  4 26  1  6
  5 27  1  1
  4  7  1  0
 15 13  1  0
  9 10  1  0
M  END
> <chembl_id>
CHEMBL3989571

> <chembl_pref_name>
SPECTINOMYCIN HYDROCHLORIDE
