
     RDKit          2D

 30 33  0  0  0  0  0  0  0  0999 V2000
    2.4701   -4.5447    0.0000 N   0  0  0  0  0  0  0  0  0  0  0  0
    3.1697   -4.1299    0.0000 C   0  0  0  0  0  0  0  0  0  0  0  0
    2.4701   -2.8851    0.0000 S   0  0  0  0  0  0  0  0  0  0  0  0
    3.1697   -3.3049    0.0000 C   0  0  0  0  0  0  0  0  0  0  0  0
    1.7562   -4.1299    0.0000 C   0  0  0  0  0  0  0  0  0  0  0  0
    1.7562   -3.3049    0.0000 C   0  0  0  0  0  0  0  0  0  0  0  0
    3.8693   -4.5447    0.0000 C   0  0  0  0  0  0  0  0  0  0  0  0
    4.5930   -4.1299    0.0000 C   0  0  0  0  0  0  0  0  0  0  0  0
    3.8693   -6.9908    0.0000 N   0  0  0  0  0  0  0  0  0  0  0  0
    5.2878   -7.8062    0.0000 N   0  0  0  0  0  0  0  0  0  0  0  0
    5.2878   -4.5447    0.0000 C   0  0  0  0  0  0  0  0  0  0  0  0
    3.8693   -2.8851    0.0000 C   0  0  0  0  0  0  0  0  0  0  0  0
    4.5930   -3.3049    0.0000 C   0  0  0  0  0  0  0  0  0  0  0  0
    5.2878   -5.3697    0.0000 O   0  0  0  0  0  0  0  0  0  0  0  0
    2.4701   -5.3697    0.0000 C   0  0  0  0  0  0  0  0  0  0  0  0
    5.2878   -6.9908    0.0000 C   0  0  0  0  0  0  0  0  0  0  0  0
    3.8693   -7.8062    0.0000 C   0  0  0  0  0  0  0  0  0  0  0  0
    4.5930   -6.5759    0.0000 C   0  0  0  0  0  0  0  0  0  0  0  0
    4.5930   -8.2259    0.0000 C   0  0  0  0  0  0  0  0  0  0  0  0
    3.1697   -5.7654    0.0000 C   0  0  0  0  0  0  0  0  0  0  0  0
    3.1697   -6.5759    0.0000 C   0  0  0  0  0  0  0  0  0  0  0  0
    1.0325   -4.5447    0.0000 C   0  0  0  0  0  0  0  0  0  0  0  0
    6.0114   -8.2259    0.0000 C   0  0  0  0  0  0  0  0  0  0  0  0
    1.0325   -2.8851    0.0000 C   0  0  0  0  0  0  0  0  0  0  0  0
    7.4299   -8.2259    0.0000 O   0  0  0  0  0  0  0  0  0  0  0  0
    6.0114   -4.1299    0.0000 C   0  0  0  0  0  0  0  0  0  0  0  0
    6.7207   -7.8062    0.0000 C   0  0  0  0  0  0  0  0  0  0  0  0
    6.7207   -4.5447    0.0000 C   0  0  0  0  0  0  0  0  0  0  0  0
    0.3184   -4.1299    0.0000 C   0  0  0  0  0  0  0  0  0  0  0  0
    0.3184   -3.3049    0.0000 C   0  0  0  0  0  0  0  0  0  0  0  0
  2  1  1  0
  3  6  1  0
  4  2  1  0
  5  1  1  0
  6  5  2  0
  7  2  2  0
  8  7  1  0
  9 21  1  0
 10 19  1  0
 11  8  1  0
 12  4  2  0
 13  8  2  0
 14 11  2  0
 15  1  1  0
 16 18  1  0
 17  9  1  0
 18  9  1  0
 19 17  1  0
 20 15  1  0
 21 20  1  0
 22  5  1  0
 23 10  1  0
 24  6  1  0
 25 27  1  0
 26 11  1  0
 27 23  1  0
 28 26  1  0
 29 22  2  0
 30 24  2  0
  4  3  1  0
 29 30  1  0
 12 13  1  0
 16 10  1  0
M  END
> <chembl_id>
CHEMBL1201328

> <chembl_pref_name>
CARPHENAZINE
