
     RDKit          2D

 28 29  0  0  0  0  0  0  0  0999 V2000
   11.3548   -3.2924    0.0000 O   0  0  0  0  0  0  0  0  0  0  0  0
   12.1798   -3.2924    0.0000 S   0  0  0  0  0  0  0  0  0  0  0  0
   13.0048   -3.2924    0.0000 O   0  0  0  0  0  0  0  0  0  0  0  0
   12.1798   -2.4674    0.0000 O   0  0  0  0  0  0  0  0  0  0  0  0
   12.1798   -4.1174    0.0000 O   0  0  0  0  0  0  0  0  0  0  0  0
    5.8219   -2.7648    0.0000 C   0  0  0  0  0  0  0  0  0  0  0  0
    6.8998   -3.5783    0.0000 C   0  0  0  0  0  0  0  0  0  0  0  0
    6.3803   -3.1416    0.0000 C   0  0  0  0  0  0  0  0  0  0  0  0
    5.3929   -3.1416    0.0000 C   0  0  0  0  0  0  0  0  0  0  0  0
    5.2489   -2.3170    0.0000 N   0  0  0  0  0  0  0  0  0  0  0  0
    6.7619   -2.7494    0.0000 C   0  0  0  0  0  0  0  0  0  0  0  0
    4.8652   -3.8657    0.0000 C   0  0  0  0  0  0  0  0  0  0  0  0
    5.4930   -3.4853    0.0000 C   0  0  0  0  0  0  0  0  0  0  0  0
    5.1616   -1.3245    0.0000 C   0  0  0  0  0  0  0  0  0  0  0  0
    4.5642   -3.1416    0.0000 H   0  0  0  0  0  0  0  0  0  0  0  0
    6.2240   -2.0473    0.0000 H   0  0  0  0  0  0  0  0  0  0  0  0
    7.1086   -4.3683    0.0000 O   0  0  0  0  0  0  0  0  0  0  0  0
    7.8199   -4.7786    0.0000 C   0  0  0  0  0  0  0  0  0  0  0  0
    8.5363   -4.3700    0.0000 C   0  0  0  0  0  0  0  0  0  0  0  0
    7.8180   -5.6038    0.0000 O   0  0  0  0  0  0  0  0  0  0  0  0
    9.2506   -4.7821    0.0000 C   0  0  0  0  0  0  0  0  0  0  0  0
    8.5383   -3.5446    0.0000 C   0  0  0  0  0  0  0  0  0  0  0  0
    9.2547   -3.1314    0.0000 O   0  0  0  0  0  0  0  0  0  0  0  0
    9.2508   -5.6071    0.0000 C   0  0  0  0  0  0  0  0  0  0  0  0
    9.9654   -6.0194    0.0000 C   0  0  0  0  0  0  0  0  0  0  0  0
   10.6798   -5.6067    0.0000 C   0  0  0  0  0  0  0  0  0  0  0  0
   10.6796   -4.7816    0.0000 C   0  0  0  0  0  0  0  0  0  0  0  0
    9.9650   -4.3694    0.0000 C   0  0  0  0  0  0  0  0  0  0  0  0
  1  2  1  0
  2  3  1  0
  2  4  2  0
  2  5  2  0
  7  8  1  0
  9 15  1  1
  8  9  1  0
  6 16  1  6
  9 10  1  0
  7 17  1  6
 10  6  1  0
 17 18  1  0
  6 11  1  0
 18 19  1  0
 11  7  1  0
 18 20  2  0
  9 12  1  0
 19 21  1  0
  6 13  1  0
 19 22  1  0
 12 13  1  0
 22 23  1  0
 10 14  1  0
 21 24  1  0
 21 28  2  0
 24 25  2  0
 25 26  1  0
 26 27  2  0
 27 28  1  0
M  END
> <chembl_id>
CHEMBL2146146

> <chembl_pref_name>
ATROPINE SULFATE
