
     RDKit          2D

 29 27  0  0  0  0  0  0  0  0999 V2000
   12.8299    0.3506    0.0000 O   0  0  0  0  0  0  0  0  0  0  0  0
    4.9902   -0.9250    0.0000 C   0  0  0  0  0  0  0  0  0  0  0  0
    4.9891   -1.7523    0.0000 C   0  0  0  0  0  0  0  0  0  0  0  0
    5.7039   -2.1652    0.0000 C   0  0  0  0  0  0  0  0  0  0  0  0
    5.7021   -0.5122    0.0000 C   0  0  0  0  0  0  0  0  0  0  0  0
    6.4175   -0.9213    0.0000 C   0  0  0  0  0  0  0  0  0  0  0  0
    6.4182   -1.7482    0.0000 C   0  0  0  0  0  0  0  0  0  0  0  0
    7.1335   -2.1591    0.0000 N   0  0  0  0  0  0  0  0  0  0  0  0
    7.8486   -1.7444    0.0000 C   0  0  0  0  0  0  0  0  0  0  0  0
    7.8438   -0.9144    0.0000 C   0  0  0  0  0  0  0  0  0  0  0  0
    7.1279   -0.5072    0.0000 C   0  0  0  0  0  0  0  0  0  0  0  0
    7.1235    0.3178    0.0000 N   0  0  0  0  0  0  0  0  0  0  0  0
    7.8358    0.7341    0.0000 C   0  0  0  0  0  0  0  0  0  0  0  0
    8.5478    0.3220    0.0000 C   0  0  0  0  0  0  0  0  0  0  0  0
    9.2596    0.7376    0.0000 C   0  0  0  0  0  0  0  0  0  0  0  0
    9.2557    1.5634    0.0000 C   0  0  0  0  0  0  0  0  0  0  0  0
    8.5340    1.9720    0.0000 C   0  0  0  0  0  0  0  0  0  0  0  0
    7.8252    1.5540    0.0000 C   0  0  0  0  0  0  0  0  0  0  0  0
    4.2743   -2.1643    0.0000 Cl  0  0  0  0  0  0  0  0  0  0  0  0
    9.9674    1.9807    0.0000 O   0  0  0  0  0  0  0  0  0  0  0  0
    9.9761    0.3285    0.0000 C   0  0  0  0  0  0  0  0  0  0  0  0
    9.9801   -0.4965    0.0000 N   0  0  0  0  0  0  0  0  0  0  0  0
   10.6965   -0.9055    0.0000 C   0  0  0  0  0  0  0  0  0  0  0  0
    9.2676   -0.9124    0.0000 C   0  0  0  0  0  0  0  0  0  0  0  0
    9.2716   -1.7374    0.0000 C   0  0  0  0  0  0  0  0  0  0  0  0
   10.7005   -1.7305    0.0000 C   0  0  0  0  0  0  0  0  0  0  0  0
   11.5481    0.9063    0.0000 Cl  0  0  0  0  0  0  0  0  0  0  0  0
   11.5597    0.3506    0.0000 Cl  0  0  0  0  0  0  0  0  0  0  0  0
   12.8104    0.8961    0.0000 O   0  0  0  0  0  0  0  0  0  0  0  0
 12 13  1  0
  6  7  1  0
 13 14  2  0
  4  7  2  0
 14 15  1  0
  7  8  1  0
 15 16  2  0
  2  3  2  0
 16 17  1  0
  8  9  2  0
 17 18  2  0
 18 13  1  0
  6  5  2  0
  3 19  1  0
  9 10  1  0
 16 20  1  0
  5  2  1  0
 15 21  1  0
 10 11  2  0
 21 22  1  0
 11  6  1  0
 22 23  1  0
 22 24  1  0
 11 12  1  0
 24 25  1  0
  3  4  1  0
 23 26  1  0
M  END
> <chembl_id>
CHEMBL1357648

> <chembl_pref_name>
AMODIAQUINE HYDROCHLORIDE
