
     RDKit          2D

 14 15  0  0  0  0  0  0  0  0999 V2000
    5.0542   -4.8417    0.0000 Cl  0  0  0  0  0  0  0  0  0  0  0  0
    3.2000   -4.6625    0.0000 C   0  0  0  0  0  0  0  0  0  0  0  0
    3.8167   -5.6417    0.0000 C   0  0  0  0  0  0  0  0  0  0  0  0
    2.5833   -5.6583    0.0000 C   0  0  0  0  0  0  0  0  0  0  0  0
    2.9250   -6.1542    0.0000 C   0  0  0  0  0  0  0  0  0  0  0  0
    2.5833   -4.9458    0.0000 C   0  0  0  0  0  0  0  0  0  0  0  0
    3.8125   -4.9458    0.0000 C   0  0  0  0  0  0  0  0  0  0  0  0
    3.1958   -5.9292    0.0000 C   0  0  0  0  0  0  0  0  0  0  0  0
    2.9250   -5.1458    0.0000 C   0  0  0  0  0  0  0  0  0  0  0  0
    3.6083   -6.3125    0.0000 C   0  0  0  0  0  0  0  0  0  0  0  0
    2.0875   -6.4042    0.0000 C   0  0  0  0  0  0  0  0  0  0  0  0
    3.2000   -4.0875    0.0000 N   0  0  0  0  0  0  0  0  0  0  0  0
    4.3292   -5.8792    0.0000 C   0  0  0  0  0  0  0  0  0  0  0  0
    1.9875   -5.9292    0.0000 C   0  0  0  0  0  0  0  0  0  0  0  0
  3  7  1  0
  4  6  1  0
  5  9  1  0
  6  2  1  0
  7  2  1  0
  8  3  1  0
  9  2  1  0
 10  3  1  0
 11  5  1  0
 12  2  1  0
 13  3  1  0
 14  4  1  0
 10  5  1  0
  8  4  1  0
 11  4  1  0
M  END
> <chembl_id>
CHEMBL1699

> <chembl_pref_name>
MEMANTINE HYDROCHLORIDE
