
     RDKit          2D

  8  6  0  0  0  0  0  0  0  0999 V2000
    2.0625    3.8598    0.0000 Cl  0  0  0  0  0  0  0  0  0  0  0  0
    0.2652    3.7420    0.0000 C   0  0  0  0  0  0  0  0  0  0  0  0
    0.2652    2.9170    0.0000 N   0  0  0  0  0  0  0  0  0  0  0  0
   -0.4493    2.5045    0.0000 C   0  0  0  0  0  0  0  0  0  0  0  0
    0.9796    2.5045    0.0000 C   0  0  0  0  0  0  0  0  0  0  0  0
    1.6941    2.9170    0.0000 C   0  0  0  0  0  0  0  0  0  0  0  0
    2.4086    2.5045    0.0000 O   0  0  0  0  0  0  0  0  0  0  0  0
   -0.4493    3.3295    0.0000 C   0  0  0  0  0  0  0  0  0  0  0  0
  2  3  1  0
  3  4  1  0
  3  5  1  0
  5  6  1  0
  6  7  1  0
  3  8  1  0
M  CHG  2   1  -1   3   1
M  ISO  1   2  11
M  END
> <chembl_id>
CHEMBL2095207

> <chembl_pref_name>
CHOLINE C-11
