
     RDKit          2D

 23 25  0  0  0  0  0  0  0  0999 V2000
    6.6500   -5.5500    0.0000 C   0  0  0  0  0  0  0  0  0  0  0  0
    5.4000   -5.5500    0.0000 C   0  0  0  0  0  0  0  0  0  0  0  0
    6.0250   -5.9042    0.0000 C   0  0  0  0  0  0  0  0  0  0  0  0
    5.4000   -4.8417    0.0000 C   0  0  0  0  0  0  0  0  0  0  0  0
    6.6500   -4.8417    0.0000 C   0  0  0  0  0  0  0  0  0  0  0  0
    6.0250   -4.4875    0.0000 N   0  0  0  0  0  0  0  0  0  0  0  0
    4.7792   -4.4875    0.0000 C   0  0  0  0  0  0  0  0  0  0  0  0
    4.1542   -4.8417    0.0000 C   0  0  0  0  0  0  0  0  0  0  0  0
    4.7792   -5.9042    0.0000 C   0  0  0  0  0  0  0  0  0  0  0  0
    7.2625   -5.8917    0.0000 C   0  0  0  0  0  0  0  0  0  0  0  0
    4.1542   -5.5500    0.0000 C   0  0  0  0  0  0  0  0  0  0  0  0
    3.5417   -4.4917    0.0000 N   0  0  0  0  0  0  0  0  0  0  0  0
    6.0250   -6.6042    0.0000 O   0  0  0  0  0  0  0  0  0  0  0  0
    2.2917   -3.7875    0.0000 N   0  0  0  0  0  0  0  0  0  0  0  0
    7.2542   -6.5875    0.0000 O   0  0  0  0  0  0  0  0  0  0  0  0
    3.5417   -5.8917    0.0000 F   0  0  0  0  0  0  0  0  0  0  0  0
    7.8500   -5.5375    0.0000 O   0  0  0  0  0  0  0  0  0  0  0  0
    6.0250   -3.7792    0.0000 C   0  0  0  0  0  0  0  0  0  0  0  0
    2.9167   -4.8625    0.0000 C   0  0  0  0  0  0  0  0  0  0  0  0
    3.5417   -3.7792    0.0000 C   0  0  0  0  0  0  0  0  0  0  0  0
    2.3042   -4.4917    0.0000 C   0  0  0  0  0  0  0  0  0  0  0  0
    2.9042   -3.4167    0.0000 C   0  0  0  0  0  0  0  0  0  0  0  0
    6.6167   -3.4167    0.0000 C   0  0  0  0  0  0  0  0  0  0  0  0
  2  3  1  0
  3  1  1  0
  4  6  1  0
  5  1  2  0
  6  5  1  0
  7  4  2  0
  8  7  1  0
  9  2  2  0
 10  1  1  0
 11  9  1  0
 12  8  1  0
 13  3  2  0
 14 22  1  0
 15 10  2  0
 16 11  1  0
 17 10  1  0
 18  6  1  0
 19 12  1  0
 20 12  1  0
 21 19  1  0
 22 20  1  0
 23 18  1  0
  2  4  1  0
 11  8  2  0
 14 21  1  0
M  END
> <chembl_id>
CHEMBL9

> <chembl_pref_name>
NORFLOXACIN
