
     RDKit          2D

 43 42  0  0  0  0  0  0  0  0999 V2000
    8.9007   -1.7800    0.0000 C   0  0  0  0  0  0  0  0  0  0  0  0
   10.3275   -1.7800    0.0000 C   0  0  0  0  0  0  0  0  0  0  0  0
    9.6141   -0.5376    0.0000 C   0  0  0  0  0  0  0  0  0  0  0  0
    9.6141   -2.1925    0.0000 C   0  0  0  0  0  0  0  0  0  0  0  0
    8.9007   -0.9550    0.0000 C   0  0  0  0  0  0  0  0  0  0  0  0
   10.3275   -0.9501    0.0000 C   0  0  0  0  0  0  0  0  0  0  0  0
    8.1873   -2.1925    0.0000 N   0  0  0  0  0  0  0  0  0  0  0  0
    9.6141    0.2875    0.0000 C   0  0  0  0  0  0  0  0  0  0  0  0
   11.0458   -2.1925    0.0000 N   0  0  0  0  0  0  0  0  0  0  0  0
    7.4691   -1.7800    0.0000 C   0  0  0  0  0  0  0  0  0  0  0  0
   11.7593   -1.7752    0.0000 C   0  0  0  0  0  0  0  0  0  0  0  0
    9.6190   -3.0175    0.0000 I   0  0  0  0  0  0  0  0  0  0  0  0
    8.8959    0.6951    0.0000 O   0  0  0  0  0  0  0  0  0  0  0  0
    7.4739   -0.9550    0.0000 O   0  0  0  0  0  0  0  0  0  0  0  0
   11.0410   -0.5328    0.0000 I   0  0  0  0  0  0  0  0  0  0  0  0
    8.1873   -0.5376    0.0000 I   0  0  0  0  0  0  0  0  0  0  0  0
   11.7544   -0.9501    0.0000 O   0  0  0  0  0  0  0  0  0  0  0  0
   10.3275    0.6999    0.0000 O   0  0  0  0  0  0  0  0  0  0  0  0
    8.1873   -3.0175    0.0000 C   0  0  0  0  0  0  0  0  0  0  0  0
    6.7557   -2.1925    0.0000 C   0  0  0  0  0  0  0  0  0  0  0  0
   12.4727   -2.1876    0.0000 C   0  0  0  0  0  0  0  0  0  0  0  0
    0.8687   -1.5967    0.0000 C   0  0  0  0  0  0  0  0  0  0  0  0
    2.2955   -1.5967    0.0000 C   0  0  0  0  0  0  0  0  0  0  0  0
    1.5821   -0.3543    0.0000 C   0  0  0  0  0  0  0  0  0  0  0  0
    1.5821   -2.0092    0.0000 C   0  0  0  0  0  0  0  0  0  0  0  0
    0.8687   -0.7717    0.0000 C   0  0  0  0  0  0  0  0  0  0  0  0
    2.2955   -0.7668    0.0000 C   0  0  0  0  0  0  0  0  0  0  0  0
    0.1553   -2.0092    0.0000 N   0  0  0  0  0  0  0  0  0  0  0  0
    1.5821    0.4708    0.0000 C   0  0  0  0  0  0  0  0  0  0  0  0
    3.0138   -2.0092    0.0000 N   0  0  0  0  0  0  0  0  0  0  0  0
   -0.5629   -1.5967    0.0000 C   0  0  0  0  0  0  0  0  0  0  0  0
    3.7272   -1.5919    0.0000 C   0  0  0  0  0  0  0  0  0  0  0  0
    1.5870   -2.8342    0.0000 I   0  0  0  0  0  0  0  0  0  0  0  0
    0.8639    0.8785    0.0000 O   0  0  0  0  0  0  0  0  0  0  0  0
   -0.5582   -0.7717    0.0000 O   0  0  0  0  0  0  0  0  0  0  0  0
    3.0089   -0.3494    0.0000 I   0  0  0  0  0  0  0  0  0  0  0  0
    0.1553   -0.3543    0.0000 I   0  0  0  0  0  0  0  0  0  0  0  0
    3.7223   -0.7668    0.0000 O   0  0  0  0  0  0  0  0  0  0  0  0
    2.2955    0.8832    0.0000 O   0  0  0  0  0  0  0  0  0  0  0  0
    0.1553   -2.8342    0.0000 C   0  0  0  0  0  0  0  0  0  0  0  0
   -1.2763   -2.0092    0.0000 C   0  0  0  0  0  0  0  0  0  0  0  0
    4.4407   -2.0043    0.0000 C   0  0  0  0  0  0  0  0  0  0  0  0
    4.2514    0.6552    0.0000 Mg  0  0  0  0  0 15  0  0  0  0  0  0
  2  4  2  0
  3  5  1  0
  4  1  1  0
  5  1  2  0
  6  3  2  0
  7  1  1  0
  8  3  1  0
  9  2  1  0
 10  7  1  0
 11  9  1  0
 12  4  1  0
 13  8  2  0
 14 10  2  0
 15  6  1  0
 16  5  1  0
 17 11  2  0
 18  8  1  0
 19  7  1  0
 20 10  1  0
 21 11  1  0
  6  2  1  0
 23 25  2  0
 24 26  1  0
 25 22  1  0
 26 22  2  0
 27 24  2  0
 28 22  1  0
 29 24  1  0
 30 23  1  0
 31 28  1  0
 32 30  1  0
 33 25  1  0
 34 29  2  0
 35 31  2  0
 36 27  1  0
 37 26  1  0
 38 32  2  0
 39 29  1  0
 40 28  1  0
 41 31  1  0
 42 32  1  0
 27 23  1  0
M  CHG  3  18  -1  39  -1  43   2
M  END
> <chembl_id>
CHEMBL2364738

> <chembl_pref_name>
METRIZOATE MAGNESIUM
