
     RDKit          2D

 29 31  0  0  0  0  0  0  0  0999 V2000
    3.5667   -4.3292    0.0000 C   0  0  0  0  0  0  0  0  0  0  0  0
    4.7792   -4.3292    0.0000 N   0  0  0  0  0  0  0  0  0  0  0  0
    4.7792   -5.0417    0.0000 C   0  0  0  0  0  0  0  0  0  0  0  0
    2.9542   -3.9667    0.0000 C   0  0  0  0  0  0  0  0  0  0  0  0
    3.5667   -5.0417    0.0000 C   0  0  0  0  0  0  0  0  0  0  0  0
    5.3917   -5.4042    0.0000 C   0  0  0  0  0  0  0  0  0  0  0  0
    4.1750   -5.4042    0.0000 C   0  0  0  0  0  0  0  0  0  0  0  0
    4.1750   -3.9667    0.0000 C   0  0  0  0  0  0  0  0  0  0  0  0
    6.0000   -5.0417    0.0000 C   0  0  0  0  0  0  0  0  0  0  0  0
    5.3917   -6.1167    0.0000 C   0  0  0  0  0  0  0  0  0  0  0  0
    2.9542   -5.4042    0.0000 O   0  0  0  0  0  0  0  0  0  0  0  0
    6.0000   -6.4708    0.0000 C   0  0  0  0  0  0  0  0  0  0  0  0
    6.6042   -5.4042    0.0000 C   0  0  0  0  0  0  0  0  0  0  0  0
    6.6042   -6.1167    0.0000 C   0  0  0  0  0  0  0  0  0  0  0  0
    2.9542   -3.2542    0.0000 N   0  0  0  0  0  0  0  0  0  0  0  0
    2.9542   -6.1167    0.0000 C   0  0  0  0  0  0  0  0  0  0  0  0
    5.3917   -3.9667    0.0000 C   0  0  0  0  0  0  0  0  0  0  0  0
    2.3542   -4.3292    0.0000 O   0  0  0  0  0  0  0  0  0  0  0  0
    6.0000   -4.3292    0.0000 C   0  0  0  0  0  0  0  0  0  0  0  0
    3.5667   -6.4708    0.0000 O   0  0  0  0  0  0  0  0  0  0  0  0
    6.0000   -7.1917    0.0000 O   0  0  0  0  0  0  0  0  0  0  0  0
    7.2167   -6.4708    0.0000 O   0  0  0  0  0  0  0  0  0  0  0  0
    3.5667   -2.8958    0.0000 C   0  0  0  0  0  0  0  0  0  0  0  0
    2.3542   -2.8958    0.0000 C   0  0  0  0  0  0  0  0  0  0  0  0
    2.3542   -6.4708    0.0000 C   0  0  0  0  0  0  0  0  0  0  0  0
    6.6042   -7.5417    0.0000 C   0  0  0  0  0  0  0  0  0  0  0  0
    7.8250   -6.1167    0.0000 C   0  0  0  0  0  0  0  0  0  0  0  0
    3.5667   -2.1833    0.0000 C   0  0  0  0  0  0  0  0  0  0  0  0
    2.3542   -2.1833    0.0000 C   0  0  0  0  0  0  0  0  0  0  0  0
  2  8  1  0
  3  2  1  0
  4  1  1  0
  5  1  1  0
  6  3  1  0
  7  5  1  0
  8  1  1  0
  9 19  1  0
 10  6  1  0
 11  5  1  0
 12 10  2  0
 13  9  1  0
 14 13  2  0
 15  4  1  0
 16 11  1  0
 17  2  1  0
 18  4  2  0
 19 17  1  0
 20 16  2  0
 21 12  1  0
 22 14  1  0
 23 15  1  0
 24 15  1  0
 25 16  1  0
 26 21  1  0
 27 22  1  0
 28 23  1  0
 29 24  1  0
  3  7  1  0
  9  6  2  0
 14 12  1  0
M  END
> <chembl_id>
CHEMBL1201250

> <chembl_pref_name>
BENZQUINAMIDE
