
     RDKit          2D

 47 52  0  0  0  0  0  0  0  0999 V2000
   27.3254   -6.3462    0.0000 C   0  0  0  0  0  0  0  0  0  0  0  0
   28.1513   -6.5886    0.0000 N   0  0  0  0  0  0  0  0  0  0  0  0
   27.3254   -5.4856    0.0000 C   0  0  0  0  0  0  0  0  0  0  0  0
   26.5984   -5.0751    0.0000 C   0  0  0  0  0  0  0  0  0  0  0  0
   26.5984   -6.7518    0.0000 N   0  0  0  0  0  0  0  0  0  0  0  0
   28.1513   -5.2384    0.0000 N   0  0  0  0  0  0  0  0  0  0  0  0
   25.8961   -5.4856    0.0000 N   0  0  0  0  0  0  0  0  0  0  0  0
   28.6113   -5.9159    0.0000 C   0  0  0  0  0  0  0  0  0  0  0  0
   25.8961   -6.3462    0.0000 C   0  0  0  0  0  0  0  0  0  0  0  0
   28.1513   -7.7311    0.0000 C   0  0  0  0  0  0  0  0  0  0  0  0
   26.5984   -4.2591    0.0000 N   0  0  0  0  0  0  0  0  0  0  0  0
   27.8893   -8.5026    0.0000 C   0  0  0  0  0  0  0  0  0  0  0  0
   27.3205   -3.8436    0.0000 C   0  0  0  0  0  0  0  0  0  0  0  0
   27.0732   -8.5026    0.0000 C   0  0  0  0  0  0  0  0  0  0  0  0
   28.1267   -3.8585    0.0000 C   0  0  0  0  0  0  0  0  0  0  0  0
   27.7359   -3.1463    0.0000 C   0  0  0  0  0  0  0  0  0  0  0  0
   27.4886   -7.2266    0.0000 C   0  0  0  0  0  0  0  0  0  0  0  0
   25.1690   -6.7518    0.0000 N   0  0  0  0  0  0  0  0  0  0  0  0
   26.8061   -7.7261    0.0000 C   0  0  0  0  0  0  0  0  0  0  0  0
   25.3619   -7.7261    0.0000 O   0  0  0  0  0  0  0  0  0  0  0  0
   26.0889   -7.3106    0.0000 C   0  0  0  0  0  0  0  0  0  0  0  0
   20.5136   -6.3039    0.0000 C   0  0  0  0  0  0  0  0  0  0  0  0
   21.3395   -6.5463    0.0000 N   0  0  0  0  0  0  0  0  0  0  0  0
   20.5136   -5.4433    0.0000 C   0  0  0  0  0  0  0  0  0  0  0  0
   19.7865   -5.0329    0.0000 C   0  0  0  0  0  0  0  0  0  0  0  0
   19.7865   -6.7095    0.0000 N   0  0  0  0  0  0  0  0  0  0  0  0
   21.3395   -5.1961    0.0000 N   0  0  0  0  0  0  0  0  0  0  0  0
   19.0842   -5.4433    0.0000 N   0  0  0  0  0  0  0  0  0  0  0  0
   21.7994   -5.8736    0.0000 C   0  0  0  0  0  0  0  0  0  0  0  0
   19.0842   -6.3039    0.0000 C   0  0  0  0  0  0  0  0  0  0  0  0
   21.3395   -7.6888    0.0000 C   0  0  0  0  0  0  0  0  0  0  0  0
   19.7865   -4.2168    0.0000 N   0  0  0  0  0  0  0  0  0  0  0  0
   21.0774   -8.4603    0.0000 C   0  0  0  0  0  0  0  0  0  0  0  0
   20.5086   -3.8013    0.0000 C   0  0  0  0  0  0  0  0  0  0  0  0
   20.2613   -8.4603    0.0000 C   0  0  0  0  0  0  0  0  0  0  0  0
   21.3148   -3.8162    0.0000 C   0  0  0  0  0  0  0  0  0  0  0  0
   20.9240   -3.1040    0.0000 C   0  0  0  0  0  0  0  0  0  0  0  0
   20.6768   -7.1843    0.0000 C   0  0  0  0  0  0  0  0  0  0  0  0
   18.3571   -6.7095    0.0000 N   0  0  0  0  0  0  0  0  0  0  0  0
   19.9942   -7.6838    0.0000 C   0  0  0  0  0  0  0  0  0  0  0  0
   18.5500   -7.6838    0.0000 O   0  0  0  0  0  0  0  0  0  0  0  0
   19.2771   -7.2683    0.0000 C   0  0  0  0  0  0  0  0  0  0  0  0
   23.6888   -5.6362    0.0000 S   0  0  0  0  0  0  0  0  0  0  0  0
   24.5889   -5.6362    0.0000 O   0  0  0  0  0  0  0  0  0  0  0  0
   23.6888   -4.7608    0.0000 O   0  0  0  0  0  0  0  0  0  0  0  0
   22.8826   -5.6362    0.0000 O   0  0  0  0  0  0  0  0  0  0  0  0
   23.6888   -6.4276    0.0000 O   0  0  0  0  0  0  0  0  0  0  0  0
  2  1  1  0
  3  1  2  0
  4  3  1  0
  5  1  1  0
  6  3  1  0
  7  9  1  0
  8  2  1  0
  9  5  2  0
 10  2  1  1
 11  4  1  0
 12 10  1  0
 13 11  1  0
 14 12  2  0
 15 13  1  0
 16 13  1  0
 17 10  1  0
 18  9  1  0
 19 17  1  0
 20 21  1  0
 19 21  1  1
  8  6  2  0
  7  4  2  0
 14 19  1  0
 15 16  1  0
 23 22  1  0
 24 22  2  0
 25 24  1  0
 26 22  1  0
 27 24  1  0
 28 30  1  0
 29 23  1  0
 30 26  2  0
 31 23  1  1
 32 25  1  0
 33 31  1  0
 34 32  1  0
 35 33  2  0
 36 34  1  0
 37 34  1  0
 38 31  1  0
 39 30  1  0
 40 38  1  0
 41 42  1  0
 40 42  1  1
 29 27  2  0
 28 25  2  0
 35 40  1  0
 36 37  1  0
 44 43  2  0
 45 43  2  0
 46 43  1  0
 47 43  1  0
M  END
> <chembl_id>
CHEMBL4303288

> <chembl_pref_name>
ABACAVIR SULFATE
