
     RDKit          2D

 26 28  0  0  0  0  0  0  0  0999 V2000
    1.2944    0.5354    0.0000 N   0  0  0  0  0  0  0  0  0  0  0  0
    2.0083    0.9489    0.0000 C   0  0  0  0  0  0  0  0  0  0  0  0
    0.5763    0.9489    0.0000 C   0  0  0  0  0  0  0  0  0  0  0  0
   -0.1374    0.5354    0.0000 C   0  0  0  0  0  0  0  0  0  0  0  0
   -0.8555   -0.7042    0.0000 C   0  0  0  0  0  0  0  0  0  0  0  0
   -1.5694   -0.2909    0.0000 C   0  0  0  0  0  0  0  0  0  0  0  0
    2.7222    0.5354    0.0000 C   0  0  0  0  0  0  0  0  0  0  0  0
    2.0083    1.7755    0.0000 C   0  0  0  0  0  0  0  0  0  0  0  0
   -0.1374   -0.2909    0.0000 C   0  0  0  0  0  0  0  0  0  0  0  0
   -2.2874   -0.7042    0.0000 O   0  0  0  0  0  0  0  0  0  0  0  0
   -3.0013   -0.2909    0.0000 C   0  0  0  0  0  0  0  0  0  0  0  0
   -1.5694   -2.7707    0.0000 C   0  0  0  0  0  0  0  0  0  0  0  0
    3.4402    1.7755    0.0000 N   0  0  0  0  0  0  0  0  0  0  0  0
   -1.1561   -3.4846    0.0000 C   0  0  0  0  0  0  0  0  0  0  0  0
   -1.9827   -3.4846    0.0000 C   0  0  0  0  0  0  0  0  0  0  0  0
   -0.8555   -1.5309    0.0000 O   0  0  0  0  0  0  0  0  0  0  0  0
    0.5763    1.7755    0.0000 O   0  0  0  0  0  0  0  0  0  0  0  0
   -0.8555    0.9489    0.0000 C   0  0  0  0  0  0  0  0  0  0  0  0
   -1.5694    0.5354    0.0000 C   0  0  0  0  0  0  0  0  0  0  0  0
   -1.5694   -1.9441    0.0000 C   0  0  0  0  0  0  0  0  0  0  0  0
    2.7222   -0.2909    0.0000 Cl  0  0  0  0  0  0  0  0  0  0  0  0
    1.2944    2.1887    0.0000 Cl  0  0  0  0  0  0  0  0  0  0  0  0
   -3.0013    0.5354    0.0000 F   0  0  0  0  0  0  0  0  0  0  0  0
   -3.7194   -0.7042    0.0000 F   0  0  0  0  0  0  0  0  0  0  0  0
    3.4402    0.9489    0.0000 C   0  0  0  0  0  0  0  0  0  0  0  0
    2.7222    2.1887    0.0000 C   0  0  0  0  0  0  0  0  0  0  0  0
  2  1  1  0
  3  1  1  0
  4  3  1  0
  5  9  2  0
  6  5  1  0
  7  2  2  0
  8  2  1  0
  9  4  1  0
 10  6  1  0
 11 10  1  0
 12 20  1  0
 13 26  1  0
 14 12  1  0
 15 12  1  0
 16  5  1  0
 17  3  2  0
 18  4  2  0
 19 18  1  0
 20 16  1  0
 21  7  1  0
 22  8  1  0
 23 11  1  0
 24 11  1  0
 25  7  1  0
 26  8  2  0
 13 25  2  0
  6 19  2  0
 15 14  1  0
M  END
> <chembl_id>
CHEMBL193240

> <chembl_pref_name>
ROFLUMILAST
