
     RDKit          2D

 10  9  0  0  0  0  0  0  0  0999 V2000
   -7.8670   -0.3241    0.0000 C   0  0  0  0  0  0  0  0  0  0  0  0
   -7.1525    0.0884    0.0000 O   0  0  0  0  0  0  0  0  0  0  0  0
   -6.4380   -0.3241    0.0000 C   0  0  0  0  0  0  0  0  0  0  0  0
   -5.7236    0.0884    0.0000 C   0  0  0  0  0  0  0  0  0  0  0  0
   -5.0091   -0.3241    0.0000 C   0  0  0  0  0  0  0  0  0  0  0  0
   -4.2946    0.0884    0.0000 C   0  0  0  0  0  0  0  0  0  0  0  0
   -3.5801   -0.3241    0.0000 O   0  0  0  0  0  0  0  0  0  0  0  0
   -2.8657    0.0884    0.0000 C   0  0  0  0  0  0  0  0  0  0  0  0
   -4.2946    0.9134    0.0000 O   0  0  0  0  0  0  0  0  0  0  0  0
   -6.4380   -1.1491    0.0000 O   0  0  0  0  0  0  0  0  0  0  0  0
  1  2  1  0
  2  3  1  0
  3  4  1  0
  4  5  2  0
  5  6  1  0
  6  7  1  0
  7  8  1  0
  6  9  2  0
  3 10  2  0
M  END
> <chembl_id>
CHEMBL2107333

> <chembl_pref_name>
DIMETHYL FUMARATE
