
     RDKit          2D

 17 18  0  0  0  0  0  0  0  0999 V2000
   -0.3583    0.1208    0.0000 C   0  0  0  0  0  0  0  0  0  0  0  0
    1.5250    0.1000    0.0000 N   0  0  0  0  0  0  0  0  0  0  0  0
   -1.3208   -0.4167    0.0000 C   0  0  0  0  0  0  0  0  0  0  0  0
    0.6167   -0.3167    0.0000 C   0  0  0  0  0  0  0  0  0  0  0  0
   -2.2833    0.1625    0.0000 C   0  0  0  0  0  0  0  0  0  0  0  0
   -3.2458   -0.4167    0.0000 C   0  0  0  0  0  0  0  0  0  0  0  0
   -4.2083    0.1208    0.0000 O   0  0  0  0  0  0  0  0  0  0  0  0
   -0.3458   -0.9792    0.0000 C   0  0  0  0  0  0  0  0  0  0  0  0
   -0.6208    1.1750    0.0000 C   0  0  0  0  0  0  0  0  0  0  0  0
    2.4000   -0.4375    0.0000 C   0  0  0  0  0  0  0  0  0  0  0  0
    1.8500    1.2000    0.0000 C   0  0  0  0  0  0  0  0  0  0  0  0
   -1.3208   -1.5167    0.0000 C   0  0  0  0  0  0  0  0  0  0  0  0
   -2.2833   -2.0875    0.0000 C   0  0  0  0  0  0  0  0  0  0  0  0
   -3.2458   -1.5167    0.0000 C   0  0  0  0  0  0  0  0  0  0  0  0
    0.5750   -1.5542    0.0000 C   0  0  0  0  0  0  0  0  0  0  0  0
    0.0292    2.0958    0.0000 C   0  0  0  0  0  0  0  0  0  0  0  0
    1.1917    2.0958    0.0000 C   0  0  0  0  0  0  0  0  0  0  0  0
  2  4  1  0
  3  1  1  0
  4  1  1  0
  5  3  1  0
  6  5  2  0
  7  6  1  0
  8  1  1  0
  9  1  1  0
 10  2  1  0
 11  2  1  0
 12  3  2  0
 13 12  1  0
 14 13  2  0
 15  8  1  0
 16  9  1  0
 17 16  1  0
 11 17  1  0
  6 14  1  0
M  END
> <chembl_id>
CHEMBL314437

> <chembl_pref_name>
MEPTAZINOL
