
     RDKit          2D

 36 38  0  0  0  0  0  0  0  0999 V2000
  -21.2965    5.9879    0.0000 C   0  0  0  0  0  0  0  0  0  0  0  0
  -22.1034    5.8163    0.0000 C   0  0  0  0  0  0  0  0  0  0  0  0
  -22.6555    6.4294    0.0000 C   0  0  0  0  0  0  0  0  0  0  0  0
  -22.4005    7.2140    0.0000 C   0  0  0  0  0  0  0  0  0  0  0  0
  -21.5936    7.3856    0.0000 C   0  0  0  0  0  0  0  0  0  0  0  0
  -21.0415    6.7725    0.0000 C   0  0  0  0  0  0  0  0  0  0  0  0
  -20.2346    6.9440    0.0000 C   0  0  0  0  0  0  0  0  0  0  0  0
  -19.4809    7.2796    0.0000 C   0  0  0  0  0  0  0  0  0  0  0  0
  -18.9289    6.6665    0.0000 C   0  0  0  0  0  0  0  0  0  0  0  0
  -19.3414    5.9520    0.0000 N   0  0  0  0  0  0  0  0  0  0  0  0
  -20.1483    6.1235    0.0000 O   0  0  0  0  0  0  0  0  0  0  0  0
  -18.1084    6.7527    0.0000 C   0  0  0  0  0  0  0  0  0  0  0  0
  -17.6959    7.4672    0.0000 C   0  0  0  0  0  0  0  0  0  0  0  0
  -16.8889    7.2956    0.0000 C   0  0  0  0  0  0  0  0  0  0  0  0
  -16.8027    6.4752    0.0000 C   0  0  0  0  0  0  0  0  0  0  0  0
  -17.5563    6.1396    0.0000 S   0  0  0  0  0  0  0  0  0  0  0  0
  -16.0882    6.0627    0.0000 C   0  0  0  0  0  0  0  0  0  0  0  0
  -16.0882    5.2377    0.0000 O   0  0  0  0  0  0  0  0  0  0  0  0
  -15.3737    6.4752    0.0000 N   0  0  0  0  0  0  0  0  0  0  0  0
  -14.6592    6.0627    0.0000 C   0  0  0  0  0  0  0  0  0  0  0  0
  -13.9448    6.4752    0.0000 C   0  0  0  0  0  0  0  0  0  0  0  0
  -13.2303    6.0627    0.0000 N   0  0  0  0  0  0  0  0  0  0  0  0
  -13.9448    7.3002    0.0000 O   0  0  0  0  0  0  0  0  0  0  0  0
  -12.5158    6.4752    0.0000 C   0  0  0  0  0  0  0  0  0  0  0  0
  -11.8014    6.0627    0.0000 C   0  0  0  0  0  0  0  0  0  0  0  0
  -11.0869    5.6502    0.0000 F   0  0  0  0  0  0  0  0  0  0  0  0
  -11.3889    6.7771    0.0000 F   0  0  0  0  0  0  0  0  0  0  0  0
  -12.2139    5.3482    0.0000 F   0  0  0  0  0  0  0  0  0  0  0  0
  -20.4895    7.7286    0.0000 C   0  0  0  0  0  0  0  0  0  0  0  0
  -20.7444    8.5132    0.0000 F   0  0  0  0  0  0  0  0  0  0  0  0
  -19.7049    7.9836    0.0000 F   0  0  0  0  0  0  0  0  0  0  0  0
  -21.2741    7.4737    0.0000 F   0  0  0  0  0  0  0  0  0  0  0  0
  -22.3584    5.0317    0.0000 Cl  0  0  0  0  0  0  0  0  0  0  0  0
  -23.4624    6.2579    0.0000 Cl  0  0  0  0  0  0  0  0  0  0  0  0
  -22.9526    7.8271    0.0000 Cl  0  0  0  0  0  0  0  0  0  0  0  0
  -16.2758    7.8477    0.0000 C   0  0  0  0  0  0  0  0  0  0  0  0
  1  2  1  0
  1  6  2  0
  2  3  2  0
  3  4  1  0
  4  5  2  0
  5  6  1  0
  7  6  1  0
  7  8  1  0
  7 11  1  0
  8  9  1  0
  9 10  2  0
 10 11  1  0
  9 12  1  0
 12 13  2  0
 12 16  1  0
 13 14  1  0
 14 15  2  0
 15 16  1  0
 15 17  1  0
 17 18  2  0
 17 19  1  0
 19 20  1  0
 20 21  1  0
 21 22  1  0
 21 23  2  0
 22 24  1  0
 24 25  1  0
 25 26  1  0
 25 27  1  0
 25 28  1  0
  7 29  1  1
 29 30  1  0
 29 31  1  0
 29 32  1  0
  2 33  1  0
  3 34  1  0
  4 35  1  0
 14 36  1  0
M  END
> <chembl_id>
CHEMBL3707310

> <chembl_pref_name>
LOTILANER
