
     RDKit          2D

 24 25  0  0  0  0  0  0  0  0999 V2000
    8.2241   -5.1942    0.0000 Br  0  0  0  0  0  0  0  0  0  0  0  0
    8.5603   -2.8735    0.0000 C   0  0  0  0  0  0  0  0  0  0  0  0
    9.6382   -3.6870    0.0000 C   0  0  0  0  0  0  0  0  0  0  0  0
    9.1187   -3.2503    0.0000 C   0  0  0  0  0  0  0  0  0  0  0  0
    8.1313   -3.2503    0.0000 C   0  0  0  0  0  0  0  0  0  0  0  0
    7.9873   -2.4257    0.0000 N   0  0  0  0  0  0  0  0  0  0  0  0
    9.5003   -2.8581    0.0000 C   0  0  0  0  0  0  0  0  0  0  0  0
    7.6036   -3.9744    0.0000 C   0  0  0  0  0  0  0  0  0  0  0  0
    8.2314   -3.5940    0.0000 C   0  0  0  0  0  0  0  0  0  0  0  0
    7.9000   -1.4332    0.0000 C   0  0  0  0  0  0  0  0  0  0  0  0
    7.3026   -3.2503    0.0000 H   0  0  0  0  0  0  0  0  0  0  0  0
    8.9624   -2.1560    0.0000 H   0  0  0  0  0  0  0  0  0  0  0  0
    9.8470   -4.4770    0.0000 O   0  0  0  0  0  0  0  0  0  0  0  0
   10.5583   -4.8873    0.0000 C   0  0  0  0  0  0  0  0  0  0  0  0
   11.2747   -4.4787    0.0000 C   0  0  0  0  0  0  0  0  0  0  0  0
   10.5564   -5.7125    0.0000 O   0  0  0  0  0  0  0  0  0  0  0  0
   11.9890   -4.8908    0.0000 C   0  0  0  0  0  0  0  0  0  0  0  0
   11.2767   -3.6533    0.0000 O   0  0  0  0  0  0  0  0  0  0  0  0
   11.9892   -5.7158    0.0000 C   0  0  0  0  0  0  0  0  0  0  0  0
   12.7038   -6.1281    0.0000 C   0  0  0  0  0  0  0  0  0  0  0  0
   13.4182   -5.7154    0.0000 C   0  0  0  0  0  0  0  0  0  0  0  0
   13.4180   -4.8903    0.0000 C   0  0  0  0  0  0  0  0  0  0  0  0
   12.7034   -4.4781    0.0000 C   0  0  0  0  0  0  0  0  0  0  0  0
    7.1904   -2.2122    0.0000 C   0  0  0  0  0  0  0  0  0  0  0  0
  3  4  1  0
  5 11  1  1
  4  5  1  0
  2 12  1  6
  5  6  1  0
  3 13  1  6
  6  2  1  0
 13 14  1  0
  2  7  1  0
 14 15  1  0
  7  3  1  0
 14 16  2  0
  5  8  1  0
 15 17  1  0
  2  9  1  0
 15 18  1  0
  8  9  1  0
  6 10  1  0
 17 19  1  0
 17 23  2  0
 19 20  2  0
 20 21  1  0
 21 22  2  0
 22 23  1  0
  6 24  1  0
M  CHG  2   1  -1   6   1
M  END
> <chembl_id>
CHEMBL1200851

> <chembl_pref_name>
HOMATROPINE METHYLBROMIDE
