
     RDKit          2D

 51 53  0  0  0  0  0  0  0  0999 V2000
   -0.5052  -12.8015    0.0000 C   0  0  0  0  0  0  0  0  0  0  0  0
   -0.9082  -12.0829    0.0000 C   0  0  0  0  0  0  0  0  0  0  0  0
   -0.0827  -12.0829    0.0000 C   0  0  0  0  0  0  0  0  0  0  0  0
    0.6360  -11.6798    0.0000 C   0  0  0  0  0  0  0  0  0  0  0  0
    3.1512  -10.9077    0.0000 C   0  0  0  0  0  0  0  0  0  0  0  0
    2.8939  -11.6943    0.0000 C   0  0  0  0  0  0  0  0  0  0  0  0
    2.0732  -11.6943    0.0000 C   0  0  0  0  0  0  0  0  0  0  0  0
    2.4811  -10.4222    0.0000 C   0  0  0  0  0  0  0  0  0  0  0  0
    1.3498  -12.0974    0.0000 O   0  0  0  0  0  0  0  0  0  0  0  0
   -1.6269  -11.6701    0.0000 C   0  0  0  0  0  0  0  0  0  0  0  0
    1.8159  -10.9077    0.0000 C   0  0  0  0  0  0  0  0  0  0  0  0
    0.6456  -10.8543    0.0000 O   0  0  0  0  0  0  0  0  0  0  0  0
    2.4811   -9.5919    0.0000 O   0  0  0  0  0  0  0  0  0  0  0  0
   -2.3456  -12.0829    0.0000 C   0  0  0  0  0  0  0  0  0  0  0  0
    5.4091  -10.8884    0.0000 C   0  0  0  0  0  0  0  0  0  0  0  0
    6.1229  -10.4756    0.0000 C   0  0  0  0  0  0  0  0  0  0  0  0
    4.5837  -10.8931    0.0000 C   0  0  0  0  0  0  0  0  0  0  0  0
   -0.9228  -13.5105    0.0000 C   0  0  0  0  0  0  0  0  0  0  0  0
   -0.0973  -13.5105    0.0000 C   0  0  0  0  0  0  0  0  0  0  0  0
    6.8367  -10.8835    0.0000 C   0  0  0  0  0  0  0  0  0  0  0  0
    3.8650  -10.4901    0.0000 C   0  0  0  0  0  0  0  0  0  0  0  0
    3.6077  -12.1071    0.0000 C   0  0  0  0  0  0  0  0  0  0  0  0
   -3.0594  -11.6701    0.0000 C   0  0  0  0  0  0  0  0  0  0  0  0
   -2.3407  -12.9083    0.0000 C   0  0  0  0  0  0  0  0  0  0  0  0
   -3.7741  -12.0821    0.0000 O   0  0  0  0  0  0  0  0  0  0  0  0
   -3.0588  -10.8451    0.0000 O   0  0  0  0  0  0  0  0  0  0  0  0
   -4.4883  -11.6691    0.0000 C   0  0  0  0  0  0  0  0  0  0  0  0
   -1.1363   -7.5555    0.0000 C   0  0  0  0  0  0  0  0  0  0  0  0
   -1.5392   -6.8370    0.0000 C   0  0  0  0  0  0  0  0  0  0  0  0
   -0.7138   -6.8370    0.0000 C   0  0  0  0  0  0  0  0  0  0  0  0
    0.0049   -6.4339    0.0000 C   0  0  0  0  0  0  0  0  0  0  0  0
    2.5201   -5.6618    0.0000 C   0  0  0  0  0  0  0  0  0  0  0  0
    2.2628   -6.4484    0.0000 C   0  0  0  0  0  0  0  0  0  0  0  0
    1.4422   -6.4484    0.0000 C   0  0  0  0  0  0  0  0  0  0  0  0
    1.8500   -5.1763    0.0000 C   0  0  0  0  0  0  0  0  0  0  0  0
    0.7187   -6.8515    0.0000 O   0  0  0  0  0  0  0  0  0  0  0  0
   -2.2579   -6.4242    0.0000 C   0  0  0  0  0  0  0  0  0  0  0  0
    1.1848   -5.6618    0.0000 C   0  0  0  0  0  0  0  0  0  0  0  0
    0.0146   -5.6084    0.0000 O   0  0  0  0  0  0  0  0  0  0  0  0
    1.8500   -4.3460    0.0000 O   0  0  0  0  0  0  0  0  0  0  0  0
   -2.9766   -6.8370    0.0000 C   0  0  0  0  0  0  0  0  0  0  0  0
    4.7781   -5.6424    0.0000 C   0  0  0  0  0  0  0  0  0  0  0  0
    5.4919   -5.2297    0.0000 C   0  0  0  0  0  0  0  0  0  0  0  0
    3.9526   -5.6472    0.0000 C   0  0  0  0  0  0  0  0  0  0  0  0
   -1.5538   -8.2646    0.0000 C   0  0  0  0  0  0  0  0  0  0  0  0
   -0.7284   -8.2646    0.0000 C   0  0  0  0  0  0  0  0  0  0  0  0
    6.2057   -5.6376    0.0000 C   0  0  0  0  0  0  0  0  0  0  0  0
    3.2339   -5.2442    0.0000 C   0  0  0  0  0  0  0  0  0  0  0  0
    2.9766   -6.8612    0.0000 C   0  0  0  0  0  0  0  0  0  0  0  0
   -3.6904   -6.4242    0.0000 C   0  0  0  0  0  0  0  0  0  0  0  0
   -2.9717   -7.6624    0.0000 C   0  0  0  0  0  0  0  0  0  0  0  0
  2  1  1  0
  3  1  1  0
  3  4  1  1
  5  6  2  0
  6  7  1  0
  7  9  1  1
  8 11  1  0
  9  4  1  0
  2 10  1  6
 11  7  1  0
 12  4  2  0
 13  8  2  0
 14 10  2  0
 15 17  2  0
 16 15  1  0
 17 21  1  0
 18  1  1  0
 19  1  1  0
 20 16  2  0
 21  5  1  0
 22  6  1  0
 23 14  1  0
 24 14  1  0
  3  2  1  0
  8  5  1  0
 23 25  1  0
 23 26  2  0
 25 27  1  0
 29 28  1  0
 30 28  1  0
 30 31  1  1
 32 33  2  0
 33 34  1  0
 34 36  1  1
 35 38  1  0
 36 31  1  0
 29 37  1  6
 38 34  1  0
 39 31  2  0
 40 35  2  0
 41 37  2  0
 42 44  2  0
 43 42  1  0
 44 48  1  0
 45 28  1  0
 46 28  1  0
 47 43  2  0
 48 32  1  0
 49 33  1  0
 50 41  1  0
 51 41  1  0
 30 29  1  0
 35 32  1  0
M  END
> <chembl_id>
CHEMBL2096637

> <chembl_pref_name>
PYRETHRINS
