
     RDKit          2D

 24 22  0  0  0  0  0  0  0  0999 V2000
    4.4224   -2.6974    0.0000 O   0  0  0  0  0  0  0  0  0  0  0  0
    0.7146   -0.5153    0.0000 C   0  0  0  0  0  0  0  0  0  0  0  0
    0.0000    0.7111    0.0000 N   0  0  0  0  0  0  0  0  0  0  0  0
    0.0000   -0.9276    0.0000 S   0  0  0  0  0  0  0  0  0  0  0  0
    1.4258   -0.9276    0.0000 C   0  0  0  0  0  0  0  0  0  0  0  0
    0.7146    0.2954    0.0000 C   0  0  0  0  0  0  0  0  0  0  0  0
    2.1437   -0.5153    0.0000 C   0  0  0  0  0  0  0  0  0  0  0  0
   -0.7111   -0.5153    0.0000 C   0  0  0  0  0  0  0  0  0  0  0  0
    2.8584   -0.9276    0.0000 N   0  0  0  0  0  0  0  0  0  0  0  0
   -0.7111    0.2954    0.0000 C   0  0  0  0  0  0  0  0  0  0  0  0
   -1.4291   -0.9276    0.0000 C   0  0  0  0  0  0  0  0  0  0  0  0
    1.4258    0.7111    0.0000 C   0  0  0  0  0  0  0  0  0  0  0  0
    2.1437    0.2954    0.0000 C   0  0  0  0  0  0  0  0  0  0  0  0
   -2.1437   -0.5153    0.0000 C   0  0  0  0  0  0  0  0  0  0  0  0
   -2.8617   -0.9276    0.0000 N   0  0  0  0  0  0  0  0  0  0  0  0
   -1.4291    0.7111    0.0000 C   0  0  0  0  0  0  0  0  0  0  0  0
   -2.1437    0.2954    0.0000 C   0  0  0  0  0  0  0  0  0  0  0  0
    2.8584   -1.7556    0.0000 C   0  0  0  0  0  0  0  0  0  0  0  0
    3.5798   -0.5153    0.0000 C   0  0  0  0  0  0  0  0  0  0  0  0
   -3.5832   -0.5153    0.0000 C   0  0  0  0  0  0  0  0  0  0  0  0
   -2.8617   -1.7556    0.0000 C   0  0  0  0  0  0  0  0  0  0  0  0
    2.8856    1.4741    0.0000 Cl  0  0  0  0  0  0  0  0  0  0  0  0
    5.8025   -0.2196    0.0000 O   0  0  0  0  0  0  0  0  0  0  0  0
    5.3320   -1.4741    0.0000 O   0  0  0  0  0  0  0  0  0  0  0  0
  3  6  2  0
  4  2  1  0
  5  2  2  0
  6  2  1  0
  7  5  1  0
  8  4  1  0
  9  7  2  0
 10  3  1  0
 11  8  1  0
 12  6  1  0
 13 12  2  0
 14 11  2  0
 15 14  1  0
 16 10  1  0
 17 16  2  0
 18  9  1  0
 19  9  1  0
 20 15  1  0
 21 15  1  0
  7 13  1  0
  8 10  2  0
 14 17  1  0
M  CHG  2   9   1  22  -1
M  END
> <chembl_id>
CHEMBL550495

> <chembl_pref_name>
METHYLENE BLUE
