
     RDKit          2D

 27 29  0  0  0  0  0  0  0  0999 V2000
    3.0500   -0.9750    0.0000 N   0  0  0  0  0  0  0  0  0  0  0  0
    2.2167   -0.9750    0.0000 C   0  0  0  0  0  0  0  0  0  0  0  0
    1.8125   -0.2625    0.0000 C   0  0  0  0  0  0  0  0  0  0  0  0
    3.4667   -0.2542    0.0000 C   0  0  0  0  0  0  0  0  0  0  0  0
    2.2292    0.4583    0.0000 C   0  0  0  0  0  0  0  0  0  0  0  0
    3.0500    0.4583    0.0000 N   0  0  0  0  0  0  0  0  0  0  0  0
   -3.0833   -0.2917    0.0000 C   0  0  0  0  0  0  0  0  0  0  0  0
    1.0167   -0.2750    0.0000 C   0  0  0  0  0  0  0  0  0  0  0  0
   -2.6708    0.4125    0.0000 C   0  0  0  0  0  0  0  0  0  0  0  0
   -2.6708   -0.9917    0.0000 C   0  0  0  0  0  0  0  0  0  0  0  0
   -1.8625    0.4208    0.0000 C   0  0  0  0  0  0  0  0  0  0  0  0
   -1.8750   -0.9917    0.0000 C   0  0  0  0  0  0  0  0  0  0  0  0
   -1.4583   -0.2792    0.0000 C   0  0  0  0  0  0  0  0  0  0  0  0
    0.5917    0.4458    0.0000 C   0  0  0  0  0  0  0  0  0  0  0  0
   -0.6458   -0.2792    0.0000 N   0  0  0  0  0  0  0  0  0  0  0  0
    1.8417    1.1500    0.0000 C   0  0  0  0  0  0  0  0  0  0  0  0
    1.8125   -1.6792    0.0000 N   0  0  0  0  0  0  0  0  0  0  0  0
   -0.2208    0.4458    0.0000 C   0  0  0  0  0  0  0  0  0  0  0  0
    1.0125    1.1625    0.0000 C   0  0  0  0  0  0  0  0  0  0  0  0
    4.2792   -0.2542    0.0000 N   0  0  0  0  0  0  0  0  0  0  0  0
   -3.9208   -0.2792    0.0000 O   0  0  0  0  0  0  0  0  0  0  0  0
   -3.0958    1.1500    0.0000 O   0  0  0  0  0  0  0  0  0  0  0  0
   -3.0958   -1.7042    0.0000 O   0  0  0  0  0  0  0  0  0  0  0  0
    0.6125   -0.9792    0.0000 C   0  0  0  0  0  0  0  0  0  0  0  0
   -4.3458   -0.9750    0.0000 C   0  0  0  0  0  0  0  0  0  0  0  0
   -2.6833    1.8583    0.0000 C   0  0  0  0  0  0  0  0  0  0  0  0
   -3.8750   -1.7375    0.0000 C   0  0  0  0  0  0  0  0  0  0  0  0
  2  1  2  0
  3  2  1  0
  4  1  1  0
  5  6  1  0
  6  4  2  0
  7 10  1  0
  8  3  2  0
  9 11  1  0
 10 12  2  0
 11 13  2  0
 12 13  1  0
 13 15  1  0
 14  8  1  0
 15 18  1  0
 16  5  2  0
 17  2  1  0
 18 14  1  0
 19 16  1  0
 20  4  1  0
 21  7  1  0
 22  9  1  0
 23 10  1  0
 24  8  1  0
 25 21  1  0
 26 22  1  0
 27 23  1  0
  3  5  1  0
 14 19  2  0
  9  7  2  0
M  END
> <chembl_id>
CHEMBL119

> <chembl_pref_name>
TRIMETREXATE
