
     RDKit          2D

 41 43  0  0  0  0  0  0  0  0999 V2000
    7.9667   -8.8542    0.0000 C   0  0  0  0  0  0  0  0  0  0  0  0
    7.3667   -9.2042    0.0000 C   0  0  0  0  0  0  0  0  0  0  0  0
    7.9417   -8.1792    0.0000 O   0  0  0  0  0  0  0  0  0  0  0  0
    7.3542   -9.9667    0.0000 C   0  0  0  0  0  0  0  0  0  0  0  0
    6.7042   -8.8292    0.0000 C   0  0  0  0  0  0  0  0  0  0  0  0
    8.5667   -9.2125    0.0000 O   0  0  0  0  0  0  0  0  0  0  0  0
    6.0667   -9.9417    0.0000 C   0  0  0  0  0  0  0  0  0  0  0  0
   10.3750   -8.8625    0.0000 N   0  0  0  0  0  0  0  0  0  0  0  0
    5.4542  -10.2917    0.0000 N   0  0  0  0  0  0  0  0  0  0  0  0
    6.7125  -10.3250    0.0000 C   0  0  0  0  0  0  0  0  0  0  0  0
    6.0667   -9.1917    0.0000 C   0  0  0  0  0  0  0  0  0  0  0  0
    9.1750   -8.8667    0.0000 C   0  0  0  0  0  0  0  0  0  0  0  0
    9.7667   -9.2042    0.0000 C   0  0  0  0  0  0  0  0  0  0  0  0
   10.3542   -8.1667    0.0000 C   0  0  0  0  0  0  0  0  0  0  0  0
   10.9583   -9.2167    0.0000 C   0  0  0  0  0  0  0  0  0  0  0  0
   10.9542   -7.8125    0.0000 C   0  0  0  0  0  0  0  0  0  0  0  0
   11.5750   -8.8792    0.0000 C   0  0  0  0  0  0  0  0  0  0  0  0
    3.1417   -9.1542    0.0000 N   0  0  0  0  0  0  0  0  0  0  0  0
    3.1375   -8.4500    0.0000 C   0  0  0  0  0  0  0  0  0  0  0  0
    2.4292   -9.1625    0.0000 C   0  0  0  0  0  0  0  0  0  0  0  0
    2.4292   -8.4500    0.0000 C   0  0  0  0  0  0  0  0  0  0  0  0
    3.8167   -9.3750    0.0000 C   0  0  0  0  0  0  0  0  0  0  0  0
    3.8125   -8.2292    0.0000 S   0  0  0  0  0  0  0  0  0  0  0  0
    4.2292   -8.8000    0.0000 C   0  0  0  0  0  0  0  0  0  0  0  0
    1.8125   -8.0917    0.0000 N   0  0  0  0  0  0  0  0  0  0  0  0
    3.8125  -10.0792    0.0000 C   0  0  0  0  0  0  0  0  0  0  0  0
    1.1917   -8.4500    0.0000 C   0  0  0  0  0  0  0  0  0  0  0  0
    1.9292   -9.6625    0.0000 O   0  0  0  0  0  0  0  0  0  0  0  0
    3.1917  -10.4292    0.0000 O   0  0  0  0  0  0  0  0  0  0  0  0
    1.1917   -9.1542    0.0000 O   0  0  0  0  0  0  0  0  0  0  0  0
    0.5792   -8.0917    0.0000 C   0  0  0  0  0  0  0  0  0  0  0  0
    4.4167  -10.4417    0.0000 O   0  0  0  0  0  0  0  0  0  0  0  0
    4.8417   -9.1542    0.0000 C   0  0  0  0  0  0  0  0  0  0  0  0
    4.8417   -8.4417    0.0000 C   0  0  0  0  0  0  0  0  0  0  0  0
   -0.0333   -8.4500    0.0000 C   0  0  0  0  0  0  0  0  0  0  0  0
   -0.0333   -9.1500    0.0000 C   0  0  0  0  0  0  0  0  0  0  0  0
   -0.6458   -8.0917    0.0000 C   0  0  0  0  0  0  0  0  0  0  0  0
   -1.2583   -8.4417    0.0000 C   0  0  0  0  0  0  0  0  0  0  0  0
   -0.6375   -9.5042    0.0000 C   0  0  0  0  0  0  0  0  0  0  0  0
   -1.2583   -9.1542    0.0000 C   0  0  0  0  0  0  0  0  0  0  0  0
    3.1292   -7.7417    0.0000 H   0  0  0  0  0  0  0  0  0  0  0  0
  2  1  1  0
  3  1  2  0
  4  2  1  0
  5  2  2  0
  6  1  1  0
  7 11  2  0
  8 13  1  0
  9  7  1  0
 10  4  2  0
 11  5  1  0
 12  6  1  0
 13 12  1  0
 14  8  1  0
 15  8  1  0
 16 14  1  0
 17 15  1  0
  7 10  1  0
 19 18  1  0
 20 18  1  0
 21 20  1  0
 22 18  1  0
 23 19  1  0
 24 22  1  0
 21 25  1  1
 22 26  1  6
 27 25  1  0
 28 20  2  0
 29 26  2  0
 30 27  2  0
 31 27  1  0
 32 26  1  0
 33 24  1  0
 34 24  1  0
 35 31  1  0
 36 35  1  0
 37 35  2  0
 38 37  1  0
 39 36  2  0
 40 38  2  0
 19 41  1  6
 23 24  1  0
 21 19  1  0
 40 39  1  0
M  END
> <chembl_id>
CHEMBL1628385

> <chembl_pref_name>
PROCAINE BENZYLPENICILLIN
