
     RDKit          2D

 11 10  0  0  0  0  0  0  0  0999 V2000
    1.8458   -6.8000    0.0000 C   0  0  0  0  0  0  0  0  0  0  0  0
    2.4625   -7.1542    0.0000 C   0  0  0  0  0  0  0  0  0  0  0  0
    1.2333   -7.1542    0.0000 C   0  0  0  0  0  0  0  0  0  0  0  0
    2.1917   -6.1792    0.0000 F   0  0  0  0  0  0  0  0  0  0  0  0
    1.4875   -6.1792    0.0000 F   0  0  0  0  0  0  0  0  0  0  0  0
    1.5792   -7.7667    0.0000 F   0  0  0  0  0  0  0  0  0  0  0  0
    0.8750   -7.7667    0.0000 F   0  0  0  0  0  0  0  0  0  0  0  0
    2.1042   -7.7667    0.0000 F   0  0  0  0  0  0  0  0  0  0  0  0
    2.8125   -7.7667    0.0000 F   0  0  0  0  0  0  0  0  0  0  0  0
    3.0750   -6.8000    0.0000 F   0  0  0  0  0  0  0  0  0  0  0  0
    0.6208   -6.8000    0.0000 F   0  0  0  0  0  0  0  0  0  0  0  0
  2  1  1  0
  3  1  1  0
  4  1  1  0
  5  1  1  0
  6  3  1  0
  7  3  1  0
  8  2  1  0
  9  2  1  0
 10  2  1  0
 11  3  1  0
M  END
> <chembl_id>
CHEMBL1663

> <chembl_pref_name>
PERFLUTREN
