
     RDKit          2D

 12 12  0  0  0  0  0  0  0  0999 V2000
    2.1292   -0.4667    0.0000 C   0  0  0  0  0  0  0  0  0  0  0  0
   -2.3833   -0.5000    0.0000 C   0  0  0  0  0  0  0  0  0  0  0  0
    0.6125   -0.4792    0.0000 C   0  0  0  0  0  0  0  0  0  0  0  0
   -0.1083   -1.7917    0.0000 C   0  0  0  0  0  0  0  0  0  0  0  0
   -0.1208    0.8000    0.0000 C   0  0  0  0  0  0  0  0  0  0  0  0
   -1.6208   -1.8000    0.0000 C   0  0  0  0  0  0  0  0  0  0  0  0
   -1.6458    0.7875    0.0000 C   0  0  0  0  0  0  0  0  0  0  0  0
    2.5000    0.9833    0.0000 O   0  0  0  0  0  0  0  0  0  0  0  0
   -3.5458    0.4458    0.0000 O   0  0  0  0  0  0  0  0  0  0  0  0
    2.0000   -1.9792    0.0000 C   0  0  0  0  0  0  0  0  0  0  0  0
    3.6167   -0.7250    0.0000 C   0  0  0  0  0  0  0  0  0  0  0  0
   -3.5375   -1.4792    0.0000 C   0  0  0  0  0  0  0  0  0  0  0  0
  2  7  1  0
  3  1  1  0
  4  3  1  0
  5  3  1  0
  6  4  1  0
  7  5  1  0
  8  1  1  0
  9  2  1  0
 10  1  1  0
 11  1  1  0
 12  2  1  0
  6  2  1  0
M  END
> <chembl_id>
CHEMBL1651998

> <chembl_pref_name>
TERPIN
