
     RDKit          2D

 52 56  0  0  0  0  0  0  0  0999 V2000
   -7.9143   -0.6582    0.0000 C   0  0  0  0  0  0  0  0  0  0  0  0
   -7.1564   -0.9838    0.0000 S   0  0  0  0  0  0  0  0  0  0  0  0
   -6.6124   -0.3635    0.0000 C   0  0  0  0  0  0  0  0  0  0  0  0
   -7.0342    0.3454    0.0000 C   0  0  0  0  0  0  0  0  0  0  0  0
   -7.8389    0.1633    0.0000 N   0  0  0  0  0  0  0  0  0  0  0  0
   -8.6004   -1.1165    0.0000 N   0  0  0  0  0  0  0  0  0  0  0  0
   -6.7086    1.1034    0.0000 C   0  0  0  0  0  0  0  0  0  0  0  0
   -6.8765    2.5224    0.0000 O   0  0  0  0  0  0  0  0  0  0  0  0
   -7.2022    1.7644    0.0000 N   0  0  0  0  0  0  0  0  0  0  0  0
   -5.8893    1.2003    0.0000 C   0  0  0  0  0  0  0  0  0  0  0  0
   -5.5636    1.9583    0.0000 N   0  0  0  0  0  0  0  0  0  0  0  0
   -7.4040    3.1567    0.0000 C   0  0  0  0  0  0  0  0  0  0  0  0
   -8.1942    3.1552    0.0000 C   0  0  0  0  0  0  0  0  0  0  0  0
   -7.9315    3.7910    0.0000 C   0  0  0  0  0  0  0  0  0  0  0  0
   -7.1185    3.9307    0.0000 C   0  0  0  0  0  0  0  0  0  0  0  0
   -6.3137    4.1128    0.0000 O   0  0  0  0  0  0  0  0  0  0  0  0
   -7.6460    4.5650    0.0000 O   0  0  0  0  0  0  0  0  0  0  0  0
   -5.3957    0.5393    0.0000 O   0  0  0  0  0  0  0  0  0  0  0  0
   -4.7443    2.0553    0.0000 C   0  0  0  0  0  0  0  0  0  0  0  0
   -4.7443    2.8803    0.0000 C   0  0  0  0  0  0  0  0  0  0  0  0
   -3.9193    2.0553    0.0000 C   0  0  0  0  0  0  0  0  0  0  0  0
   -5.3855    3.3995    0.0000 O   0  0  0  0  0  0  0  0  0  0  0  0
   -4.7439    1.2750    0.0000 H   0  0  0  0  0  0  0  0  0  0  0  0
   -3.9186    1.2584    0.0000 H   0  0  0  0  0  0  0  0  0  0  0  0
   -3.2048    3.2928    0.0000 C   0  0  0  0  0  0  0  0  0  0  0  0
   -3.9193    2.8803    0.0000 N   0  0  0  0  0  0  0  0  0  0  0  0
   -3.2048    1.6427    0.0000 S   0  0  0  0  0  0  0  0  0  0  0  0
   -2.4904    2.0553    0.0000 C   0  0  0  0  0  0  0  0  0  0  0  0
   -2.4904    2.8803    0.0000 C   0  0  0  0  0  0  0  0  0  0  0  0
   -3.1617    4.1167    0.0000 C   0  0  0  0  0  0  0  0  0  0  0  0
   -3.8536    4.5660    0.0000 O   0  0  0  0  0  0  0  0  0  0  0  0
   -2.4266    4.4912    0.0000 O   0  0  0  0  0  0  0  0  0  0  0  0
   -1.7759    3.2928    0.0000 C   0  0  0  0  0  0  0  0  0  0  0  0
   -1.0840    2.8434    0.0000 N   0  0  0  0  0  0  0  0  0  0  0  0
   -1.5297    2.1492    0.0000 C   0  0  0  0  0  0  0  0  0  0  0  0
   -1.0072    1.5108    0.0000 C   0  0  0  0  0  0  0  0  0  0  0  0
   -0.2385    1.8105    0.0000 C   0  0  0  0  0  0  0  0  0  0  0  0
   -0.2859    2.6341    0.0000 C   0  0  0  0  0  0  0  0  0  0  0  0
   -0.8788    3.6425    0.0000 C   0  0  0  0  0  0  0  0  0  0  0  0
   -0.0842    3.8644    0.0000 C   0  0  0  0  0  0  0  0  0  0  0  0
    0.1210    4.6635    0.0000 N   0  0  0  0  0  0  0  0  0  0  0  0
    0.9156    4.8853    0.0000 C   0  0  0  0  0  0  0  0  0  0  0  0
    1.5049    4.3080    0.0000 O   0  0  0  0  0  0  0  0  0  0  0  0
    1.1207    5.6844    0.0000 C   0  0  0  0  0  0  0  0  0  0  0  0
    0.5947    7.0130    0.0000 C   0  0  0  0  0  0  0  0  0  0  0  0
    0.4742    6.1968    0.0000 C   0  0  0  0  0  0  0  0  0  0  0  0
    1.8878    5.9881    0.0000 C   0  0  0  0  0  0  0  0  0  0  0  0
    2.0083    6.8042    0.0000 C   0  0  0  0  0  0  0  0  0  0  0  0
    1.3617    7.3167    0.0000 C   0  0  0  0  0  0  0  0  0  0  0  0
   -0.3204    5.9750    0.0000 Cl  0  0  0  0  0  0  0  0  0  0  0  0
   -0.0518    7.5255    0.0000 O   0  0  0  0  0  0  0  0  0  0  0  0
    1.4823    8.1328    0.0000 O   0  0  0  0  0  0  0  0  0  0  0  0
  1  2  1  0
  2  3  1  0
  3  4  2  0
  4  5  1  0
  1  5  2  0
  1  6  1  0
  4  7  1  0
  8  9  1  0
 10 11  1  0
  9  7  2  0
  7 10  1  0
  8 12  1  0
 12 13  1  0
 12 14  1  0
 12 15  1  0
 15 16  2  0
 15 17  1  0
 10 18  2  0
 19 11  1  6
 19 20  1  0
 21 19  1  0
 20 22  2  0
 19 23  1  1
 21 24  1  1
 25 26  1  0
 27 28  1  0
 28 29  1  0
 25 29  2  0
 26 21  1  0
 21 27  1  0
 20 26  1  0
 25 30  1  0
 30 31  2  0
 30 32  1  0
 29 33  1  0
 33 34  1  0
 35 36  1  0
 36 37  1  0
 37 38  1  0
 34 35  1  0
 34 38  1  0
 34 39  1  0
 39 40  1  0
 40 41  1  0
 41 42  1  0
 42 43  2  0
 42 44  1  0
 45 46  1  0
 47 48  2  0
 48 49  1  0
 45 49  2  0
 46 44  2  0
 44 47  1  0
 46 50  1  0
 45 51  1  0
 49 52  1  0
M  CHG  2  32  -1  34   1
M  END
> <chembl_id>
CHEMBL3989974

> <chembl_pref_name>
CEFIDEROCOL
