
     RDKit          2D

 22 21  0  0  0  0  0  0  0  0999 V2000
   -2.7958   -3.2625    0.0000 Na  0  0  0  0  0 15  0  0  0  0  0  0
    0.8167   -3.2500    0.0000 C   0  0  0  0  0  0  0  0  0  0  0  0
    0.1917   -4.3125    0.0000 C   0  0  0  0  0  0  0  0  0  0  0  0
   -0.4042   -3.2417    0.0000 C   0  0  0  0  0  0  0  0  0  0  0  0
    0.8083   -3.9625    0.0000 C   0  0  0  0  0  0  0  0  0  0  0  0
    0.2083   -2.8917    0.0000 C   0  0  0  0  0  0  0  0  0  0  0  0
   -0.4167   -3.9500    0.0000 C   0  0  0  0  0  0  0  0  0  0  0  0
    1.4333   -2.9042    0.0000 N   0  0  0  0  0  0  0  0  0  0  0  0
   -1.0125   -2.8792    0.0000 C   0  0  0  0  0  0  0  0  0  0  0  0
    0.1833   -5.0167    0.0000 N   0  0  0  0  0  0  0  0  0  0  0  0
    2.0417   -3.2625    0.0000 C   0  0  0  0  0  0  0  0  0  0  0  0
   -0.4333   -5.3667    0.0000 C   0  0  0  0  0  0  0  0  0  0  0  0
   -1.6292   -3.2333    0.0000 O   0  0  0  0  0  0  0  0  0  0  0  0
    1.4208   -4.3250    0.0000 I   0  0  0  0  0  0  0  0  0  0  0  0
   -1.0167   -2.1708    0.0000 O   0  0  0  0  0  0  0  0  0  0  0  0
    2.0375   -3.9708    0.0000 O   0  0  0  0  0  0  0  0  0  0  0  0
   -1.0333   -4.2958    0.0000 I   0  0  0  0  0  0  0  0  0  0  0  0
    0.2125   -2.1833    0.0000 I   0  0  0  0  0  0  0  0  0  0  0  0
   -0.4417   -6.0750    0.0000 O   0  0  0  0  0  0  0  0  0  0  0  0
    1.4375   -2.1958    0.0000 C   0  0  0  0  0  0  0  0  0  0  0  0
    2.6583   -2.9125    0.0000 C   0  0  0  0  0  0  0  0  0  0  0  0
   -1.0458   -5.0042    0.0000 C   0  0  0  0  0  0  0  0  0  0  0  0
  3  5  2  0
  4  6  1  0
  5  2  1  0
  6  2  2  0
  7  4  2  0
  8  2  1  0
  9  4  1  0
 10  3  1  0
 11  8  1  0
 12 10  1  0
 13  9  1  0
 14  5  1  0
 15  9  2  0
 16 11  2  0
 17  7  1  0
 18  6  1  0
 19 12  2  0
 20  8  1  0
 21 11  1  0
 22 12  1  0
  3  7  1  0
M  CHG  2   1   1  13  -1
M  END
> <chembl_id>
CHEMBL1200423

> <chembl_pref_name>
METRIZOATE SODIUM
