
     RDKit          2D

 10 10  0  0  0  0  0  0  0  0999 V2000
    0.8125    1.9208    0.0000 C   0  0  0  0  0  0  0  0  0  0  0  0
    0.0667    0.6833    0.0000 C   0  0  0  0  0  0  0  0  0  0  0  0
    2.2167    1.9708    0.0000 O   0  0  0  0  0  0  0  0  0  0  0  0
    0.7875   -0.5625    0.0000 C   0  0  0  0  0  0  0  0  0  0  0  0
   -1.3458    0.6708    0.0000 C   0  0  0  0  0  0  0  0  0  0  0  0
    0.0667    3.1708    0.0000 O   0  0  0  0  0  0  0  0  0  0  0  0
   -1.3708   -1.7917    0.0000 C   0  0  0  0  0  0  0  0  0  0  0  0
   -2.1083   -3.0375    0.0000 N   0  0  0  0  0  0  0  0  0  0  0  0
   -2.0708   -0.5667    0.0000 C   0  0  0  0  0  0  0  0  0  0  0  0
    0.0667   -1.7917    0.0000 C   0  0  0  0  0  0  0  0  0  0  0  0
  2  1  1  0
  3  1  2  0
  4  2  2  0
  5  2  1  0
  6  1  1  0
  7  9  1  0
  8  7  1  0
  9  5  2  0
 10  4  1  0
 10  7  2  0
M  END
> <chembl_id>
CHEMBL542

> <chembl_pref_name>
AMINOBENZOIC ACID
