
     RDKit          2D

 18 18  0  0  0  0  0  0  0  0999 V2000
    5.7022   -6.5072    0.0000 Na  0  0  0  0  0 15  0  0  0  0  0  0
    4.7471   -6.5217    0.0000 N   0  0  0  0  0  0  0  0  0  0  0  0
    4.0779   -6.0368    0.0000 C   0  0  0  0  0  0  0  0  0  0  0  0
    3.4135   -6.5217    0.0000 N   0  0  0  0  0  0  0  0  0  0  0  0
    0.6497   -4.8731    0.0000 C   0  0  0  0  0  0  0  0  0  0  0  0
   -0.0678   -5.2804    0.0000 N   0  0  0  0  0  0  0  0  0  0  0  0
    4.4900   -7.3073    0.0000 C   0  0  0  0  0  0  0  0  0  0  0  0
    3.6657   -7.3073    0.0000 C   0  0  0  0  0  0  0  0  0  0  0  0
    1.3141   -5.3580    0.0000 O   0  0  0  0  0  0  0  0  0  0  0  0
    2.6911   -6.1095    0.0000 N   0  0  0  0  0  0  0  0  0  0  0  0
    0.9019   -4.0876    0.0000 C   0  0  0  0  0  0  0  0  0  0  0  0
    1.9832   -4.8731    0.0000 C   0  0  0  0  0  0  0  0  0  0  0  0
    2.6960   -5.2853    0.0000 C   0  0  0  0  0  0  0  0  0  0  0  0
    1.7310   -4.0876    0.0000 C   0  0  0  0  0  0  0  0  0  0  0  0
   -0.7806   -4.8585    0.0000 O   0  0  0  0  0  0  0  0  0  0  0  0
   -0.0776   -6.0999    0.0000 O   0  0  0  0  0  0  0  0  0  0  0  0
    4.0779   -5.2125    0.0000 O   0  0  0  0  0  0  0  0  0  0  0  0
    4.9749   -7.9715    0.0000 O   0  0  0  0  0  0  0  0  0  0  0  0
  3  2  1  0
  4  3  1  0
  5  9  1  0
  6  5  1  0
  7  2  1  0
  8  7  1  0
  9 12  1  0
 10  4  1  0
 11 14  1  0
 12 13  1  0
 13 10  2  0
 14 12  2  0
 15  6  2  0
 16  6  1  0
 17  3  2  0
 18  7  2  0
  8  4  1  0
 11  5  2  0
M  CHG  4   1   1   2  -1   6   1  16  -1
M  END
> <chembl_id>
CHEMBL1201000

> <chembl_pref_name>
NITROFURANTOIN SODIUM
