
     RDKit          2D

 22 23  0  0  1  0  0  0  0  0999 V2000
    2.1167   -0.3625    0.0000 C   0  0  0  0  0  0  0  0  0  0  0  0
    1.0167   -1.0042    0.0000 C   0  0  0  0  0  0  0  0  0  0  0  0
    2.1167    0.9208    0.0000 C   0  0  0  0  0  0  0  0  0  0  0  0
   -3.3458   -1.0375    0.0000 N   0  0  0  0  0  0  0  0  0  0  0  0
   -0.0958   -0.3625    0.0000 N   0  0  0  0  0  0  0  0  0  0  0  0
    3.2292   -1.0042    0.0000 C   0  0  0  0  0  0  0  0  0  0  0  0
    3.2292    1.5583    0.0000 C   0  0  0  0  0  0  0  0  0  0  0  0
   -2.3208   -0.3667    0.0000 C   0  0  0  0  0  0  0  0  0  0  0  0
    1.0167   -2.2875    0.0000 O   0  0  0  0  0  0  0  0  0  0  0  0
   -1.2125   -1.0125    0.0000 C   0  0  0  0  0  0  0  0  0  0  0  0
    4.3417   -0.3625    0.0000 C   0  0  0  0  0  0  0  0  0  0  0  0
    4.3417    0.9208    0.0000 C   0  0  0  0  0  0  0  0  0  0  0  0
    1.0167    1.5583    0.0000 O   0  0  0  0  0  0  0  0  0  0  0  0
    3.2292    2.8333    0.0000 Br  0  0  0  0  0  0  0  0  0  0  0  0
   -4.3458   -0.3167    0.0000 C   0  0  0  0  0  0  0  0  0  0  0  0
    3.2292   -2.2875    0.0000 O   0  0  0  0  0  0  0  0  0  0  0  0
   -3.3750   -2.3167    0.0000 C   0  0  0  0  0  0  0  0  0  0  0  0
   -4.0208    0.9458    0.0000 C   0  0  0  0  0  0  0  0  0  0  0  0
   -2.7000    0.9000    0.0000 C   0  0  0  0  0  0  0  0  0  0  0  0
    1.0167    2.8333    0.0000 C   0  0  0  0  0  0  0  0  0  0  0  0
    4.3375   -2.9250    0.0000 C   0  0  0  0  0  0  0  0  0  0  0  0
   -2.2875   -2.9792    0.0000 C   0  0  0  0  0  0  0  0  0  0  0  0
  2  1  1  0
  3  1  1  0
  4  8  1  0
  5  2  1  0
  6  1  2  0
  7  3  2  0
  8 10  1  1
  9  2  2  0
 10  5  1  0
 11  6  1  0
 12 11  2  0
 13  3  1  0
 14  7  1  0
 15  4  1  0
 16  6  1  0
 17  4  1  0
 18 19  1  0
 19  8  1  0
 20 13  1  0
 21 16  1  0
 22 17  1  0
  7 12  1  0
 15 18  1  0
M  END
> <chembl_id>
CHEMBL22242

> <chembl_pref_name>
REMOXIPRIDE
