
     RDKit          2D

 26 28  0  0  0  0  0  0  0  0999 V2000
    1.8542    0.6000    0.0000 C   0  0  0  0  0  0  0  0  0  0  0  0
    1.0292    0.6000    0.0000 C   0  0  0  0  0  0  0  0  0  0  0  0
    2.2542   -0.0917    0.0000 C   0  0  0  0  0  0  0  0  0  0  0  0
    2.2500    1.2958    0.0000 C   0  0  0  0  0  0  0  0  0  0  0  0
    3.0667   -0.0792    0.0000 C   0  0  0  0  0  0  0  0  0  0  0  0
    0.6375   -0.1042    0.0000 N   0  0  0  0  0  0  0  0  0  0  0  0
    3.0792    1.2958    0.0000 C   0  0  0  0  0  0  0  0  0  0  0  0
    3.4625    0.6000    0.0000 C   0  0  0  0  0  0  0  0  0  0  0  0
   -1.7208   -0.1750    0.0000 N   0  0  0  0  0  0  0  0  0  0  0  0
    0.6250    1.3000    0.0000 O   0  0  0  0  0  0  0  0  0  0  0  0
   -0.1333   -0.1167    0.0000 C   0  0  0  0  0  0  0  0  0  0  0  0
   -2.6208   -0.1750    0.0000 C   0  0  0  0  0  0  0  0  0  0  0  0
   -0.4833    0.4083    0.0000 C   0  0  0  0  0  0  0  0  0  0  0  0
   -0.5208   -0.7292    0.0000 C   0  0  0  0  0  0  0  0  0  0  0  0
   -1.3208    0.4083    0.0000 C   0  0  0  0  0  0  0  0  0  0  0  0
   -1.3583   -0.7292    0.0000 C   0  0  0  0  0  0  0  0  0  0  0  0
    4.2542    0.6125    0.0000 N   0  0  0  0  0  0  0  0  0  0  0  0
    3.4917    2.0000    0.0000 Cl  0  0  0  0  0  0  0  0  0  0  0  0
    1.8292   -0.7792    0.0000 O   0  0  0  0  0  0  0  0  0  0  0  0
   -3.0583   -0.7417    0.0000 C   0  0  0  0  0  0  0  0  0  0  0  0
    2.2500   -1.4917    0.0000 C   0  0  0  0  0  0  0  0  0  0  0  0
   -2.6458   -1.4625    0.0000 C   0  0  0  0  0  0  0  0  0  0  0  0
   -3.8708   -0.7292    0.0000 C   0  0  0  0  0  0  0  0  0  0  0  0
   -3.0833   -2.1167    0.0000 C   0  0  0  0  0  0  0  0  0  0  0  0
   -4.3458   -1.3792    0.0000 C   0  0  0  0  0  0  0  0  0  0  0  0
   -3.9833   -2.1167    0.0000 C   0  0  0  0  0  0  0  0  0  0  0  0
  2  1  1  0
  3  1  2  0
  4  1  1  0
  5  3  1  0
  6  2  1  0
  7  4  2  0
  8  7  1  0
  9 16  1  0
 10  2  2  0
 11  6  1  0
 12  9  1  0
 13 11  1  0
 14 11  1  0
 15 13  1  0
 16 14  1  0
 17  8  1  0
 18  7  1  0
 19  3  1  0
 20 12  1  0
 21 19  1  0
 22 20  2  0
 23 20  1  0
 24 22  1  0
 25 23  2  0
 26 25  1  0
  5  8  2  0
 15  9  1  0
 24 26  2  0
M  END
> <chembl_id>
CHEMBL325109

> <chembl_pref_name>
CLEBOPRIDE
