
     RDKit          2D

 22 22  0  0  0  0  0  0  0  0999 V2000
   -3.3833   -0.7917    0.0000 N   0  0  0  0  0  0  0  0  0  0  0  0
   -2.9000   -0.5167    0.0000 C   0  0  0  0  0  0  0  0  0  0  0  0
   -3.3833   -1.3542    0.0000 C   0  0  0  0  0  0  0  0  0  0  0  0
   -3.8583   -0.5292    0.0000 C   0  0  0  0  0  0  0  0  0  0  0  0
   -2.4083   -0.7792    0.0000 C   0  0  0  0  0  0  0  0  0  0  0  0
    3.8542   -0.4167    0.0000 C   0  0  0  0  0  0  0  0  0  0  0  0
   -4.3458   -0.8125    0.0000 C   0  0  0  0  0  0  0  0  0  0  0  0
   -3.8500   -1.6375    0.0000 C   0  0  0  0  0  0  0  0  0  0  0  0
    3.3625   -0.7042    0.0000 C   0  0  0  0  0  0  0  0  0  0  0  0
    2.8792   -0.4375    0.0000 C   0  0  0  0  0  0  0  0  0  0  0  0
   -1.9333   -0.5042    0.0000 C   0  0  0  0  0  0  0  0  0  0  0  0
   -1.4333   -0.7792    0.0000 C   0  0  0  0  0  0  0  0  0  0  0  0
   -0.9625   -0.5000    0.0000 C   0  0  0  0  0  0  0  0  0  0  0  0
   -0.4625   -0.7625    0.0000 C   0  0  0  0  0  0  0  0  0  0  0  0
   -0.0208   -0.5000    0.0000 C   0  0  0  0  0  0  0  0  0  0  0  0
    0.4542   -0.7542    0.0000 C   0  0  0  0  0  0  0  0  0  0  0  0
    0.9375   -0.4625    0.0000 C   0  0  0  0  0  0  0  0  0  0  0  0
    1.4292   -0.7375    0.0000 C   0  0  0  0  0  0  0  0  0  0  0  0
    1.9042   -0.4542    0.0000 C   0  0  0  0  0  0  0  0  0  0  0  0
    2.4042   -0.7167    0.0000 C   0  0  0  0  0  0  0  0  0  0  0  0
    4.3417   -0.6875    0.0000 C   0  0  0  0  0  0  0  0  0  0  0  0
   -4.3458   -1.3750    0.0000 C   0  0  0  0  0  0  0  0  0  0  0  0
  2  1  1  0
  3  1  1  0
  4  1  2  0
  5  2  1  0
  6  9  1  0
  7  4  1  0
  8  3  2  0
  9 10  1  0
 10 20  1  0
 11  5  1  0
 12 11  1  0
 13 12  1  0
 14 13  1  0
 15 14  1  0
 16 15  1  0
 17 16  1  0
 18 17  1  0
 19 18  1  0
 20 19  1  0
 21  6  1  0
 22  8  1  0
  7 22  2  0
M  CHG  1   1   1
M  END
> <chembl_id>
CHEMBL305906

> <chembl_pref_name>
CETYLPYRIDINIUM
