
     RDKit          2D

 13 12  0  0  0  0  0  0  0  0999 V2000
    2.7173    1.5663    0.0000 O   0  0  0  0  0  0  0  0  0  0  0  0
    1.5749    1.5681    0.0000 O   0  0  0  0  0  0  0  0  0  0  0  0
    0.1433    0.0826    0.0000 O   0  0  0  0  0  0  0  0  0  0  0  0
    4.8591    0.3297    0.0000 O   0  0  0  0  0  0  0  0  0  0  0  0
    4.2876   -0.6596    0.0000 O   0  0  0  0  0  0  0  0  0  0  0  0
    1.4292    0.0000    0.0000 N   0  0  0  0  0  0  0  0  0  0  0  0
    2.1439    0.4123    0.0000 C   0  0  0  0  0  0  0  0  0  0  0  0
    2.1456    1.2373    0.0000 C   0  0  0  0  0  0  0  0  0  0  0  0
    2.8585    0.0000    0.0000 C   0  0  0  0  0  0  0  0  0  0  0  0
    0.7146    0.4123    0.0000 C   0  0  0  0  0  0  0  0  0  0  0  0
    3.5731    0.4123    0.0000 C   0  0  0  0  0  0  0  0  0  0  0  0
    4.2876    0.0000    0.0000 C   0  0  0  0  0  0  0  0  0  0  0  0
    0.7146    1.0719    0.0000 C   0  0  0  0  0  0  0  0  0  0  0  0
  1  8  2  0
  2  8  1  0
  3 10  2  0
  4 12  2  0
  5 12  1  0
  6  7  1  0
  6 10  1  0
  7  8  1  0
  7  9  1  0
  9 11  1  0
 10 13  1  0
 11 12  1  0
M  END
> <chembl_id>
CHEMBL2142890

> <chembl_pref_name>
ACEGLUMATE
