
     RDKit          2D

 30 34  0  0  0  0  0  0  0  0999 V2000
   -7.3110   -1.0472    0.0000 C   0  0  0  0  0  0  0  0  0  0  0  0
   -8.0255   -1.4597    0.0000 C   0  0  0  0  0  0  0  0  0  0  0  0
   -8.0255   -0.6347    0.0000 C   0  0  0  0  0  0  0  0  0  0  0  0
   -6.4860   -1.0472    0.0000 C   0  0  0  0  0  0  0  0  0  0  0  0
   -6.0735   -1.7617    0.0000 O   0  0  0  0  0  0  0  0  0  0  0  0
   -6.0735   -0.3328    0.0000 N   0  0  0  0  0  0  0  0  0  0  0  0
   -2.5500   -0.7453    0.0000 C   0  0  0  0  0  0  0  0  0  0  0  0
   -2.5500    0.0797    0.0000 C   0  0  0  0  0  0  0  0  0  0  0  0
   -3.2645    0.4922    0.0000 C   0  0  0  0  0  0  0  0  0  0  0  0
   -3.9790    0.0797    0.0000 N   0  0  0  0  0  0  0  0  0  0  0  0
   -3.9790   -0.7453    0.0000 C   0  0  0  0  0  0  0  0  0  0  0  0
   -3.2645   -1.1578    0.0000 C   0  0  0  0  0  0  0  0  0  0  0  0
   -4.7636    0.3347    0.0000 N   0  0  0  0  0  0  0  0  0  0  0  0
   -4.7636   -1.0002    0.0000 N   0  0  0  0  0  0  0  0  0  0  0  0
   -5.2485   -0.3328    0.0000 C   0  0  0  0  0  0  0  0  0  0  0  0
   -3.2645    1.3172    0.0000 C   0  0  0  0  0  0  0  0  0  0  0  0
   -2.5500    1.7297    0.0000 C   0  0  0  0  0  0  0  0  0  0  0  0
   -2.5500    2.5547    0.0000 C   0  0  0  0  0  0  0  0  0  0  0  0
   -3.2645    2.9672    0.0000 C   0  0  0  0  0  0  0  0  0  0  0  0
   -3.9790    2.5547    0.0000 C   0  0  0  0  0  0  0  0  0  0  0  0
   -3.9790    1.7297    0.0000 C   0  0  0  0  0  0  0  0  0  0  0  0
   -3.2645    3.7922    0.0000 C   0  0  0  0  0  0  0  0  0  0  0  0
   -2.5500    4.2047    0.0000 N   0  0  0  0  0  0  0  0  0  0  0  0
   -1.1211    4.2047    0.0000 C   0  0  0  0  0  0  0  0  0  0  0  0
   -1.1211    5.0297    0.0000 S   0  0  0  0  0  0  0  0  0  0  0  0
   -1.8355    5.4422    0.0000 C   0  0  0  0  0  0  0  0  0  0  0  0
   -2.5500    5.0297    0.0000 C   0  0  0  0  0  0  0  0  0  0  0  0
   -1.8355    3.7922    0.0000 C   0  0  0  0  0  0  0  0  0  0  0  0
   -0.2966    5.0585    0.0000 O   0  0  0  0  0  0  0  0  0  0  0  0
   -0.6839    5.7294    0.0000 O   0  0  0  0  0  0  0  0  0  0  0  0
  1  2  1  0
  2  3  1  0
  1  3  1  0
  4  5  2  0
  4  6  1  0
  1  4  1  0
  8  9  2  0
 10 11  1  0
  7 12  2  0
 10 13  1  0
 11 14  2  0
  7  8  1  0
  9 10  1  0
 11 12  1  0
  6 15  1  0
 13 15  2  0
 15 14  1  0
  9 16  1  0
 17 18  1  0
 18 19  2  0
 19 20  1  0
 20 21  2  0
 21 16  1  0
 17 16  2  0
 19 22  1  0
 22 23  1  0
 24 25  1  0
 25 26  1  0
 26 27  1  0
 24 28  1  0
 27 23  1  0
 23 28  1  0
 25 29  2  0
 25 30  2  0
M  END
> <chembl_id>
CHEMBL3301607

> <chembl_pref_name>
FILGOTINIB
