
     RDKit          2D

 26 28  0  0  1  0  0  0  0  0999 V2000
    2.2417   -1.4417    0.0000 N   0  0  0  0  0  0  0  0  0  0  0  0
    2.2500   -0.7375    0.0000 C   0  0  0  0  0  0  0  0  0  0  0  0
    1.5375   -1.4417    0.0000 C   0  0  0  0  0  0  0  0  0  0  0  0
    1.5375   -0.7375    0.0000 C   0  0  0  0  0  0  0  0  0  0  0  0
    2.9167   -1.6625    0.0000 C   0  0  0  0  0  0  0  0  0  0  0  0
    2.9167   -0.5167    0.0000 S   0  0  0  0  0  0  0  0  0  0  0  0
    3.3375   -1.0917    0.0000 C   0  0  0  0  0  0  0  0  0  0  0  0
    0.3042   -0.7292    0.0000 C   0  0  0  0  0  0  0  0  0  0  0  0
    0.9167   -0.3792    0.0000 N   0  0  0  0  0  0  0  0  0  0  0  0
   -0.3083   -0.3792    0.0000 C   0  0  0  0  0  0  0  0  0  0  0  0
    2.9167   -2.3667    0.0000 C   0  0  0  0  0  0  0  0  0  0  0  0
   -0.9208   -0.7292    0.0000 C   0  0  0  0  0  0  0  0  0  0  0  0
   -0.3083    0.3333    0.0000 C   0  0  0  0  0  0  0  0  0  0  0  0
    1.0375   -1.9417    0.0000 O   0  0  0  0  0  0  0  0  0  0  0  0
   -2.0708   -0.7292    0.0000 S   0  0  0  0  0  0  0  0  0  0  0  0
    0.3042   -1.4417    0.0000 O   0  0  0  0  0  0  0  0  0  0  0  0
   -1.4958   -0.3125    0.0000 C   0  0  0  0  0  0  0  0  0  0  0  0
    3.5250   -2.7292    0.0000 O   0  0  0  0  0  0  0  0  0  0  0  0
   -1.1458   -1.4042    0.0000 C   0  0  0  0  0  0  0  0  0  0  0  0
   -1.8500   -1.4042    0.0000 C   0  0  0  0  0  0  0  0  0  0  0  0
    2.2917   -2.7167    0.0000 O   0  0  0  0  0  0  0  0  0  0  0  0
   -0.9208    0.6833    0.0000 O   0  0  0  0  0  0  0  0  0  0  0  0
    0.3042    0.6833    0.0000 O   0  0  0  0  0  0  0  0  0  0  0  0
    3.9500   -0.7292    0.0000 C   0  0  0  0  0  0  0  0  0  0  0  0
    3.9500   -1.4417    0.0000 C   0  0  0  0  0  0  0  0  0  0  0  0
    2.2417   -0.0250    0.0000 H   0  0  0  0  0  0  0  0  0  0  0  0
  2  1  1  0
  3  1  1  0
  4  3  1  0
  5  1  1  0
  6  2  1  0
  7  5  1  0
  8  9  1  0
  4  9  1  1
 10  8  1  0
  5 11  1  6
 12 10  1  0
 10 13  1  1
 14  3  2  0
 15 17  1  0
 16  8  2  0
 17 12  2  0
 18 11  1  0
 19 12  1  0
 20 19  2  0
 21 11  2  0
 22 13  2  0
 23 13  1  0
 24  7  1  0
 25  7  1  0
  2 26  1  6
  6  7  1  0
  4  2  1  0
 20 15  1  0
M  END
> <chembl_id>
CHEMBL1449

> <chembl_pref_name>
TICARCILLIN
