
     RDKit          2D

 35 38  0  0  1  0  0  0  0  0999 V2000
    2.0667   -2.7000    0.0000 C   0  0  0  0  0  0  0  0  0  0  0  0
    2.7500   -2.4792    0.0000 C   0  0  0  0  0  0  0  0  0  0  0  0
    0.2375   -3.7542    0.0000 C   0  0  0  0  0  0  0  0  0  0  0  0
    1.4542   -3.7542    0.0000 C   0  0  0  0  0  0  0  0  0  0  0  0
    2.0667   -3.4042    0.0000 C   0  0  0  0  0  0  0  0  0  0  0  0
    0.8500   -3.4042    0.0000 C   0  0  0  0  0  0  0  0  0  0  0  0
    0.2375   -4.4542    0.0000 C   0  0  0  0  0  0  0  0  0  0  0  0
    1.4542   -2.3500    0.0000 C   0  0  0  0  0  0  0  0  0  0  0  0
    0.8500   -2.7000    0.0000 C   0  0  0  0  0  0  0  0  0  0  0  0
   -0.3750   -4.8167    0.0000 C   0  0  0  0  0  0  0  0  0  0  0  0
    2.7417   -1.7750    0.0000 C   0  0  0  0  0  0  0  0  0  0  0  0
    3.1667   -3.0417    0.0000 C   0  0  0  0  0  0  0  0  0  0  0  0
    3.3625   -2.1250    0.0000 O   0  0  0  0  0  0  0  0  0  0  0  0
    2.7500   -3.6167    0.0000 C   0  0  0  0  0  0  0  0  0  0  0  0
    1.4542   -4.4542    0.0000 C   0  0  0  0  0  0  0  0  0  0  0  0
   -0.3750   -3.4042    0.0000 C   0  0  0  0  0  0  0  0  0  0  0  0
    3.9750   -2.4750    0.0000 C   0  0  0  0  0  0  0  0  0  0  0  0
    0.8500   -4.8167    0.0000 C   0  0  0  0  0  0  0  0  0  0  0  0
   -0.9958   -4.4542    0.0000 C   0  0  0  0  0  0  0  0  0  0  0  0
    2.1292   -1.4167    0.0000 O   0  0  0  0  0  0  0  0  0  0  0  0
    3.9792   -3.1792    0.0000 O   0  0  0  0  0  0  0  0  0  0  0  0
   -1.6083   -4.8167    0.0000 O   0  0  0  0  0  0  0  0  0  0  0  0
    2.1542   -1.9917    0.0000 C   0  0  0  0  0  0  0  0  0  0  0  0
   -0.9958   -3.7542    0.0000 C   0  0  0  0  0  0  0  0  0  0  0  0
    0.2375   -2.3500    0.0000 O   0  0  0  0  0  0  0  0  0  0  0  0
    0.2375   -3.0417    0.0000 C   0  0  0  0  0  0  0  0  0  0  0  0
    3.3542   -1.4167    0.0000 C   0  0  0  0  0  0  0  0  0  0  0  0
    3.3500   -0.7042    0.0000 O   0  0  0  0  0  0  0  0  0  0  0  0
    4.5875   -2.1167    0.0000 C   0  0  0  0  0  0  0  0  0  0  0  0
    5.2042   -2.4667    0.0000 C   0  0  0  0  0  0  0  0  0  0  0  0
    5.8125   -2.1042    0.0000 C   0  0  0  0  0  0  0  0  0  0  0  0
    6.4292   -2.4542    0.0000 C   0  0  0  0  0  0  0  0  0  0  0  0
    0.8417   -4.1917    0.0000 H   0  0  0  0  0  0  0  0  0  0  0  0
    2.0667   -4.1167    0.0000 H   0  0  0  0  0  0  0  0  0  0  0  0
    1.4625   -3.0292    0.0000 H   0  0  0  0  0  0  0  0  0  0  0  0
  2  1  1  0
  3  6  1  0
  4  5  1  0
  5  1  1  0
  6  9  1  0
  7  3  1  0
  8  1  1  0
  9  8  1  0
 10  7  2  0
 11  2  1  0
 12  2  1  0
  2 13  1  6
 14  5  1  0
 15  4  1  0
 16  3  1  0
 17 13  1  0
 18 15  1  0
 19 24  1  0
 20 11  2  0
 21 17  2  0
 22 19  2  0
  1 23  1  1
 24 16  1  0
  9 25  1  1
  3 26  1  1
 27 11  1  0
 28 27  1  0
 29 17  1  0
 30 29  1  0
 31 30  1  0
 32 31  1  0
  6 33  1  6
  5 34  1  6
  4 35  1  1
 14 12  1  0
  6  4  1  0
  7 18  1  0
 19 10  1  0
M  END
> <chembl_id>
CHEMBL1200562

> <chembl_pref_name>
HYDROCORTISONE VALERATE
