
     RDKit          2D

 32 33  0  0  0  0  0  0  0  0999 V2000
    0.0292   -8.2500    0.0000 Cl  0  0  0  0  0  0  0  0  0  0  0  0
    2.5208   -7.0125    0.0000 N   0  0  0  0  0  0  0  0  0  0  0  0
    1.9042   -7.3625    0.0000 C   0  0  0  0  0  0  0  0  0  0  0  0
    3.0958   -7.4292    0.0000 C   0  0  0  0  0  0  0  0  0  0  0  0
    3.4500   -6.3375    0.0000 C   0  0  0  0  0  0  0  0  0  0  0  0
    3.6667   -7.0125    0.0000 C   0  0  0  0  0  0  0  0  0  0  0  0
    2.7375   -6.3417    0.0000 C   0  0  0  0  0  0  0  0  0  0  0  0
    0.6750   -7.3458    0.0000 N   0  0  0  0  0  0  0  0  0  0  0  0
    3.0917   -8.1375    0.0000 C   0  0  0  0  0  0  0  0  0  0  0  0
    1.2917   -7.0000    0.0000 C   0  0  0  0  0  0  0  0  0  0  0  0
    0.0750   -6.2750    0.0000 C   0  0  0  0  0  0  0  0  0  0  0  0
    0.0667   -6.9833    0.0000 C   0  0  0  0  0  0  0  0  0  0  0  0
    4.1583   -6.3375    0.0000 S   0  0  0  0  0  0  0  0  0  0  0  0
    3.2333   -5.6625    0.0000 S   0  0  0  0  0  0  0  0  0  0  0  0
    1.8917   -8.0667    0.0000 O   0  0  0  0  0  0  0  0  0  0  0  0
    2.4750   -8.4875    0.0000 O   0  0  0  0  0  0  0  0  0  0  0  0
    0.6958   -5.9292    0.0000 O   0  0  0  0  0  0  0  0  0  0  0  0
   -0.5500   -7.3292    0.0000 C   0  0  0  0  0  0  0  0  0  0  0  0
    3.7000   -8.4917    0.0000 O   0  0  0  0  0  0  0  0  0  0  0  0
   -0.5333   -5.9125    0.0000 O   0  0  0  0  0  0  0  0  0  0  0  0
   -1.1583   -6.9667    0.0000 C   0  0  0  0  0  0  0  0  0  0  0  0
   -1.7792   -7.3125    0.0000 C   0  0  0  0  0  0  0  0  0  0  0  0
    3.8042   -5.2458    0.0000 C   0  0  0  0  0  0  0  0  0  0  0  0
    4.3792   -5.6625    0.0000 C   0  0  0  0  0  0  0  0  0  0  0  0
    1.3042   -6.2917    0.0000 C   0  0  0  0  0  0  0  0  0  0  0  0
   -1.1500   -6.2583    0.0000 C   0  0  0  0  0  0  0  0  0  0  0  0
   -2.3875   -6.9500    0.0000 C   0  0  0  0  0  0  0  0  0  0  0  0
   -1.7833   -8.0167    0.0000 C   0  0  0  0  0  0  0  0  0  0  0  0
   -1.7583   -5.8958    0.0000 C   0  0  0  0  0  0  0  0  0  0  0  0
   -2.4000   -8.3667    0.0000 C   0  0  0  0  0  0  0  0  0  0  0  0
   -3.0042   -7.2958    0.0000 C   0  0  0  0  0  0  0  0  0  0  0  0
   -3.0125   -8.0042    0.0000 C   0  0  0  0  0  0  0  0  0  0  0  0
  3  2  1  0
  4  2  1  0
  5  7  1  0
  6  4  1  0
  7  2  1  0
  8 10  1  0
  4  9  1  1
 10  3  1  0
 12 11  1  1
 12  8  1  0
 13  5  1  0
 14  5  1  0
 15  3  2  0
 16  9  2  0
 17 11  2  0
 18 12  1  0
 19  9  1  0
 20 11  1  0
 21 18  1  0
 22 21  1  0
 23 14  1  0
 24 13  1  0
 10 25  1  1
 26 20  1  0
 27 22  2  0
 28 22  1  0
 29 26  1  0
 30 28  2  0
 31 27  1  0
 32 30  1  0
  5  6  1  0
 23 24  1  0
 32 31  2  0
M  END
> <chembl_id>
CHEMBL1200831

> <chembl_pref_name>
SPIRAPRIL HYDROCHLORIDE
