
     RDKit          2D

 22 23  0  0  0  0  0  0  0  0999 V2000
    0.3903   -0.4080    0.0000 O   0  0  0  0  0  0  0  0  0  0  0  0
   -1.7336   -2.3203    0.0000 O   0  0  0  0  0  0  0  0  0  0  0  0
    0.5464    0.0290    0.0000 O   0  0  0  0  0  0  0  0  0  0  0  0
    4.1188    1.2665    0.0000 O   0  0  0  0  0  0  0  0  0  0  0  0
   -0.8825    0.8540    0.0000 N   0  0  0  0  0  0  0  0  0  0  0  0
   -2.0306   -0.9226    0.0000 N   0  0  0  0  0  0  0  0  0  0  0  0
   -0.6716   -1.3642    0.0000 N   0  0  0  0  0  0  0  0  0  0  0  0
   -2.1882    0.5765    0.0000 N   0  0  0  0  0  0  0  0  0  0  0  0
    1.9754    0.8540    0.0000 N   0  0  0  0  0  0  0  0  0  0  0  0
   -0.9687    0.0335    0.0000 C   0  0  0  0  0  0  0  0  0  0  0  0
   -1.7757   -0.1380    0.0000 C   0  0  0  0  0  0  0  0  0  0  0  0
   -0.4167   -0.5796    0.0000 C   0  0  0  0  0  0  0  0  0  0  0  0
   -1.4786   -1.5357    0.0000 C   0  0  0  0  0  0  0  0  0  0  0  0
   -1.6362    1.1896    0.0000 C   0  0  0  0  0  0  0  0  0  0  0  0
   -0.1680    1.2665    0.0000 C   0  0  0  0  0  0  0  0  0  0  0  0
   -2.8376   -1.0941    0.0000 C   0  0  0  0  0  0  0  0  0  0  0  0
   -0.1196   -1.9773    0.0000 C   0  0  0  0  0  0  0  0  0  0  0  0
    0.5464    0.8540    0.0000 C   0  0  0  0  0  0  0  0  0  0  0  0
    1.2609    1.2665    0.0000 C   0  0  0  0  0  0  0  0  0  0  0  0
    2.6899    1.2665    0.0000 C   0  0  0  0  0  0  0  0  0  0  0  0
    1.9754    0.0290    0.0000 C   0  0  0  0  0  0  0  0  0  0  0  0
    3.4043    0.8540    0.0000 C   0  0  0  0  0  0  0  0  0  0  0  0
  1 12  2  0
  2 13  2  0
  3 18  1  0
  4 22  1  0
  5 10  1  0
  5 14  1  0
  5 15  1  0
  6 11  1  0
  6 13  1  0
  6 16  1  0
  7 12  1  0
  7 13  1  0
  7 17  1  0
  8 11  1  0
  8 14  2  0
  9 19  1  0
  9 20  1  0
  9 21  1  0
 10 11  2  0
 10 12  1  0
 15 18  1  0
 18 19  1  0
 20 22  1  0
M  END
> <chembl_id>
CHEMBL1624126

> <chembl_pref_name>
XANTHINOL
