
     RDKit          2D

 69 77  0  0  1  0  0  0  0  0999 V2000
   11.0042   -9.0375    0.0000 C   0  0  0  0  0  0  0  0  0  0  0  0
   11.0042   -8.3292    0.0000 C   0  0  0  0  0  0  0  0  0  0  0  0
   -1.4833  -11.8875    0.0000 C   0  0  0  0  0  0  0  0  0  0  0  0
    9.7750   -9.0292    0.0000 C   0  0  0  0  0  0  0  0  0  0  0  0
    9.1667   -9.3875    0.0000 C   0  0  0  0  0  0  0  0  0  0  0  0
   -1.8333  -12.5000    0.0000 C   0  0  0  0  0  0  0  0  0  0  0  0
   10.3875   -9.3875    0.0000 C   0  0  0  0  0  0  0  0  0  0  0  0
   -2.5458  -12.5000    0.0000 C   0  0  0  0  0  0  0  0  0  0  0  0
   -1.8333  -11.2750    0.0000 O   0  0  0  0  0  0  0  0  0  0  0  0
   11.6792   -8.1167    0.0000 C   0  0  0  0  0  0  0  0  0  0  0  0
   10.3917   -7.9708    0.0000 C   0  0  0  0  0  0  0  0  0  0  0  0
   11.8958   -7.4417    0.0000 C   0  0  0  0  0  0  0  0  0  0  0  0
   -0.1667  -11.5292    0.0000 C   0  0  0  0  0  0  0  0  0  0  0  0
   -0.8708  -11.5292    0.0000 O   0  0  0  0  0  0  0  0  0  0  0  0
   -2.9000  -11.8875    0.0000 C   0  0  0  0  0  0  0  0  0  0  0  0
    2.5667  -11.1708    0.0000 C   0  0  0  0  0  0  0  0  0  0  0  0
    5.3000  -10.8083    0.0000 C   0  0  0  0  0  0  0  0  0  0  0  0
   -2.5458  -11.2750    0.0000 C   0  0  0  0  0  0  0  0  0  0  0  0
    1.2500  -11.5292    0.0000 C   0  0  0  0  0  0  0  0  0  0  0  0
    3.9833  -11.1708    0.0000 C   0  0  0  0  0  0  0  0  0  0  0  0
    9.7750   -8.3208    0.0000 C   0  0  0  0  0  0  0  0  0  0  0  0
    6.7167  -10.8083    0.0000 C   0  0  0  0  0  0  0  0  0  0  0  0
    0.9000  -10.9167    0.0000 O   0  0  0  0  0  0  0  0  0  0  0  0
    3.6292  -10.5583    0.0000 O   0  0  0  0  0  0  0  0  0  0  0  0
    6.3667  -10.1958    0.0000 O   0  0  0  0  0  0  0  0  0  0  0  0
    3.6292  -11.7792    0.0000 C   0  0  0  0  0  0  0  0  0  0  0  0
    0.9000  -12.1417    0.0000 C   0  0  0  0  0  0  0  0  0  0  0  0
    6.3667  -11.4167    0.0000 C   0  0  0  0  0  0  0  0  0  0  0  0
   12.5708   -7.2250    0.0000 C   0  0  0  0  0  0  0  0  0  0  0  0
    9.1667  -10.0958    0.0000 C   0  0  0  0  0  0  0  0  0  0  0  0
    0.1917  -12.1417    0.0000 C   0  0  0  0  0  0  0  0  0  0  0  0
    5.6542  -11.4167    0.0000 C   0  0  0  0  0  0  0  0  0  0  0  0
    2.9250  -11.7792    0.0000 C   0  0  0  0  0  0  0  0  0  0  0  0
    0.1917  -10.9167    0.0000 C   0  0  0  0  0  0  0  0  0  0  0  0
   11.6750   -9.2583    0.0000 C   0  0  0  0  0  0  0  0  0  0  0  0
    5.6542  -10.1958    0.0000 C   0  0  0  0  0  0  0  0  0  0  0  0
    2.9250  -10.5583    0.0000 C   0  0  0  0  0  0  0  0  0  0  0  0
   12.5750   -6.5167    0.0000 C   0  0  0  0  0  0  0  0  0  0  0  0
    4.5917  -10.8125    0.0000 O   0  0  0  0  0  0  0  0  0  0  0  0
    1.8625  -11.1667    0.0000 O   0  0  0  0  0  0  0  0  0  0  0  0
   11.9000   -6.2958    0.0000 O   0  0  0  0  0  0  0  0  0  0  0  0
   12.0917   -8.6875    0.0000 C   0  0  0  0  0  0  0  0  0  0  0  0
    8.5542   -9.0333    0.0000 C   0  0  0  0  0  0  0  0  0  0  0  0
   10.3875  -10.0958    0.0000 C   0  0  0  0  0  0  0  0  0  0  0  0
   11.4833   -6.8667    0.0000 C   0  0  0  0  0  0  0  0  0  0  0  0
    7.3292  -10.4500    0.0000 O   0  0  0  0  0  0  0  0  0  0  0  0
    8.5542  -10.4500    0.0000 C   0  0  0  0  0  0  0  0  0  0  0  0
    9.7750  -10.4458    0.0000 C   0  0  0  0  0  0  0  0  0  0  0  0
   11.0000   -9.7417    0.0000 O   0  0  0  0  0  0  0  0  0  0  0  0
   13.1500   -6.1000    0.0000 O   0  0  0  0  0  0  0  0  0  0  0  0
    7.9417  -10.0958    0.0000 C   0  0  0  0  0  0  0  0  0  0  0  0
   -1.4833  -13.1125    0.0000 O   0  0  0  0  0  0  0  0  0  0  0  0
   -2.8958  -13.1125    0.0000 O   0  0  0  0  0  0  0  0  0  0  0  0
   -3.6083  -11.8875    0.0000 O   0  0  0  0  0  0  0  0  0  0  0  0
   11.0000   -7.6167    0.0000 C   0  0  0  0  0  0  0  0  0  0  0  0
   10.4000   -7.2625    0.0000 O   0  0  0  0  0  0  0  0  0  0  0  0
    7.9417   -9.3875    0.0000 C   0  0  0  0  0  0  0  0  0  0  0  0
   -0.1625  -12.7542    0.0000 O   0  0  0  0  0  0  0  0  0  0  0  0
    5.3042  -12.0333    0.0000 O   0  0  0  0  0  0  0  0  0  0  0  0
    2.5708  -12.3958    0.0000 O   0  0  0  0  0  0  0  0  0  0  0  0
    9.1625   -8.6792    0.0000 C   0  0  0  0  0  0  0  0  0  0  0  0
   -2.8958  -10.6583    0.0000 C   0  0  0  0  0  0  0  0  0  0  0  0
   -3.6042  -10.6583    0.0000 O   0  0  0  0  0  0  0  0  0  0  0  0
   -0.1625  -10.3000    0.0000 C   0  0  0  0  0  0  0  0  0  0  0  0
    2.5708   -9.9417    0.0000 C   0  0  0  0  0  0  0  0  0  0  0  0
    5.3042   -9.5792    0.0000 C   0  0  0  0  0  0  0  0  0  0  0  0
    9.1678  -11.0958    0.0000 H   0  0  0  0  0  0  0  0  0  0  0  0
   11.2517   -9.8907    0.0000 H   0  0  0  0  0  0  0  0  0  0  0  0
    8.9068   -8.5330    0.0000 H   0  0  0  0  0  0  0  0  0  0  0  0
  2  1  1  0
  3 14  1  1
  4  7  1  0
  5  4  1  0
  6  3  1  0
  7  1  1  0
  8  6  1  0
  9  3  1  0
 10  2  1  0
 11  2  1  0
 10 12  1  1
 13 34  1  0
 13 14  1  6
 15 18  1  0
 16 37  1  0
 17 36  1  0
 18  9  1  0
 19 40  1  1
 20 39  1  1
 21 11  1  0
 22 46  1  1
 23 19  1  0
 24 20  1  0
 25 22  1  0
 26 20  1  0
 27 19  1  0
 28 22  1  0
 29 12  2  0
 30  5  1  0
 31 27  1  0
 32 28  1  0
 33 26  1  0
 34 23  1  0
 35  1  1  0
 36 25  1  0
 37 24  1  0
 38 29  1  0
 17 39  1  6
 16 40  1  6
 41 45  1  0
 42 35  1  0
 43  5  1  0
 44  7  1  0
 45 12  1  0
 51 46  1  1
 47 30  1  0
 48 44  1  0
  1 49  1  1
 50 38  2  0
 51 47  1  0
  6 52  1  6
  8 53  1  1
 15 54  1  6
  2 55  1  1
 11 56  1  1
 57 43  1  0
 31 58  1  6
 32 59  1  6
 33 60  1  6
  5 61  1  1
 18 62  1  1
 63 62  1  0
 34 64  1  1
 37 65  1  1
 36 66  1  1
 10 42  1  0
 21  4  1  0
 48 30  1  0
 41 38  1  0
 51 57  1  0
 17 32  1  0
 16 33  1  0
 13 31  1  0
 15  8  1  0
 30 67  1  1
  7 68  1  1
  4 69  1  6
M  END
> <chembl_id>
CHEMBL1614

> <chembl_pref_name>
DESLANOSIDE
