
     RDKit          2D

 30 31  0  0  0  0  0  0  0  0999 V2000
    0.3750   -0.8375    0.0000 C   0  0  0  0  0  0  0  0  0  0  0  0
    1.3292   -0.8292    0.0000 C   0  0  0  0  0  0  0  0  0  0  0  0
    3.2667   -0.7625    0.0000 C   0  0  0  0  0  0  0  0  0  0  0  0
    2.7417    0.0125    0.0000 C   0  0  0  0  0  0  0  0  0  0  0  0
    2.8042   -1.6542    0.0000 C   0  0  0  0  0  0  0  0  0  0  0  0
    1.8375   -1.6500    0.0000 C   0  0  0  0  0  0  0  0  0  0  0  0
    1.7792    0.0125    0.0000 C   0  0  0  0  0  0  0  0  0  0  0  0
   -0.1208   -1.7375    0.0000 O   0  0  0  0  0  0  0  0  0  0  0  0
   -2.4458   -2.4292    0.0000 N   0  0  0  0  0  0  0  0  0  0  0  0
   -0.1458   -0.1542    0.0000 O   0  0  0  0  0  0  0  0  0  0  0  0
   -1.0833   -1.7417    0.0000 C   0  0  0  0  0  0  0  0  0  0  0  0
   -1.5500   -2.4292    0.0000 C   0  0  0  0  0  0  0  0  0  0  0  0
   -4.1625   -2.3667    0.0000 O   0  0  0  0  0  0  0  0  0  0  0  0
    4.2375   -0.7625    0.0000 O   0  0  0  0  0  0  0  0  0  0  0  0
    3.1750    0.9250    0.0000 O   0  0  0  0  0  0  0  0  0  0  0  0
    3.3000   -2.4292    0.0000 O   0  0  0  0  0  0  0  0  0  0  0  0
   -2.8458   -1.6292    0.0000 C   0  0  0  0  0  0  0  0  0  0  0  0
   -2.8875   -3.1250    0.0000 C   0  0  0  0  0  0  0  0  0  0  0  0
   -1.8583   -0.0917    0.0000 O   0  0  0  0  0  0  0  0  0  0  0  0
   -1.8583   -1.0042    0.0000 C   0  0  0  0  0  0  0  0  0  0  0  0
   -3.7208   -1.6292    0.0000 C   0  0  0  0  0  0  0  0  0  0  0  0
   -3.7625   -3.1250    0.0000 C   0  0  0  0  0  0  0  0  0  0  0  0
    4.2375   -1.8292    0.0000 C   0  0  0  0  0  0  0  0  0  0  0  0
    2.6375   -3.2792    0.0000 C   0  0  0  0  0  0  0  0  0  0  0  0
    4.1292    0.9250    0.0000 C   0  0  0  0  0  0  0  0  0  0  0  0
   -0.9833    0.8208    0.0000 C   0  0  0  0  0  0  0  0  0  0  0  0
   -0.9833    2.4458    0.0000 C   0  0  0  0  0  0  0  0  0  0  0  0
   -0.5208    1.6458    0.0000 C   0  0  0  0  0  0  0  0  0  0  0  0
   -0.5625    3.2958    0.0000 C   0  0  0  0  0  0  0  0  0  0  0  0
   -1.7625    2.4458    0.0000 C   0  0  0  0  0  0  0  0  0  0  0  0
  2  1  1  0
  3  4  1  0
  4  7  2  0
  5  6  1  0
  6  2  2  0
  7  2  1  0
  8  1  1  0
  9 12  1  0
 10  1  2  0
 11  8  1  0
 12 11  1  0
 13 22  1  0
 14  3  1  0
 15  4  1  0
 16  5  1  0
 17  9  1  0
 18  9  1  0
 19 20  1  0
 20 11  1  0
 21 17  1  0
 22 18  1  0
 23 14  1  0
 24 16  1  0
 25 15  1  0
 26 19  1  0
 27 28  1  0
 28 26  1  0
 29 27  1  0
 30 27  1  0
  5  3  2  0
 21 13  1  0
M  END
> <chembl_id>
CHEMBL2104537

> <chembl_pref_name>
AMOPROXAN
