
     RDKit          2D

 26 27  0  0  0  0  0  0  0  0999 V2000
    1.3009   -3.5703    0.0000 C   0  0  0  0  0  0  0  0  0  0  0  0
    2.0139   -3.1683    0.0000 C   0  0  0  0  0  0  0  0  0  0  0  0
    2.7128   -3.4934    0.0000 O   0  0  0  0  0  0  0  0  0  0  0  0
    3.4405   -3.1556    0.0000 C   0  0  0  0  0  0  0  0  0  0  0  0
    4.1588   -3.5759    0.0000 C   0  0  0  0  0  0  0  0  0  0  0  0
    4.8596   -3.0837    0.0000 O   0  0  0  0  0  0  0  0  0  0  0  0
    5.5841   -3.5703    0.0000 C   0  0  0  0  0  0  0  0  0  0  0  0
    6.2982   -3.1572    0.0000 C   0  0  0  0  0  0  0  0  0  0  0  0
    7.0065   -3.4934    0.0000 O   0  0  0  0  0  0  0  0  0  0  0  0
    7.7225   -3.1674    0.0000 C   0  0  0  0  0  0  0  0  0  0  0  0
    7.7215   -2.3426    0.0000 C   0  0  0  0  0  0  0  0  0  0  0  0
    8.4431   -1.9264    0.0000 C   0  0  0  0  0  0  0  0  0  0  0  0
    9.1539   -2.3438    0.0000 C   0  0  0  0  0  0  0  0  0  0  0  0
    9.8725   -1.9394    0.0000 C   0  0  0  0  0  0  0  0  0  0  0  0
   10.5845   -2.3447    0.0000 C   0  0  0  0  0  0  0  0  0  0  0  0
   11.2931   -1.1128    0.0000 C   0  0  0  0  0  0  0  0  0  0  0  0
   11.3010   -1.9422    0.0000 C   0  0  0  0  0  0  0  0  0  0  0  0
   12.0162   -0.6996    0.0000 C   0  0  0  0  0  0  0  0  0  0  0  0
   12.7257   -1.1140    0.0000 C   0  0  0  0  0  0  0  0  0  0  0  0
   13.4470   -0.6050    0.0000 N   0  0  0  0  0  0  0  0  0  0  0  0
   12.7317   -1.9505    0.0000 C   0  0  0  0  0  0  0  0  0  0  0  0
   12.0145   -2.3541    0.0000 C   0  0  0  0  0  0  0  0  0  0  0  0
    9.1603   -3.1802    0.0000 C   0  0  0  0  0  0  0  0  0  0  0  0
    8.4426   -3.5882    0.0000 C   0  0  0  0  0  0  0  0  0  0  0  0
   14.2765   -1.0442    0.0000 C   0  0  0  0  0  0  0  0  0  0  0  0
    0.5906   -3.1506    0.0000 F   0  0  0  0  0  0  0  0  0  0  0  0
  1  2  1  0
  2  3  1  0
  3  4  1  0
  4  5  1  0
  5  6  1  0
  6  7  1  0
  7  8  1  0
  8  9  1  0
 10  9  1  0
 10 24  1  0
 11 10  2  0
 11 12  1  0
 12 13  2  0
 13 14  1  0
 14 15  2  0
 16 17  2  0
 16 18  1  0
 17 15  1  0
 17 22  1  0
 18 19  2  0
 19 20  1  0
 20 25  1  0
 21 19  1  0
 22 21  2  0
 23 13  1  0
 24 23  2  0
  1 26  1  0
M  ISO  1  26  18
M  END
> <chembl_id>
CHEMBL566752

> <chembl_pref_name>
FLORBETABEN F18
