
     RDKit          2D

 10  9  0  0  0  0  0  0  0  0999 V2000
    1.4042   -4.4042    0.0000 C   0  0  0  0  0  0  0  0  0  0  0  0
    0.7917   -4.0542    0.0000 O   0  0  0  0  0  0  0  0  0  0  0  0
    0.1792   -4.4042    0.0000 C   0  0  0  0  0  0  0  0  0  0  0  0
    2.0167   -4.0542    0.0000 C   0  0  0  0  0  0  0  0  0  0  0  0
    1.0500   -5.0125    0.0000 F   0  0  0  0  0  0  0  0  0  0  0  0
    1.7542   -5.0167    0.0000 F   0  0  0  0  0  0  0  0  0  0  0  0
    0.1792   -5.1167    0.0000 F   0  0  0  0  0  0  0  0  0  0  0  0
   -0.4333   -4.0542    0.0000 F   0  0  0  0  0  0  0  0  0  0  0  0
    2.6292   -4.4042    0.0000 F   0  0  0  0  0  0  0  0  0  0  0  0
    2.0167   -3.3417    0.0000 Cl  0  0  0  0  0  0  0  0  0  0  0  0
  2  1  1  0
  3  2  1  0
  4  1  1  0
  5  1  1  0
  6  1  1  0
  7  3  1  0
  8  3  1  0
  9  4  1  0
 10  4  1  0
M  END
> <chembl_id>
CHEMBL1257

> <chembl_pref_name>
ENFLURANE
