
     RDKit          2D

 18 19  0  0  0  0  0  0  0  0999 V2000
    2.8292   -1.3167    0.0000 C   0  0  0  0  0  0  0  0  0  0  0  0
    3.5125   -0.3792    0.0000 N   0  0  0  0  0  0  0  0  0  0  0  0
    2.8292   -0.6000    0.0000 C   0  0  0  0  0  0  0  0  0  0  0  0
    3.9292   -0.9542    0.0000 C   0  0  0  0  0  0  0  0  0  0  0  0
    2.2167   -1.6750    0.0000 C   0  0  0  0  0  0  0  0  0  0  0  0
    3.5125   -1.5375    0.0000 C   0  0  0  0  0  0  0  0  0  0  0  0
    2.2167   -2.3875    0.0000 O   0  0  0  0  0  0  0  0  0  0  0  0
   -0.2375   -2.3833    0.0000 N   0  0  0  0  0  0  0  0  0  0  0  0
    0.9958   -2.3958    0.0000 C   0  0  0  0  0  0  0  0  0  0  0  0
    1.6042   -2.7417    0.0000 C   0  0  0  0  0  0  0  0  0  0  0  0
    0.3750   -2.7458    0.0000 C   0  0  0  0  0  0  0  0  0  0  0  0
    0.9833   -1.6875    0.0000 O   0  0  0  0  0  0  0  0  0  0  0  0
    1.6042   -0.6000    0.0000 C   0  0  0  0  0  0  0  0  0  0  0  0
   -0.8542   -2.7375    0.0000 C   0  0  0  0  0  0  0  0  0  0  0  0
    2.2167   -0.2417    0.0000 C   0  0  0  0  0  0  0  0  0  0  0  0
    1.6042   -1.3167    0.0000 C   0  0  0  0  0  0  0  0  0  0  0  0
   -1.4708   -2.3750    0.0000 C   0  0  0  0  0  0  0  0  0  0  0  0
   -0.8625   -3.4458    0.0000 C   0  0  0  0  0  0  0  0  0  0  0  0
  2  3  1  0
  3  1  2  0
  4  6  2  0
  5  1  1  0
  6  1  1  0
  7  5  1  0
  8 11  1  0
  9 10  1  0
 10  7  1  0
 11  9  1  0
 12  9  1  0
 13 16  1  0
 14  8  1  0
 15  3  1  0
 16  5  2  0
 17 14  1  0
 18 14  1  0
  4  2  1  0
 13 15  2  0
M  END
> <chembl_id>
CHEMBL500

> <chembl_pref_name>
PINDOLOL
