
     RDKit          2D

 34 36  0  0  0  0  0  0  0  0999 V2000
    7.1417   -6.3750    0.0000 Cl  0  0  0  0  0  0  0  0  0  0  0  0
    3.2500   -4.8917    0.0000 N   0  0  0  0  0  0  0  0  0  0  0  0
    3.8417   -5.3125    0.0000 C   0  0  0  0  0  0  0  0  0  0  0  0
    4.1750   -4.2167    0.0000 N   0  0  0  0  0  0  0  0  0  0  0  0
    4.4042   -4.8667    0.0000 N   0  0  0  0  0  0  0  0  0  0  0  0
    3.5042   -4.2167    0.0000 C   0  0  0  0  0  0  0  0  0  0  0  0
    8.1167   -4.1417    0.0000 N   0  0  0  0  0  0  0  0  0  0  0  0
    8.7167   -3.7917    0.0000 C   0  0  0  0  0  0  0  0  0  0  0  0
    6.8667   -4.8667    0.0000 N   0  0  0  0  0  0  0  0  0  0  0  0
    3.8292   -5.9917    0.0000 O   0  0  0  0  0  0  0  0  0  0  0  0
    9.3375   -4.1625    0.0000 C   0  0  0  0  0  0  0  0  0  0  0  0
    7.4875   -3.7917    0.0000 C   0  0  0  0  0  0  0  0  0  0  0  0
    8.1167   -4.8667    0.0000 C   0  0  0  0  0  0  0  0  0  0  0  0
    2.6375   -5.2750    0.0000 C   0  0  0  0  0  0  0  0  0  0  0  0
    5.0250   -5.2292    0.0000 C   0  0  0  0  0  0  0  0  0  0  0  0
    6.8667   -4.1625    0.0000 C   0  0  0  0  0  0  0  0  0  0  0  0
    7.4875   -5.2292    0.0000 C   0  0  0  0  0  0  0  0  0  0  0  0
    9.9417   -3.7917    0.0000 C   0  0  0  0  0  0  0  0  0  0  0  0
    5.6417   -4.8667    0.0000 C   0  0  0  0  0  0  0  0  0  0  0  0
    3.1417   -3.6167    0.0000 C   0  0  0  0  0  0  0  0  0  0  0  0
    6.2542   -5.2292    0.0000 C   0  0  0  0  0  0  0  0  0  0  0  0
   10.5542   -4.1625    0.0000 Cl  0  0  0  0  0  0  0  0  0  0  0  0
    1.4042   -5.2750    0.0000 O   0  0  0  0  0  0  0  0  0  0  0  0
    2.0250   -4.8917    0.0000 C   0  0  0  0  0  0  0  0  0  0  0  0
    0.8000   -4.8917    0.0000 C   0  0  0  0  0  0  0  0  0  0  0  0
    8.7167   -3.0875    0.0000 C   0  0  0  0  0  0  0  0  0  0  0  0
    9.3375   -2.7375    0.0000 C   0  0  0  0  0  0  0  0  0  0  0  0
    9.9417   -3.0875    0.0000 C   0  0  0  0  0  0  0  0  0  0  0  0
    0.8000   -4.1792    0.0000 C   0  0  0  0  0  0  0  0  0  0  0  0
    0.1792   -5.2417    0.0000 C   0  0  0  0  0  0  0  0  0  0  0  0
    2.4292   -3.6167    0.0000 C   0  0  0  0  0  0  0  0  0  0  0  0
   -0.4375   -4.8917    0.0000 C   0  0  0  0  0  0  0  0  0  0  0  0
    0.1792   -3.8250    0.0000 C   0  0  0  0  0  0  0  0  0  0  0  0
   -0.4375   -4.1792    0.0000 C   0  0  0  0  0  0  0  0  0  0  0  0
  3  2  1  0
  4  6  2  0
  5  3  1  0
  6  2  1  0
  7 13  1  0
  8  7  1  0
  9 21  1  0
 10  3  2  0
 11  8  2  0
 12 16  1  0
 13 17  1  0
 14  2  1  0
 15  5  1  0
 16  9  1  0
 17  9  1  0
 18 11  1  0
 19 15  1  0
 20  6  1  0
 21 19  1  0
 22 18  1  0
 23 24  1  0
 24 14  1  0
 25 23  1  0
 26  8  1  0
 27 26  2  0
 28 27  1  0
 29 25  2  0
 30 25  1  0
 31 20  1  0
 32 30  2  0
 33 29  1  0
 34 33  2  0
  5  4  1  0
 34 32  1  0
  7 12  1  0
 28 18  2  0
M  END
> <chembl_id>
CHEMBL1200492

> <chembl_pref_name>
NEFAZODONE HYDROCHLORIDE
