
     RDKit          2D

 29 29  0  0  0  0  0  0  0  0999 V2000
    7.4542   -1.4917    0.0000 C   0  0  0  0  0  0  0  0  0  0  0  0
    7.4542   -2.8792    0.0000 C   0  0  0  0  0  0  0  0  0  0  0  0
    6.8542   -1.8417    0.0000 C   0  0  0  0  0  0  0  0  0  0  0  0
    6.8542   -2.5292    0.0000 C   0  0  0  0  0  0  0  0  0  0  0  0
    7.4542   -3.5667    0.0000 O   0  0  0  0  0  0  0  0  0  0  0  0
    7.4542   -0.6917    0.0000 O   0  0  0  0  0  0  0  0  0  0  0  0
    8.0542   -2.5292    0.0000 O   0  0  0  0  0  0  0  0  0  0  0  0
    8.0542   -1.8417    0.0000 O   0  0  0  0  0  0  0  0  0  0  0  0
    0.0917   -2.2292    0.0000 C   0  0  0  0  0  0  0  0  0  0  0  0
    0.7917   -2.2292    0.0000 C   0  0  0  0  0  0  0  0  0  0  0  0
   -0.1333   -1.5417    0.0000 N   0  0  0  0  0  0  0  0  0  0  0  0
    1.0042   -1.5417    0.0000 N   0  0  0  0  0  0  0  0  0  0  0  0
    0.4417   -1.1417    0.0000 S   0  0  0  0  0  0  0  0  0  0  0  0
   -0.6375   -2.5417    0.0000 N   0  0  0  0  0  0  0  0  0  0  0  0
    1.3667   -2.5167    0.0000 O   0  0  0  0  0  0  0  0  0  0  0  0
    3.9625   -2.5917    0.0000 N   0  0  0  0  0  0  0  0  0  0  0  0
    4.6750   -2.2417    0.0000 C   0  0  0  0  0  0  0  0  0  0  0  0
   -1.8875   -3.1917    0.0000 O   0  0  0  0  0  0  0  0  0  0  0  0
    2.6542   -2.5042    0.0000 C   0  0  0  0  0  0  0  0  0  0  0  0
    2.0042   -2.1917    0.0000 C   0  0  0  0  0  0  0  0  0  0  0  0
    3.3625   -2.2167    0.0000 C   0  0  0  0  0  0  0  0  0  0  0  0
   -1.2333   -2.1625    0.0000 C   0  0  0  0  0  0  0  0  0  0  0  0
   -0.6625   -3.2417    0.0000 C   0  0  0  0  0  0  0  0  0  0  0  0
    2.6542   -3.1792    0.0000 O   0  0  0  0  0  0  0  0  0  0  0  0
   -1.2958   -3.5667    0.0000 C   0  0  0  0  0  0  0  0  0  0  0  0
   -1.8583   -2.4917    0.0000 C   0  0  0  0  0  0  0  0  0  0  0  0
    4.3167   -1.6292    0.0000 C   0  0  0  0  0  0  0  0  0  0  0  0
    5.2792   -2.5167    0.0000 C   0  0  0  0  0  0  0  0  0  0  0  0
    5.0250   -1.6292    0.0000 C   0  0  0  0  0  0  0  0  0  0  0  0
  2  4  1  0
  3  1  1  0
  4  3  2  0
  5  2  2  0
  6  1  2  0
  7  2  1  0
  8  1  1  0
 10  9  1  0
 11  9  2  0
 12 10  2  0
 13 11  1  0
 14  9  1  0
 15 10  1  0
 16 21  1  0
 17 16  1  0
 18 25  1  0
 19 20  1  0
 20 15  1  0
 21 19  1  0
 22 14  1  0
 23 14  1  0
 19 24  1  6
 25 23  1  0
 26 22  1  0
 27 17  1  0
 28 17  1  0
 29 17  1  0
 12 13  1  0
 26 18  1  0
M  END
> <chembl_id>
CHEMBL1200870

> <chembl_pref_name>
TIMOLOL MALEATE
