
     RDKit          2D

 61 64  0  0  0  0  0  0  0  0999 V2000
    4.9069   -2.8389    0.0000 C   0  0  0  0  0  0  0  0  0  0  0  0
    0.6201   -2.8389    0.0000 C   0  0  0  0  0  0  0  0  0  0  0  0
    2.7635   -1.6014    0.0000 C   0  0  0  0  0  0  0  0  0  0  0  0
    4.9069   -2.0139    0.0000 C   0  0  0  0  0  0  0  0  0  0  0  0
    3.4779   -0.3639    0.0000 C   0  0  0  0  0  0  0  0  0  0  0  0
    2.7635   -0.7764    0.0000 C   0  0  0  0  0  0  0  0  0  0  0  0
   -0.0944   -3.2514    0.0000 C   0  0  0  0  0  0  0  0  0  0  0  0
    2.0490   -2.8389    0.0000 C   0  0  0  0  0  0  0  0  0  0  0  0
    4.1924   -3.2514    0.0000 C   0  0  0  0  0  0  0  0  0  0  0  0
    2.0490   -2.0139    0.0000 C   0  0  0  0  0  0  0  0  0  0  0  0
    4.1924   -4.0764    0.0000 C   0  0  0  0  0  0  0  0  0  0  0  0
    4.1924   -0.7764    0.0000 O   0  0  0  0  0  0  0  0  0  0  0  0
    1.3345   -3.2514    0.0000 O   0  0  0  0  0  0  0  0  0  0  0  0
    1.3345    0.8736    0.0000 C   0  0  0  0  0  0  0  0  0  0  0  0
   -0.8089   -2.8389    0.0000 C   0  0  0  0  0  0  0  0  0  0  0  0
    2.7635   -3.2514    0.0000 C   0  0  0  0  0  0  0  0  0  0  0  0
    4.9069   -4.4889    0.0000 N   0  0  0  0  0  0  0  0  0  0  0  0
    2.0490   -0.3639    0.0000 C   0  0  0  0  0  0  0  0  0  0  0  0
    5.6214   -3.2514    0.0000 O   0  0  0  0  0  0  0  0  0  0  0  0
    1.3345    0.0486    0.0000 C   0  0  0  0  0  0  0  0  0  0  0  0
    0.6201   -2.0139    0.0000 O   0  0  0  0  0  0  0  0  0  0  0  0
    2.7635    0.0486    0.0000 O   0  0  0  0  0  0  0  0  0  0  0  0
    4.1924   -1.6014    0.0000 C   0  0  0  0  0  0  0  0  0  0  0  0
    2.0490    1.2861    0.0000 C   0  0  0  0  0  0  0  0  0  0  0  0
    2.0490   -1.1889    0.0000 O   0  0  0  0  0  0  0  0  0  0  0  0
    2.7635    0.8736    0.0000 C   0  0  0  0  0  0  0  0  0  0  0  0
    5.6214   -4.0764    0.0000 C   0  0  0  0  0  0  0  0  0  0  0  0
    3.4779   -4.4889    0.0000 C   0  0  0  0  0  0  0  0  0  0  0  0
    2.7635   -4.0764    0.0000 C   0  0  0  0  0  0  0  0  0  0  0  0
   -0.8089   -2.0139    0.0000 C   0  0  0  0  0  0  0  0  0  0  0  0
   -1.5234   -3.2514    0.0000 N   0  0  0  0  0  0  0  0  0  0  0  0
    3.4779    0.4611    0.0000 O   0  0  0  0  0  0  0  0  0  0  0  0
   -0.0944   -1.6014    0.0000 C   0  0  0  0  0  0  0  0  0  0  0  0
    5.3441   -1.3143    0.0000 O   0  0  0  0  0  0  0  0  0  0  0  0
   -0.0944   -4.0764    0.0000 O   0  0  0  0  0  0  0  0  0  0  0  0
    2.1960   -3.8505    0.0000 O   0  0  0  0  0  0  0  0  0  0  0  0
    0.5221    0.7303    0.0000 O   0  0  0  0  0  0  0  0  0  0  0  0
    2.0490    2.1111    0.0000 O   0  0  0  0  0  0  0  0  0  0  0  0
    5.7314   -1.9851    0.0000 C   0  0  0  0  0  0  0  0  0  0  0  0
    3.5188   -1.2175    0.0000 C   0  0  0  0  0  0  0  0  0  0  0  0
    3.4779   -2.8389    0.0000 C   0  0  0  0  0  0  0  0  0  0  0  0
    1.3345   -1.6014    0.0000 C   0  0  0  0  0  0  0  0  0  0  0  0
    1.0524    1.6489    0.0000 C   0  0  0  0  0  0  0  0  0  0  0  0
    1.9445   -3.4009    0.0000 C   0  0  0  0  0  0  0  0  0  0  0  0
    6.3358   -4.4889    0.0000 C   0  0  0  0  0  0  0  0  0  0  0  0
    4.9069   -1.1889    0.0000 C   0  0  0  0  0  0  0  0  0  0  0  0
    3.4779    1.2861    0.0000 C   0  0  0  0  0  0  0  0  0  0  0  0
    3.4779   -5.3139    0.0000 C   0  0  0  0  0  0  0  0  0  0  0  0
    7.0503   -4.0764    0.0000 O   0  0  0  0  0  0  0  0  0  0  0  0
    9.1937   -4.4889    0.0000 O   0  0  0  0  0  0  0  0  0  0  0  0
   -2.2378   -2.8389    0.0000 C   0  0  0  0  0  0  0  0  0  0  0  0
   -1.5234   -4.0764    0.0000 C   0  0  0  0  0  0  0  0  0  0  0  0
   -0.0944   -0.7764    0.0000 C   0  0  0  0  0  0  0  0  0  0  0  0
   -0.0082    1.3623    0.0000 C   0  0  0  0  0  0  0  0  0  0  0  0
    8.4792   -4.0764    0.0000 C   0  0  0  0  0  0  0  0  0  0  0  0
    7.7648   -4.4889    0.0000 C   0  0  0  0  0  0  0  0  0  0  0  0
    9.9082   -4.0764    0.0000 C   0  0  0  0  0  0  0  0  0  0  0  0
    4.9069   -0.3639    0.0000 C   0  0  0  0  0  0  0  0  0  0  0  0
    4.1924   -2.4264    0.0000 H   0  0  0  0  0  0  0  0  0  0  0  0
    3.4779   -3.6639    0.0000 H   0  0  0  0  0  0  0  0  0  0  0  0
    1.3571   -0.8132    0.0000 H   0  0  0  0  0  0  0  0  0  0  0  0
  2 13  1  1
  3  6  1  0
  4  1  1  0
  5 12  1  0
  6  5  1  0
  7  2  1  0
  8 16  1  0
  9  1  1  0
 10  8  1  0
 11  9  1  0
 12 23  1  0
  8 13  1  6
 14 20  1  0
 15  7  1  0
 16 29  1  0
 17 27  1  0
 18 25  1  0
  1 19  1  0
 20 18  1  0
 21  2  1  0
 22 18  1  0
 23  4  1  0
 24 26  1  0
  3 25  1  1
 26 22  1  0
 27 19  1  0
 28 11  1  0
 29 28  1  0
 30 33  1  0
 15 31  1  1
 32  5  2  0
 33 21  1  0
  4 34  1  1
  7 35  1  6
 16 36  1  0
 14 37  1  1
 24 38  1  1
  4 39  1  0
  6 40  1  1
  9 41  1  6
 10 42  1  1
 14 43  1  0
 16 44  1  6
 27 45  1  6
 23 46  1  1
 26 47  1  6
 28 48  1  6
 49 45  1  0
 50 55  1  0
 51 31  1  0
 52 31  1  0
 33 53  1  1
 54 37  1  0
 55 56  1  0
 56 49  1  0
 57 50  1  0
 58 46  1  0
 11 17  1  0
  3 10  1  0
 15 30  1  0
 24 14  1  0
  1 59  1  1
 11 60  1  6
 18 61  1  6
M  END
> <chembl_id>
CHEMBL1237072

> <chembl_pref_name>
DIRITHROMYCIN
