
     RDKit          2D

 32 31  0  0  0  0  0  0  0  0999 V2000
    9.9639   -2.5304    0.0000 P   0  0  0  0  0  0  0  0  0  0  0  0
    9.9592   -1.7054    0.0000 O   0  0  0  0  0  0  0  0  0  0  0  0
    9.9592   -3.3554    0.0000 O   0  0  0  0  0  0  0  0  0  0  0  0
    9.1389   -2.5304    0.0000 O   0  0  0  0  0  0  0  0  0  0  0  0
   10.7889   -2.5304    0.0000 O   0  0  0  0  0  0  0  0  0  0  0  0
    3.5013   -5.9671    0.0000 N   0  0  0  0  0  0  0  0  0  0  0  0
    4.2206   -5.5537    0.0000 C   0  0  0  0  0  0  0  0  0  0  0  0
    4.2175   -4.7226    0.0000 C   0  0  0  0  0  0  0  0  0  0  0  0
    3.4993   -4.3138    0.0000 C   0  0  0  0  0  0  0  0  0  0  0  0
    2.7883   -5.5542    0.0000 C   0  0  0  0  0  0  0  0  0  0  0  0
    2.7907   -4.7284    0.0000 C   0  0  0  0  0  0  0  0  0  0  0  0
    2.0779   -4.3153    0.0000 C   0  0  0  0  0  0  0  0  0  0  0  0
    1.3623   -4.7267    0.0000 C   0  0  0  0  0  0  0  0  0  0  0  0
    1.3638   -5.5556    0.0000 C   0  0  0  0  0  0  0  0  0  0  0  0
    2.0773   -5.9651    0.0000 C   0  0  0  0  0  0  0  0  0  0  0  0
    0.6502   -5.9698    0.0000 Cl  0  0  0  0  0  0  0  0  0  0  0  0
    3.4944   -3.4889    0.0000 N   0  0  0  0  0  0  0  0  0  0  0  0
    4.2064   -3.0721    0.0000 C   0  0  0  0  0  0  0  0  0  0  0  0
    4.2014   -2.2472    0.0000 C   0  0  0  0  0  0  0  0  0  0  0  0
    4.9232   -3.4804    0.0000 C   0  0  0  0  0  0  0  0  0  0  0  0
    5.6353   -3.0636    0.0000 C   0  0  0  0  0  0  0  0  0  0  0  0
    6.3521   -3.4718    0.0000 C   0  0  0  0  0  0  0  0  0  0  0  0
    7.0641   -3.0550    0.0000 N   0  0  0  0  0  0  0  0  0  0  0  0
    7.7811   -3.4632    0.0000 C   0  0  0  0  0  0  0  0  0  0  0  0
    7.0592   -2.2300    0.0000 C   0  0  0  0  0  0  0  0  0  0  0  0
    7.7859   -4.2882    0.0000 C   0  0  0  0  0  0  0  0  0  0  0  0
    6.3423   -1.8218    0.0000 C   0  0  0  0  0  0  0  0  0  0  0  0
   10.0456   -4.9539    0.0000 P   0  0  0  0  0  0  0  0  0  0  0  0
   10.0409   -4.1289    0.0000 O   0  0  0  0  0  0  0  0  0  0  0  0
   10.0409   -5.7789    0.0000 O   0  0  0  0  0  0  0  0  0  0  0  0
    9.2206   -4.9539    0.0000 O   0  0  0  0  0  0  0  0  0  0  0  0
   10.8706   -4.9539    0.0000 O   0  0  0  0  0  0  0  0  0  0  0  0
  1  2  2  0
  1  3  1  0
  1  5  1  0
  1  4  1  0
 18 19  1  0
 18 20  1  0
 11 12  2  0
 20 21  1  0
  7  8  1  0
 21 22  1  0
 12 13  1  0
 22 23  1  0
 10  6  1  0
 23 24  1  0
 13 14  2  0
 23 25  1  0
  8  9  2  0
 24 26  1  0
 14 15  1  0
 25 27  1  0
 15 10  2  0
  9 11  1  0
 14 16  1  0
  9 17  1  0
  6  7  2  0
 17 18  1  0
 10 11  1  0
 28 29  2  0
 28 30  1  0
 28 32  1  0
 28 31  1  0
M  END
> <chembl_id>
CHEMBL58510

> <chembl_pref_name>
CHLOROQUINE PHOSPHATE
