
     RDKit          2D

 17 19  0  0  0  0  0  0  0  0999 V2000
   -0.4096   -0.3100    0.0000 N   0  0  0  0  0  0  0  0  0  0  0  0
    0.3750   -0.5649    0.0000 C   0  0  0  0  0  0  0  0  0  0  0  0
    1.0895   -0.1524    0.0000 N   0  0  0  0  0  0  0  0  0  0  0  0
    1.8040   -0.5649    0.0000 C   0  0  0  0  0  0  0  0  0  0  0  0
    1.8040   -1.3899    0.0000 N   0  0  0  0  0  0  0  0  0  0  0  0
    1.0895   -1.8024    0.0000 C   0  0  0  0  0  0  0  0  0  0  0  0
    1.0895   -2.6274    0.0000 O   0  0  0  0  0  0  0  0  0  0  0  0
    0.3750   -1.3899    0.0000 C   0  0  0  0  0  0  0  0  0  0  0  0
   -0.4096   -1.6448    0.0000 N   0  0  0  0  0  0  0  0  0  0  0  0
   -0.8945   -0.9774    0.0000 C   0  0  0  0  0  0  0  0  0  0  0  0
   -0.4096    2.5942    0.0000 C   0  0  0  0  0  0  0  0  0  0  0  0
   -0.9616    3.2073    0.0000 O   0  0  0  0  0  0  0  0  0  0  0  0
   -0.6645    1.8095    0.0000 C   0  0  0  0  0  0  0  0  0  0  0  0
   -0.1796    1.1421    0.0000 O   0  0  0  0  0  0  0  0  0  0  0  0
   -0.6645    0.4747    0.0000 C   0  0  0  0  0  0  0  0  0  0  0  0
   -1.4492    0.7296    0.0000 C   0  0  0  0  0  0  0  0  0  0  0  0
   -1.4492    1.5546    0.0000 C   0  0  0  0  0  0  0  0  0  0  0  0
  2  1  1  0
 10  1  1  0
 15  1  1  1
  2  3  1  0
  2  8  2  0
  4  3  2  0
  4  5  1  0
  6  5  1  0
  6  7  2  0
  8  6  1  0
  8  9  1  0
 10  9  2  0
 11 12  1  0
 13 11  1  1
 13 14  1  0
 17 13  1  0
 15 14  1  0
 15 16  1  0
 16 17  1  0
M  END
> <chembl_id>
CHEMBL1460

> <chembl_pref_name>
DIDANOSINE
