
     RDKit          2D

 23 25  0  0  0  0  0  0  0  0999 V2000
   -0.4833    0.9500    0.0000 N   0  0  0  0  0  0  0  0  0  0  0  0
    0.0000    0.1208    0.0000 C   0  0  0  0  0  0  0  0  0  0  0  0
    0.9792    0.1208    0.0000 C   0  0  0  0  0  0  0  0  0  0  0  0
   -0.4833   -0.7375    0.0000 C   0  0  0  0  0  0  0  0  0  0  0  0
   -1.4333   -0.7375    0.0000 C   0  0  0  0  0  0  0  0  0  0  0  0
   -1.9083    0.1208    0.0000 C   0  0  0  0  0  0  0  0  0  0  0  0
    1.4542    0.9500    0.0000 C   0  0  0  0  0  0  0  0  0  0  0  0
    1.4542   -0.7375    0.0000 C   0  0  0  0  0  0  0  0  0  0  0  0
   -1.4333    0.9500    0.0000 C   0  0  0  0  0  0  0  0  0  0  0  0
    2.4375   -0.7375    0.0000 C   0  0  0  0  0  0  0  0  0  0  0  0
    2.4375    0.9500    0.0000 C   0  0  0  0  0  0  0  0  0  0  0  0
    2.9167    0.1208    0.0000 C   0  0  0  0  0  0  0  0  0  0  0  0
    0.0000    1.7875    0.0000 C   0  0  0  0  0  0  0  0  0  0  0  0
   -2.8875    0.1208    0.0000 C   0  0  0  0  0  0  0  0  0  0  0  0
    0.9542    1.7875    0.0000 C   0  0  0  0  0  0  0  0  0  0  0  0
   -1.9375   -1.6042    0.0000 O   0  0  0  0  0  0  0  0  0  0  0  0
    2.9167   -1.6042    0.0000 O   0  0  0  0  0  0  0  0  0  0  0  0
    3.8667    0.1208    0.0000 O   0  0  0  0  0  0  0  0  0  0  0  0
   -3.3625   -0.7375    0.0000 C   0  0  0  0  0  0  0  0  0  0  0  0
    4.3417   -0.7375    0.0000 C   0  0  0  0  0  0  0  0  0  0  0  0
    3.9000   -1.6042    0.0000 C   0  0  0  0  0  0  0  0  0  0  0  0
   -4.3458   -0.7542    0.0000 C   0  0  0  0  0  0  0  0  0  0  0  0
   -2.8583   -1.5792    0.0000 C   0  0  0  0  0  0  0  0  0  0  0  0
  2  1  1  0
  3  2  1  0
  4  2  1  0
  5  6  1  0
  6  9  1  0
  7 15  1  0
  8  3  1  0
  9  1  1  0
 10  8  2  0
 11  7  1  0
 12 11  2  0
 13  1  1  0
 14  6  1  0
 15 13  1  0
 16  5  2  0
 17 10  1  0
 18 12  1  0
 19 14  1  0
 20 18  1  0
 21 17  1  0
 22 19  1  0
 23 19  1  0
  3  7  2  0
  4  5  1  0
 10 12  1  0
M  END
> <chembl_id>
CHEMBL117785

> <chembl_pref_name>
TETRABENAZINE
