
     RDKit          2D

 14 14  0  0  0  0  0  0  0  0999 V2000
    1.0542    2.4458    0.0000 C   0  0  0  0  0  0  0  0  0  0  0  0
   -0.0583    2.4250    0.0000 O   0  0  0  0  0  0  0  0  0  0  0  0
    1.6292    1.4708    0.0000 C   0  0  0  0  0  0  0  0  0  0  0  0
    1.0667    0.4875    0.0000 C   0  0  0  0  0  0  0  0  0  0  0  0
   -0.0583   -1.4625    0.0000 C   0  0  0  0  0  0  0  0  0  0  0  0
    1.6167    3.4208    0.0000 O   0  0  0  0  0  0  0  0  0  0  0  0
   -0.6125   -2.4417    0.0000 C   0  0  0  0  0  0  0  0  0  0  0  0
   -0.6208   -0.4917    0.0000 C   0  0  0  0  0  0  0  0  0  0  0  0
   -0.0583    0.4875    0.0000 C   0  0  0  0  0  0  0  0  0  0  0  0
    1.6292   -0.4750    0.0000 C   0  0  0  0  0  0  0  0  0  0  0  0
    1.0667   -1.4625    0.0000 C   0  0  0  0  0  0  0  0  0  0  0  0
   -1.7500   -2.4417    0.0000 C   0  0  0  0  0  0  0  0  0  0  0  0
   -1.7375   -3.5875    0.0000 C   0  0  0  0  0  0  0  0  0  0  0  0
   -1.7500   -1.3042    0.0000 C   0  0  0  0  0  0  0  0  0  0  0  0
  2  1  2  0
  3  1  1  0
  4  3  1  0
  5 11  2  0
  6  1  1  0
  7  5  1  0
  8  9  2  0
  9  4  1  0
 10  4  2  0
 11 10  1  0
 12  7  1  0
 13 12  1  0
 14 12  1  0
  5  8  1  0
M  END
> <chembl_id>
CHEMBL341812

> <chembl_pref_name>
IBUFENAC
