
     RDKit          2D

 11 11  0  0  0  0  0  0  0  0999 V2000
   11.0011    1.5887    0.0000 C   0  0  0  0  0  0  0  0  0  0  0  0
   11.0011    0.7633    0.0000 C   0  0  0  0  0  0  0  0  0  0  0  0
   11.7142    0.3526    0.0000 C   0  0  0  0  0  0  0  0  0  0  0  0
   12.4230    0.7633    0.0000 C   0  0  0  0  0  0  0  0  0  0  0  0
   12.4230    1.5887    0.0000 C   0  0  0  0  0  0  0  0  0  0  0  0
   11.7142    2.0036    0.0000 C   0  0  0  0  0  0  0  0  0  0  0  0
   11.7142   -0.4729    0.0000 C   0  0  0  0  0  0  0  0  0  0  0  0
   10.9986   -0.8836    0.0000 C   0  0  0  0  0  0  0  0  0  0  0  0
   12.4255   -0.8836    0.0000 C   0  0  0  0  0  0  0  0  0  0  0  0
   11.7142    2.8291    0.0000 C   0  0  0  0  0  0  0  0  0  0  0  0
   13.1378    0.3475    0.0000 O   0  0  0  0  0  0  0  0  0  0  0  0
  4  5  1  0
  5  6  1  0
  3  7  1  0
  1  2  1  0
  7  8  1  0
  1  6  1  0
  7  9  1  0
  2  3  1  0
  6 10  1  0
  3  4  1  0
  4 11  1  0
M  END
> <chembl_id>
CHEMBL256087

> <chembl_pref_name>
MENTHOL
