
     RDKit          2D

 33 34  0  0  0  0  0  0  0  0999 V2000
    3.5357   -1.4732    0.0000 O   0  0  0  0  0  0  0  0  0  0  0  0
    0.4197    1.6462    0.0000 N   0  0  0  0  0  0  0  0  0  0  0  0
    0.4197    0.8212    0.0000 C   0  0  0  0  0  0  0  0  0  0  0  0
   -0.4053    1.6462    0.0000 C   0  0  0  0  0  0  0  0  0  0  0  0
   -0.4053    0.8212    0.0000 C   0  0  0  0  0  0  0  0  0  0  0  0
   -1.3585   -1.1424    0.0000 C   0  0  0  0  0  0  0  0  0  0  0  0
    1.2043    1.9012    0.0000 C   0  0  0  0  0  0  0  0  0  0  0  0
    1.2043    0.5663    0.0000 S   0  0  0  0  0  0  0  0  0  0  0  0
   -0.7751   -0.5590    0.0000 C   0  0  0  0  0  0  0  0  0  0  0  0
    1.6892    1.2337    0.0000 C   0  0  0  0  0  0  0  0  0  0  0  0
   -1.9645   -2.3318    0.0000 N   0  0  0  0  0  0  0  0  0  0  0  0
   -0.9887    0.2379    0.0000 N   0  0  0  0  0  0  0  0  0  0  0  0
   -1.2294   -1.9572    0.0000 C   0  0  0  0  0  0  0  0  0  0  0  0
   -2.5479   -1.7484    0.0000 O   0  0  0  0  0  0  0  0  0  0  0  0
   -2.1734   -1.0133    0.0000 C   0  0  0  0  0  0  0  0  0  0  0  0
    1.4593    2.6858    0.0000 C   0  0  0  0  0  0  0  0  0  0  0  0
   -0.9887    2.2296    0.0000 O   0  0  0  0  0  0  0  0  0  0  0  0
    0.0217   -0.7726    0.0000 O   0  0  0  0  0  0  0  0  0  0  0  0
    2.2662    2.8573    0.0000 O   0  0  0  0  0  0  0  0  0  0  0  0
   -0.4944   -2.3318    0.0000 C   0  0  0  0  0  0  0  0  0  0  0  0
    0.9072    3.2989    0.0000 O   0  0  0  0  0  0  0  0  0  0  0  0
    2.3023    1.7858    0.0000 C   0  0  0  0  0  0  0  0  0  0  0  0
    2.3023    0.6817    0.0000 C   0  0  0  0  0  0  0  0  0  0  0  0
   -2.5479   -0.2782    0.0000 C   0  0  0  0  0  0  0  0  0  0  0  0
   -0.4512   -3.1556    0.0000 C   0  0  0  0  0  0  0  0  0  0  0  0
    0.1975   -1.8824    0.0000 C   0  0  0  0  0  0  0  0  0  0  0  0
    0.9326   -2.2570    0.0000 C   0  0  0  0  0  0  0  0  0  0  0  0
    0.2839   -3.5302    0.0000 C   0  0  0  0  0  0  0  0  0  0  0  0
    0.9758   -3.0809    0.0000 C   0  0  0  0  0  0  0  0  0  0  0  0
    0.6210    2.4845    0.0000 H   0  0  0  0  0  0  0  0  0  0  0  0
    0.2906    0.0064    0.0000 H   0  0  0  0  0  0  0  0  0  0  0  0
   -1.1675    1.1369    0.0000 H   0  0  0  0  0  0  0  0  0  0  0  0
    4.5416    0.0000    0.0000 Na  0  0  0  0  0 15  0  0  0  0  0  0
  3  2  1  0
  4  2  1  0
  5  4  1  0
  6  9  1  0
  7  2  1  0
  8  3  1  0
  9 12  1  0
 10  7  1  0
 11 13  2  0
  5 12  1  6
 13  6  1  0
 14 15  1  0
 15  6  2  0
  7 16  1  1
 17  4  2  0
 18  9  2  0
 19 16  1  0
 20 13  1  0
 21 16  2  0
 10 22  1  0
 10 23  1  0
 24 15  1  0
 25 20  1  0
 26 20  2  0
 27 26  1  0
 28 25  2  0
 29 28  1  0
  7 30  1  6
  3 31  1  1
  5 32  1  1
 10  8  1  0
  3  5  1  0
 11 14  1  0
 27 29  2  0
M  CHG  2  19  -1  33   1
M  END
> <chembl_id>
CHEMBL3989567

> <chembl_pref_name>
OXACILLIN SODIUM
