
     RDKit          2D

 41 45  0  0  0  0  0  0  0  0999 V2000
    3.1917   -2.8667    0.0000 C   0  0  0  0  0  0  0  0  0  0  0  0
    3.4042   -2.1917    0.0000 C   0  0  0  0  0  0  0  0  0  0  0  0
    3.7667   -3.2792    0.0000 N   0  0  0  0  0  0  0  0  0  0  0  0
    4.1167   -2.1917    0.0000 N   0  0  0  0  0  0  0  0  0  0  0  0
    4.3542   -2.8667    0.0000 C   0  0  0  0  0  0  0  0  0  0  0  0
    6.9417   -4.4042    0.0000 C   0  0  0  0  0  0  0  0  0  0  0  0
    6.5917   -3.2917    0.0000 N   0  0  0  0  0  0  0  0  0  0  0  0
    0.8042   -2.8667    0.0000 C   0  0  0  0  0  0  0  0  0  0  0  0
    6.3542   -4.0167    0.0000 N   0  0  0  0  0  0  0  0  0  0  0  0
    7.3417   -3.2917    0.0000 N   0  0  0  0  0  0  0  0  0  0  0  0
   -0.3208   -2.9125    0.0000 C   0  0  0  0  0  0  0  0  0  0  0  0
    0.2417   -3.3167    0.0000 O   0  0  0  0  0  0  0  0  0  0  0  0
    2.5917   -3.2167    0.0000 C   0  0  0  0  0  0  0  0  0  0  0  0
   -0.1208   -2.2667    0.0000 O   0  0  0  0  0  0  0  0  0  0  0  0
    7.5417   -4.0417    0.0000 N   0  0  0  0  0  0  0  0  0  0  0  0
    0.5917   -2.2667    0.0000 C   0  0  0  0  0  0  0  0  0  0  0  0
    6.9417   -5.0542    0.0000 C   0  0  0  0  0  0  0  0  0  0  0  0
    2.7875   -1.8417    0.0000 C   0  0  0  0  0  0  0  0  0  0  0  0
    6.3042   -5.4167    0.0000 C   0  0  0  0  0  0  0  0  0  0  0  0
    3.7792   -3.9792    0.0000 C   0  0  0  0  0  0  0  0  0  0  0  0
    2.0042   -2.8667    0.0000 O   0  0  0  0  0  0  0  0  0  0  0  0
    1.4042   -3.2167    0.0000 C   0  0  0  0  0  0  0  0  0  0  0  0
    5.6667   -5.0667    0.0000 C   0  0  0  0  0  0  0  0  0  0  0  0
   -0.9958   -3.1333    0.0000 O   0  0  0  0  0  0  0  0  0  0  0  0
    2.5917   -3.9167    0.0000 O   0  0  0  0  0  0  0  0  0  0  0  0
    5.0292   -5.4417    0.0000 C   0  0  0  0  0  0  0  0  0  0  0  0
    5.6667   -4.3417    0.0000 C   0  0  0  0  0  0  0  0  0  0  0  0
    4.4042   -4.3417    0.0000 C   0  0  0  0  0  0  0  0  0  0  0  0
    2.1708   -2.1958    0.0000 O   0  0  0  0  0  0  0  0  0  0  0  0
    4.9667   -3.2292    0.0000 C   0  0  0  0  0  0  0  0  0  0  0  0
    5.0292   -3.9667    0.0000 C   0  0  0  0  0  0  0  0  0  0  0  0
    4.4042   -5.0667    0.0000 C   0  0  0  0  0  0  0  0  0  0  0  0
    1.0417   -1.7292    0.0000 C   0  0  0  0  0  0  0  0  0  0  0  0
    7.5542   -5.4167    0.0000 C   0  0  0  0  0  0  0  0  0  0  0  0
    6.3042   -6.1292    0.0000 C   0  0  0  0  0  0  0  0  0  0  0  0
    2.4292   -1.2250    0.0000 C   0  0  0  0  0  0  0  0  0  0  0  0
    3.1375   -1.2250    0.0000 C   0  0  0  0  0  0  0  0  0  0  0  0
    5.5417   -2.8667    0.0000 C   0  0  0  0  0  0  0  0  0  0  0  0
    7.5542   -6.1292    0.0000 C   0  0  0  0  0  0  0  0  0  0  0  0
    6.9417   -6.4917    0.0000 C   0  0  0  0  0  0  0  0  0  0  0  0
    5.5417   -2.1917    0.0000 C   0  0  0  0  0  0  0  0  0  0  0  0
  2  1  2  0
  3  1  1  0
  4  2  1  0
  5  3  1  0
  6 17  1  0
  7  9  1  0
  8 22  1  0
  9  6  2  0
 10 15  1  0
 11 12  1  0
 12  8  1  0
 13  1  1  0
 14 16  1  0
 15  6  1  0
 16  8  2  0
 17 19  2  0
 18  2  1  0
 19 23  1  0
 20  3  1  0
 21 13  1  0
 22 21  1  0
 23 27  2  0
 24 11  2  0
 25 13  2  0
 26 32  2  0
 27 31  1  0
 28 20  1  0
 29 18  1  0
 30  5  1  0
 31 28  2  0
 32 28  1  0
 33 16  1  0
 34 17  1  0
 35 19  1  0
 36 18  1  0
 37 18  1  0
 38 30  1  0
 39 40  1  0
 40 35  2  0
 41 38  1  0
  4  5  2  0
 23 26  1  0
 11 14  1  0
 39 34  2  0
  7 10  2  0
M  END
> <chembl_id>
CHEMBL1200692

> <chembl_pref_name>
OLMESARTAN MEDOXOMIL
