
     RDKit          2D

 25 24  0  0  0  0  0  0  0  0999 V2000
    1.7830   -5.0709    0.0000 O   0  0  0  0  0  0  0  0  0  0  0  0
   -1.5674   -1.9266    0.0000 C   0  0  0  0  0  0  0  0  0  0  0  0
   -0.7425   -1.9363    0.0000 O   0  0  0  0  0  0  0  0  0  0  0  0
   -1.9800   -2.6400    0.0000 C   0  0  0  0  0  0  0  0  0  0  0  0
   -0.3445   -2.6496    0.0000 C   0  0  0  0  0  0  0  0  0  0  0  0
   -0.7570   -3.3630    0.0000 C   0  0  0  0  0  0  0  0  0  0  0  0
   -1.5820   -3.3533    0.0000 C   0  0  0  0  0  0  0  0  0  0  0  0
   -1.9800   -1.2084    0.0000 C   0  0  0  0  0  0  0  0  0  0  0  0
   -1.5965   -4.7801    0.0000 C   0  0  0  0  0  0  0  0  0  0  0  0
   -2.0042   -4.0618    0.0000 N   0  0  0  0  0  0  0  0  0  0  0  0
    0.4853   -2.6496    0.0000 C   0  0  0  0  0  0  0  0  0  0  0  0
   -2.8098   -2.6205    0.0000 N   0  0  0  0  0  0  0  0  0  0  0  0
   -3.2417   -3.3339    0.0000 C   0  0  0  0  0  0  0  0  0  0  0  0
   -2.0187   -5.4934    0.0000 N   0  0  0  0  0  0  0  0  0  0  0  0
   -1.5578   -0.4950    0.0000 C   0  0  0  0  0  0  0  0  0  0  0  0
    0.9075   -1.9412    0.0000 O   0  0  0  0  0  0  0  0  0  0  0  0
   -2.8389   -4.0522    0.0000 O   0  0  0  0  0  0  0  0  0  0  0  0
   -0.7667   -4.7752    0.0000 N   0  0  0  0  0  0  0  0  0  0  0  0
   -2.8098   -1.1938    0.0000 O   0  0  0  0  0  0  0  0  0  0  0  0
    0.8930   -3.3679    0.0000 O   0  0  0  0  0  0  0  0  0  0  0  0
   -0.7376   -0.4999    0.0000 O   0  0  0  0  0  0  0  0  0  0  0  0
   -1.5432    0.9317    0.0000 O   0  0  0  0  0  0  0  0  0  0  0  0
   -1.9654    0.2184    0.0000 C   0  0  0  0  0  0  0  0  0  0  0  0
   -4.0618   -3.3097    0.0000 C   0  0  0  0  0  0  0  0  0  0  0  0
   -1.1501   -1.2132    0.0000 H   0  0  0  0  0  0  0  0  0  0  0  0
  3  2  1  0
  4  2  1  0
  5  3  1  0
  6  7  1  0
  7  4  1  0
  8  2  1  0
  9 10  1  0
  7 10  1  6
 11  5  1  0
  4 12  1  1
 13 12  1  0
 14  9  2  0
 15  8  1  0
 16 11  2  0
 17 13  2  0
 18  9  1  0
  8 19  1  6
 20 11  1  0
 15 21  1  1
 22 23  1  0
 23 15  1  0
 24 13  1  0
  2 25  1  1
  5  6  2  0
M  END
> <chembl_id>
CHEMBL5315117

> <chembl_pref_name>
ZANAMIVIR HYDRATE
