
     RDKit          2D

 39 41  0  0  0  0  0  0  0  0999 V2000
    6.5228   -5.0973    0.0000 O   0  0  0  0  0  0  0  0  0  0  0  0
    7.2372   -4.6848    0.0000 C   0  0  0  0  0  0  0  0  0  0  0  0
    7.9517   -5.0973    0.0000 C   0  0  0  0  0  0  0  0  0  0  0  0
    8.6662   -4.6848    0.0000 C   0  0  0  0  0  0  0  0  0  0  0  0
    9.3806   -5.0973    0.0000 C   0  0  0  0  0  0  0  0  0  0  0  0
   10.0951   -4.6848    0.0000 O   0  0  0  0  0  0  0  0  0  0  0  0
    9.3806   -5.9223    0.0000 O   0  0  0  0  0  0  0  0  0  0  0  0
    7.2372   -3.8598    0.0000 O   0  0  0  0  0  0  0  0  0  0  0  0
    7.9517   -5.9223    0.0000 O   0  0  0  0  0  0  0  0  0  0  0  0
    8.6662   -3.8598    0.0000 O   0  0  0  0  0  0  0  0  0  0  0  0
    1.5428   -3.4879    0.0000 C   0  0  0  0  0  0  0  0  0  0  0  0
    0.8401   -3.0703    0.0000 C   0  0  0  0  0  0  0  0  0  0  0  0
    0.8554   -2.2454    0.0000 N   0  0  0  0  0  0  0  0  0  0  0  0
    2.2659   -3.0907    0.0000 C   0  0  0  0  0  0  0  0  0  0  0  0
    3.6966   -3.1161    0.0000 N   0  0  0  0  0  0  0  0  0  0  0  0
    2.9685   -3.5184    0.0000 C   0  0  0  0  0  0  0  0  0  0  0  0
    0.1121   -3.4675    0.0000 O   0  0  0  0  0  0  0  0  0  0  0  0
    2.4440   -5.3056    0.0000 C   0  0  0  0  0  0  0  0  0  0  0  0
    0.8300   -4.3076    0.0000 C   0  0  0  0  0  0  0  0  0  0  0  0
    5.1376   -2.3270    0.0000 O   0  0  0  0  0  0  0  0  0  0  0  0
    0.1884   -1.7465    0.0000 C   0  0  0  0  0  0  0  0  0  0  0  0
    1.5275   -1.7719    0.0000 C   0  0  0  0  0  0  0  0  0  0  0  0
    3.7119   -2.2964    0.0000 C   0  0  0  0  0  0  0  0  0  0  0  0
    4.4044   -3.5438    0.0000 C   0  0  0  0  0  0  0  0  0  0  0  0
    4.4349   -1.8993    0.0000 C   0  0  0  0  0  0  0  0  0  0  0  0
    5.1172   -3.1518    0.0000 C   0  0  0  0  0  0  0  0  0  0  0  0
    2.9805   -4.3531    0.0000 C   0  0  0  0  0  0  0  0  0  0  0  0
    0.0051   -4.2822    0.0000 C   0  0  0  0  0  0  0  0  0  0  0  0
    1.2373   -5.0255    0.0000 C   0  0  0  0  0  0  0  0  0  0  0  0
    2.0062   -6.0083    0.0000 C   0  0  0  0  0  0  0  0  0  0  0  0
    3.2587   -5.3209    0.0000 C   0  0  0  0  0  0  0  0  0  0  0  0
    1.2882   -0.9776    0.0000 C   0  0  0  0  0  0  0  0  0  0  0  0
    0.4634   -0.9675    0.0000 C   0  0  0  0  0  0  0  0  0  0  0  0
    3.6559   -6.0541    0.0000 C   0  0  0  0  0  0  0  0  0  0  0  0
   -0.4124   -4.9848    0.0000 C   0  0  0  0  0  0  0  0  0  0  0  0
    0.7994   -5.7282    0.0000 C   0  0  0  0  0  0  0  0  0  0  0  0
    2.4033   -6.7262    0.0000 C   0  0  0  0  0  0  0  0  0  0  0  0
   -0.0254   -5.7129    0.0000 C   0  0  0  0  0  0  0  0  0  0  0  0
    3.2282   -6.7568    0.0000 C   0  0  0  0  0  0  0  0  0  0  0  0
  1  2  1  0
  2  3  1  0
  3  4  1  0
  4  5  1  0
  5  6  1  0
  5  7  2  0
  2  8  2  0
  3  9  1  0
  4 10  1  0
 12 11  1  0
 13 12  1  0
 14 11  1  0
 15 16  1  0
 16 14  1  0
 17 12  2  0
 18 11  1  0
 19 11  1  0
 20 26  1  0
 21 13  1  0
 22 13  1  0
 23 15  1  0
 24 15  1  0
 25 23  1  0
 26 24  1  0
 16 27  1  1
 28 19  1  0
 29 19  2  0
 30 18  2  0
 31 18  1  0
 32 22  1  0
 33 21  1  0
 34 31  2  0
 35 28  2  0
 36 29  1  0
 37 30  1  0
 38 36  2  0
 39 34  1  0
 35 38  1  0
 37 39  2  0
 33 32  1  0
 25 20  1  0
M  END
> <chembl_id>
CHEMBL3833311

> <chembl_pref_name>
DEXTROMORAMIDE TARTRATE
