
     RDKit          2D

 35 37  0  0  1  0  0  0  0  0999 V2000
    3.2167    1.4875    0.0000 C   0  0  0  0  0  0  0  0  0  0  0  0
    3.8292    1.1333    0.0000 C   0  0  0  0  0  0  0  0  0  0  0  0
    3.8292    0.4250    0.0000 C   0  0  0  0  0  0  0  0  0  0  0  0
    3.2167    2.1958    0.0000 C   0  0  0  0  0  0  0  0  0  0  0  0
    4.4125    1.5208    0.0000 N   0  0  0  0  0  0  0  0  0  0  0  0
    0.1167   -0.9542    0.0000 C   0  0  0  0  0  0  0  0  0  0  0  0
    2.6042    1.1333    0.0000 C   0  0  0  0  0  0  0  0  0  0  0  0
    2.6042    0.4250    0.0000 C   0  0  0  0  0  0  0  0  0  0  0  0
    3.2167    0.0708    0.0000 C   0  0  0  0  0  0  0  0  0  0  0  0
    5.0250    0.4583    0.0000 C   0  0  0  0  0  0  0  0  0  0  0  0
    5.0250    1.1708    0.0000 C   0  0  0  0  0  0  0  0  0  0  0  0
   -1.1000   -0.9542    0.0000 O   0  0  0  0  0  0  0  0  0  0  0  0
    3.8292    2.5500    0.0000 O   0  0  0  0  0  0  0  0  0  0  0  0
   -1.7125   -0.6042    0.0000 C   0  0  0  0  0  0  0  0  0  0  0  0
   -0.4875   -0.6042    0.0000 C   0  0  0  0  0  0  0  0  0  0  0  0
   -1.7125    0.1083    0.0000 C   0  0  0  0  0  0  0  0  0  0  0  0
    0.5292   -1.5375    0.0000 F   0  0  0  0  0  0  0  0  0  0  0  0
    0.7375   -0.6042    0.0000 F   0  0  0  0  0  0  0  0  0  0  0  0
   -0.1708   -1.6000    0.0000 F   0  0  0  0  0  0  0  0  0  0  0  0
    2.6042    2.5500    0.0000 N   0  0  0  0  0  0  0  0  0  0  0  0
    1.9625    0.1083    0.0000 C   0  0  0  0  0  0  0  0  0  0  0  0
    4.4125    2.2333    0.0000 C   0  0  0  0  0  0  0  0  0  0  0  0
    0.7542    0.0833    0.0000 N   0  0  0  0  0  0  0  0  0  0  0  0
   -1.0875    0.4458    0.0000 O   0  0  0  0  0  0  0  0  0  0  0  0
    5.0250    2.5833    0.0000 C   0  0  0  0  0  0  0  0  0  0  0  0
    6.2500    2.5833    0.0000 O   0  0  0  0  0  0  0  0  0  0  0  0
    1.3667    0.4333    0.0000 C   0  0  0  0  0  0  0  0  0  0  0  0
    5.6375    2.2333    0.0000 C   0  0  0  0  0  0  0  0  0  0  0  0
   -2.3250   -0.9542    0.0000 C   0  0  0  0  0  0  0  0  0  0  0  0
   -2.3208    0.4833    0.0000 C   0  0  0  0  0  0  0  0  0  0  0  0
    0.1250    0.4583    0.0000 C   0  0  0  0  0  0  0  0  0  0  0  0
   -0.4875    0.1083    0.0000 C   0  0  0  0  0  0  0  0  0  0  0  0
    1.3500    1.1708    0.0000 C   0  0  0  0  0  0  0  0  0  0  0  0
   -2.9375    0.1083    0.0000 C   0  0  0  0  0  0  0  0  0  0  0  0
   -2.9375   -0.6042    0.0000 C   0  0  0  0  0  0  0  0  0  0  0  0
  2  1  1  0
  3  2  2  0
  4  1  1  0
  5  2  1  0
  6 15  1  0
  7  1  2  0
  8  7  1  0
  9  8  2  0
 10  3  1  0
 11  5  1  0
 12 14  1  0
 13  4  2  0
 14 16  1  0
 15 12  1  0
 16 24  1  0
 17  6  1  0
 18  6  1  0
 19  6  1  0
 20  4  1  0
 21  8  1  0
 22  5  1  0
 23 27  1  0
 24 32  1  0
 25 22  1  0
 26 28  1  0
 27 21  1  0
 28 25  1  0
 29 14  2  0
 30 16  2  0
 31 23  1  0
 32 31  1  0
 27 33  1  6
 34 30  1  0
 35 34  2  0
  9  3  1  0
 10 11  1  0
 35 29  1  0
M  END
> <chembl_id>
CHEMBL24778

> <chembl_pref_name>
SILODOSIN
