
     RDKit          2D

 12 12  0  0  0  0  0  0  0  0999 V2000
   -0.4625   -0.5417    0.0000 N   0  0  0  0  0  0  0  0  0  0  0  0
   -1.6458    0.2833    0.0000 C   0  0  0  0  0  0  0  0  0  0  0  0
    0.8750   -0.0917    0.0000 C   0  0  0  0  0  0  0  0  0  0  0  0
   -0.9125   -1.9167    0.0000 C   0  0  0  0  0  0  0  0  0  0  0  0
   -2.8000   -0.5417    0.0000 N   0  0  0  0  0  0  0  0  0  0  0  0
   -2.3500   -1.9167    0.0000 C   0  0  0  0  0  0  0  0  0  0  0  0
   -1.6458    1.7583    0.0000 S   0  0  0  0  0  0  0  0  0  0  0  0
    1.1792    1.3208    0.0000 O   0  0  0  0  0  0  0  0  0  0  0  0
    1.8000   -1.1042    0.0000 O   0  0  0  0  0  0  0  0  0  0  0  0
   -4.1625   -0.0792    0.0000 C   0  0  0  0  0  0  0  0  0  0  0  0
    3.2000   -0.8000    0.0000 C   0  0  0  0  0  0  0  0  0  0  0  0
    4.1542   -1.8542    0.0000 C   0  0  0  0  0  0  0  0  0  0  0  0
  2  1  1  0
  3  1  1  0
  4  1  1  0
  5  2  1  0
  6  4  2  0
  7  2  2  0
  8  3  2  0
  9  3  1  0
 10  5  1  0
 11  9  1  0
 12 11  1  0
  5  6  1  0
M  END
> <chembl_id>
CHEMBL508102

> <chembl_pref_name>
CARBIMAZOLE
