
     RDKit          2D

 41 43  0  0  0  0  0  0  0  0999 V2000
   -7.5429   -0.7071    0.0000 O   0  0  0  0  0  0  0  0  0  0  0  0
   -6.8284   -1.1196    0.0000 C   0  0  0  0  0  0  0  0  0  0  0  0
   -6.1139   -0.7071    0.0000 C   0  0  0  0  0  0  0  0  0  0  0  0
   -5.3994   -1.1196    0.0000 N   0  0  0  0  0  0  0  0  0  0  0  0
   -4.6850   -0.7071    0.0000 C   0  0  0  0  0  0  0  0  0  0  0  0
   -3.9705   -1.1196    0.0000 C   0  0  0  0  0  0  0  0  0  0  0  0
   -3.2560   -0.7071    0.0000 O   0  0  0  0  0  0  0  0  0  0  0  0
   -3.9705   -1.9447    0.0000 C   0  0  0  0  0  0  0  0  0  0  0  0
   -3.2560   -2.3572    0.0000 C   0  0  0  0  0  0  0  0  0  0  0  0
   -2.5416   -1.9447    0.0000 C   0  0  0  0  0  0  0  0  0  0  0  0
   -2.5416   -1.1196    0.0000 C   0  0  0  0  0  0  0  0  0  0  0  0
   -1.9582   -2.5280    0.0000 N   0  0  0  0  0  0  0  0  0  0  0  0
   -1.8271   -0.7071    0.0000 O   0  0  0  0  0  0  0  0  0  0  0  0
   -1.1126   -0.2946    0.0000 C   0  0  0  0  0  0  0  0  0  0  0  0
   -0.3982    0.9429    0.0000 C   0  0  0  0  0  0  0  0  0  0  0  0
   -1.1126    0.5304    0.0000 C   0  0  0  0  0  0  0  0  0  0  0  0
   -0.3982   -0.7072    0.0000 C   0  0  0  0  0  0  0  0  0  0  0  0
    0.3163   -0.2946    0.0000 C   0  0  0  0  0  0  0  0  0  0  0  0
    0.3163    0.5304    0.0000 C   0  0  0  0  0  0  0  0  0  0  0  0
   -1.8271    0.9429    0.0000 N   0  0  0  0  0  0  0  0  0  0  0  0
   -0.3982   -1.5322    0.0000 O   0  0  0  0  0  0  0  0  0  0  0  0
    1.0308    0.9429    0.0000 N   0  0  0  0  0  0  0  0  0  0  0  0
    1.0308    1.7679    0.0000 C   0  0  0  0  0  0  0  0  0  0  0  0
    0.3163    2.1804    0.0000 O   0  0  0  0  0  0  0  0  0  0  0  0
    1.7452    2.1804    0.0000 C   0  0  0  0  0  0  0  0  0  0  0  0
    2.4597    1.7679    0.0000 C   0  0  0  0  0  0  0  0  0  0  0  0
    3.1742    2.1804    0.0000 C   0  0  0  0  0  0  0  0  0  0  0  0
    3.8887    1.7679    0.0000 N   0  0  0  0  0  0  0  0  0  0  0  0
    2.1577    2.8948    0.0000 O   0  0  0  0  0  0  0  0  0  0  0  0
    0.8997   -0.8780    0.0000 O   0  0  0  0  0  0  0  0  0  0  0  0
    1.4830   -1.4614    0.0000 C   0  0  0  0  0  0  0  0  0  0  0  0
    2.1975   -1.0489    0.0000 C   0  0  0  0  0  0  0  0  0  0  0  0
    1.4830   -2.2864    0.0000 O   0  0  0  0  0  0  0  0  0  0  0  0
    2.1975   -2.6989    0.0000 C   0  0  0  0  0  0  0  0  0  0  0  0
    2.9120   -2.2864    0.0000 C   0  0  0  0  0  0  0  0  0  0  0  0
    2.9120   -1.4614    0.0000 C   0  0  0  0  0  0  0  0  0  0  0  0
    2.1975   -0.2239    0.0000 O   0  0  0  0  0  0  0  0  0  0  0  0
    3.6264   -1.0489    0.0000 N   0  0  0  0  0  0  0  0  0  0  0  0
    3.7370   -2.2864    0.0000 O   0  0  0  0  0  0  0  0  0  0  0  0
    3.1255   -3.0833    0.0000 C   0  0  0  0  0  0  0  0  0  0  0  0
    3.6264   -0.2239    0.0000 C   0  0  0  0  0  0  0  0  0  0  0  0
  1  2  1  0
  2  3  1  0
  3  4  1  0
  4  5  1  0
  5  6  1  0
  7  6  1  0
  6  8  2  0
  7 11  1  0
  8  9  1  0
  9 10  1  0
 10 11  1  0
 10 12  1  6
 11 13  1  6
 14 13  1  6
 16 14  1  0
 14 17  1  0
 15 16  1  0
 15 19  1  0
 17 18  1  0
 18 19  1  0
 16 20  1  1
 17 21  1  1
 19 22  1  1
 22 23  1  0
 23 24  2  0
 23 25  1  0
 25 26  1  0
 26 27  1  0
 27 28  1  0
 25 29  1  1
 18 30  1  6
 31 30  1  6
 32 31  1  0
 31 33  1  0
 32 36  1  0
 33 34  1  0
 34 35  1  0
 35 36  1  0
 32 37  1  6
 36 38  1  1
 35 39  1  1
 35 40  1  0
 38 41  1  0
M  END
> <chembl_id>
CHEMBL1650559

> <chembl_pref_name>
PLAZOMICIN
