
     RDKit          2D

 10  9  0  0  0  0  0  0  0  0999 V2000
    3.8167   -4.9667    0.0000 N   0  0  0  0  0  0  0  0  0  0  0  0
    6.2667   -5.0000    0.0000 C   0  0  0  0  0  0  0  0  0  0  0  0
    6.2625   -5.7125    0.0000 O   0  0  0  0  0  0  0  0  0  0  0  0
    5.6542   -4.6375    0.0000 O   0  0  0  0  0  0  0  0  0  0  0  0
    5.0417   -4.9875    0.0000 C   0  0  0  0  0  0  0  0  0  0  0  0
    4.4292   -4.6250    0.0000 C   0  0  0  0  0  0  0  0  0  0  0  0
    3.4625   -5.5792    0.0000 C   0  0  0  0  0  0  0  0  0  0  0  0
    4.1667   -5.5792    0.0000 C   0  0  0  0  0  0  0  0  0  0  0  0
    3.2083   -4.6083    0.0000 C   0  0  0  0  0  0  0  0  0  0  0  0
    6.8917   -4.6500    0.0000 C   0  0  0  0  0  0  0  0  0  0  0  0
  2  4  1  0
  3  2  2  0
  4  5  1  0
  5  6  1  0
  6  1  1  0
  7  1  1  0
  8  1  1  0
  9  1  1  0
 10  2  1  0
M  CHG  1   1   1
M  END
> <chembl_id>
CHEMBL667

> <chembl_pref_name>
ACETYLCHOLINE
