
     RDKit          2D

 15 16  0  0  0  0  0  0  0  0999 V2000
    4.6917   -3.7542    0.0000 N   0  0  0  0  0  0  0  0  0  0  0  0
    3.9875   -3.7542    0.0000 C   0  0  0  0  0  0  0  0  0  0  0  0
    3.7667   -4.4250    0.0000 C   0  0  0  0  0  0  0  0  0  0  0  0
    4.9167   -4.4250    0.0000 C   0  0  0  0  0  0  0  0  0  0  0  0
    4.3417   -4.8417    0.0000 C   0  0  0  0  0  0  0  0  0  0  0  0
    3.5667   -3.1792    0.0000 O   0  0  0  0  0  0  0  0  0  0  0  0
    5.5917   -4.6417    0.0000 O   0  0  0  0  0  0  0  0  0  0  0  0
    3.1542   -4.7792    0.0000 C   0  0  0  0  0  0  0  0  0  0  0  0
    5.1125   -3.1792    0.0000 C   0  0  0  0  0  0  0  0  0  0  0  0
    3.1542   -4.0667    0.0000 C   0  0  0  0  0  0  0  0  0  0  0  0
    3.1542   -5.4917    0.0000 C   0  0  0  0  0  0  0  0  0  0  0  0
    2.5417   -4.4292    0.0000 C   0  0  0  0  0  0  0  0  0  0  0  0
    2.5417   -5.8500    0.0000 C   0  0  0  0  0  0  0  0  0  0  0  0
    1.9292   -4.7875    0.0000 C   0  0  0  0  0  0  0  0  0  0  0  0
    1.9292   -5.4917    0.0000 C   0  0  0  0  0  0  0  0  0  0  0  0
  2  1  1  0
  3  2  1  0
  4  1  1  0
  5  4  1  0
  6  2  2  0
  7  4  2  0
  8  3  1  0
  9  1  1  0
 10  3  1  0
 11  8  1  0
 12  8  2  0
 13 11  2  0
 14 12  1  0
 15 14  2  0
  3  5  1  0
 13 15  1  0
M  END
> <chembl_id>
CHEMBL697

> <chembl_pref_name>
METHSUXIMIDE
