
     RDKit          2D

 32 34  0  0  1  0  0  0  0  0999 V2000
   -0.9417   -5.1875    0.0000 C   0  0  0  0  0  0  0  0  0  0  0  0
    0.2292   -6.2708    0.0000 C   0  0  0  0  0  0  0  0  0  0  0  0
    0.2292   -7.4917    0.0000 C   0  0  0  0  0  0  0  0  0  0  0  0
   -1.2917   -5.7958    0.0000 C   0  0  0  0  0  0  0  0  0  0  0  0
   -0.1250   -6.8833    0.0000 C   0  0  0  0  0  0  0  0  0  0  0  0
   -2.0000   -5.7958    0.0000 C   0  0  0  0  0  0  0  0  0  0  0  0
   -1.2917   -4.5750    0.0000 O   0  0  0  0  0  0  0  0  0  0  0  0
   -0.1208   -5.6542    0.0000 O   0  0  0  0  0  0  0  0  0  0  0  0
   -0.7333   -8.4708    0.0000 C   0  0  0  0  0  0  0  0  0  0  0  0
   -0.1208   -8.1083    0.0000 O   0  0  0  0  0  0  0  0  0  0  0  0
   -2.3583   -5.1875    0.0000 C   0  0  0  0  0  0  0  0  0  0  0  0
   -1.0833   -7.8583    0.0000 O   0  0  0  0  0  0  0  0  0  0  0  0
   -2.0000   -4.5750    0.0000 C   0  0  0  0  0  0  0  0  0  0  0  0
    0.9417   -6.2708    0.0000 C   0  0  0  0  0  0  0  0  0  0  0  0
    0.9417   -7.4917    0.0000 C   0  0  0  0  0  0  0  0  0  0  0  0
    1.2917   -6.8833    0.0000 C   0  0  0  0  0  0  0  0  0  0  0  0
   -1.7958   -7.8583    0.0000 C   0  0  0  0  0  0  0  0  0  0  0  0
   -1.7958   -9.0792    0.0000 C   0  0  0  0  0  0  0  0  0  0  0  0
   -1.0833   -9.0792    0.0000 C   0  0  0  0  0  0  0  0  0  0  0  0
   -2.1500   -8.4708    0.0000 C   0  0  0  0  0  0  0  0  0  0  0  0
   -2.3542   -6.4125    0.0000 N   0  0  0  0  0  0  0  0  0  0  0  0
   -0.9375   -6.4125    0.0000 O   0  0  0  0  0  0  0  0  0  0  0  0
   -0.8333   -6.8833    0.0000 O   0  0  0  0  0  0  0  0  0  0  0  0
    1.2917   -8.1083    0.0000 N   0  0  0  0  0  0  0  0  0  0  0  0
    1.2958   -5.6583    0.0000 N   0  0  0  0  0  0  0  0  0  0  0  0
   -3.0667   -5.1875    0.0000 O   0  0  0  0  0  0  0  0  0  0  0  0
   -0.7333   -9.6958    0.0000 N   0  0  0  0  0  0  0  0  0  0  0  0
   -2.8583   -8.4708    0.0000 O   0  0  0  0  0  0  0  0  0  0  0  0
   -2.3542   -3.9583    0.0000 C   0  0  0  0  0  0  0  0  0  0  0  0
   -2.8542   -7.2417    0.0000 N   0  0  0  0  0  0  0  0  0  0  0  0
   -2.1458   -7.2417    0.0000 C   0  0  0  0  0  0  0  0  0  0  0  0
   -3.0625   -3.9583    0.0000 O   0  0  0  0  0  0  0  0  0  0  0  0
  2  8  1  1
  3  5  1  0
  4  1  1  0
  5  2  1  0
  6  4  1  0
  7  1  1  0
  1  8  1  6
  9 10  1  6
  3 10  1  1
 11 13  1  0
 12  9  1  0
 13  7  1  0
 14  2  1  0
 15 16  1  0
 16 14  1  0
 17 12  1  0
 18 19  1  0
 19  9  1  0
 20 17  1  0
  6 21  1  1
  4 22  1  6
  5 23  1  6
 15 24  1  6
 14 25  1  6
 11 26  1  6
 19 27  1  6
 20 28  1  6
 13 29  1  1
 30 31  1  0
 17 31  1  1
 32 29  1  0
 11  6  1  0
 15  3  1  0
 20 18  1  0
M  END
> <chembl_id>
CHEMBL1747

> <chembl_pref_name>
TOBRAMYCIN
