
     RDKit          2D

 16 15  0  0  0  0  0  0  0  0999 V2000
    4.4458   -5.4875    0.0000 C   0  0  0  0  0  0  0  0  0  0  0  0
    4.4458   -4.7792    0.0000 O   0  0  0  0  0  0  0  0  0  0  0  0
    5.0583   -5.8417    0.0000 O   0  0  0  0  0  0  0  0  0  0  0  0
    3.8292   -5.8417    0.0000 C   0  0  0  0  0  0  0  0  0  0  0  0
    2.3958   -4.8000    0.0000 S   0  0  0  0  0  0  0  0  0  0  0  0
    1.7833   -5.1583    0.0000 C   0  0  0  0  0  0  0  0  0  0  0  0
    2.7417   -4.1792    0.0000 O   0  0  0  0  0  0  0  0  0  0  0  0
    2.0375   -4.1792    0.0000 O   0  0  0  0  0  0  0  0  0  0  0  0
    3.0083   -5.1542    0.0000 N   0  0  0  0  0  0  0  0  0  0  0  0
    1.7833   -5.8708    0.0000 C   0  0  0  0  0  0  0  0  0  0  0  0
    1.1708   -4.8042    0.0000 C   0  0  0  0  0  0  0  0  0  0  0  0
    0.5583   -5.1625    0.0000 C   0  0  0  0  0  0  0  0  0  0  0  0
    1.1708   -6.2250    0.0000 C   0  0  0  0  0  0  0  0  0  0  0  0
    0.5583   -5.8708    0.0000 C   0  0  0  0  0  0  0  0  0  0  0  0
   -0.6708   -5.8708    0.0000 N   0  0  0  0  0  0  0  0  0  0  0  0
   -0.0542   -6.2250    0.0000 C   0  0  0  0  0  0  0  0  0  0  0  0
  2  1  2  0
  3  1  1  0
  4  1  1  0
  6  5  1  0
  7  5  2  0
  8  5  2  0
  9  5  1  0
 10  6  1  0
 11  6  2  0
 12 11  1  0
 13 10  2  0
 14 12  2  0
 15 16  1  0
 16 14  1  0
 13 14  1  0
M  END
> <chembl_id>
CHEMBL1201161

> <chembl_pref_name>
MAFENIDE ACETATE
