
     RDKit          2D

 30 34  0  0  0  0  0  0  0  0999 V2000
    4.6057   -2.7072    0.0000 C   0  0  0  0  0  0  0  0  0  0  0  0
    4.2385   -1.0986    0.0000 N   0  0  0  0  0  0  0  0  0  0  0  0
    5.0269   -1.3417    0.0000 C   0  0  0  0  0  0  0  0  0  0  0  0
    5.2105   -2.1460    0.0000 C   0  0  0  0  0  0  0  0  0  0  0  0
    3.3030   -3.1090    0.0000 C   0  0  0  0  0  0  0  0  0  0  0  0
    2.4780   -3.1090    0.0000 C   0  0  0  0  0  0  0  0  0  0  0  0
    3.8173   -2.4640    0.0000 C   0  0  0  0  0  0  0  0  0  0  0  0
    3.6338   -1.6597    0.0000 C   0  0  0  0  0  0  0  0  0  0  0  0
    2.8905   -1.3017    0.0000 C   0  0  0  0  0  0  0  0  0  0  0  0
    2.1472   -1.6597    0.0000 C   0  0  0  0  0  0  0  0  0  0  0  0
    1.9636   -2.4640    0.0000 C   0  0  0  0  0  0  0  0  0  0  0  0
    1.1752   -2.7072    0.0000 C   0  0  0  0  0  0  0  0  0  0  0  0
    0.5705   -2.1460    0.0000 C   0  0  0  0  0  0  0  0  0  0  0  0
    0.7540   -1.3417    0.0000 C   0  0  0  0  0  0  0  0  0  0  0  0
    1.5424   -1.0986    0.0000 C   0  0  0  0  0  0  0  0  0  0  0  0
    2.8905   -0.4767    0.0000 C   0  0  0  0  0  0  0  0  0  0  0  0
    2.1760   -0.0642    0.0000 C   0  0  0  0  0  0  0  0  0  0  0  0
    2.1760    0.7608    0.0000 C   0  0  0  0  0  0  0  0  0  0  0  0
    2.8905    1.1733    0.0000 N   0  0  0  0  0  0  0  0  0  0  0  0
    3.6049    0.7608    0.0000 C   0  0  0  0  0  0  0  0  0  0  0  0
    3.6049   -0.0642    0.0000 C   0  0  0  0  0  0  0  0  0  0  0  0
    2.8905    1.9983    0.0000 C   0  0  0  0  0  0  0  0  0  0  0  0
   -0.2179   -2.3892    0.0000 Cl  0  0  0  0  0  0  0  0  0  0  0  0
    3.6049    2.4108    0.0000 C   0  0  0  0  0  0  0  0  0  0  0  0
    3.6049    3.2358    0.0000 C   0  0  0  0  0  0  0  0  0  0  0  0
    4.3194    3.6483    0.0000 C   0  0  0  0  0  0  0  0  0  0  0  0
    5.0339    3.2358    0.0000 C   0  0  0  0  0  0  0  0  0  0  0  0
    5.0339    2.4108    0.0000 N   0  0  0  0  0  0  0  0  0  0  0  0
    4.3194    1.9983    0.0000 C   0  0  0  0  0  0  0  0  0  0  0  0
    4.3194    4.4733    0.0000 C   0  0  0  0  0  0  0  0  0  0  0  0
  3  4  2  0
 14 15  2  0
 15 10  1  0
  5  6  1  0
  9 16  2  0
 16 17  1  0
  6 11  1  0
  5  7  1  0
  8  9  1  0
  9 10  1  0
  7  8  1  0
 16 21  1  0
 17 18  1  0
 18 19  1  0
 19 20  1  0
 20 21  1  0
  4  1  1  0
 19 22  1  0
  8  2  2  0
 13 23  1  0
 10 11  2  0
 22 24  1  0
  1  7  2  0
 24 25  2  0
 11 12  1  0
 25 26  1  0
  2  3  1  0
 26 27  2  0
 12 13  2  0
 27 28  1  0
 28 29  2  0
 29 24  1  0
 13 14  1  0
 26 30  1  0
M  END
> <chembl_id>
CHEMBL91397

> <chembl_pref_name>
RUPATADINE
