
     RDKit          2D

 25 24  0  0  0  0  0  0  0  0999 V2000
    6.5703   -2.7952    0.0000 O   0  0  0  0  0  0  0  0  0  0  0  0
    2.9550   -1.6471    0.0000 C   0  0  0  0  0  0  0  0  0  0  0  0
    2.9356   -3.1294    0.0000 N   0  0  0  0  0  0  0  0  0  0  0  0
    3.3038   -2.3834    0.0000 C   0  0  0  0  0  0  0  0  0  0  0  0
    2.1412   -3.2893    0.0000 C   0  0  0  0  0  0  0  0  0  0  0  0
    2.1412   -1.4582    0.0000 N   0  0  0  0  0  0  0  0  0  0  0  0
    1.5018   -2.7806    0.0000 C   0  0  0  0  0  0  0  0  0  0  0  0
    1.4969   -1.9668    0.0000 C   0  0  0  0  0  0  0  0  0  0  0  0
    4.1177   -2.3883    0.0000 C   0  0  0  0  0  0  0  0  0  0  0  0
    0.7897   -3.1972    0.0000 C   0  0  0  0  0  0  0  0  0  0  0  0
    1.7294   -4.0111    0.0000 C   0  0  0  0  0  0  0  0  0  0  0  0
    4.5391   -1.6762    0.0000 O   0  0  0  0  0  0  0  0  0  0  0  0
    4.5342   -3.1100    0.0000 O   0  0  0  0  0  0  0  0  0  0  0  0
    0.7897   -1.5454    0.0000 C   0  0  0  0  0  0  0  0  0  0  0  0
    0.0727   -2.7806    0.0000 C   0  0  0  0  0  0  0  0  0  0  0  0
    0.0775   -1.9523    0.0000 C   0  0  0  0  0  0  0  0  0  0  0  0
   -0.6491   -3.1876    0.0000 Cl  0  0  0  0  0  0  0  0  0  0  0  0
    2.1412   -4.7232    0.0000 C   0  0  0  0  0  0  0  0  0  0  0  0
    0.9010   -4.0159    0.0000 C   0  0  0  0  0  0  0  0  0  0  0  0
    1.7198   -5.4401    0.0000 C   0  0  0  0  0  0  0  0  0  0  0  0
    0.4845   -4.7280    0.0000 C   0  0  0  0  0  0  0  0  0  0  0  0
    0.8914   -5.4401    0.0000 C   0  0  0  0  0  0  0  0  0  0  0  0
    3.4727   -1.0047    0.0000 O   0  0  0  0  0  0  0  0  0  0  0  0
    5.7453   -1.7488    0.0000 K   0  0  0  0  0 15  0  0  0  0  0  0
    5.7453   -2.7952    0.0000 K   0  0  0  0  0 15  0  0  0  0  0  0
  3  4  1  0
  4  2  1  0
  5  3  2  0
  6  2  1  0
  7  8  1  0
  8  6  1  0
  9  4  1  0
 10  7  2  0
 11  5  1  0
 12  9  1  0
 13  9  2  0
 14  8  2  0
 15 16  2  0
 16 14  1  0
 17 15  1  0
 18 11  2  0
 19 11  1  0
 20 18  1  0
 21 19  2  0
 22 21  1  0
  5  7  1  0
 10 15  1  0
 20 22  2  0
  2 23  2  0
M  CHG  4   1  -1  12  -1  24   1  25   1
M  END
> <chembl_id>
CHEMBL2096631

> <chembl_pref_name>
CLORAZEPATE DIPOTASSIUM
