
     RDKit          2D

 17 17  0  0  0  0  0  0  0  0999 V2000
    3.2417   -5.7500    0.0000 C   0  0  0  0  0  0  0  0  0  0  0  0
    6.9292   -5.7167    0.0000 C   0  0  0  0  0  0  0  0  0  0  0  0
    5.0792   -5.3625    0.0000 C   0  0  0  0  0  0  0  0  0  0  0  0
    3.8500   -5.3792    0.0000 O   0  0  0  0  0  0  0  0  0  0  0  0
    6.3167   -5.3542    0.0000 O   0  0  0  0  0  0  0  0  0  0  0  0
    3.2417   -6.3792    0.0000 O   0  0  0  0  0  0  0  0  0  0  0  0
    6.9292   -6.4292    0.0000 O   0  0  0  0  0  0  0  0  0  0  0  0
    4.4667   -5.7292    0.0000 C   0  0  0  0  0  0  0  0  0  0  0  0
    5.7000   -5.7167    0.0000 C   0  0  0  0  0  0  0  0  0  0  0  0
    5.0792   -4.6542    0.0000 C   0  0  0  0  0  0  0  0  0  0  0  0
    7.5500   -5.3542    0.0000 N   0  0  0  0  0  0  0  0  0  0  0  0
    2.6000   -5.4167    0.0000 N   0  0  0  0  0  0  0  0  0  0  0  0
    4.4667   -4.2875    0.0000 C   0  0  0  0  0  0  0  0  0  0  0  0
    5.7000   -4.2917    0.0000 C   0  0  0  0  0  0  0  0  0  0  0  0
    4.4667   -3.5750    0.0000 C   0  0  0  0  0  0  0  0  0  0  0  0
    5.7000   -3.5750    0.0000 C   0  0  0  0  0  0  0  0  0  0  0  0
    5.0792   -3.2167    0.0000 C   0  0  0  0  0  0  0  0  0  0  0  0
  2  5  1  0
  3  8  1  0
  4  1  1  0
  5  9  1  0
  6  1  2  0
  7  2  2  0
  8  4  1  0
  9  3  1  0
 10  3  1  0
 11  2  1  0
 12  1  1  0
 13 10  2  0
 14 10  1  0
 15 13  1  0
 16 14  2  0
 17 16  1  0
 17 15  2  0
M  END
> <chembl_id>
CHEMBL1094

> <chembl_pref_name>
FELBAMATE
