
     RDKit          2D

 20 19  0  0  0  0  0  0  0  0999 V2000
    8.3292   -1.8750    0.0000 Cl  0  0  0  0  0  0  0  0  0  0  0  0
    5.5708    0.9208    0.0000 C   0  0  0  0  0  0  0  0  0  0  0  0
    5.3500    0.2458    0.0000 C   0  0  0  0  0  0  0  0  0  0  0  0
    5.0000    1.3375    0.0000 S   0  0  0  0  0  0  0  0  0  0  0  0
    5.9625   -0.1042    0.0000 N   0  0  0  0  0  0  0  0  0  0  0  0
    4.6417    0.2458    0.0000 C   0  0  0  0  0  0  0  0  0  0  0  0
    5.9583   -0.8167    0.0000 C   0  0  0  0  0  0  0  0  0  0  0  0
    6.1792    1.2833    0.0000 C   0  0  0  0  0  0  0  0  0  0  0  0
    4.4250    0.9208    0.0000 C   0  0  0  0  0  0  0  0  0  0  0  0
    5.3417   -1.1667    0.0000 O   0  0  0  0  0  0  0  0  0  0  0  0
    6.1750    1.9875    0.0000 O   0  0  0  0  0  0  0  0  0  0  0  0
    6.5708   -1.1708    0.0000 C   0  0  0  0  0  0  0  0  0  0  0  0
    6.8000    0.9333    0.0000 O   0  0  0  0  0  0  0  0  0  0  0  0
    7.1833   -0.8208    0.0000 N   0  0  0  0  0  0  0  0  0  0  0  0
    4.0250   -0.1042    0.0000 C   0  0  0  0  0  0  0  0  0  0  0  0
    7.7958   -1.1750    0.0000 C   0  0  0  0  0  0  0  0  0  0  0  0
    6.5667   -1.8792    0.0000 C   0  0  0  0  0  0  0  0  0  0  0  0
    7.4083    1.2958    0.0000 C   0  0  0  0  0  0  0  0  0  0  0  0
    8.4125   -0.8250    0.0000 C   0  0  0  0  0  0  0  0  0  0  0  0
    9.0250   -1.1792    0.0000 C   0  0  0  0  0  0  0  0  0  0  0  0
  3  2  2  0
  4  2  1  0
  5  3  1  0
  6  3  1  0
  7  5  1  0
  8  2  1  0
  9  4  1  0
 10  7  2  0
 11  8  2  0
 12  7  1  0
 13  8  1  0
 14 12  1  0
 15  6  1  0
 16 14  1  0
 17 12  1  0
 18 13  1  0
 19 16  1  0
 20 19  1  0
  6  9  2  0
M  END
> <chembl_id>
CHEMBL1200819

> <chembl_pref_name>
ARTICAINE HYDROCHLORIDE
