
     RDKit          2D

 29 32  0  0  1  0  0  0  0  0999 V2000
   -0.0125    0.8333    0.0000 C   0  0  0  0  0  0  0  0  0  0  0  0
    0.9167    1.1500    0.0000 C   0  0  0  0  0  0  0  0  0  0  0  0
   -2.6083   -0.6167    0.0000 C   0  0  0  0  0  0  0  0  0  0  0  0
   -0.8708   -0.6167    0.0000 C   0  0  0  0  0  0  0  0  0  0  0  0
   -2.6208   -1.6000    0.0000 C   0  0  0  0  0  0  0  0  0  0  0  0
   -0.0250   -0.1375    0.0000 C   0  0  0  0  0  0  0  0  0  0  0  0
   -1.7375   -0.1500    0.0000 C   0  0  0  0  0  0  0  0  0  0  0  0
   -0.8708   -1.6000    0.0000 C   0  0  0  0  0  0  0  0  0  0  0  0
   -1.7375   -2.0917    0.0000 C   0  0  0  0  0  0  0  0  0  0  0  0
   -0.8833    1.3458    0.0000 C   0  0  0  0  0  0  0  0  0  0  0  0
    1.6250    0.4583    0.0000 C   0  0  0  0  0  0  0  0  0  0  0  0
    2.1000    1.5458    0.0000 O   0  0  0  0  0  0  0  0  0  0  0  0
   -1.7375    0.8333    0.0000 C   0  0  0  0  0  0  0  0  0  0  0  0
    1.0750   -0.3667    0.0000 C   0  0  0  0  0  0  0  0  0  0  0  0
    0.9542    2.3708    0.0000 C   0  0  0  0  0  0  0  0  0  0  0  0
    3.2917    0.6708    0.0000 C   0  0  0  0  0  0  0  0  0  0  0  0
   -3.4958   -2.0917    0.0000 C   0  0  0  0  0  0  0  0  0  0  0  0
    4.2625    1.3083    0.0000 O   0  0  0  0  0  0  0  0  0  0  0  0
    2.3625    2.7708    0.0000 O   0  0  0  0  0  0  0  0  0  0  0  0
   -0.3000    1.8208    0.0000 C   0  0  0  0  0  0  0  0  0  0  0  0
   -2.7833    0.5000    0.0000 C   0  0  0  0  0  0  0  0  0  0  0  0
   -3.4833   -0.1500    0.0000 C   0  0  0  0  0  0  0  0  0  0  0  0
   -2.5208   -3.0792    0.0000 C   0  0  0  0  0  0  0  0  0  0  0  0
    3.2792   -0.4667    0.0000 C   0  0  0  0  0  0  0  0  0  0  0  0
    0.2292    3.1708    0.0000 C   0  0  0  0  0  0  0  0  0  0  0  0
   -4.3458   -1.6000    0.0000 C   0  0  0  0  0  0  0  0  0  0  0  0
   -4.3333   -0.6292    0.0000 C   0  0  0  0  0  0  0  0  0  0  0  0
   -2.5955    0.3636    0.0000 H   0  0  0  0  0  0  0  0  0  0  0  0
   -0.0068   -1.1202    0.0000 H   0  0  0  0  0  0  0  0  0  0  0  0
  2  1  1  0
  3  7  1  0
  4  6  1  0
  5  3  1  0
  6  1  1  0
  7 13  1  0
  8  4  1  0
  9  8  1  0
 10  1  1  0
 11  2  1  0
  2 12  1  6
 13 10  1  0
 14  6  1  0
  2 15  1  0
 16 12  1  0
 17  5  2  0
 18 16  2  0
 19 15  2  0
  1 20  1  1
  3 21  1  1
 22  3  1  0
  9 23  1  6
 24 16  1  0
 25 15  1  0
 26 27  1  0
 27 22  1  0
 11 14  1  0
  4  7  1  0
  9  5  1  0
 17 26  1  0
  7 28  1  6
  4 29  1  1
M  END
> <chembl_id>
CHEMBL2104489

> <chembl_pref_name>
ANAGESTONE ACETATE
