
     RDKit          2D

  8  7  0  0  0  0  0  0  0  0999 V2000
   -0.7833    0.0625    0.0000 C   0  0  0  0  0  0  0  0  0  0  0  0
    0.6125    0.0625    0.0000 C   0  0  0  0  0  0  0  0  0  0  0  0
   -2.1583    0.0625    0.0000 Cl  0  0  0  0  0  0  0  0  0  0  0  0
   -0.7833   -1.3292    0.0000 Cl  0  0  0  0  0  0  0  0  0  0  0  0
   -0.7833    1.4583    0.0000 Cl  0  0  0  0  0  0  0  0  0  0  0  0
    2.2750    0.0625    0.0000 O   0  0  0  0  0  0  0  0  0  0  0  0
    0.6125    1.5458    0.0000 C   0  0  0  0  0  0  0  0  0  0  0  0
    0.6125   -1.2542    0.0000 C   0  0  0  0  0  0  0  0  0  0  0  0
  2  1  1  0
  3  1  1  0
  4  1  1  0
  5  1  1  0
  6  2  1  0
  7  2  1  0
  8  2  1  0
M  END
> <chembl_id>
CHEMBL1439973

> <chembl_pref_name>
CHLOROBUTANOL
