
     RDKit          2D

 13 13  0  0  0  0  0  0  0  0999 V2000
    0.9343   -0.2856    0.0000 Br  0  0  0  0  0  0  0  0  0  0  0  0
    0.2198    0.9519    0.0000 N   0  0  0  0  0  0  0  0  0  0  0  0
   -0.4946   -0.2856    0.0000 C   0  0  0  0  0  0  0  0  0  0  0  0
   -0.4946    0.5394    0.0000 C   0  0  0  0  0  0  0  0  0  0  0  0
    0.2198   -0.6981    0.0000 C   0  0  0  0  0  0  0  0  0  0  0  0
   -1.2091   -0.6981    0.0000 C   0  0  0  0  0  0  0  0  0  0  0  0
    0.2198   -1.5231    0.0000 C   0  0  0  0  0  0  0  0  0  0  0  0
    0.9343    1.3644    0.0000 C   0  0  0  0  0  0  0  0  0  0  0  0
   -1.2091   -1.5231    0.0000 C   0  0  0  0  0  0  0  0  0  0  0  0
   -0.4946   -1.9356    0.0000 C   0  0  0  0  0  0  0  0  0  0  0  0
    0.6323    0.2375    0.0000 C   0  0  0  0  0  0  0  0  0  0  0  0
   -0.1927    1.6664    0.0000 C   0  0  0  0  0  0  0  0  0  0  0  0
    0.9343    2.1894    0.0000 C   0  0  0  0  0  0  0  0  0  0  0  0
  1  5  1  0
  2  4  1  0
  2  8  1  0
  2 11  1  0
  2 12  1  0
  3  4  1  0
  3  5  2  0
  3  6  1  0
  5  7  1  0
  6  9  2  0
  7 10  2  0
  8 13  1  0
  9 10  1  0
M  CHG  1   2   1
M  END
> <chembl_id>
CHEMBL1199080

> <chembl_pref_name>
BRETYLIUM
