
     RDKit          2D

 27 27  0  0  0  0  0  0  0  0999 V2000
    8.4125   -6.0792    0.0000 C   0  0  0  0  0  0  0  0  0  0  0  0
   10.5500   -6.4917    0.0000 C   0  0  0  0  0  0  0  0  0  0  0  0
    8.4125   -5.2542    0.0000 O   0  0  0  0  0  0  0  0  0  0  0  0
   10.5500   -7.3167    0.0000 O   0  0  0  0  0  0  0  0  0  0  0  0
    9.8375   -6.0792    0.0000 C   0  0  0  0  0  0  0  0  0  0  0  0
    9.1250   -6.4917    0.0000 C   0  0  0  0  0  0  0  0  0  0  0  0
    7.7000   -6.4917    0.0000 O   0  0  0  0  0  0  0  0  0  0  0  0
   11.2625   -6.0792    0.0000 O   0  0  0  0  0  0  0  0  0  0  0  0
    5.4042   -3.6875    0.0000 C   0  0  0  0  0  0  0  0  0  0  0  0
    4.6875   -3.2750    0.0000 C   0  0  0  0  0  0  0  0  0  0  0  0
    5.4042   -4.5042    0.0000 C   0  0  0  0  0  0  0  0  0  0  0  0
    6.1167   -3.2750    0.0000 C   0  0  0  0  0  0  0  0  0  0  0  0
    4.6875   -4.9250    0.0000 C   0  0  0  0  0  0  0  0  0  0  0  0
    6.1167   -4.9250    0.0000 C   0  0  0  0  0  0  0  0  0  0  0  0
    6.8292   -3.6875    0.0000 N   0  0  0  0  0  0  0  0  0  0  0  0
    4.7875   -2.4542    0.0000 O   0  0  0  0  0  0  0  0  0  0  0  0
    5.4042   -6.1625    0.0000 C   0  0  0  0  0  0  0  0  0  0  0  0
    6.1167   -5.7500    0.0000 C   0  0  0  0  0  0  0  0  0  0  0  0
    4.6875   -5.7500    0.0000 C   0  0  0  0  0  0  0  0  0  0  0  0
    5.4042   -6.9875    0.0000 O   0  0  0  0  0  0  0  0  0  0  0  0
    4.2750   -3.9917    0.0000 C   0  0  0  0  0  0  0  0  0  0  0  0
    3.8917   -3.5000    0.0000 C   0  0  0  0  0  0  0  0  0  0  0  0
    6.8292   -4.5042    0.0000 C   0  0  0  0  0  0  0  0  0  0  0  0
    7.5417   -3.2750    0.0000 C   0  0  0  0  0  0  0  0  0  0  0  0
    3.4750   -3.7625    0.0000 C   0  0  0  0  0  0  0  0  0  0  0  0
    3.0917   -3.2750    0.0000 C   0  0  0  0  0  0  0  0  0  0  0  0
    2.6792   -3.9917    0.0000 C   0  0  0  0  0  0  0  0  0  0  0  0
  2  5  1  0
  3  1  2  0
  4  2  2  0
  5  6  1  0
  6  1  1  0
  7  1  1  0
  8  2  1  0
 10  9  1  0
 11  9  1  0
 12  9  1  0
 13 11  1  0
 14 11  2  0
 15 12  1  0
 16 10  1  0
 17 18  2  0
 18 14  1  0
 19 13  2  0
 20 17  1  0
 21 10  1  0
 22 10  1  0
 23 15  1  0
 24 15  1  0
 25 21  1  0
 26 22  1  0
 27 26  1  0
 17 19  1  0
 25 27  1  0
M  END
> <chembl_id>
CHEMBL1201728

> <chembl_pref_name>
DESVENLAFAXINE SUCCINATE
