
     RDKit          2D

 24 27  0  0  0  0  0  0  0  0999 V2000
   -0.7100    2.2090    0.0000 C   0  0  0  0  0  0  0  0  0  0  0  0
   -0.0512    2.7056    0.0000 C   0  0  0  0  0  0  0  0  0  0  0  0
   -0.7325    1.3843    0.0000 C   0  0  0  0  0  0  0  0  0  0  0  0
   -1.4331    0.9487    0.0000 C   0  0  0  0  0  0  0  0  0  0  0  0
   -2.1607    1.3377    0.0000 C   0  0  0  0  0  0  0  0  0  0  0  0
   -2.1875    2.1623    0.0000 C   0  0  0  0  0  0  0  0  0  0  0  0
   -1.4869    2.5979    0.0000 C   0  0  0  0  0  0  0  0  0  0  0  0
    0.7478    2.5002    0.0000 N   0  0  0  0  0  0  0  0  0  0  0  0
    1.0854    1.7474    0.0000 C   0  0  0  0  0  0  0  0  0  0  0  0
    0.7073    1.0142    0.0000 C   0  0  0  0  0  0  0  0  0  0  0  0
   -1.2354    0.1478    0.0000 N   0  0  0  0  0  0  0  0  0  0  0  0
   -0.1017    0.8526    0.0000 C   0  0  0  0  0  0  0  0  0  0  0  0
   -0.4125    0.0883    0.0000 C   0  0  0  0  0  0  0  0  0  0  0  0
   -2.9151    2.5513    0.0000 F   0  0  0  0  0  0  0  0  0  0  0  0
   -0.2128    3.5146    0.0000 O   0  0  0  0  0  0  0  0  0  0  0  0
    0.0230   -0.6123    0.0000 C   0  0  0  0  0  0  0  0  0  0  0  0
   -0.3659   -1.3398    0.0000 C   0  0  0  0  0  0  0  0  0  0  0  0
    0.8476   -0.5854    0.0000 C   0  0  0  0  0  0  0  0  0  0  0  0
    1.2832   -1.2861    0.0000 C   0  0  0  0  0  0  0  0  0  0  0  0
    0.8942   -2.0136    0.0000 C   0  0  0  0  0  0  0  0  0  0  0  0
    0.0696   -2.0405    0.0000 C   0  0  0  0  0  0  0  0  0  0  0  0
    1.3297   -2.7142    0.0000 C   0  0  0  0  0  0  0  0  0  0  0  0
    0.9408   -3.4418    0.0000 N   0  0  0  0  0  0  0  0  0  0  0  0
    1.3763   -4.1424    0.0000 C   0  0  0  0  0  0  0  0  0  0  0  0
  1  2  1  0
  1  3  1  0
  1  7  2  0
  4  5  1  0
  5  6  2  0
  6  7  1  0
  2  8  1  0
 12 10  1  0
 10  9  1  0
 11 13  1  0
 12 13  2  0
  3 12  1  0
  6 14  1  0
  3  4  2  0
 11  4  1  0
  9  8  1  0
  2 15  2  0
 13 16  1  0
 17 16  2  0
 16 18  1  0
 17 21  1  0
 18 19  2  0
 19 20  1  0
 20 21  2  0
 20 22  1  0
 22 23  1  0
 23 24  1  0
M  END
> <chembl_id>
CHEMBL1173055

> <chembl_pref_name>
RUCAPARIB
