
     RDKit          2D

 28 27  0  0  0  0  0  0  0  0999 V2000
    5.2750   -7.4417    0.0000 Na  0  0  0  0  0 15  0  0  0  0  0  0
   -1.6708   -6.7667    0.0000 N   0  0  0  0  0  0  0  0  0  0  0  0
    2.6208   -5.6708    0.0000 C   0  0  0  0  0  0  0  0  0  0  0  0
    2.0042   -5.3250    0.0000 N   0  0  0  0  0  0  0  0  0  0  0  0
    1.4167   -5.6917    0.0000 C   0  0  0  0  0  0  0  0  0  0  0  0
   -1.0583   -6.4292    0.0000 C   0  0  0  0  0  0  0  0  0  0  0  0
    3.2458   -5.3042    0.0000 C   0  0  0  0  0  0  0  0  0  0  0  0
    0.8042   -5.3500    0.0000 C   0  0  0  0  0  0  0  0  0  0  0  0
   -2.2958   -6.4375    0.0000 O   0  0  0  0  0  0  0  0  0  0  0  0
    3.9292   -7.7375    0.0000 C   0  0  0  0  0  0  0  0  0  0  0  0
    2.0708   -7.4542    0.0000 C   0  0  0  0  0  0  0  0  0  0  0  0
   -1.6833   -7.4792    0.0000 O   0  0  0  0  0  0  0  0  0  0  0  0
    0.1750   -5.7000    0.0000 C   0  0  0  0  0  0  0  0  0  0  0  0
    2.6500   -6.3833    0.0000 O   0  0  0  0  0  0  0  0  0  0  0  0
    1.4375   -6.3917    0.0000 C   0  0  0  0  0  0  0  0  0  0  0  0
    4.5292   -7.3667    0.0000 O   0  0  0  0  0  0  0  0  0  0  0  0
    2.0542   -6.7417    0.0000 O   0  0  0  0  0  0  0  0  0  0  0  0
    3.9458   -8.4208    0.0000 O   0  0  0  0  0  0  0  0  0  0  0  0
    1.4583   -7.8292    0.0000 O   0  0  0  0  0  0  0  0  0  0  0  0
   -0.4333   -6.7625    0.0000 C   0  0  0  0  0  0  0  0  0  0  0  0
   -1.0583   -5.7167    0.0000 C   0  0  0  0  0  0  0  0  0  0  0  0
   -0.4375   -5.3542    0.0000 C   0  0  0  0  0  0  0  0  0  0  0  0
    0.1750   -6.3917    0.0000 C   0  0  0  0  0  0  0  0  0  0  0  0
    3.3042   -7.4042    0.0000 C   0  0  0  0  0  0  0  0  0  0  0  0
    2.7000   -7.7917    0.0000 C   0  0  0  0  0  0  0  0  0  0  0  0
    3.8708   -5.6417    0.0000 Cl  0  0  0  0  0  0  0  0  0  0  0  0
    3.2208   -4.5875    0.0000 Cl  0  0  0  0  0  0  0  0  0  0  0  0
    0.8042   -4.6417    0.0000 O   0  0  0  0  0  0  0  0  0  0  0  0
  3  4  1  0
  4  5  1  0
  5  8  1  0
  6  2  1  0
  7  3  1  0
  8 13  1  0
  9  2  1  0
 10 24  1  0
 11 17  1  0
 12  2  2  0
 13 23  2  0
 14  3  2  0
  5 15  1  6
 16 10  1  0
 17 15  1  0
 18 10  2  0
 19 11  2  0
 20  6  2  0
 21  6  1  0
 22 21  2  0
 23 20  1  0
 24 25  1  0
 25 11  1  0
 26  7  1  0
 27  7  1  0
  8 28  1  1
 13 22  1  0
M  CHG  4   1   1   2   1   9  -1  16  -1
M  END
> <chembl_id>
CHEMBL1200729

> <chembl_pref_name>
CHLORAMPHENICOL SODIUM SUCCINATE
