
     RDKit          2D

 38 42  0  0  0  0  0  0  0  0999 V2000
    5.5897  -20.9454    0.0000 C   0  0  0  0  0  0  0  0  0  0  0  0
   -1.5262  -20.1255    0.0000 C   0  0  0  0  0  0  0  0  0  0  0  0
   -0.1063  -20.1255    0.0000 C   0  0  0  0  0  0  0  0  0  0  0  0
    4.1643  -20.9454    0.0000 C   0  0  0  0  0  0  0  0  0  0  0  0
   -0.8163  -19.7127    0.0000 C   0  0  0  0  0  0  0  0  0  0  0  0
    4.8798  -21.3582    0.0000 C   0  0  0  0  0  0  0  0  0  0  0  0
   -0.9483  -20.7143    0.0000 C   0  0  0  0  0  0  0  0  0  0  0  0
    5.1714  -20.2245    0.0000 C   0  0  0  0  0  0  0  0  0  0  0  0
    6.9600  -21.1161    0.0000 S   0  0  0  0  0  0  0  0  0  0  0  0
   -2.8856  -20.0429    0.0000 S   0  0  0  0  0  0  0  0  0  0  0  0
    4.1533  -20.1255    0.0000 C   0  0  0  0  0  0  0  0  0  0  0  0
   -0.1063  -20.9510    0.0000 C   0  0  0  0  0  0  0  0  0  0  0  0
   -2.2417  -19.7127    0.0000 C   0  0  0  0  0  0  0  0  0  0  0  0
    6.1675  -21.5288    0.0000 C   0  0  0  0  0  0  0  0  0  0  0  0
    0.6036  -19.7127    0.0000 C   0  0  0  0  0  0  0  0  0  0  0  0
    3.4543  -21.3637    0.0000 C   0  0  0  0  0  0  0  0  0  0  0  0
    5.5897  -20.1199    0.0000 C   0  0  0  0  0  0  0  0  0  0  0  0
   -1.5262  -20.9510    0.0000 C   0  0  0  0  0  0  0  0  0  0  0  0
    4.8742  -19.7127    0.0000 C   0  0  0  0  0  0  0  0  0  0  0  0
   -0.8163  -21.3637    0.0000 C   0  0  0  0  0  0  0  0  0  0  0  0
    7.6809  -20.7033    0.0000 O   0  0  0  0  0  0  0  0  0  0  0  0
    6.5638  -20.4006    0.0000 O   0  0  0  0  0  0  0  0  0  0  0  0
   -3.6395  -20.3731    0.0000 O   0  0  0  0  0  0  0  0  0  0  0  0
   -2.5554  -20.8024    0.0000 O   0  0  0  0  0  0  0  0  0  0  0  0
   -0.8218  -18.8872    0.0000 O   0  0  0  0  0  0  0  0  0  0  0  0
    4.8742  -22.1727    0.0000 O   0  0  0  0  0  0  0  0  0  0  0  0
    7.4388  -21.9195    0.0000 O   0  0  0  0  0  0  0  0  0  0  0  0
   -3.2763  -19.2009    0.0000 O   0  0  0  0  0  0  0  0  0  0  0  0
    2.7334  -20.9510    0.0000 C   0  0  0  0  0  0  0  0  0  0  0  0
    1.3136  -20.1255    0.0000 C   0  0  0  0  0  0  0  0  0  0  0  0
   -1.5317  -21.2977    0.0000 C   0  0  0  0  0  0  0  0  0  0  0  0
   -1.1630  -21.5123    0.0000 C   0  0  0  0  0  0  0  0  0  0  0  0
    5.1604  -19.3990    0.0000 C   0  0  0  0  0  0  0  0  0  0  0  0
    5.7492  -19.6411    0.0000 C   0  0  0  0  0  0  0  0  0  0  0  0
    2.7334  -20.1255    0.0000 C   0  0  0  0  0  0  0  0  0  0  0  0
    1.3136  -20.9510    0.0000 C   0  0  0  0  0  0  0  0  0  0  0  0
    2.0235  -19.7127    0.0000 C   0  0  0  0  0  0  0  0  0  0  0  0
    2.0235  -21.3637    0.0000 C   0  0  0  0  0  0  0  0  0  0  0  0
  2  5  1  0
  3 15  2  3
  4  6  1  0
  5  3  1  0
  6  1  1  0
  7 12  1  0
  8  1  1  0
  9 14  1  0
 10 13  1  0
 11  8  1  0
 12  3  1  0
 13  2  1  0
 14  1  1  0
 15 30  1  0
 16  4  2  3
 17  1  1  0
 18 20  1  0
 19 17  1  0
 20 12  1  0
 21  9  2  0
 22  9  2  0
 23 10  2  0
 24 10  2  0
 25  5  2  0
 26  6  2  0
 27  9  1  0
 28 10  1  0
 29 16  1  0
 30 36  2  0
 31  7  1  0
 32  7  1  0
 33  8  1  0
 34  8  1  0
 35 29  1  0
 36 38  1  0
 37 35  2  0
 38 29  2  0
 11 19  1  0
 11  4  1  0
 37 30  1  0
  7  2  1  0
  2 18  1  0
M  END
> <chembl_id>
CHEMBL3989850

> <chembl_pref_name>
ECAMSULE
