
     RDKit          2D

 29 31  0  0  0  0  0  0  0  0999 V2000
   -5.9002    0.2357    0.0000 C   0  0  0  0  0  0  0  0  0  0  0  0
   -5.9002   -0.5893    0.0000 C   0  0  0  0  0  0  0  0  0  0  0  0
   -5.1857   -1.0018    0.0000 C   0  0  0  0  0  0  0  0  0  0  0  0
   -4.4712   -0.5893    0.0000 C   0  0  0  0  0  0  0  0  0  0  0  0
   -4.4712    0.2357    0.0000 C   0  0  0  0  0  0  0  0  0  0  0  0
   -5.1857    0.6482    0.0000 C   0  0  0  0  0  0  0  0  0  0  0  0
   -3.7568    0.6482    0.0000 N   0  0  0  0  0  0  0  0  0  0  0  0
   -3.7568   -1.0018    0.0000 C   0  0  0  0  0  0  0  0  0  0  0  0
   -3.0423   -0.5893    0.0000 C   0  0  0  0  0  0  0  0  0  0  0  0
   -3.0423    0.2357    0.0000 C   0  0  0  0  0  0  0  0  0  0  0  0
   -3.7568   -1.8268    0.0000 O   0  0  0  0  0  0  0  0  0  0  0  0
   -2.3278   -1.0018    0.0000 C   0  0  0  0  0  0  0  0  0  0  0  0
   -1.6134   -0.5892    0.0000 N   0  0  0  0  0  0  0  0  0  0  0  0
   -2.3278   -1.8268    0.0000 O   0  0  0  0  0  0  0  0  0  0  0  0
   -0.8989   -1.0017    0.0000 C   0  0  0  0  0  0  0  0  0  0  0  0
   -0.8989   -1.8267    0.0000 C   0  0  0  0  0  0  0  0  0  0  0  0
   -0.1844   -2.2392    0.0000 C   0  0  0  0  0  0  0  0  0  0  0  0
    0.5301   -1.8268    0.0000 C   0  0  0  0  0  0  0  0  0  0  0  0
    0.5301   -1.0018    0.0000 C   0  0  0  0  0  0  0  0  0  0  0  0
   -0.1844   -0.5892    0.0000 C   0  0  0  0  0  0  0  0  0  0  0  0
   -0.1844    0.2358    0.0000 C   0  0  0  0  0  0  0  0  0  0  0  0
   -0.8989    0.6483    0.0000 C   0  0  0  0  0  0  0  0  0  0  0  0
    0.6774    0.4126    0.0000 C   0  0  0  0  0  0  0  0  0  0  0  0
   -0.1844    1.0608    0.0000 C   0  0  0  0  0  0  0  0  0  0  0  0
   -0.1844   -3.0642    0.0000 O   0  0  0  0  0  0  0  0  0  0  0  0
    1.2446   -2.2393    0.0000 C   0  0  0  0  0  0  0  0  0  0  0  0
    1.9590   -2.6518    0.0000 C   0  0  0  0  0  0  0  0  0  0  0  0
    1.6571   -1.5248    0.0000 C   0  0  0  0  0  0  0  0  0  0  0  0
    1.1267   -3.0126    0.0000 C   0  0  0  0  0  0  0  0  0  0  0  0
  1  2  1  0
  1  6  2  0
  2  3  2  0
  3  4  1  0
  5  6  1  0
  4  8  1  0
  4  5  2  0
  7  5  1  0
  7 10  1  0
  8  9  1  0
  9 10  2  0
  8 11  2  0
  9 12  1  0
 12 13  1  0
 12 14  2  0
 13 15  1  0
 15 16  1  0
 15 20  2  0
 16 17  2  0
 17 18  1  0
 18 19  2  0
 19 20  1  0
 20 21  1  0
 21 22  1  0
 21 23  1  0
 21 24  1  0
 17 25  1  0
 18 26  1  0
 26 27  1  0
 26 28  1  0
 26 29  1  0
M  END
> <chembl_id>
CHEMBL2010601

> <chembl_pref_name>
IVACAFTOR
