
     RDKit          2D

 30 32  0  0  0  0  0  0  0  0999 V2000
   -0.0833    0.3333    0.0000 N   0  0  0  0  0  0  0  0  0  0  0  0
    0.7125    0.3458    0.0000 C   0  0  0  0  0  0  0  0  0  0  0  0
    0.3375   -0.8667    0.0000 N   0  0  0  0  0  0  0  0  0  0  0  0
    1.8667    1.0625    0.0000 C   0  0  0  0  0  0  0  0  0  0  0  0
    1.0917    1.0458    0.0000 C   0  0  0  0  0  0  0  0  0  0  0  0
   -0.3083   -0.4167    0.0000 C   0  0  0  0  0  0  0  0  0  0  0  0
    0.9625   -0.3875    0.0000 C   0  0  0  0  0  0  0  0  0  0  0  0
    2.2375    1.7583    0.0000 C   0  0  0  0  0  0  0  0  0  0  0  0
   -3.7083    0.1958    0.0000 C   0  0  0  0  0  0  0  0  0  0  0  0
    3.0625    0.4208    0.0000 C   0  0  0  0  0  0  0  0  0  0  0  0
    3.7042   -0.0292    0.0000 S   0  0  0  0  0  0  0  0  0  0  0  0
   -0.6208    0.9083    0.0000 C   0  0  0  0  0  0  0  0  0  0  0  0
    2.2792    0.3958    0.0000 C   0  0  0  0  0  0  0  0  0  0  0  0
   -2.9333    0.3708    0.0000 C   0  0  0  0  0  0  0  0  0  0  0  0
    4.3417    0.4583    0.0000 C   0  0  0  0  0  0  0  0  0  0  0  0
    3.0292    1.7750    0.0000 O   0  0  0  0  0  0  0  0  0  0  0  0
    3.2792    1.1708    0.0000 C   0  0  0  0  0  0  0  0  0  0  0  0
   -3.9333   -0.5625    0.0000 O   0  0  0  0  0  0  0  0  0  0  0  0
    4.0667    1.1875    0.0000 C   0  0  0  0  0  0  0  0  0  0  0  0
   -2.7083    1.1208    0.0000 C   0  0  0  0  0  0  0  0  0  0  0  0
   -2.3958   -0.2000    0.0000 C   0  0  0  0  0  0  0  0  0  0  0  0
   -1.4000    0.7333    0.0000 C   0  0  0  0  0  0  0  0  0  0  0  0
    1.8292    2.4208    0.0000 O   0  0  0  0  0  0  0  0  0  0  0  0
   -4.2458    0.7708    0.0000 O   0  0  0  0  0  0  0  0  0  0  0  0
   -1.9375    1.3083    0.0000 C   0  0  0  0  0  0  0  0  0  0  0  0
   -1.6250   -0.0167    0.0000 C   0  0  0  0  0  0  0  0  0  0  0  0
   -1.0625   -0.6875    0.0000 C   0  0  0  0  0  0  0  0  0  0  0  0
   -1.2083   -1.4625    0.0000 C   0  0  0  0  0  0  0  0  0  0  0  0
   -1.9458   -1.7292    0.0000 C   0  0  0  0  0  0  0  0  0  0  0  0
   -2.0833   -2.5042    0.0000 C   0  0  0  0  0  0  0  0  0  0  0  0
  2  1  1  0
  3  6  2  0
  4  5  2  0
  5  2  1  0
  6  1  1  0
  7  2  2  0
  8  4  1  0
  9 14  1  0
 10 13  1  0
 11 10  1  0
 12  1  1  0
 13  4  1  0
 14 21  1  0
 15 11  1  0
 16  8  2  0
 17 10  2  0
 18  9  2  0
 19 17  1  0
 20 25  1  0
 21 26  2  0
 22 12  1  0
 23  8  1  0
 24  9  1  0
 25 22  2  0
 26 22  1  0
 27  6  1  0
 28 27  1  0
 29 28  1  0
 30 29  1  0
  7  3  1  0
 20 14  2  0
 19 15  2  0
M  END
> <chembl_id>
CHEMBL813

> <chembl_pref_name>
EPROSARTAN
