
     RDKit          2D

 18 17  0  0  0  0  0  0  0  0999 V2000
    3.4501   -5.0562    0.0000 Na  0  0  0  0  0 15  0  0  0  0  0  0
    1.0627   -5.0126    0.0000 N   0  0  0  0  0  0  0  0  0  0  0  0
    0.3494   -5.4153    0.0000 C   0  0  0  0  0  0  0  0  0  0  0  0
    1.0578   -6.6575    0.0000 C   0  0  0  0  0  0  0  0  0  0  0  0
    0.3494   -6.2450    0.0000 C   0  0  0  0  0  0  0  0  0  0  0  0
    1.7809   -6.2499    0.0000 N   0  0  0  0  0  0  0  0  0  0  0  0
    1.7760   -5.4249    0.0000 C   0  0  0  0  0  0  0  0  0  0  0  0
    2.5038   -5.0077    0.0000 S   0  0  0  0  0  0  0  0  0  0  0  0
   -0.3639   -4.9980    0.0000 O   0  0  0  0  0  0  0  0  0  0  0  0
    1.0676   -7.4775    0.0000 O   0  0  0  0  0  0  0  0  0  0  0  0
   -0.0679   -6.9583    0.0000 C   0  0  0  0  0  0  0  0  0  0  0  0
   -0.8831   -5.5172    0.0000 C   0  0  0  0  0  0  0  0  0  0  0  0
   -0.4755   -6.2354    0.0000 C   0  0  0  0  0  0  0  0  0  0  0  0
   -1.7081   -5.5123    0.0000 C   0  0  0  0  0  0  0  0  0  0  0  0
   -0.8977   -6.9487    0.0000 C   0  0  0  0  0  0  0  0  0  0  0  0
    0.3348   -7.6716    0.0000 C   0  0  0  0  0  0  0  0  0  0  0  0
   -1.3150   -7.6620    0.0000 C   0  0  0  0  0  0  0  0  0  0  0  0
   -2.1399   -7.6571    0.0000 C   0  0  0  0  0  0  0  0  0  0  0  0
  3  2  1  0
  4  6  1  0
  5  3  1  0
  6  7  1  0
  7  2  1  0
  8  7  2  0
  9  3  2  0
 10  4  2  0
 11  5  1  0
 12 13  1  0
 13  5  1  0
 14 12  2  0
 15 11  1  0
 16 11  1  0
 17 15  1  0
 18 17  1  0
  5  4  1  0
M  CHG  2   1   1   2  -1
M  END
> <chembl_id>
CHEMBL1201065

> <chembl_pref_name>
THIAMYLAL SODIUM
