
     RDKit          2D

122132  0  0  0  0  0  0  0  0999 V2000
    2.9029   -4.1306    0.0000 O   0  0  0  0  0  0  0  0  0  0  0  0
    2.8882   -6.5996    0.0000 O   0  0  0  0  0  0  0  0  0  0  0  0
    2.1721   -6.1913    0.0000 C   0  0  0  0  0  0  0  0  0  0  0  0
    2.1652   -5.3626    0.0000 O   0  0  0  0  0  0  0  0  0  0  0  0
    1.4576   -6.6038    0.0000 C   0  0  0  0  0  0  0  0  0  0  0  0
    1.4664   -7.4290    0.0000 C   0  0  0  0  0  0  0  0  0  0  0  0
    0.7477   -7.8487    0.0000 C   0  0  0  0  0  0  0  0  0  0  0  0
    0.0316   -7.4404    0.0000 C   0  0  0  0  0  0  0  0  0  0  0  0
    0.0340   -6.6122    0.0000 C   0  0  0  0  0  0  0  0  0  0  0  0
    0.7412   -6.1955    0.0000 C   0  0  0  0  0  0  0  0  0  0  0  0
   -0.6822   -6.2040    0.0000 O   0  0  0  0  0  0  0  0  0  0  0  0
   -1.4008   -6.6237    0.0000 C   0  0  0  0  0  0  0  0  0  0  0  0
   -1.3918   -7.4488    0.0000 O   0  0  0  0  0  0  0  0  0  0  0  0
   -2.1170   -6.2155    0.0000 C   0  0  0  0  0  0  0  0  0  0  0  0
   -2.1145   -5.3874    0.0000 C   0  0  0  0  0  0  0  0  0  0  0  0
   -2.8307   -4.9789    0.0000 C   0  0  0  0  0  0  0  0  0  0  0  0
   -3.5493   -5.3988    0.0000 C   0  0  0  0  0  0  0  0  0  0  0  0
   -3.5405   -6.2237    0.0000 C   0  0  0  0  0  0  0  0  0  0  0  0
   -2.8243   -6.6321    0.0000 C   0  0  0  0  0  0  0  0  0  0  0  0
   -4.2551   -6.6364    0.0000 O   0  0  0  0  0  0  0  0  0  0  0  0
   -4.2657   -4.9904    0.0000 O   0  0  0  0  0  0  0  0  0  0  0  0
   -2.8395   -4.1538    0.0000 O   0  0  0  0  0  0  0  0  0  0  0  0
   -0.6758   -7.8570    0.0000 O   0  0  0  0  0  0  0  0  0  0  0  0
    0.7567   -8.6737    0.0000 O   0  0  0  0  0  0  0  0  0  0  0  0
    4.3093   -7.4411    0.0000 O   0  0  0  0  0  0  0  0  0  0  0  0
    3.6002   -7.8614    0.0000 C   0  0  0  0  0  0  0  0  0  0  0  0
    2.8766   -7.4576    0.0000 O   0  0  0  0  0  0  0  0  0  0  0  0
    3.6053   -8.6865    0.0000 C   0  0  0  0  0  0  0  0  0  0  0  0
    4.3267   -9.0870    0.0000 C   0  0  0  0  0  0  0  0  0  0  0  0
    4.3360   -9.9192    0.0000 C   0  0  0  0  0  0  0  0  0  0  0  0
    3.6270  -10.3396    0.0000 C   0  0  0  0  0  0  0  0  0  0  0  0
    2.9084   -9.9279    0.0000 C   0  0  0  0  0  0  0  0  0  0  0  0
    2.8961   -9.1071    0.0000 C   0  0  0  0  0  0  0  0  0  0  0  0
    2.1993  -10.3483    0.0000 O   0  0  0  0  0  0  0  0  0  0  0  0
    2.2086  -11.1805    0.0000 C   0  0  0  0  0  0  0  0  0  0  0  0
    2.9302  -11.5809    0.0000 O   0  0  0  0  0  0  0  0  0  0  0  0
    1.4996  -11.6010    0.0000 C   0  0  0  0  0  0  0  0  0  0  0  0
    0.7811  -11.1893    0.0000 C   0  0  0  0  0  0  0  0  0  0  0  0
    0.0719  -11.6097    0.0000 C   0  0  0  0  0  0  0  0  0  0  0  0
    0.0812  -12.4418    0.0000 C   0  0  0  0  0  0  0  0  0  0  0  0
    0.8026  -12.8422    0.0000 C   0  0  0  0  0  0  0  0  0  0  0  0
    1.5118  -12.4218    0.0000 C   0  0  0  0  0  0  0  0  0  0  0  0
    0.8078  -13.6673    0.0000 O   0  0  0  0  0  0  0  0  0  0  0  0
   -0.6280  -12.8623    0.0000 O   0  0  0  0  0  0  0  0  0  0  0  0
   -0.6496  -11.2092    0.0000 O   0  0  0  0  0  0  0  0  0  0  0  0
    3.6391  -11.1605    0.0000 O   0  0  0  0  0  0  0  0  0  0  0  0
    5.0576  -10.3195    0.0000 O   0  0  0  0  0  0  0  0  0  0  0  0
    5.7453   -6.6215    0.0000 O   0  0  0  0  0  0  0  0  0  0  0  0
    6.4673   -6.2234    0.0000 C   0  0  0  0  0  0  0  0  0  0  0  0
    6.4860   -5.3950    0.0000 O   0  0  0  0  0  0  0  0  0  0  0  0
    7.1758   -6.6462    0.0000 C   0  0  0  0  0  0  0  0  0  0  0  0
    7.1552   -7.4712    0.0000 C   0  0  0  0  0  0  0  0  0  0  0  0
    7.8677   -7.9011    0.0000 C   0  0  0  0  0  0  0  0  0  0  0  0
    8.5897   -7.5031    0.0000 C   0  0  0  0  0  0  0  0  0  0  0  0
    8.5992   -6.6750    0.0000 C   0  0  0  0  0  0  0  0  0  0  0  0
    7.8978   -6.2482    0.0000 C   0  0  0  0  0  0  0  0  0  0  0  0
    9.3210   -6.2770    0.0000 O   0  0  0  0  0  0  0  0  0  0  0  0
   10.0336   -6.7070    0.0000 C   0  0  0  0  0  0  0  0  0  0  0  0
   10.0128   -7.5319    0.0000 O   0  0  0  0  0  0  0  0  0  0  0  0
   10.7555   -6.3091    0.0000 C   0  0  0  0  0  0  0  0  0  0  0  0
   10.7649   -5.4810    0.0000 C   0  0  0  0  0  0  0  0  0  0  0  0
   11.4870   -5.0829    0.0000 C   0  0  0  0  0  0  0  0  0  0  0  0
   12.1994   -5.5129    0.0000 C   0  0  0  0  0  0  0  0  0  0  0  0
   12.1788   -6.3378    0.0000 C   0  0  0  0  0  0  0  0  0  0  0  0
   11.4568   -6.7357    0.0000 C   0  0  0  0  0  0  0  0  0  0  0  0
   12.8873   -6.7606    0.0000 O   0  0  0  0  0  0  0  0  0  0  0  0
   12.9215   -5.1149    0.0000 O   0  0  0  0  0  0  0  0  0  0  0  0
   11.5076   -4.2580    0.0000 O   0  0  0  0  0  0  0  0  0  0  0  0
    9.2909   -7.9299    0.0000 O   0  0  0  0  0  0  0  0  0  0  0  0
    7.8469   -8.7259    0.0000 O   0  0  0  0  0  0  0  0  0  0  0  0
    2.8984   -4.9543    0.0000 C   0  0  0  0  0  0  0  0  0  0  0  0
    3.6123   -5.3670    0.0000 C   0  0  0  0  0  0  0  0  0  0  0  0
    3.6069   -6.1955    0.0000 C   0  0  0  0  0  0  0  0  0  0  0  0
    4.3165   -6.6123    0.0000 C   0  0  0  0  0  0  0  0  0  0  0  0
    5.0316   -6.2047    0.0000 C   0  0  0  0  0  0  0  0  0  0  0  0
    5.0369   -5.3762    0.0000 C   0  0  0  0  0  0  0  0  0  0  0  0
    4.3272   -4.9635    0.0000 O   0  0  0  0  0  0  0  0  0  0  0  0
    5.7560   -4.9728    0.0000 O   0  0  0  0  0  0  0  0  0  0  0  0
    5.7613   -4.1484    0.0000 C   0  0  0  0  0  0  0  0  0  0  0  0
    5.0476   -3.7274    0.0000 O   0  0  0  0  0  0  0  0  0  0  0  0
    6.4763   -3.7367    0.0000 C   0  0  0  0  0  0  0  0  0  0  0  0
    7.1861   -4.1576    0.0000 C   0  0  0  0  0  0  0  0  0  0  0  0
    7.9093   -3.7459    0.0000 C   0  0  0  0  0  0  0  0  0  0  0  0
    7.9146   -2.9215    0.0000 C   0  0  0  0  0  0  0  0  0  0  0  0
    7.1966   -2.5087    0.0000 C   0  0  0  0  0  0  0  0  0  0  0  0
    6.4817   -2.9122    0.0000 C   0  0  0  0  0  0  0  0  0  0  0  0
    7.2020   -1.6845    0.0000 O   0  0  0  0  0  0  0  0  0  0  0  0
    7.9253   -1.2727    0.0000 C   0  0  0  0  0  0  0  0  0  0  0  0
    8.6350   -1.6938    0.0000 O   0  0  0  0  0  0  0  0  0  0  0  0
    7.9307   -0.4483    0.0000 C   0  0  0  0  0  0  0  0  0  0  0  0
    7.2127   -0.0357    0.0000 C   0  0  0  0  0  0  0  0  0  0  0  0
    7.2180    0.7888    0.0000 C   0  0  0  0  0  0  0  0  0  0  0  0
    7.9413    1.2005    0.0000 C   0  0  0  0  0  0  0  0  0  0  0  0
    8.6509    0.7795    0.0000 C   0  0  0  0  0  0  0  0  0  0  0  0
    8.6455   -0.0449    0.0000 C   0  0  0  0  0  0  0  0  0  0  0  0
    9.3660    1.1913    0.0000 O   0  0  0  0  0  0  0  0  0  0  0  0
    7.9467    2.0249    0.0000 O   0  0  0  0  0  0  0  0  0  0  0  0
    6.5083    1.2098    0.0000 O   0  0  0  0  0  0  0  0  0  0  0  0
    8.6296   -2.5180    0.0000 O   0  0  0  0  0  0  0  0  0  0  0  0
    8.6189   -4.1669    0.0000 O   0  0  0  0  0  0  0  0  0  0  0  0
    2.1848   -3.7254    0.0000 C   0  0  0  0  0  0  0  0  0  0  0  0
    1.4696   -4.1438    0.0000 O   0  0  0  0  0  0  0  0  0  0  0  0
    2.1734   -2.9004    0.0000 C   0  0  0  0  0  0  0  0  0  0  0  0
    2.8866   -2.4855    0.0000 C   0  0  0  0  0  0  0  0  0  0  0  0
    2.8791   -1.6533    0.0000 C   0  0  0  0  0  0  0  0  0  0  0  0
    2.1616   -1.2472    0.0000 C   0  0  0  0  0  0  0  0  0  0  0  0
    1.4515   -1.6734    0.0000 C   0  0  0  0  0  0  0  0  0  0  0  0
    1.4558   -2.4943    0.0000 C   0  0  0  0  0  0  0  0  0  0  0  0
    0.7341   -1.2673    0.0000 O   0  0  0  0  0  0  0  0  0  0  0  0
    0.7267   -0.4351    0.0000 C   0  0  0  0  0  0  0  0  0  0  0  0
    1.4399   -0.0203    0.0000 O   0  0  0  0  0  0  0  0  0  0  0  0
    0.0092   -0.0290    0.0000 C   0  0  0  0  0  0  0  0  0  0  0  0
   -0.7008   -0.4552    0.0000 C   0  0  0  0  0  0  0  0  0  0  0  0
   -1.4184   -0.0492    0.0000 C   0  0  0  0  0  0  0  0  0  0  0  0
   -1.4258    0.7830    0.0000 C   0  0  0  0  0  0  0  0  0  0  0  0
   -0.7126    1.1980    0.0000 C   0  0  0  0  0  0  0  0  0  0  0  0
    0.0049    0.7918    0.0000 C   0  0  0  0  0  0  0  0  0  0  0  0
   -0.7241    2.0162    0.0000 O   0  0  0  0  0  0  0  0  0  0  0  0
   -2.1500    1.1932    0.0000 O   0  0  0  0  0  0  0  0  0  0  0  0
   -2.1317   -0.4641    0.0000 O   0  0  0  0  0  0  0  0  0  0  0  0
    2.1573   -0.4263    0.0000 O   0  0  0  0  0  0  0  0  0  0  0  0
    3.5923   -1.2384    0.0000 O   0  0  0  0  0  0  0  0  0  0  0  0
 51 52  2  0
 52 53  1  0
 53 54  2  0
 54 55  1  0
 55 56  2  0
 51 56  1  0
 55 57  1  0
 57 58  1  0
 58 59  2  0
 58 60  1  0
 60 61  2  0
 61 62  1  0
 62 63  2  0
 63 64  1  0
 64 65  2  0
 60 65  1  0
 64 66  1  0
 63 67  1  0
 62 68  1  0
 54 69  1  0
 53 70  1  0
 17 21  1  0
 16 22  1  0
 25 26  1  0
 26 27  2  0
 26 28  1  0
 28 29  2  0
 29 30  1  0
 30 31  2  0
 31 32  1  0
 32 33  2  0
 28 33  1  0
 32 34  1  0
 34 35  1  0
 35 36  2  0
 35 37  1  0
 37 38  2  0
 38 39  1  0
 39 40  2  0
 40 41  1  0
 41 42  2  0
 37 42  1  0
 41 43  1  0
 40 44  1  0
 39 45  1  0
 31 46  1  0
 30 47  1  0
  8 23  1  0
  7 24  1  0
  2  3  1  0
  1 71  1  0
 72 71  1  1
 72 73  1  0
 73 74  1  0
 74 75  1  0
 75 76  1  0
 76 77  1  0
 72 77  1  0
 76 78  1  1
 78 79  1  0
 79 80  2  0
 79 81  1  0
 81 82  2  0
 82 83  1  0
 83 84  2  0
 84 85  1  0
 85 86  2  0
 81 86  1  0
 85 87  1  0
 87 88  1  0
 88 89  2  0
 88 90  1  0
 90 91  2  0
 91 92  1  0
 92 93  2  0
 93 94  1  0
 94 95  2  0
 90 95  1  0
 94 96  1  0
 93 97  1  0
 92 98  1  0
 84 99  1  0
 83100  1  0
 75 48  1  6
 74 25  1  1
 73  2  1  6
  3  4  2  0
  3  5  1  0
  5  6  2  0
  6  7  1  0
  7  8  2  0
  8  9  1  0
  9 10  2  0
  5 10  1  0
  9 11  1  0
 11 12  1  0
 12 13  2  0
 12 14  1  0
 14 15  2  0
 15 16  1  0
 16 17  2  0
 17 18  1  0
 18 19  2  0
 14 19  1  0
 18 20  1  0
 48 49  1  0
 49 50  2  0
 49 51  1  0
101102  2  0
101103  1  0
103104  2  0
104105  1  0
105106  2  0
106107  1  0
107108  2  0
103108  1  0
107109  1  0
109110  1  0
110111  2  0
110112  1  0
112113  2  0
113114  1  0
114115  2  0
115116  1  0
116117  2  0
112117  1  0
116118  1  0
115119  1  0
114120  1  0
106121  1  0
105122  1  0
101  1  1  0
M  END
> <chembl_id>
CHEMBL506247

> <chembl_pref_name>
TANNIC ACID
