
     RDKit          2D

 26 28  0  0  0  0  0  0  0  0999 V2000
    6.0749    0.7145    0.0000 O   0  0  0  0  0  0  0  0  0  0  0  0
    6.0749   -0.7145    0.0000 O   0  0  0  0  0  0  0  0  0  0  0  0
    5.6624    0.0000    0.0000 C   0  0  0  0  0  0  0  0  0  0  0  0
    4.8374    0.0000    0.0000 C   0  0  0  0  0  0  0  0  0  0  0  0
    0.4547   -1.7625    0.0000 S   0  0  0  0  0  0  0  0  0  0  0  0
    0.4547   -0.1125    0.0000 N   0  0  0  0  0  0  0  0  0  0  0  0
   -0.9743    2.3625    0.0000 N   0  0  0  0  0  0  0  0  0  0  0  0
    1.1691   -0.5250    0.0000 C   0  0  0  0  0  0  0  0  0  0  0  0
   -0.2598   -0.5250    0.0000 C   0  0  0  0  0  0  0  0  0  0  0  0
    1.1691   -1.3500    0.0000 C   0  0  0  0  0  0  0  0  0  0  0  0
   -0.2598   -1.3500    0.0000 C   0  0  0  0  0  0  0  0  0  0  0  0
    0.4547    0.7125    0.0000 C   0  0  0  0  0  0  0  0  0  0  0  0
    1.8836   -0.1125    0.0000 C   0  0  0  0  0  0  0  0  0  0  0  0
   -0.9743   -0.1125    0.0000 C   0  0  0  0  0  0  0  0  0  0  0  0
    1.8836   -1.7625    0.0000 C   0  0  0  0  0  0  0  0  0  0  0  0
   -0.9743   -1.7625    0.0000 C   0  0  0  0  0  0  0  0  0  0  0  0
   -0.2598    1.1250    0.0000 C   0  0  0  0  0  0  0  0  0  0  0  0
    2.5981   -0.5250    0.0000 C   0  0  0  0  0  0  0  0  0  0  0  0
   -1.6887   -0.5250    0.0000 C   0  0  0  0  0  0  0  0  0  0  0  0
    2.5981   -1.3500    0.0000 C   0  0  0  0  0  0  0  0  0  0  0  0
   -1.6887   -1.3500    0.0000 C   0  0  0  0  0  0  0  0  0  0  0  0
   -0.2598    1.9500    0.0000 C   0  0  0  0  0  0  0  0  0  0  0  0
   -0.9743    0.7125    0.0000 C   0  0  0  0  0  0  0  0  0  0  0  0
   -1.6887    1.1250    0.0000 C   0  0  0  0  0  0  0  0  0  0  0  0
   -1.6887    1.9500    0.0000 C   0  0  0  0  0  0  0  0  0  0  0  0
   -0.9743    3.1875    0.0000 C   0  0  0  0  0  0  0  0  0  0  0  0
  1  3  2  0
  2  3  1  0
  3  4  1  0
  5 10  1  0
  5 11  1  0
  6  8  1  0
  6  9  1  0
  6 12  1  0
  7 22  1  0
  7 25  1  0
  7 26  1  0
  8 10  1  0
  8 13  2  0
  9 11  1  0
  9 14  2  0
 10 15  2  0
 11 16  2  0
 12 17  1  0
 13 18  1  0
 14 19  1  0
 15 20  1  0
 16 21  1  0
 17 22  1  0
 17 23  1  0
 18 20  2  0
 19 21  2  0
 23 24  1  0
 24 25  1  0
M  END
> <chembl_id>
CHEMBL1712842

> <chembl_pref_name>
MEPAZINE ACETATE
