
     RDKit          2D

 41 44  0  0  0  0  0  0  0  0999 V2000
    1.9523   -3.4055    0.0000 O   0  0  0  0  0  0  0  0  0  0  0  0
    2.2878   -2.6518    0.0000 C   0  0  0  0  0  0  0  0  0  0  0  0
    2.4274   -1.3242    0.0000 C   0  0  0  0  0  0  0  0  0  0  0  0
    1.8753   -1.9373    0.0000 C   0  0  0  0  0  0  0  0  0  0  0  0
    3.0948   -2.4803    0.0000 N   0  0  0  0  0  0  0  0  0  0  0  0
    3.1810   -1.6598    0.0000 N   0  0  0  0  0  0  0  0  0  0  0  0
    3.8955   -1.2473    0.0000 C   0  0  0  0  0  0  0  0  0  0  0  0
    4.6100   -0.0098    0.0000 C   0  0  0  0  0  0  0  0  0  0  0  0
    3.8955   -0.4223    0.0000 N   0  0  0  0  0  0  0  0  0  0  0  0
    4.6100   -1.6598    0.0000 C   0  0  0  0  0  0  0  0  0  0  0  0
    5.3244   -1.2473    0.0000 C   0  0  0  0  0  0  0  0  0  0  0  0
    5.3244   -0.4223    0.0000 C   0  0  0  0  0  0  0  0  0  0  0  0
    4.6100    0.8152    0.0000 N   0  0  0  0  0  0  0  0  0  0  0  0
    6.0389   -0.0098    0.0000 C   0  0  0  0  0  0  0  0  0  0  0  0
    6.0389    0.8152    0.0000 O   0  0  0  0  0  0  0  0  0  0  0  0
    6.7534   -0.4223    0.0000 N   0  0  0  0  0  0  0  0  0  0  0  0
    7.4678   -0.0098    0.0000 S   0  0  0  0  0  0  0  0  0  0  0  0
    7.0554    0.7047    0.0000 O   0  0  0  0  0  0  0  0  0  0  0  0
    7.8424    0.7253    0.0000 O   0  0  0  0  0  0  0  0  0  0  0  0
    8.2029   -0.3843    0.0000 C   0  0  0  0  0  0  0  0  0  0  0  0
    5.0224    2.0848    0.0000 C   0  0  0  0  0  0  0  0  0  0  0  0
    4.1974    2.0848    0.0000 C   0  0  0  0  0  0  0  0  0  0  0  0
    3.9425    1.3001    0.0000 C   0  0  0  0  0  0  0  0  0  0  0  0
    5.2774    1.3002    0.0000 C   0  0  0  0  0  0  0  0  0  0  0  0
    8.9380   -0.0098    0.0000 C   0  0  0  0  0  0  0  0  0  0  0  0
    8.3320   -1.1992    0.0000 C   0  0  0  0  0  0  0  0  0  0  0  0
    9.1468   -1.3282    0.0000 N   0  0  0  0  0  0  0  0  0  0  0  0
    9.5214   -0.5931    0.0000 N   0  0  0  0  0  0  0  0  0  0  0  0
    3.1338    1.4632    0.0000 C   0  0  0  0  0  0  0  0  0  0  0  0
    3.3841    0.6928    0.0000 C   0  0  0  0  0  0  0  0  0  0  0  0
    5.5073    2.7522    0.0000 C   0  0  0  0  0  0  0  0  0  0  0  0
    7.7486   -1.7825    0.0000 C   0  0  0  0  0  0  0  0  0  0  0  0
   10.3362   -0.4640    0.0000 C   0  0  0  0  0  0  0  0  0  0  0  0
    1.1273   -3.4055    0.0000 C   0  0  0  0  0  0  0  0  0  0  0  0
    0.7148   -4.1200    0.0000 C   0  0  0  0  0  0  0  0  0  0  0  0
    1.1273   -4.8345    0.0000 C   0  0  0  0  0  0  0  0  0  0  0  0
    1.9523   -4.8345    0.0000 F   0  0  0  0  0  0  0  0  0  0  0  0
    0.0003   -3.7075    0.0000 C   0  0  0  0  0  0  0  0  0  0  0  0
   -0.0554   -4.4156    0.0000 C   0  0  0  0  0  0  0  0  0  0  0  0
    1.6793   -5.4476    0.0000 F   0  0  0  0  0  0  0  0  0  0  0  0
    0.9138   -5.6314    0.0000 F   0  0  0  0  0  0  0  0  0  0  0  0
  1  2  1  0
  3  4  2  0
  5  6  1  0
  3  6  1  0
  4  2  1  0
  2  5  2  0
  6  7  1  0
  8  9  1  0
 10 11  2  0
 11 12  1  0
  8 12  2  0
  9  7  2  0
  7 10  1  0
  8 13  1  0
 12 14  1  0
 14 15  2  0
 14 16  1  0
 16 17  1  0
 17 18  2  0
 17 19  2  0
 17 20  1  0
 21 22  1  0
 22 23  1  0
 21 24  1  0
 23 13  1  0
 13 24  1  0
 26 27  2  0
 27 28  1  0
 25 28  1  0
 25 20  2  0
 20 26  1  0
 23 29  1  0
 23 30  1  0
 21 31  1  6
 26 32  1  0
 28 33  1  0
 34 35  1  0
 35 36  1  0
 36 37  1  0
  1 34  1  0
 35 38  1  0
 35 39  1  0
 36 40  1  0
 36 41  1  0
M  END
> <chembl_id>
CHEMBL4298128

> <chembl_pref_name>
ELEXACAFTOR
