
     RDKit          2D

 19 19  0  0  0  0  0  0  0  0999 V2000
    6.3757   -3.1607    0.0000 P   0  0  0  0  0  0  0  0  0  0  0  0
    4.9394   -5.6409    0.0000 C   0  0  0  0  0  0  0  0  0  0  0  0
    4.2254   -6.0542    0.0000 C   0  0  0  0  0  0  0  0  0  0  0  0
    5.6534   -6.0542    0.0000 C   0  0  0  0  0  0  0  0  0  0  0  0
    5.6617   -3.5741    0.0000 O   0  0  0  0  0  0  0  0  0  0  0  0
    7.0897   -3.5741    0.0000 O   0  0  0  0  0  0  0  0  0  0  0  0
    5.6534   -4.4008    0.0000 C   0  0  0  0  0  0  0  0  0  0  0  0
    4.9394   -4.8142    0.0000 O   0  0  0  0  0  0  0  0  0  0  0  0
    6.3757   -2.3340    0.0000 O   0  0  0  0  0  0  0  0  0  0  0  0
    7.0939   -2.7474    0.0000 O   0  0  0  0  0  0  0  0  0  0  0  0
    6.3757   -5.6409    0.0000 C   0  0  0  0  0  0  0  0  0  0  0  0
    3.5115   -5.6409    0.0000 C   0  0  0  0  0  0  0  0  0  0  0  0
    5.6534   -6.8809    0.0000 C   0  0  0  0  0  0  0  0  0  0  0  0
    4.2254   -6.8809    0.0000 C   0  0  0  0  0  0  0  0  0  0  0  0
    4.9394   -7.2943    0.0000 C   0  0  0  0  0  0  0  0  0  0  0  0
    7.0897   -6.0542    0.0000 C   0  0  0  0  0  0  0  0  0  0  0  0
    3.5115   -4.8142    0.0000 C   0  0  0  0  0  0  0  0  0  0  0  0
    2.7975   -6.0542    0.0000 C   0  0  0  0  0  0  0  0  0  0  0  0
    6.3757   -4.8142    0.0000 C   0  0  0  0  0  0  0  0  0  0  0  0
  2  8  1  0
  3  2  1  0
  4  2  2  0
  5  1  1  0
  6  1  2  0
  7  5  1  0
  8  7  1  0
  9  1  1  0
 10  1  1  0
 11  4  1  0
 12  3  1  0
 13  4  1  0
 14  3  2  0
 15 13  2  0
 16 11  1  0
 17 12  1  0
 18 12  1  0
 19 11  1  0
 14 15  1  0
M  END
> <chembl_id>
CHEMBL1201766

> <chembl_pref_name>
FOSPROPOFOL
