
     RDKit          2D

 22 22  0  0  0  0  0  0  0  0999 V2000
    0.5000   -0.5375    0.0000 C   0  0  0  0  0  0  0  0  0  0  0  0
   -0.6125    1.3958    0.0000 C   0  0  0  0  0  0  0  0  0  0  0  0
   -1.7458   -0.5167    0.0000 C   0  0  0  0  0  0  0  0  0  0  0  0
   -0.6125   -1.1792    0.0000 C   0  0  0  0  0  0  0  0  0  0  0  0
   -1.7458    0.7458    0.0000 C   0  0  0  0  0  0  0  0  0  0  0  0
    0.5000    0.7583    0.0000 C   0  0  0  0  0  0  0  0  0  0  0  0
    1.6125   -1.2000    0.0000 C   0  0  0  0  0  0  0  0  0  0  0  0
   -0.6000    2.6833    0.0000 C   0  0  0  0  0  0  0  0  0  0  0  0
   -2.8833   -1.1292    0.0000 N   0  0  0  0  0  0  0  0  0  0  0  0
   -2.9083   -2.4167    0.0000 C   0  0  0  0  0  0  0  0  0  0  0  0
    1.6125   -2.4792    0.0000 O   0  0  0  0  0  0  0  0  0  0  0  0
   -1.7250    3.3958    0.0000 O   0  0  0  0  0  0  0  0  0  0  0  0
   -2.8958    1.3625    0.0000 I   0  0  0  0  0  0  0  0  0  0  0  0
   -0.6125   -2.4542    0.0000 I   0  0  0  0  0  0  0  0  0  0  0  0
    1.6292    1.4333    0.0000 I   0  0  0  0  0  0  0  0  0  0  0  0
   -1.8625   -3.2750    0.0000 O   0  0  0  0  0  0  0  0  0  0  0  0
    2.7375   -0.5542    0.0000 N   0  0  0  0  0  0  0  0  0  0  0  0
    0.5292    3.1708    0.0000 O   0  0  0  0  0  0  0  0  0  0  0  0
    3.8542    2.6458    0.0000 O   0  0  0  0  0  0  0  0  0  0  0  0
   -3.9958   -2.9792    0.0000 C   0  0  0  0  0  0  0  0  0  0  0  0
    2.7375    0.7375    0.0000 C   0  0  0  0  0  0  0  0  0  0  0  0
    3.8542    1.3625    0.0000 C   0  0  0  0  0  0  0  0  0  0  0  0
  2  6  1  0
  3  4  2  0
  4  1  1  0
  5  2  2  0
  6  1  2  0
  7  1  1  0
  8  2  1  0
  9  3  1  0
 10  9  1  0
 11  7  2  0
 12  8  2  0
 13  5  1  0
 14  4  1  0
 15  6  1  0
 16 10  2  0
 17  7  1  0
 18  8  1  0
 19 22  1  0
 20 10  1  0
 21 17  1  0
 22 21  1  0
  3  5  1  0
M  END
> <chembl_id>
CHEMBL2107239

> <chembl_pref_name>
IOXITALAMIC ACID
