
     RDKit          2D

 28 31  0  0  0  0  0  0  0  0999 V2000
   -0.4208    0.3583    0.0000 C   0  0  0  0  0  0  0  0  0  0  0  0
   -0.4208    1.0625    0.0000 N   0  0  0  0  0  0  0  0  0  0  0  0
   -1.6458    1.0625    0.0000 C   0  0  0  0  0  0  0  0  0  0  0  0
   -1.0333    1.4250    0.0000 C   0  0  0  0  0  0  0  0  0  0  0  0
   -1.0333    0.0083    0.0000 N   0  0  0  0  0  0  0  0  0  0  0  0
   -1.6458    0.3583    0.0000 C   0  0  0  0  0  0  0  0  0  0  0  0
    0.1917   -0.0125    0.0000 N   0  0  0  0  0  0  0  0  0  0  0  0
    2.0167   -1.1167    0.0000 C   0  0  0  0  0  0  0  0  0  0  0  0
    1.4250   -0.7292    0.0000 N   0  0  0  0  0  0  0  0  0  0  0  0
   -2.2708    1.4250    0.0000 C   0  0  0  0  0  0  0  0  0  0  0  0
   -2.2708    0.0083    0.0000 C   0  0  0  0  0  0  0  0  0  0  0  0
   -2.8833    1.0625    0.0000 C   0  0  0  0  0  0  0  0  0  0  0  0
   -2.8833    0.3583    0.0000 C   0  0  0  0  0  0  0  0  0  0  0  0
    2.6750   -0.7667    0.0000 C   0  0  0  0  0  0  0  0  0  0  0  0
    0.1917   -0.7125    0.0000 C   0  0  0  0  0  0  0  0  0  0  0  0
    0.8042    0.3458    0.0000 C   0  0  0  0  0  0  0  0  0  0  0  0
    0.8042   -1.0917    0.0000 C   0  0  0  0  0  0  0  0  0  0  0  0
    1.4250   -0.0125    0.0000 C   0  0  0  0  0  0  0  0  0  0  0  0
    2.0167   -1.8042    0.0000 O   0  0  0  0  0  0  0  0  0  0  0  0
    3.2625   -1.1917    0.0000 O   0  0  0  0  0  0  0  0  0  0  0  0
   -1.0333    2.1333    0.0000 N   0  0  0  0  0  0  0  0  0  0  0  0
   -3.4958    1.4125    0.0000 O   0  0  0  0  0  0  0  0  0  0  0  0
   -3.4958   -0.0042    0.0000 O   0  0  0  0  0  0  0  0  0  0  0  0
    3.8292   -0.7667    0.0000 C   0  0  0  0  0  0  0  0  0  0  0  0
    2.9167   -0.0917    0.0000 C   0  0  0  0  0  0  0  0  0  0  0  0
   -4.1083    1.0625    0.0000 C   0  0  0  0  0  0  0  0  0  0  0  0
   -4.1083    0.3458    0.0000 C   0  0  0  0  0  0  0  0  0  0  0  0
    3.5792   -0.0917    0.0000 C   0  0  0  0  0  0  0  0  0  0  0  0
  2  1  1  0
  3  6  2  0
  4  2  2  0
  5  1  2  0
  6  5  1  0
  7  1  1  0
  8  9  1  0
  9 18  1  0
 10  3  1  0
 11  6  1  0
 12 13  1  0
 13 11  2  0
 14  8  1  0
 15  7  1  0
 16  7  1  0
 17 15  1  0
 18 16  1  0
 19  8  2  0
 20 14  1  0
 21  4  1  0
 22 12  1  0
 23 13  1  0
 24 20  1  0
 25 14  1  0
 26 22  1  0
 27 23  1  0
 28 25  1  0
  4  3  1  0
 17  9  1  0
 12 10  2  0
 28 24  1  0
M  END
> <chembl_id>
CHEMBL611

> <chembl_pref_name>
TERAZOSIN
