
     RDKit          2D

  7  6  0  0  0  0  0  0  0  0999 V2000
   -0.7208    0.2583    0.0000 C   0  0  0  0  0  0  0  0  0  0  0  0
   -2.1458    0.2583    0.0000 C   0  0  0  0  0  0  0  0  0  0  0  0
    0.7125    0.2583    0.0000 C   0  0  0  0  0  0  0  0  0  0  0  0
    0.7125    1.6833    0.0000 O   0  0  0  0  0  0  0  0  0  0  0  0
    0.7125   -1.2000    0.0000 C   0  0  0  0  0  0  0  0  0  0  0  0
    2.1292    0.2583    0.0000 C   0  0  0  0  0  0  0  0  0  0  0  0
    1.9417   -1.9000    0.0000 C   0  0  0  0  0  0  0  0  0  0  0  0
  2  1  3  0
  3  1  1  0
  4  3  1  0
  5  3  1  0
  6  3  1  0
  7  5  1  0
M  END
> <chembl_id>
CHEMBL501613

> <chembl_pref_name>
MEPARFYNOL
