
     RDKit          2D

 27 29  0  0  0  0  0  0  0  0999 V2000
   -2.7857    1.9159    0.0000 C   0  0  0  0  0  0  0  0  0  0  0  0
   -3.5002    1.5034    0.0000 C   0  0  0  0  0  0  0  0  0  0  0  0
   -3.5002    0.6784    0.0000 C   0  0  0  0  0  0  0  0  0  0  0  0
   -2.7857    0.2659    0.0000 C   0  0  0  0  0  0  0  0  0  0  0  0
   -2.0712    0.6784    0.0000 C   0  0  0  0  0  0  0  0  0  0  0  0
   -2.0712    1.5034    0.0000 C   0  0  0  0  0  0  0  0  0  0  0  0
   -1.3568    1.9159    0.0000 C   0  0  0  0  0  0  0  0  0  0  0  0
   -1.3568    0.2659    0.0000 C   0  0  0  0  0  0  0  0  0  0  0  0
   -0.6423    0.6784    0.0000 C   0  0  0  0  0  0  0  0  0  0  0  0
   -0.6423    1.5034    0.0000 C   0  0  0  0  0  0  0  0  0  0  0  0
    0.0721    1.9159    0.0000 C   0  0  0  0  0  0  0  0  0  0  0  0
    0.0721    0.2659    0.0000 C   0  0  0  0  0  0  0  0  0  0  0  0
    0.7866    0.6784    0.0000 C   0  0  0  0  0  0  0  0  0  0  0  0
    0.7866    1.5034    0.0000 C   0  0  0  0  0  0  0  0  0  0  0  0
    0.0721   -0.5591    0.0000 O   0  0  0  0  0  0  0  0  0  0  0  0
    0.7866   -0.9716    0.0000 C   0  0  0  0  0  0  0  0  0  0  0  0
    1.5011   -0.5591    0.0000 C   0  0  0  0  0  0  0  0  0  0  0  0
   -4.2146   -0.5591    0.0000 C   0  0  0  0  0  0  0  0  0  0  0  0
   -3.5002   -0.9716    0.0000 C   0  0  0  0  0  0  0  0  0  0  0  0
   -2.7857   -0.5591    0.0000 O   0  0  0  0  0  0  0  0  0  0  0  0
   -1.3610    2.7398    0.0000 O   0  0  0  0  0  0  0  0  0  0  0  0
   -1.3568   -0.5591    0.0000 O   0  0  0  0  0  0  0  0  0  0  0  0
    1.4785    1.9527    0.0000 C   0  0  0  0  0  0  0  0  0  0  0  0
    1.4743    2.7571    0.0000 O   0  0  0  0  0  0  0  0  0  0  0  0
    2.1930    1.5402    0.0000 O   0  0  0  0  0  0  0  0  0  0  0  0
    0.7866   -1.7966    0.0000 O   0  0  0  0  0  0  0  0  0  0  0  0
   -3.5434   -1.7955    0.0000 O   0  0  0  0  0  0  0  0  0  0  0  0
  1  2  2  0
  2  3  1  0
  3  4  2  0
  4  5  1  0
  5  6  2  0
  1  6  1  0
  8  9  1  0
  9 10  2  0
  7 10  1  0
  5  8  1  0
  7  6  1  0
 12 13  2  0
 13 14  1  0
 11 14  2  0
  9 12  1  0
 11 10  1  0
 15 16  1  0
 16 17  1  0
 12 15  1  0
 18 19  1  0
 19 20  1  0
 20  4  1  0
  7 21  2  0
  8 22  2  0
 14 23  1  0
 23 24  2  0
 23 25  1  0
 16 26  2  0
 19 27  2  0
M  END
> <chembl_id>
CHEMBL41286

> <chembl_pref_name>
DIACEREIN
