
     RDKit          2D

 18 15  0  0  0  0  0  0  0  0999 V2000
   12.6402   -2.9464    0.0000 O   0  0  0  0  0  0  0  0  0  0  0  0
   10.4466    0.3563    0.0000 C   0  0  0  0  0  0  0  0  0  0  0  0
    9.7332    0.7786    0.0000 N   0  0  0  0  0  0  0  0  0  0  0  0
    9.7332   -0.8909    0.0000 N   0  0  0  0  0  0  0  0  0  0  0  0
   11.1551    0.7640    0.0000 C   0  0  0  0  0  0  0  0  0  0  0  0
   10.4466   -0.4687    0.0000 C   0  0  0  0  0  0  0  0  0  0  0  0
   11.8734    0.3563    0.0000 N   0  0  0  0  0  0  0  0  0  0  0  0
    9.0149    0.3563    0.0000 C   0  0  0  0  0  0  0  0  0  0  0  0
    9.0149   -0.4687    0.0000 C   0  0  0  0  0  0  0  0  0  0  0  0
   12.5820    0.7640    0.0000 C   0  0  0  0  0  0  0  0  0  0  0  0
   12.5820    1.5939    0.0000 N   0  0  0  0  0  0  0  0  0  0  0  0
   11.1551    1.5939    0.0000 O   0  0  0  0  0  0  0  0  0  0  0  0
   11.1551   -0.8812    0.0000 N   0  0  0  0  0  0  0  0  0  0  0  0
    8.2918   -0.8667    0.0000 N   0  0  0  0  0  0  0  0  0  0  0  0
   13.2954    0.3563    0.0000 N   0  0  0  0  0  0  0  0  0  0  0  0
    8.2918    0.7543    0.0000 Cl  0  0  0  0  0  0  0  0  0  0  0  0
    9.8011   -1.7985    0.0000 Cl  0  0  0  0  0  0  0  0  0  0  0  0
   10.7475   -1.7985    0.0000 O   0  0  0  0  0  0  0  0  0  0  0  0
  3  2  1  0
  4  6  1  0
  5  2  1  0
  6  2  2  0
  7  5  1  0
  8  3  2  0
  9  4  2  0
 10  7  1  0
 11 10  2  0
 12  5  2  0
 13  6  1  0
 14  9  1  0
 15 10  1  0
 16  8  1  0
  8  9  1  0
M  END
> <chembl_id>
CHEMBL1398126

> <chembl_pref_name>
AMILORIDE HYDROCHLORIDE
