
     RDKit          2D

  4  3  0  0  0  0  0  0  0  0999 V2000
    5.6917   -4.3042    0.0000 O   0  0  0  0  0  0  0  0  0  0  0  0
    5.0792   -4.6792    0.0000 C   0  0  0  0  0  0  0  0  0  0  0  0
    4.4542   -4.3292    0.0000 C   0  0  0  0  0  0  0  0  0  0  0  0
    5.1000   -5.3792    0.0000 C   0  0  0  0  0  0  0  0  0  0  0  0
  2  1  1  0
  3  2  1  0
  4  2  1  0
M  END
> <chembl_id>
CHEMBL582

> <chembl_pref_name>
ISOPROPYL ALCOHOL
