
     RDKit          2D

 21 23  0  0  0  0  0  0  0  0999 V2000
   -0.3125    1.2583    0.0000 N   0  0  0  0  0  0  0  0  0  0  0  0
    0.2792    0.4125    0.0000 N   0  0  0  0  0  0  0  0  0  0  0  0
   -0.3125   -0.4292    0.0000 C   0  0  0  0  0  0  0  0  0  0  0  0
   -1.2958   -0.0917    0.0000 C   0  0  0  0  0  0  0  0  0  0  0  0
   -1.2958    0.9333    0.0000 C   0  0  0  0  0  0  0  0  0  0  0  0
    0.0375    2.2333    0.0000 C   0  0  0  0  0  0  0  0  0  0  0  0
    0.0375   -1.4042    0.0000 O   0  0  0  0  0  0  0  0  0  0  0  0
    1.4000   -2.5792    0.0000 C   0  0  0  0  0  0  0  0  0  0  0  0
    2.4000   -2.7667    0.0000 O   0  0  0  0  0  0  0  0  0  0  0  0
    1.0417   -1.6000    0.0000 C   0  0  0  0  0  0  0  0  0  0  0  0
   -2.1625   -0.6167    0.0000 C   0  0  0  0  0  0  0  0  0  0  0  0
    1.0417    2.4208    0.0000 C   0  0  0  0  0  0  0  0  0  0  0  0
    0.7167   -3.3375    0.0000 O   0  0  0  0  0  0  0  0  0  0  0  0
   -2.1625    1.4458    0.0000 C   0  0  0  0  0  0  0  0  0  0  0  0
    1.4000    3.4000    0.0000 C   0  0  0  0  0  0  0  0  0  0  0  0
    1.7167    1.6625    0.0000 C   0  0  0  0  0  0  0  0  0  0  0  0
   -3.0625   -0.0917    0.0000 C   0  0  0  0  0  0  0  0  0  0  0  0
   -3.0625    0.9333    0.0000 C   0  0  0  0  0  0  0  0  0  0  0  0
    2.7292    1.8583    0.0000 C   0  0  0  0  0  0  0  0  0  0  0  0
    2.4000    3.5958    0.0000 C   0  0  0  0  0  0  0  0  0  0  0  0
    3.0542    2.8333    0.0000 C   0  0  0  0  0  0  0  0  0  0  0  0
  2  1  1  0
  3  2  2  0
  4  5  2  0
  5  1  1  0
  6  1  1  0
  7  3  1  0
  8 10  1  0
  9  8  2  0
 10  7  1  0
 11  4  1  0
 12  6  1  0
 13  8  1  0
 14  5  1  0
 15 12  1  0
 16 12  2  0
 17 18  1  0
 18 14  2  0
 19 16  1  0
 20 15  2  0
 21 19  2  0
  4  3  1  0
 11 17  2  0
 20 21  1  0
M  END
> <chembl_id>
CHEMBL1089221

> <chembl_pref_name>
BENDAZAC
