
     RDKit          2D

 15 14  0  0  0  0  0  0  0  0999 V2000
    2.4042    0.1250    0.0000 Na  0  0  0  0  0 15  0  0  0  0  0  0
   -1.4542    0.5250    0.0000 C   0  0  0  0  0  0  0  0  0  0  0  0
   -0.8292    0.1750    0.0000 C   0  0  0  0  0  0  0  0  0  0  0  0
   -0.2292    0.5167    0.0000 N   0  0  0  0  0  0  0  0  0  0  0  0
    1.0083    0.5292    0.0000 C   0  0  0  0  0  0  0  0  0  0  0  0
   -2.0667    0.1667    0.0000 C   0  0  0  0  0  0  0  0  0  0  0  0
   -2.0667   -0.5375    0.0000 I   0  0  0  0  0  0  0  0  0  0  0  0
   -0.8292   -0.5417    0.0000 O   0  0  0  0  0  0  0  0  0  0  0  0
    1.6125    0.1583    0.0000 O   0  0  0  0  0  0  0  0  0  0  0  0
    1.0375    1.2333    0.0000 O   0  0  0  0  0  0  0  0  0  0  0  0
    0.3958    0.1833    0.0000 C   0  0  0  0  0  0  0  0  0  0  0  0
   -1.4542    1.2292    0.0000 C   0  0  0  0  0  0  0  0  0  0  0  0
   -2.6917    0.5167    0.0000 C   0  0  0  0  0  0  0  0  0  0  0  0
   -2.0667    1.5833    0.0000 C   0  0  0  0  0  0  0  0  0  0  0  0
   -2.6917    1.2333    0.0000 C   0  0  0  0  0  0  0  0  0  0  0  0
  3  2  1  0
  4  3  1  0
  5 11  1  0
  6  2  2  0
  7  6  1  0
  8  3  2  0
  9  5  1  0
 10  5  2  0
 11  4  1  0
 12  2  1  0
 13  6  1  0
 14 12  2  0
 15 14  1  0
 15 13  2  0
M  CHG  2   1   1   9  -1
M  ISO  1   7 123
M  END
> <chembl_id>
CHEMBL1200439

> <chembl_pref_name>
IODOHIPPURATE SODIUM I 123
