
     RDKit          2D

 27 28  0  0  0  0  0  0  0  0999 V2000
    7.5792   -3.0625    0.0000 Na  0  0  0  0  0 15  0  0  0  0  0  0
    4.2917   -2.9917    0.0000 N   0  0  0  0  0  0  0  0  0  0  0  0
    4.2917   -2.3125    0.0000 C   0  0  0  0  0  0  0  0  0  0  0  0
    3.6042   -2.9917    0.0000 C   0  0  0  0  0  0  0  0  0  0  0  0
    3.6042   -2.3125    0.0000 C   0  0  0  0  0  0  0  0  0  0  0  0
    5.4750   -2.9917    0.0000 C   0  0  0  0  0  0  0  0  0  0  0  0
    4.8792   -1.9625    0.0000 S   0  0  0  0  0  0  0  0  0  0  0  0
    5.4750   -2.3125    0.0000 C   0  0  0  0  0  0  0  0  0  0  0  0
    3.0167   -1.9667    0.0000 N   0  0  0  0  0  0  0  0  0  0  0  0
    2.4292   -2.3125    0.0000 C   0  0  0  0  0  0  0  0  0  0  0  0
    6.0375   -3.4250    0.0000 C   0  0  0  0  0  0  0  0  0  0  0  0
    1.8375   -1.9667    0.0000 C   0  0  0  0  0  0  0  0  0  0  0  0
    3.1167   -3.4792    0.0000 O   0  0  0  0  0  0  0  0  0  0  0  0
    2.4250   -2.9917    0.0000 O   0  0  0  0  0  0  0  0  0  0  0  0
    1.2417   -2.3125    0.0000 C   0  0  0  0  0  0  0  0  0  0  0  0
    6.7042   -3.0875    0.0000 O   0  0  0  0  0  0  0  0  0  0  0  0
    6.0375   -4.1250    0.0000 O   0  0  0  0  0  0  0  0  0  0  0  0
    0.6417   -1.9667    0.0000 C   0  0  0  0  0  0  0  0  0  0  0  0
    1.2417   -2.9917    0.0000 C   0  0  0  0  0  0  0  0  0  0  0  0
    1.8292   -1.2875    0.0000 N   0  0  0  0  0  0  0  0  0  0  0  0
    6.2667   -2.3125    0.0000 C   0  0  0  0  0  0  0  0  0  0  0  0
    5.4667   -1.6250    0.0000 C   0  0  0  0  0  0  0  0  0  0  0  0
    0.0542   -2.9917    0.0000 C   0  0  0  0  0  0  0  0  0  0  0  0
    0.0542   -2.3125    0.0000 C   0  0  0  0  0  0  0  0  0  0  0  0
    0.6417   -3.3375    0.0000 C   0  0  0  0  0  0  0  0  0  0  0  0
   -0.5375   -3.3375    0.0000 O   0  0  0  0  0  0  0  0  0  0  0  0
    4.2875   -1.6250    0.0000 H   0  0  0  0  0  0  0  0  0  0  0  0
  3  2  1  0
  4  2  1  0
  5  4  1  0
  6  2  1  0
  7  3  1  0
  8  6  1  0
  5  9  1  1
 10  9  1  0
  6 11  1  6
 12 10  1  0
 13  4  2  0
 14 10  2  0
 15 12  1  0
 16 11  1  0
 17 11  2  0
 18 15  2  0
 19 15  1  0
 12 20  1  1
 21  8  1  0
 22  8  1  0
 23 25  1  0
 24 18  1  0
 25 19  2  0
 26 23  1  0
  3 27  1  6
  7  8  1  0
  5  3  1  0
 23 24  2  0
M  CHG  2   1   1  16  -1
M  END
> <chembl_id>
CHEMBL2105950

> <chembl_pref_name>
AMOXICILLIN SODIUM
