
     RDKit          2D

 16 14  0  0  0  0  0  0  0  0999 V2000
   -0.2250   -1.5292    0.0000 Cl  0  0  0  0  0  0  0  0  0  0  0  0
    1.6667   -2.1042    0.0000 C   0  0  0  0  0  0  0  0  0  0  0  0
    1.6667   -1.3917    0.0000 O   0  0  0  0  0  0  0  0  0  0  0  0
   -0.1708   -3.1667    0.0000 O   0  0  0  0  0  0  0  0  0  0  0  0
   -0.1708   -2.4625    0.0000 C   0  0  0  0  0  0  0  0  0  0  0  0
    1.0542   -2.4625    0.0000 C   0  0  0  0  0  0  0  0  0  0  0  0
    0.4417   -2.1042    0.0000 C   0  0  0  0  0  0  0  0  0  0  0  0
    2.2792   -2.4625    0.0000 O   0  0  0  0  0  0  0  0  0  0  0  0
   -1.4000   -2.4542    0.0000 N   0  0  0  0  0  0  0  0  0  0  0  0
   -0.7875   -2.1042    0.0000 C   0  0  0  0  0  0  0  0  0  0  0  0
    2.8917   -2.1042    0.0000 C   0  0  0  0  0  0  0  0  0  0  0  0
    3.5042   -2.4625    0.0000 C   0  0  0  0  0  0  0  0  0  0  0  0
    2.2667   -3.1417    0.0000 C   0  0  0  0  0  0  0  0  0  0  0  0
    2.8667   -3.5125    0.0000 C   0  0  0  0  0  0  0  0  0  0  0  0
    3.4917   -3.1667    0.0000 C   0  0  0  0  0  0  0  0  0  0  0  0
    1.6417   -3.4917    0.0000 C   0  0  0  0  0  0  0  0  0  0  0  0
  3  2  2  0
  4  5  2  0
  5  7  1  0
  6  2  1  0
  7  6  1  0
  8  2  1  0
  9 10  1  0
 10  5  1  0
 11  8  1  0
 12 11  1  0
 13 14  1  0
 14 15  1  0
 15 12  1  0
 16 13  1  0
M  END
> <chembl_id>
CHEMBL1201785

> <chembl_pref_name>
HEXAMINOLEVULINATE HYDROCHLORIDE
