
     RDKit          2D

 31 34  0  0  0  0  0  0  0  0999 V2000
    2.1125   -2.1917    0.0000 N   0  0  0  0  0  0  0  0  0  0  0  0
    3.3542   -1.4750    0.0000 N   0  0  0  0  0  0  0  0  0  0  0  0
    1.5042   -2.5375    0.0000 C   0  0  0  0  0  0  0  0  0  0  0  0
    6.4375   -2.5250    0.0000 C   0  0  0  0  0  0  0  0  0  0  0  0
    5.8250   -2.1625    0.0000 C   0  0  0  0  0  0  0  0  0  0  0  0
    0.8875   -2.1875    0.0000 C   0  0  0  0  0  0  0  0  0  0  0  0
    2.1125   -1.4750    0.0000 C   0  0  0  0  0  0  0  0  0  0  0  0
    2.7500   -2.5500    0.0000 C   0  0  0  0  0  0  0  0  0  0  0  0
    1.5000   -3.2500    0.0000 C   0  0  0  0  0  0  0  0  0  0  0  0
    3.9625   -1.1042    0.0000 C   0  0  0  0  0  0  0  0  0  0  0  0
    5.8250   -1.4375    0.0000 C   0  0  0  0  0  0  0  0  0  0  0  0
    5.2125   -2.5250    0.0000 C   0  0  0  0  0  0  0  0  0  0  0  0
    0.2792   -2.5375    0.0000 C   0  0  0  0  0  0  0  0  0  0  0  0
    0.8875   -1.4542    0.0000 C   0  0  0  0  0  0  0  0  0  0  0  0
    3.3542   -2.1917    0.0000 C   0  0  0  0  0  0  0  0  0  0  0  0
    2.7500   -1.1125    0.0000 C   0  0  0  0  0  0  0  0  0  0  0  0
    4.6000   -1.4375    0.0000 C   0  0  0  0  0  0  0  0  0  0  0  0
   -0.3500   -1.4542    0.0000 C   0  0  0  0  0  0  0  0  0  0  0  0
   -0.3500   -2.1875    0.0000 C   0  0  0  0  0  0  0  0  0  0  0  0
    0.2792   -1.1000    0.0000 C   0  0  0  0  0  0  0  0  0  0  0  0
    5.2125   -1.0792    0.0000 C   0  0  0  0  0  0  0  0  0  0  0  0
    4.6000   -2.1625    0.0000 C   0  0  0  0  0  0  0  0  0  0  0  0
   -0.9625   -1.1042    0.0000 Cl  0  0  0  0  0  0  0  0  0  0  0  0
    6.0792   -3.1375    0.0000 C   0  0  0  0  0  0  0  0  0  0  0  0
    6.7875   -3.1375    0.0000 C   0  0  0  0  0  0  0  0  0  0  0  0
    7.0500   -2.1875    0.0000 C   0  0  0  0  0  0  0  0  0  0  0  0
    2.1125   -3.6042    0.0000 C   0  0  0  0  0  0  0  0  0  0  0  0
    0.8875   -3.6042    0.0000 C   0  0  0  0  0  0  0  0  0  0  0  0
    2.1125   -4.3167    0.0000 C   0  0  0  0  0  0  0  0  0  0  0  0
    0.8875   -4.3167    0.0000 C   0  0  0  0  0  0  0  0  0  0  0  0
    1.5000   -4.6750    0.0000 C   0  0  0  0  0  0  0  0  0  0  0  0
  2 15  1  0
  3  1  1  0
  4  5  1  0
  5 12  1  0
  6  3  1  0
  7  1  1  0
  8  1  1  0
  9  3  1  0
 10  2  1  0
 11 21  1  0
 12 22  2  0
 13  6  1  0
 14  6  2  0
 15  8  1  0
 16  7  1  0
 17 10  1  0
 18 20  2  0
 19 13  2  0
 20 14  1  0
 21 17  2  0
 22 17  1  0
 23 18  1  0
 24  4  1  0
 25  4  1  0
 26  4  1  0
 27  9  1  0
 28  9  2  0
 29 27  2  0
 30 28  1  0
 31 29  1  0
 16  2  1  0
 19 18  1  0
 30 31  2  0
 11  5  2  0
M  END
> <chembl_id>
CHEMBL1201271

> <chembl_pref_name>
BUCLIZINE
