
     RDKit          2D

 17 19  0  0  0  0  0  0  0  0999 V2000
    4.4792   -5.1917    0.0000 C   0  0  0  0  0  0  0  0  0  0  0  0
    4.4792   -4.4917    0.0000 C   0  0  0  0  0  0  0  0  0  0  0  0
    5.7042   -5.1875    0.0000 C   0  0  0  0  0  0  0  0  0  0  0  0
    5.0917   -5.5500    0.0000 C   0  0  0  0  0  0  0  0  0  0  0  0
    5.7042   -4.4875    0.0000 C   0  0  0  0  0  0  0  0  0  0  0  0
    3.8625   -4.1417    0.0000 C   0  0  0  0  0  0  0  0  0  0  0  0
    3.8667   -5.5542    0.0000 O   0  0  0  0  0  0  0  0  0  0  0  0
    6.3792   -5.4042    0.0000 O   0  0  0  0  0  0  0  0  0  0  0  0
    3.2500   -5.2042    0.0000 C   0  0  0  0  0  0  0  0  0  0  0  0
    5.0792   -4.1292    0.0000 C   0  0  0  0  0  0  0  0  0  0  0  0
    3.2417   -4.5000    0.0000 C   0  0  0  0  0  0  0  0  0  0  0  0
    6.3792   -4.2542    0.0000 C   0  0  0  0  0  0  0  0  0  0  0  0
    6.8000   -4.8375    0.0000 C   0  0  0  0  0  0  0  0  0  0  0  0
    2.6292   -5.5667    0.0000 O   0  0  0  0  0  0  0  0  0  0  0  0
    5.0917   -6.2625    0.0000 C   0  0  0  0  0  0  0  0  0  0  0  0
    3.8542   -3.4250    0.0000 C   0  0  0  0  0  0  0  0  0  0  0  0
    7.5167   -4.8292    0.0000 C   0  0  0  0  0  0  0  0  0  0  0  0
  2  1  1  0
  3  4  1  0
  4  1  2  0
  5  3  2  0
  6  2  1  0
  7  1  1  0
  8  3  1  0
  9  7  1  0
 10  2  2  0
 11  9  1  0
 12  5  1  0
 13  8  1  0
 14  9  2  0
 15  4  1  0
 16  6  1  0
 17 13  1  0
  5 10  1  0
 11  6  2  0
 13 12  2  0
M  END
> <chembl_id>
CHEMBL1475

> <chembl_pref_name>
TRIOXSALEN
