
     RDKit          2D

 40 41  0  0  0  0  0  0  0  0999 V2000
   -1.4458  -16.1500    0.0000 N   0  0  0  0  0  0  0  0  0  0  0  0
   -0.8333  -16.4917    0.0000 C   0  0  0  0  0  0  0  0  0  0  0  0
   -1.4458  -15.4417    0.0000 C   0  0  0  0  0  0  0  0  0  0  0  0
    0.3792  -17.2000    0.0000 N   0  0  0  0  0  0  0  0  0  0  0  0
    2.2125  -17.6042    0.0000 C   0  0  0  0  0  0  0  0  0  0  0  0
    2.8125  -17.2000    0.0000 S   0  0  0  0  0  0  0  0  0  0  0  0
   -0.8333  -17.2000    0.0000 C   0  0  0  0  0  0  0  0  0  0  0  0
   -0.2208  -16.1292    0.0000 C   0  0  0  0  0  0  0  0  0  0  0  0
    3.3625  -17.6042    0.0000 C   0  0  0  0  0  0  0  0  0  0  0  0
    2.4542  -18.2667    0.0000 C   0  0  0  0  0  0  0  0  0  0  0  0
   -2.0458  -15.0917    0.0000 O   0  0  0  0  0  0  0  0  0  0  0  0
   -2.0625  -16.4917    0.0000 C   0  0  0  0  0  0  0  0  0  0  0  0
    1.5792  -17.2250    0.0000 C   0  0  0  0  0  0  0  0  0  0  0  0
    3.1250  -18.2667    0.0000 C   0  0  0  0  0  0  0  0  0  0  0  0
    0.3792  -16.4792    0.0000 C   0  0  0  0  0  0  0  0  0  0  0  0
   -0.2208  -17.5500    0.0000 C   0  0  0  0  0  0  0  0  0  0  0  0
    0.9792  -17.5542    0.0000 C   0  0  0  0  0  0  0  0  0  0  0  0
   -0.8333  -15.7792    0.0000 C   0  0  0  0  0  0  0  0  0  0  0  0
   -0.8333  -15.0750    0.0000 C   0  0  0  0  0  0  0  0  0  0  0  0
   -0.2208  -15.4125    0.0000 O   0  0  0  0  0  0  0  0  0  0  0  0
   -2.6958  -16.1292    0.0000 C   0  0  0  0  0  0  0  0  0  0  0  0
   -2.0625  -17.2250    0.0000 C   0  0  0  0  0  0  0  0  0  0  0  0
    0.3792  -15.7625    0.0000 C   0  0  0  0  0  0  0  0  0  0  0  0
   -0.8333  -14.3792    0.0000 C   0  0  0  0  0  0  0  0  0  0  0  0
   -3.3208  -16.4917    0.0000 C   0  0  0  0  0  0  0  0  0  0  0  0
   -2.6958  -17.6000    0.0000 C   0  0  0  0  0  0  0  0  0  0  0  0
   -3.3208  -17.2250    0.0000 C   0  0  0  0  0  0  0  0  0  0  0  0
    5.1250  -16.3917    0.0000 C   0  0  0  0  0  0  0  0  0  0  0  0
    5.7417  -16.7500    0.0000 C   0  0  0  0  0  0  0  0  0  0  0  0
    4.5125  -16.7500    0.0000 C   0  0  0  0  0  0  0  0  0  0  0  0
    4.7667  -15.7792    0.0000 C   0  0  0  0  0  0  0  0  0  0  0  0
    4.5125  -17.4542    0.0000 C   0  0  0  0  0  0  0  0  0  0  0  0
    6.3542  -16.3917    0.0000 C   0  0  0  0  0  0  0  0  0  0  0  0
    4.0542  -15.7792    0.0000 O   0  0  0  0  0  0  0  0  0  0  0  0
    6.3542  -15.6875    0.0000 O   0  0  0  0  0  0  0  0  0  0  0  0
    5.1250  -17.8125    0.0000 O   0  0  0  0  0  0  0  0  0  0  0  0
    5.4750  -15.7792    0.0000 O   0  0  0  0  0  0  0  0  0  0  0  0
    5.1167  -15.1625    0.0000 O   0  0  0  0  0  0  0  0  0  0  0  0
    6.9667  -16.7500    0.0000 O   0  0  0  0  0  0  0  0  0  0  0  0
    3.9000  -17.8125    0.0000 O   0  0  0  0  0  0  0  0  0  0  0  0
  2  1  1  0
  3  1  1  0
  4 15  1  0
  5 13  1  0
  6  5  1  0
  7  2  1  0
  8  2  1  0
  9  6  1  0
 10  5  2  0
 11  3  2  0
 12  1  1  0
 13 17  1  0
 14 10  1  0
 15  8  1  0
 16  7  1  0
 17  4  1  0
 18  2  1  0
 19  3  1  0
 20 18  1  0
 21 12  1  0
 22 12  2  0
 23 20  1  0
 24 19  1  0
 25 21  2  0
 26 22  1  0
 27 26  2  0
  4 16  1  0
 27 25  1  0
  9 14  2  0
 29 28  1  0
 30 28  1  0
 31 28  1  0
 32 30  1  0
 33 29  1  0
 34 31  2  0
 35 33  2  0
 36 32  2  0
 37 28  1  0
 38 31  1  0
 39 33  1  0
 40 32  1  0
M  END
> <chembl_id>
CHEMBL1201163

> <chembl_pref_name>
SUFENTANIL CITRATE
