
     RDKit          2D

 15 16  0  0  1  0  0  0  0  0999 V2000
    2.0756   -2.6558    0.0000 O   0  0  0  0  0  0  0  0  0  0  0  0
    2.0756   -3.8722    0.0000 O   0  0  0  0  0  0  0  0  0  0  0  0
    3.4146   -1.7520    0.0000 N   0  0  0  0  0  0  0  0  0  0  0  0
    4.0730   -0.6026    0.0000 N   0  0  0  0  0  0  0  0  0  0  0  0
    4.7313   -1.7520    0.0000 N   0  0  0  0  0  0  0  0  0  0  0  0
    1.6627   -3.2696    0.0000 C   0  0  0  0  0  0  0  0  0  0  0  0
    2.7674   -2.8901    0.0000 C   0  0  0  0  0  0  0  0  0  0  0  0
    1.2386   -3.9948    0.0000 C   0  0  0  0  0  0  0  0  0  0  0  0
    1.2498   -2.5553    0.0000 C   0  0  0  0  0  0  0  0  0  0  0  0
    2.7674   -3.6378    0.0000 C   0  0  0  0  0  0  0  0  0  0  0  0
    0.4129   -3.9948    0.0000 C   0  0  0  0  0  0  0  0  0  0  0  0
    0.4129   -2.5553    0.0000 C   0  0  0  0  0  0  0  0  0  0  0  0
    3.4146   -2.5107    0.0000 C   0  0  0  0  0  0  0  0  0  0  0  0
    0.0000   -3.2696    0.0000 C   0  0  0  0  0  0  0  0  0  0  0  0
    4.0730   -1.3725    0.0000 C   0  0  0  0  0  0  0  0  0  0  0  0
  1  6  1  0
  1  7  1  0
  2  6  1  0
  2 10  1  0
  3 13  1  0
  3 15  1  0
  4 15  2  0
  5 15  1  0
  6  8  1  0
  6  9  1  0
  7 10  1  0
  7 13  1  0
  8 11  1  0
  9 12  1  0
 11 14  1  0
 12 14  1  0
M  END
> <chembl_id>
CHEMBL1037

> <chembl_pref_name>
GUANADREL
