
     RDKit          2D

 36 39  0  0  1  0  0  0  0  0999 V2000
    1.4042   -3.2250    0.0000 N   0  0  0  0  0  0  0  0  0  0  0  0
    0.6875   -3.2250    0.0000 C   0  0  0  0  0  0  0  0  0  0  0  0
    0.6875   -2.4625    0.0000 C   0  0  0  0  0  0  0  0  0  0  0  0
    1.4042   -2.4625    0.0000 C   0  0  0  0  0  0  0  0  0  0  0  0
    5.0375   -3.1625    0.0000 N   0  0  0  0  0  0  0  0  0  0  0  0
    4.4167   -3.5792    0.0000 C   0  0  0  0  0  0  0  0  0  0  0  0
    2.0167   -3.5542    0.0000 C   0  0  0  0  0  0  0  0  0  0  0  0
    5.6667   -2.1167    0.0000 S   0  0  0  0  0  0  0  0  0  0  0  0
    4.6750   -4.2375    0.0000 N   0  0  0  0  0  0  0  0  0  0  0  0
    5.3667   -4.2375    0.0000 N   0  0  0  0  0  0  0  0  0  0  0  0
    5.0375   -2.4750    0.0000 C   0  0  0  0  0  0  0  0  0  0  0  0
    5.6000   -3.5792    0.0000 N   0  0  0  0  0  0  0  0  0  0  0  0
    0.0542   -2.1167    0.0000 N   0  0  0  0  0  0  0  0  0  0  0  0
    2.0167   -2.1167    0.0000 S   0  0  0  0  0  0  0  0  0  0  0  0
    2.6292   -3.1792    0.0000 C   0  0  0  0  0  0  0  0  0  0  0  0
   -0.5708   -2.4792    0.0000 C   0  0  0  0  0  0  0  0  0  0  0  0
    2.0167   -4.2500    0.0000 C   0  0  0  0  0  0  0  0  0  0  0  0
    3.8167   -3.2250    0.0000 S   0  0  0  0  0  0  0  0  0  0  0  0
    2.6292   -2.4750    0.0000 C   0  0  0  0  0  0  0  0  0  0  0  0
   -1.1875   -2.1375    0.0000 C   0  0  0  0  0  0  0  0  0  0  0  0
    6.2667   -2.4542    0.0000 O   0  0  0  0  0  0  0  0  0  0  0  0
    0.1417   -3.6667    0.0000 O   0  0  0  0  0  0  0  0  0  0  0  0
    3.2125   -3.5542    0.0000 C   0  0  0  0  0  0  0  0  0  0  0  0
    6.0167   -1.5000    0.0000 O   0  0  0  0  0  0  0  0  0  0  0  0
    5.3125   -1.5000    0.0000 O   0  0  0  0  0  0  0  0  0  0  0  0
   -0.5708   -3.2250    0.0000 O   0  0  0  0  0  0  0  0  0  0  0  0
    2.6000   -4.6167    0.0000 O   0  0  0  0  0  0  0  0  0  0  0  0
    1.4167   -4.5917    0.0000 O   0  0  0  0  0  0  0  0  0  0  0  0
   -1.8000   -2.4792    0.0000 C   0  0  0  0  0  0  0  0  0  0  0  0
   -1.1875   -1.4292    0.0000 O   0  0  0  0  0  0  0  0  0  0  0  0
   -2.4083   -2.1542    0.0000 C   0  0  0  0  0  0  0  0  0  0  0  0
   -1.8000   -3.1792    0.0000 C   0  0  0  0  0  0  0  0  0  0  0  0
   -2.4083   -3.5417    0.0000 C   0  0  0  0  0  0  0  0  0  0  0  0
   -3.0083   -2.4792    0.0000 C   0  0  0  0  0  0  0  0  0  0  0  0
   -3.0083   -3.1792    0.0000 C   0  0  0  0  0  0  0  0  0  0  0  0
    1.3917   -1.7542    0.0000 H   0  0  0  0  0  0  0  0  0  0  0  0
  2  1  1  0
  3  2  1  0
  4  1  1  0
  5  6  1  0
  6 18  1  0
  7  1  1  0
  8 11  1  0
  9  6  2  0
 10  9  1  0
 11  5  1  0
 12  5  1  0
  3 13  1  1
 14  4  1  0
 15  7  2  0
 16 13  1  0
 17  7  1  0
 18 23  1  0
 19 15  1  0
 20 16  1  0
 21  8  1  0
 22  2  2  0
 23 15  1  0
 24  8  2  0
 25  8  2  0
 26 16  2  0
 27 17  1  0
 28 17  2  0
 29 20  1  0
 20 30  1  1
 31 29  1  0
 32 29  2  0
 33 32  1  0
 34 31  2  0
 35 33  2  0
  4 36  1  6
  4  3  1  0
 14 19  1  0
 12 10  2  0
 34 35  1  0
M  END
> <chembl_id>
CHEMBL1601

> <chembl_pref_name>
CEFONICID
