
     RDKit          2D

 30 33  0  0  1  0  0  0  0  0999 V2000
    2.7792   -6.6542    0.0000 C   0  0  0  0  0  0  0  0  0  0  0  0
    4.6250   -5.6042    0.0000 C   0  0  0  0  0  0  0  0  0  0  0  0
    2.7792   -7.3625    0.0000 C   0  0  0  0  0  0  0  0  0  0  0  0
    5.3000   -5.3917    0.0000 C   0  0  0  0  0  0  0  0  0  0  0  0
    3.3917   -6.3000    0.0000 C   0  0  0  0  0  0  0  0  0  0  0  0
    4.0042   -6.6542    0.0000 C   0  0  0  0  0  0  0  0  0  0  0  0
    4.6167   -6.3042    0.0000 C   0  0  0  0  0  0  0  0  0  0  0  0
    2.1667   -6.3000    0.0000 C   0  0  0  0  0  0  0  0  0  0  0  0
    4.0125   -5.2417    0.0000 C   0  0  0  0  0  0  0  0  0  0  0  0
    3.3917   -5.5917    0.0000 C   0  0  0  0  0  0  0  0  0  0  0  0
    4.0000   -7.3667    0.0000 C   0  0  0  0  0  0  0  0  0  0  0  0
    2.1667   -7.7167    0.0000 C   0  0  0  0  0  0  0  0  0  0  0  0
    3.3875   -7.7167    0.0000 C   0  0  0  0  0  0  0  0  0  0  0  0
    5.2917   -4.6792    0.0000 C   0  0  0  0  0  0  0  0  0  0  0  0
    5.7042   -5.9667    0.0000 C   0  0  0  0  0  0  0  0  0  0  0  0
    5.2875   -6.5375    0.0000 C   0  0  0  0  0  0  0  0  0  0  0  0
    1.5542   -6.6542    0.0000 C   0  0  0  0  0  0  0  0  0  0  0  0
    1.5542   -7.3625    0.0000 C   0  0  0  0  0  0  0  0  0  0  0  0
    4.6792   -4.3292    0.0000 O   0  0  0  0  0  0  0  0  0  0  0  0
    0.9417   -7.7125    0.0000 O   0  0  0  0  0  0  0  0  0  0  0  0
    5.9125   -5.0292    0.0000 O   0  0  0  0  0  0  0  0  0  0  0  0
    2.7750   -5.9417    0.0000 C   0  0  0  0  0  0  0  0  0  0  0  0
    4.6167   -4.8917    0.0000 C   0  0  0  0  0  0  0  0  0  0  0  0
    2.7792   -5.2292    0.0000 O   0  0  0  0  0  0  0  0  0  0  0  0
    5.9042   -4.3167    0.0000 C   0  0  0  0  0  0  0  0  0  0  0  0
    6.5167   -4.6667    0.0000 O   0  0  0  0  0  0  0  0  0  0  0  0
    3.3792   -8.4250    0.0000 C   0  0  0  0  0  0  0  0  0  0  0  0
    4.0000   -5.9500    0.0000 H   0  0  0  0  0  0  0  0  0  0  0  0
    3.3875   -7.0042    0.0000 H   0  0  0  0  0  0  0  0  0  0  0  0
    4.6125   -7.0167    0.0000 H   0  0  0  0  0  0  0  0  0  0  0  0
  2  9  1  0
  3  1  1  0
  4  2  1  0
  5  1  1  0
  6  5  1  0
  7  6  1  0
  8  1  1  0
  9 10  1  0
 10  5  1  0
 11  6  1  0
 12  3  2  0
 13  3  1  0
 14  4  1  0
 15 16  1  0
 16  7  1  0
 17  8  2  0
 18 17  1  0
 19 14  2  0
 20 18  2  0
  4 21  1  6
  1 22  1  1
  2 23  1  1
 10 24  1  1
 25 14  1  0
 26 25  1  0
 13 27  1  6
  6 28  1  1
  5 29  1  6
  7 30  1  6
 11 13  1  0
 18 12  1  0
  7  2  1  0
  4 15  1  0
M  END
> <chembl_id>
CHEMBL650

> <chembl_pref_name>
METHYLPREDNISOLONE
