
     RDKit          2D

 37 42  0  0  0  0  0  0  0  0999 V2000
   -5.8631   -0.7284    0.0000 C   0  0  0  0  0  0  0  0  0  0  0  0
   -6.6837   -0.8146    0.0000 C   0  0  0  0  0  0  0  0  0  0  0  0
   -6.8552   -1.6216    0.0000 N   0  0  0  0  0  0  0  0  0  0  0  0
   -6.1407   -2.0341    0.0000 N   0  0  0  0  0  0  0  0  0  0  0  0
   -5.5277   -1.4821    0.0000 C   0  0  0  0  0  0  0  0  0  0  0  0
   -5.1731    1.2918    0.0000 N   0  0  0  0  0  0  0  0  0  0  0  0
   -5.7862    0.7397    0.0000 C   0  0  0  0  0  0  0  0  0  0  0  0
   -5.4507   -0.0139    0.0000 C   0  0  0  0  0  0  0  0  0  0  0  0
   -4.6302    0.0723    0.0000 C   0  0  0  0  0  0  0  0  0  0  0  0
   -4.4587    0.8792    0.0000 C   0  0  0  0  0  0  0  0  0  0  0  0
   -4.4586    2.5292    0.0000 C   0  0  0  0  0  0  0  0  0  0  0  0
   -5.1731    2.1168    0.0000 N   0  0  0  0  0  0  0  0  0  0  0  0
   -3.7442    1.2917    0.0000 C   0  0  0  0  0  0  0  0  0  0  0  0
   -3.7442    2.1166    0.0000 N   0  0  0  0  0  0  0  0  0  0  0  0
   -6.0976   -2.8580    0.0000 C   0  0  0  0  0  0  0  0  0  0  0  0
   -3.0768    0.8068    0.0000 N   0  0  0  0  0  0  0  0  0  0  0  0
   -2.3623    1.2193    0.0000 C   0  0  0  0  0  0  0  0  0  0  0  0
   -3.0768   -0.0182    0.0000 C   0  0  0  0  0  0  0  0  0  0  0  0
   -2.3623   -0.4307    0.0000 C   0  0  0  0  0  0  0  0  0  0  0  0
   -1.6478   -0.0182    0.0000 N   0  0  0  0  0  0  0  0  0  0  0  0
   -1.6478    0.8068    0.0000 C   0  0  0  0  0  0  0  0  0  0  0  0
   -0.9333   -0.4307    0.0000 C   0  0  0  0  0  0  0  0  0  0  0  0
   -0.2189   -0.0182    0.0000 N   0  0  0  0  0  0  0  0  0  0  0  0
   -0.9333   -1.2557    0.0000 N   0  0  0  0  0  0  0  0  0  0  0  0
   -0.2189   -1.6682    0.0000 C   0  0  0  0  0  0  0  0  0  0  0  0
    0.4956   -1.2557    0.0000 C   0  0  0  0  0  0  0  0  0  0  0  0
    0.4956   -0.4307    0.0000 C   0  0  0  0  0  0  0  0  0  0  0  0
    1.2101   -1.6682    0.0000 C   0  0  0  0  0  0  0  0  0  0  0  0
    1.9245   -1.2557    0.0000 C   0  0  0  0  0  0  0  0  0  0  0  0
    0.9144   -2.4022    0.0000 C   0  0  0  0  0  0  0  0  0  0  0  0
    1.7102   -2.2366    0.0000 N   0  0  0  0  0  0  0  0  0  0  0  0
    2.6389   -0.0182    0.0000 C   0  0  0  0  0  0  0  0  0  0  0  0
    1.9245   -0.4307    0.0000 C   0  0  0  0  0  0  0  0  0  0  0  0
    2.6389   -1.6682    0.0000 C   0  0  0  0  0  0  0  0  0  0  0  0
    3.3535   -1.2557    0.0000 C   0  0  0  0  0  0  0  0  0  0  0  0
    3.3534   -0.4307    0.0000 C   0  0  0  0  0  0  0  0  0  0  0  0
    4.0679   -0.0182    0.0000 F   0  0  0  0  0  0  0  0  0  0  0  0
  1  2  1  0
  2  3  2  0
  3  4  1  0
  4  5  1  0
  1  5  2  0
  6  7  1  0
  7  8  2  0
  8  9  1  0
  9 10  2  0
 11 12  2  0
 13 14  2  0
 11 14  1  0
 10 13  1  0
 12  6  1  0
  6 10  1  0
  8  1  1  0
  4 15  1  0
 13 16  1  0
 18 19  1  0
 19 20  1  0
 20 21  1  0
 17 21  1  0
 17 16  1  0
 16 18  1  0
 20 22  1  0
 24 25  1  0
 25 26  2  0
 26 27  1  0
 23 27  2  0
 23 22  1  0
 22 24  2  0
 26 28  1  0
 28 29  1  0
 28 30  1  1
 28 31  1  6
 32 33  1  0
 34 35  2  0
 35 36  1  0
 32 36  2  0
 33 29  2  0
 29 34  1  0
 36 37  1  0
M  END
> <chembl_id>
CHEMBL4204794

> <chembl_pref_name>
AVAPRITINIB
