
     RDKit          2D

 50 48  0  0  0  0  0  0  0  0999 V2000
    8.3417   -0.0542    0.0000 C   0  0  0  0  0  0  0  0  0  0  0  0
    8.3417    0.6583    0.0000 O   0  0  0  0  0  0  0  0  0  0  0  0
    5.7917   -0.4125    0.0000 C   0  0  0  0  0  0  0  0  0  0  0  0
    4.5583   -0.4167    0.0000 C   0  0  0  0  0  0  0  0  0  0  0  0
    3.8500   -0.4167    0.0000 C   0  0  0  0  0  0  0  0  0  0  0  0
    2.6167   -0.4250    0.0000 C   0  0  0  0  0  0  0  0  0  0  0  0
    1.9083   -0.4292    0.0000 C   0  0  0  0  0  0  0  0  0  0  0  0
    0.6750   -0.4292    0.0000 C   0  0  0  0  0  0  0  0  0  0  0  0
   -0.0333   -0.4292    0.0000 C   0  0  0  0  0  0  0  0  0  0  0  0
   -1.2667   -0.4375    0.0000 C   0  0  0  0  0  0  0  0  0  0  0  0
   -1.9750   -0.4417    0.0000 C   0  0  0  0  0  0  0  0  0  0  0  0
   -3.2000   -0.4500    0.0000 C   0  0  0  0  0  0  0  0  0  0  0  0
   -3.9083   -0.4417    0.0000 C   0  0  0  0  0  0  0  0  0  0  0  0
    6.5042   -0.4042    0.0000 C   0  0  0  0  0  0  0  0  0  0  0  0
    8.9542   -0.4042    0.0000 O   0  0  0  0  0  0  0  0  0  0  0  0
   -0.6500   -0.0792    0.0000 C   0  0  0  0  0  0  0  0  0  0  0  0
    3.2333   -0.0667    0.0000 C   0  0  0  0  0  0  0  0  0  0  0  0
   -2.5917   -0.0917    0.0000 C   0  0  0  0  0  0  0  0  0  0  0  0
    1.2917   -0.0792    0.0000 C   0  0  0  0  0  0  0  0  0  0  0  0
    5.1750   -0.0625    0.0000 C   0  0  0  0  0  0  0  0  0  0  0  0
    7.7292   -0.4042    0.0000 C   0  0  0  0  0  0  0  0  0  0  0  0
    7.1125   -0.0542    0.0000 C   0  0  0  0  0  0  0  0  0  0  0  0
   -4.5292   -0.0917    0.0000 C   0  0  0  0  0  0  0  0  0  0  0  0
    9.5667   -0.0542    0.0000 C   0  0  0  0  0  0  0  0  0  0  0  0
   -5.1417   -0.4458    0.0000 C   0  0  0  0  0  0  0  0  0  0  0  0
   10.1792   -0.4042    0.0000 C   0  0  0  0  0  0  0  0  0  0  0  0
    8.3417    1.9208    0.0000 C   0  0  0  0  0  0  0  0  0  0  0  0
    8.3417    2.6333    0.0000 O   0  0  0  0  0  0  0  0  0  0  0  0
    3.2375    1.9333    0.0000 C   0  0  0  0  0  0  0  0  0  0  0  0
    2.0042    1.9375    0.0000 C   0  0  0  0  0  0  0  0  0  0  0  0
    1.2917    1.9458    0.0000 C   0  0  0  0  0  0  0  0  0  0  0  0
    0.0625    1.9458    0.0000 C   0  0  0  0  0  0  0  0  0  0  0  0
   -0.6458    1.9458    0.0000 C   0  0  0  0  0  0  0  0  0  0  0  0
   -1.8833    1.9542    0.0000 C   0  0  0  0  0  0  0  0  0  0  0  0
    5.1792    1.9250    0.0000 C   0  0  0  0  0  0  0  0  0  0  0  0
    3.9417    1.9333    0.0000 C   0  0  0  0  0  0  0  0  0  0  0  0
   -2.5875    1.9583    0.0000 C   0  0  0  0  0  0  0  0  0  0  0  0
    5.8875    1.9208    0.0000 C   0  0  0  0  0  0  0  0  0  0  0  0
    8.9542    1.5708    0.0000 O   0  0  0  0  0  0  0  0  0  0  0  0
    4.5625    1.5750    0.0000 C   0  0  0  0  0  0  0  0  0  0  0  0
    2.6167    1.5833    0.0000 C   0  0  0  0  0  0  0  0  0  0  0  0
   -1.2625    1.5958    0.0000 C   0  0  0  0  0  0  0  0  0  0  0  0
    0.6792    1.5958    0.0000 C   0  0  0  0  0  0  0  0  0  0  0  0
    7.7292    1.5708    0.0000 C   0  0  0  0  0  0  0  0  0  0  0  0
   -3.2083    1.6083    0.0000 C   0  0  0  0  0  0  0  0  0  0  0  0
    6.5000    1.5708    0.0000 C   0  0  0  0  0  0  0  0  0  0  0  0
    9.5667    1.9208    0.0000 C   0  0  0  0  0  0  0  0  0  0  0  0
    7.1125    1.9208    0.0000 C   0  0  0  0  0  0  0  0  0  0  0  0
   -3.8167    1.9667    0.0000 C   0  0  0  0  0  0  0  0  0  0  0  0
   10.1792    1.5708    0.0000 C   0  0  0  0  0  0  0  0  0  0  0  0
  2  1  2  0
  3 14  2  0
  4 20  1  0
  5  4  2  0
  6 17  1  0
  7  6  2  0
  8 19  1  0
  9  8  2  0
 10 16  1  0
 11 10  2  0
 12 18  1  0
 13 12  2  0
 14 22  1  0
 15  1  1  0
 16  9  1  0
 17  5  1  0
 18 11  1  0
 19  7  1  0
 20  3  1  0
 21  1  1  0
 22 21  1  0
 23 13  1  0
 24 15  1  0
 25 23  1  0
 26 24  1  0
 28 27  2  0
 29 36  2  0
 30 41  1  0
 31 30  2  0
 32 43  1  0
 33 32  2  0
 34 42  1  0
 35 38  2  0
 36 40  1  0
 37 34  2  0
 38 46  1  0
 39 27  1  0
 40 35  1  0
 41 29  1  0
 42 33  1  0
 43 31  1  0
 44 27  1  0
 45 37  1  0
 46 48  1  0
 47 39  1  0
 48 44  1  0
 49 45  1  0
 50 47  1  0
M  END
> <chembl_id>
CHEMBL1200711

> <chembl_pref_name>
OMEGA-3-ACID ETHYL ESTERS
