
  SciTegic12091219242D

 25 29  0  0  0  0            999 V2000
    1.0312    0.7942    0.0000 N   0  0
    0.9439   -0.0956    0.0000 C   0  0  2  0  0  0
    0.2744    1.2475    0.0000 C   0  0
    1.7215   -0.3992    0.0000 C   0  0  1  0  0  0
   -0.6279   -0.1746    0.0000 C   0  0
    1.0646   -0.8982    0.0000 C   0  0
    1.8047    1.1103    0.0000 C   0  0  1  0  0  0
   -0.3451    1.0811    0.0000 C   0  0  2  0  0  0
   -1.2517   -1.0437    0.0000 C   0  0
    2.1207    0.3410    0.0000 C   0  0
    2.1249    1.6634    0.0000 C   0  0
   -0.7984   -0.5946    0.0000 C   0  0
   -0.9481    0.3576    0.0000 C   0  0
   -0.3036    0.0998    0.0000 C   0  0
    0.4366    1.8630    0.0000 O   0  0
    0.1954   -0.1455    0.0000 C   0  0
   -1.5178    0.4948    0.0000 C   0  0
   -1.9294   -0.3660    0.0000 C   0  0
   -0.3119   -0.9897    0.0000 C   0  0
   -0.5988    0.7734    0.0000 C   0  0
   -0.7942    1.5344    0.0000 N   0  0
   -1.6300   -1.5594    0.0000 O   0  0
    0.4034   -0.6612    0.0000 H   0  0
    1.9253   -1.0437    0.0000 H   0  0
    2.5374    2.3778    0.0000 N   0  0
  2  1  1  0
  3  1  1  0
  4  2  1  0
  5  8  1  0
  6  2  1  0
  7  1  1  0
  8  3  1  0
  9 12  1  0
 10  7  1  0
  7 11  1  6
 12  5  1  0
 13  5  1  0
 14  5  1  0
 15  3  2  0
 16 14  1  0
 17 13  1  0
 18  9  1  0
 19  9  1  0
 20 17  1  0
  8 21  1  6
 22  9  1  0
  2 23  1  1
  4 24  1  1
  6  4  1  0
 10  4  1  0
 17 18  1  0
 16 19  1  0
 20 16  1  0
 11 25  3  0
M  END
> <chembl_id>
CHEMBL385517

> <chembl_pref_name>
SAXAGLIPTIN ANHYDROUS
