
     RDKit          2D

 23 23  0  0  0  0  0  0  0  0999 V2000
    2.6500   -7.3667    0.0000 Cl  0  0  0  0  0  0  0  0  0  0  0  0
    8.0667   -5.1875    0.0000 C   0  0  0  0  0  0  0  0  0  0  0  0
    7.7292   -4.5917    0.0000 C   0  0  0  0  0  0  0  0  0  0  0  0
    7.3875   -5.1917    0.0000 C   0  0  0  0  0  0  0  0  0  0  0  0
    0.2417   -6.5667    0.0000 N   0  0  0  0  0  0  0  0  0  0  0  0
    2.6292   -6.5750    0.0000 O   0  0  0  0  0  0  0  0  0  0  0  0
    1.4292   -6.5750    0.0000 C   0  0  0  0  0  0  0  0  0  0  0  0
    3.2167   -6.2375    0.0000 C   0  0  0  0  0  0  0  0  0  0  0  0
    0.8417   -6.2292    0.0000 C   0  0  0  0  0  0  0  0  0  0  0  0
    2.0292   -6.2292    0.0000 C   0  0  0  0  0  0  0  0  0  0  0  0
    4.4167   -5.5417    0.0000 C   0  0  0  0  0  0  0  0  0  0  0  0
    3.8167   -6.5792    0.0000 C   0  0  0  0  0  0  0  0  0  0  0  0
    3.2167   -5.5417    0.0000 C   0  0  0  0  0  0  0  0  0  0  0  0
    3.8167   -5.2000    0.0000 C   0  0  0  0  0  0  0  0  0  0  0  0
    4.4167   -6.2375    0.0000 C   0  0  0  0  0  0  0  0  0  0  0  0
    1.4292   -7.2625    0.0000 O   0  0  0  0  0  0  0  0  0  0  0  0
    6.7917   -5.5375    0.0000 C   0  0  0  0  0  0  0  0  0  0  0  0
    6.2000   -5.1917    0.0000 O   0  0  0  0  0  0  0  0  0  0  0  0
   -0.3500   -6.2250    0.0000 C   0  0  0  0  0  0  0  0  0  0  0  0
    5.0042   -5.2000    0.0000 C   0  0  0  0  0  0  0  0  0  0  0  0
    5.6042   -5.5375    0.0000 C   0  0  0  0  0  0  0  0  0  0  0  0
   -0.3458   -5.5375    0.0000 C   0  0  0  0  0  0  0  0  0  0  0  0
   -0.9458   -6.5667    0.0000 C   0  0  0  0  0  0  0  0  0  0  0  0
  3  2  1  0
  4  2  1  0
  5  9  1  0
  6  8  1  0
  7 10  1  0
  8 13  2  0
  9  7  1  0
 10  6  1  0
 11 20  1  0
 12 15  2  0
 13 14  1  0
 14 11  2  0
 15 11  1  0
  7 16  1  1
 17  4  1  0
 18 17  1  0
 19  5  1  0
 20 21  1  0
 21 18  1  0
 22 19  1  0
 23 19  1  0
  3  4  1  0
  8 12  1  0
M  END
> <chembl_id>
CHEMBL1200837

> <chembl_pref_name>
LEVOBETAXOLOL HYDROCHLORIDE
