
     RDKit          2D

 12 12  0  0  0  0  0  0  0  0999 V2000
    2.5917    0.9875    0.0000 S   0  0  0  0  0  0  0  0  0  0  0  0
    2.5917    0.0458    0.0000 C   0  0  0  0  0  0  0  0  0  0  0  0
    3.4167   -0.4292    0.0000 C   0  0  0  0  0  0  0  0  0  0  0  0
    1.5667    0.9875    0.0000 O   0  0  0  0  0  0  0  0  0  0  0  0
    3.5292    0.9875    0.0000 O   0  0  0  0  0  0  0  0  0  0  0  0
    2.5917    1.9708    0.0000 O   0  0  0  0  0  0  0  0  0  0  0  0
    1.7750   -0.4292    0.0000 C   0  0  0  0  0  0  0  0  0  0  0  0
    1.7750   -1.4000    0.0000 C   0  0  0  0  0  0  0  0  0  0  0  0
    3.4167   -1.4000    0.0000 C   0  0  0  0  0  0  0  0  0  0  0  0
    2.5917   -1.8792    0.0000 C   0  0  0  0  0  0  0  0  0  0  0  0
    0.9250    0.0458    0.0000 O   0  0  0  0  0  0  0  0  0  0  0  0
    4.2375   -1.8792    0.0000 O   0  0  0  0  0  0  0  0  0  0  0  0
  2  1  1  0
  3  2  1  0
  4  1  1  0
  5  1  2  0
  6  1  2  0
  7  2  2  0
  8  7  1  0
  9  3  2  0
 10  8  2  0
 11  7  1  0
 12  9  1  0
  9 10  1  0
M  END
> <chembl_id>
CHEMBL1232131

> <chembl_pref_name>
DOBESILIC ACID
