
     RDKit          2D

 23 26  0  0  0  0  0  0  0  0999 V2000
    0.2976    0.3835    0.0000 N   0  0  0  0  0  0  0  0  0  0  0  0
   -0.2936   -0.0143    0.0000 C   0  0  0  0  0  0  0  0  0  0  0  0
   -0.5650   -0.9027    0.0000 C   0  0  0  0  0  0  0  0  0  0  0  0
   -1.3852   -0.7823    0.0000 C   0  0  0  0  0  0  0  0  0  0  0  0
   -0.8184   -0.4233    0.0000 C   0  0  0  0  0  0  0  0  0  0  0  0
   -0.5190    0.5011    0.0000 C   0  0  0  0  0  0  0  0  0  0  0  0
   -0.8690    0.5089    0.0000 C   0  0  0  0  0  0  0  0  0  0  0  0
   -1.0365    1.2152    0.0000 C   0  0  0  0  0  0  0  0  0  0  0  0
    0.5287   -0.0809    0.0000 H   0  0  0  0  0  0  0  0  0  0  0  0
    0.2026    0.9010    0.0000 H   0  0  0  0  0  0  0  0  0  0  0  0
    1.1019    0.5673    0.0000 C   0  0  0  0  0  0  0  0  0  0  0  0
   -2.1922   -0.9539    0.0000 O   0  0  0  0  0  0  0  0  0  0  0  0
   -2.7443   -0.3408    0.0000 C   0  0  0  0  0  0  0  0  0  0  0  0
   -3.5512   -0.5123    0.0000 C   0  0  0  0  0  0  0  0  0  0  0  0
   -2.4893    0.4439    0.0000 O   0  0  0  0  0  0  0  0  0  0  0  0
   -3.8868   -1.2660    0.0000 C   0  0  0  0  0  0  0  0  0  0  0  0
   -4.7073   -1.1797    0.0000 N   0  0  0  0  0  0  0  0  0  0  0  0
   -4.8788   -0.3728    0.0000 C   0  0  0  0  0  0  0  0  0  0  0  0
   -4.1643    0.0397    0.0000 C   0  0  0  0  0  0  0  0  0  0  0  0
   -5.5933    0.0397    0.0000 C   0  0  0  0  0  0  0  0  0  0  0  0
   -5.5933    0.8647    0.0000 C   0  0  0  0  0  0  0  0  0  0  0  0
   -4.8788    1.2772    0.0000 C   0  0  0  0  0  0  0  0  0  0  0  0
   -4.1643    0.8647    0.0000 C   0  0  0  0  0  0  0  0  0  0  0  0
  1  2  1  0
  2  3  1  0
  3  4  1  0
  4  5  1  0
  5  6  1  0
  6  1  1  0
  7  8  1  0
  8  6  1  0
  7  2  1  0
  2  9  1  1
  6 10  1  6
  1 11  1  0
  4 12  1  1
 12 13  1  0
 13 14  1  0
 13 15  2  0
 14 16  2  0
 14 19  1  0
 16 17  1  0
 17 18  1  0
 18 20  1  0
 19 18  2  0
 23 19  1  0
 20 21  2  0
 21 22  1  0
 22 23  2  0
M  END
> <chembl_id>
CHEMBL56564

> <chembl_pref_name>
TROPISETRON
