
     RDKit          2D

 38 39  0  0  0  0  0  0  0  0999 V2000
   26.4063  -25.1562    0.0000 S   0  0  0  0  0  0  0  0  0  0  0  0
   27.2313  -25.1562    0.0000 O   0  0  0  0  0  0  0  0  0  0  0  0
   25.5813  -25.1562    0.0000 O   0  0  0  0  0  0  0  0  0  0  0  0
   26.4063  -24.3312    0.0000 O   0  0  0  0  0  0  0  0  0  0  0  0
   26.4063  -25.9812    0.0000 O   0  0  0  0  0  0  0  0  0  0  0  0
   18.9250  -24.7417    0.0000 C   0  0  0  0  0  0  0  0  0  0  0  0
   23.2083  -24.7458    0.0000 C   0  0  0  0  0  0  0  0  0  0  0  0
   21.7750  -24.7458    0.0000 C   0  0  0  0  0  0  0  0  0  0  0  0
   20.3500  -24.7417    0.0000 C   0  0  0  0  0  0  0  0  0  0  0  0
   23.9208  -24.3333    0.0000 C   0  0  0  0  0  0  0  0  0  0  0  0
   18.9250  -25.5708    0.0000 C   0  0  0  0  0  0  0  0  0  0  0  0
   21.0625  -24.3292    0.0000 C   0  0  0  0  0  0  0  0  0  0  0  0
   24.6333  -24.7583    0.0000 C   0  0  0  0  0  0  0  0  0  0  0  0
   18.2000  -25.9833    0.0000 C   0  0  0  0  0  0  0  0  0  0  0  0
   18.2000  -24.3208    0.0000 O   0  0  0  0  0  0  0  0  0  0  0  0
   23.2000  -25.5708    0.0000 O   0  0  0  0  0  0  0  0  0  0  0  0
   19.6375  -24.3292    0.0000 O   0  0  0  0  0  0  0  0  0  0  0  0
   22.4958  -24.3333    0.0000 O   0  0  0  0  0  0  0  0  0  0  0  0
   24.6250  -25.5833    0.0000 C   0  0  0  0  0  0  0  0  0  0  0  0
   17.4875  -25.5708    0.0000 C   0  0  0  0  0  0  0  0  0  0  0  0
   17.4875  -24.7417    0.0000 C   0  0  0  0  0  0  0  0  0  0  0  0
   23.9083  -25.9917    0.0000 C   0  0  0  0  0  0  0  0  0  0  0  0
   21.7750  -25.5708    0.0000 C   0  0  0  0  0  0  0  0  0  0  0  0
   20.3500  -25.5667    0.0000 C   0  0  0  0  0  0  0  0  0  0  0  0
   21.0583  -25.9792    0.0000 C   0  0  0  0  0  0  0  0  0  0  0  0
   25.3500  -24.3542    0.0000 N   0  0  0  0  0  0  0  0  0  0  0  0
   23.9250  -23.5167    0.0000 O   0  0  0  0  0  0  0  0  0  0  0  0
   18.9125  -26.3958    0.0000 O   0  0  0  0  0  0  0  0  0  0  0  0
   21.0625  -23.5042    0.0000 O   0  0  0  0  0  0  0  0  0  0  0  0
   18.2000  -26.8083    0.0000 O   0  0  0  0  0  0  0  0  0  0  0  0
   22.4875  -25.9833    0.0000 N   0  0  0  0  0  0  0  0  0  0  0  0
   19.6333  -25.9708    0.0000 N   0  0  0  0  0  0  0  0  0  0  0  0
   25.3375  -26.0042    0.0000 O   0  0  0  0  0  0  0  0  0  0  0  0
   16.7750  -25.9833    0.0000 O   0  0  0  0  0  0  0  0  0  0  0  0
   16.7750  -24.3292    0.0000 C   0  0  0  0  0  0  0  0  0  0  0  0
   23.9000  -26.8167    0.0000 C   0  0  0  0  0  0  0  0  0  0  0  0
   16.7750  -23.5042    0.0000 N   0  0  0  0  0  0  0  0  0  0  0  0
   23.1833  -27.2208    0.0000 O   0  0  0  0  0  0  0  0  0  0  0  0
  2  1  2  0
  3  1  2  0
  4  1  1  0
  5  1  1  0
  7 18  1  6
  8 12  1  0
  9 17  1  1
 10  7  1  0
 11  6  1  0
 12  9  1  0
 13 10  1  0
 14 11  1  0
 15  6  1  0
 16  7  1  0
  6 17  1  6
  8 18  1  1
 19 22  1  0
 20 21  1  0
 21 15  1  0
 22 16  1  0
 23 25  1  0
 24  9  1  0
 25 24  1  0
 13 26  1  1
 10 27  1  6
 11 28  1  6
 12 29  1  6
 14 30  1  1
 23 31  1  6
 24 32  1  6
 19 33  1  6
 20 34  1  6
 21 35  1  1
 22 36  1  1
 37 35  1  0
 38 36  1  0
 20 14  1  0
 23  8  1  0
 19 13  1  0
M  END
> <chembl_id>
CHEMBL1446

> <chembl_pref_name>
KANAMYCIN SULFATE
