
     RDKit          2D

 26 28  0  0  0  0  0  0  0  0999 V2000
   -1.9220   -0.7194    0.0000 C   0  0  0  0  0  0  0  0  0  0  0  0
   -2.6365   -0.3069    0.0000 C   0  0  0  0  0  0  0  0  0  0  0  0
   -3.3509   -0.7194    0.0000 C   0  0  0  0  0  0  0  0  0  0  0  0
   -3.3509   -1.5444    0.0000 N   0  0  0  0  0  0  0  0  0  0  0  0
   -2.6365   -1.9569    0.0000 C   0  0  0  0  0  0  0  0  0  0  0  0
   -1.9220   -1.5444    0.0000 C   0  0  0  0  0  0  0  0  0  0  0  0
   -4.0654   -1.9569    0.0000 C   0  0  0  0  0  0  0  0  0  0  0  0
   -4.0654   -2.7819    0.0000 C   0  0  0  0  0  0  0  0  0  0  0  0
   -4.7799   -3.1944    0.0000 C   0  0  0  0  0  0  0  0  0  0  0  0
   -5.4944   -2.7819    0.0000 N   0  0  0  0  0  0  0  0  0  0  0  0
   -5.4944   -1.9569    0.0000 C   0  0  0  0  0  0  0  0  0  0  0  0
   -4.7799   -1.5444    0.0000 N   0  0  0  0  0  0  0  0  0  0  0  0
   -4.7799   -0.7194    0.0000 C   0  0  0  0  0  0  0  0  0  0  0  0
   -5.4944   -0.3069    0.0000 C   0  0  0  0  0  0  0  0  0  0  0  0
   -5.4944    0.5181    0.0000 C   0  0  0  0  0  0  0  0  0  0  0  0
   -6.2088   -0.7194    0.0000 C   0  0  0  0  0  0  0  0  0  0  0  0
   -6.9233   -0.3069    0.0000 C   0  0  0  0  0  0  0  0  0  0  0  0
   -6.9233    0.5181    0.0000 C   0  0  0  0  0  0  0  0  0  0  0  0
   -6.2088    0.9306    0.0000 C   0  0  0  0  0  0  0  0  0  0  0  0
   -4.7799    0.9306    0.0000 C   0  0  0  0  0  0  0  0  0  0  0  0
   -7.6378   -0.7194    0.0000 F   0  0  0  0  0  0  0  0  0  0  0  0
   -6.2088   -3.1944    0.0000 C   0  0  0  0  0  0  0  0  0  0  0  0
   -6.2088   -1.5444    0.0000 O   0  0  0  0  0  0  0  0  0  0  0  0
   -4.7799   -4.0194    0.0000 O   0  0  0  0  0  0  0  0  0  0  0  0
   -2.6365    0.5181    0.0000 N   0  0  0  0  0  0  0  0  0  0  0  0
   -4.0654    1.3431    0.0000 N   0  0  0  0  0  0  0  0  0  0  0  0
  1  2  1  0
  1  6  1  0
  2  3  1  0
  3  4  1  0
  4  5  1  0
  5  6  1  0
  4  7  1  0
  7  8  2  0
  7 12  1  0
  8  9  1  0
  9 10  1  0
 10 11  1  0
 11 12  1  0
 12 13  1  0
 13 14  1  0
 15 14  2  0
 14 16  1  0
 15 19  1  0
 16 17  2  0
 17 18  1  0
 18 19  2  0
 15 20  1  0
 17 21  1  0
 10 22  1  0
 11 23  2  0
  9 24  2  0
  2 25  1  6
 20 26  3  0
M  END
> <chembl_id>
CHEMBL1650443

> <chembl_pref_name>
TRELAGLIPTIN
