
     RDKit          2D

 15 15  0  0  0  0  0  0  0  0999 V2000
   -2.3333    0.1458    0.0000 N   0  0  0  0  0  0  0  0  0  0  0  0
   -1.3500   -0.3292    0.0000 C   0  0  0  0  0  0  0  0  0  0  0  0
   -3.2333   -0.4542    0.0000 C   0  0  0  0  0  0  0  0  0  0  0  0
   -1.2833   -1.4042    0.0000 N   0  0  0  0  0  0  0  0  0  0  0  0
   -4.2083    0.0083    0.0000 N   0  0  0  0  0  0  0  0  0  0  0  0
   -0.4500    0.2708    0.0000 N   0  0  0  0  0  0  0  0  0  0  0  0
   -3.1583   -1.5375    0.0000 N   0  0  0  0  0  0  0  0  0  0  0  0
    0.5125   -0.2000    0.0000 C   0  0  0  0  0  0  0  0  0  0  0  0
    2.3792   -0.0667    0.0000 C   0  0  0  0  0  0  0  0  0  0  0  0
    1.4125    0.3958    0.0000 C   0  0  0  0  0  0  0  0  0  0  0  0
    2.4542   -1.1500    0.0000 C   0  0  0  0  0  0  0  0  0  0  0  0
    3.2875    0.5208    0.0000 C   0  0  0  0  0  0  0  0  0  0  0  0
    4.2667    0.0458    0.0000 C   0  0  0  0  0  0  0  0  0  0  0  0
    3.4375   -1.6375    0.0000 C   0  0  0  0  0  0  0  0  0  0  0  0
    4.3417   -1.0167    0.0000 C   0  0  0  0  0  0  0  0  0  0  0  0
  2  1  1  0
  3  1  1  0
  4  2  2  0
  5  3  2  0
  6  2  1  0
  7  3  1  0
  8  6  1  0
  9 10  1  0
 10  8  1  0
 11  9  2  0
 12  9  1  0
 13 12  2  0
 14 11  1  0
 15 14  2  0
 13 15  1  0
M  END
> <chembl_id>
CHEMBL170988

> <chembl_pref_name>
PHENFORMIN
