
     RDKit          2D

 14 11  0  0  0  0  0  0  0  0999 V2000
   12.2866   -0.2357    0.0000 O   0  0  0  0  0  0  0  0  0  0  0  0
   10.2054    2.2048    0.0000 C   0  0  0  0  0  0  0  0  0  0  0  0
   10.9370    2.6193    0.0000 C   0  0  0  0  0  0  0  0  0  0  0  0
   10.1908    1.3854    0.0000 C   0  0  0  0  0  0  0  0  0  0  0  0
    9.4885    2.6340    0.0000 C   0  0  0  0  0  0  0  0  0  0  0  0
    9.4739    0.9806    0.0000 C   0  0  0  0  0  0  0  0  0  0  0  0
   11.6539    2.2048    0.0000 O   0  0  0  0  0  0  0  0  0  0  0  0
   10.9516    3.4484    0.0000 O   0  0  0  0  0  0  0  0  0  0  0  0
    8.7666    1.4000    0.0000 C   0  0  0  0  0  0  0  0  0  0  0  0
   10.9077    0.9514    0.0000 O   0  0  0  0  0  0  0  0  0  0  0  0
    8.7716    2.2243    0.0000 C   0  0  0  0  0  0  0  0  0  0  0  0
    8.0351    0.9806    0.0000 N   0  0  0  0  0  0  0  0  0  0  0  0
   12.4440    2.1950    0.0000 Na  0  0  0  0  0 15  0  0  0  0  0  0
   12.6196    0.9026    0.0000 O   0  0  0  0  0  0  0  0  0  0  0  0
  3  2  1  0
  4  2  2  0
  5  2  1  0
  6  4  1  0
  7  3  1  0
  8  3  2  0
  9 11  1  0
 10  4  1  0
 11  5  2  0
 12  9  1  0
  6  9  2  0
M  CHG  2   7  -1  13   1
M  END
> <chembl_id>
CHEMBL2096646

> <chembl_pref_name>
AMINOSALICYLATE SODIUM
