
     RDKit          2D

 19 18  0  0  0  0  0  0  0  0999 V2000
    2.0250   -1.4667    0.0000 C   0  0  0  0  0  0  0  0  0  0  0  0
    3.2500   -1.4667    0.0000 N   0  0  0  0  0  0  0  0  0  0  0  0
    1.4125   -1.8292    0.0000 C   0  0  0  0  0  0  0  0  0  0  0  0
    2.6375   -1.8250    0.0000 C   0  0  0  0  0  0  0  0  0  0  0  0
    1.4125   -2.5417    0.0000 C   0  0  0  0  0  0  0  0  0  0  0  0
    0.8000   -1.4750    0.0000 C   0  0  0  0  0  0  0  0  0  0  0  0
    2.6417   -2.5292    0.0000 C   0  0  0  0  0  0  0  0  0  0  0  0
    0.1875   -1.8292    0.0000 C   0  0  0  0  0  0  0  0  0  0  0  0
    0.8000   -2.8917    0.0000 C   0  0  0  0  0  0  0  0  0  0  0  0
    0.1875   -2.5417    0.0000 C   0  0  0  0  0  0  0  0  0  0  0  0
    1.4417   -4.0250    0.0000 C   0  0  0  0  0  0  0  0  0  0  0  0
    2.6667   -4.0250    0.0000 C   0  0  0  0  0  0  0  0  0  0  0  0
    0.8292   -4.3792    0.0000 C   0  0  0  0  0  0  0  0  0  0  0  0
    2.0542   -4.3792    0.0000 C   0  0  0  0  0  0  0  0  0  0  0  0
    2.6667   -3.3167    0.0000 O   0  0  0  0  0  0  0  0  0  0  0  0
    0.8292   -5.0875    0.0000 O   0  0  0  0  0  0  0  0  0  0  0  0
    2.0542   -5.0875    0.0000 N   0  0  0  0  0  0  0  0  0  0  0  0
    3.2792   -4.3792    0.0000 O   0  0  0  0  0  0  0  0  0  0  0  0
    0.2167   -4.0250    0.0000 O   0  0  0  0  0  0  0  0  0  0  0  0
  2  4  1  0
  3  1  1  0
  4  1  1  0
  5  3  1  0
  6  3  2  0
  7  4  1  0
  8  6  1  0
  9  5  2  0
 10  8  2  0
  9 10  1  0
 12 14  1  0
 13 11  1  0
 14 11  1  0
 15 12  2  0
 16 13  2  0
 17 14  1  0
 18 12  1  0
 19 13  1  0
M  END
> <chembl_id>
CHEMBL1200377

> <chembl_pref_name>
AMPHETAMINE ASPARTATE
