
     RDKit          2D

 13 14  0  0  0  0  0  0  0  0999 V2000
    4.6792   -4.4042    0.0000 C   0  0  0  0  0  0  0  0  0  0  0  0
    5.2875   -4.0500    0.0000 C   0  0  0  0  0  0  0  0  0  0  0  0
    4.6792   -5.1042    0.0000 C   0  0  0  0  0  0  0  0  0  0  0  0
    5.9042   -4.4042    0.0000 C   0  0  0  0  0  0  0  0  0  0  0  0
    5.3000   -5.4667    0.0000 C   0  0  0  0  0  0  0  0  0  0  0  0
    5.9042   -5.1042    0.0000 C   0  0  0  0  0  0  0  0  0  0  0  0
    4.0667   -4.0542    0.0000 N   0  0  0  0  0  0  0  0  0  0  0  0
    5.2792   -3.3375    0.0000 O   0  0  0  0  0  0  0  0  0  0  0  0
    6.5167   -4.0417    0.0000 Cl  0  0  0  0  0  0  0  0  0  0  0  0
    5.3000   -6.1792    0.0000 Cl  0  0  0  0  0  0  0  0  0  0  0  0
    4.0625   -5.4667    0.0000 C   0  0  0  0  0  0  0  0  0  0  0  0
    3.4500   -4.4125    0.0000 C   0  0  0  0  0  0  0  0  0  0  0  0
    3.4417   -5.1250    0.0000 C   0  0  0  0  0  0  0  0  0  0  0  0
  2  1  1  0
  3  1  1  0
  4  2  2  0
  5  3  1  0
  6  5  2  0
  7  1  2  0
  8  2  1  0
  9  4  1  0
 10  5  1  0
 11  3  2  0
 12  7  1  0
 13 12  2  0
 13 11  1  0
  6  4  1  0
M  END
> <chembl_id>
CHEMBL1200596

> <chembl_pref_name>
CHLOROXINE
