
     RDKit          2D

 33 32  0  0  0  0  0  0  0  0999 V2000
    8.2000   -7.5542    0.0000 C   0  0  0  0  0  0  0  0  0  0  0  0
    7.5792   -7.9042    0.0000 C   0  0  0  0  0  0  0  0  0  0  0  0
    8.8125   -7.9167    0.0000 C   0  0  0  0  0  0  0  0  0  0  0  0
    6.9667   -7.5500    0.0000 C   0  0  0  0  0  0  0  0  0  0  0  0
    8.2042   -6.8500    0.0000 O   0  0  0  0  0  0  0  0  0  0  0  0
    7.5750   -8.6167    0.0000 O   0  0  0  0  0  0  0  0  0  0  0  0
   10.0292   -7.9042    0.0000 N   0  0  0  0  0  0  0  0  0  0  0  0
    6.9750   -6.8417    0.0000 O   0  0  0  0  0  0  0  0  0  0  0  0
    8.8125   -8.6167    0.0000 O   0  0  0  0  0  0  0  0  0  0  0  0
    9.4167   -7.5542    0.0000 C   0  0  0  0  0  0  0  0  0  0  0  0
    6.3417   -8.6042    0.0000 O   0  0  0  0  0  0  0  0  0  0  0  0
    6.3542   -7.9000    0.0000 C   0  0  0  0  0  0  0  0  0  0  0  0
   10.6542   -7.5417    0.0000 C   0  0  0  0  0  0  0  0  0  0  0  0
    2.1958   -8.2250    0.0000 C   0  0  0  0  0  0  0  0  0  0  0  0
    2.8000   -7.1667    0.0000 C   0  0  0  0  0  0  0  0  0  0  0  0
    3.4125   -8.2292    0.0000 C   0  0  0  0  0  0  0  0  0  0  0  0
    2.1958   -7.5125    0.0000 C   0  0  0  0  0  0  0  0  0  0  0  0
    2.8167   -8.5750    0.0000 C   0  0  0  0  0  0  0  0  0  0  0  0
    3.4250   -7.5167    0.0000 C   0  0  0  0  0  0  0  0  0  0  0  0
    1.5750   -8.5792    0.0000 C   0  0  0  0  0  0  0  0  0  0  0  0
    2.8042   -6.4417    0.0000 N   0  0  0  0  0  0  0  0  0  0  0  0
    4.0417   -8.5792    0.0000 N   0  0  0  0  0  0  0  0  0  0  0  0
    3.4250   -6.0917    0.0000 C   0  0  0  0  0  0  0  0  0  0  0  0
    4.6542   -8.2167    0.0000 C   0  0  0  0  0  0  0  0  0  0  0  0
    1.5750   -9.2917    0.0000 O   0  0  0  0  0  0  0  0  0  0  0  0
    1.5792   -7.1542    0.0000 I   0  0  0  0  0  0  0  0  0  0  0  0
    2.8125   -9.2875    0.0000 I   0  0  0  0  0  0  0  0  0  0  0  0
    4.0417   -7.1542    0.0000 I   0  0  0  0  0  0  0  0  0  0  0  0
    3.4250   -5.3792    0.0000 O   0  0  0  0  0  0  0  0  0  0  0  0
    5.2750   -8.5792    0.0000 O   0  0  0  0  0  0  0  0  0  0  0  0
    0.9542   -8.2292    0.0000 O   0  0  0  0  0  0  0  0  0  0  0  0
    4.6542   -7.5125    0.0000 C   0  0  0  0  0  0  0  0  0  0  0  0
    4.0417   -6.4417    0.0000 C   0  0  0  0  0  0  0  0  0  0  0  0
  2  1  1  0
  3  1  1  0
  4  2  1  0
  1  5  1  6
  2  6  1  6
  7 10  1  0
  4  8  1  1
  3  9  1  6
 10  3  1  0
 11 12  1  0
 12  4  1  0
 13  7  1  0
 15 17  2  0
 16 18  1  0
 17 14  1  0
 18 14  2  0
 19 16  2  0
 20 14  1  0
 21 15  1  0
 22 16  1  0
 23 21  1  0
 24 22  1  0
 25 20  2  0
 26 17  1  0
 27 18  1  0
 28 19  1  0
 29 23  2  0
 30 24  2  0
 31 20  1  0
 32 24  1  0
 33 23  1  0
 19 15  1  0
M  END
> <chembl_id>
CHEMBL1200839

> <chembl_pref_name>
DIATRIZOATE MEGLUMINE
