
     RDKit          2D

 19 21  0  0  0  0  0  0  0  0999 V2000
    0.6042    0.2458    0.0000 N   0  0  0  0  0  0  0  0  0  0  0  0
   -0.6333   -0.4792    0.0000 C   0  0  0  0  0  0  0  0  0  0  0  0
    0.6042    1.6583    0.0000 C   0  0  0  0  0  0  0  0  0  0  0  0
   -0.6333    2.3958    0.0000 N   0  0  0  0  0  0  0  0  0  0  0  0
   -1.8708    0.2250    0.0000 C   0  0  0  0  0  0  0  0  0  0  0  0
   -1.8708    1.6750    0.0000 C   0  0  0  0  0  0  0  0  0  0  0  0
    1.8417   -0.4625    0.0000 C   0  0  0  0  0  0  0  0  0  0  0  0
   -0.6333   -1.9125    0.0000 O   0  0  0  0  0  0  0  0  0  0  0  0
    3.0875    0.2458    0.0000 C   0  0  0  0  0  0  0  0  0  0  0  0
    1.8792    2.3708    0.0000 C   0  0  0  0  0  0  0  0  0  0  0  0
   -3.0958   -0.4792    0.0000 C   0  0  0  0  0  0  0  0  0  0  0  0
    1.8417   -1.8917    0.0000 C   0  0  0  0  0  0  0  0  0  0  0  0
   -3.0958    2.3958    0.0000 C   0  0  0  0  0  0  0  0  0  0  0  0
    3.0875    1.6958    0.0000 C   0  0  0  0  0  0  0  0  0  0  0  0
    4.3292   -0.4625    0.0000 C   0  0  0  0  0  0  0  0  0  0  0  0
   -4.3333    0.2458    0.0000 C   0  0  0  0  0  0  0  0  0  0  0  0
    3.0667   -2.6042    0.0000 C   0  0  0  0  0  0  0  0  0  0  0  0
   -4.3333    1.6583    0.0000 C   0  0  0  0  0  0  0  0  0  0  0  0
    4.3292   -1.8917    0.0000 C   0  0  0  0  0  0  0  0  0  0  0  0
  2  1  1  0
  3  1  1  0
  4  3  2  0
  5  2  1  0
  6  4  1  0
  7  1  1  0
  8  2  2  0
  9  7  1  0
 10  3  1  0
 11  5  1  0
 12  7  2  0
 13  6  1  0
 14  9  1  0
 15  9  2  0
 16 11  2  0
 17 12  1  0
 18 13  2  0
 19 17  2  0
  5  6  2  0
 15 19  1  0
 16 18  1  0
M  END
> <chembl_id>
CHEMBL282052

> <chembl_pref_name>
METHAQUALONE
