
     RDKit          2D

 50 56  0  0  0  0  0  0  0  0999 V2000
    9.2223    0.2946    0.0000 C   0  0  0  0  0  0  0  0  0  0  0  0
    8.8098    1.0091    0.0000 C   0  0  0  0  0  0  0  0  0  0  0  0
    7.9848    1.0091    0.0000 C   0  0  0  0  0  0  0  0  0  0  0  0
    7.5723    0.2946    0.0000 C   0  0  0  0  0  0  0  0  0  0  0  0
    7.9848   -0.4198    0.0000 C   0  0  0  0  0  0  0  0  0  0  0  0
    8.8098   -0.4198    0.0000 C   0  0  0  0  0  0  0  0  0  0  0  0
    7.5723   -1.1343    0.0000 C   0  0  0  0  0  0  0  0  0  0  0  0
    7.9848   -1.8488    0.0000 C   0  0  0  0  0  0  0  0  0  0  0  0
    8.8098   -1.8488    0.0000 C   0  0  0  0  0  0  0  0  0  0  0  0
    9.2223   -1.1343    0.0000 C   0  0  0  0  0  0  0  0  0  0  0  0
    7.7299    1.7937    0.0000 C   0  0  0  0  0  0  0  0  0  0  0  0
    8.3973    2.2786    0.0000 O   0  0  0  0  0  0  0  0  0  0  0  0
    9.0647    1.7937    0.0000 C   0  0  0  0  0  0  0  0  0  0  0  0
    7.7298   -2.6334    0.0000 O   0  0  0  0  0  0  0  0  0  0  0  0
    8.3973   -3.1183    0.0000 C   0  0  0  0  0  0  0  0  0  0  0  0
    9.0647   -2.6334    0.0000 O   0  0  0  0  0  0  0  0  0  0  0  0
    9.8493    2.0487    0.0000 O   0  0  0  0  0  0  0  0  0  0  0  0
   10.0473    0.2946    0.0000 C   0  0  0  0  0  0  0  0  0  0  0  0
    6.7473    0.2946    0.0000 O   0  0  0  0  0  0  0  0  0  0  0  0
    5.9223    0.2946    0.0000 C   0  0  0  0  0  0  0  0  0  0  0  0
   10.4598   -0.4199    0.0000 C   0  0  0  0  0  0  0  0  0  0  0  0
   11.2848   -0.4199    0.0000 C   0  0  0  0  0  0  0  0  0  0  0  0
   11.6973    0.2946    0.0000 C   0  0  0  0  0  0  0  0  0  0  0  0
   11.2848    1.0091    0.0000 C   0  0  0  0  0  0  0  0  0  0  0  0
   10.4598    1.0091    0.0000 C   0  0  0  0  0  0  0  0  0  0  0  0
   11.6973    1.7236    0.0000 O   0  0  0  0  0  0  0  0  0  0  0  0
   11.2849    2.4381    0.0000 C   0  0  0  0  0  0  0  0  0  0  0  0
   11.6973   -1.1343    0.0000 O   0  0  0  0  0  0  0  0  0  0  0  0
   12.5223   -1.1343    0.0000 C   0  0  0  0  0  0  0  0  0  0  0  0
   12.5223    0.2946    0.0000 O   0  0  0  0  0  0  0  0  0  0  0  0
   13.1057    0.8780    0.0000 P   0  0  0  0  0  0  0  0  0  0  0  0
   13.1057    1.7030    0.0000 O   0  0  0  0  0  0  0  0  0  0  0  0
   13.9307    0.8780    0.0000 O   0  0  0  0  0  0  0  0  0  0  0  0
   13.3192    0.0811    0.0000 O   0  0  0  0  0  0  0  0  0  0  0  0
    5.5098    1.0091    0.0000 O   0  0  0  0  0  0  0  0  0  0  0  0
    4.6848    1.0091    0.0000 C   0  0  0  0  0  0  0  0  0  0  0  0
    4.2723    0.2946    0.0000 C   0  0  0  0  0  0  0  0  0  0  0  0
    4.6848   -0.4198    0.0000 C   0  0  0  0  0  0  0  0  0  0  0  0
    5.5098   -0.4198    0.0000 C   0  0  0  0  0  0  0  0  0  0  0  0
    4.2723    1.7236    0.0000 C   0  0  0  0  0  0  0  0  0  0  0  0
    3.4473    1.7236    0.0000 O   0  0  0  0  0  0  0  0  0  0  0  0
    3.0348    1.0092    0.0000 C   0  0  0  0  0  0  0  0  0  0  0  0
    3.4473    0.2947    0.0000 O   0  0  0  0  0  0  0  0  0  0  0  0
    2.2098    1.0092    0.0000 C   0  0  0  0  0  0  0  0  0  0  0  0
    4.2723   -1.1343    0.0000 O   0  0  0  0  0  0  0  0  0  0  0  0
    5.9223   -1.1343    0.0000 O   0  0  0  0  0  0  0  0  0  0  0  0
    3.7723   -0.5714    0.0000 H   0  0  0  0  0  0  0  0  0  0  0  0
    5.1848    1.8751    0.0000 H   0  0  0  0  0  0  0  0  0  0  0  0
    6.9903    1.1136    0.0000 H   0  0  0  0  0  0  0  0  0  0  0  0
    9.8043    1.1136    0.0000 H   0  0  0  0  0  0  0  0  0  0  0  0
  1  2  1  0
  3  4  1  0
  4  5  1  0
  6  1  1  0
  5  7  2  0
  6  5  1  0
 10  6  2  0
  7  8  1  0
  9 10  1  0
  2 13  1  0
  2  3  1  0
  3 11  1  0
 11 12  1  0
 12 13  1  0
  8 14  1  0
  9  8  2  0
  9 16  1  0
 14 15  1  0
 15 16  1  0
 13 17  2  0
  1 18  1  6
  4 19  1  1
 20 19  1  1
 18 21  1  0
 18 25  2  0
 21 22  2  0
 22 23  1  0
 23 24  2  0
 24 25  1  0
 24 26  1  0
 26 27  1  0
 22 28  1  0
 28 29  1  0
 23 30  1  0
 30 31  1  0
 31 32  2  0
 31 33  1  0
 31 34  1  0
 20 35  1  0
 39 20  1  0
 35 36  1  0
 37 38  1  0
 38 39  1  0
 36 40  1  0
 37 36  1  0
 37 43  1  0
 40 41  1  0
 41 42  1  0
 42 43  1  0
 42 44  1  6
 38 45  1  1
 39 46  1  6
 37 47  1  1
 36 48  1  6
  3 49  1  6
  2 50  1  1
M  END
> <chembl_id>
CHEMBL1200645

> <chembl_pref_name>
ETOPOSIDE PHOSPHATE
