
     RDKit          2D

 39 41  0  0  0  0  0  0  0  0999 V2000
    4.8875   -1.8667    0.0000 P   0  0  0  0  0  0  0  0  0  0  0  0
    4.5292   -1.2417    0.0000 O   0  0  0  0  0  0  0  0  0  0  0  0
    5.5000   -2.2167    0.0000 O   0  0  0  0  0  0  0  0  0  0  0  0
    5.2375   -1.2417    0.0000 O   0  0  0  0  0  0  0  0  0  0  0  0
    4.2750   -2.2167    0.0000 O   0  0  0  0  0  0  0  0  0  0  0  0
   -0.0708   -1.3250    0.0000 C   0  0  0  0  0  0  0  0  0  0  0  0
   -1.3000   -1.3125    0.0000 C   0  0  0  0  0  0  0  0  0  0  0  0
    1.1667   -1.3542    0.0000 C   0  0  0  0  0  0  0  0  0  0  0  0
   -0.6833   -1.6750    0.0000 C   0  0  0  0  0  0  0  0  0  0  0  0
    0.5417   -1.7000    0.0000 C   0  0  0  0  0  0  0  0  0  0  0  0
   -0.0583   -0.6250    0.0000 C   0  0  0  0  0  0  0  0  0  0  0  0
    1.1792   -0.6500    0.0000 C   0  0  0  0  0  0  0  0  0  0  0  0
   -1.9333   -1.6500    0.0000 C   0  0  0  0  0  0  0  0  0  0  0  0
   -1.2833   -0.6042    0.0000 C   0  0  0  0  0  0  0  0  0  0  0  0
   -2.5458   -1.2875    0.0000 C   0  0  0  0  0  0  0  0  0  0  0  0
   -1.9083   -0.2375    0.0000 C   0  0  0  0  0  0  0  0  0  0  0  0
   -2.5208   -0.5875    0.0000 C   0  0  0  0  0  0  0  0  0  0  0  0
    0.5667   -0.2875    0.0000 C   0  0  0  0  0  0  0  0  0  0  0  0
   -0.6583   -0.2625    0.0000 C   0  0  0  0  0  0  0  0  0  0  0  0
    1.7792   -1.7250    0.0000 C   0  0  0  0  0  0  0  0  0  0  0  0
    0.5292   -2.4125    0.0000 O   0  0  0  0  0  0  0  0  0  0  0  0
   -1.9458   -2.3750    0.0000 O   0  0  0  0  0  0  0  0  0  0  0  0
    0.5792    0.4375    0.0000 N   0  0  0  0  0  0  0  0  0  0  0  0
   -3.1708   -1.6292    0.0000 C   0  0  0  0  0  0  0  0  0  0  0  0
   -0.0875   -2.0417    0.0000 O   0  0  0  0  0  0  0  0  0  0  0  0
    1.7750   -2.4417    0.0000 O   0  0  0  0  0  0  0  0  0  0  0  0
   -0.6958   -2.3875    0.0000 O   0  0  0  0  0  0  0  0  0  0  0  0
    1.8125   -0.3042    0.0000 O   0  0  0  0  0  0  0  0  0  0  0  0
   -2.2708    0.3833    0.0000 O   0  0  0  0  0  0  0  0  0  0  0  0
    2.4000   -1.3750    0.0000 N   0  0  0  0  0  0  0  0  0  0  0  0
   -3.1458   -0.2167    0.0000 C   0  0  0  0  0  0  0  0  0  0  0  0
   -1.5583    0.3833    0.0000 C   0  0  0  0  0  0  0  0  0  0  0  0
   -3.1833   -2.3500    0.0000 O   0  0  0  0  0  0  0  0  0  0  0  0
   -3.7750   -0.5625    0.0000 C   0  0  0  0  0  0  0  0  0  0  0  0
   -3.7958   -1.2625    0.0000 C   0  0  0  0  0  0  0  0  0  0  0  0
   -0.0333    0.8125    0.0000 C   0  0  0  0  0  0  0  0  0  0  0  0
    1.2125    0.7875    0.0000 C   0  0  0  0  0  0  0  0  0  0  0  0
   -1.2833   -0.0625    0.0000 H   0  0  0  0  0  0  0  0  0  0  0  0
   -0.0750    0.1375    0.0000 H   0  0  0  0  0  0  0  0  0  0  0  0
  2  1  2  0
  3  1  1  0
  4  1  1  0
  5  1  1  0
  7  9  2  0
  8 10  1  0
  9  6  1  0
 10  6  1  0
 11  6  1  0
 12 18  1  0
 13  7  1  0
 14 19  1  0
 15 13  1  0
 16 14  1  0
 17 16  1  0
 18 11  1  0
 19 11  1  0
 20  8  1  0
 21 10  2  0
 22 13  2  0
 18 23  1  6
 24 15  2  0
  6 25  1  6
 26 20  2  0
 27  9  1  0
 28 12  1  0
 16 29  1  1
 30 20  1  0
 31 17  2  0
 32 16  1  0
 33 24  1  0
 34 31  1  0
 35 24  1  0
 36 23  1  0
 37 23  1  0
 14 38  1  6
 11 39  1  6
  7 14  1  0
  8 12  2  0
 17 15  1  0
 34 35  2  0
M  END
> <chembl_id>
CHEMBL1201071

> <chembl_pref_name>
TETRACYCLINE PHOSPHATE COMPLEX
