
     RDKit          2D

  9  6  0  0  0  0  0  0  0  0999 V2000
    5.8875   -6.6417    0.0000 Mg  0  0  0  0  0 15  0  0  0  0  0  0
    4.3667   -6.6292    0.0000 C   0  0  0  0  0  0  0  0  0  0  0  0
    5.0542   -6.6292    0.0000 O   0  0  0  0  0  0  0  0  0  0  0  0
    3.9917   -5.9917    0.0000 O   0  0  0  0  0  0  0  0  0  0  0  0
    3.9917   -7.2167    0.0000 C   0  0  0  0  0  0  0  0  0  0  0  0
    7.6500   -6.6292    0.0000 C   0  0  0  0  0  0  0  0  0  0  0  0
    6.9542   -6.6292    0.0000 O   0  0  0  0  0  0  0  0  0  0  0  0
    8.0167   -5.9917    0.0000 O   0  0  0  0  0  0  0  0  0  0  0  0
    8.0167   -7.2167    0.0000 C   0  0  0  0  0  0  0  0  0  0  0  0
  3  2  1  0
  4  2  2  0
  5  2  1  0
  7  6  1  0
  8  6  2  0
  9  6  1  0
M  CHG  3   1   2   3  -1   7  -1
M  END
> <chembl_id>
CHEMBL1200691

> <chembl_pref_name>
MAGNESIUM ACETATE
