
     RDKit          2D

 31 34  0  0  0  0  0  0  0  0999 V2000
   -3.1717   -3.4322    0.0000 C   0  0  0  0  0  0  0  0  0  0  0  0
   -2.7592   -4.1466    0.0000 C   0  0  0  0  0  0  0  0  0  0  0  0
   -1.9342   -4.1466    0.0000 C   0  0  0  0  0  0  0  0  0  0  0  0
   -1.5217   -3.4322    0.0000 C   0  0  0  0  0  0  0  0  0  0  0  0
   -1.9342   -2.7177    0.0000 O   0  0  0  0  0  0  0  0  0  0  0  0
   -2.7592   -2.7177    0.0000 C   0  0  0  0  0  0  0  0  0  0  0  0
   -3.1717   -2.0032    0.0000 C   0  0  0  0  0  0  0  0  0  0  0  0
   -3.1717   -4.8611    0.0000 O   0  0  0  0  0  0  0  0  0  0  0  0
   -0.8073   -3.8447    0.0000 C   0  0  0  0  0  0  0  0  0  0  0  0
   -3.9967   -3.4322    0.0000 O   0  0  0  0  0  0  0  0  0  0  0  0
   -1.5217   -4.8611    0.0000 O   0  0  0  0  0  0  0  0  0  0  0  0
   -3.9967   -2.0032    0.0000 O   0  0  0  0  0  0  0  0  0  0  0  0
   -0.8073   -4.6697    0.0000 C   0  0  0  0  0  0  0  0  0  0  0  0
   -0.0928   -5.0822    0.0000 C   0  0  0  0  0  0  0  0  0  0  0  0
    0.6217   -4.6697    0.0000 C   0  0  0  0  0  0  0  0  0  0  0  0
    0.6217   -3.8447    0.0000 C   0  0  0  0  0  0  0  0  0  0  0  0
   -0.0928   -3.4322    0.0000 C   0  0  0  0  0  0  0  0  0  0  0  0
    1.3361   -5.0822    0.0000 C   0  0  0  0  0  0  0  0  0  0  0  0
    1.3361   -3.4321    0.0000 C   0  0  0  0  0  0  0  0  0  0  0  0
    1.3361   -2.6071    0.0000 C   0  0  0  0  0  0  0  0  0  0  0  0
    2.0036   -2.1222    0.0000 S   0  0  0  0  0  0  0  0  0  0  0  0
    1.7486   -1.3376    0.0000 C   0  0  0  0  0  0  0  0  0  0  0  0
    0.9236   -1.3376    0.0000 C   0  0  0  0  0  0  0  0  0  0  0  0
    0.6687   -2.1222    0.0000 C   0  0  0  0  0  0  0  0  0  0  0  0
    2.2336   -0.6702    0.0000 C   0  0  0  0  0  0  0  0  0  0  0  0
    3.0540   -0.7564    0.0000 C   0  0  0  0  0  0  0  0  0  0  0  0
    3.5390   -0.0890    0.0000 C   0  0  0  0  0  0  0  0  0  0  0  0
    3.2034    0.6647    0.0000 C   0  0  0  0  0  0  0  0  0  0  0  0
    2.3829    0.7509    0.0000 C   0  0  0  0  0  0  0  0  0  0  0  0
    1.8980    0.0835    0.0000 C   0  0  0  0  0  0  0  0  0  0  0  0
    3.6883    1.3322    0.0000 F   0  0  0  0  0  0  0  0  0  0  0  0
  1  2  1  0
  2  3  1  0
  3  4  1  0
  4  5  1  0
  5  6  1  0
  6  1  1  0
  6  7  1  1
  2  8  1  1
  4  9  1  1
  1 10  1  6
  3 11  1  6
  7 12  1  0
  9 13  1  0
 13 14  2  0
 14 15  1  0
 15 16  2  0
 16 17  1  0
 17  9  2  0
 15 18  1  0
 16 19  1  0
 19 20  1  0
 20 21  1  0
 21 22  1  0
 22 23  2  0
 23 24  1  0
 24 20  2  0
 22 25  1  0
 25 26  1  0
 26 27  2  0
 27 28  1  0
 28 29  2  0
 29 30  1  0
 30 25  2  0
 28 31  1  0
M  END
> <chembl_id>
CHEMBL2048484

> <chembl_pref_name>
CANAGLIFLOZIN ANHYDROUS
