
     RDKit          2D

 42 46  0  0  0  0  0  0  0  0999 V2000
    0.7661   -3.6830    0.0000 C   0  0  0  0  0  0  0  0  0  0  0  0
    0.0516   -4.0955    0.0000 C   0  0  0  0  0  0  0  0  0  0  0  0
    0.0516   -4.9205    0.0000 C   0  0  0  0  0  0  0  0  0  0  0  0
    0.7661   -5.3330    0.0000 C   0  0  0  0  0  0  0  0  0  0  0  0
    1.4806   -4.9205    0.0000 C   0  0  0  0  0  0  0  0  0  0  0  0
    1.4806   -4.0955    0.0000 C   0  0  0  0  0  0  0  0  0  0  0  0
    2.1950   -5.3330    0.0000 C   0  0  0  0  0  0  0  0  0  0  0  0
    2.1950   -6.1581    0.0000 C   0  0  0  0  0  0  0  0  0  0  0  0
    2.9095   -6.5706    0.0000 C   0  0  0  0  0  0  0  0  0  0  0  0
    3.6240   -6.1581    0.0000 C   0  0  0  0  0  0  0  0  0  0  0  0
    3.6240   -5.3330    0.0000 C   0  0  0  0  0  0  0  0  0  0  0  0
    2.9095   -4.9205    0.0000 C   0  0  0  0  0  0  0  0  0  0  0  0
    2.9095   -4.0955    0.0000 S   0  0  0  0  0  0  0  0  0  0  0  0
    3.6240   -3.6830    0.0000 N   0  0  0  0  0  0  0  0  0  0  0  0
    4.3385   -4.0955    0.0000 C   0  0  0  0  0  0  0  0  0  0  0  0
    4.4247   -4.9160    0.0000 N   0  0  0  0  0  0  0  0  0  0  0  0
    5.2317   -5.0875    0.0000 O   0  0  0  0  0  0  0  0  0  0  0  0
    5.6442   -4.3730    0.0000 C   0  0  0  0  0  0  0  0  0  0  0  0
    5.0922   -3.7600    0.0000 C   0  0  0  0  0  0  0  0  0  0  0  0
    6.4646   -4.2868    0.0000 C   0  0  0  0  0  0  0  0  0  0  0  0
    5.2637   -2.9530    0.0000 C   0  0  0  0  0  0  0  0  0  0  0  0
    2.6960   -3.2986    0.0000 O   0  0  0  0  0  0  0  0  0  0  0  0
    2.1126   -4.3090    0.0000 O   0  0  0  0  0  0  0  0  0  0  0  0
    0.7661   -6.1580    0.0000 C   0  0  0  0  0  0  0  0  0  0  0  0
    0.0516   -6.5705    0.0000 O   0  0  0  0  0  0  0  0  0  0  0  0
   -0.6629   -6.1580    0.0000 C   0  0  0  0  0  0  0  0  0  0  0  0
   -1.3773   -6.5705    0.0000 C   0  0  0  0  0  0  0  0  0  0  0  0
   -0.6629   -3.6830    0.0000 C   0  0  0  0  0  0  0  0  0  0  0  0
   -1.3774   -4.0955    0.0000 N   0  0  0  0  0  0  0  0  0  0  0  0
   -2.1310   -3.7600    0.0000 C   0  0  0  0  0  0  0  0  0  0  0  0
   -2.6831   -4.3731    0.0000 N   0  0  0  0  0  0  0  0  0  0  0  0
   -2.2705   -5.0875    0.0000 C   0  0  0  0  0  0  0  0  0  0  0  0
   -1.4636   -4.9160    0.0000 C   0  0  0  0  0  0  0  0  0  0  0  0
   -2.3026   -2.9530    0.0000 C   0  0  0  0  0  0  0  0  0  0  0  0
   -0.8505   -5.4680    0.0000 O   0  0  0  0  0  0  0  0  0  0  0  0
   -3.0407   -5.3832    0.0000 C   0  0  0  0  0  0  0  0  0  0  0  0
   -2.9976   -6.2070    0.0000 C   0  0  0  0  0  0  0  0  0  0  0  0
   -2.2007   -6.4205    0.0000 C   0  0  0  0  0  0  0  0  0  0  0  0
   -1.7514   -5.7287    0.0000 C   0  0  0  0  0  0  0  0  0  0  0  0
   -3.0995   -2.7395    0.0000 C   0  0  0  0  0  0  0  0  0  0  0  0
   -3.6828   -3.3229    0.0000 C   0  0  0  0  0  0  0  0  0  0  0  0
   -4.4797   -3.1093    0.0000 C   0  0  0  0  0  0  0  0  0  0  0  0
  1  2  1  0
  1  6  2  0
  2  3  2  0
  3  4  1  0
  4  5  2  0
  5  6  1  0
  5  7  1  0
  7  8  1  0
  7 12  2  0
  8  9  2  0
  9 10  1  0
 10 11  2  0
 11 12  1  0
 12 13  1  0
 13 14  1  0
 14 15  1  0
 15 16  2  0
 15 19  1  0
 16 17  1  0
 17 18  1  0
 18 19  2  0
 18 20  1  0
 19 21  1  0
 13 22  2  0
 13 23  2  0
  4 24  1  0
 24 25  1  0
 25 26  1  0
 26 27  1  0
  2 28  1  0
 28 29  1  0
 29 30  1  0
 29 33  1  0
 30 31  2  0
 31 32  1  0
 32 33  1  0
 30 34  1  0
 33 35  2  0
 32 36  1  0
 32 39  1  0
 36 37  1  0
 37 38  1  0
 38 39  1  0
 34 40  1  0
 40 41  1  0
 41 42  1  0
M  END
> <chembl_id>
CHEMBL539423

> <chembl_pref_name>
SPARSENTAN
