
     RDKit          2D

  8  8  0  0  0  0  0  0  0  0999 V2000
    0.8977    1.8520    0.0000 S   0  0  0  0  0  0  0  0  0  0  0  0
    0.3144    2.4353    0.0000 S   0  0  0  0  0  0  0  0  0  0  0  0
   -0.5106    2.4353    0.0000 S   0  0  0  0  0  0  0  0  0  0  0  0
   -1.0940    1.8520    0.0000 S   0  0  0  0  0  0  0  0  0  0  0  0
   -1.0940    1.0270    0.0000 S   0  0  0  0  0  0  0  0  0  0  0  0
   -0.5106    0.4436    0.0000 S   0  0  0  0  0  0  0  0  0  0  0  0
    0.3144    0.4436    0.0000 S   0  0  0  0  0  0  0  0  0  0  0  0
    0.8977    1.0270    0.0000 S   0  0  0  0  0  0  0  0  0  0  0  0
  1  2  1  0
  2  3  1  0
  3  4  1  0
  4  5  1  0
  5  6  1  0
  6  7  1  0
  7  8  1  0
  8  1  1  0
M  END
> <chembl_id>
CHEMBL1235452

> <chembl_pref_name>
SULFUR
