
     RDKit          2D

 38 38  0  0  0  0  0  0  0  0999 V2000
   14.8439  -21.2997    0.0000 C   0  0  0  0  0  0  0  0  0  0  0  0
   14.1284  -21.7150    0.0000 C   0  0  0  0  0  0  0  0  0  0  0  0
   13.4175  -21.2997    0.0000 C   0  0  0  0  0  0  0  0  0  0  0  0
   12.7019  -21.7150    0.0000 C   0  0  0  0  0  0  0  0  0  0  0  0
   11.9910  -21.2997    0.0000 C   0  0  0  0  0  0  0  0  0  0  0  0
   11.2756  -21.7150    0.0000 C   0  0  0  0  0  0  0  0  0  0  0  0
   10.5601  -21.2997    0.0000 C   0  0  0  0  0  0  0  0  0  0  0  0
    9.8491  -21.7150    0.0000 C   0  0  0  0  0  0  0  0  0  0  0  0
    9.1336  -21.2997    0.0000 C   0  0  0  0  0  0  0  0  0  0  0  0
    8.4227  -21.7150    0.0000 C   0  0  0  0  0  0  0  0  0  0  0  0
    7.7072  -21.2997    0.0000 C   0  0  0  0  0  0  0  0  0  0  0  0
    6.9917  -21.7150    0.0000 C   0  0  0  0  0  0  0  0  0  0  0  0
    6.2808  -21.2997    0.0000 C   0  0  0  0  0  0  0  0  0  0  0  0
    5.5652  -21.7150    0.0000 C   0  0  0  0  0  0  0  0  0  0  0  0
    4.8543  -21.2997    0.0000 C   0  0  0  0  0  0  0  0  0  0  0  0
    4.1389  -21.7150    0.0000 C   0  0  0  0  0  0  0  0  0  0  0  0
    4.1389  -22.5363    0.0000 O   0  0  0  0  0  0  0  0  0  0  0  0
    3.4234  -21.2997    0.0000 O   0  0  0  0  0  0  0  0  0  0  0  0
    3.4234  -20.4784    0.0000 C   0  0  0  0  0  0  0  0  0  0  0  0
    2.7124  -20.0677    0.0000 C   0  0  0  0  0  0  0  0  0  0  0  0
    1.9970  -20.4784    0.0000 C   0  0  0  0  0  0  0  0  0  0  0  0
    1.9970  -21.2997    0.0000 C   0  0  0  0  0  0  0  0  0  0  0  0
    1.2861  -20.0677    0.0000 C   0  0  0  0  0  0  0  0  0  0  0  0
    0.5705  -20.4784    0.0000 C   0  0  0  0  0  0  0  0  0  0  0  0
   -0.1450  -20.0677    0.0000 C   0  0  0  0  0  0  0  0  0  0  0  0
   -0.1450  -19.2419    0.0000 C   0  0  0  0  0  0  0  0  0  0  0  0
    0.5705  -18.8313    0.0000 C   0  0  0  0  0  0  0  0  0  0  0  0
   -0.8559  -18.8313    0.0000 C   0  0  0  0  0  0  0  0  0  0  0  0
   -0.8559  -18.0053    0.0000 C   0  0  0  0  0  0  0  0  0  0  0  0
   -1.5713  -17.5947    0.0000 C   0  0  0  0  0  0  0  0  0  0  0  0
   -2.2823  -18.0053    0.0000 C   0  0  0  0  0  0  0  0  0  0  0  0
   -2.9978  -17.5947    0.0000 C   0  0  0  0  0  0  0  0  0  0  0  0
   -2.9978  -16.7688    0.0000 C   0  0  0  0  0  0  0  0  0  0  0  0
   -2.2823  -16.3581    0.0000 C   0  0  0  0  0  0  0  0  0  0  0  0
   -1.5713  -16.7688    0.0000 C   0  0  0  0  0  0  0  0  0  0  0  0
   -1.2902  -15.9936    0.0000 C   0  0  0  0  0  0  0  0  0  0  0  0
   -0.7617  -16.9107    0.0000 C   0  0  0  0  0  0  0  0  0  0  0  0
   -2.2823  -18.8313    0.0000 C   0  0  0  0  0  0  0  0  0  0  0  0
  1  2  1  0
  2  3  1  0
  3  4  1  0
  4  5  1  0
  5  6  1  0
  6  7  1  0
  7  8  1  0
  8  9  1  0
  9 10  1  0
 10 11  1  0
 11 12  1  0
 12 13  1  0
 13 14  1  0
 14 15  1  0
 15 16  1  0
 16 17  2  0
 16 18  1  0
 18 19  1  0
 19 20  1  0
 20 21  2  0
 21 22  1  0
 21 23  1  0
 23 24  2  0
 24 25  1  0
 25 26  2  0
 26 27  1  0
 26 28  1  0
 28 29  2  0
 29 30  1  0
 30 31  2  0
 31 32  1  0
 32 33  1  0
 33 34  1  0
 34 35  1  0
 30 35  1  0
 35 36  1  0
 35 37  1  0
 31 38  1  0
M  END
> <chembl_id>
CHEMBL1675

> <chembl_pref_name>
VITAMIN A PALMITATE
