
     RDKit          2D

 18 19  0  0  0  0  0  0  0  0999 V2000
    4.9917   -4.2417    0.0000 C   0  0  0  0  0  0  0  0  0  0  0  0
    3.7750   -4.2417    0.0000 N   0  0  0  0  0  0  0  0  0  0  0  0
    4.3792   -4.6042    0.0000 C   0  0  0  0  0  0  0  0  0  0  0  0
    5.6125   -4.6167    0.0000 C   0  0  0  0  0  0  0  0  0  0  0  0
    4.9917   -3.5375    0.0000 O   0  0  0  0  0  0  0  0  0  0  0  0
    5.6292   -5.3375    0.0000 C   0  0  0  0  0  0  0  0  0  0  0  0
    6.2250   -4.2542    0.0000 C   0  0  0  0  0  0  0  0  0  0  0  0
    6.2375   -5.6792    0.0000 C   0  0  0  0  0  0  0  0  0  0  0  0
    6.8500   -4.6167    0.0000 C   0  0  0  0  0  0  0  0  0  0  0  0
    6.8500   -5.3167    0.0000 C   0  0  0  0  0  0  0  0  0  0  0  0
    3.0917   -4.4625    0.0000 C   0  0  0  0  0  0  0  0  0  0  0  0
    3.7750   -3.5375    0.0000 C   0  0  0  0  0  0  0  0  0  0  0  0
    4.3792   -5.3042    0.0000 C   0  0  0  0  0  0  0  0  0  0  0  0
    7.4542   -5.6792    0.0000 C   0  0  0  0  0  0  0  0  0  0  0  0
    3.7750   -5.6667    0.0000 C   0  0  0  0  0  0  0  0  0  0  0  0
    3.1042   -3.3167    0.0000 C   0  0  0  0  0  0  0  0  0  0  0  0
    2.6917   -3.8792    0.0000 C   0  0  0  0  0  0  0  0  0  0  0  0
    3.7750   -6.3750    0.0000 C   0  0  0  0  0  0  0  0  0  0  0  0
  2  3  1  0
  3  1  1  0
  4  1  1  0
  5  1  2  0
  6  4  2  0
  7  4  1  0
  8  6  1  0
  9  7  2  0
 10  9  1  0
 11  2  1  0
 12  2  1  0
 13  3  1  0
 14 10  1  0
 15 13  1  0
 16 12  1  0
 17 11  1  0
 18 15  1  0
  8 10  2  0
 17 16  1  0
M  END
> <chembl_id>
CHEMBL201960

> <chembl_pref_name>
PYROVALERONE
