
     RDKit          2D

 28 28  0  0  0  0  0  0  0  0999 V2000
    6.4821  -11.0196    0.0000 Cl  0  0  0  0  0  0  0  0  0  0  0  0
    4.9272   -8.8941    0.0000 N   0  0  0  0  0  0  0  0  0  0  0  0
    4.2178   -9.3091    0.0000 C   0  0  0  0  0  0  0  0  0  0  0  0
    6.3412   -8.0399    0.0000 N   0  0  0  0  0  0  0  0  0  0  0  0
    3.4940   -8.9086    0.0000 C   0  0  0  0  0  0  0  0  0  0  0  0
    4.9128   -8.0689    0.0000 C   0  0  0  0  0  0  0  0  0  0  0  0
    5.6511   -9.2850    0.0000 C   0  0  0  0  0  0  0  0  0  0  0  0
    4.2323  -10.1392    0.0000 C   0  0  0  0  0  0  0  0  0  0  0  0
    2.7942   -9.3380    0.0000 C   0  0  0  0  0  0  0  0  0  0  0  0
    3.4891   -8.0930    0.0000 C   0  0  0  0  0  0  0  0  0  0  0  0
    5.6222   -7.6490    0.0000 C   0  0  0  0  0  0  0  0  0  0  0  0
    6.3460   -8.8747    0.0000 C   0  0  0  0  0  0  0  0  0  0  0  0
    2.0558   -8.1219    0.0000 C   0  0  0  0  0  0  0  0  0  0  0  0
    2.7604   -7.6925    0.0000 C   0  0  0  0  0  0  0  0  0  0  0  0
    2.0607   -8.9520    0.0000 C   0  0  0  0  0  0  0  0  0  0  0  0
    1.3368   -7.7214    0.0000 Cl  0  0  0  0  0  0  0  0  0  0  0  0
    7.0506   -7.6297    0.0000 C   0  0  0  0  0  0  0  0  0  0  0  0
   10.6265   -7.9675    0.0000 O   0  0  0  0  0  0  0  0  0  0  0  0
    8.4742   -7.5911    0.0000 O   0  0  0  0  0  0  0  0  0  0  0  0
    3.5229  -10.5590    0.0000 C   0  0  0  0  0  0  0  0  0  0  0  0
    4.9562  -10.5397    0.0000 C   0  0  0  0  0  0  0  0  0  0  0  0
    9.9027   -7.5718    0.0000 C   0  0  0  0  0  0  0  0  0  0  0  0
    7.7600   -8.0206    0.0000 C   0  0  0  0  0  0  0  0  0  0  0  0
    9.1933   -7.9916    0.0000 C   0  0  0  0  0  0  0  0  0  0  0  0
    4.9658  -11.3649    0.0000 C   0  0  0  0  0  0  0  0  0  0  0  0
    3.5374  -11.3938    0.0000 C   0  0  0  0  0  0  0  0  0  0  0  0
    4.2613  -11.7896    0.0000 C   0  0  0  0  0  0  0  0  0  0  0  0
    7.1278  -10.1681    0.0000 Cl  0  0  0  0  0  0  0  0  0  0  0  0
  3  2  1  0
  4 12  1  0
  5  3  1  0
  6  2  1  0
  7  2  1  0
  8  3  1  0
  9  5  1  0
 10  5  2  0
 11  6  1  0
 12  7  1  0
 13 14  2  0
 14 10  1  0
 15  9  2  0
 16 13  1  0
 17  4  1  0
 18 22  1  0
 19 23  1  0
 20  8  2  0
 21  8  1  0
 22 24  1  0
 23 17  1  0
 24 19  1  0
 25 21  2  0
 26 20  1  0
 27 26  2  0
 11  4  1  0
 15 13  1  0
 25 27  1  0
M  END
> <chembl_id>
CHEMBL3186993

> <chembl_pref_name>
HYDROXYZINE HYDROCHLORIDE
