
     RDKit          2D

 30 33  0  0  0  0  0  0  0  0999 V2000
   -0.2083    0.0208    0.0000 N   0  0  0  0  0  0  0  0  0  0  0  0
    0.4167    0.0208    0.0000 C   0  0  0  0  0  0  0  0  0  0  0  0
   -1.5083    0.0208    0.0000 N   0  0  0  0  0  0  0  0  0  0  0  0
    0.7375   -0.5167    0.0000 C   0  0  0  0  0  0  0  0  0  0  0  0
    0.7292    0.5625    0.0000 C   0  0  0  0  0  0  0  0  0  0  0  0
   -2.4458   -0.5167    0.0000 C   0  0  0  0  0  0  0  0  0  0  0  0
   -0.5250    0.5750    0.0000 C   0  0  0  0  0  0  0  0  0  0  0  0
   -0.5375   -0.5292    0.0000 C   0  0  0  0  0  0  0  0  0  0  0  0
   -3.0625   -0.5167    0.0000 C   0  0  0  0  0  0  0  0  0  0  0  0
    1.3667   -0.5167    0.0000 C   0  0  0  0  0  0  0  0  0  0  0  0
    0.4125    1.1208    0.0000 C   0  0  0  0  0  0  0  0  0  0  0  0
    1.3542    0.5583    0.0000 C   0  0  0  0  0  0  0  0  0  0  0  0
    0.4167   -1.0500    0.0000 C   0  0  0  0  0  0  0  0  0  0  0  0
   -1.1833   -0.5292    0.0000 C   0  0  0  0  0  0  0  0  0  0  0  0
   -1.1708    0.5750    0.0000 C   0  0  0  0  0  0  0  0  0  0  0  0
    1.3667    1.6625    0.0000 C   0  0  0  0  0  0  0  0  0  0  0  0
    1.3667   -1.6042    0.0000 C   0  0  0  0  0  0  0  0  0  0  0  0
   -2.1375    0.0208    0.0000 C   0  0  0  0  0  0  0  0  0  0  0  0
    0.7375   -1.6167    0.0000 C   0  0  0  0  0  0  0  0  0  0  0  0
    1.6917   -1.0500    0.0000 C   0  0  0  0  0  0  0  0  0  0  0  0
    0.7167    1.6625    0.0000 C   0  0  0  0  0  0  0  0  0  0  0  0
    1.6792    1.1208    0.0000 C   0  0  0  0  0  0  0  0  0  0  0  0
   -3.3833   -1.0542    0.0000 C   0  0  0  0  0  0  0  0  0  0  0  0
    1.6792   -2.1417    0.0000 F   0  0  0  0  0  0  0  0  0  0  0  0
    1.7000    2.1958    0.0000 F   0  0  0  0  0  0  0  0  0  0  0  0
   -4.0208   -1.0500    0.0000 C   0  0  0  0  0  0  0  0  0  0  0  0
   -3.0750   -1.6167    0.0000 C   0  0  0  0  0  0  0  0  0  0  0  0
   -4.3458   -1.6042    0.0000 C   0  0  0  0  0  0  0  0  0  0  0  0
   -3.3833   -2.1542    0.0000 C   0  0  0  0  0  0  0  0  0  0  0  0
   -4.0333   -2.1542    0.0000 C   0  0  0  0  0  0  0  0  0  0  0  0
  2  1  1  0
  3 14  1  0
  4  2  1  0
  5  2  1  0
  6 18  1  0
  7  1  1  0
  8  1  1  0
  9  6  2  0
 10  4  1  0
 11  5  1  0
 12  5  2  0
 13  4  2  0
 14  8  1  0
 15  7  1  0
 16 22  2  0
 17 19  2  0
 18  3  1  0
 19 13  1  0
 20 10  2  0
 21 11  2  0
 22 12  1  0
 23  9  1  0
 24 17  1  0
 25 16  1  0
 26 23  2  0
 27 23  1  0
 28 26  1  0
 29 27  2  0
 30 29  1  0
 15  3  1  0
 21 16  1  0
 20 17  1  0
 28 30  2  0
M  END
> <chembl_id>
CHEMBL30008

> <chembl_pref_name>
FLUNARIZINE
