
     RDKit          2D

 22 22  0  0  0  0  0  0  0  0999 V2000
    1.7167    0.3333    0.0000 C   0  0  0  0  0  0  0  0  0  0  0  0
    2.9500    0.3125    0.0000 C   0  0  0  0  0  0  0  0  0  0  0  0
    2.3333   -0.0250    0.0000 C   0  0  0  0  0  0  0  0  0  0  0  0
    1.7167    1.0417    0.0000 C   0  0  0  0  0  0  0  0  0  0  0  0
    2.9500    1.0167    0.0000 C   0  0  0  0  0  0  0  0  0  0  0  0
    1.0917   -0.0250    0.0000 C   0  0  0  0  0  0  0  0  0  0  0  0
    2.3542    1.3917    0.0000 C   0  0  0  0  0  0  0  0  0  0  0  0
    3.5583   -0.0458    0.0000 N   0  0  0  0  0  0  0  0  0  0  0  0
   -0.1458    0.0000    0.0000 C   0  0  0  0  0  0  0  0  0  0  0  0
    4.1875    0.3125    0.0000 C   0  0  0  0  0  0  0  0  0  0  0  0
    0.4875    0.3417    0.0000 C   0  0  0  0  0  0  0  0  0  0  0  0
   -0.7667    0.3542    0.0000 O   0  0  0  0  0  0  0  0  0  0  0  0
   -0.1458   -0.7125    0.0000 O   0  0  0  0  0  0  0  0  0  0  0  0
    4.1708    0.9708    0.0000 O   0  0  0  0  0  0  0  0  0  0  0  0
    2.3250   -0.7375    0.0000 I   0  0  0  0  0  0  0  0  0  0  0  0
    1.1125    1.4000    0.0000 I   0  0  0  0  0  0  0  0  0  0  0  0
    3.5792    1.3708    0.0000 I   0  0  0  0  0  0  0  0  0  0  0  0
    4.8042   -0.0500    0.0000 C   0  0  0  0  0  0  0  0  0  0  0  0
    0.4875    1.0500    0.0000 C   0  0  0  0  0  0  0  0  0  0  0  0
    5.4208    0.3042    0.0000 C   0  0  0  0  0  0  0  0  0  0  0  0
   -0.1417    1.4167    0.0000 C   0  0  0  0  0  0  0  0  0  0  0  0
    6.0417   -0.0750    0.0000 C   0  0  0  0  0  0  0  0  0  0  0  0
  2  3  1  0
  3  1  2  0
  4  1  1  0
  5  7  1  0
  6  1  1  0
  7  4  2  0
  8  2  1  0
  9 11  1  0
 10  8  1  0
 11  6  1  0
 12  9  1  0
 13  9  2  0
 14 10  2  0
 15  3  1  0
 16  4  1  0
 17  5  1  0
 18 10  1  0
 19 11  1  0
 20 18  1  0
 21 19  1  0
 22 20  1  0
  5  2  2  0
M  END
> <chembl_id>
CHEMBL1201261

> <chembl_pref_name>
TYROPANOIC ACID
