
     RDKit          2D

 18 18  0  0  0  0  0  0  0  0999 V2000
   -2.8512    1.9472    0.0000 C   0  0  0  0  0  0  0  0  0  0  0  0
   -3.6660    2.0763    0.0000 C   0  0  0  0  0  0  0  0  0  0  0  0
   -4.0405    1.3412    0.0000 C   0  0  0  0  0  0  0  0  0  0  0  0
   -3.4572    0.7578    0.0000 C   0  0  0  0  0  0  0  0  0  0  0  0
   -2.7221    1.1324    0.0000 N   0  0  0  0  0  0  0  0  0  0  0  0
   -2.2678    2.5306    0.0000 O   0  0  0  0  0  0  0  0  0  0  0  0
   -3.5862   -0.0569    0.0000 O   0  0  0  0  0  0  0  0  0  0  0  0
   -1.9871    0.7578    0.0000 C   0  0  0  0  0  0  0  0  0  0  0  0
   -1.2951    1.2072    0.0000 C   0  0  0  0  0  0  0  0  0  0  0  0
   -0.5601    0.8326    0.0000 O   0  0  0  0  0  0  0  0  0  0  0  0
    0.1317    1.2819    0.0000 C   0  0  0  0  0  0  0  0  0  0  0  0
    0.8668    0.9074    0.0000 C   0  0  0  0  0  0  0  0  0  0  0  0
    1.5587    1.3567    0.0000 C   0  0  0  0  0  0  0  0  0  0  0  0
    2.2938    0.9822    0.0000 C   0  0  0  0  0  0  0  0  0  0  0  0
    2.9857    1.4315    0.0000 O   0  0  0  0  0  0  0  0  0  0  0  0
    3.7208    1.0570    0.0000 C   0  0  0  0  0  0  0  0  0  0  0  0
    2.3370    0.1583    0.0000 O   0  0  0  0  0  0  0  0  0  0  0  0
    0.0886    2.1058    0.0000 O   0  0  0  0  0  0  0  0  0  0  0  0
  1  2  1  0
  2  3  1  0
  3  4  1  0
  4  5  1  0
  1  5  1  0
  1  6  2  0
  4  7  2  0
  8  9  1  0
  9 10  1  0
 10 11  1  0
 11 12  1  0
 12 13  2  0
 13 14  1  0
 14 15  1  0
  5  8  1  0
 15 16  1  0
 14 17  2  0
 11 18  2  0
M  END
> <chembl_id>
CHEMBL3989944

> <chembl_pref_name>
DIROXIMEL FUMARATE
