
     RDKit          2D

 30 33  0  0  1  0  0  0  0  0999 V2000
    3.1708   -5.4292    0.0000 C   0  0  0  0  0  0  0  0  0  0  0  0
    5.0167   -4.3792    0.0000 C   0  0  0  0  0  0  0  0  0  0  0  0
    3.1708   -6.1375    0.0000 C   0  0  0  0  0  0  0  0  0  0  0  0
    5.6917   -4.1667    0.0000 C   0  0  0  0  0  0  0  0  0  0  0  0
    3.7833   -5.0750    0.0000 C   0  0  0  0  0  0  0  0  0  0  0  0
    4.3958   -5.4333    0.0000 C   0  0  0  0  0  0  0  0  0  0  0  0
    5.0083   -5.0833    0.0000 C   0  0  0  0  0  0  0  0  0  0  0  0
    2.5583   -5.0750    0.0000 C   0  0  0  0  0  0  0  0  0  0  0  0
    4.4042   -4.0167    0.0000 C   0  0  0  0  0  0  0  0  0  0  0  0
    3.7875   -4.3667    0.0000 C   0  0  0  0  0  0  0  0  0  0  0  0
    4.3917   -6.1417    0.0000 C   0  0  0  0  0  0  0  0  0  0  0  0
    3.7792   -6.4917    0.0000 C   0  0  0  0  0  0  0  0  0  0  0  0
    2.5583   -6.4917    0.0000 C   0  0  0  0  0  0  0  0  0  0  0  0
    5.6875   -3.4542    0.0000 C   0  0  0  0  0  0  0  0  0  0  0  0
    6.1000   -4.7417    0.0000 C   0  0  0  0  0  0  0  0  0  0  0  0
    5.6792   -5.3125    0.0000 C   0  0  0  0  0  0  0  0  0  0  0  0
    1.9500   -5.4292    0.0000 C   0  0  0  0  0  0  0  0  0  0  0  0
    1.9500   -6.1375    0.0000 C   0  0  0  0  0  0  0  0  0  0  0  0
    5.0708   -3.1083    0.0000 O   0  0  0  0  0  0  0  0  0  0  0  0
    1.3333   -6.4875    0.0000 O   0  0  0  0  0  0  0  0  0  0  0  0
    6.3042   -3.8042    0.0000 O   0  0  0  0  0  0  0  0  0  0  0  0
    3.1667   -4.7167    0.0000 C   0  0  0  0  0  0  0  0  0  0  0  0
    5.0125   -3.6667    0.0000 C   0  0  0  0  0  0  0  0  0  0  0  0
    3.7750   -7.2000    0.0000 F   0  0  0  0  0  0  0  0  0  0  0  0
    3.1750   -4.0083    0.0000 O   0  0  0  0  0  0  0  0  0  0  0  0
    6.2958   -3.0958    0.0000 C   0  0  0  0  0  0  0  0  0  0  0  0
    6.9125   -3.4458    0.0000 O   0  0  0  0  0  0  0  0  0  0  0  0
    5.0042   -5.7917    0.0000 H   0  0  0  0  0  0  0  0  0  0  0  0
    3.7792   -5.7792    0.0000 H   0  0  0  0  0  0  0  0  0  0  0  0
    4.3917   -4.7250    0.0000 H   0  0  0  0  0  0  0  0  0  0  0  0
  2  9  1  0
  3  1  1  0
  4  2  1  0
  5  1  1  0
  6  5  1  0
  7  6  1  0
  8  1  1  0
  9 10  1  0
 10  5  1  0
 11 12  1  0
 12  3  1  0
 13  3  2  0
 14  4  1  0
 15 16  1  0
 16  7  1  0
 17  8  2  0
 18 13  1  0
 19 14  2  0
 20 18  2  0
  4 21  1  6
  1 22  1  1
  2 23  1  1
 12 24  1  6
 10 25  1  1
 26 14  1  0
 27 26  1  0
  7 28  1  6
  5 29  1  6
  6 30  1  1
 18 17  1  0
  6 11  1  0
  7  2  1  0
  4 15  1  0
M  END
> <chembl_id>
CHEMBL1200774

> <chembl_pref_name>
FLUPREDNISOLONE
