
     RDKit          2D

 30 33  0  0  1  0  0  0  0  0999 V2000
    5.4167   -4.3625    0.0000 C   0  0  0  0  0  0  0  0  0  0  0  0
    4.1792   -5.0625    0.0000 C   0  0  0  0  0  0  0  0  0  0  0  0
    6.0917   -4.1500    0.0000 C   0  0  0  0  0  0  0  0  0  0  0  0
    3.5625   -5.4167    0.0000 C   0  0  0  0  0  0  0  0  0  0  0  0
    5.4042   -5.0667    0.0000 C   0  0  0  0  0  0  0  0  0  0  0  0
    4.7917   -5.4250    0.0000 C   0  0  0  0  0  0  0  0  0  0  0  0
    3.5625   -6.1292    0.0000 C   0  0  0  0  0  0  0  0  0  0  0  0
    4.1792   -4.3500    0.0000 C   0  0  0  0  0  0  0  0  0  0  0  0
    6.5042   -4.7292    0.0000 C   0  0  0  0  0  0  0  0  0  0  0  0
    4.8000   -4.0000    0.0000 C   0  0  0  0  0  0  0  0  0  0  0  0
    2.9417   -5.0625    0.0000 C   0  0  0  0  0  0  0  0  0  0  0  0
    6.0792   -5.3042    0.0000 C   0  0  0  0  0  0  0  0  0  0  0  0
    2.9417   -6.4875    0.0000 C   0  0  0  0  0  0  0  0  0  0  0  0
    6.0917   -3.4292    0.0000 C   0  0  0  0  0  0  0  0  0  0  0  0
    4.7875   -6.1375    0.0000 C   0  0  0  0  0  0  0  0  0  0  0  0
    2.3292   -5.4167    0.0000 C   0  0  0  0  0  0  0  0  0  0  0  0
    2.3292   -6.1292    0.0000 C   0  0  0  0  0  0  0  0  0  0  0  0
    4.1750   -6.4875    0.0000 C   0  0  0  0  0  0  0  0  0  0  0  0
    4.1667   -5.7667    0.0000 F   0  0  0  0  0  0  0  0  0  0  0  0
    5.4667   -3.0875    0.0000 O   0  0  0  0  0  0  0  0  0  0  0  0
    6.7042   -3.7917    0.0000 O   0  0  0  0  0  0  0  0  0  0  0  0
    1.7125   -6.4792    0.0000 O   0  0  0  0  0  0  0  0  0  0  0  0
    5.4125   -3.6417    0.0000 C   0  0  0  0  0  0  0  0  0  0  0  0
    3.5667   -3.9917    0.0000 O   0  0  0  0  0  0  0  0  0  0  0  0
    7.2167   -4.7375    0.0000 O   0  0  0  0  0  0  0  0  0  0  0  0
    3.5542   -4.7042    0.0000 C   0  0  0  0  0  0  0  0  0  0  0  0
    6.7042   -3.0750    0.0000 C   0  0  0  0  0  0  0  0  0  0  0  0
    7.3250   -3.4250    0.0000 O   0  0  0  0  0  0  0  0  0  0  0  0
    5.4000   -5.7792    0.0000 H   0  0  0  0  0  0  0  0  0  0  0  0
    4.7792   -4.7125    0.0000 H   0  0  0  0  0  0  0  0  0  0  0  0
  2  8  1  0
  3  1  1  0
  4  2  1  0
  5  1  1  0
  6  5  1  0
  7  4  1  0
  8 10  1  0
  9  3  1  0
 10  1  1  0
 11  4  1  0
 12  5  1  0
 13  7  2  0
 14  3  1  0
 15  6  1  0
 16 11  2  0
 17 16  1  0
 18 15  1  0
  2 19  1  6
 20 14  2  0
  3 21  1  6
 22 17  2  0
  1 23  1  1
  8 24  1  1
  9 25  1  6
  4 26  1  1
 27 14  1  0
 28 27  1  0
  5 29  1  6
  6 30  1  1
 12  9  1  0
  6  2  1  0
  7 18  1  0
 13 17  1  0
M  END
> <chembl_id>
CHEMBL1451

> <chembl_pref_name>
TRIAMCINOLONE
