
     RDKit          2D

 30 31  0  0  0  0  0  0  0  0999 V2000
    1.9417    0.2708    0.0000 Cl  0  0  0  0  0  0  0  0  0  0  0  0
   -1.1083   -1.4125    0.0000 C   0  0  0  0  0  0  0  0  0  0  0  0
    0.1083   -1.4125    0.0000 N   0  0  0  0  0  0  0  0  0  0  0  0
    0.1083   -2.1250    0.0000 C   0  0  0  0  0  0  0  0  0  0  0  0
   -1.7167   -1.0500    0.0000 C   0  0  0  0  0  0  0  0  0  0  0  0
   -1.1083   -2.1250    0.0000 C   0  0  0  0  0  0  0  0  0  0  0  0
    0.7167   -2.4875    0.0000 C   0  0  0  0  0  0  0  0  0  0  0  0
   -0.5000   -2.4875    0.0000 C   0  0  0  0  0  0  0  0  0  0  0  0
   -0.5000   -1.0500    0.0000 C   0  0  0  0  0  0  0  0  0  0  0  0
    1.3250   -2.1250    0.0000 C   0  0  0  0  0  0  0  0  0  0  0  0
    0.7167   -3.2000    0.0000 C   0  0  0  0  0  0  0  0  0  0  0  0
   -1.7167   -2.4875    0.0000 O   0  0  0  0  0  0  0  0  0  0  0  0
    1.3250   -3.5542    0.0000 C   0  0  0  0  0  0  0  0  0  0  0  0
    1.9333   -2.4875    0.0000 C   0  0  0  0  0  0  0  0  0  0  0  0
    1.9333   -3.2000    0.0000 C   0  0  0  0  0  0  0  0  0  0  0  0
   -1.7167   -0.3375    0.0000 N   0  0  0  0  0  0  0  0  0  0  0  0
   -1.7167   -3.2000    0.0000 C   0  0  0  0  0  0  0  0  0  0  0  0
    0.7167   -1.0500    0.0000 C   0  0  0  0  0  0  0  0  0  0  0  0
   -2.3208   -1.4125    0.0000 O   0  0  0  0  0  0  0  0  0  0  0  0
    1.3250   -1.4125    0.0000 C   0  0  0  0  0  0  0  0  0  0  0  0
   -1.1083   -3.5542    0.0000 O   0  0  0  0  0  0  0  0  0  0  0  0
    1.3250   -4.2750    0.0000 O   0  0  0  0  0  0  0  0  0  0  0  0
    2.5417   -3.5542    0.0000 O   0  0  0  0  0  0  0  0  0  0  0  0
   -2.3208    0.0208    0.0000 C   0  0  0  0  0  0  0  0  0  0  0  0
   -1.1083    0.0208    0.0000 C   0  0  0  0  0  0  0  0  0  0  0  0
   -2.3208   -3.5542    0.0000 C   0  0  0  0  0  0  0  0  0  0  0  0
    3.1500   -3.2000    0.0000 C   0  0  0  0  0  0  0  0  0  0  0  0
    1.9333   -4.6250    0.0000 C   0  0  0  0  0  0  0  0  0  0  0  0
   -2.3208    0.7333    0.0000 C   0  0  0  0  0  0  0  0  0  0  0  0
   -1.1083    0.7333    0.0000 C   0  0  0  0  0  0  0  0  0  0  0  0
  3  9  1  0
  4  3  1  0
  5  2  1  0
  6  2  1  0
  7  4  1  0
  8  6  1  0
  9  2  1  0
 10 20  1  0
 11  7  1  0
 12  6  1  0
 13 11  2  0
 14 10  1  0
 15 14  2  0
 16  5  1  0
 17 12  1  0
 18  3  1  0
 19  5  2  0
 20 18  1  0
 21 17  2  0
 22 13  1  0
 23 15  1  0
 24 16  1  0
 25 16  1  0
 26 17  1  0
 27 23  1  0
 28 22  1  0
 29 24  1  0
 30 25  1  0
  8  4  1  0
  7 10  2  0
 13 15  1  0
M  END
> <chembl_id>
CHEMBL1200707

> <chembl_pref_name>
BENZQUINAMIDE HYDROCHLORIDE
