
     RDKit          2D

 11 12  0  0  0  0  0  0  0  0999 V2000
   -0.3833   -2.0917    0.0000 N   0  0  0  0  0  0  0  0  0  0  0  0
   -1.6375    0.0833    0.0000 N   0  0  0  0  0  0  0  0  0  0  0  0
    0.8250   -1.3667    0.0000 C   0  0  0  0  0  0  0  0  0  0  0  0
    0.8250    0.0833    0.0000 C   0  0  0  0  0  0  0  0  0  0  0  0
   -0.3833    0.7708    0.0000 C   0  0  0  0  0  0  0  0  0  0  0  0
   -1.6375   -1.3667    0.0000 C   0  0  0  0  0  0  0  0  0  0  0  0
    3.0042   -0.6375    0.0000 N   0  0  0  0  0  0  0  0  0  0  0  0
    2.1917   -1.8125    0.0000 N   0  0  0  0  0  0  0  0  0  0  0  0
    2.1917    0.4875    0.0000 C   0  0  0  0  0  0  0  0  0  0  0  0
   -0.3833    2.2250    0.0000 O   0  0  0  0  0  0  0  0  0  0  0  0
   -2.8958   -2.0917    0.0000 O   0  0  0  0  0  0  0  0  0  0  0  0
  2  6  1  0
  3  1  1  0
  4  3  2  0
  5  2  2  0
  6  1  2  0
  7  8  1  0
  8  3  1  0
  9  4  1  0
 10  5  1  0
 11  6  1  0
  4  5  1  0
  9  7  2  0
M  END
> <chembl_id>
CHEMBL859

> <chembl_pref_name>
OXYPURINOL
