
     RDKit          2D

 49 52  0  0  0  0  0  0  0  0999 V2000
    2.4931   -8.3872    0.0000 C   0  0  0  0  0  0  0  0  0  0  0  0
    2.4920   -9.2141    0.0000 C   0  0  0  0  0  0  0  0  0  0  0  0
    3.2064   -9.6267    0.0000 C   0  0  0  0  0  0  0  0  0  0  0  0
    3.9225   -9.2136    0.0000 C   0  0  0  0  0  0  0  0  0  0  0  0
    3.9197   -8.3836    0.0000 C   0  0  0  0  0  0  0  0  0  0  0  0
    3.2046   -7.9746    0.0000 C   0  0  0  0  0  0  0  0  0  0  0  0
    3.2021   -7.1500    0.0000 S   0  0  0  0  0  0  0  0  0  0  0  0
    3.1942   -6.3217    0.0000 O   0  0  0  0  0  0  0  0  0  0  0  0
    4.0267   -7.1448    0.0000 O   0  0  0  0  0  0  0  0  0  0  0  0
    2.3777   -7.1591    0.0000 O   0  0  0  0  0  0  0  0  0  0  0  0
    3.2062  -10.4513    0.0000 O   0  0  0  0  0  0  0  0  0  0  0  0
    4.6384   -9.6248    0.0000 C   0  0  0  0  0  0  0  0  0  0  0  0
    4.6396  -10.4494    0.0000 O   0  0  0  0  0  0  0  0  0  0  0  0
    5.3518   -9.2114    0.0000 O   0  0  0  0  0  0  0  0  0  0  0  0
   -5.5915   -5.1779    0.0000 C   0  0  0  0  0  0  0  0  0  0  0  0
   -5.5926   -6.0044    0.0000 C   0  0  0  0  0  0  0  0  0  0  0  0
   -4.8785   -6.4168    0.0000 C   0  0  0  0  0  0  0  0  0  0  0  0
   -4.8803   -4.7655    0.0000 C   0  0  0  0  0  0  0  0  0  0  0  0
   -4.1657   -5.1743    0.0000 C   0  0  0  0  0  0  0  0  0  0  0  0
   -4.1650   -6.0002    0.0000 C   0  0  0  0  0  0  0  0  0  0  0  0
   -3.4504   -6.4108    0.0000 C   0  0  0  0  0  0  0  0  0  0  0  0
   -3.4560   -4.7605    0.0000 C   0  0  0  0  0  0  0  0  0  0  0  0
   -2.7408   -5.1673    0.0000 C   0  0  0  0  0  0  0  0  0  0  0  0
   -2.7372   -5.9961    0.0000 C   0  0  0  0  0  0  0  0  0  0  0  0
   -2.0189   -6.4055    0.0000 C   0  0  0  0  0  0  0  0  0  0  0  0
   -2.0302   -4.7498    0.0000 C   0  0  0  0  0  0  0  0  0  0  0  0
   -1.3112   -5.1555    0.0000 C   0  0  0  0  0  0  0  0  0  0  0  0
   -1.3054   -5.9836    0.0000 C   0  0  0  0  0  0  0  0  0  0  0  0
   -0.5865   -6.3908    0.0000 C   0  0  0  0  0  0  0  0  0  0  0  0
    0.1271   -5.9711    0.0000 C   0  0  0  0  0  0  0  0  0  0  0  0
    0.1173   -5.1398    0.0000 C   0  0  0  0  0  0  0  0  0  0  0  0
   -0.6023   -4.7364    0.0000 C   0  0  0  0  0  0  0  0  0  0  0  0
    0.8283   -4.7184    0.0000 C   0  0  0  0  0  0  0  0  0  0  0  0
    1.5470   -5.1217    0.0000 N   0  0  0  0  0  0  0  0  0  0  0  0
    0.8182   -3.8943    0.0000 O   0  0  0  0  0  0  0  0  0  0  0  0
    0.8449   -6.3760    0.0000 O   0  0  0  0  0  0  0  0  0  0  0  0
   -0.5797   -7.2149    0.0000 N   0  0  0  0  0  0  0  0  0  0  0  0
   -1.2901   -7.6328    0.0000 C   0  0  0  0  0  0  0  0  0  0  0  0
    0.1374   -7.6212    0.0000 C   0  0  0  0  0  0  0  0  0  0  0  0
   -0.6117   -3.9122    0.0000 O   0  0  0  0  0  0  0  0  0  0  0  0
   -1.3194   -4.3288    0.0000 O   0  0  0  0  0  0  0  0  0  0  0  0
   -1.3111   -6.8054    0.0000 H   0  0  0  0  0  0  0  0  0  0  0  0
   -2.0271   -7.2258    0.0000 O   0  0  0  0  0  0  0  0  0  0  0  0
   -2.0354   -3.9251    0.0000 O   0  0  0  0  0  0  0  0  0  0  0  0
   -3.4631   -3.9334    0.0000 O   0  0  0  0  0  0  0  0  0  0  0  0
   -2.7429   -6.8179    0.0000 H   0  0  0  0  0  0  0  0  0  0  0  0
   -3.4547   -7.2342    0.0000 C   0  0  0  0  0  0  0  0  0  0  0  0
   -4.8828   -3.9414    0.0000 O   0  0  0  0  0  0  0  0  0  0  0  0
   -4.8766   -7.2410    0.0000 Cl  0  0  0  0  0  0  0  0  0  0  0  0
  6  1  1  0
  1  2  2  0
  2  3  1  0
  3  4  2  0
  3 11  1  0
  4  5  1  0
  4 12  1  0
  5  6  2  0
  6  7  1  0
  7  8  1  0
  7  9  2  0
  7 10  2  0
 12 13  1  0
 12 14  2  0
 15 16  1  0
 30 31  2  0
 23 22  1  0
 31 32  1  0
 32 27  1  0
 22 19  1  0
 19 18  1  0
 18 15  2  0
 33 34  1  0
 33 35  2  0
 31 33  1  0
 23 24  1  0
 30 36  1  0
 29 37  1  1
 24 25  1  0
 37 38  1  0
 25 28  1  0
 37 39  1  0
 16 17  2  0
 32 40  2  0
 27 26  1  0
 27 41  1  1
 26 23  2  0
 28 42  1  1
 19 20  2  0
 25 43  1  1
 17 20  1  0
 26 44  1  0
 27 28  1  0
 22 45  2  0
 20 21  1  0
 24 46  1  1
 28 29  1  0
 21 47  2  0
 21 24  1  0
 18 48  1  0
 29 30  1  0
 17 49  1  0
M  END
> <chembl_id>
CHEMBL261772

> <chembl_pref_name>
MECLOCYCLINE SULFOSALICYLATE
