
     RDKit          2D

  5  3  0  0  0  0  0  0  0  0999 V2000
    8.3000   -6.4125    0.0000 Ag  0  0  0  0  0 15  0  0  0  0  0  0
    8.9792   -5.3417    0.0000 N   0  0  0  0  0  0  0  0  0  0  0  0
    9.3917   -4.6292    0.0000 O   0  0  0  0  0  0  0  0  0  0  0  0
    8.1542   -5.3417    0.0000 O   0  0  0  0  0  0  0  0  0  0  0  0
    9.3917   -6.0625    0.0000 O   0  0  0  0  0  0  0  0  0  0  0  0
  3  2  1  0
  4  2  1  0
  5  2  2  0
M  CHG  4   1   1   2   1   3  -1   4  -1
M  END
> <chembl_id>
CHEMBL177367

> <chembl_pref_name>
SILVER NITRATE
