
     RDKit          2D

 10 10  0  0  0  0  0  0  0  0999 V2000
   -2.7925    1.4991    0.0000 C   0  0  0  0  0  0  0  0  0  0  0  0
   -3.5070    1.0866    0.0000 C   0  0  0  0  0  0  0  0  0  0  0  0
   -3.5070    0.2616    0.0000 C   0  0  0  0  0  0  0  0  0  0  0  0
   -2.7925   -0.1509    0.0000 C   0  0  0  0  0  0  0  0  0  0  0  0
   -2.0780    0.2616    0.0000 C   0  0  0  0  0  0  0  0  0  0  0  0
   -2.0780    1.0866    0.0000 C   0  0  0  0  0  0  0  0  0  0  0  0
   -1.3635   -0.1510    0.0000 C   0  0  0  0  0  0  0  0  0  0  0  0
   -0.6491    0.2615    0.0000 N   0  0  0  0  0  0  0  0  0  0  0  0
   -1.3636   -0.9760    0.0000 C   0  0  0  0  0  0  0  0  0  0  0  0
    0.0654   -0.1510    0.0000 N   0  0  0  0  0  0  0  0  0  0  0  0
  1  2  1  0
  1  6  2  0
  2  3  2  0
  3  4  1  0
  4  5  2  0
  5  6  1  0
  5  7  1  0
  7  8  1  0
  7  9  1  0
  8 10  1  0
M  END
> <chembl_id>
CHEMBL1909283

> <chembl_pref_name>
MEBANAZINE
