
     RDKit          2D

 18 11  0  0  0  0  0  0  0  0999 V2000
   -0.2143   -1.4732    0.0000 Si  0  0  0  0  0  4  0  0  0  0  0  0
    0.6107   -1.4732    0.0000 O   0  0  0  0  0  0  0  0  0  0  0  0
   -1.0393   -1.4732    0.0000 O   0  0  0  0  0  0  0  0  0  0  0  0
   -3.4286    0.8571    0.0000 Mg  0  0  0  0  0  2  0  0  0  0  0  0
   -2.6036    0.8571    0.0000 O   0  0  0  0  0  0  0  0  0  0  0  0
   -3.5464   -0.0804    0.0000 Mg  0  0  0  0  0  2  0  0  0  0  0  0
   -2.7214   -0.0804    0.0000 O   0  0  0  0  0  0  0  0  0  0  0  0
   -3.4929   -1.0446    0.0000 Mg  0  0  0  0  0  2  0  0  0  0  0  0
   -2.6679   -1.0446    0.0000 O   0  0  0  0  0  0  0  0  0  0  0  0
   -0.2143    0.1071    0.0000 Si  0  0  0  0  0  4  0  0  0  0  0  0
    0.6107    0.1071    0.0000 O   0  0  0  0  0  0  0  0  0  0  0  0
   -1.0393    0.1071    0.0000 O   0  0  0  0  0  0  0  0  0  0  0  0
   -0.1339   -0.5089    0.0000 Si  0  0  0  0  0  4  0  0  0  0  0  0
    0.6911   -0.5089    0.0000 O   0  0  0  0  0  0  0  0  0  0  0  0
   -0.9589   -0.5089    0.0000 O   0  0  0  0  0  0  0  0  0  0  0  0
   -0.4018    0.7500    0.0000 Si  0  0  0  0  0  4  0  0  0  0  0  0
    0.4232    0.7500    0.0000 O   0  0  0  0  0  0  0  0  0  0  0  0
   -1.2268    0.7500    0.0000 O   0  0  0  0  0  0  0  0  0  0  0  0
  1  2  2  0
  1  3  2  0
  4  5  2  0
  6  7  2  0
  8  9  2  0
 10 11  2  0
 10 12  2  0
 13 14  2  0
 13 15  2  0
 16 17  2  0
 16 18  2  0
M  END
> <chembl_id>
CHEMBL3990276

> <chembl_pref_name>
TALC
