
     RDKit          2D

 95 96  0  0  0  0  0  0  0  0999 V2000
    1.8455    1.5369    0.0000 O   0  0  0  0  0  0  0  0  0  0  0  0
    2.2782    0.8352    0.0000 C   0  0  0  0  0  0  0  0  0  0  0  0
    3.1096    0.8449    0.0000 C   0  0  0  0  0  0  0  0  0  0  0  0
    1.8913    0.1047    0.0000 C   0  0  0  0  0  0  0  0  0  0  0  0
    3.5424    0.1431    0.0000 C   0  0  0  0  0  0  0  0  0  0  0  0
    3.4992    1.5768    0.0000 N   0  0  0  0  0  0  0  0  0  0  0  0
    2.3240   -0.5970    0.0000 C   0  0  0  0  0  0  0  0  0  0  0  0
    1.1762   -0.0037    0.0000 O   0  0  0  0  0  0  0  0  0  0  0  0
    3.1457   -0.5896    0.0000 C   0  0  0  0  0  0  0  0  0  0  0  0
    4.2988    0.1548    0.0000 O   0  0  0  0  0  0  0  0  0  0  0  0
    3.0480    2.2149    0.0000 C   0  0  0  0  0  0  0  0  0  0  0  0
    1.9275   -1.3298    0.0000 O   0  0  0  0  0  0  0  0  0  0  0  0
    3.5791   -1.2910    0.0000 N   0  0  0  0  0  0  0  0  0  0  0  0
    2.1749    2.2147    0.0000 N   0  0  0  0  0  0  0  0  0  0  0  0
    3.3300    2.9662    0.0000 N   0  0  0  0  0  0  0  0  0  0  0  0
    4.4225   -1.2813    0.0000 C   0  0  0  0  0  0  0  0  0  0  0  0
    4.7673   -0.6278    0.0000 N   0  0  0  0  0  0  0  0  0  0  0  0
    4.8629   -1.9984    0.0000 N   0  0  0  0  0  0  0  0  0  0  0  0
    0.3962    1.1928    0.0000 C   0  0  0  0  0  0  0  0  0  0  0  0
    1.0384    1.7305    0.0000 C   0  0  0  0  0  0  0  0  0  0  0  0
   -0.3026    1.6314    0.0000 C   0  0  0  0  0  0  0  0  0  0  0  0
    0.4319    0.3735    0.0000 O   0  0  0  0  0  0  0  0  0  0  0  0
    0.7177    2.4766    0.0000 O   0  0  0  0  0  0  0  0  0  0  0  0
   -0.0953    2.4330    0.0000 C   0  0  0  0  0  0  0  0  0  0  0  0
   -0.9820    1.1542    0.0000 O   0  0  0  0  0  0  0  0  0  0  0  0
   -0.2854   -0.0244    0.0000 C   0  0  0  0  0  0  0  0  0  0  0  0
   -0.3252   -0.8465    0.0000 C   0  0  0  0  0  0  0  0  0  0  0  0
   -0.9842    0.4142    0.0000 O   0  0  0  0  0  0  0  0  0  0  0  0
   -1.0443   -1.2473    0.0000 C   0  0  0  0  0  0  0  0  0  0  0  0
    0.3717   -1.2879    0.0000 N   0  0  0  0  0  0  0  0  0  0  0  0
   -1.7227    0.0305    0.0000 C   0  0  0  0  0  0  0  0  0  0  0  0
   -1.6845   -0.8021    0.0000 C   0  0  0  0  0  0  0  0  0  0  0  0
   -1.0945   -2.0623    0.0000 O   0  0  0  0  0  0  0  0  0  0  0  0
    0.3540   -2.2369    0.0000 C   0  0  0  0  0  0  0  0  0  0  0  0
   -2.3816    0.4653    0.0000 C   0  0  0  0  0  0  0  0  0  0  0  0
   -2.4825   -1.1880    0.0000 O   0  0  0  0  0  0  0  0  0  0  0  0
   -3.0713   -0.0403    0.0000 O   0  0  0  0  0  0  0  0  0  0  0  0
   -0.9892    2.0872    0.0000 C   0  0  0  0  0  0  0  0  0  0  0  0
   -1.7294    1.7191    0.0000 O   0  0  0  0  0  0  0  0  0  0  0  0
   -0.4640    3.2962    0.0000 C   0  0  0  0  0  0  0  0  0  0  0  0
    9.6035   -2.6170    0.0000 O   0  0  0  0  0  0  0  0  0  0  0  0
   10.0362   -3.3187    0.0000 C   0  0  0  0  0  0  0  0  0  0  0  0
   10.8676   -3.3090    0.0000 C   0  0  0  0  0  0  0  0  0  0  0  0
    9.6493   -4.0492    0.0000 C   0  0  0  0  0  0  0  0  0  0  0  0
   11.3004   -4.0108    0.0000 C   0  0  0  0  0  0  0  0  0  0  0  0
   11.2572   -2.5771    0.0000 N   0  0  0  0  0  0  0  0  0  0  0  0
   10.0820   -4.7509    0.0000 C   0  0  0  0  0  0  0  0  0  0  0  0
    8.9342   -4.1576    0.0000 O   0  0  0  0  0  0  0  0  0  0  0  0
   10.9037   -4.7435    0.0000 C   0  0  0  0  0  0  0  0  0  0  0  0
   12.0568   -3.9991    0.0000 O   0  0  0  0  0  0  0  0  0  0  0  0
   10.8060   -1.9390    0.0000 C   0  0  0  0  0  0  0  0  0  0  0  0
    9.6855   -5.4837    0.0000 O   0  0  0  0  0  0  0  0  0  0  0  0
   11.3371   -5.4449    0.0000 N   0  0  0  0  0  0  0  0  0  0  0  0
    9.9329   -1.9392    0.0000 N   0  0  0  0  0  0  0  0  0  0  0  0
   11.0880   -1.1877    0.0000 N   0  0  0  0  0  0  0  0  0  0  0  0
   12.1805   -5.4352    0.0000 C   0  0  0  0  0  0  0  0  0  0  0  0
   12.5253   -4.7817    0.0000 N   0  0  0  0  0  0  0  0  0  0  0  0
   12.6209   -6.1523    0.0000 N   0  0  0  0  0  0  0  0  0  0  0  0
    8.1542   -2.9611    0.0000 C   0  0  0  0  0  0  0  0  0  0  0  0
    8.7964   -2.4234    0.0000 C   0  0  0  0  0  0  0  0  0  0  0  0
    7.4554   -2.5225    0.0000 C   0  0  0  0  0  0  0  0  0  0  0  0
    8.1899   -3.7804    0.0000 O   0  0  0  0  0  0  0  0  0  0  0  0
    8.4757   -1.6773    0.0000 O   0  0  0  0  0  0  0  0  0  0  0  0
    7.6627   -1.7209    0.0000 C   0  0  0  0  0  0  0  0  0  0  0  0
    6.7760   -2.9997    0.0000 O   0  0  0  0  0  0  0  0  0  0  0  0
    7.4726   -4.1783    0.0000 C   0  0  0  0  0  0  0  0  0  0  0  0
    7.4328   -5.0004    0.0000 C   0  0  0  0  0  0  0  0  0  0  0  0
    6.7738   -3.7397    0.0000 O   0  0  0  0  0  0  0  0  0  0  0  0
    6.7137   -5.4012    0.0000 C   0  0  0  0  0  0  0  0  0  0  0  0
    8.1297   -5.4418    0.0000 N   0  0  0  0  0  0  0  0  0  0  0  0
    6.0353   -4.1234    0.0000 C   0  0  0  0  0  0  0  0  0  0  0  0
    6.0735   -4.9560    0.0000 C   0  0  0  0  0  0  0  0  0  0  0  0
    6.6635   -6.2162    0.0000 O   0  0  0  0  0  0  0  0  0  0  0  0
    8.1120   -6.3908    0.0000 C   0  0  0  0  0  0  0  0  0  0  0  0
    5.3764   -3.6886    0.0000 C   0  0  0  0  0  0  0  0  0  0  0  0
    5.2755   -5.3419    0.0000 O   0  0  0  0  0  0  0  0  0  0  0  0
    4.6867   -4.1942    0.0000 O   0  0  0  0  0  0  0  0  0  0  0  0
    6.7688   -2.0667    0.0000 C   0  0  0  0  0  0  0  0  0  0  0  0
    6.0286   -2.4348    0.0000 O   0  0  0  0  0  0  0  0  0  0  0  0
    7.2940   -0.8577    0.0000 C   0  0  0  0  0  0  0  0  0  0  0  0
    7.2794    3.6697    0.0000 S   0  0  0  0  0  0  0  0  0  0  0  0
    7.2794    2.8423    0.0000 O   0  0  0  0  0  0  0  0  0  0  0  0
    7.2794    4.4924    0.0000 O   0  0  0  0  0  0  0  0  0  0  0  0
    6.4522    3.6697    0.0000 O   0  0  0  0  0  0  0  0  0  0  0  0
    8.1022    3.6697    0.0000 O   0  0  0  0  0  0  0  0  0  0  0  0
    9.1937    2.0634    0.0000 S   0  0  0  0  0  0  0  0  0  0  0  0
    9.1937    1.2360    0.0000 O   0  0  0  0  0  0  0  0  0  0  0  0
    9.1937    2.8861    0.0000 O   0  0  0  0  0  0  0  0  0  0  0  0
    8.3665    2.0634    0.0000 O   0  0  0  0  0  0  0  0  0  0  0  0
   10.0165    2.0634    0.0000 O   0  0  0  0  0  0  0  0  0  0  0  0
    9.8125    0.2367    0.0000 S   0  0  0  0  0  0  0  0  0  0  0  0
    9.8125   -0.5907    0.0000 O   0  0  0  0  0  0  0  0  0  0  0  0
    9.8125    1.0594    0.0000 O   0  0  0  0  0  0  0  0  0  0  0  0
    8.9853    0.2367    0.0000 O   0  0  0  0  0  0  0  0  0  0  0  0
   10.6353    0.2367    0.0000 O   0  0  0  0  0  0  0  0  0  0  0  0
  2  4  1  0
  3  5  1  0
  3  6  1  1
  4  7  1  0
  4  8  1  1
  5  9  1  0
  5 10  1  6
  6 11  2  0
  7 12  1  6
  9 13  1  1
 11 14  1  0
 11 15  1  0
 13 16  2  0
 16 17  1  0
 16 18  1  0
  7  9  1  0
  2  1  1  6
 21 25  1  0
 26 22  1  1
 26 27  1  0
 26 28  1  0
 27 29  1  0
 27 30  1  1
 28 31  1  0
 29 32  1  0
 29 33  1  6
 30 34  1  0
 31 35  1  6
 32 36  1  1
 35 37  1  0
 23 24  1  0
 31 32  1  0
 19 20  1  0
 19 21  1  0
 19 22  1  6
 21 38  1  1
 20 23  1  0
 38 39  2  0
 21 24  1  0
 20  1  1  1
  2  3  1  0
 24 40  1  6
 42 44  1  0
 43 45  1  0
 43 46  1  1
 44 47  1  0
 44 48  1  1
 45 49  1  0
 45 50  1  6
 46 51  2  0
 47 52  1  6
 49 53  1  1
 51 54  1  0
 51 55  1  0
 53 56  2  0
 56 57  1  0
 56 58  1  0
 47 49  1  0
 42 41  1  6
 61 65  1  0
 66 62  1  1
 66 67  1  0
 66 68  1  0
 67 69  1  0
 67 70  1  1
 68 71  1  0
 69 72  1  0
 69 73  1  6
 70 74  1  0
 71 75  1  6
 72 76  1  1
 75 77  1  0
 63 64  1  0
 71 72  1  0
 59 60  1  0
 59 61  1  0
 59 62  1  6
 61 78  1  1
 60 63  1  0
 78 79  2  0
 61 64  1  0
 60 41  1  1
 42 43  1  0
 64 80  1  6
 81 82  2  0
 81 83  2  0
 81 84  1  0
 81 85  1  0
 86 87  2  0
 86 88  2  0
 86 89  1  0
 86 90  1  0
 91 92  2  0
 91 93  2  0
 91 94  1  0
 91 95  1  0
M  END
> <chembl_id>
CHEMBL3184791

> <chembl_pref_name>
STREPTOMYCIN SULFATE
