
     RDKit          2D

 22 21  0  0  0  0  0  0  0  0999 V2000
    6.3542    0.8917    0.0000 C   0  0  0  0  0  0  0  0  0  0  0  0
    5.7523    1.2239    0.0000 C   0  0  0  0  0  0  0  0  0  0  0  0
    7.5792    0.8917    0.0000 C   0  0  0  0  0  0  0  0  0  0  0  0
    5.1268    0.8409    0.0000 C   0  0  0  0  0  0  0  0  0  0  0  0
    7.5792    0.1917    0.0000 N   0  0  0  0  0  0  0  0  0  0  0  0
    6.9542    1.2458    0.0000 C   0  0  0  0  0  0  0  0  0  0  0  0
    5.1482    0.1295    0.0000 C   0  0  0  0  0  0  0  0  0  0  0  0
    6.3562    0.1624    0.0000 C   0  0  0  0  0  0  0  0  0  0  0  0
    5.7502   -0.2027    0.0000 C   0  0  0  0  0  0  0  0  0  0  0  0
    4.5257    1.1917    0.0000 O   0  0  0  0  0  0  0  0  0  0  0  0
    6.9542    1.9542    0.0000 O   0  0  0  0  0  0  0  0  0  0  0  0
    4.5398   -0.2486    0.0000 O   0  0  0  0  0  0  0  0  0  0  0  0
    8.1917   -0.1583    0.0000 C   0  0  0  0  0  0  0  0  0  0  0  0
    8.1917    1.2417    0.0000 C   0  0  0  0  0  0  0  0  0  0  0  0
    8.8167    0.1917    0.0000 C   0  0  0  0  0  0  0  0  0  0  0  0
    8.1917   -0.8792    0.0000 C   0  0  0  0  0  0  0  0  0  0  0  0
    8.8208    0.8917    0.0000 C   0  0  0  0  0  0  0  0  0  0  0  0
   10.1417    0.3875    0.0000 S   0  0  0  0  0  0  0  0  0  0  0  0
   10.5583    1.0125    0.0000 O   0  0  0  0  0  0  0  0  0  0  0  0
    9.6792    1.0375    0.0000 O   0  0  0  0  0  0  0  0  0  0  0  0
    9.5708    0.0625    0.0000 O   0  0  0  0  0  0  0  0  0  0  0  0
   10.6958    0.0625    0.0000 C   0  0  0  0  0  0  0  0  0  0  0  0
  2  1  1  0
  3  6  1  0
  4  2  2  0
  5  3  1  0
  6  1  1  0
  7  9  2  0
  8  1  2  0
  9  8  1  0
 10  4  1  0
 11  6  1  0
 12  7  1  0
 13  5  1  0
 14  3  1  0
 15 13  1  0
 16 13  1  0
 17 14  1  0
  7  4  1  0
 22 18  1  0
 19 18  2  0
 20 18  2  0
 21 18  1  0
M  END
> <chembl_id>
CHEMBL1201153

> <chembl_pref_name>
ISOETHARINE MESYLATE
