
     RDKit          2D

 32 34  0  0  0  0  0  0  0  0999 V2000
   -1.1642   -2.4983    0.0000 O   0  0  0  0  0  0  0  0  0  0  0  0
   -1.1642   -1.6733    0.0000 C   0  0  0  0  0  0  0  0  0  0  0  0
   -1.8787   -1.2608    0.0000 C   0  0  0  0  0  0  0  0  0  0  0  0
   -2.5931   -1.6733    0.0000 C   0  0  0  0  0  0  0  0  0  0  0  0
   -2.5931   -2.4983    0.0000 O   0  0  0  0  0  0  0  0  0  0  0  0
   -3.3076   -1.2608    0.0000 C   0  0  0  0  0  0  0  0  0  0  0  0
   -3.3076   -0.4358    0.0000 C   0  0  0  0  0  0  0  0  0  0  0  0
   -4.0221   -0.0233    0.0000 C   0  0  0  0  0  0  0  0  0  0  0  0
   -4.7365   -0.4358    0.0000 C   0  0  0  0  0  0  0  0  0  0  0  0
   -5.4510   -0.0233    0.0000 N   0  0  0  0  0  0  0  0  0  0  0  0
   -5.4510    0.8017    0.0000 C   0  0  0  0  0  0  0  0  0  0  0  0
   -6.1655    1.2142    0.0000 C   0  0  0  0  0  0  0  0  0  0  0  0
   -6.1655    2.0392    0.0000 C   0  0  0  0  0  0  0  0  0  0  0  0
   -5.4510    2.4517    0.0000 C   0  0  0  0  0  0  0  0  0  0  0  0
   -4.7365    2.0392    0.0000 C   0  0  0  0  0  0  0  0  0  0  0  0
   -4.7365    1.2142    0.0000 C   0  0  0  0  0  0  0  0  0  0  0  0
   -4.0221    0.8017    0.0000 C   0  0  0  0  0  0  0  0  0  0  0  0
   -3.3076    1.2142    0.0000 C   0  0  0  0  0  0  0  0  0  0  0  0
   -3.3076    2.0392    0.0000 C   0  0  0  0  0  0  0  0  0  0  0  0
   -2.5931    2.4517    0.0000 C   0  0  0  0  0  0  0  0  0  0  0  0
   -1.8787    2.0392    0.0000 C   0  0  0  0  0  0  0  0  0  0  0  0
   -1.1642    2.4517    0.0000 F   0  0  0  0  0  0  0  0  0  0  0  0
   -1.8787    1.2142    0.0000 C   0  0  0  0  0  0  0  0  0  0  0  0
   -2.5931    0.8017    0.0000 C   0  0  0  0  0  0  0  0  0  0  0  0
   -4.7365   -1.2608    0.0000 C   0  0  0  0  0  0  0  0  0  0  0  0
   -4.3240   -1.9753    0.0000 C   0  0  0  0  0  0  0  0  0  0  0  0
   -5.1490   -1.9753    0.0000 C   0  0  0  0  0  0  0  0  0  0  0  0
   -0.4497   -1.2608    0.0000 C   0  0  0  0  0  0  0  0  0  0  0  0
    0.2648   -1.6733    0.0000 C   0  0  0  0  0  0  0  0  0  0  0  0
    0.9792   -1.2608    0.0000 O   0  0  0  0  0  0  0  0  0  0  0  0
    0.2648   -2.4983    0.0000 O   0  0  0  0  0  0  0  0  0  0  0  0
    0.0000    0.0000    0.0000 Na  0  0  0  0  0 15  0  0  0  0  0  0
  2  1  1  6
  2  3  1  0
  3  4  1  0
  4  5  1  6
  4  6  1  0
  6  7  2  0
  7  8  1  0
  8  9  2  0
  9 10  1  0
 10 11  2  0
 11 12  1  0
 12 13  2  0
 13 14  1  0
 14 15  2  0
 15 16  1  0
 11 16  1  0
 16 17  2  0
  8 17  1  0
 17 18  1  0
 18 19  2  0
 19 20  1  0
 20 21  2  0
 21 22  1  0
 21 23  1  0
 23 24  2  0
 18 24  1  0
  9 25  1  0
 25 26  1  0
 26 27  1  0
 25 27  1  0
  2 28  1  0
 28 29  1  0
 29 30  2  0
 29 31  1  0
M  CHG  2  31  -1  32   1
M  END
> <chembl_id>
CHEMBL3989920

> <chembl_pref_name>
PITAVASTATIN SODIUM
