
     RDKit          2D

 22 23  0  0  0  0  0  0  0  0999 V2000
    0.8417   -2.9042    0.0000 Na  0  0  0  0  0 15  0  0  0  0  0  0
   -0.3958   -0.6542    0.0000 S   0  0  0  0  0  0  0  0  0  0  0  0
   -1.0708   -1.5792    0.0000 N   0  0  0  0  0  0  0  0  0  0  0  0
    0.0250   -1.2250    0.0000 C   0  0  0  0  0  0  0  0  0  0  0  0
   -1.0708   -0.8750    0.0000 C   0  0  0  0  0  0  0  0  0  0  0  0
   -0.3958   -1.8000    0.0000 C   0  0  0  0  0  0  0  0  0  0  0  0
   -1.7833   -1.5875    0.0000 C   0  0  0  0  0  0  0  0  0  0  0  0
   -1.7833   -0.8750    0.0000 C   0  0  0  0  0  0  0  0  0  0  0  0
    1.8167   -1.6417    0.0000 N   0  0  0  0  0  0  0  0  0  0  0  0
    1.2500   -1.2167    0.0000 N   0  0  0  0  0  0  0  0  0  0  0  0
   -0.3958   -2.5042    0.0000 C   0  0  0  0  0  0  0  0  0  0  0  0
    0.6375   -1.5792    0.0000 C   0  0  0  0  0  0  0  0  0  0  0  0
    2.3917   -1.2167    0.0000 N   0  0  0  0  0  0  0  0  0  0  0  0
    0.1042   -0.1500    0.0000 O   0  0  0  0  0  0  0  0  0  0  0  0
   -0.7583   -0.0292    0.0000 O   0  0  0  0  0  0  0  0  0  0  0  0
    2.1750   -0.5500    0.0000 C   0  0  0  0  0  0  0  0  0  0  0  0
    1.4667   -0.5500    0.0000 C   0  0  0  0  0  0  0  0  0  0  0  0
   -2.2833   -2.0875    0.0000 O   0  0  0  0  0  0  0  0  0  0  0  0
    0.2125   -2.8667    0.0000 O   0  0  0  0  0  0  0  0  0  0  0  0
   -1.0208   -2.8542    0.0000 O   0  0  0  0  0  0  0  0  0  0  0  0
    0.6375   -0.8667    0.0000 C   0  0  0  0  0  0  0  0  0  0  0  0
   -1.0750   -0.1667    0.0000 H   0  0  0  0  0  0  0  0  0  0  0  0
  3  5  1  0
  4  2  1  0
  5  2  1  0
  6  4  1  0
  7  8  1  0
  8  5  1  0
  9 10  1  0
 10 12  1  0
  6 11  1  6
 12  4  1  0
 13  9  2  0
 14  2  2  0
 15  2  2  0
 16 17  2  0
 17 10  1  0
 18  7  2  0
 19 11  1  0
 20 11  2  0
  4 21  1  6
  5 22  1  6
  6  3  1  0
  7  3  1  0
 13 16  1  0
M  CHG  2   1   1  19  -1
M  END
> <chembl_id>
CHEMBL1439

> <chembl_pref_name>
TAZOBACTAM SODIUM
