
     RDKit          2D

 51 55  0  0  0  0  0  0  0  0999 V2000
    9.7644   -0.1215    0.0000 C   0  0  0  0  0  0  0  0  0  0  0  0
    9.7644   -0.9465    0.0000 O   0  0  0  0  0  0  0  0  0  0  0  0
    9.0499    0.2910    0.0000 O   0  0  0  0  0  0  0  0  0  0  0  0
   10.4789    0.2910    0.0000 C   0  0  0  0  0  0  0  0  0  0  0  0
   11.1933   -0.1215    0.0000 N   0  0  0  0  0  0  0  0  0  0  0  0
    7.6210    1.1160    0.0000 C   0  0  0  0  0  0  0  0  0  0  0  0
    7.6210    0.2910    0.0000 C   0  0  0  0  0  0  0  0  0  0  0  0
    6.9065    1.5285    0.0000 C   0  0  0  0  0  0  0  0  0  0  0  0
    6.1920    1.1160    0.0000 C   0  0  0  0  0  0  0  0  0  0  0  0
    6.1920    0.2910    0.0000 N   0  0  0  0  0  0  0  0  0  0  0  0
    6.9065   -0.1215    0.0000 C   0  0  0  0  0  0  0  0  0  0  0  0
    6.9065   -0.9465    0.0000 N   0  0  0  0  0  0  0  0  0  0  0  0
    8.3355   -0.1215    0.0000 C   0  0  0  0  0  0  0  0  0  0  0  0
    7.6210   -1.3590    0.0000 C   0  0  0  0  0  0  0  0  0  0  0  0
    5.4776   -3.4215    0.0000 N   0  0  0  0  0  0  0  0  0  0  0  0
    5.4776   -2.5965    0.0000 C   0  0  0  0  0  0  0  0  0  0  0  0
    4.7631   -2.1840    0.0000 C   0  0  0  0  0  0  0  0  0  0  0  0
    6.1920   -2.1840    0.0000 O   0  0  0  0  0  0  0  0  0  0  0  0
    5.4776   -0.9465    0.0000 O   0  0  0  0  0  0  0  0  0  0  0  0
    6.1920   -1.3590    0.0000 C   0  0  0  0  0  0  0  0  0  0  0  0
    6.1450   -3.9064    0.0000 C   0  0  0  0  0  0  0  0  0  0  0  0
    5.8901   -4.6911    0.0000 N   0  0  0  0  0  0  0  0  0  0  0  0
    5.0651   -4.6911    0.0000 N   0  0  0  0  0  0  0  0  0  0  0  0
    4.8101   -3.9064    0.0000 C   0  0  0  0  0  0  0  0  0  0  0  0
    9.7354   -6.9902    0.0000 N   0  0  0  0  0  0  0  0  0  0  0  0
    8.9104   -6.9902    0.0000 C   0  0  0  0  0  0  0  0  0  0  0  0
    8.0854   -6.9902    0.0000 C   0  0  0  0  0  0  0  0  0  0  0  0
    7.6729   -6.2757    0.0000 C   0  0  0  0  0  0  0  0  0  0  0  0
    6.8479   -6.2757    0.0000 C   0  0  0  0  0  0  0  0  0  0  0  0
    6.4354   -6.9902    0.0000 C   0  0  0  0  0  0  0  0  0  0  0  0
    5.6104   -6.9902    0.0000 C   0  0  0  0  0  0  0  0  0  0  0  0
    5.1255   -7.6576    0.0000 C   0  0  0  0  0  0  0  0  0  0  0  0
    4.3409   -7.4027    0.0000 S   0  0  0  0  0  0  0  0  0  0  0  0
    5.1255   -6.3227    0.0000 N   0  0  0  0  0  0  0  0  0  0  0  0
    6.8479   -7.7046    0.0000 C   0  0  0  0  0  0  0  0  0  0  0  0
    7.6729   -7.7046    0.0000 C   0  0  0  0  0  0  0  0  0  0  0  0
    4.5802   -5.3585    0.0000 C   0  0  0  0  0  0  0  0  0  0  0  0
    3.7597   -5.2723    0.0000 C   0  0  0  0  0  0  0  0  0  0  0  0
    3.6734   -6.0928    0.0000 C   0  0  0  0  0  0  0  0  0  0  0  0
    4.3409   -6.5777    0.0000 C   0  0  0  0  0  0  0  0  0  0  0  0
    2.6036   -4.4324    0.0000 C   0  0  0  0  0  0  0  0  0  0  0  0
    2.9392   -5.1860    0.0000 C   0  0  0  0  0  0  0  0  0  0  0  0
    3.0886   -3.7649    0.0000 F   0  0  0  0  0  0  0  0  0  0  0  0
    1.7832   -4.3461    0.0000 C   0  0  0  0  0  0  0  0  0  0  0  0
    1.2982   -5.0136    0.0000 C   0  0  0  0  0  0  0  0  0  0  0  0
    1.6338   -5.7672    0.0000 C   0  0  0  0  0  0  0  0  0  0  0  0
    1.1489   -6.4347    0.0000 F   0  0  0  0  0  0  0  0  0  0  0  0
    2.4543   -5.8535    0.0000 C   0  0  0  0  0  0  0  0  0  0  0  0
   11.9078    0.2910    0.0000 C   0  0  0  0  0  0  0  0  0  0  0  0
    2.9198   -6.4283    0.0000 C   0  0  0  0  0  0  0  0  0  0  0  0
    3.8459   -4.4518    0.0000 O   0  0  0  0  0  0  0  0  0  0  0  0
  1  2  2  0
  3  1  1  0
  4  1  1  0
  4  5  1  0
  6  7  2  0
  6  8  1  0
  7 11  1  0
  7 13  1  0
  8  9  2  0
 10  9  1  0
 11 10  2  0
 12 11  1  0
 12 14  1  0
 13  3  1  0
 15 21  1  0
 16 17  1  0
 16 18  1  0
 19 20  2  0
 20 18  1  0
 20 12  1  0
 21 22  2  0
 22 23  1  0
 23 24  1  0
 24 15  2  0
 26 25  3  0
 26 27  1  0
 27 36  2  0
 28 27  1  0
 28 29  2  0
 30 29  1  0
 30 31  1  0
 31 32  2  0
 31 34  1  0
 32 33  1  0
 34 40  2  0
 35 30  2  0
 36 35  1  0
 37 38  1  0
 37 23  1  0
 38 39  1  0
 40 33  1  0
 40 39  1  0
 41 42  2  0
 41 44  1  0
 42 48  1  0
 43 41  1  0
 44 45  2  0
 46 45  1  0
 46 47  1  0
 48 46  2  0
 49  5  1  0
 38 42  1  1
 16 15  1  0
 39 50  1  6
 38 51  1  6
M  CHG  1  15   1
M  END
> <chembl_id>
CHEMBL1183349

> <chembl_pref_name>
ISAVUCONAZONIUM
