
     RDKit          2D

 23 25  0  0  0  0  0  0  0  0999 V2000
   17.2412   -4.3239    0.0000 S   0  0  0  0  0  0  0  0  0  0  0  0
   12.8883   -4.4862    0.0000 C   0  0  0  0  0  0  0  0  0  0  0  0
   13.6706   -4.7359    0.0000 C   0  0  0  0  0  0  0  0  0  0  0  0
   12.4014   -5.1561    0.0000 C   0  0  0  0  0  0  0  0  0  0  0  0
   12.8883   -5.8220    0.0000 N   0  0  0  0  0  0  0  0  0  0  0  0
   13.6706   -5.5598    0.0000 C   0  0  0  0  0  0  0  0  0  0  0  0
   12.1225   -2.1349    0.0000 N   0  0  0  0  0  0  0  0  0  0  0  0
   17.6532   -5.0355    0.0000 O   0  0  0  0  0  0  0  0  0  0  0  0
   16.8292   -3.6122    0.0000 O   0  0  0  0  0  0  0  0  0  0  0  0
   12.6261   -3.6996    0.0000 C   0  0  0  0  0  0  0  0  0  0  0  0
   14.3823   -4.3239    0.0000 C   0  0  0  0  0  0  0  0  0  0  0  0
   17.9571   -3.9119    0.0000 N   0  0  0  0  0  0  0  0  0  0  0  0
   16.5296   -4.7359    0.0000 C   0  0  0  0  0  0  0  0  0  0  0  0
   14.3823   -5.9801    0.0000 C   0  0  0  0  0  0  0  0  0  0  0  0
   13.1837   -3.0879    0.0000 C   0  0  0  0  0  0  0  0  0  0  0  0
   11.8229   -3.5249    0.0000 C   0  0  0  0  0  0  0  0  0  0  0  0
   12.9258   -2.3014    0.0000 C   0  0  0  0  0  0  0  0  0  0  0  0
   11.5732   -2.7466    0.0000 C   0  0  0  0  0  0  0  0  0  0  0  0
   15.0939   -4.7359    0.0000 C   0  0  0  0  0  0  0  0  0  0  0  0
   15.0939   -5.5598    0.0000 C   0  0  0  0  0  0  0  0  0  0  0  0
   15.8097   -4.3239    0.0000 C   0  0  0  0  0  0  0  0  0  0  0  0
   11.8646   -1.3483    0.0000 C   0  0  0  0  0  0  0  0  0  0  0  0
   17.9571   -3.0879    0.0000 C   0  0  0  0  0  0  0  0  0  0  0  0
  2  3  1  0
  3 11  1  0
  4  2  2  0
  5  6  1  0
  6 14  1  0
  7 18  1  0
  8  1  2  0
  9  1  2  0
 10  2  1  0
 11 19  2  0
 12  1  1  0
 13  1  1  0
 14 20  2  0
 15 10  1  0
 16 10  1  0
 17 15  1  0
 18 16  1  0
 19 21  1  0
 20 19  1  0
 21 13  1  0
 22  7  1  0
 23 12  1  0
  3  6  2  0
  5  4  1  0
  7 17  1  0
M  END
> <chembl_id>
CHEMBL1278

> <chembl_pref_name>
NARATRIPTAN
