
     RDKit          2D

 15 14  0  0  0  0  0  0  0  0999 V2000
    4.0667   -1.9000    0.0000 Cl  0  0  0  0  0  0  0  0  0  0  0  0
    1.5500   -1.9292    0.0000 C   0  0  0  0  0  0  0  0  0  0  0  0
    0.9375   -1.5750    0.0000 C   0  0  0  0  0  0  0  0  0  0  0  0
    0.9292   -0.8625    0.0000 N   0  0  0  0  0  0  0  0  0  0  0  0
    1.5417   -2.6417    0.0000 C   0  0  0  0  0  0  0  0  0  0  0  0
    2.1625   -1.5667    0.0000 O   0  0  0  0  0  0  0  0  0  0  0  0
    0.3167   -1.9292    0.0000 C   0  0  0  0  0  0  0  0  0  0  0  0
    0.3125   -0.5042    0.0000 C   0  0  0  0  0  0  0  0  0  0  0  0
    1.5417   -0.5042    0.0000 C   0  0  0  0  0  0  0  0  0  0  0  0
    0.9250   -2.9917    0.0000 C   0  0  0  0  0  0  0  0  0  0  0  0
    2.1542   -2.9917    0.0000 C   0  0  0  0  0  0  0  0  0  0  0  0
   -0.3083   -0.8542    0.0000 C   0  0  0  0  0  0  0  0  0  0  0  0
    2.1542   -3.7042    0.0000 C   0  0  0  0  0  0  0  0  0  0  0  0
    0.9167   -3.7042    0.0000 C   0  0  0  0  0  0  0  0  0  0  0  0
    1.5375   -4.0625    0.0000 C   0  0  0  0  0  0  0  0  0  0  0  0
  3  2  1  0
  4  3  1  0
  5  2  1  0
  6  2  1  0
  7  3  1  0
  8  4  1  0
  9  4  1  0
 10  5  2  0
 11  5  1  0
 12  8  1  0
 13 11  2  0
 14 10  1  0
 15 14  2  0
 13 15  1  0
M  END
> <chembl_id>
CHEMBL2106678

> <chembl_pref_name>
ETAFEDRINE HYDROCHLORIDE
