
     RDKit          2D

 32 36  0  0  0  0  0  0  0  0999 V2000
   -6.4527    1.4732    0.0000 C   0  0  0  0  0  0  0  0  0  0  0  0
   -7.1671    1.0607    0.0000 C   0  0  0  0  0  0  0  0  0  0  0  0
   -7.1671    0.2357    0.0000 C   0  0  0  0  0  0  0  0  0  0  0  0
   -6.4527   -0.1768    0.0000 C   0  0  0  0  0  0  0  0  0  0  0  0
   -5.7382    0.2357    0.0000 C   0  0  0  0  0  0  0  0  0  0  0  0
   -5.7382    1.0607    0.0000 C   0  0  0  0  0  0  0  0  0  0  0  0
   -5.0237   -0.1768    0.0000 C   0  0  0  0  0  0  0  0  0  0  0  0
   -5.4362   -0.8913    0.0000 C   0  0  0  0  0  0  0  0  0  0  0  0
   -6.1507   -1.3038    0.0000 C   0  0  0  0  0  0  0  0  0  0  0  0
   -6.1507   -2.1288    0.0000 C   0  0  0  0  0  0  0  0  0  0  0  0
   -5.4362   -2.5413    0.0000 C   0  0  0  0  0  0  0  0  0  0  0  0
   -4.7218   -2.1288    0.0000 C   0  0  0  0  0  0  0  0  0  0  0  0
   -4.7218   -1.3038    0.0000 C   0  0  0  0  0  0  0  0  0  0  0  0
   -4.4404   -0.7602    0.0000 O   0  0  0  0  0  0  0  0  0  0  0  0
   -4.3093    0.2357    0.0000 C   0  0  0  0  0  0  0  0  0  0  0  0
   -2.6592    0.2357    0.0000 N   0  0  0  0  0  0  0  0  0  0  0  0
   -3.0717    0.9502    0.0000 C   0  0  0  0  0  0  0  0  0  0  0  0
   -3.8968    0.9502    0.0000 C   0  0  0  0  0  0  0  0  0  0  0  0
   -3.8968   -0.4788    0.0000 C   0  0  0  0  0  0  0  0  0  0  0  0
   -3.0717   -0.4788    0.0000 C   0  0  0  0  0  0  0  0  0  0  0  0
   -3.5948    0.6482    0.0000 C   0  0  0  0  0  0  0  0  0  0  0  0
   -3.3813   -0.1487    0.0000 C   0  0  0  0  0  0  0  0  0  0  0  0
   -1.8342    0.2357    0.0000 C   0  0  0  0  0  0  0  0  0  0  0  0
   -1.4217   -0.4788    0.0000 C   0  0  0  0  0  0  0  0  0  0  0  0
   -0.5967   -0.4788    0.0000 O   0  0  0  0  0  0  0  0  0  0  0  0
   -0.1842   -1.1932    0.0000 C   0  0  0  0  0  0  0  0  0  0  0  0
    0.6408   -1.1932    0.0000 C   0  0  0  0  0  0  0  0  0  0  0  0
    1.0533   -0.4788    0.0000 C   0  0  0  0  0  0  0  0  0  0  0  0
    1.0533   -1.9077    0.0000 C   0  0  0  0  0  0  0  0  0  0  0  0
    1.8783   -1.9077    0.0000 C   0  0  0  0  0  0  0  0  0  0  0  0
    2.2908   -1.1933    0.0000 C   0  0  0  0  0  0  0  0  0  0  0  0
    1.8783   -0.4788    0.0000 C   0  0  0  0  0  0  0  0  0  0  0  0
  1  2  1  0
  1  6  2  0
  2  3  2  0
  3  4  1  0
  4  5  2  0
  5  6  1  0
  5  7  1  0
  7  8  1  0
  8  9  1  0
  8 13  2  0
  9 10  2  0
 10 11  1  0
 11 12  2  0
 12 13  1  0
  7 14  1  0
  7 15  1  0
 18 15  1  0
 15 19  1  0
 16 17  1  0
 16 20  1  0
 17 18  1  0
 19 20  1  0
 15 21  1  0
 21 22  1  0
 22 16  1  0
 16 23  1  0
 23 24  1  0
 24 25  1  0
 25 26  1  0
 26 27  1  0
 28 27  2  0
 27 29  1  0
 28 32  1  0
 29 30  2  0
 30 31  1  0
 31 32  2  0
M  CHG  1  16   1
M  END
> <chembl_id>
CHEMBL1187833

> <chembl_pref_name>
UMECLIDINIUM
