
     RDKit          2D

 24 25  0  0  0  0  0  0  0  0999 V2000
   -2.6518    0.9107    0.0000 O   0  0  0  0  0  0  0  0  0  0  0  0
   -5.8961    0.3588    0.0000 C   0  0  0  0  0  0  0  0  0  0  0  0
   -6.7196    0.3637    0.0000 C   0  0  0  0  0  0  0  0  0  0  0  0
   -5.8961    1.7914    0.0000 C   0  0  0  0  0  0  0  0  0  0  0  0
   -5.4867    1.0751    0.0000 C   0  0  0  0  0  0  0  0  0  0  0  0
   -5.4770    2.5077    0.0000 N   0  0  0  0  0  0  0  0  0  0  0  0
   -7.1386    1.0751    0.0000 C   0  0  0  0  0  0  0  0  0  0  0  0
   -6.7196    1.7914    0.0000 C   0  0  0  0  0  0  0  0  0  0  0  0
   -6.3103    1.0800    0.0000 C   0  0  0  0  0  0  0  0  0  0  0  0
   -6.3054    2.5077    0.0000 C   0  0  0  0  0  0  0  0  0  0  0  0
   -7.1240   -0.3526    0.0000 C   0  0  0  0  0  0  0  0  0  0  0  0
   -7.9622    1.0751    0.0000 C   0  0  0  0  0  0  0  0  0  0  0  0
   -7.9475   -0.3575    0.0000 C   0  0  0  0  0  0  0  0  0  0  0  0
   -5.4867   -0.3428    0.0000 C   0  0  0  0  0  0  0  0  0  0  0  0
   -8.3715    0.3491    0.0000 C   0  0  0  0  0  0  0  0  0  0  0  0
   -4.7607    2.9220    0.0000 C   0  0  0  0  0  0  0  0  0  0  0  0
   -4.6584    1.0800    0.0000 C   0  0  0  0  0  0  0  0  0  0  0  0
   -8.3519   -1.0835    0.0000 O   0  0  0  0  0  0  0  0  0  0  0  0
   -9.1852   -1.0884    0.0000 C   0  0  0  0  0  0  0  0  0  0  0  0
   -4.6584   -0.3526    0.0000 C   0  0  0  0  0  0  0  0  0  0  0  0
   -4.2491    0.3637    0.0000 C   0  0  0  0  0  0  0  0  0  0  0  0
   -4.9027    2.0884    0.0000 H   0  0  0  0  0  0  0  0  0  0  0  0
   -6.4779    2.8058    0.0000 H   0  0  0  0  0  0  0  0  0  0  0  0
   -6.5393   -1.1761    0.0000 Br  0  0  0  0  0  0  0  0  0  0  0  0
  3  2  1  0
  4  5  1  0
  5  2  1  0
  6 10  1  0
  7  3  2  0
  8  4  1  0
  2  9  1  6
 10  9  1  0
 11  3  1  0
 12  7  1  0
 13 11  2  0
 14  2  1  0
 15 13  1  0
 16  6  1  0
 17  5  1  0
 18 13  1  0
 19 18  1  0
 20 14  1  0
 21 20  1  0
  5 22  1  6
 21 17  1  0
  4  6  1  0
  7  8  1  0
 15 12  2  0
  4 23  1  1
M  END
> <chembl_id>
CHEMBL1256818

> <chembl_pref_name>
DEXTROMETHORPHAN HYDROBROMIDE
