
     RDKit          2D

 26 28  0  0  0  0  0  0  0  0999 V2000
    0.5917   -6.1042    0.0000 C   0  0  0  0  0  0  0  0  0  0  0  0
    1.2000   -6.4625    0.0000 C   0  0  0  0  0  0  0  0  0  0  0  0
    1.8125   -7.5292    0.0000 N   0  0  0  0  0  0  0  0  0  0  0  0
    1.2000   -7.1750    0.0000 C   0  0  0  0  0  0  0  0  0  0  0  0
   -0.0208   -6.4625    0.0000 C   0  0  0  0  0  0  0  0  0  0  0  0
    0.0792   -5.6042    0.0000 C   0  0  0  0  0  0  0  0  0  0  0  0
    1.1292   -5.6542    0.0000 C   0  0  0  0  0  0  0  0  0  0  0  0
   -0.6333   -6.1167    0.0000 O   0  0  0  0  0  0  0  0  0  0  0  0
    2.4250   -7.1750    0.0000 C   0  0  0  0  0  0  0  0  0  0  0  0
    1.8125   -8.2292    0.0000 C   0  0  0  0  0  0  0  0  0  0  0  0
   -0.0208   -7.1750    0.0000 C   0  0  0  0  0  0  0  0  0  0  0  0
    0.5917   -7.5250    0.0000 C   0  0  0  0  0  0  0  0  0  0  0  0
    1.8125   -5.8667    0.0000 C   0  0  0  0  0  0  0  0  0  0  0  0
    0.9750   -4.9667    0.0000 C   0  0  0  0  0  0  0  0  0  0  0  0
    0.2667   -4.9125    0.0000 C   0  0  0  0  0  0  0  0  0  0  0  0
   -0.6083   -5.7875    0.0000 C   0  0  0  0  0  0  0  0  0  0  0  0
    3.0375   -7.5292    0.0000 C   0  0  0  0  0  0  0  0  0  0  0  0
    2.4167   -8.5917    0.0000 C   0  0  0  0  0  0  0  0  0  0  0  0
   -0.6375   -7.5250    0.0000 C   0  0  0  0  0  0  0  0  0  0  0  0
    2.3292   -5.3792    0.0000 C   0  0  0  0  0  0  0  0  0  0  0  0
    1.4917   -4.4792    0.0000 C   0  0  0  0  0  0  0  0  0  0  0  0
   -0.2375   -4.4042    0.0000 C   0  0  0  0  0  0  0  0  0  0  0  0
   -1.1125   -5.2917    0.0000 C   0  0  0  0  0  0  0  0  0  0  0  0
   -0.9333   -4.5917    0.0000 C   0  0  0  0  0  0  0  0  0  0  0  0
    2.1667   -4.6917    0.0000 C   0  0  0  0  0  0  0  0  0  0  0  0
    3.0375   -8.2417    0.0000 C   0  0  0  0  0  0  0  0  0  0  0  0
  2  1  1  0
  3  4  1  0
  4  2  1  0
  5  1  1  0
  6  1  1  0
  7  1  1  0
  8  5  2  0
  9  3  1  0
 10  3  1  0
 11  5  1  0
 12  4  1  0
 13  7  2  0
 14  7  1  0
 15  6  2  0
 16  6  1  0
 17  9  1  0
 18 10  1  0
 19 11  1  0
 20 13  1  0
 21 14  2  0
 22 15  1  0
 23 16  2  0
 24 22  2  0
 25 21  1  0
 26 17  1  0
 25 20  2  0
 23 24  1  0
 18 26  1  0
M  END
> <chembl_id>
CHEMBL2111157

> <chembl_pref_name>
DIPIPANONE
