
     RDKit          2D

 26 29  0  0  0  0  0  0  0  0999 V2000
   -1.5125   -0.5167    0.0000 N   0  0  0  0  0  0  0  0  0  0  0  0
   -0.5583   -1.0792    0.0000 C   0  0  0  0  0  0  0  0  0  0  0  0
   -1.5125   -2.7917    0.0000 S   0  0  0  0  0  0  0  0  0  0  0  0
   -2.4625   -1.0792    0.0000 C   0  0  0  0  0  0  0  0  0  0  0  0
   -0.5583   -2.2292    0.0000 C   0  0  0  0  0  0  0  0  0  0  0  0
   -2.4625   -2.2292    0.0000 C   0  0  0  0  0  0  0  0  0  0  0  0
    3.2375    0.0875    0.0000 N   0  0  0  0  0  0  0  0  0  0  0  0
    1.3542    1.1708    0.0000 N   0  0  0  0  0  0  0  0  0  0  0  0
    2.3000   -0.5000    0.0000 C   0  0  0  0  0  0  0  0  0  0  0  0
    0.4292   -0.5167    0.0000 C   0  0  0  0  0  0  0  0  0  0  0  0
    0.4292   -2.7917    0.0000 C   0  0  0  0  0  0  0  0  0  0  0  0
    1.3667   -1.0792    0.0000 C   0  0  0  0  0  0  0  0  0  0  0  0
   -1.5125    0.5833    0.0000 C   0  0  0  0  0  0  0  0  0  0  0  0
    2.3000    2.8708    0.0000 C   0  0  0  0  0  0  0  0  0  0  0  0
    3.3000    1.2000    0.0000 C   0  0  0  0  0  0  0  0  0  0  0  0
    1.3417    2.3083    0.0000 C   0  0  0  0  0  0  0  0  0  0  0  0
    2.3167    0.6208    0.0000 C   0  0  0  0  0  0  0  0  0  0  0  0
   -0.5625    1.1458    0.0000 C   0  0  0  0  0  0  0  0  0  0  0  0
    3.3000    2.3208    0.0000 C   0  0  0  0  0  0  0  0  0  0  0  0
    1.3667   -2.2292    0.0000 C   0  0  0  0  0  0  0  0  0  0  0  0
    0.4167    0.6000    0.0000 C   0  0  0  0  0  0  0  0  0  0  0  0
   -3.4083   -0.5167    0.0000 C   0  0  0  0  0  0  0  0  0  0  0  0
    4.2625    2.8708    0.0000 O   0  0  0  0  0  0  0  0  0  0  0  0
   -3.4083   -2.7917    0.0000 C   0  0  0  0  0  0  0  0  0  0  0  0
   -4.3458   -1.0417    0.0000 C   0  0  0  0  0  0  0  0  0  0  0  0
   -4.3458   -2.2667    0.0000 C   0  0  0  0  0  0  0  0  0  0  0  0
  2  1  1  0
  3  6  1  0
  4  1  1  0
  5  2  2  0
  6  4  2  0
  7  9  3  0
  8 21  1  0
  9 12  1  0
 10  2  1  0
 11  5  1  0
 12 10  2  0
 13  1  1  0
 14 16  1  0
 15 17  1  0
 16  8  1  0
 17  8  1  0
 18 13  1  0
 19 15  1  0
 20 12  1  0
 21 18  1  0
 22  4  1  0
 23 19  1  0
 24  6  1  0
 25 22  2  0
 26 25  1  0
  5  3  1  0
 24 26  2  0
 11 20  2  0
 14 19  1  0
M  END
> <chembl_id>
CHEMBL251940

> <chembl_pref_name>
PERICIAZINE
