
     RDKit          2D

 23 26  0  0  0  0  0  0  0  0999 V2000
   17.3332    0.7562    0.0000 C   0  0  0  0  0  0  0  0  0  0  0  0
   18.7667   -0.0734    0.0000 N   0  0  0  0  0  0  0  0  0  0  0  0
   18.7667    0.7562    0.0000 C   0  0  0  0  0  0  0  0  0  0  0  0
   18.0478    1.1733    0.0000 N   0  0  0  0  0  0  0  0  0  0  0  0
   18.0478   -0.4858    0.0000 C   0  0  0  0  0  0  0  0  0  0  0  0
   17.3271   -0.0750    0.0000 C   0  0  0  0  0  0  0  0  0  0  0  0
   16.7136   -0.6335    0.0000 C   0  0  0  0  0  0  0  0  0  0  0  0
   17.0552   -1.3894    0.0000 C   0  0  0  0  0  0  0  0  0  0  0  0
   17.8797   -1.2982    0.0000 N   0  0  0  0  0  0  0  0  0  0  0  0
   16.6154    1.1725    0.0000 C   0  0  0  0  0  0  0  0  0  0  0  0
   16.6123    1.9975    0.0000 C   0  0  0  0  0  0  0  0  0  0  0  0
   15.8268    2.2495    0.0000 N   0  0  0  0  0  0  0  0  0  0  0  0
   15.3443    1.5803    0.0000 N   0  0  0  0  0  0  0  0  0  0  0  0
   15.8318    0.9148    0.0000 C   0  0  0  0  0  0  0  0  0  0  0  0
   14.5194    1.5772    0.0000 C   0  0  0  0  0  0  0  0  0  0  0  0
   14.1043    2.2900    0.0000 C   0  0  0  0  0  0  0  0  0  0  0  0
   14.4370    3.0453    0.0000 C   0  0  0  0  0  0  0  0  0  0  0  0
   13.8218    3.5949    0.0000 C   0  0  0  0  0  0  0  0  0  0  0  0
   13.1089    3.1797    0.0000 C   0  0  0  0  0  0  0  0  0  0  0  0
   13.2836    2.3736    0.0000 C   0  0  0  0  0  0  0  0  0  0  0  0
   14.1096    0.8611    0.0000 C   0  0  0  0  0  0  0  0  0  0  0  0
   13.2847    0.8581    0.0000 C   0  0  0  0  0  0  0  0  0  0  0  0
   12.4569    0.8662    0.0000 N   0  0  0  0  0  0  0  0  0  0  0  0
  1  6  1  0
  1  4  2  0
 11 12  2  0
 12 13  1  0
 13 14  1  0
 14 10  2  0
  1 10  1  0
  5  2  1  0
 13 15  1  0
  2  3  2  0
 15 16  1  6
 16 17  1  0
  6  7  1  0
  7  8  2  0
  8  9  1  0
  9  5  1  0
 17 18  1  0
 18 19  1  0
 19 20  1  0
 20 16  1  0
 10 11  1  0
 15 21  1  0
  3  4  1  0
 21 22  1  0
  5  6  2  0
 22 23  3  0
M  END
> <chembl_id>
CHEMBL1789941

> <chembl_pref_name>
RUXOLITINIB
