
     RDKit          2D

 11  9  0  0  0  0  0  0  0  0999 V2000
    5.7875  -16.6563    0.0000 Cl  0  0  0  0  0  0  0  0  0  0  0  0
    2.6304  -18.9099    0.0000 C   0  0  0  0  0  0  0  0  0  0  0  0
    3.3444  -18.4966    0.0000 C   0  0  0  0  0  0  0  0  0  0  0  0
    4.0584  -18.9058    0.0000 C   0  0  0  0  0  0  0  0  0  0  0  0
    4.7724  -18.4924    0.0000 C   0  0  0  0  0  0  0  0  0  0  0  0
    5.4863  -18.9016    0.0000 C   0  0  0  0  0  0  0  0  0  0  0  0
    5.4912  -19.7232    0.0000 O   0  0  0  0  0  0  0  0  0  0  0  0
    6.1999  -18.4865    0.0000 O   0  0  0  0  0  0  0  0  0  0  0  0
    1.9155  -18.5009    0.0000 O   0  0  0  0  0  0  0  0  0  0  0  0
    2.6314  -19.7375    0.0000 O   0  0  0  0  0  0  0  0  0  0  0  0
    3.3426  -17.6698    0.0000 N   0  0  0  0  0  0  0  0  0  0  0  0
  3  4  1  0
  6  7  1  0
  6  8  2  0
  4  5  1  0
  2  9  1  0
  2 10  2  0
  2  3  1  0
  3 11  1  1
  5  6  1  0
M  END
> <chembl_id>
CHEMBL1255943

> <chembl_pref_name>
GLUTAMIC ACID HYDROCHLORIDE
