
     RDKit          2D

 11 11  0  0  0  0  0  0  0  0999 V2000
   -0.5833    1.7208    0.0000 C   0  0  0  0  0  0  0  0  0  0  0  0
    0.6542    0.9958    0.0000 C   0  0  0  0  0  0  0  0  0  0  0  0
   -1.8208    0.9958    0.0000 O   0  0  0  0  0  0  0  0  0  0  0  0
    0.6542   -0.4625    0.0000 C   0  0  0  0  0  0  0  0  0  0  0  0
   -0.5833    3.1458    0.0000 O   0  0  0  0  0  0  0  0  0  0  0  0
    1.8917    1.7208    0.0000 O   0  0  0  0  0  0  0  0  0  0  0  0
    1.8917   -1.1542    0.0000 C   0  0  0  0  0  0  0  0  0  0  0  0
   -0.5833   -1.1542    0.0000 C   0  0  0  0  0  0  0  0  0  0  0  0
    1.8917   -2.6042    0.0000 C   0  0  0  0  0  0  0  0  0  0  0  0
   -0.5833   -2.6042    0.0000 C   0  0  0  0  0  0  0  0  0  0  0  0
    0.6542   -3.3000    0.0000 C   0  0  0  0  0  0  0  0  0  0  0  0
  2  1  1  0
  3  1  2  0
  4  2  1  0
  5  1  1  0
  6  2  1  0
  7  4  1  0
  8  4  2  0
  9  7  2  0
 10  8  1  0
 11 10  2  0
  9 11  1  0
M  END
> <chembl_id>
CHEMBL1609

> <chembl_pref_name>
MANDELIC ACID
