
     RDKit          2D

 38 42  0  0  0  0  0  0  0  0999 V2000
   -7.4584   -6.3909    0.0000 C   0  0  0  0  0  0  0  0  0  0  0  0
   -8.1729   -6.8034    0.0000 C   0  0  0  0  0  0  0  0  0  0  0  0
   -8.1729   -7.6284    0.0000 C   0  0  0  0  0  0  0  0  0  0  0  0
   -7.4584   -8.0409    0.0000 C   0  0  0  0  0  0  0  0  0  0  0  0
   -6.7439   -7.6284    0.0000 C   0  0  0  0  0  0  0  0  0  0  0  0
   -6.7439   -6.8034    0.0000 C   0  0  0  0  0  0  0  0  0  0  0  0
   -6.0294   -8.0409    0.0000 O   0  0  0  0  0  0  0  0  0  0  0  0
   -5.3150   -7.6284    0.0000 C   0  0  0  0  0  0  0  0  0  0  0  0
   -4.6005   -8.0409    0.0000 F   0  0  0  0  0  0  0  0  0  0  0  0
   -5.3150   -6.8034    0.0000 F   0  0  0  0  0  0  0  0  0  0  0  0
   -4.6005   -7.2159    0.0000 F   0  0  0  0  0  0  0  0  0  0  0  0
   -8.8874   -6.3909    0.0000 O   0  0  0  0  0  0  0  0  0  0  0  0
   -9.6019   -6.8034    0.0000 C   0  0  0  0  0  0  0  0  0  0  0  0
  -10.3163   -6.3909    0.0000 C   0  0  0  0  0  0  0  0  0  0  0  0
  -11.0308   -6.8034    0.0000 C   0  0  0  0  0  0  0  0  0  0  0  0
  -11.0308   -7.6284    0.0000 N   0  0  0  0  0  0  0  0  0  0  0  0
  -10.3164   -8.0409    0.0000 C   0  0  0  0  0  0  0  0  0  0  0  0
   -9.6019   -7.6284    0.0000 C   0  0  0  0  0  0  0  0  0  0  0  0
  -11.7453   -8.0409    0.0000 C   0  0  0  0  0  0  0  0  0  0  0  0
  -12.4598   -7.6284    0.0000 C   0  0  0  0  0  0  0  0  0  0  0  0
  -13.1743   -8.0409    0.0000 C   0  0  0  0  0  0  0  0  0  0  0  0
  -13.1743   -8.8659    0.0000 C   0  0  0  0  0  0  0  0  0  0  0  0
  -12.4598   -9.2784    0.0000 C   0  0  0  0  0  0  0  0  0  0  0  0
  -11.7453   -8.8659    0.0000 C   0  0  0  0  0  0  0  0  0  0  0  0
  -13.8888   -9.2784    0.0000 O   0  0  0  0  0  0  0  0  0  0  0  0
  -14.6032   -8.8659    0.0000 C   0  0  0  0  0  0  0  0  0  0  0  0
  -15.3177   -9.2784    0.0000 C   0  0  0  0  0  0  0  0  0  0  0  0
  -16.0714   -8.9428    0.0000 O   0  0  0  0  0  0  0  0  0  0  0  0
  -16.6234   -9.5559    0.0000 C   0  0  0  0  0  0  0  0  0  0  0  0
  -16.2109  -10.2703    0.0000 N   0  0  0  0  0  0  0  0  0  0  0  0
  -15.4040  -10.0988    0.0000 C   0  0  0  0  0  0  0  0  0  0  0  0
  -16.7629  -10.8834    0.0000 C   0  0  0  0  0  0  0  0  0  0  0  0
  -17.5166  -10.5479    0.0000 C   0  0  0  0  0  0  0  0  0  0  0  0
  -17.4304   -9.7274    0.0000 N   0  0  0  0  0  0  0  0  0  0  0  0
  -14.6032   -9.6909    0.0000 C   0  0  0  0  0  0  0  0  0  0  0  0
  -18.2310  -10.9604    0.0000 N   0  0  0  0  0  0  0  0  0  0  0  0
  -18.9455  -10.5479    0.0000 O   0  0  0  0  0  0  0  0  0  0  0  0
  -18.2310  -11.7854    0.0000 O   0  0  0  0  0  0  0  0  0  0  0  0
  1  2  1  0
  1  6  2  0
  2  3  2  0
  3  4  1  0
  4  5  2  0
  5  6  1  0
  5  7  1  0
  7  8  1  0
  8  9  1  0
  8 10  1  0
  8 11  1  0
  2 12  1  0
 12 13  1  0
 13 14  1  0
 18 13  1  0
 14 15  1  0
 15 16  1  0
 16 17  1  0
 17 18  1  0
 16 19  1  0
 19 20  2  0
 24 19  1  0
 20 21  1  0
 21 22  2  0
 22 23  1  0
 23 24  2  0
 22 25  1  0
 25 26  1  0
 27 26  1  1
 27 28  1  0
 27 31  1  0
 28 29  1  0
 30 31  1  0
 29 34  2  0
 29 30  1  0
 30 32  1  0
 32 33  2  0
 33 34  1  0
 27 35  1  6
 33 36  1  0
 36 37  1  0
 36 38  2  0
M  CHG  2  36   1  37  -1
M  END
> <chembl_id>
CHEMBL218650

> <chembl_pref_name>
DELAMANID
