
     RDKit          2D

 63 66  0  0  0  0  0  0  0  0999 V2000
   11.5944   -1.8833    0.0000 C   0  0  0  0  0  0  0  0  0  0  0  0
   11.5932   -2.5940    0.0000 C   0  0  0  0  0  0  0  0  0  0  0  0
   12.2081   -2.9485    0.0000 C   0  0  0  0  0  0  0  0  0  0  0  0
   12.8203   -2.5935    0.0000 C   0  0  0  0  0  0  0  0  0  0  0  0
   12.8175   -1.8797    0.0000 C   0  0  0  0  0  0  0  0  0  0  0  0
   12.2063   -1.5289    0.0000 C   0  0  0  0  0  0  0  0  0  0  0  0
   13.4297   -1.5235    0.0000 S   0  0  0  0  0  0  0  0  0  0  0  0
   14.0443   -1.8756    0.0000 O   0  0  0  0  0  0  0  0  0  0  0  0
   13.7792   -0.9042    0.0000 O   0  0  0  0  0  0  0  0  0  0  0  0
   13.0708   -0.9042    0.0000 O   0  0  0  0  0  0  0  0  0  0  0  0
   10.9796   -2.9478    0.0000 C   0  0  0  0  0  0  0  0  0  0  0  0
    1.0618   -0.7741    0.0000 C   0  0  0  0  0  0  0  0  0  0  0  0
    0.3535   -0.7741    0.0000 C   0  0  0  0  0  0  0  0  0  0  0  0
    0.1342   -1.4457    0.0000 C   0  0  0  0  0  0  0  0  0  0  0  0
    0.7076   -1.8658    0.0000 O   0  0  0  0  0  0  0  0  0  0  0  0
    1.2810   -1.4457    0.0000 C   0  0  0  0  0  0  0  0  0  0  0  0
    1.8944   -1.8000    0.0000 C   0  0  0  0  0  0  0  0  0  0  0  0
    1.8932   -2.5107    0.0000 C   0  0  0  0  0  0  0  0  0  0  0  0
    2.5081   -2.8652    0.0000 C   0  0  0  0  0  0  0  0  0  0  0  0
    2.5063   -1.4455    0.0000 C   0  0  0  0  0  0  0  0  0  0  0  0
    3.1175   -1.7963    0.0000 C   0  0  0  0  0  0  0  0  0  0  0  0
    3.1185   -2.5070    0.0000 C   0  0  0  0  0  0  0  0  0  0  0  0
    3.7336   -2.8599    0.0000 N   0  0  0  0  0  0  0  0  0  0  0  0
    4.3479   -2.5031    0.0000 C   0  0  0  0  0  0  0  0  0  0  0  0
    4.3434   -1.7897    0.0000 N   0  0  0  0  0  0  0  0  0  0  0  0
    3.7279   -1.4400    0.0000 C   0  0  0  0  0  0  0  0  0  0  0  0
    3.7238   -0.7317    0.0000 N   0  0  0  0  0  0  0  0  0  0  0  0
    4.3351   -0.3739    0.0000 C   0  0  0  0  0  0  0  0  0  0  0  0
    4.9472   -0.7270    0.0000 C   0  0  0  0  0  0  0  0  0  0  0  0
    5.5581   -0.3699    0.0000 C   0  0  0  0  0  0  0  0  0  0  0  0
    5.5543    0.3392    0.0000 C   0  0  0  0  0  0  0  0  0  0  0  0
    4.9345    0.6896    0.0000 C   0  0  0  0  0  0  0  0  0  0  0  0
    4.3261    0.3304    0.0000 C   0  0  0  0  0  0  0  0  0  0  0  0
    6.1652    0.6978    0.0000 O   0  0  0  0  0  0  0  0  0  0  0  0
    6.7812    0.3480    0.0000 C   0  0  0  0  0  0  0  0  0  0  0  0
    7.3920    0.7066    0.0000 C   0  0  0  0  0  0  0  0  0  0  0  0
    4.9279    1.3979    0.0000 Cl  0  0  0  0  0  0  0  0  0  0  0  0
    8.0062    0.3548    0.0000 C   0  0  0  0  0  0  0  0  0  0  0  0
    8.6166    0.7128    0.0000 C   0  0  0  0  0  0  0  0  0  0  0  0
    8.6119    1.4218    0.0000 C   0  0  0  0  0  0  0  0  0  0  0  0
    7.9916    1.7714    0.0000 C   0  0  0  0  0  0  0  0  0  0  0  0
    7.3837    1.4114    0.0000 C   0  0  0  0  0  0  0  0  0  0  0  0
    9.2324    0.3627    0.0000 F   0  0  0  0  0  0  0  0  0  0  0  0
   -0.4833   -1.7917    0.0000 C   0  0  0  0  0  0  0  0  0  0  0  0
   -1.0921   -1.4296    0.0000 N   0  0  0  0  0  0  0  0  0  0  0  0
   -1.7101   -1.7758    0.0000 C   0  0  0  0  0  0  0  0  0  0  0  0
   -2.3189   -1.4137    0.0000 C   0  0  0  0  0  0  0  0  0  0  0  0
   -2.9369   -1.7599    0.0000 S   0  0  0  0  0  0  0  0  0  0  0  0
   -3.5457   -1.3978    0.0000 C   0  0  0  0  0  0  0  0  0  0  0  0
   -2.5875   -2.3708    0.0000 O   0  0  0  0  0  0  0  0  0  0  0  0
   -3.2958   -2.3708    0.0000 O   0  0  0  0  0  0  0  0  0  0  0  0
    8.2569   -1.8833    0.0000 C   0  0  0  0  0  0  0  0  0  0  0  0
    8.2557   -2.5940    0.0000 C   0  0  0  0  0  0  0  0  0  0  0  0
    8.8706   -2.9485    0.0000 C   0  0  0  0  0  0  0  0  0  0  0  0
    9.4828   -2.5935    0.0000 C   0  0  0  0  0  0  0  0  0  0  0  0
    9.4800   -1.8797    0.0000 C   0  0  0  0  0  0  0  0  0  0  0  0
    8.8688   -1.5289    0.0000 C   0  0  0  0  0  0  0  0  0  0  0  0
   10.0922   -1.5235    0.0000 S   0  0  0  0  0  0  0  0  0  0  0  0
   10.7068   -1.8756    0.0000 O   0  0  0  0  0  0  0  0  0  0  0  0
   10.4417   -0.9042    0.0000 O   0  0  0  0  0  0  0  0  0  0  0  0
    9.7333   -0.9042    0.0000 O   0  0  0  0  0  0  0  0  0  0  0  0
    7.6421   -2.9478    0.0000 C   0  0  0  0  0  0  0  0  0  0  0  0
    6.5458   -2.8583    0.0000 O   0  0  0  0  0  0  0  0  0  0  0  0
  1  2  2  0
  2  3  1  0
  3  4  2  0
  4  5  1  0
  5  6  2  0
  6  1  1  0
  5  7  1  0
  7  8  1  0
  7  9  2  0
  7 10  2  0
  2 11  1  0
 39 40  2  0
 23 24  2  0
 40 41  1  0
 16 12  2  0
 41 42  2  0
 42 36  1  0
 24 25  1  0
 39 43  1  0
 17 16  1  0
 14 44  1  0
 25 26  2  0
 44 45  1  0
 26 21  1  0
 45 46  1  0
 46 47  1  0
 26 27  1  0
 47 48  1  0
 17 18  2  0
 48 49  1  0
 27 28  1  0
 48 50  2  0
 48 51  2  0
 28 29  2  0
 18 19  1  0
 29 30  1  0
 19 22  2  0
 30 31  2  0
 31 32  1  0
 21 20  2  0
 32 33  2  0
 33 28  1  0
 20 17  1  0
 31 34  1  0
 12 13  1  0
 34 35  1  0
 13 14  2  0
 35 36  1  0
 21 22  1  0
 32 37  1  0
 14 15  1  0
 36 38  2  0
 22 23  1  0
 38 39  1  0
 15 16  1  0
 52 53  2  0
 53 54  1  0
 54 55  2  0
 55 56  1  0
 56 57  2  0
 57 52  1  0
 56 58  1  0
 58 59  1  0
 58 60  2  0
 58 61  2  0
 53 62  1  0
M  END
> <chembl_id>
CHEMBL1201179

> <chembl_pref_name>
LAPATINIB DITOSYLATE
