
     RDKit          2D

 25 25  0  0  0  0  0  0  0  0999 V2000
    3.5038   -2.4621    0.0000 O   0  0  0  0  0  0  0  0  0  0  0  0
   -0.3782    0.1164    0.0000 C   0  0  0  0  0  0  0  0  0  0  0  0
   -0.3928   -0.7128    0.0000 C   0  0  0  0  0  0  0  0  0  0  0  0
   -1.1783   -0.9650    0.0000 N   0  0  0  0  0  0  0  0  0  0  0  0
   -1.1541    0.3540    0.0000 C   0  0  0  0  0  0  0  0  0  0  0  0
    0.3297    0.5382    0.0000 C   0  0  0  0  0  0  0  0  0  0  0  0
   -1.6583   -0.2618    0.0000 C   0  0  0  0  0  0  0  0  0  0  0  0
    2.4633    0.1940    0.0000 N   0  0  0  0  0  0  0  0  0  0  0  0
    1.0425    0.1358    0.0000 C   0  0  0  0  0  0  0  0  0  0  0  0
    2.6911   -0.6158    0.0000 C   0  0  0  0  0  0  0  0  0  0  0  0
    3.5154   -0.6206    0.0000 N   0  0  0  0  0  0  0  0  0  0  0  0
    1.7359    0.5624    0.0000 C   0  0  0  0  0  0  0  0  0  0  0  0
    0.3249   -1.1152    0.0000 C   0  0  0  0  0  0  0  0  0  0  0  0
    3.7772    0.1794    0.0000 C   0  0  0  0  0  0  0  0  0  0  0  0
    3.1226    0.6400    0.0000 C   0  0  0  0  0  0  0  0  0  0  0  0
    1.0474   -0.6982    0.0000 C   0  0  0  0  0  0  0  0  0  0  0  0
    0.3297    1.3528    0.0000 O   0  0  0  0  0  0  0  0  0  0  0  0
   -1.4256   -1.7650    0.0000 C   0  0  0  0  0  0  0  0  0  0  0  0
   -1.4450    1.1346    0.0000 C   0  0  0  0  0  0  0  0  0  0  0  0
   -2.4778   -0.1600    0.0000 C   0  0  0  0  0  0  0  0  0  0  0  0
    2.2741   -1.3237    0.0000 C   0  0  0  0  0  0  0  0  0  0  0  0
   -2.2644    1.2655    0.0000 C   0  0  0  0  0  0  0  0  0  0  0  0
   -2.7978    0.6110    0.0000 C   0  0  0  0  0  0  0  0  0  0  0  0
    1.0522   -2.1141    0.0000 Cl  0  0  0  0  0  0  0  0  0  0  0  0
    2.2727   -2.6831    0.0000 O   0  0  0  0  0  0  0  0  0  0  0  0
  3  2  2  0
  4  3  1  0
  5  2  1  0
  6  2  1  0
  7  5  1  0
  8 12  1  0
  9  6  1  0
 10  8  1  0
 11 10  2  0
 12  9  1  0
 13  3  1  0
 14 15  2  0
 15  8  1  0
 16  9  1  0
 17  6  2  0
 18  4  1  0
 19  5  2  0
 20  7  2  0
 21 10  1  0
 22 19  1  0
 23 22  2  0
  4  7  1  0
 16 13  1  0
 23 20  1  0
 14 11  1  0
M  END
> <chembl_id>
CHEMBL3186492

> <chembl_pref_name>
ONDANSETRON HYDROCHLORIDE
