
     RDKit          2D

 16 17  0  0  0  0  0  0  0  0999 V2000
   10.4143   -9.0213    0.0000 C   0  0  0  0  0  0  0  0  0  0  0  0
   11.1399   -8.6106    0.0000 C   0  0  0  0  0  0  0  0  0  0  0  0
   10.4095   -9.8363    0.0000 C   0  0  0  0  0  0  0  0  0  0  0  0
   11.8406   -9.0298    0.0000 C   0  0  0  0  0  0  0  0  0  0  0  0
   11.1301  -10.2581    0.0000 N   0  0  0  0  0  0  0  0  0  0  0  0
   11.8357   -9.8448    0.0000 C   0  0  0  0  0  0  0  0  0  0  0  0
    9.6937   -8.6145    0.0000 S   0  0  0  0  0  0  0  0  0  0  0  0
   12.5463  -10.2664    0.0000 C   0  0  0  0  0  0  0  0  0  0  0  0
   12.5561   -8.6191    0.0000 C   0  0  0  0  0  0  0  0  0  0  0  0
   11.1447   -7.7908    0.0000 O   0  0  0  0  0  0  0  0  0  0  0  0
    9.6837   -7.7821    0.0000 O   0  0  0  0  0  0  0  0  0  0  0  0
   13.2644   -9.8532    0.0000 C   0  0  0  0  0  0  0  0  0  0  0  0
   13.2692   -9.0382    0.0000 C   0  0  0  0  0  0  0  0  0  0  0  0
   11.1251  -11.0854    0.0000 C   0  0  0  0  0  0  0  0  0  0  0  0
   13.9999  -10.2651    0.0000 F   0  0  0  0  0  0  0  0  0  0  0  0
    8.9832   -9.0129    0.0000 C   0  0  0  0  0  0  0  0  0  0  0  0
  2  1  1  0
  3  1  2  0
  4  2  1  0
  5  3  1  0
  6  5  1  0
  7  1  1  0
  8  6  1  0
  9  4  1  0
 10  2  2  0
 11  7  1  0
 12  8  2  0
 13  9  2  0
 14  5  1  0
 15 12  1  0
 16  7  1  0
  4  6  2  0
 13 12  1  0
M  CHG  2   7   1  11  -1
M  END
> <chembl_id>
CHEMBL1908307

> <chembl_pref_name>
FLOSEQUINAN
