
     RDKit          2D

 14 16  0  0  0  0  0  0  0  0999 V2000
   -4.9924    1.8737    0.0000 C   0  0  0  0  0  0  0  0  0  0  0  0
   -5.7069    1.4611    0.0000 C   0  0  0  0  0  0  0  0  0  0  0  0
   -5.7069    0.6361    0.0000 C   0  0  0  0  0  0  0  0  0  0  0  0
   -4.9924    0.2236    0.0000 C   0  0  0  0  0  0  0  0  0  0  0  0
   -4.2779    0.6361    0.0000 C   0  0  0  0  0  0  0  0  0  0  0  0
   -4.2779    1.4611    0.0000 C   0  0  0  0  0  0  0  0  0  0  0  0
   -3.4934    0.3812    0.0000 C   0  0  0  0  0  0  0  0  0  0  0  0
   -3.0084    1.0486    0.0000 O   0  0  0  0  0  0  0  0  0  0  0  0
   -3.4933    1.7160    0.0000 C   0  0  0  0  0  0  0  0  0  0  0  0
   -4.2348    2.2850    0.0000 C   0  0  0  0  0  0  0  0  0  0  0  0
   -4.1917   -0.1844    0.0000 C   0  0  0  0  0  0  0  0  0  0  0  0
   -5.0356    1.0498    0.0000 O   0  0  0  0  0  0  0  0  0  0  0  0
   -3.2383    2.5006    0.0000 O   0  0  0  0  0  0  0  0  0  0  0  0
   -3.2384   -0.4034    0.0000 O   0  0  0  0  0  0  0  0  0  0  0  0
  1  2  1  0
  2  3  1  0
  3  4  1  0
  4  5  1  0
  5  6  1  0
  1  6  1  0
  7  8  1  0
  8  9  1  0
  5  7  1  0
  6  9  1  0
  6 10  1  6
  5 11  1  6
  1 12  1  1
  4 12  1  1
  9 13  2  0
  7 14  2  0
M  END
> <chembl_id>
CHEMBL48449

> <chembl_pref_name>
CANTHARIDIN
