
     RDKit          2D

 22 24  0  0  0  0  0  0  0  0999 V2000
    0.7917    0.4750    0.0000 N   0  0  0  0  0  0  0  0  0  0  0  0
    1.0333   -0.3125    0.0000 C   0  0  0  0  0  0  0  0  0  0  0  0
    0.5667   -0.9958    0.0000 C   0  0  0  0  0  0  0  0  0  0  0  0
    1.3958    1.0375    0.0000 C   0  0  0  0  0  0  0  0  0  0  0  0
   -0.2542   -1.0583    0.0000 C   0  0  0  0  0  0  0  0  0  0  0  0
    0.0208    0.7750    0.0000 C   0  0  0  0  0  0  0  0  0  0  0  0
   -0.6917    0.3625    0.0000 C   0  0  0  0  0  0  0  0  0  0  0  0
   -0.8167   -0.4500    0.0000 C   0  0  0  0  0  0  0  0  0  0  0  0
   -0.8375   -1.6417    0.0000 O   0  0  0  0  0  0  0  0  0  0  0  0
   -1.6333   -1.4250    0.0000 C   0  0  0  0  0  0  0  0  0  0  0  0
    1.2125    1.8417    0.0000 O   0  0  0  0  0  0  0  0  0  0  0  0
   -1.8500   -0.6292    0.0000 O   0  0  0  0  0  0  0  0  0  0  0  0
    2.1833    0.7917    0.0000 N   0  0  0  0  0  0  0  0  0  0  0  0
    1.8542   -0.3750    0.0000 C   0  0  0  0  0  0  0  0  0  0  0  0
    0.9250   -1.7375    0.0000 C   0  0  0  0  0  0  0  0  0  0  0  0
    0.0208    1.6000    0.0000 C   0  0  0  0  0  0  0  0  0  0  0  0
   -1.4083    0.7750    0.0000 C   0  0  0  0  0  0  0  0  0  0  0  0
   -2.2167   -2.0083    0.0000 C   0  0  0  0  0  0  0  0  0  0  0  0
    2.2125   -1.1167    0.0000 C   0  0  0  0  0  0  0  0  0  0  0  0
    1.7500   -1.8000    0.0000 C   0  0  0  0  0  0  0  0  0  0  0  0
   -0.6917    2.0125    0.0000 C   0  0  0  0  0  0  0  0  0  0  0  0
   -1.4083    1.6000    0.0000 C   0  0  0  0  0  0  0  0  0  0  0  0
  2  1  1  0
  3  2  2  0
  4  1  1  0
  5  3  1  0
  6  1  1  0
  7  6  2  0
  8  7  1  0
  5  9  1  1
 10  9  1  0
 11  4  2  0
 12 10  2  0
 13  4  1  0
 14  2  1  0
 15  3  1  0
 16  6  1  0
 17  7  1  0
 18 10  1  0
 19 14  2  0
 20 19  1  0
 21 16  2  0
 22 21  1  0
  5  8  1  0
 17 22  2  0
 20 15  2  0
M  END
> <chembl_id>
CHEMBL87992

> <chembl_pref_name>
ESLICARBAZEPINE ACETATE
