
     RDKit          2D

 33 34  0  0  0  0  0  0  0  0999 V2000
   -0.1333    2.5958    0.0000 K   0  0  0  0  0 15  0  0  0  0  0  0
    0.1042    0.9208    0.0000 C   0  0  0  0  0  0  0  0  0  0  0  0
   -0.6125    1.3333    0.0000 C   0  0  0  0  0  0  0  0  0  0  0  0
   -0.6125   -0.3167    0.0000 C   0  0  0  0  0  0  0  0  0  0  0  0
    0.1042    0.0958    0.0000 N   0  0  0  0  0  0  0  0  0  0  0  0
   -1.3250    0.0958    0.0000 N   0  0  0  0  0  0  0  0  0  0  0  0
   -1.3250    0.9208    0.0000 C   0  0  0  0  0  0  0  0  0  0  0  0
   -1.3250   -3.2042    0.0000 C   0  0  0  0  0  0  0  0  0  0  0  0
   -1.9917   -3.6917    0.0000 N   0  0  0  0  0  0  0  0  0  0  0  0
   -0.6583   -3.6917    0.0000 O   0  0  0  0  0  0  0  0  0  0  0  0
   -1.3250   -2.3792    0.0000 C   0  0  0  0  0  0  0  0  0  0  0  0
   -0.6125   -1.1417    0.0000 C   0  0  0  0  0  0  0  0  0  0  0  0
   -1.7375   -4.4750    0.0000 N   0  0  0  0  0  0  0  0  0  0  0  0
    0.8167    1.3333    0.0000 C   0  0  0  0  0  0  0  0  0  0  0  0
   -0.6125   -1.9667    0.0000 N   0  0  0  0  0  0  0  0  0  0  0  0
   -0.9125   -4.4750    0.0000 C   0  0  0  0  0  0  0  0  0  0  0  0
   -0.6125    2.1583    0.0000 O   0  0  0  0  0  0  0  0  0  0  0  0
    1.5333    0.9208    0.0000 N   0  0  0  0  0  0  0  0  0  0  0  0
   -2.0375    1.3333    0.0000 O   0  0  0  0  0  0  0  0  0  0  0  0
   -2.0375   -1.9667    0.0000 O   0  0  0  0  0  0  0  0  0  0  0  0
    0.8167    2.1583    0.0000 O   0  0  0  0  0  0  0  0  0  0  0  0
   -2.0375   -0.3167    0.0000 C   0  0  0  0  0  0  0  0  0  0  0  0
    2.2458    1.3333    0.0000 C   0  0  0  0  0  0  0  0  0  0  0  0
    2.2458    3.8083    0.0000 C   0  0  0  0  0  0  0  0  0  0  0  0
    2.2458    2.1583    0.0000 C   0  0  0  0  0  0  0  0  0  0  0  0
    2.2458    4.6292    0.0000 F   0  0  0  0  0  0  0  0  0  0  0  0
    1.5333    3.3958    0.0000 C   0  0  0  0  0  0  0  0  0  0  0  0
    2.9625    3.3958    0.0000 C   0  0  0  0  0  0  0  0  0  0  0  0
    1.5333    2.5708    0.0000 C   0  0  0  0  0  0  0  0  0  0  0  0
    2.9625    2.5708    0.0000 C   0  0  0  0  0  0  0  0  0  0  0  0
    0.2125   -1.1417    0.0000 C   0  0  0  0  0  0  0  0  0  0  0  0
   -1.4375   -1.1417    0.0000 C   0  0  0  0  0  0  0  0  0  0  0  0
   -0.4292   -5.1417    0.0000 C   0  0  0  0  0  0  0  0  0  0  0  0
  3  2  2  0
  4  5  2  0
  5  2  1  0
  6  7  1  0
  7  3  1  0
  8 11  1  0
  9  8  2  0
 10  8  1  0
 11 15  1  0
 12  4  1  0
 13  9  1  0
 14  2  1  0
 15 12  1  0
 16 10  1  0
 17  3  1  0
 18 14  1  0
 19  7  2  0
 20 11  2  0
 21 14  2  0
 22  6  1  0
 23 18  1  0
 24 27  1  0
 25 23  1  0
 26 24  1  0
 27 29  2  0
 28 30  1  0
 29 25  1  0
 30 25  2  0
 31 12  1  0
 32 12  1  0
 33 16  1  0
  6  4  1  0
 28 24  2  0
 13 16  2  0
M  CHG  2   1   1  17  -1
M  END
> <chembl_id>
CHEMBL518520

> <chembl_pref_name>
RALTEGRAVIR POTASSIUM
