
     RDKit          2D

 20 21  0  0  0  0  0  0  0  0999 V2000
    0.4917    0.4000    0.0000 C   0  0  0  0  0  0  0  0  0  0  0  0
   -0.4500    0.9375    0.0000 O   0  0  0  0  0  0  0  0  0  0  0  0
    1.4500    0.9625    0.0000 C   0  0  0  0  0  0  0  0  0  0  0  0
   -1.4458    0.3708    0.0000 C   0  0  0  0  0  0  0  0  0  0  0  0
   -2.3708   -1.2542    0.0000 C   0  0  0  0  0  0  0  0  0  0  0  0
    0.4917   -0.6792    0.0000 O   0  0  0  0  0  0  0  0  0  0  0  0
   -1.4458   -0.7125    0.0000 C   0  0  0  0  0  0  0  0  0  0  0  0
    2.4042    0.4333    0.0000 C   0  0  0  0  0  0  0  0  0  0  0  0
   -3.3458   -0.6792    0.0000 C   0  0  0  0  0  0  0  0  0  0  0  0
   -2.3833    0.9375    0.0000 C   0  0  0  0  0  0  0  0  0  0  0  0
   -3.3458    0.4000    0.0000 C   0  0  0  0  0  0  0  0  0  0  0  0
    1.4500    2.0625    0.0000 O   0  0  0  0  0  0  0  0  0  0  0  0
   -2.9333   -2.2292    0.0000 C   0  0  0  0  0  0  0  0  0  0  0  0
   -1.8208   -2.2167    0.0000 C   0  0  0  0  0  0  0  0  0  0  0  0
    3.3667    0.9833    0.0000 C   0  0  0  0  0  0  0  0  0  0  0  0
    2.4042   -0.6667    0.0000 C   0  0  0  0  0  0  0  0  0  0  0  0
   -4.3458    0.9500    0.0000 C   0  0  0  0  0  0  0  0  0  0  0  0
    4.3417    0.4458    0.0000 C   0  0  0  0  0  0  0  0  0  0  0  0
    3.3792   -1.2292    0.0000 C   0  0  0  0  0  0  0  0  0  0  0  0
    4.3417   -0.6792    0.0000 C   0  0  0  0  0  0  0  0  0  0  0  0
  2  1  1  0
  3  1  1  0
  4  2  1  0
  5  7  1  0
  6  1  2  0
  7  4  1  0
  8  3  1  0
  9 11  1  0
 10  4  1  0
 11 10  1  0
 12  3  1  0
 13  5  1  0
 14  5  1  0
 15  8  1  0
 16  8  2  0
 17 11  1  0
 18 15  2  0
 19 16  1  0
 20 19  2  0
 18 20  1  0
  5  9  1  0
M  END
> <chembl_id>
CHEMBL1480987

> <chembl_pref_name>
CYCLANDELATE
