
     RDKit          2D

 33 36  0  0  1  0  0  0  0  0999 V2000
    0.2917    1.3083    0.0000 N   0  0  0  0  0  0  0  0  0  0  0  0
   -0.5083    1.3083    0.0000 C   0  0  0  0  0  0  0  0  0  0  0  0
   -0.5083    0.5083    0.0000 C   0  0  0  0  0  0  0  0  0  0  0  0
    0.2917    0.5083    0.0000 C   0  0  0  0  0  0  0  0  0  0  0  0
    0.9792    1.7083    0.0000 C   0  0  0  0  0  0  0  0  0  0  0  0
    1.6750    1.3083    0.0000 C   0  0  0  0  0  0  0  0  0  0  0  0
   -2.1833   -1.1792    0.0000 C   0  0  0  0  0  0  0  0  0  0  0  0
   -1.4208   -1.3792    0.0000 C   0  0  0  0  0  0  0  0  0  0  0  0
   -2.8500   -1.6167    0.0000 N   0  0  0  0  0  0  0  0  0  0  0  0
   -1.0625   -0.0542    0.0000 N   0  0  0  0  0  0  0  0  0  0  0  0
   -0.8625   -0.8125    0.0000 C   0  0  0  0  0  0  0  0  0  0  0  0
    0.9792    0.1083    0.0000 S   0  0  0  0  0  0  0  0  0  0  0  0
   -3.4708   -1.1125    0.0000 C   0  0  0  0  0  0  0  0  0  0  0  0
    3.0542    1.3083    0.0000 N   0  0  0  0  0  0  0  0  0  0  0  0
    0.9792    2.5000    0.0000 C   0  0  0  0  0  0  0  0  0  0  0  0
   -2.3958   -0.4125    0.0000 C   0  0  0  0  0  0  0  0  0  0  0  0
   -3.1875   -0.3667    0.0000 S   0  0  0  0  0  0  0  0  0  0  0  0
    2.3667    1.7083    0.0000 C   0  0  0  0  0  0  0  0  0  0  0  0
    1.6750    0.5083    0.0000 C   0  0  0  0  0  0  0  0  0  0  0  0
   -1.2208   -2.1500    0.0000 N   0  0  0  0  0  0  0  0  0  0  0  0
   -1.0625    1.8708    0.0000 O   0  0  0  0  0  0  0  0  0  0  0  0
   -0.1000   -1.0167    0.0000 O   0  0  0  0  0  0  0  0  0  0  0  0
    0.2875    2.9000    0.0000 O   0  0  0  0  0  0  0  0  0  0  0  0
    1.6667    2.9000    0.0000 O   0  0  0  0  0  0  0  0  0  0  0  0
   -4.2458   -1.3167    0.0000 N   0  0  0  0  0  0  0  0  0  0  0  0
   -0.4458   -2.3542    0.0000 O   0  0  0  0  0  0  0  0  0  0  0  0
    2.7542    2.0458    0.0000 C   0  0  0  0  0  0  0  0  0  0  0  0
    3.7542    1.6958    0.0000 C   0  0  0  0  0  0  0  0  0  0  0  0
    3.2250    0.5208    0.0000 C   0  0  0  0  0  0  0  0  0  0  0  0
   -0.2458   -3.1125    0.0000 C   0  0  0  0  0  0  0  0  0  0  0  0
    4.3417    1.1583    0.0000 C   0  0  0  0  0  0  0  0  0  0  0  0
    4.0042    0.4333    0.0000 C   0  0  0  0  0  0  0  0  0  0  0  0
    0.2917   -0.2917    0.0000 H   0  0  0  0  0  0  0  0  0  0  0  0
  2  1  1  0
  3  4  1  0
  4  1  1  0
  5  1  1  0
  6  5  2  0
  7  8  1  0
  8 11  1  0
  9  7  1  0
  3 10  1  6
 11 10  1  0
 12  4  1  0
 13  9  2  0
 14 18  1  0
 15  5  1  0
 16  7  2  0
 17 16  1  0
 18  6  1  0
 19  6  1  0
 20  8  2  0
 21  2  2  0
 22 11  2  0
 23 15  1  0
 24 15  2  0
 25 13  1  0
 26 20  1  0
 27 14  1  0
 28 14  1  0
 29 14  1  0
 30 26  1  0
 31 28  1  0
 32 29  1  0
  4 33  1  1
  2  3  1  0
 12 19  1  0
 32 31  1  0
 17 13  1  0
M  CHG  2  14   1  23  -1
M  END
> <chembl_id>
CHEMBL186

> <chembl_pref_name>
CEFEPIME
