
     RDKit          2D

 19 20  0  0  1  0  0  0  0  0999 V2000
    2.8667   -5.2042    0.0000 C   0  0  0  0  0  0  0  0  0  0  0  0
    3.4792   -5.5375    0.0000 C   0  0  0  0  0  0  0  0  0  0  0  0
    1.6250   -5.2042    0.0000 N   0  0  0  0  0  0  0  0  0  0  0  0
    2.8667   -4.4792    0.0000 C   0  0  0  0  0  0  0  0  0  0  0  0
    2.2417   -5.5667    0.0000 C   0  0  0  0  0  0  0  0  0  0  0  0
    2.2542   -4.1417    0.0000 C   0  0  0  0  0  0  0  0  0  0  0  0
    3.4792   -4.1417    0.0000 C   0  0  0  0  0  0  0  0  0  0  0  0
    4.0917   -5.1417    0.0000 C   0  0  0  0  0  0  0  0  0  0  0  0
    4.7167   -5.4792    0.0000 N   0  0  0  0  0  0  0  0  0  0  0  0
    2.8667   -3.0667    0.0000 C   0  0  0  0  0  0  0  0  0  0  0  0
    3.4792   -3.4125    0.0000 C   0  0  0  0  0  0  0  0  0  0  0  0
    2.2542   -3.4125    0.0000 C   0  0  0  0  0  0  0  0  0  0  0  0
    2.8667   -2.3625    0.0000 Br  0  0  0  0  0  0  0  0  0  0  0  0
    1.0167   -5.5667    0.0000 C   0  0  0  0  0  0  0  0  0  0  0  0
    2.2417   -6.2667    0.0000 C   0  0  0  0  0  0  0  0  0  0  0  0
    4.7542   -6.1792    0.0000 C   0  0  0  0  0  0  0  0  0  0  0  0
    5.3167   -5.0917    0.0000 C   0  0  0  0  0  0  0  0  0  0  0  0
    1.0167   -6.2667    0.0000 C   0  0  0  0  0  0  0  0  0  0  0  0
    1.6250   -6.6292    0.0000 C   0  0  0  0  0  0  0  0  0  0  0  0
  2  1  1  0
  3  5  2  0
  1  4  1  6
  5  1  1  0
  6  4  2  0
  7  4  1  0
  8  2  1  0
  9  8  1  0
 10 11  1  0
 11  7  2  0
 12  6  1  0
 13 10  1  0
 14  3  1  0
 15  5  1  0
 16  9  1  0
 17  9  1  0
 18 19  1  0
 19 15  2  0
 10 12  2  0
 18 14  2  0
M  END
> <chembl_id>
CHEMBL1201287

> <chembl_pref_name>
DEXBROMPHENIRAMINE
