
     RDKit          2D

 37 40  0  0  1  0  0  0  0  0999 V2000
    3.3667   -6.0167    0.0000 C   0  0  0  0  0  0  0  0  0  0  0  0
    5.1917   -4.9542    0.0000 C   0  0  0  0  0  0  0  0  0  0  0  0
    3.9792   -5.6625    0.0000 C   0  0  0  0  0  0  0  0  0  0  0  0
    5.8542   -4.7375    0.0000 C   0  0  0  0  0  0  0  0  0  0  0  0
    3.3792   -6.7292    0.0000 C   0  0  0  0  0  0  0  0  0  0  0  0
    5.2000   -5.6625    0.0000 C   0  0  0  0  0  0  0  0  0  0  0  0
    4.5917   -6.0167    0.0000 C   0  0  0  0  0  0  0  0  0  0  0  0
    3.9792   -4.9542    0.0000 C   0  0  0  0  0  0  0  0  0  0  0  0
    2.7625   -5.6625    0.0000 C   0  0  0  0  0  0  0  0  0  0  0  0
    4.5792   -4.6000    0.0000 C   0  0  0  0  0  0  0  0  0  0  0  0
    6.2792   -5.3042    0.0000 C   0  0  0  0  0  0  0  0  0  0  0  0
    5.8667   -5.8792    0.0000 C   0  0  0  0  0  0  0  0  0  0  0  0
    4.5917   -6.7292    0.0000 C   0  0  0  0  0  0  0  0  0  0  0  0
    3.9875   -7.0875    0.0000 C   0  0  0  0  0  0  0  0  0  0  0  0
    2.7750   -7.0875    0.0000 C   0  0  0  0  0  0  0  0  0  0  0  0
    5.8417   -3.9750    0.0000 C   0  0  0  0  0  0  0  0  0  0  0  0
    6.5667   -4.6500    0.0000 O   0  0  0  0  0  0  0  0  0  0  0  0
    2.1417   -6.0167    0.0000 C   0  0  0  0  0  0  0  0  0  0  0  0
    2.1542   -6.7292    0.0000 C   0  0  0  0  0  0  0  0  0  0  0  0
    7.2042   -4.3500    0.0000 C   0  0  0  0  0  0  0  0  0  0  0  0
    5.7625   -2.5500    0.0000 C   0  0  0  0  0  0  0  0  0  0  0  0
    3.9875   -6.2667    0.0000 F   0  0  0  0  0  0  0  0  0  0  0  0
    6.4292   -3.5750    0.0000 C   0  0  0  0  0  0  0  0  0  0  0  0
    5.2292   -3.6292    0.0000 O   0  0  0  0  0  0  0  0  0  0  0  0
    6.3917   -2.8625    0.0000 O   0  0  0  0  0  0  0  0  0  0  0  0
    7.2292   -3.6500    0.0000 O   0  0  0  0  0  0  0  0  0  0  0  0
    5.7292   -1.8542    0.0000 O   0  0  0  0  0  0  0  0  0  0  0  0
    1.5542   -7.0875    0.0000 O   0  0  0  0  0  0  0  0  0  0  0  0
    3.3292   -5.1667    0.0000 C   0  0  0  0  0  0  0  0  0  0  0  0
    5.1542   -4.2250    0.0000 C   0  0  0  0  0  0  0  0  0  0  0  0
    3.3667   -4.6000    0.0000 O   0  0  0  0  0  0  0  0  0  0  0  0
    3.9875   -7.8000    0.0000 F   0  0  0  0  0  0  0  0  0  0  0  0
    6.9875   -5.3042    0.0000 C   0  0  0  0  0  0  0  0  0  0  0  0
    7.7792   -4.6667    0.0000 C   0  0  0  0  0  0  0  0  0  0  0  0
    5.1917   -2.9542    0.0000 C   0  0  0  0  0  0  0  0  0  0  0  0
    5.2292   -6.3292    0.0000 H   0  0  0  0  0  0  0  0  0  0  0  0
    4.5750   -5.2042    0.0000 H   0  0  0  0  0  0  0  0  0  0  0  0
  2 10  1  0
  3  1  1  0
  4  2  1  0
  5  1  1  0
  6  7  1  0
  7  3  1  0
  8  3  1  0
  9  1  1  0
 10  8  1  0
 11 12  1  0
 12  6  1  0
 13 14  1  0
 14  5  1  0
 15  5  2  0
  4 16  1  1
  4 17  1  6
 18  9  2  0
 19 18  1  0
 20 17  1  0
 21 25  1  0
  3 22  1  6
 23 16  1  0
 24 16  2  0
 25 23  1  0
 26 20  2  0
 27 21  2  0
 28 19  2  0
  1 29  1  1
  2 30  1  1
  8 31  1  1
 14 32  1  6
 11 33  1  1
 34 20  1  0
 35 21  1  0
  6 36  1  6
  7 37  1  1
 19 15  1  0
 13  7  1  0
  6  2  1  0
 11  4  1  0
M  END
> <chembl_id>
CHEMBL1200545

> <chembl_pref_name>
DIFLORASONE DIACETATE
