
     RDKit          2D

 40 43  0  0  0  0  0  0  0  0999 V2000
    1.8424    2.1470    0.0000 P   0  0  0  0  0  0  0  0  0  0  0  0
    1.8424    1.3220    0.0000 O   0  0  0  0  0  0  0  0  0  0  0  0
    2.6674    2.1470    0.0000 O   0  0  0  0  0  0  0  0  0  0  0  0
    2.2549    2.8553    0.0000 O   0  0  0  0  0  0  0  0  0  0  0  0
    1.1279    2.5595    0.0000 O   0  0  0  0  0  0  0  0  0  0  0  0
    2.5568    0.9095    0.0000 C   0  0  0  0  0  0  0  0  0  0  0  0
    2.5568    0.0845    0.0000 N   0  0  0  0  0  0  0  0  0  0  0  0
    1.8424   -0.3280    0.0000 C   0  0  0  0  0  0  0  0  0  0  0  0
    1.8424   -1.1530    0.0000 C   0  0  0  0  0  0  0  0  0  0  0  0
    2.5568   -1.5655    0.0000 O   0  0  0  0  0  0  0  0  0  0  0  0
    3.2713   -1.1530    0.0000 C   0  0  0  0  0  0  0  0  0  0  0  0
    3.2713   -0.3280    0.0000 C   0  0  0  0  0  0  0  0  0  0  0  0
    3.9858   -1.5655    0.0000 C   0  0  0  0  0  0  0  0  0  0  0  0
    4.7003   -1.1530    0.0000 C   0  0  0  0  0  0  0  0  0  0  0  0
    4.7003   -0.3280    0.0000 C   0  0  0  0  0  0  0  0  0  0  0  0
    3.9858    0.0845    0.0000 N   0  0  0  0  0  0  0  0  0  0  0  0
    1.1279    0.0845    0.0000 O   0  0  0  0  0  0  0  0  0  0  0  0
    1.0174   -1.1530    0.0000 C   0  0  0  0  0  0  0  0  0  0  0  0
    1.6288   -1.9499    0.0000 C   0  0  0  0  0  0  0  0  0  0  0  0
    5.4147    0.0845    0.0000 N   0  0  0  0  0  0  0  0  0  0  0  0
    6.1292   -0.3280    0.0000 C   0  0  0  0  0  0  0  0  0  0  0  0
    6.1292   -1.1530    0.0000 N   0  0  0  0  0  0  0  0  0  0  0  0
    6.8437   -1.5655    0.0000 C   0  0  0  0  0  0  0  0  0  0  0  0
    7.5581   -1.1530    0.0000 N   0  0  0  0  0  0  0  0  0  0  0  0
    7.5581   -0.3280    0.0000 C   0  0  0  0  0  0  0  0  0  0  0  0
    6.8437    0.0845    0.0000 C   0  0  0  0  0  0  0  0  0  0  0  0
    6.8437    0.9095    0.0000 F   0  0  0  0  0  0  0  0  0  0  0  0
    6.8437   -2.3905    0.0000 N   0  0  0  0  0  0  0  0  0  0  0  0
    7.5581   -2.8030    0.0000 C   0  0  0  0  0  0  0  0  0  0  0  0
    7.5581   -3.6280    0.0000 C   0  0  0  0  0  0  0  0  0  0  0  0
    8.2726   -4.0405    0.0000 C   0  0  0  0  0  0  0  0  0  0  0  0
    8.9871   -3.6280    0.0000 C   0  0  0  0  0  0  0  0  0  0  0  0
    8.9871   -2.8030    0.0000 C   0  0  0  0  0  0  0  0  0  0  0  0
    8.2726   -2.3905    0.0000 C   0  0  0  0  0  0  0  0  0  0  0  0
    9.7015   -2.3905    0.0000 O   0  0  0  0  0  0  0  0  0  0  0  0
   10.4160   -2.8030    0.0000 C   0  0  0  0  0  0  0  0  0  0  0  0
    9.7015   -4.0405    0.0000 O   0  0  0  0  0  0  0  0  0  0  0  0
    9.7015   -4.8655    0.0000 C   0  0  0  0  0  0  0  0  0  0  0  0
    8.2726   -4.8655    0.0000 O   0  0  0  0  0  0  0  0  0  0  0  0
    7.5581   -5.2780    0.0000 C   0  0  0  0  0  0  0  0  0  0  0  0
  6  7  1  0
  7  8  1  0
  8  9  1  0
  9 10  1  0
 10 11  1  0
 11 12  2  0
 12  7  1  0
 11 13  1  0
 13 14  2  0
 14 15  1  0
 15 16  2  0
 16 12  1  0
  8 17  2  0
  9 18  1  0
  9 19  1  0
 15 20  1  0
 20 21  1  0
 21 22  2  0
 22 23  1  0
 23 24  2  0
 24 25  1  0
 25 26  2  0
 26 21  1  0
 26 27  1  0
 23 28  1  0
 28 29  1  0
 29 30  1  0
 30 31  2  0
 31 32  1  0
 32 33  2  0
 33 34  1  0
 34 29  2  0
 33 35  1  0
  1  2  1  0
 35 36  1  0
  1  3  1  0
 32 37  1  0
  1  4  1  0
 37 38  1  0
  1  5  2  0
 31 39  1  0
  2  6  1  0
 39 40  1  0
M  END
> <chembl_id>
CHEMBL2103830

> <chembl_pref_name>
FOSTAMATINIB
