
     RDKit          2D

 19 20  0  0  1  0  0  0  0  0999 V2000
   -0.3583   -0.8167    0.0000 C   0  0  0  0  0  0  0  0  0  0  0  0
    0.2542   -1.1500    0.0000 C   0  0  0  0  0  0  0  0  0  0  0  0
   -1.6000   -0.8167    0.0000 N   0  0  0  0  0  0  0  0  0  0  0  0
   -0.3583   -0.0917    0.0000 C   0  0  0  0  0  0  0  0  0  0  0  0
   -0.9833   -1.1792    0.0000 C   0  0  0  0  0  0  0  0  0  0  0  0
   -0.9708    0.2458    0.0000 C   0  0  0  0  0  0  0  0  0  0  0  0
    0.2542    0.2458    0.0000 C   0  0  0  0  0  0  0  0  0  0  0  0
    0.8667   -0.7542    0.0000 C   0  0  0  0  0  0  0  0  0  0  0  0
    1.4917   -1.0917    0.0000 N   0  0  0  0  0  0  0  0  0  0  0  0
   -0.3583    1.3208    0.0000 C   0  0  0  0  0  0  0  0  0  0  0  0
    0.2542    0.9750    0.0000 C   0  0  0  0  0  0  0  0  0  0  0  0
   -0.9708    0.9750    0.0000 C   0  0  0  0  0  0  0  0  0  0  0  0
   -0.3583    2.0250    0.0000 Cl  0  0  0  0  0  0  0  0  0  0  0  0
   -2.2083   -1.1792    0.0000 C   0  0  0  0  0  0  0  0  0  0  0  0
   -0.9833   -1.8792    0.0000 C   0  0  0  0  0  0  0  0  0  0  0  0
    1.5292   -1.7917    0.0000 C   0  0  0  0  0  0  0  0  0  0  0  0
    2.0917   -0.7042    0.0000 C   0  0  0  0  0  0  0  0  0  0  0  0
   -2.2083   -1.8792    0.0000 C   0  0  0  0  0  0  0  0  0  0  0  0
   -1.6000   -2.2417    0.0000 C   0  0  0  0  0  0  0  0  0  0  0  0
  2  1  1  0
  3  5  2  0
  1  4  1  6
  5  1  1  0
  6  4  2  0
  7  4  1  0
  8  2  1  0
  9  8  1  0
 10 11  1  0
 11  7  2  0
 12  6  1  0
 13 10  1  0
 14  3  1  0
 15  5  1  0
 16  9  1  0
 17  9  1  0
 18 19  1  0
 19 15  2  0
 12 10  2  0
 14 18  2  0
M  END
> <chembl_id>
CHEMBL1201353

> <chembl_pref_name>
DEXCHLORPHENIRAMINE
