
     RDKit          2D

 29 28  0  0  0  0  0  0  0  0999 V2000
    4.0177   -7.0299    0.0000 C   0  0  0  0  0  0  0  0  0  0  0  0
    4.7298   -7.4465    0.0000 C   0  0  0  0  0  0  0  0  0  0  0  0
    3.3007   -7.4368    0.0000 C   0  0  0  0  0  0  0  0  0  0  0  0
    2.5935   -7.0153    0.0000 N   0  0  0  0  0  0  0  0  0  0  0  0
    4.0177   -6.2015    0.0000 O   0  0  0  0  0  0  0  0  0  0  0  0
    4.7250   -8.2797    0.0000 C   0  0  0  0  0  0  0  0  0  0  0  0
    5.4419   -7.0444    0.0000 C   0  0  0  0  0  0  0  0  0  0  0  0
    1.8765   -7.4223    0.0000 C   0  0  0  0  0  0  0  0  0  0  0  0
    3.2862   -8.2748    0.0000 C   0  0  0  0  0  0  0  0  0  0  0  0
    5.4274   -8.7012    0.0000 C   0  0  0  0  0  0  0  0  0  0  0  0
    6.1540   -7.4659    0.0000 C   0  0  0  0  0  0  0  0  0  0  0  0
    6.1540   -8.2845    0.0000 C   0  0  0  0  0  0  0  0  0  0  0  0
    7.8381   -4.4761    0.0000 S   0  0  0  0  0  0  0  0  0  0  0  0
    8.2450   -3.7543    0.0000 O   0  0  0  0  0  0  0  0  0  0  0  0
    7.4166   -3.7543    0.0000 O   0  0  0  0  0  0  0  0  0  0  0  0
    7.1260   -4.8879    0.0000 O   0  0  0  0  0  0  0  0  0  0  0  0
    8.5502   -4.8879    0.0000 O   0  0  0  0  0  0  0  0  0  0  0  0
    3.7543   -3.6962    0.0000 C   0  0  0  0  0  0  0  0  0  0  0  0
    4.4665   -4.1128    0.0000 C   0  0  0  0  0  0  0  0  0  0  0  0
    3.0374   -4.1031    0.0000 C   0  0  0  0  0  0  0  0  0  0  0  0
    2.3301   -3.6817    0.0000 N   0  0  0  0  0  0  0  0  0  0  0  0
    3.7543   -2.8678    0.0000 O   0  0  0  0  0  0  0  0  0  0  0  0
    4.4616   -4.9460    0.0000 C   0  0  0  0  0  0  0  0  0  0  0  0
    5.1786   -3.7107    0.0000 C   0  0  0  0  0  0  0  0  0  0  0  0
    1.6131   -4.0886    0.0000 C   0  0  0  0  0  0  0  0  0  0  0  0
    3.0228   -4.9411    0.0000 C   0  0  0  0  0  0  0  0  0  0  0  0
    5.1640   -5.3675    0.0000 C   0  0  0  0  0  0  0  0  0  0  0  0
    5.8907   -4.1322    0.0000 C   0  0  0  0  0  0  0  0  0  0  0  0
    5.8907   -4.9508    0.0000 C   0  0  0  0  0  0  0  0  0  0  0  0
  2  1  1  0
  3  1  1  0
  4  3  1  0
  1  5  1  1
  6  2  2  0
  7  2  1  0
  8  4  1  0
  3  9  1  6
 10  6  1  0
 11  7  2  0
 12 10  2  0
 12 11  1  0
 14 13  2  0
 15 13  2  0
 16 13  1  0
 17 13  1  0
 19 18  1  0
 20 18  1  0
 21 20  1  0
 18 22  1  1
 23 19  2  0
 24 19  1  0
 25 21  1  0
 20 26  1  6
 27 23  1  0
 28 24  2  0
 29 27  2  0
 29 28  1  0
M  END
> <chembl_id>
CHEMBL3989855

> <chembl_pref_name>
PSEUDOEPHEDRINE SULFATE
