
     RDKit          2D

 21 22  0  0  0  0  0  0  0  0999 V2000
    5.9750   -6.4000    0.0000 N   0  0  0  0  0  0  0  0  0  0  0  0
    5.3667   -5.3167    0.0000 C   0  0  0  0  0  0  0  0  0  0  0  0
    5.3667   -6.0500    0.0000 C   0  0  0  0  0  0  0  0  0  0  0  0
    6.5917   -6.0375    0.0000 C   0  0  0  0  0  0  0  0  0  0  0  0
    5.9750   -4.9667    0.0000 C   0  0  0  0  0  0  0  0  0  0  0  0
    4.7625   -4.9667    0.0000 C   0  0  0  0  0  0  0  0  0  0  0  0
    4.7625   -4.2792    0.0000 O   0  0  0  0  0  0  0  0  0  0  0  0
    2.2792   -4.2875    0.0000 N   0  0  0  0  0  0  0  0  0  0  0  0
    7.2125   -6.4000    0.0000 O   0  0  0  0  0  0  0  0  0  0  0  0
    1.6667   -3.9500    0.0000 C   0  0  0  0  0  0  0  0  0  0  0  0
    6.5917   -5.3167    0.0000 C   0  0  0  0  0  0  0  0  0  0  0  0
    3.5375   -4.2875    0.0000 C   0  0  0  0  0  0  0  0  0  0  0  0
    4.1250   -3.9292    0.0000 C   0  0  0  0  0  0  0  0  0  0  0  0
    2.9042   -3.9292    0.0000 C   0  0  0  0  0  0  0  0  0  0  0  0
    3.5375   -4.9875    0.0000 O   0  0  0  0  0  0  0  0  0  0  0  0
    4.7625   -6.4042    0.0000 C   0  0  0  0  0  0  0  0  0  0  0  0
    4.1250   -6.0500    0.0000 C   0  0  0  0  0  0  0  0  0  0  0  0
    4.1250   -5.3167    0.0000 C   0  0  0  0  0  0  0  0  0  0  0  0
    1.6667   -3.2500    0.0000 C   0  0  0  0  0  0  0  0  0  0  0  0
    1.0417   -3.5917    0.0000 C   0  0  0  0  0  0  0  0  0  0  0  0
    1.0542   -4.3042    0.0000 C   0  0  0  0  0  0  0  0  0  0  0  0
  2  3  2  0
  3  1  1  0
  4  1  1  0
  5 11  1  0
  6  2  1  0
  7  6  1  0
  8 14  1  0
  9  4  2  0
 10  8  1  0
 11  4  1  0
 12 13  1  0
 13  7  1  0
 14 12  1  0
 15 12  1  0
 16  3  1  0
 17 16  2  0
 18 17  1  0
 19 10  1  0
 20 10  1  0
 21 10  1  0
  5  2  1  0
 18  6  2  0
M  END
> <chembl_id>
CHEMBL839

> <chembl_pref_name>
CARTEOLOL
