
     RDKit          2D

 13 13  0  0  0  0  0  0  0  0999 V2000
    4.7125   -4.1125    0.0000 C   0  0  0  0  0  0  0  0  0  0  0  0
    4.4917   -4.8292    0.0000 C   0  0  0  0  0  0  0  0  0  0  0  0
    4.8917   -5.4292    0.0000 N   0  0  0  0  0  0  0  0  0  0  0  0
    4.1125   -3.7125    0.0000 N   0  0  0  0  0  0  0  0  0  0  0  0
    3.7667   -4.8417    0.0000 N   0  0  0  0  0  0  0  0  0  0  0  0
    5.5750   -5.4417    0.0000 N   0  0  0  0  0  0  0  0  0  0  0  0
    5.3375   -3.7667    0.0000 C   0  0  0  0  0  0  0  0  0  0  0  0
    3.5292   -4.1292    0.0000 C   0  0  0  0  0  0  0  0  0  0  0  0
    5.3250   -3.0625    0.0000 O   0  0  0  0  0  0  0  0  0  0  0  0
    5.8750   -5.9917    0.0000 N   0  0  0  0  0  0  0  0  0  0  0  0
    5.9375   -4.1417    0.0000 N   0  0  0  0  0  0  0  0  0  0  0  0
    6.5792   -6.0042    0.0000 C   0  0  0  0  0  0  0  0  0  0  0  0
    5.4542   -6.5542    0.0000 C   0  0  0  0  0  0  0  0  0  0  0  0
  2  1  2  0
  3  2  1  0
  4  1  1  0
  5  2  1  0
  6  3  2  0
  7  1  1  0
  8  4  2  0
  9  7  2  0
 10  6  1  0
 11  7  1  0
 12 10  1  0
 13 10  1  0
  8  5  1  0
M  END
> <chembl_id>
CHEMBL476

> <chembl_pref_name>
DACARBAZINE
