
     RDKit          2D

 24 26  0  0  0  0  0  0  0  0999 V2000
   12.4458  -25.9750    0.0000 C   0  0  0  0  0  0  0  0  0  0  0  0
   13.2708  -25.9750    0.0000 C   0  0  0  0  0  0  0  0  0  0  0  0
   11.6208  -25.9708    0.0000 O   0  0  0  0  0  0  0  0  0  0  0  0
   12.4438  -26.8000    0.0000 C   0  0  0  0  0  0  0  0  0  0  0  0
   12.4479  -25.1500    0.0000 C   0  0  0  0  0  0  0  0  0  0  0  0
   13.1668  -24.7430    0.0000 C   0  0  0  0  0  0  0  0  0  0  0  0
   13.1692  -23.9188    0.0000 C   0  0  0  0  0  0  0  0  0  0  0  0
   12.4553  -23.5036    0.0000 C   0  0  0  0  0  0  0  0  0  0  0  0
   11.7374  -23.9187    0.0000 C   0  0  0  0  0  0  0  0  0  0  0  0
   11.7385  -24.7416    0.0000 C   0  0  0  0  0  0  0  0  0  0  0  0
   13.6815  -26.6918    0.0000 C   0  0  0  0  0  0  0  0  0  0  0  0
   14.5057  -26.6921    0.0000 C   0  0  0  0  0  0  0  0  0  0  0  0
   14.9190  -25.9771    0.0000 C   0  0  0  0  0  0  0  0  0  0  0  0
   14.5021  -25.2603    0.0000 C   0  0  0  0  0  0  0  0  0  0  0  0
   13.6792  -25.2635    0.0000 C   0  0  0  0  0  0  0  0  0  0  0  0
   15.7440  -25.9760    0.0000 Cl  0  0  0  0  0  0  0  0  0  0  0  0
   11.2119  -25.2543    0.0000 C   0  0  0  0  0  0  0  0  0  0  0  0
   10.3870  -25.2501    0.0000 C   0  0  0  0  0  0  0  0  0  0  0  0
    9.9781  -24.5336    0.0000 C   0  0  0  0  0  0  0  0  0  0  0  0
   10.3158  -23.7846    0.0000 N   0  0  0  0  0  0  0  0  0  0  0  0
    9.7055  -23.2295    0.0000 C   0  0  0  0  0  0  0  0  0  0  0  0
    8.9889  -23.6384    0.0000 C   0  0  0  0  0  0  0  0  0  0  0  0
    9.1565  -24.4462    0.0000 C   0  0  0  0  0  0  0  0  0  0  0  0
   11.1236  -23.6170    0.0000 C   0  0  0  0  0  0  0  0  0  0  0  0
 11 12  1  0
  1  2  1  0
 12 13  2  0
  6  7  1  0
 13 14  1  0
  1  4  1  0
 14 15  2  0
 15  2  1  0
  7  8  2  0
 13 16  1  0
  3 17  1  0
  8  9  1  0
 17 18  1  0
  1  5  1  1
 19 18  1  1
 19 20  1  0
  9 10  2  0
 10  5  1  0
  1  3  1  0
  2 11  2  0
 20 21  1  0
 21 22  1  0
 22 23  1  0
 23 19  1  0
  5  6  2  0
 20 24  1  0
M  END
> <chembl_id>
CHEMBL1626

> <chembl_pref_name>
CLEMASTINE
