
     RDKit          2D

 21 23  0  0  0  0  0  0  0  0999 V2000
   -4.1833   -2.2542    0.0000 Cl  0  0  0  0  0  0  0  0  0  0  0  0
    0.0292    0.1208    0.0000 N   0  0  0  0  0  0  0  0  0  0  0  0
    1.3375    0.1208    0.0000 C   0  0  0  0  0  0  0  0  0  0  0  0
   -0.7708    1.1375    0.0000 C   0  0  0  0  0  0  0  0  0  0  0  0
    2.1500    1.1375    0.0000 C   0  0  0  0  0  0  0  0  0  0  0  0
   -0.4833    2.4083    0.0000 C   0  0  0  0  0  0  0  0  0  0  0  0
    1.8542    2.4083    0.0000 C   0  0  0  0  0  0  0  0  0  0  0  0
   -0.6208   -1.0042    0.0000 C   0  0  0  0  0  0  0  0  0  0  0  0
    1.3292   -2.1375    0.0000 N   0  0  0  0  0  0  0  0  0  0  0  0
    0.6875    2.9833    0.0000 C   0  0  0  0  0  0  0  0  0  0  0  0
    1.9917   -1.0042    0.0000 C   0  0  0  0  0  0  0  0  0  0  0  0
    0.0375   -2.1375    0.0000 C   0  0  0  0  0  0  0  0  0  0  0  0
   -2.0208    0.7458    0.0000 C   0  0  0  0  0  0  0  0  0  0  0  0
    3.3917    0.7458    0.0000 C   0  0  0  0  0  0  0  0  0  0  0  0
    1.9792   -3.2917    0.0000 C   0  0  0  0  0  0  0  0  0  0  0  0
    2.8125    3.2958    0.0000 C   0  0  0  0  0  0  0  0  0  0  0  0
   -1.4375    3.2958    0.0000 C   0  0  0  0  0  0  0  0  0  0  0  0
    4.3417    1.6375    0.0000 C   0  0  0  0  0  0  0  0  0  0  0  0
   -2.9625    1.6375    0.0000 C   0  0  0  0  0  0  0  0  0  0  0  0
   -2.6708    2.9083    0.0000 C   0  0  0  0  0  0  0  0  0  0  0  0
    4.0500    2.9083    0.0000 C   0  0  0  0  0  0  0  0  0  0  0  0
  3  2  1  0
  4  2  1  0
  5  3  1  0
  6  4  2  0
  7  5  1  0
  8  2  1  0
  9 12  1  0
 10  6  1  0
 11  3  1  0
 12  8  1  0
 13  4  1  0
 14  5  2  0
 15  9  1  0
 16  7  2  0
 17  6  1  0
 18 14  1  0
 19 13  2  0
 20 19  1  0
 21 18  2  0
 11  9  1  0
  7 10  1  0
 17 20  2  0
 16 21  1  0
M  END
> <chembl_id>
CHEMBL544428

> <chembl_pref_name>
MIANSERIN HYDROCHLORIDE
