
     RDKit          2D

 25 27  0  0  0  0  0  0  0  0999 V2000
   -1.7458    0.2208    0.0000 C   0  0  0  0  0  0  0  0  0  0  0  0
   -2.5625    0.6375    0.0000 C   0  0  0  0  0  0  0  0  0  0  0  0
   -0.9125    0.5958    0.0000 C   0  0  0  0  0  0  0  0  0  0  0  0
   -2.7458    1.4833    0.0000 C   0  0  0  0  0  0  0  0  0  0  0  0
   -0.7000    1.4625    0.0000 C   0  0  0  0  0  0  0  0  0  0  0  0
    3.3000   -1.1542    0.0000 C   0  0  0  0  0  0  0  0  0  0  0  0
    2.6667   -0.4667    0.0000 O   0  0  0  0  0  0  0  0  0  0  0  0
   -1.7458   -0.5792    0.0000 N   0  0  0  0  0  0  0  0  0  0  0  0
   -2.1458    2.1958    0.0000 C   0  0  0  0  0  0  0  0  0  0  0  0
   -1.2625    2.1958    0.0000 C   0  0  0  0  0  0  0  0  0  0  0  0
    4.2417   -0.9000    0.0000 O   0  0  0  0  0  0  0  0  0  0  0  0
   -0.2583   -0.0417    0.0000 C   0  0  0  0  0  0  0  0  0  0  0  0
   -3.2583    0.0208    0.0000 C   0  0  0  0  0  0  0  0  0  0  0  0
    3.0792   -2.0167    0.0000 C   0  0  0  0  0  0  0  0  0  0  0  0
   -3.6333    1.7625    0.0000 C   0  0  0  0  0  0  0  0  0  0  0  0
    0.2292    1.7208    0.0000 C   0  0  0  0  0  0  0  0  0  0  0  0
   -0.9583   -1.3042    0.0000 C   0  0  0  0  0  0  0  0  0  0  0  0
    2.1292   -2.1875    0.0000 C   0  0  0  0  0  0  0  0  0  0  0  0
   -0.0208   -1.1000    0.0000 C   0  0  0  0  0  0  0  0  0  0  0  0
    1.5500   -1.5000    0.0000 C   0  0  0  0  0  0  0  0  0  0  0  0
    0.6375   -1.7250    0.0000 C   0  0  0  0  0  0  0  0  0  0  0  0
   -4.1625    0.3000    0.0000 C   0  0  0  0  0  0  0  0  0  0  0  0
    0.6375    0.2208    0.0000 C   0  0  0  0  0  0  0  0  0  0  0  0
    0.8917    1.1000    0.0000 C   0  0  0  0  0  0  0  0  0  0  0  0
   -4.3458    1.1458    0.0000 C   0  0  0  0  0  0  0  0  0  0  0  0
  2  1  1  0
  3  1  1  0
  4  2  2  0
  5  3  2  0
  6 14  1  0
  7  6  2  0
  8  1  1  0
  9  4  1  0
 10  5  1  0
 11  6  1  0
 12  3  1  0
 13  2  1  0
 14 18  1  0
 15  4  1  0
 16  5  1  0
 17  8  1  0
 18 20  1  0
 19 17  1  0
 20 21  1  0
 21 19  1  0
 22 13  2  0
 23 12  2  0
 24 23  1  0
 25 22  1  0
  9 10  1  0
 16 24  2  0
 15 25  2  0
M  END
> <chembl_id>
CHEMBL418995

> <chembl_pref_name>
AMINEPTINE
