
     RDKit          2D

 21 22  0  0  0  0  0  0  0  0999 V2000
    5.2792   -4.2792    0.0000 C   0  0  0  0  0  0  0  0  0  0  0  0
    5.9000   -4.6292    0.0000 C   0  0  0  0  0  0  0  0  0  0  0  0
    4.6792   -4.6417    0.0000 N   0  0  0  0  0  0  0  0  0  0  0  0
    5.2750   -3.5667    0.0000 O   0  0  0  0  0  0  0  0  0  0  0  0
    4.0542   -4.2875    0.0000 C   0  0  0  0  0  0  0  0  0  0  0  0
    6.5125   -4.2583    0.0000 C   0  0  0  0  0  0  0  0  0  0  0  0
    2.2167   -5.3792    0.0000 N   0  0  0  0  0  0  0  0  0  0  0  0
    5.9042   -5.3292    0.0000 C   0  0  0  0  0  0  0  0  0  0  0  0
    3.4417   -4.6500    0.0000 C   0  0  0  0  0  0  0  0  0  0  0  0
    4.6792   -5.3417    0.0000 C   0  0  0  0  0  0  0  0  0  0  0  0
    6.5250   -5.6792    0.0000 O   0  0  0  0  0  0  0  0  0  0  0  0
    2.2042   -4.6667    0.0000 C   0  0  0  0  0  0  0  0  0  0  0  0
    2.8375   -5.7167    0.0000 C   0  0  0  0  0  0  0  0  0  0  0  0
    6.5042   -3.5542    0.0000 C   0  0  0  0  0  0  0  0  0  0  0  0
    7.1292   -4.6042    0.0000 C   0  0  0  0  0  0  0  0  0  0  0  0
    2.8292   -4.3042    0.0000 C   0  0  0  0  0  0  0  0  0  0  0  0
    3.4417   -5.3542    0.0000 C   0  0  0  0  0  0  0  0  0  0  0  0
    4.0750   -5.7042    0.0000 C   0  0  0  0  0  0  0  0  0  0  0  0
    7.1167   -3.1917    0.0000 C   0  0  0  0  0  0  0  0  0  0  0  0
    7.7417   -4.2417    0.0000 C   0  0  0  0  0  0  0  0  0  0  0  0
    7.7375   -3.5417    0.0000 C   0  0  0  0  0  0  0  0  0  0  0  0
  2  1  1  0
  3  1  1  0
  4  1  2  0
  5  3  1  0
  6  2  1  0
  7 13  1  0
  8  2  1  0
  9  5  1  0
 10  3  1  0
 11  8  1  0
 12 16  1  0
 13 17  2  0
 14  6  1  0
 15  6  2  0
 16  9  2  0
 17  9  1  0
 18 10  1  0
 19 14  2  0
 20 15  1  0
 21 20  2  0
  7 12  2  0
 21 19  1  0
M  END
> <chembl_id>
CHEMBL1200604

> <chembl_pref_name>
TROPICAMIDE
