
     RDKit          2D

 35 38  0  0  0  0  0  0  0  0999 V2000
    8.3167   -7.1750    0.0000 C   0  0  0  0  0  0  0  0  0  0  0  0
   10.1542   -6.8167    0.0000 C   0  0  0  0  0  0  0  0  0  0  0  0
    8.3167   -7.8792    0.0000 O   0  0  0  0  0  0  0  0  0  0  0  0
   10.1542   -6.1125    0.0000 O   0  0  0  0  0  0  0  0  0  0  0  0
    8.9292   -6.8167    0.0000 C   0  0  0  0  0  0  0  0  0  0  0  0
    9.5417   -7.1750    0.0000 C   0  0  0  0  0  0  0  0  0  0  0  0
   10.7667   -7.1750    0.0000 O   0  0  0  0  0  0  0  0  0  0  0  0
    7.7042   -6.8167    0.0000 O   0  0  0  0  0  0  0  0  0  0  0  0
    4.2167   -6.0292    0.0000 N   0  0  0  0  0  0  0  0  0  0  0  0
    4.8375   -5.6625    0.0000 C   0  0  0  0  0  0  0  0  0  0  0  0
    3.5917   -5.6750    0.0000 C   0  0  0  0  0  0  0  0  0  0  0  0
    5.4625   -6.0250    0.0000 O   0  0  0  0  0  0  0  0  0  0  0  0
    2.9750   -6.0292    0.0000 C   0  0  0  0  0  0  0  0  0  0  0  0
    6.0792   -5.6542    0.0000 C   0  0  0  0  0  0  0  0  0  0  0  0
    4.2167   -6.7417    0.0000 C   0  0  0  0  0  0  0  0  0  0  0  0
    7.3125   -5.6500    0.0000 N   0  0  0  0  0  0  0  0  0  0  0  0
    6.7042   -6.0167    0.0000 C   0  0  0  0  0  0  0  0  0  0  0  0
    4.8375   -4.9417    0.0000 O   0  0  0  0  0  0  0  0  0  0  0  0
    2.9750   -6.7417    0.0000 C   0  0  0  0  0  0  0  0  0  0  0  0
    6.0667   -4.9292    0.0000 C   0  0  0  0  0  0  0  0  0  0  0  0
    3.5917   -4.9542    0.0000 C   0  0  0  0  0  0  0  0  0  0  0  0
    3.5917   -7.1000    0.0000 C   0  0  0  0  0  0  0  0  0  0  0  0
    6.7792   -5.0000    0.0000 C   0  0  0  0  0  0  0  0  0  0  0  0
    6.6917   -4.5792    0.0000 C   0  0  0  0  0  0  0  0  0  0  0  0
    7.3167   -4.9292    0.0000 C   0  0  0  0  0  0  0  0  0  0  0  0
    6.6042   -5.5750    0.0000 C   0  0  0  0  0  0  0  0  0  0  0  0
    2.3542   -5.6750    0.0000 C   0  0  0  0  0  0  0  0  0  0  0  0
    2.3542   -7.1000    0.0000 C   0  0  0  0  0  0  0  0  0  0  0  0
    2.9750   -4.5917    0.0000 C   0  0  0  0  0  0  0  0  0  0  0  0
    4.2042   -4.5917    0.0000 C   0  0  0  0  0  0  0  0  0  0  0  0
    1.7417   -6.0292    0.0000 C   0  0  0  0  0  0  0  0  0  0  0  0
    1.7417   -6.7417    0.0000 C   0  0  0  0  0  0  0  0  0  0  0  0
    4.2042   -3.8792    0.0000 C   0  0  0  0  0  0  0  0  0  0  0  0
    2.9750   -3.8792    0.0000 C   0  0  0  0  0  0  0  0  0  0  0  0
    3.5917   -3.5250    0.0000 C   0  0  0  0  0  0  0  0  0  0  0  0
  2  6  1  0
  3  1  2  0
  4  2  2  0
  5  1  1  0
  6  5  1  0
  7  2  1  0
  8  1  1  0
 10  9  1  0
 11  9  1  0
 12 10  1  0
 13 11  1  0
 14 12  1  6
 15  9  1  0
 16 17  1  0
 17 14  1  0
 18 10  2  0
 19 22  1  0
 20 14  1  0
 11 21  1  6
 22 15  1  0
 23 20  1  0
 24 20  1  0
 25 24  1  0
 26 23  1  0
 27 13  1  0
 28 19  1  0
 29 21  1  0
 30 21  2  0
 31 27  2  0
 32 28  2  0
 33 30  1  0
 34 29  2  0
 35 33  2  0
 13 19  2  0
 31 32  1  0
 35 34  1  0
 25 16  1  0
 26 16  1  0
M  END
> <chembl_id>
CHEMBL1200803

> <chembl_pref_name>
SOLIFENACIN SUCCINATE
