
     RDKit          2D

 20 21  0  0  0  0  0  0  0  0999 V2000
    6.7292   -4.3417    0.0000 C   0  0  0  0  0  0  0  0  0  0  0  0
    6.1292   -4.6917    0.0000 C   0  0  0  0  0  0  0  0  0  0  0  0
    5.5167   -4.3292    0.0000 N   0  0  0  0  0  0  0  0  0  0  0  0
    7.3417   -4.6917    0.0000 C   0  0  0  0  0  0  0  0  0  0  0  0
    6.4000   -3.7167    0.0000 O   0  0  0  0  0  0  0  0  0  0  0  0
    6.7625   -1.8917    0.0000 N   0  0  0  0  0  0  0  0  0  0  0  0
    6.7542   -3.1292    0.0000 C   0  0  0  0  0  0  0  0  0  0  0  0
    7.1167   -3.7500    0.0000 C   0  0  0  0  0  0  0  0  0  0  0  0
    4.9042   -4.7000    0.0000 C   0  0  0  0  0  0  0  0  0  0  0  0
    6.4125   -2.4917    0.0000 C   0  0  0  0  0  0  0  0  0  0  0  0
    6.1417   -5.4125    0.0000 C   0  0  0  0  0  0  0  0  0  0  0  0
    7.9542   -4.3625    0.0000 C   0  0  0  0  0  0  0  0  0  0  0  0
    7.3417   -5.4042    0.0000 C   0  0  0  0  0  0  0  0  0  0  0  0
    6.4042   -1.2667    0.0000 C   0  0  0  0  0  0  0  0  0  0  0  0
    7.4667   -1.8917    0.0000 C   0  0  0  0  0  0  0  0  0  0  0  0
    4.9000   -5.4125    0.0000 C   0  0  0  0  0  0  0  0  0  0  0  0
    8.5792   -4.7042    0.0000 C   0  0  0  0  0  0  0  0  0  0  0  0
    7.9542   -5.7750    0.0000 C   0  0  0  0  0  0  0  0  0  0  0  0
    5.5250   -5.7750    0.0000 C   0  0  0  0  0  0  0  0  0  0  0  0
    8.5667   -5.4250    0.0000 C   0  0  0  0  0  0  0  0  0  0  0  0
  2  1  1  0
  3  2  2  0
  4  1  1  0
  5  1  1  0
  6 10  1  0
  7  5  1  0
  8  1  1  0
  9  3  1  0
 10  7  1  0
 11  2  1  0
 12  4  2  0
 13  4  1  0
 14  6  1  0
 15  6  1  0
 16  9  2  0
 17 12  1  0
 18 13  2  0
 19 11  2  0
 20 18  1  0
 19 16  1  0
 20 17  2  0
M  END
> <chembl_id>
CHEMBL1004

> <chembl_pref_name>
DOXYLAMINE
