
     RDKit          2D

 15 15  0  0  0  0  0  0  0  0999 V2000
    5.3792   -4.2875    0.0000 C   0  0  0  0  0  0  0  0  0  0  0  0
    5.3792   -5.0042    0.0000 N   0  0  0  0  0  0  0  0  0  0  0  0
    4.7667   -5.3542    0.0000 N   0  0  0  0  0  0  0  0  0  0  0  0
    4.7542   -3.9417    0.0000 N   0  0  0  0  0  0  0  0  0  0  0  0
    5.9917   -3.9250    0.0000 O   0  0  0  0  0  0  0  0  0  0  0  0
    4.7917   -6.0667    0.0000 O   0  0  0  0  0  0  0  0  0  0  0  0
    6.0042   -5.3542    0.0000 C   0  0  0  0  0  0  0  0  0  0  0  0
    4.1500   -4.2917    0.0000 C   0  0  0  0  0  0  0  0  0  0  0  0
    7.2292   -5.3375    0.0000 Cl  0  0  0  0  0  0  0  0  0  0  0  0
    6.6042   -4.9792    0.0000 C   0  0  0  0  0  0  0  0  0  0  0  0
    4.1417   -5.0042    0.0000 C   0  0  0  0  0  0  0  0  0  0  0  0
    3.5292   -3.9500    0.0000 C   0  0  0  0  0  0  0  0  0  0  0  0
    2.9125   -4.2792    0.0000 C   0  0  0  0  0  0  0  0  0  0  0  0
    3.5167   -5.3417    0.0000 C   0  0  0  0  0  0  0  0  0  0  0  0
    2.9125   -5.0042    0.0000 C   0  0  0  0  0  0  0  0  0  0  0  0
  2  1  1  0
  3  2  1  0
  4  1  1  0
  5  1  2  0
  6  3  2  0
  7  2  1  0
  8  4  1  0
  9 10  1  0
 10  7  1  0
 11  8  1  0
 12  8  1  0
 13 12  1  0
 14 11  1  0
 15 13  1  0
 15 14  1  0
M  END
> <chembl_id>
CHEMBL514

> <chembl_pref_name>
LOMUSTINE
