
     RDKit          2D

 23 19  0  0  0  0  0  0  0  0999 V2000
    5.1167  -15.2792    0.0000 Na  0  0  0  0  0 15  0  0  0  0  0  0
    3.5375  -17.4875    0.0000 C   0  0  0  0  0  0  0  0  0  0  0  0
    0.8875  -17.4792    0.0000 C   0  0  0  0  0  0  0  0  0  0  0  0
    3.9875  -15.8000    0.0000 C   0  0  0  0  0  0  0  0  0  0  0  0
    0.4417  -15.8083    0.0000 C   0  0  0  0  0  0  0  0  0  0  0  0
    2.9292  -16.4250    0.0000 N   0  0  0  0  0  0  0  0  0  0  0  0
    1.5125  -16.4250    0.0000 N   0  0  0  0  0  0  0  0  0  0  0  0
    2.9250  -17.8375    0.0000 O   0  0  0  0  0  0  0  0  0  0  0  0
    4.3333  -15.1833    0.0000 O   0  0  0  0  0  0  0  0  0  0  0  0
    1.5000  -17.8417    0.0000 O   0  0  0  0  0  0  0  0  0  0  0  0
    0.0875  -15.1958    0.0000 O   0  0  0  0  0  0  0  0  0  0  0  0
    4.3458  -16.4125    0.0000 O   0  0  0  0  0  0  0  0  0  0  0  0
    0.2708  -17.8292    0.0000 O   0  0  0  0  0  0  0  0  0  0  0  0
    4.1542  -17.8417    0.0000 O   0  0  0  0  0  0  0  0  0  0  0  0
    0.0917  -16.4208    0.0000 O   0  0  0  0  0  0  0  0  0  0  0  0
    1.1542  -15.8042    0.0000 C   0  0  0  0  0  0  0  0  0  0  0  0
    0.8917  -16.7750    0.0000 C   0  0  0  0  0  0  0  0  0  0  0  0
    3.5417  -16.7792    0.0000 C   0  0  0  0  0  0  0  0  0  0  0  0
    3.2792  -15.8042    0.0000 C   0  0  0  0  0  0  0  0  0  0  0  0
    1.8667  -15.8125    0.0000 C   0  0  0  0  0  0  0  0  0  0  0  0
    2.5792  -15.8125    0.0000 C   0  0  0  0  0  0  0  0  0  0  0  0
    2.0875  -17.1542    0.0000 Ca  0  0  0  0  0 15  0  0  0  0  0  0
   -0.9708  -15.2500    0.0000 Na  0  0  0  0  0 15  0  0  0  0  0  0
  3 17  1  0
  4 19  1  0
  5 16  1  0
  6 18  1  0
  7 20  1  0
  8  2  1  0
  9  4  1  0
 10  3  1  0
 11  5  1  0
 12  4  2  0
 13  3  2  0
 14  2  2  0
 15  5  2  0
 16  7  1  0
 17  7  1  0
 18  2  1  0
 19  6  1  0
 20 21  1  0
 21  6  1  0
M  CHG  7   1   1   8  -1   9  -1  10  -1  11  -1  22   2  23   1
M  END
> <chembl_id>
CHEMBL1200375

> <chembl_pref_name>
EDETATE CALCIUM DISODIUM ANHYDROUS
