
     RDKit          2D

 28 28  0  0  0  0  0  0  0  0999 V2000
    4.0875   -3.2167    0.0000 Cl  0  0  0  0  0  0  0  0  0  0  0  0
    1.3667   -2.2250    0.0000 C   0  0  0  0  0  0  0  0  0  0  0  0
    0.7542   -1.8625    0.0000 N   0  0  0  0  0  0  0  0  0  0  0  0
    1.3667   -2.9292    0.0000 C   0  0  0  0  0  0  0  0  0  0  0  0
    1.9917   -2.5917    0.0000 C   0  0  0  0  0  0  0  0  0  0  0  0
    1.3667   -1.5125    0.0000 C   0  0  0  0  0  0  0  0  0  0  0  0
    0.7542   -1.1542    0.0000 C   0  0  0  0  0  0  0  0  0  0  0  0
    2.6167   -1.4917    0.0000 N   0  0  0  0  0  0  0  0  0  0  0  0
    4.4625   -1.1625    0.0000 C   0  0  0  0  0  0  0  0  0  0  0  0
    3.8292   -1.4917    0.0000 C   0  0  0  0  0  0  0  0  0  0  0  0
    0.1417   -2.2167    0.0000 C   0  0  0  0  0  0  0  0  0  0  0  0
    1.9750   -3.2750    0.0000 O   0  0  0  0  0  0  0  0  0  0  0  0
    0.1417   -0.7917    0.0000 O   0  0  0  0  0  0  0  0  0  0  0  0
    2.6167   -2.2250    0.0000 C   0  0  0  0  0  0  0  0  0  0  0  0
    1.9917   -1.1292    0.0000 C   0  0  0  0  0  0  0  0  0  0  0  0
    4.4625   -0.4417    0.0000 O   0  0  0  0  0  0  0  0  0  0  0  0
    3.2125   -1.1542    0.0000 C   0  0  0  0  0  0  0  0  0  0  0  0
    0.7542   -3.2917    0.0000 O   0  0  0  0  0  0  0  0  0  0  0  0
    5.0542   -1.4917    0.0000 O   0  0  0  0  0  0  0  0  0  0  0  0
    1.3667   -0.7917    0.0000 C   0  0  0  0  0  0  0  0  0  0  0  0
    0.1417   -2.9292    0.0000 C   0  0  0  0  0  0  0  0  0  0  0  0
   -0.4833   -1.8750    0.0000 C   0  0  0  0  0  0  0  0  0  0  0  0
    0.7542   -3.9917    0.0000 C   0  0  0  0  0  0  0  0  0  0  0  0
    5.6667   -1.1625    0.0000 C   0  0  0  0  0  0  0  0  0  0  0  0
    1.3667   -0.0750    0.0000 C   0  0  0  0  0  0  0  0  0  0  0  0
   -1.0958   -2.2250    0.0000 C   0  0  0  0  0  0  0  0  0  0  0  0
   -0.4708   -3.2917    0.0000 C   0  0  0  0  0  0  0  0  0  0  0  0
   -1.0958   -2.9292    0.0000 C   0  0  0  0  0  0  0  0  0  0  0  0
  3  2  1  0
  4  2  1  0
  5  2  1  0
  6  2  1  0
  7  3  1  0
  8 15  1  0
  9 10  1  0
 10 17  1  0
 11  3  1  0
 12  4  2  0
 13  7  2  0
 14  5  1  0
 15  6  1  0
 16  9  2  0
 17  8  1  0
 18  4  1  0
 19  9  1  0
 20  7  1  0
 21 11  2  0
 22 11  1  0
 23 18  1  0
 24 19  1  0
 25 20  1  0
 26 22  2  0
 27 21  1  0
 28 27  2  0
  8 14  1  0
 28 26  1  0
M  END
> <chembl_id>
CHEMBL1201120

> <chembl_pref_name>
REMIFENTANIL HYDROCHLORIDE
