
     RDKit          2D

 36 40  0  0  1  0  0  0  0  0999 V2000
   11.0125   -2.0208    0.0000 N   0  0  0  0  0  0  0  0  0  0  0  0
   11.0125   -1.3125    0.0000 C   0  0  0  0  0  0  0  0  0  0  0  0
   10.3000   -2.0250    0.0000 C   0  0  0  0  0  0  0  0  0  0  0  0
   10.3000   -1.3125    0.0000 C   0  0  0  0  0  0  0  0  0  0  0  0
   11.6875   -2.2375    0.0000 C   0  0  0  0  0  0  0  0  0  0  0  0
   11.6833   -1.0917    0.0000 S   0  0  0  0  0  0  0  0  0  0  0  0
   12.1042   -1.6625    0.0000 C   0  0  0  0  0  0  0  0  0  0  0  0
    9.0667   -1.3125    0.0000 C   0  0  0  0  0  0  0  0  0  0  0  0
    9.6792   -0.9542    0.0000 N   0  0  0  0  0  0  0  0  0  0  0  0
    7.8417   -1.3125    0.0000 C   0  0  0  0  0  0  0  0  0  0  0  0
    8.4542   -0.9583    0.0000 C   0  0  0  0  0  0  0  0  0  0  0  0
   11.6792   -2.9417    0.0000 C   0  0  0  0  0  0  0  0  0  0  0  0
    7.2292   -0.9583    0.0000 O   0  0  0  0  0  0  0  0  0  0  0  0
    9.8000   -2.5250    0.0000 O   0  0  0  0  0  0  0  0  0  0  0  0
    5.3917   -1.3167    0.0000 C   0  0  0  0  0  0  0  0  0  0  0  0
    9.0667   -2.0208    0.0000 O   0  0  0  0  0  0  0  0  0  0  0  0
    7.8417   -2.0208    0.0000 O   0  0  0  0  0  0  0  0  0  0  0  0
    6.6125   -1.3125    0.0000 C   0  0  0  0  0  0  0  0  0  0  0  0
   12.2917   -3.3042    0.0000 O   0  0  0  0  0  0  0  0  0  0  0  0
    6.0042   -0.9583    0.0000 C   0  0  0  0  0  0  0  0  0  0  0  0
    8.4542   -0.2500    0.0000 C   0  0  0  0  0  0  0  0  0  0  0  0
    5.3917   -2.0250    0.0000 C   0  0  0  0  0  0  0  0  0  0  0  0
   11.0625   -3.2917    0.0000 O   0  0  0  0  0  0  0  0  0  0  0  0
    6.0042   -2.3792    0.0000 C   0  0  0  0  0  0  0  0  0  0  0  0
    6.6167   -2.0250    0.0000 C   0  0  0  0  0  0  0  0  0  0  0  0
   12.7167   -1.3042    0.0000 C   0  0  0  0  0  0  0  0  0  0  0  0
   12.7167   -2.0167    0.0000 C   0  0  0  0  0  0  0  0  0  0  0  0
    4.7167   -1.0958    0.0000 C   0  0  0  0  0  0  0  0  0  0  0  0
    4.3000   -1.6667    0.0000 C   0  0  0  0  0  0  0  0  0  0  0  0
    4.7167   -2.2417    0.0000 C   0  0  0  0  0  0  0  0  0  0  0  0
    9.0708    0.1042    0.0000 C   0  0  0  0  0  0  0  0  0  0  0  0
    7.8458    0.1000    0.0000 C   0  0  0  0  0  0  0  0  0  0  0  0
    7.8417    0.8083    0.0000 C   0  0  0  0  0  0  0  0  0  0  0  0
    9.0708    0.8125    0.0000 C   0  0  0  0  0  0  0  0  0  0  0  0
    8.4583    1.1667    0.0000 C   0  0  0  0  0  0  0  0  0  0  0  0
   11.0042   -0.6042    0.0000 H   0  0  0  0  0  0  0  0  0  0  0  0
  2  1  1  0
  3  1  1  0
  4  3  1  0
  5  1  1  0
  6  2  1  0
  7  5  1  0
  8  9  1  0
  4  9  1  1
 10 11  1  0
 11  8  1  0
  5 12  1  6
 13 10  1  0
 14  3  2  0
 15 20  1  0
 16  8  2  0
 17 10  2  0
 18 13  1  0
 19 12  1  0
 20 18  2  0
 21 11  1  0
 22 15  2  0
 23 12  2  0
 24 25  2  0
 25 18  1  0
 26  7  1  0
 27  7  1  0
 28 15  1  0
 29 28  1  0
 30 22  1  0
 31 21  2  0
 32 21  1  0
 33 32  2  0
 34 31  1  0
 35 33  1  0
  2 36  1  6
  4  2  1  0
  6  7  1  0
 35 34  2  0
 24 22  1  0
 30 29  1  0
M  END
> <chembl_id>
CHEMBL1596

> <chembl_pref_name>
CARBENICILLIN INDANYL
