
     RDKit          2D

 24 24  0  0  0  0  0  0  0  0999 V2000
    3.2625   -4.8625    0.0000 C   0  0  0  0  0  0  0  0  0  0  0  0
    2.6417   -4.5000    0.0000 C   0  0  0  0  0  0  0  0  0  0  0  0
    3.8875   -4.5000    0.0000 C   0  0  0  0  0  0  0  0  0  0  0  0
    2.0167   -4.8625    0.0000 C   0  0  0  0  0  0  0  0  0  0  0  0
    2.0167   -5.5792    0.0000 C   0  0  0  0  0  0  0  0  0  0  0  0
    3.2625   -5.5792    0.0000 C   0  0  0  0  0  0  0  0  0  0  0  0
    2.6417   -5.9375    0.0000 C   0  0  0  0  0  0  0  0  0  0  0  0
    4.4792   -4.8167    0.0000 C   0  0  0  0  0  0  0  0  0  0  0  0
    8.1667   -4.8167    0.0000 C   0  0  0  0  0  0  0  0  0  0  0  0
    8.7667   -4.4667    0.0000 C   0  0  0  0  0  0  0  0  0  0  0  0
    6.3167   -4.4667    0.0000 C   0  0  0  0  0  0  0  0  0  0  0  0
    7.5500   -4.4667    0.0000 C   0  0  0  0  0  0  0  0  0  0  0  0
    5.1042   -4.4667    0.0000 C   0  0  0  0  0  0  0  0  0  0  0  0
    6.9292   -4.8167    0.0000 C   0  0  0  0  0  0  0  0  0  0  0  0
    5.7167   -4.8167    0.0000 C   0  0  0  0  0  0  0  0  0  0  0  0
    8.7667   -3.7417    0.0000 O   0  0  0  0  0  0  0  0  0  0  0  0
    1.4000   -5.9375    0.0000 O   0  0  0  0  0  0  0  0  0  0  0  0
    9.3792   -4.8167    0.0000 O   0  0  0  0  0  0  0  0  0  0  0  0
    2.6417   -3.7792    0.0000 C   0  0  0  0  0  0  0  0  0  0  0  0
    1.4000   -4.5000    0.0000 C   0  0  0  0  0  0  0  0  0  0  0  0
    3.8875   -5.9375    0.0000 C   0  0  0  0  0  0  0  0  0  0  0  0
    7.5500   -3.7417    0.0000 C   0  0  0  0  0  0  0  0  0  0  0  0
    5.1125   -3.7625    0.0000 C   0  0  0  0  0  0  0  0  0  0  0  0
    0.7667   -5.5917    0.0000 C   0  0  0  0  0  0  0  0  0  0  0  0
  2  1  1  0
  3  1  1  0
  4  2  2  0
  5  7  2  0
  6  1  2  0
  7  6  1  0
  8  3  2  0
  9 12  2  0
 10  9  1  0
 11 15  1  0
 12 14  1  0
 13  8  1  0
 14 11  2  0
 15 13  2  0
 16 10  2  0
 17  5  1  0
 18 10  1  0
 19  2  1  0
 20  4  1  0
 21  6  1  0
 22 12  1  0
 23 13  1  0
 24 17  1  0
  5  4  1  0
M  END
> <chembl_id>
CHEMBL1131

> <chembl_pref_name>
ACITRETIN
