
     RDKit          2D

 25 25  0  0  0  0  0  0  0  0999 V2000
    3.5792   -0.1042    0.0000 Cl  0  0  0  0  0  0  0  0  0  0  0  0
   -0.7833   -0.2375    0.0000 C   0  0  0  0  0  0  0  0  0  0  0  0
    0.3292   -0.2375    0.0000 C   0  0  0  0  0  0  0  0  0  0  0  0
    1.9167    2.6833    0.0000 N   0  0  0  0  0  0  0  0  0  0  0  0
    0.8792   -1.1667    0.0000 O   0  0  0  0  0  0  0  0  0  0  0  0
   -0.7833   -1.3750    0.0000 C   0  0  0  0  0  0  0  0  0  0  0  0
   -1.8875   -0.2375    0.0000 C   0  0  0  0  0  0  0  0  0  0  0  0
   -0.7833    0.8708    0.0000 O   0  0  0  0  0  0  0  0  0  0  0  0
    0.8792    0.7583    0.0000 O   0  0  0  0  0  0  0  0  0  0  0  0
    1.9542    0.7583    0.0000 C   0  0  0  0  0  0  0  0  0  0  0  0
    2.4792    1.7458    0.0000 C   0  0  0  0  0  0  0  0  0  0  0  0
    2.8625    3.2750    0.0000 C   0  0  0  0  0  0  0  0  0  0  0  0
    1.3292    3.5958    0.0000 C   0  0  0  0  0  0  0  0  0  0  0  0
    0.9792    2.0958    0.0000 C   0  0  0  0  0  0  0  0  0  0  0  0
   -2.4458   -1.2292    0.0000 C   0  0  0  0  0  0  0  0  0  0  0  0
   -2.4458    0.6958    0.0000 C   0  0  0  0  0  0  0  0  0  0  0  0
   -1.7125   -1.9292    0.0000 C   0  0  0  0  0  0  0  0  0  0  0  0
    0.2125   -1.9292    0.0000 C   0  0  0  0  0  0  0  0  0  0  0  0
    3.7042    2.7083    0.0000 C   0  0  0  0  0  0  0  0  0  0  0  0
    0.2125   -3.0375    0.0000 C   0  0  0  0  0  0  0  0  0  0  0  0
   -3.5500   -1.2292    0.0000 C   0  0  0  0  0  0  0  0  0  0  0  0
   -3.5500    0.6958    0.0000 C   0  0  0  0  0  0  0  0  0  0  0  0
   -1.7125   -3.0375    0.0000 C   0  0  0  0  0  0  0  0  0  0  0  0
   -4.1000   -0.2375    0.0000 C   0  0  0  0  0  0  0  0  0  0  0  0
   -0.7833   -3.5917    0.0000 C   0  0  0  0  0  0  0  0  0  0  0  0
  3  2  1  0
  4 11  1  0
  5  3  2  0
  6  2  1  0
  7  2  1  0
  8  2  1  0
  9  3  1  0
 10  9  1  0
 11 10  1  0
 12  4  1  0
 13  4  1  0
 14  4  1  0
 15  7  2  0
 16  7  1  0
 17  6  2  0
 18  6  1  0
 19 12  1  0
 20 18  2  0
 21 15  1  0
 22 16  2  0
 23 17  1  0
 24 22  1  0
 25 23  2  0
 24 21  2  0
 20 25  1  0
M  CHG  2   1  -1   4   1
M  END
> <chembl_id>
CHEMBL2106313

> <chembl_pref_name>
LACHESINE CHLORIDE
