
     RDKit          2D

 43 48  0  0  0  0  0  0  0  0999 V2000
   -3.7623    1.2994    0.0000 F   0  0  0  0  0  0  0  0  0  0  0  0
   -3.0478    0.0619    0.0000 C   0  0  0  0  0  0  0  0  0  0  0  0
   -3.0478    0.8869    0.0000 C   0  0  0  0  0  0  0  0  0  0  0  0
   -2.3333    2.1244    0.0000 O   0  0  0  0  0  0  0  0  0  0  0  0
   -2.3333    1.2994    0.0000 C   0  0  0  0  0  0  0  0  0  0  0  0
   -1.6189    0.0619    0.0000 C   0  0  0  0  0  0  0  0  0  0  0  0
   -1.6189    0.8869    0.0000 N   0  0  0  0  0  0  0  0  0  0  0  0
   -0.9044    1.2994    0.0000 C   0  0  0  0  0  0  0  0  0  0  0  0
   -0.9044   -0.3506    0.0000 C   0  0  0  0  0  0  0  0  0  0  0  0
   -0.1899    0.0619    0.0000 N   0  0  0  0  0  0  0  0  0  0  0  0
   -0.1899    0.8869    0.0000 C   0  0  0  0  0  0  0  0  0  0  0  0
   -0.1899    2.5369    0.0000 C   0  0  0  0  0  0  0  0  0  0  0  0
   -0.9044    2.1244    0.0000 C   0  0  0  0  0  0  0  0  0  0  0  0
    0.5245   -0.3506    0.0000 C   0  0  0  0  0  0  0  0  0  0  0  0
    1.2390    0.0619    0.0000 C   0  0  0  0  0  0  0  0  0  0  0  0
    1.2390    0.8869    0.0000 C   0  0  0  0  0  0  0  0  0  0  0  0
    1.9535    1.2994    0.0000 C   0  0  0  0  0  0  0  0  0  0  0  0
    1.9535   -0.3506    0.0000 C   0  0  0  0  0  0  0  0  0  0  0  0
    2.6679    0.0619    0.0000 C   0  0  0  0  0  0  0  0  0  0  0  0
    2.6679    0.8869    0.0000 N   0  0  0  0  0  0  0  0  0  0  0  0
    3.3824    1.2994    0.0000 C   0  0  0  0  0  0  0  0  0  0  0  0
    3.3824   -0.3506    0.0000 Cl  0  0  0  0  0  0  0  0  0  0  0  0
    4.0969    0.0619    0.0000 C   0  0  0  0  0  0  0  0  0  0  0  0
    4.0969    0.8869    0.0000 C   0  0  0  0  0  0  0  0  0  0  0  0
    4.0969    2.5369    0.0000 C   0  0  0  0  0  0  0  0  0  0  0  0
    3.3824    2.1244    0.0000 C   0  0  0  0  0  0  0  0  0  0  0  0
    4.8113    1.2994    0.0000 C   0  0  0  0  0  0  0  0  0  0  0  0
    4.8113    2.1244    0.0000 C   0  0  0  0  0  0  0  0  0  0  0  0
    4.8113   -0.3506    0.0000 C   0  0  0  0  0  0  0  0  0  0  0  0
    5.5258    0.0619    0.0000 C   0  0  0  0  0  0  0  0  0  0  0  0
    5.5258    0.8869    0.0000 C   0  0  0  0  0  0  0  0  0  0  0  0
    0.5245   -1.1757    0.0000 N   0  0  0  0  0  0  0  0  0  0  0  0
    1.2390   -1.5882    0.0000 C   0  0  0  0  0  0  0  0  0  0  0  0
    1.9535   -1.1757    0.0000 N   0  0  0  0  0  0  0  0  0  0  0  0
    1.2390   -2.4132    0.0000 O   0  0  0  0  0  0  0  0  0  0  0  0
    1.9535   -2.8257    0.0000 C   0  0  0  0  0  0  0  0  0  0  0  0
    2.6679   -2.4132    0.0000 C   0  0  0  0  0  0  0  0  0  0  0  0
    2.6679   -1.5882    0.0000 C   0  0  0  0  0  0  0  0  0  0  0  0
    3.4525   -2.6681    0.0000 N   0  0  0  0  0  0  0  0  0  0  0  0
    3.9374   -2.0007    0.0000 C   0  0  0  0  0  0  0  0  0  0  0  0
    3.4526   -1.3333    0.0000 C   0  0  0  0  0  0  0  0  0  0  0  0
    0.5245    2.9494    0.0000 N   0  0  0  0  0  0  0  0  0  0  0  0
    3.7074   -3.4528    0.0000 C   0  0  0  0  0  0  0  0  0  0  0  0
  2  3  2  0
  1  3  1  0
  4  5  2  0
  3  5  1  0
  6  7  1  0
  5  7  1  0
  9 10  1  0
 10 11  1  0
  8 11  1  0
  6  9  1  0
  8  7  1  0
 12 13  1  0
  8 13  1  1
 14 15  1  0
 15 16  1  0
 10 14  1  0
 18 19  1  0
 19 20  1  0
 17 20  1  0
 15 18  2  0
 17 16  1  0
 22 23  1  0
 23 24  1  0
 21 24  1  0
 21 20  1  0
 25 26  1  0
 27 28  1  0
 25 28  2  0
 26 21  2  0
 24 27  2  0
 29 30  1  0
 30 31  2  0
 23 29  2  0
 27 31  1  0
 32 33  1  0
 33 34  2  0
 14 32  2  0
 34 18  1  0
 35 36  1  0
 37 36  1  6
 37 38  1  0
 33 35  1  0
 39 40  1  0
 40 41  1  0
 37 39  1  0
 38 41  1  0
 12 42  3  0
 39 43  1  0
M  END
> <chembl_id>
CHEMBL4594350

> <chembl_pref_name>
ADAGRASIB
