
     RDKit          2D

 19 20  0  0  0  0  0  0  0  0999 V2000
   -0.3500   -1.6750    0.0000 C   0  0  0  0  0  0  0  0  0  0  0  0
    2.3292    0.6458    0.0000 C   0  0  0  0  0  0  0  0  0  0  0  0
   -1.6833   -1.6542    0.0000 C   0  0  0  0  0  0  0  0  0  0  0  0
    0.3167   -0.5167    0.0000 O   0  0  0  0  0  0  0  0  0  0  0  0
    1.6542   -0.5167    0.0000 C   0  0  0  0  0  0  0  0  0  0  0  0
    1.6292    1.7750    0.0000 C   0  0  0  0  0  0  0  0  0  0  0  0
   -2.3375   -0.5167    0.0000 C   0  0  0  0  0  0  0  0  0  0  0  0
    0.3167   -2.8417    0.0000 O   0  0  0  0  0  0  0  0  0  0  0  0
    0.3000    1.7500    0.0000 O   0  0  0  0  0  0  0  0  0  0  0  0
    2.2792    2.9375    0.0000 O   0  0  0  0  0  0  0  0  0  0  0  0
   -1.6583    0.6458    0.0000 O   0  0  0  0  0  0  0  0  0  0  0  0
   -2.3375   -2.8542    0.0000 C   0  0  0  0  0  0  0  0  0  0  0  0
    3.6625    0.6458    0.0000 C   0  0  0  0  0  0  0  0  0  0  0  0
    2.3292   -1.6792    0.0000 C   0  0  0  0  0  0  0  0  0  0  0  0
   -3.6958   -0.5167    0.0000 C   0  0  0  0  0  0  0  0  0  0  0  0
    4.3417   -0.5167    0.0000 C   0  0  0  0  0  0  0  0  0  0  0  0
   -3.6708   -2.8417    0.0000 C   0  0  0  0  0  0  0  0  0  0  0  0
    3.6792   -1.7000    0.0000 C   0  0  0  0  0  0  0  0  0  0  0  0
   -4.3458   -1.6542    0.0000 C   0  0  0  0  0  0  0  0  0  0  0  0
  2  5  2  0
  3  1  1  0
  4  1  1  0
  5  4  1  0
  6  2  1  0
  7  3  2  0
  8  1  2  0
  9  6  2  0
 10  6  1  0
 11  7  1  0
 12  3  1  0
 13  2  1  0
 14  5  1  0
 15  7  1  0
 16 18  1  0
 17 12  2  0
 18 14  2  0
 19 17  1  0
 15 19  2  0
 13 16  2  0
M  END
> <chembl_id>
CHEMBL154111

> <chembl_pref_name>
SALSALATE
