
     RDKit          2D

 19 21  0  0  1  0  0  0  0  0999 V2000
    0.5375  -18.0667    0.0000 N   0  0  0  0  0  0  0  0  0  0  0  0
    0.5417  -18.8875    0.0000 C   0  0  0  0  0  0  0  0  0  0  0  0
   -0.1333  -17.8417    0.0000 C   0  0  0  0  0  0  0  0  0  0  0  0
   -0.1250  -17.1292    0.0000 C   0  0  0  0  0  0  0  0  0  0  0  0
    0.5417  -16.9167    0.0000 N   0  0  0  0  0  0  0  0  0  0  0  0
    0.3250  -19.5500    0.0000 C   0  0  0  0  0  0  0  0  0  0  0  0
    0.9542  -17.4917    0.0000 C   0  0  0  0  0  0  0  0  0  0  0  0
   -0.0208  -18.4750    0.0000 O   0  0  0  0  0  0  0  0  0  0  0  0
   -0.3958  -19.5417    0.0000 C   0  0  0  0  0  0  0  0  0  0  0  0
   -0.6000  -18.8792    0.0000 C   0  0  0  0  0  0  0  0  0  0  0  0
   -0.7375  -16.7792    0.0000 C   0  0  0  0  0  0  0  0  0  0  0  0
   -0.7458  -18.1917    0.0000 N   0  0  0  0  0  0  0  0  0  0  0  0
   -1.3500  -17.1167    0.0000 N   0  0  0  0  0  0  0  0  0  0  0  0
   -1.3583  -17.8292    0.0000 C   0  0  0  0  0  0  0  0  0  0  0  0
    0.7250  -20.1292    0.0000 O   0  0  0  0  0  0  0  0  0  0  0  0
   -0.7500  -16.0667    0.0000 N   0  0  0  0  0  0  0  0  0  0  0  0
   -0.8083  -20.1125    0.0000 O   0  0  0  0  0  0  0  0  0  0  0  0
   -1.2083  -18.5292    0.0000 C   0  0  0  0  0  0  0  0  0  0  0  0
   -1.8333  -18.8875    0.0000 O   0  0  0  0  0  0  0  0  0  0  0  0
  2  1  1  1
  3  1  1  0
  4  3  2  0
  5  7  2  0
  6  2  1  0
  7  1  1  0
  8  2  1  0
  9  6  1  0
 10  8  1  0
 11  4  1  0
 12  3  1  0
 13 14  1  0
 14 12  2  0
  6 15  1  6
 16 11  1  0
  9 17  1  6
 10 18  1  1
 19 18  1  0
  5  4  1  0
 10  9  1  0
 11 13  2  0
M  END
> <chembl_id>
CHEMBL477

> <chembl_pref_name>
ADENOSINE
