
     RDKit          2D

 28 29  0  0  0  0  0  0  0  0999 V2000
    2.9958   -7.0917    0.0000 C   0  0  0  0  0  0  0  0  0  0  0  0
    1.7750   -7.0917    0.0000 C   0  0  0  0  0  0  0  0  0  0  0  0
    2.3833   -6.7375    0.0000 C   0  0  0  0  0  0  0  0  0  0  0  0
    1.7750   -7.8000    0.0000 C   0  0  0  0  0  0  0  0  0  0  0  0
    2.9958   -7.8000    0.0000 C   0  0  0  0  0  0  0  0  0  0  0  0
    2.3833   -8.1542    0.0000 N   0  0  0  0  0  0  0  0  0  0  0  0
    3.6125   -6.7375    0.0000 C   0  0  0  0  0  0  0  0  0  0  0  0
    1.1583   -6.7375    0.0000 C   0  0  0  0  0  0  0  0  0  0  0  0
    2.3833   -5.3208    0.0000 C   0  0  0  0  0  0  0  0  0  0  0  0
    3.0000   -4.9667    0.0000 C   0  0  0  0  0  0  0  0  0  0  0  0
    3.6125   -6.0292    0.0000 O   0  0  0  0  0  0  0  0  0  0  0  0
    1.1583   -6.0292    0.0000 O   0  0  0  0  0  0  0  0  0  0  0  0
    1.1583   -8.1500    0.0000 C   0  0  0  0  0  0  0  0  0  0  0  0
    4.2250   -7.0917    0.0000 O   0  0  0  0  0  0  0  0  0  0  0  0
    0.5458   -7.0917    0.0000 O   0  0  0  0  0  0  0  0  0  0  0  0
    3.6125   -8.1500    0.0000 C   0  0  0  0  0  0  0  0  0  0  0  0
    3.6125   -5.3208    0.0000 Cl  0  0  0  0  0  0  0  0  0  0  0  0
   -1.2958   -8.1500    0.0000 N   0  0  0  0  0  0  0  0  0  0  0  0
    1.7750   -4.9667    0.0000 C   0  0  0  0  0  0  0  0  0  0  0  0
    0.5458   -7.7958    0.0000 O   0  0  0  0  0  0  0  0  0  0  0  0
    3.0000   -4.2583    0.0000 C   0  0  0  0  0  0  0  0  0  0  0  0
   -0.6792   -7.7958    0.0000 C   0  0  0  0  0  0  0  0  0  0  0  0
   -0.0667   -6.7375    0.0000 C   0  0  0  0  0  0  0  0  0  0  0  0
   -0.0667   -8.1500    0.0000 C   0  0  0  0  0  0  0  0  0  0  0  0
    4.8375   -6.7375    0.0000 C   0  0  0  0  0  0  0  0  0  0  0  0
    1.7708   -4.2625    0.0000 C   0  0  0  0  0  0  0  0  0  0  0  0
   -0.6792   -7.0917    0.0000 C   0  0  0  0  0  0  0  0  0  0  0  0
    2.3875   -3.9042    0.0000 C   0  0  0  0  0  0  0  0  0  0  0  0
  2  3  1  0
  3  1  1  0
  4  2  2  0
  5  1  2  0
  6  5  1  0
  7  1  1  0
  8  2  1  0
  9  3  1  0
 10  9  2  0
 11  7  2  0
 12  8  2  0
 13  4  1  0
 14  7  1  0
 15  8  1  0
 16  5  1  0
 17 10  1  0
 18 22  1  0
 19  9  1  0
 20 13  1  0
 21 10  1  0
 22 24  1  0
 23 15  1  0
 24 20  1  0
 25 14  1  0
 26 19  2  0
 27 23  1  0
 28 21  2  0
  6  4  1  0
 26 28  1  0
M  END
> <chembl_id>
CHEMBL1491

> <chembl_pref_name>
AMLODIPINE
