
     RDKit          2D

 34 37  0  0  1  0  0  0  0  0999 V2000
    0.4292   -0.6125    0.0000 C   0  0  0  0  0  0  0  0  0  0  0  0
    1.3792   -0.2292    0.0000 C   0  0  0  0  0  0  0  0  0  0  0  0
    0.4292   -1.4792    0.0000 C   0  0  0  0  0  0  0  0  0  0  0  0
   -1.8958   -2.8167    0.0000 C   0  0  0  0  0  0  0  0  0  0  0  0
   -0.3208   -1.9792    0.0000 C   0  0  0  0  0  0  0  0  0  0  0  0
   -1.0958   -1.4875    0.0000 C   0  0  0  0  0  0  0  0  0  0  0  0
   -1.8958   -1.9417    0.0000 C   0  0  0  0  0  0  0  0  0  0  0  0
   -2.6625   -3.2750    0.0000 C   0  0  0  0  0  0  0  0  0  0  0  0
   -0.3333   -0.1667    0.0000 C   0  0  0  0  0  0  0  0  0  0  0  0
    1.9167   -0.8542    0.0000 C   0  0  0  0  0  0  0  0  0  0  0  0
    2.3542   -0.2292    0.0000 O   0  0  0  0  0  0  0  0  0  0  0  0
    1.4667   -1.6417    0.0000 C   0  0  0  0  0  0  0  0  0  0  0  0
   -1.0958   -0.6125    0.0000 C   0  0  0  0  0  0  0  0  0  0  0  0
    1.2042    0.6750    0.0000 C   0  0  0  0  0  0  0  0  0  0  0  0
   -0.3208   -2.8167    0.0000 C   0  0  0  0  0  0  0  0  0  0  0  0
   -2.6625   -1.5000    0.0000 C   0  0  0  0  0  0  0  0  0  0  0  0
    3.2125    0.4500    0.0000 C   0  0  0  0  0  0  0  0  0  0  0  0
   -1.0958   -3.2542    0.0000 C   0  0  0  0  0  0  0  0  0  0  0  0
   -3.4458   -2.8417    0.0000 C   0  0  0  0  0  0  0  0  0  0  0  0
    3.8750    0.0625    0.0000 O   0  0  0  0  0  0  0  0  0  0  0  0
    1.6917    1.3208    0.0000 O   0  0  0  0  0  0  0  0  0  0  0  0
   -4.2333   -3.3000    0.0000 O   0  0  0  0  0  0  0  0  0  0  0  0
   -3.4375   -1.9542    0.0000 C   0  0  0  0  0  0  0  0  0  0  0  0
    0.4292    0.2208    0.0000 C   0  0  0  0  0  0  0  0  0  0  0  0
    2.6542    1.1000    0.0000 C   0  0  0  0  0  0  0  0  0  0  0  0
    0.2042    1.2208    0.0000 C   0  0  0  0  0  0  0  0  0  0  0  0
    3.5167    1.6208    0.0000 C   0  0  0  0  0  0  0  0  0  0  0  0
    4.3417    2.7958    0.0000 C   0  0  0  0  0  0  0  0  0  0  0  0
    3.4000    2.5833    0.0000 C   0  0  0  0  0  0  0  0  0  0  0  0
    4.3417    3.4708    0.0000 C   0  0  0  0  0  0  0  0  0  0  0  0
    0.8667   -2.3375    0.0000 H   0  0  0  0  0  0  0  0  0  0  0  0
   -0.3208   -1.0917    0.0000 H   0  0  0  0  0  0  0  0  0  0  0  0
   -1.1083   -2.3917    0.0000 H   0  0  0  0  0  0  0  0  0  0  0  0
   -1.8958   -1.1292    0.0000 H   0  0  0  0  0  0  0  0  0  0  0  0
  2  1  1  0
  3  1  1  0
  4  7  1  0
  5  3  1  0
  6 13  1  0
  7  6  1  0
  8  4  2  0
  9  1  1  0
 10  2  1  0
  2 11  1  6
 12  3  1  0
 13  9  1  0
  2 14  1  1
 15  5  1  0
 16  7  1  0
 17 11  1  0
 18 15  1  0
 19 23  1  0
 20 17  2  0
 21 14  2  0
 22 19  2  0
 23 16  1  0
  1 24  1  1
 25 17  1  0
 26 14  1  0
 27 25  1  0
 28 29  1  0
 29 27  1  0
 30 28  1  0
  3 31  1  6
  5 32  1  1
  6 33  1  6
  7 34  1  1
 10 12  1  0
  5  6  1  0
 18  4  1  0
  8 19  1  0
M  END
> <chembl_id>
CHEMBL2107389

> <chembl_pref_name>
GESTONORONE CAPROATE
