
     RDKit          2D

 35 36  0  0  1  0  0  0  0  0999 V2000
    0.7875   -4.9917    0.0000 N   0  0  0  0  0  0  0  0  0  0  0  0
    0.1250   -4.0708    0.0000 C   0  0  0  0  0  0  0  0  0  0  0  0
    0.1250   -4.7667    0.0000 C   0  0  0  0  0  0  0  0  0  0  0  0
    0.7875   -3.8667    0.0000 N   0  0  0  0  0  0  0  0  0  0  0  0
    3.2417   -5.7500    0.0000 P   0  0  0  0  0  0  0  0  0  0  0  0
    1.2042   -4.4292    0.0000 C   0  0  0  0  0  0  0  0  0  0  0  0
   -0.4750   -3.7042    0.0000 C   0  0  0  0  0  0  0  0  0  0  0  0
   -0.4750   -5.1292    0.0000 N   0  0  0  0  0  0  0  0  0  0  0  0
    4.4417   -3.6125    0.0000 C   0  0  0  0  0  0  0  0  0  0  0  0
    5.7167   -5.7500    0.0000 C   0  0  0  0  0  0  0  0  0  0  0  0
   -1.0833   -4.0708    0.0000 N   0  0  0  0  0  0  0  0  0  0  0  0
    3.2417   -5.0417    0.0000 O   0  0  0  0  0  0  0  0  0  0  0  0
    3.8542   -6.1167    0.0000 O   0  0  0  0  0  0  0  0  0  0  0  0
    3.8500   -3.9542    0.0000 O   0  0  0  0  0  0  0  0  0  0  0  0
    5.1125   -6.1167    0.0000 O   0  0  0  0  0  0  0  0  0  0  0  0
    2.6500   -6.1167    0.0000 C   0  0  0  0  0  0  0  0  0  0  0  0
    0.7875   -5.7667    0.0000 C   0  0  0  0  0  0  0  0  0  0  0  0
   -1.0833   -4.7667    0.0000 C   0  0  0  0  0  0  0  0  0  0  0  0
    3.8500   -4.6750    0.0000 C   0  0  0  0  0  0  0  0  0  0  0  0
    4.4667   -5.7500    0.0000 C   0  0  0  0  0  0  0  0  0  0  0  0
    3.8500   -5.3625    0.0000 O   0  0  0  0  0  0  0  0  0  0  0  0
    4.4417   -2.8917    0.0000 O   0  0  0  0  0  0  0  0  0  0  0  0
    5.7167   -5.0417    0.0000 O   0  0  0  0  0  0  0  0  0  0  0  0
    6.3500   -6.1167    0.0000 O   0  0  0  0  0  0  0  0  0  0  0  0
    5.0667   -3.9542    0.0000 O   0  0  0  0  0  0  0  0  0  0  0  0
    2.0375   -5.7500    0.0000 O   0  0  0  0  0  0  0  0  0  0  0  0
   -0.4750   -3.0292    0.0000 N   0  0  0  0  0  0  0  0  0  0  0  0
    1.4167   -6.1167    0.0000 C   0  0  0  0  0  0  0  0  0  0  0  0
    5.7000   -3.6125    0.0000 C   0  0  0  0  0  0  0  0  0  0  0  0
    6.9792   -5.7500    0.0000 C   0  0  0  0  0  0  0  0  0  0  0  0
    1.4167   -6.8250    0.0000 C   0  0  0  0  0  0  0  0  0  0  0  0
    6.3042   -3.9542    0.0000 C   0  0  0  0  0  0  0  0  0  0  0  0
    5.7000   -2.8917    0.0000 C   0  0  0  0  0  0  0  0  0  0  0  0
    7.6125   -6.1167    0.0000 C   0  0  0  0  0  0  0  0  0  0  0  0
    6.9792   -5.0417    0.0000 C   0  0  0  0  0  0  0  0  0  0  0  0
  2  3  2  0
  3  1  1  0
  4  6  2  0
  5 16  1  0
  6  1  1  0
  7  2  1  0
  8  3  1  0
  9 14  1  0
 10 15  1  0
 11  7  2  0
 12  5  1  0
 13  5  1  0
 14 19  1  0
 15 20  1  0
 16 26  1  0
 17  1  1  0
 18  8  2  0
 19 12  1  0
 20 13  1  0
 21  5  2  0
 22  9  2  0
 23 10  2  0
 24 10  1  0
 25  9  1  0
 26 28  1  0
 27  7  1  0
 28 17  1  0
 29 25  1  0
 30 24  1  0
 28 31  1  6
 32 29  1  0
 33 29  1  0
 34 30  1  0
 35 30  1  0
  4  2  1  0
 18 11  1  0
M  END
> <chembl_id>
CHEMBL1538

> <chembl_pref_name>
TENOFOVIR DISOPROXIL
