
     RDKit          2D

 29 30  0  0  0  0  0  0  0  0999 V2000
  -16.2348   -2.3866    0.0000 Cl  0  0  0  0  0  0  0  0  0  0  0  0
  -17.8848   -0.4714    0.0000 N   0  0  0  0  0  0  0  0  0  0  0  0
  -17.1703   -0.8839    0.0000 C   0  0  0  0  0  0  0  0  0  0  0  0
  -16.4559   -1.2964    0.0000 C   0  0  0  0  0  0  0  0  0  0  0  0
  -15.7414   -0.8839    0.0000 C   0  0  0  0  0  0  0  0  0  0  0  0
  -15.0269   -1.2964    0.0000 C   0  0  0  0  0  0  0  0  0  0  0  0
  -13.5980   -1.2964    0.0000 C   0  0  0  0  0  0  0  0  0  0  0  0
  -14.3124   -0.8839    0.0000 C   0  0  0  0  0  0  0  0  0  0  0  0
  -15.0269   -2.1214    0.0000 C   0  0  0  0  0  0  0  0  0  0  0  0
  -14.3124   -2.5339    0.0000 C   0  0  0  0  0  0  0  0  0  0  0  0
  -13.5980   -2.1214    0.0000 C   0  0  0  0  0  0  0  0  0  0  0  0
  -12.8835   -2.5339    0.0000 N   0  0  0  0  0  0  0  0  0  0  0  0
  -12.1984   -2.0920    0.0000 C   0  0  0  0  0  0  0  0  0  0  0  0
  -12.1984   -1.2670    0.0000 C   0  0  0  0  0  0  0  0  0  0  0  0
  -12.8835   -0.8839    0.0000 C   0  0  0  0  0  0  0  0  0  0  0  0
  -11.4840   -0.8545    0.0000 C   0  0  0  0  0  0  0  0  0  0  0  0
  -11.4840   -2.5045    0.0000 N   0  0  0  0  0  0  0  0  0  0  0  0
  -10.7695   -2.0920    0.0000 C   0  0  0  0  0  0  0  0  0  0  0  0
  -10.7695   -1.2670    0.0000 N   0  0  0  0  0  0  0  0  0  0  0  0
  -10.0550   -2.5045    0.0000 N   0  0  0  0  0  0  0  0  0  0  0  0
   -9.3406   -2.0920    0.0000 C   0  0  0  0  0  0  0  0  0  0  0  0
   -8.6261   -0.8545    0.0000 C   0  0  0  0  0  0  0  0  0  0  0  0
   -9.3406   -1.2670    0.0000 C   0  0  0  0  0  0  0  0  0  0  0  0
   -8.6261   -2.5045    0.0000 C   0  0  0  0  0  0  0  0  0  0  0  0
   -7.9116   -2.0920    0.0000 C   0  0  0  0  0  0  0  0  0  0  0  0
   -7.9116   -1.2670    0.0000 C   0  0  0  0  0  0  0  0  0  0  0  0
   -7.1147   -1.0534    0.0000 C   0  0  0  0  0  0  0  0  0  0  0  0
  -14.3124   -3.3589    0.0000 C   0  0  0  0  0  0  0  0  0  0  0  0
   -6.3178   -0.8398    0.0000 N   0  0  0  0  0  0  0  0  0  0  0  0
  2  3  3  0
  3  4  1  0
  4  5  2  0
  5  6  1  0
  8  6  1  0
  6  9  2  0
  7  8  2  0
  7 11  1  0
  7 15  1  0
  9 10  1  0
 10 11  2  0
 11 12  1  0
 12 13  1  0
 16 14  2  0
 13 14  1  0
 13 17  2  0
 16 19  1  0
 17 18  1  0
 18 19  2  0
 18 20  1  0
 20 21  1  0
 23 21  1  0
 21 24  2  0
 22 23  2  0
 22 26  1  0
 24 25  1  0
 25 26  2  0
 26 27  1  0
 10 28  1  0
 27 29  3  0
M  END
> <chembl_id>
CHEMBL1628504

> <chembl_pref_name>
RILPIVIRINE HYDROCHLORIDE
