
     RDKit          2D

 36 38  0  0  0  0  0  0  0  0999 V2000
    5.5000   -6.0250    0.0000 Cl  0  0  0  0  0  0  0  0  0  0  0  0
    2.1458   -6.0500    0.0000 C   0  0  0  0  0  0  0  0  0  0  0  0
    3.3667   -6.0583    0.0000 C   0  0  0  0  0  0  0  0  0  0  0  0
    0.9208   -6.0500    0.0000 C   0  0  0  0  0  0  0  0  0  0  0  0
    1.5292   -6.4042    0.0000 C   0  0  0  0  0  0  0  0  0  0  0  0
    2.7500   -6.4042    0.0000 C   0  0  0  0  0  0  0  0  0  0  0  0
    2.1500   -5.3417    0.0000 C   0  0  0  0  0  0  0  0  0  0  0  0
    3.3708   -5.3500    0.0000 C   0  0  0  0  0  0  0  0  0  0  0  0
    0.3042   -6.4042    0.0000 C   0  0  0  0  0  0  0  0  0  0  0  0
   -0.3083   -6.0500    0.0000 C   0  0  0  0  0  0  0  0  0  0  0  0
   -0.3083   -5.3375    0.0000 C   0  0  0  0  0  0  0  0  0  0  0  0
    2.7625   -4.9917    0.0000 C   0  0  0  0  0  0  0  0  0  0  0  0
    0.9208   -5.3375    0.0000 C   0  0  0  0  0  0  0  0  0  0  0  0
    1.5333   -4.9792    0.0000 C   0  0  0  0  0  0  0  0  0  0  0  0
   -0.9208   -4.9833    0.0000 C   0  0  0  0  0  0  0  0  0  0  0  0
    0.3042   -4.9792    0.0000 C   0  0  0  0  0  0  0  0  0  0  0  0
    3.9792   -6.4125    0.0000 C   0  0  0  0  0  0  0  0  0  0  0  0
   -1.5333   -5.3375    0.0000 C   0  0  0  0  0  0  0  0  0  0  0  0
   -0.9208   -6.4042    0.0000 C   0  0  0  0  0  0  0  0  0  0  0  0
    2.7458   -7.1125    0.0000 O   0  0  0  0  0  0  0  0  0  0  0  0
    0.3000   -7.1125    0.0000 O   0  0  0  0  0  0  0  0  0  0  0  0
    2.7667   -4.2792    0.0000 N   0  0  0  0  0  0  0  0  0  0  0  0
   -0.9208   -4.2750    0.0000 N   0  0  0  0  0  0  0  0  0  0  0  0
    2.1417   -6.7542    0.0000 O   0  0  0  0  0  0  0  0  0  0  0  0
    3.9750   -7.1167    0.0000 O   0  0  0  0  0  0  0  0  0  0  0  0
    1.5292   -7.1125    0.0000 O   0  0  0  0  0  0  0  0  0  0  0  0
    3.9875   -5.0000    0.0000 O   0  0  0  0  0  0  0  0  0  0  0  0
   -1.5333   -6.0500    0.0000 C   0  0  0  0  0  0  0  0  0  0  0  0
    4.5917   -6.0583    0.0000 N   0  0  0  0  0  0  0  0  0  0  0  0
   -0.9167   -7.1125    0.0000 O   0  0  0  0  0  0  0  0  0  0  0  0
    3.3833   -3.9292    0.0000 C   0  0  0  0  0  0  0  0  0  0  0  0
    2.1542   -3.9250    0.0000 C   0  0  0  0  0  0  0  0  0  0  0  0
   -0.3083   -3.9208    0.0000 C   0  0  0  0  0  0  0  0  0  0  0  0
   -1.5375   -3.9250    0.0000 C   0  0  0  0  0  0  0  0  0  0  0  0
    2.1417   -4.6292    0.0000 H   0  0  0  0  0  0  0  0  0  0  0  0
    0.9167   -4.6292    0.0000 H   0  0  0  0  0  0  0  0  0  0  0  0
  3  6  1  0
  4  5  2  0
  5  2  1  0
  6  2  1  0
  7  2  1  0
  8 12  1  0
  9  4  1  0
 10  9  1  0
 11 16  1  0
 12  7  1  0
 13 14  1  0
 14  7  1  0
 15 11  2  0
 16 13  1  0
 17  3  1  0
 18 15  1  0
 19 10  2  0
 20  6  2  0
 21  9  2  0
 12 22  1  6
 23 15  1  0
  2 24  1  6
 25 17  2  0
 26  5  1  0
 27  8  1  0
 28 19  1  0
 29 17  1  0
 30 19  1  0
 31 22  1  0
 32 22  1  0
 33 23  1  0
 34 23  1  0
  7 35  1  6
 13 36  1  6
  4 13  1  0
  8  3  2  0
 10 11  1  0
 28 18  2  0
M  END
> <chembl_id>
CHEMBL1200881

> <chembl_pref_name>
MINOCYCLINE HYDROCHLORIDE
