
     RDKit          2D

 23 26  0  0  0  0  0  0  0  0999 V2000
    2.8917   -2.3167    0.0000 N   0  0  0  0  0  0  0  0  0  0  0  0
    2.3375   -3.4750    0.0000 C   0  0  0  0  0  0  0  0  0  0  0  0
    2.3375   -2.7542    0.0000 C   0  0  0  0  0  0  0  0  0  0  0  0
    2.8917   -3.9125    0.0000 C   0  0  0  0  0  0  0  0  0  0  0  0
    3.5917   -2.4792    0.0000 C   0  0  0  0  0  0  0  0  0  0  0  0
    3.5917   -3.7417    0.0000 N   0  0  0  0  0  0  0  0  0  0  0  0
    3.9625   -1.8792    0.0000 N   0  0  0  0  0  0  0  0  0  0  0  0
    3.4750   -1.3292    0.0000 N   0  0  0  0  0  0  0  0  0  0  0  0
    2.8417   -1.6250    0.0000 C   0  0  0  0  0  0  0  0  0  0  0  0
    2.5500   -4.5250    0.0000 C   0  0  0  0  0  0  0  0  0  0  0  0
    3.8917   -3.1167    0.0000 C   0  0  0  0  0  0  0  0  0  0  0  0
    1.7250   -2.4000    0.0000 C   0  0  0  0  0  0  0  0  0  0  0  0
    1.7250   -3.8292    0.0000 C   0  0  0  0  0  0  0  0  0  0  0  0
    2.9125   -5.1167    0.0000 C   0  0  0  0  0  0  0  0  0  0  0  0
    1.1042   -3.4750    0.0000 C   0  0  0  0  0  0  0  0  0  0  0  0
    1.1042   -2.7542    0.0000 C   0  0  0  0  0  0  0  0  0  0  0  0
    3.6167   -5.0917    0.0000 Cl  0  0  0  0  0  0  0  0  0  0  0  0
    0.4917   -3.8167    0.0000 Cl  0  0  0  0  0  0  0  0  0  0  0  0
    1.8417   -4.5250    0.0000 C   0  0  0  0  0  0  0  0  0  0  0  0
    2.2375   -1.2667    0.0000 C   0  0  0  0  0  0  0  0  0  0  0  0
    2.5750   -5.7417    0.0000 C   0  0  0  0  0  0  0  0  0  0  0  0
    1.5000   -5.1625    0.0000 C   0  0  0  0  0  0  0  0  0  0  0  0
    1.8625   -5.7542    0.0000 C   0  0  0  0  0  0  0  0  0  0  0  0
  2  3  2  0
  3  1  1  0
  4  2  1  0
  5  1  1  0
  6 11  1  0
  7  5  2  0
  8  9  2  0
  9  1  1  0
 10  4  1  0
 11  5  1  0
 12  3  1  0
 13  2  1  0
 14 10  1  0
 15 16  1  0
 16 12  2  0
 17 14  1  0
 18 15  1  0
 19 10  2  0
 20  9  1  0
 21 14  2  0
 22 19  1  0
 23 22  2  0
  8  7  1  0
  6  4  2  0
 15 13  2  0
 23 21  1  0
M  END
> <chembl_id>
CHEMBL646

> <chembl_pref_name>
TRIAZOLAM
