
     RDKit          2D

 11 11  0  0  0  0  0  0  0  0999 V2000
    4.2458   -4.3961    0.0000 Na  0  0  0  0  0 15  0  0  0  0  0  0
    4.0568   -5.7047    0.0000 C   0  0  0  0  0  0  0  0  0  0  0  0
    4.0422   -6.5432    0.0000 C   0  0  0  0  0  0  0  0  0  0  0  0
    5.3121   -6.1555    0.0000 N   0  0  0  0  0  0  0  0  0  0  0  0
    3.3588   -5.2927    0.0000 C   0  0  0  0  0  0  0  0  0  0  0  0
    3.3297   -6.9261    0.0000 N   0  0  0  0  0  0  0  0  0  0  0  0
    4.8129   -6.8194    0.0000 N   0  0  0  0  0  0  0  0  0  0  0  0
    2.6367   -5.6756    0.0000 N   0  0  0  0  0  0  0  0  0  0  0  0
    2.6076   -6.5141    0.0000 C   0  0  0  0  0  0  0  0  0  0  0  0
    4.8468   -5.4672    0.0000 C   0  0  0  0  0  0  0  0  0  0  0  0
    3.3637   -4.4542    0.0000 O   0  0  0  0  0  0  0  0  0  0  0  0
  3  2  2  0
  4 10  2  0
  5  2  1  0
  6  3  1  0
  7  3  1  0
  8  5  1  0
  9  8  1  0
 10  2  1  0
 11  5  2  0
  4  7  1  0
  9  6  2  0
M  CHG  2   1   1   8  -1
M  END
> <chembl_id>
CHEMBL1200477

> <chembl_pref_name>
ALLOPURINOL SODIUM
