
     RDKit          2D

 35 38  0  0  1  0  0  0  0  0999 V2000
    1.7667   -4.7125    0.0000 N   0  0  0  0  0  0  0  0  0  0  0  0
    2.4417   -4.9292    0.0000 C   0  0  0  0  0  0  0  0  0  0  0  0
    1.0542   -4.7125    0.0000 C   0  0  0  0  0  0  0  0  0  0  0  0
    2.8583   -4.3542    0.0000 C   0  0  0  0  0  0  0  0  0  0  0  0
    1.7625   -4.0042    0.0000 C   0  0  0  0  0  0  0  0  0  0  0  0
    1.0542   -4.0042    0.0000 C   0  0  0  0  0  0  0  0  0  0  0  0
    2.4375   -3.7833    0.0000 C   0  0  0  0  0  0  0  0  0  0  0  0
    2.4375   -5.6375    0.0000 C   0  0  0  0  0  0  0  0  0  0  0  0
    5.4375   -2.6792    0.0000 C   0  0  0  0  0  0  0  0  0  0  0  0
    3.5667   -4.3500    0.0000 S   0  0  0  0  0  0  0  0  0  0  0  0
    4.2417   -2.6333    0.0000 N   0  0  0  0  0  0  0  0  0  0  0  0
    4.8250   -3.0375    0.0000 C   0  0  0  0  0  0  0  0  0  0  0  0
    6.0500   -3.0250    0.0000 N   0  0  0  0  0  0  0  0  0  0  0  0
    8.5042   -3.0083    0.0000 C   0  0  0  0  0  0  0  0  0  0  0  0
    0.5542   -5.2167    0.0000 O   0  0  0  0  0  0  0  0  0  0  0  0
    7.8875   -2.6583    0.0000 C   0  0  0  0  0  0  0  0  0  0  0  0
    4.6208   -3.7167    0.0000 C   0  0  0  0  0  0  0  0  0  0  0  0
    3.9167   -3.7333    0.0000 C   0  0  0  0  0  0  0  0  0  0  0  0
    0.4375   -3.6500    0.0000 C   0  0  0  0  0  0  0  0  0  0  0  0
    3.0458   -5.9958    0.0000 O   0  0  0  0  0  0  0  0  0  0  0  0
    6.6625   -2.6667    0.0000 C   0  0  0  0  0  0  0  0  0  0  0  0
    7.2750   -3.0167    0.0000 C   0  0  0  0  0  0  0  0  0  0  0  0
    5.4292   -1.9708    0.0000 O   0  0  0  0  0  0  0  0  0  0  0  0
    1.8167   -5.9833    0.0000 O   0  0  0  0  0  0  0  0  0  0  0  0
    8.5083   -3.7167    0.0000 O   0  0  0  0  0  0  0  0  0  0  0  0
    3.6792   -3.0625    0.0000 C   0  0  0  0  0  0  0  0  0  0  0  0
    9.1125   -2.6500    0.0000 O   0  0  0  0  0  0  0  0  0  0  0  0
    2.6542   -3.1083    0.0000 C   0  0  0  0  0  0  0  0  0  0  0  0
    0.4333   -2.9417    0.0000 O   0  0  0  0  0  0  0  0  0  0  0  0
    7.8792   -1.9500    0.0000 C   0  0  0  0  0  0  0  0  0  0  0  0
    7.2583   -1.6000    0.0000 C   0  0  0  0  0  0  0  0  0  0  0  0
    6.6542   -1.9625    0.0000 C   0  0  0  0  0  0  0  0  0  0  0  0
   -0.1792   -4.0042    0.0000 C   0  0  0  0  0  0  0  0  0  0  0  0
    1.7542   -3.2917    0.0000 H   0  0  0  0  0  0  0  0  0  0  0  0
    1.0500   -3.2917    0.0000 H   0  0  0  0  0  0  0  0  0  0  0  0
  2  1  1  0
  3  1  1  0
  4  2  2  0
  5  1  1  0
  6  3  1  0
  7  5  1  0
  8  2  1  0
 12  9  1  6
 10  4  1  0
 11 26  1  0
 12 17  1  0
 13  9  1  0
 14 16  1  0
 15  3  2  0
 16 22  1  0
 17 18  1  0
 18 10  1  6
 19  6  1  0
 20  8  1  0
 21 13  1  0
 22 21  2  0
 23  9  2  0
 24  8  2  0
 25 14  2  0
 26 18  1  0
 27 14  1  0
  7 28  1  1
 19 29  1  1
 30 31  1  0
 31 32  2  0
 32 21  1  0
 33 19  1  0
  5 34  1  6
  6 35  1  1
  6  5  1  0
  7  4  1  0
 11 12  1  0
 30 16  2  0
M  END
> <chembl_id>
CHEMBL1359

> <chembl_pref_name>
ERTAPENEM
