
     RDKit          2D

 36 40  0  0  1  0  0  0  0  0999 V2000
    1.1917   -1.8750    0.0000 N   0  0  0  0  0  0  0  0  0  0  0  0
    0.3542   -1.8750    0.0000 C   0  0  0  0  0  0  0  0  0  0  0  0
    0.3542   -1.1667    0.0000 C   0  0  0  0  0  0  0  0  0  0  0  0
    1.1917   -1.1542    0.0000 C   0  0  0  0  0  0  0  0  0  0  0  0
    2.4375   -1.8750    0.0000 C   0  0  0  0  0  0  0  0  0  0  0  0
    1.8125   -2.2542    0.0000 C   0  0  0  0  0  0  0  0  0  0  0  0
   -2.1333   -1.1750    0.0000 C   0  0  0  0  0  0  0  0  0  0  0  0
    3.5417   -1.8750    0.0000 N   0  0  0  0  0  0  0  0  0  0  0  0
   -1.5083   -0.8000    0.0000 C   0  0  0  0  0  0  0  0  0  0  0  0
   -2.3958   -1.8292    0.0000 N   0  0  0  0  0  0  0  0  0  0  0  0
   -0.2833   -0.8000    0.0000 N   0  0  0  0  0  0  0  0  0  0  0  0
   -0.9083   -1.1750    0.0000 C   0  0  0  0  0  0  0  0  0  0  0  0
    1.8125   -0.8375    0.0000 S   0  0  0  0  0  0  0  0  0  0  0  0
   -3.0875   -1.8292    0.0000 C   0  0  0  0  0  0  0  0  0  0  0  0
    3.0042   -2.1917    0.0000 C   0  0  0  0  0  0  0  0  0  0  0  0
    1.8042   -2.8875    0.0000 C   0  0  0  0  0  0  0  0  0  0  0  0
   -2.7333   -0.7500    0.0000 C   0  0  0  0  0  0  0  0  0  0  0  0
   -3.3208   -1.1667    0.0000 S   0  0  0  0  0  0  0  0  0  0  0  0
    4.2625   -2.2292    0.0000 C   0  0  0  0  0  0  0  0  0  0  0  0
    2.4375   -1.1750    0.0000 C   0  0  0  0  0  0  0  0  0  0  0  0
   -1.5083   -0.1292    0.0000 N   0  0  0  0  0  0  0  0  0  0  0  0
   -0.0958   -2.2667    0.0000 O   0  0  0  0  0  0  0  0  0  0  0  0
   -0.9083   -1.7375    0.0000 O   0  0  0  0  0  0  0  0  0  0  0  0
    2.4375   -3.2292    0.0000 O   0  0  0  0  0  0  0  0  0  0  0  0
    1.2417   -3.2542    0.0000 O   0  0  0  0  0  0  0  0  0  0  0  0
    4.8667   -1.8750    0.0000 C   0  0  0  0  0  0  0  0  0  0  0  0
   -3.5375   -2.2917    0.0000 N   0  0  0  0  0  0  0  0  0  0  0  0
    3.5417   -1.1542    0.0000 C   0  0  0  0  0  0  0  0  0  0  0  0
   -0.9000    0.2125    0.0000 O   0  0  0  0  0  0  0  0  0  0  0  0
    4.4750   -2.9542    0.0000 C   0  0  0  0  0  0  0  0  0  0  0  0
    4.2417   -0.8250    0.0000 C   0  0  0  0  0  0  0  0  0  0  0  0
    5.2500   -2.9542    0.0000 C   0  0  0  0  0  0  0  0  0  0  0  0
    4.8667   -1.1542    0.0000 C   0  0  0  0  0  0  0  0  0  0  0  0
    5.4375   -2.2292    0.0000 C   0  0  0  0  0  0  0  0  0  0  0  0
   -0.9000    1.0333    0.0000 C   0  0  0  0  0  0  0  0  0  0  0  0
    0.9508   -0.1837    0.0000 H   0  0  0  0  0  0  0  0  0  0  0  0
  2  1  1  0
  3  4  1  0
  4  1  1  0
  5  6  2  0
  6  1  1  0
  7  9  1  0
  8 15  1  0
  9 12  1  0
 10  7  1  0
  3 11  1  1
 12 11  1  0
  4 13  1  0
 14 10  2  0
 15  5  1  0
 16  6  1  0
 17  7  2  0
 18 17  1  0
 19  8  2  0
 20 13  1  0
 21  9  2  0
 22  2  2  0
 23 12  2  0
 24 16  1  0
 25 16  2  0
 26 19  1  0
 27 14  1  0
 28  8  1  0
 29 21  1  0
 30 19  1  0
 31 28  2  0
 32 30  1  0
 33 31  1  0
 34 26  1  0
 35 29  1  0
  2  3  1  0
 20  5  1  0
 26 33  2  0
 34 32  1  0
 18 14  1  0
  4 36  1  6
M  CHG  2   8   1  24  -1
M  END
> <chembl_id>
CHEMBL65794

> <chembl_pref_name>
CEFPIROME
