
     RDKit          2D

 48 52  0  0  0  0  0  0  0  0999 V2000
    8.6554   -4.8768    0.0000 N   0  0  0  0  0  0  0  0  0  0  0  0
    8.6596   -5.7035    0.0000 C   0  0  0  0  0  0  0  0  0  0  0  0
    7.9331   -4.4634    0.0000 C   0  0  0  0  0  0  0  0  0  0  0  0
    7.2317   -4.8976    0.0000 C   0  0  0  0  0  0  0  0  0  0  0  0
    7.9540   -6.1252    0.0000 N   0  0  0  0  0  0  0  0  0  0  0  0
    2.5470   -2.5595    0.0000 N   0  0  0  0  0  0  0  0  0  0  0  0
    7.2317   -5.7243    0.0000 C   0  0  0  0  0  0  0  0  0  0  0  0
    2.9102   -3.3110    0.0000 C   0  0  0  0  0  0  0  0  0  0  0  0
    2.3048   -3.8872    0.0000 C   0  0  0  0  0  0  0  0  0  0  0  0
    1.7203   -2.6722    0.0000 O   0  0  0  0  0  0  0  0  0  0  0  0
    1.5699   -3.4864    0.0000 C   0  0  0  0  0  0  0  0  0  0  0  0
    6.5052   -4.4885    0.0000 C   0  0  0  0  0  0  0  0  0  0  0  0
    5.0730   -4.5135    0.0000 N   0  0  0  0  0  0  0  0  0  0  0  0
    2.3215   -4.7139    0.0000 C   0  0  0  0  0  0  0  0  0  0  0  0
    0.8685   -3.9248    0.0000 C   0  0  0  0  0  0  0  0  0  0  0  0
    7.9206   -3.6367    0.0000 O   0  0  0  0  0  0  0  0  0  0  0  0
    9.3736   -6.1043    0.0000 C   0  0  0  0  0  0  0  0  0  0  0  0
    3.6325   -3.7119    0.0000 C   0  0  0  0  0  0  0  0  0  0  0  0
    8.6721   -7.3444    0.0000 C   0  0  0  0  0  0  0  0  0  0  0  0
    8.6721   -8.1711    0.0000 O   0  0  0  0  0  0  0  0  0  0  0  0
    5.7912   -4.9144    0.0000 C   0  0  0  0  0  0  0  0  0  0  0  0
    9.3611   -4.4509    0.0000 C   0  0  0  0  0  0  0  0  0  0  0  0
    0.8935   -4.7515    0.0000 C   0  0  0  0  0  0  0  0  0  0  0  0
    4.3382   -3.2860    0.0000 C   0  0  0  0  0  0  0  0  0  0  0  0
    3.6450   -4.5386    0.0000 C   0  0  0  0  0  0  0  0  0  0  0  0
    4.3632   -4.9394    0.0000 C   0  0  0  0  0  0  0  0  0  0  0  0
    5.0605   -3.6868    0.0000 C   0  0  0  0  0  0  0  0  0  0  0  0
    1.6201   -5.1481    0.0000 C   0  0  0  0  0  0  0  0  0  0  0  0
    9.3861   -6.9310    0.0000 O   0  0  0  0  0  0  0  0  0  0  0  0
    6.5177   -6.1419    0.0000 C   0  0  0  0  0  0  0  0  0  0  0  0
    0.1879   -5.1774    0.0000 F   0  0  0  0  0  0  0  0  0  0  0  0
   10.0876   -4.8643    0.0000 C   0  0  0  0  0  0  0  0  0  0  0  0
    7.9582   -6.9310    0.0000 C   0  0  0  0  0  0  0  0  0  0  0  0
   10.0876   -5.6910    0.0000 C   0  0  0  0  0  0  0  0  0  0  0  0
    7.2442   -7.3444    0.0000 C   0  0  0  0  0  0  0  0  0  0  0  0
   -1.3235   -7.3444    0.0000 C   0  0  0  0  0  0  0  0  0  0  0  0
   -0.6096   -6.9310    0.0000 C   0  0  0  0  0  0  0  0  0  0  0  0
    3.6743   -6.9310    0.0000 C   0  0  0  0  0  0  0  0  0  0  0  0
    4.3883   -7.3444    0.0000 C   0  0  0  0  0  0  0  0  0  0  0  0
    5.1023   -6.9310    0.0000 C   0  0  0  0  0  0  0  0  0  0  0  0
    5.8162   -7.3444    0.0000 C   0  0  0  0  0  0  0  0  0  0  0  0
    6.5302   -6.9310    0.0000 C   0  0  0  0  0  0  0  0  0  0  0  0
    0.1044   -7.3444    0.0000 C   0  0  0  0  0  0  0  0  0  0  0  0
    0.8184   -6.9310    0.0000 C   0  0  0  0  0  0  0  0  0  0  0  0
    1.5324   -7.3444    0.0000 C   0  0  0  0  0  0  0  0  0  0  0  0
    2.2463   -6.9310    0.0000 C   0  0  0  0  0  0  0  0  0  0  0  0
    2.9603   -7.3444    0.0000 C   0  0  0  0  0  0  0  0  0  0  0  0
   -2.0375   -6.9310    0.0000 C   0  0  0  0  0  0  0  0  0  0  0  0
  2  1  1  0
  3  1  1  0
  4  3  1  0
  5  2  2  0
  6  8  2  0
  7  4  2  0
  8 18  1  0
  9  8  1  0
 10  6  1  0
 11  9  1  0
 12  4  1  0
 13 21  1  0
 14  9  2  0
 15 11  2  0
 16  3  2  0
 17  2  1  0
 18 24  1  0
 20 19  2  0
 21 12  1  0
 22  1  1  0
 23 28  2  0
 24 27  1  0
 25 26  1  0
 26 13  1  0
 27 13  1  0
 28 14  1  0
 29 19  1  0
 30  7  1  0
 31 23  1  0
 29 17  1  0
 32 22  1  0
 33 19  1  0
 34 17  1  0
 35 33  1  0
 36 37  1  0
 37 43  1  0
 38 39  1  0
 39 40  1  0
 40 41  1  0
 41 42  1  0
 42 35  1  0
 43 44  1  0
 44 45  1  0
 45 46  1  0
 46 47  1  0
 47 38  1  0
 48 36  1  0
  7  5  1  0
 32 34  1  0
 25 18  1  0
 11 10  1  0
 23 15  1  0
M  END
> <chembl_id>
CHEMBL2107360

> <chembl_pref_name>
PALIPERIDONE PALMITATE
