
     RDKit          2D

 85 90  0  0  1  0  0  0  0  0999 V2000
   11.7750   -3.1542    0.0000 N   0  0  0  0  0  0  0  0  0  0  0  0
   11.1625   -2.8000    0.0000 C   0  0  0  0  0  0  0  0  0  0  0  0
    1.9625   -1.7333    0.0000 C   0  0  0  0  0  0  0  0  0  0  0  0
    3.8042   -2.7917    0.0000 C   0  0  0  0  0  0  0  0  0  0  0  0
    1.9625   -3.1500    0.0000 C   0  0  0  0  0  0  0  0  0  0  0  0
    0.1250   -2.7958    0.0000 C   0  0  0  0  0  0  0  0  0  0  0  0
    9.3250   -3.1542    0.0000 C   0  0  0  0  0  0  0  0  0  0  0  0
   -1.7125   -3.1542    0.0000 C   0  0  0  0  0  0  0  0  0  0  0  0
   -2.9042   -3.2208    0.0000 N   0  0  0  0  0  0  0  0  0  0  0  0
   12.3500   -2.7333    0.0000 C   0  0  0  0  0  0  0  0  0  0  0  0
    2.5750   -2.7917    0.0000 N   0  0  0  0  0  0  0  0  0  0  0  0
    3.1875   -3.1458    0.0000 C   0  0  0  0  0  0  0  0  0  0  0  0
    3.1083   -1.7500    0.0000 N   0  0  0  0  0  0  0  0  0  0  0  0
    0.7375   -3.1500    0.0000 N   0  0  0  0  0  0  0  0  0  0  0  0
   -1.1042   -2.7958    0.0000 N   0  0  0  0  0  0  0  0  0  0  0  0
    4.4167   -3.1542    0.0000 N   0  0  0  0  0  0  0  0  0  0  0  0
    9.9375   -2.8000    0.0000 N   0  0  0  0  0  0  0  0  0  0  0  0
    2.5292   -2.1583    0.0000 C   0  0  0  0  0  0  0  0  0  0  0  0
   -0.4917   -3.1500    0.0000 C   0  0  0  0  0  0  0  0  0  0  0  0
    1.3458   -2.7917    0.0000 C   0  0  0  0  0  0  0  0  0  0  0  0
   12.3500   -2.0250    0.0000 C   0  0  0  0  0  0  0  0  0  0  0  0
    5.6417   -3.1542    0.0000 C   0  0  0  0  0  0  0  0  0  0  0  0
   10.5458   -3.1542    0.0000 C   0  0  0  0  0  0  0  0  0  0  0  0
    1.2708   -4.1833    0.0000 N   0  0  0  0  0  0  0  0  0  0  0  0
    5.0250   -2.8000    0.0000 C   0  0  0  0  0  0  0  0  0  0  0  0
    8.7083   -2.8000    0.0000 C   0  0  0  0  0  0  0  0  0  0  0  0
   -2.3292   -2.8042    0.0000 C   0  0  0  0  0  0  0  0  0  0  0  0
   11.7750   -5.9875    0.0000 C   0  0  0  0  0  0  0  0  0  0  0  0
   -3.4750   -2.8042    0.0000 C   0  0  0  0  0  0  0  0  0  0  0  0
    2.1958   -1.0625    0.0000 C   0  0  0  0  0  0  0  0  0  0  0  0
    1.3458   -2.0875    0.0000 C   0  0  0  0  0  0  0  0  0  0  0  0
    8.0958   -3.1542    0.0000 N   0  0  0  0  0  0  0  0  0  0  0  0
    0.1250   -4.2125    0.0000 C   0  0  0  0  0  0  0  0  0  0  0  0
   -0.4917   -3.8583    0.0000 C   0  0  0  0  0  0  0  0  0  0  0  0
    0.3625   -4.8792    0.0000 N   0  0  0  0  0  0  0  0  0  0  0  0
    7.4833   -2.7958    0.0000 C   0  0  0  0  0  0  0  0  0  0  0  0
   12.9625   -1.6708    0.0000 N   0  0  0  0  0  0  0  0  0  0  0  0
    6.2542   -2.7958    0.0000 N   0  0  0  0  0  0  0  0  0  0  0  0
    1.0667   -4.8583    0.0000 C   0  0  0  0  0  0  0  0  0  0  0  0
    2.9000   -1.0750    0.0000 C   0  0  0  0  0  0  0  0  0  0  0  0
   14.1917   -1.6708    0.0000 C   0  0  0  0  0  0  0  0  0  0  0  0
   11.1625   -6.3417    0.0000 N   0  0  0  0  0  0  0  0  0  0  0  0
    0.6875   -3.7792    0.0000 C   0  0  0  0  0  0  0  0  0  0  0  0
   11.1625   -2.0917    0.0000 O   0  0  0  0  0  0  0  0  0  0  0  0
    3.8042   -2.0833    0.0000 O   0  0  0  0  0  0  0  0  0  0  0  0
    9.3250   -3.8625    0.0000 O   0  0  0  0  0  0  0  0  0  0  0  0
    0.1250   -2.0875    0.0000 O   0  0  0  0  0  0  0  0  0  0  0  0
    1.9625   -3.8542    0.0000 O   0  0  0  0  0  0  0  0  0  0  0  0
   -1.7083   -3.8625    0.0000 O   0  0  0  0  0  0  0  0  0  0  0  0
    5.0250   -2.0917    0.0000 C   0  0  0  0  0  0  0  0  0  0  0  0
   11.7375   -1.6708    0.0000 O   0  0  0  0  0  0  0  0  0  0  0  0
    5.6417   -3.8625    0.0000 O   0  0  0  0  0  0  0  0  0  0  0  0
    8.7083   -2.0917    0.0000 C   0  0  0  0  0  0  0  0  0  0  0  0
   -4.0958   -3.1542    0.0000 O   0  0  0  0  0  0  0  0  0  0  0  0
    7.4833   -2.0875    0.0000 O   0  0  0  0  0  0  0  0  0  0  0  0
   14.1917   -0.9625    0.0000 O   0  0  0  0  0  0  0  0  0  0  0  0
   -2.5500   -2.1333    0.0000 C   0  0  0  0  0  0  0  0  0  0  0  0
   11.7750   -5.2792    0.0000 N   0  0  0  0  0  0  0  0  0  0  0  0
    6.8667   -3.1500    0.0000 C   0  0  0  0  0  0  0  0  0  0  0  0
   13.5750   -2.0250    0.0000 C   0  0  0  0  0  0  0  0  0  0  0  0
   12.3875   -6.3417    0.0000 N   0  0  0  0  0  0  0  0  0  0  0  0
   11.9958   -3.8250    0.0000 C   0  0  0  0  0  0  0  0  0  0  0  0
   -3.2542   -2.1333    0.0000 C   0  0  0  0  0  0  0  0  0  0  0  0
   14.8042   -2.0250    0.0000 N   0  0  0  0  0  0  0  0  0  0  0  0
    5.6417   -1.7375    0.0000 C   0  0  0  0  0  0  0  0  0  0  0  0
    6.8667   -1.0292    0.0000 C   0  0  0  0  0  0  0  0  0  0  0  0
    3.1875   -3.8542    0.0000 C   0  0  0  0  0  0  0  0  0  0  0  0
    5.6417   -1.0292    0.0000 C   0  0  0  0  0  0  0  0  0  0  0  0
    6.2542   -2.0917    0.0000 C   0  0  0  0  0  0  0  0  0  0  0  0
    6.8667   -1.7375    0.0000 C   0  0  0  0  0  0  0  0  0  0  0  0
    6.2542   -0.6750    0.0000 C   0  0  0  0  0  0  0  0  0  0  0  0
   12.9250   -3.1542    0.0000 C   0  0  0  0  0  0  0  0  0  0  0  0
    7.4833   -0.6750    0.0000 O   0  0  0  0  0  0  0  0  0  0  0  0
    3.8042   -4.2083    0.0000 O   0  0  0  0  0  0  0  0  0  0  0  0
   12.7042   -3.8250    0.0000 C   0  0  0  0  0  0  0  0  0  0  0  0
   10.5458   -3.8625    0.0000 C   0  0  0  0  0  0  0  0  0  0  0  0
    1.8458   -0.4417    0.0000 C   0  0  0  0  0  0  0  0  0  0  0  0
    9.3250   -1.7375    0.0000 C   0  0  0  0  0  0  0  0  0  0  0  0
    3.2667   -0.4667    0.0000 C   0  0  0  0  0  0  0  0  0  0  0  0
   11.1625   -4.9250    0.0000 C   0  0  0  0  0  0  0  0  0  0  0  0
   11.1625   -4.2167    0.0000 C   0  0  0  0  0  0  0  0  0  0  0  0
    9.3250   -1.0292    0.0000 C   0  0  0  0  0  0  0  0  0  0  0  0
    9.9375   -2.0917    0.0000 C   0  0  0  0  0  0  0  0  0  0  0  0
    2.2125    0.1625    0.0000 C   0  0  0  0  0  0  0  0  0  0  0  0
    2.9250    0.1542    0.0000 C   0  0  0  0  0  0  0  0  0  0  0  0
  2  1  1  0
  3 31  1  0
  4 16  1  0
  5 11  1  0
  6 14  1  0
  7 17  1  0
  8 15  1  0
  9 27  1  0
 10  1  1  0
 12 11  1  6
 12  4  1  0
 13 18  1  0
 20 14  1  1
 19 15  1  6
 25 16  1  1
 23 17  1  6
 18  3  2  0
 19  6  1  0
 20  5  1  0
 10 21  1  6
 22 38  1  0
 23  2  1  0
 24 43  1  0
 25 22  1  0
 26  7  1  0
 27  8  1  1
 28 58  1  0
 29  9  1  0
 30  3  1  0
 20 31  1  0
 26 32  1  1
 33 34  1  0
 19 34  1  0
 35 33  1  0
 36 32  1  0
 37 21  1  0
 38 59  1  0
 39 35  1  0
 40 30  2  0
 41 60  1  0
 42 28  2  0
 43 33  2  0
 44  2  2  0
 45  4  2  0
 46  7  2  0
 47  6  2  0
 48  5  2  0
 49  8  2  0
 25 50  1  0
 51 21  2  0
 52 22  2  0
 26 53  1  0
 54 29  2  0
 55 36  2  0
 56 41  2  0
 57 27  1  0
 58 80  1  0
 59 36  1  0
 60 37  1  0
 61 28  1  0
 62  1  1  0
 63 57  1  0
 64 41  1  0
 65 50  1  0
 66 70  2  0
 12 67  1  0
 68 65  1  0
 69 65  2  0
 70 69  1  0
 71 68  2  0
 72 10  1  0
 73 66  1  0
 74 67  1  0
 75 62  1  0
 23 76  1  0
 77 30  1  0
 78 53  1  0
 79 40  1  0
 80 81  1  0
 81 76  1  0
 82 78  1  0
 83 78  1  0
 84 77  2  0
 85 84  1  0
 72 75  1  0
 66 71  1  0
 13 40  1  0
 79 85  2  0
 39 24  2  0
 29 63  1  0
M  END
> <chembl_id>
CHEMBL1007

> <chembl_pref_name>
GONADORELIN
