
     RDKit          2D

 21 23  0  0  0  0  0  0  0  0999 V2000
    0.8167   -8.0625    0.0000 C   0  0  0  0  0  0  0  0  0  0  0  0
    0.1417   -7.7542    0.0000 C   0  0  0  0  0  0  0  0  0  0  0  0
    1.4792   -7.7542    0.0000 C   0  0  0  0  0  0  0  0  0  0  0  0
    0.4042   -6.3250    0.0000 S   0  0  0  0  0  0  0  0  0  0  0  0
   -0.0583   -6.9792    0.0000 C   0  0  0  0  0  0  0  0  0  0  0  0
    0.8167   -8.8375    0.0000 C   0  0  0  0  0  0  0  0  0  0  0  0
    1.7000   -6.9500    0.0000 C   0  0  0  0  0  0  0  0  0  0  0  0
    1.2542   -6.3250    0.0000 C   0  0  0  0  0  0  0  0  0  0  0  0
    2.8417   -9.2375    0.0000 N   0  0  0  0  0  0  0  0  0  0  0  0
    1.5042   -9.2375    0.0000 C   0  0  0  0  0  0  0  0  0  0  0  0
    2.0375   -8.2792    0.0000 C   0  0  0  0  0  0  0  0  0  0  0  0
   -0.4208   -8.3000    0.0000 C   0  0  0  0  0  0  0  0  0  0  0  0
    2.1750   -8.8542    0.0000 C   0  0  0  0  0  0  0  0  0  0  0  0
   -0.8125   -6.7750    0.0000 C   0  0  0  0  0  0  0  0  0  0  0  0
    2.4375   -6.7542    0.0000 C   0  0  0  0  0  0  0  0  0  0  0  0
    3.5292   -8.8542    0.0000 C   0  0  0  0  0  0  0  0  0  0  0  0
    2.8417  -10.0125    0.0000 C   0  0  0  0  0  0  0  0  0  0  0  0
    2.7792   -8.0750    0.0000 C   0  0  0  0  0  0  0  0  0  0  0  0
   -1.1625   -8.0875    0.0000 C   0  0  0  0  0  0  0  0  0  0  0  0
   -1.3583   -7.3292    0.0000 C   0  0  0  0  0  0  0  0  0  0  0  0
    2.9875   -7.3167    0.0000 C   0  0  0  0  0  0  0  0  0  0  0  0
  2  1  1  0
  3  1  1  0
  4  5  1  0
  5  2  1  0
  6  1  2  0
  7  3  1  0
  8  7  1  0
  9 13  1  0
 10  6  1  0
 11  3  2  0
 12  2  2  0
 13 10  1  0
 14  5  2  0
 15  7  2  0
 16  9  1  0
 17  9  1  0
 18 11  1  0
 19 12  1  0
 20 19  2  0
 21 18  2  0
  4  8  1  0
 21 15  1  0
 20 14  1  0
M  END
> <chembl_id>
CHEMBL1492500

> <chembl_pref_name>
DOTHIEPIN
