
     RDKit          2D

 24 27  0  0  1  0  0  0  0  0999 V2000
    4.1292   -5.2542    0.0000 C   0  0  0  0  0  0  0  0  0  0  0  0
    5.9667   -4.1792    0.0000 C   0  0  0  0  0  0  0  0  0  0  0  0
    4.1375   -5.9667    0.0000 C   0  0  0  0  0  0  0  0  0  0  0  0
    4.7375   -4.9000    0.0000 C   0  0  0  0  0  0  0  0  0  0  0  0
    5.9750   -4.8917    0.0000 C   0  0  0  0  0  0  0  0  0  0  0  0
    5.3542   -5.2500    0.0000 C   0  0  0  0  0  0  0  0  0  0  0  0
    3.5250   -6.3167    0.0000 C   0  0  0  0  0  0  0  0  0  0  0  0
    5.3417   -3.8375    0.0000 C   0  0  0  0  0  0  0  0  0  0  0  0
    4.7292   -4.1917    0.0000 C   0  0  0  0  0  0  0  0  0  0  0  0
    3.5167   -4.9000    0.0000 C   0  0  0  0  0  0  0  0  0  0  0  0
    5.3625   -5.9667    0.0000 C   0  0  0  0  0  0  0  0  0  0  0  0
    6.6417   -5.1042    0.0000 C   0  0  0  0  0  0  0  0  0  0  0  0
    4.7417   -6.3167    0.0000 C   0  0  0  0  0  0  0  0  0  0  0  0
    6.6417   -3.9625    0.0000 C   0  0  0  0  0  0  0  0  0  0  0  0
    2.9042   -5.9750    0.0000 C   0  0  0  0  0  0  0  0  0  0  0  0
    7.0542   -4.5292    0.0000 C   0  0  0  0  0  0  0  0  0  0  0  0
    2.2917   -6.3542    0.0000 O   0  0  0  0  0  0  0  0  0  0  0  0
    2.9000   -5.2500    0.0000 C   0  0  0  0  0  0  0  0  0  0  0  0
    4.1375   -4.5500    0.0000 C   0  0  0  0  0  0  0  0  0  0  0  0
    5.9625   -3.4750    0.0000 C   0  0  0  0  0  0  0  0  0  0  0  0
    6.8667   -3.2917    0.0000 O   0  0  0  0  0  0  0  0  0  0  0  0
    5.3625   -4.5417    0.0000 H   0  0  0  0  0  0  0  0  0  0  0  0
    4.7417   -5.6042    0.0000 H   0  0  0  0  0  0  0  0  0  0  0  0
    5.9875   -5.6000    0.0000 H   0  0  0  0  0  0  0  0  0  0  0  0
  2  8  1  0
  3  1  1  0
  4  1  1  0
  5  6  1  0
  6  4  1  0
  7  3  2  0
  8  9  1  0
  9  4  1  0
 10  1  1  0
 11  6  1  0
 12  5  1  0
 13  3  1  0
 14  2  1  0
 15 18  1  0
 16 12  1  0
 17 15  2  0
 18 10  1  0
  1 19  1  1
  2 20  1  1
 14 21  1  1
  6 22  1  1
  4 23  1  6
  5 24  1  6
 11 13  1  0
 15  7  1  0
  2  5  1  0
 16 14  1  0
M  END
> <chembl_id>
CHEMBL386630

> <chembl_pref_name>
TESTOSTERONE
