
     RDKit          2D

 40 44  0  0  0  0  0  0  0  0999 V2000
   10.7867  -15.7678    0.0000 C   0  0  0  0  0  0  0  0  0  0  0  0
   10.8992  -14.9514    0.0000 C   0  0  0  0  0  0  0  0  0  0  0  0
   11.5572  -16.0134    0.0000 C   0  0  0  0  0  0  0  0  0  0  0  0
   11.7113  -14.8057    0.0000 C   0  0  0  0  0  0  0  0  0  0  0  0
   10.3328  -14.3517    0.0000 C   0  0  0  0  0  0  0  0  0  0  0  0
   12.1027  -15.5346    0.0000 C   0  0  0  0  0  0  0  0  0  0  0  0
   12.0737  -14.0643    0.0000 O   0  0  0  0  0  0  0  0  0  0  0  0
   10.0787  -16.1884    0.0000 N   0  0  0  0  0  0  0  0  0  0  0  0
   12.8941  -14.0061    0.0000 C   0  0  0  0  0  0  0  0  0  0  0  0
    9.5123  -14.4226    0.0000 C   0  0  0  0  0  0  0  0  0  0  0  0
   10.6826  -13.6063    0.0000 C   0  0  0  0  0  0  0  0  0  0  0  0
   13.2564  -13.2647    0.0000 C   0  0  0  0  0  0  0  0  0  0  0  0
   13.6146  -12.5193    0.0000 C   0  0  0  0  0  0  0  0  0  0  0  0
   10.2078  -12.9316    0.0000 C   0  0  0  0  0  0  0  0  0  0  0  0
    9.3874  -13.0023    0.0000 C   0  0  0  0  0  0  0  0  0  0  0  0
    9.0376  -13.7479    0.0000 C   0  0  0  0  0  0  0  0  0  0  0  0
   14.4392  -12.4610    0.0000 C   0  0  0  0  0  0  0  0  0  0  0  0
   10.3952  -12.1277    0.0000 O   0  0  0  0  0  0  0  0  0  0  0  0
    9.0666  -12.2402    0.0000 O   0  0  0  0  0  0  0  0  0  0  0  0
    9.3082  -15.8969    0.0000 C   0  0  0  0  0  0  0  0  0  0  0  0
    9.6873  -11.7029    0.0000 C   0  0  0  0  0  0  0  0  0  0  0  0
   13.3564  -14.6891    0.0000 O   0  0  0  0  0  0  0  0  0  0  0  0
    9.0541  -15.1098    0.0000 C   0  0  0  0  0  0  0  0  0  0  0  0
   14.9015  -13.1440    0.0000 O   0  0  0  0  0  0  0  0  0  0  0  0
   11.6530  -10.8992    0.0000 C   0  0  0  0  0  0  0  0  0  0  0  0
   11.4073  -16.3133    0.0000 C   0  0  0  0  0  0  0  0  0  0  0  0
   12.9191  -15.6470    0.0000 O   0  0  0  0  0  0  0  0  0  0  0  0
   13.1138  -12.0319    0.0000 O   0  0  0  0  0  0  0  0  0  0  0  0
   14.7974  -11.7196    0.0000 O   0  0  0  0  0  0  0  0  0  0  0  0
   10.2578  -16.9922    0.0000 C   0  0  0  0  0  0  0  0  0  0  0  0
   10.8325  -10.9575    0.0000 O   0  0  0  0  0  0  0  0  0  0  0  0
   12.5151  -12.9024    0.0000 C   0  0  0  0  0  0  0  0  0  0  0  0
   11.0824  -17.0672    0.0000 C   0  0  0  0  0  0  0  0  0  0  0  0
   12.4568  -12.0820    0.0000 C   0  0  0  0  0  0  0  0  0  0  0  0
   11.7113  -11.7196    0.0000 C   0  0  0  0  0  0  0  0  0  0  0  0
   12.4776  -10.8408    0.0000 C   0  0  0  0  0  0  0  0  0  0  0  0
   11.5947  -10.0746    0.0000 C   0  0  0  0  0  0  0  0  0  0  0  0
   13.2272  -16.4092    0.0000 C   0  0  0  0  0  0  0  0  0  0  0  0
   14.3351  -11.0366    0.0000 C   0  0  0  0  0  0  0  0  0  0  0  0
   11.2121  -14.0016    0.0000 H   0  0  0  0  0  0  0  0  0  0  0  0
  2  1  1  0
  1  3  1  6
  4  2  1  0
  5  2  1  0
  6  3  2  0
  4  7  1  6
  8  1  1  0
  9  7  1  0
 10  5  1  0
 11  5  2  0
 12  9  1  0
 13 12  1  0
 14 11  1  0
 15 14  2  0
 16 10  2  0
 17 13  1  0
 18 14  1  0
 19 15  1  0
 20  8  1  0
 21 18  1  0
 22  9  2  0
 23 20  1  0
 24 17  2  0
 25 35  1  0
  1 26  1  0
 27  6  1  0
 12 28  1  6
 29 17  1  0
 30  8  1  0
 31 25  1  0
 12 32  1  0
 33 26  1  0
 34 32  1  0
 35 34  1  0
 36 25  1  0
 37 25  1  0
 38 27  1  0
 39 29  1  0
 33 30  1  0
  4  6  1  0
 23 10  1  0
 16 15  1  0
 19 21  1  0
  2 40  1  1
M  END
> <chembl_id>
CHEMBL46286

> <chembl_pref_name>
OMACETAXINE MEPESUCCINATE
