
     RDKit          2D

 38 42  0  0  1  0  0  0  0  0999 V2000
    6.0042   -4.8250    0.0000 C   0  0  0  0  0  0  0  0  0  0  0  0
    6.6792   -4.5917    0.0000 C   0  0  0  0  0  0  0  0  0  0  0  0
    4.1542   -5.9250    0.0000 C   0  0  0  0  0  0  0  0  0  0  0  0
    5.3917   -5.9042    0.0000 C   0  0  0  0  0  0  0  0  0  0  0  0
    6.0125   -5.5375    0.0000 C   0  0  0  0  0  0  0  0  0  0  0  0
    4.7667   -5.5542    0.0000 C   0  0  0  0  0  0  0  0  0  0  0  0
    4.1542   -6.6375    0.0000 C   0  0  0  0  0  0  0  0  0  0  0  0
    5.3792   -4.4750    0.0000 C   0  0  0  0  0  0  0  0  0  0  0  0
    4.7625   -4.8375    0.0000 C   0  0  0  0  0  0  0  0  0  0  0  0
    6.6792   -3.8792    0.0000 C   0  0  0  0  0  0  0  0  0  0  0  0
    3.5417   -7.0042    0.0000 C   0  0  0  0  0  0  0  0  0  0  0  0
    7.1042   -5.1750    0.0000 C   0  0  0  0  0  0  0  0  0  0  0  0
    6.7042   -5.7542    0.0000 C   0  0  0  0  0  0  0  0  0  0  0  0
    5.4042   -6.6250    0.0000 C   0  0  0  0  0  0  0  0  0  0  0  0
    3.5292   -5.5667    0.0000 C   0  0  0  0  0  0  0  0  0  0  0  0
    4.7792   -6.9917    0.0000 C   0  0  0  0  0  0  0  0  0  0  0  0
    4.8292   -3.5167    0.0000 C   0  0  0  0  0  0  0  0  0  0  0  0
    2.9167   -6.6542    0.0000 C   0  0  0  0  0  0  0  0  0  0  0  0
    6.0750   -3.5250    0.0000 C   0  0  0  0  0  0  0  0  0  0  0  0
    7.3042   -3.5292    0.0000 O   0  0  0  0  0  0  0  0  0  0  0  0
    5.4542   -3.8792    0.0000 O   0  0  0  0  0  0  0  0  0  0  0  0
    4.8292   -2.8042    0.0000 O   0  0  0  0  0  0  0  0  0  0  0  0
    2.3000   -7.0167    0.0000 O   0  0  0  0  0  0  0  0  0  0  0  0
    7.3042   -4.2500    0.0000 O   0  0  0  0  0  0  0  0  0  0  0  0
    6.0042   -4.2042    0.0000 C   0  0  0  0  0  0  0  0  0  0  0  0
    2.9042   -5.9375    0.0000 C   0  0  0  0  0  0  0  0  0  0  0  0
    4.1375   -4.4875    0.0000 O   0  0  0  0  0  0  0  0  0  0  0  0
    4.2042   -3.8792    0.0000 C   0  0  0  0  0  0  0  0  0  0  0  0
    4.1417   -5.2042    0.0000 C   0  0  0  0  0  0  0  0  0  0  0  0
    3.5917   -3.5167    0.0000 C   0  0  0  0  0  0  0  0  0  0  0  0
    2.9750   -3.8792    0.0000 C   0  0  0  0  0  0  0  0  0  0  0  0
    2.3917   -3.4542    0.0000 C   0  0  0  0  0  0  0  0  0  0  0  0
    2.7417   -4.5542    0.0000 C   0  0  0  0  0  0  0  0  0  0  0  0
    1.8167   -3.8792    0.0000 C   0  0  0  0  0  0  0  0  0  0  0  0
    2.0292   -4.5542    0.0000 C   0  0  0  0  0  0  0  0  0  0  0  0
    6.0042   -6.1792    0.0000 H   0  0  0  0  0  0  0  0  0  0  0  0
    5.3792   -5.2042    0.0000 H   0  0  0  0  0  0  0  0  0  0  0  0
    4.7875   -6.2375    0.0000 H   0  0  0  0  0  0  0  0  0  0  0  0
  2  1  1  0
  3  6  1  0
  4  5  1  0
  5  1  1  0
  6  9  1  0
  7  3  1  0
  8  1  1  0
  9  8  1  0
  2 10  1  1
 11  7  2  0
 12  2  1  0
 13  5  1  0
 14  4  1  0
 15  3  1  0
 16 14  1  0
 17 21  1  0
 18 26  1  0
 19 10  1  0
 20 10  2  0
 21 19  1  0
 22 17  2  0
 23 18  2  0
 24  2  1  0
  1 25  1  1
 26 15  1  0
  9 27  1  1
 28 17  1  0
  3 29  1  1
 30 28  1  0
 31 30  1  0
 32 31  1  0
 33 31  1  0
 34 32  1  0
 35 33  1  0
  5 36  1  6
  4 37  1  1
  6 38  1  6
 12 13  1  0
  6  4  1  0
  7 16  1  0
 18 11  1  0
 35 34  1  0
M  END
> <chembl_id>
CHEMBL1549

> <chembl_pref_name>
HYDROCORTISONE CYPIONATE
