
     RDKit          2D

  8  7  0  0  0  0  0  0  0  0999 V2000
   -1.0708   -1.0625    0.0000 C   0  0  0  0  0  0  0  0  0  0  0  0
   -0.4583   -0.7125    0.0000 C   0  0  0  0  0  0  0  0  0  0  0  0
   -1.4250   -1.6667    0.0000 F   0  0  0  0  0  0  0  0  0  0  0  0
   -0.7208   -1.6750    0.0000 F   0  0  0  0  0  0  0  0  0  0  0  0
   -1.6833   -0.7125    0.0000 O   0  0  0  0  0  0  0  0  0  0  0  0
    0.1542   -1.0667    0.0000 Cl  0  0  0  0  0  0  0  0  0  0  0  0
   -0.4583   -0.0042    0.0000 Cl  0  0  0  0  0  0  0  0  0  0  0  0
   -2.2958   -1.0667    0.0000 C   0  0  0  0  0  0  0  0  0  0  0  0
  2  1  1  0
  3  1  1  0
  4  1  1  0
  5  1  1  0
  6  2  1  0
  7  2  1  0
  8  5  1  0
M  END
> <chembl_id>
CHEMBL1341

> <chembl_pref_name>
METHOXYFLURANE
