
     RDKit          2D

 15 15  0  0  0  0  0  0  0  0999 V2000
    5.3678   -0.5875    0.0000 C   0  0  0  0  0  0  0  0  0  0  0  0
    5.3678   -1.4125    0.0000 C   0  0  0  0  0  0  0  0  0  0  0  0
    4.6533   -1.8250    0.0000 C   0  0  0  0  0  0  0  0  0  0  0  0
    3.9388   -1.4125    0.0000 C   0  0  0  0  0  0  0  0  0  0  0  0
    3.9388   -0.5875    0.0000 C   0  0  0  0  0  0  0  0  0  0  0  0
    4.6533   -0.1750    0.0000 C   0  0  0  0  0  0  0  0  0  0  0  0
    3.2244   -1.8250    0.0000 O   0  0  0  0  0  0  0  0  0  0  0  0
    4.6533   -2.6500    0.0000 O   0  0  0  0  0  0  0  0  0  0  0  0
    6.0822   -0.1750    0.0000 C   0  0  0  0  0  0  0  0  0  0  0  0
    6.7967   -0.5875    0.0000 C   0  0  0  0  0  0  0  0  0  0  0  0
    6.4947    0.5395    0.0000 O   0  0  0  0  0  0  0  0  0  0  0  0
    7.2092   -1.3020    0.0000 N   0  0  0  0  0  0  0  0  0  0  0  0
    7.2711    0.0874    0.0000 C   0  0  0  0  0  0  0  0  0  0  0  0
    8.0928    0.0141    0.0000 O   0  0  0  0  0  0  0  0  0  0  0  0
    6.9238    0.8358    0.0000 O   0  0  0  0  0  0  0  0  0  0  0  0
  3  4  2  0
  4  5  1  0
  5  6  2  0
  6  1  1  0
  4  7  1  0
  3  8  1  0
  1  9  1  0
  9 10  1  0
  9 11  1  1
 10 12  1  1
 10 13  1  0
  1  2  2  0
 13 14  2  0
  2  3  1  0
 13 15  1  0
M  END
> <chembl_id>
CHEMBL2103827

> <chembl_pref_name>
DROXIDOPA
