
     RDKit          2D

 35 38  0  0  0  0  0  0  0  0999 V2000
    1.5699   -1.3571    0.0000 C   0  0  0  0  0  0  0  0  0  0  0  0
    2.2844   -1.7696    0.0000 C   0  0  0  0  0  0  0  0  0  0  0  0
    2.9989   -2.1821    0.0000 C   0  0  0  0  0  0  0  0  0  0  0  0
    2.9989   -3.0071    0.0000 C   0  0  0  0  0  0  0  0  0  0  0  0
    3.7134   -3.4196    0.0000 C   0  0  0  0  0  0  0  0  0  0  0  0
    3.7134   -4.2446    0.0000 N   0  0  0  0  0  0  0  0  0  0  0  0
    4.4278   -3.0071    0.0000 C   0  0  0  0  0  0  0  0  0  0  0  0
    4.4278   -2.1821    0.0000 C   0  0  0  0  0  0  0  0  0  0  0  0
    5.1423   -1.7696    0.0000 C   0  0  0  0  0  0  0  0  0  0  0  0
    5.1423   -0.9446    0.0000 C   0  0  0  0  0  0  0  0  0  0  0  0
    5.8568   -0.5321    0.0000 C   0  0  0  0  0  0  0  0  0  0  0  0
    8.0002   -0.9446    0.0000 C   0  0  0  0  0  0  0  0  0  0  0  0
    8.7147   -0.5321    0.0000 N   0  0  0  0  0  0  0  0  0  0  0  0
    8.0002   -1.7696    0.0000 C   0  0  0  0  0  0  0  0  0  0  0  0
    7.2857   -2.1821    0.0000 C   0  0  0  0  0  0  0  0  0  0  0  0
    6.5712   -1.7696    0.0000 C   0  0  0  0  0  0  0  0  0  0  0  0
    5.8568   -2.1821    0.0000 C   0  0  0  0  0  0  0  0  0  0  0  0
    3.7134   -1.7696    0.0000 C   0  0  0  0  0  0  0  0  0  0  0  0
    4.4278   -0.5321    0.0000 C   0  0  0  0  0  0  0  0  0  0  0  0
    3.7134   -0.9446    0.0000 O   0  0  0  0  0  0  0  0  0  0  0  0
    1.8719   -2.4841    0.0000 C   0  0  0  0  0  0  0  0  0  0  0  0
    2.6969   -1.0552    0.0000 C   0  0  0  0  0  0  0  0  0  0  0  0
    6.5712   -0.9446    0.0000 C   0  0  0  0  0  0  0  0  0  0  0  0
    7.2857   -0.5321    0.0000 C   0  0  0  0  0  0  0  0  0  0  0  0
    4.4278   -5.4821    0.0000 N   0  0  0  0  0  0  0  0  0  0  0  0
    4.4278   -4.6571    0.0000 C   0  0  0  0  0  0  0  0  0  0  0  0
    5.1423   -4.2446    0.0000 O   0  0  0  0  0  0  0  0  0  0  0  0
    3.7134   -6.7196    0.0000 O   0  0  0  0  0  0  0  0  0  0  0  0
    3.7134   -5.8946    0.0000 C   0  0  0  0  0  0  0  0  0  0  0  0
    2.9989   -5.4821    0.0000 C   0  0  0  0  0  0  0  0  0  0  0  0
    2.9989   -4.6571    0.0000 C   0  0  0  0  0  0  0  0  0  0  0  0
    8.7147    0.2929    0.0000 S   0  0  0  0  0  0  0  0  0  0  0  0
    8.7147    1.1179    0.0000 C   0  0  0  0  0  0  0  0  0  0  0  0
    9.5397    0.2929    0.0000 O   0  0  0  0  0  0  0  0  0  0  0  0
    7.8897    0.2929    0.0000 O   0  0  0  0  0  0  0  0  0  0  0  0
  1  2  1  0
  2 21  1  0
  3  2  1  0
  3 18  1  0
  4  3  2  0
  4  5  1  0
  5  7  2  0
  6  5  1  0
  6 26  1  0
  8  9  1  0
  8  7  1  0
  9 17  2  0
 10  9  1  0
 10 11  2  0
 11 23  1  0
 12 13  1  0
 12 14  1  0
 13 32  1  0
 15 14  2  0
 16 15  1  0
 17 16  1  0
 18  8  2  0
 20 19  1  0
 20 18  1  0
 22  2  1  0
 23 16  2  0
 23 24  1  0
 24 12  2  0
 25 26  1  0
 26 27  2  0
 28 29  2  0
 29 30  1  0
 29 25  1  0
 30 31  2  0
 31  6  1  0
 32 33  1  0
 32 34  2  0
 32 35  2  0
M  END
> <chembl_id>
CHEMBL3137312

> <chembl_pref_name>
DASABUVIR
