
     RDKit          2D

 29 32  0  0  0  0  0  0  0  0999 V2000
   -0.5484  -15.4328    0.0000 N   0  0  0  0  0  0  0  0  0  0  0  0
    0.1553  -15.0106    0.0000 C   0  0  0  0  0  0  0  0  0  0  0  0
   -0.5484  -13.7731    0.0000 S   0  0  0  0  0  0  0  0  0  0  0  0
    0.1553  -14.1856    0.0000 C   0  0  0  0  0  0  0  0  0  0  0  0
   -1.2763  -15.0106    0.0000 C   0  0  0  0  0  0  0  0  0  0  0  0
   -1.2763  -14.1856    0.0000 C   0  0  0  0  0  0  0  0  0  0  0  0
    0.8348  -15.4328    0.0000 C   0  0  0  0  0  0  0  0  0  0  0  0
    1.5529  -15.0106    0.0000 C   0  0  0  0  0  0  0  0  0  0  0  0
    0.8348  -17.8837    0.0000 N   0  0  0  0  0  0  0  0  0  0  0  0
    2.2664  -18.7037    0.0000 N   0  0  0  0  0  0  0  0  0  0  0  0
    2.2616  -15.4279    0.0000 C   0  0  0  0  0  0  0  0  0  0  0  0
    0.8348  -13.7731    0.0000 C   0  0  0  0  0  0  0  0  0  0  0  0
    1.5529  -14.1856    0.0000 C   0  0  0  0  0  0  0  0  0  0  0  0
    2.2470  -16.2772    0.0000 O   0  0  0  0  0  0  0  0  0  0  0  0
   -0.5484  -16.2627    0.0000 C   0  0  0  0  0  0  0  0  0  0  0  0
    1.5529  -17.4808    0.0000 C   0  0  0  0  0  0  0  0  0  0  0  0
    1.5529  -19.1309    0.0000 C   0  0  0  0  0  0  0  0  0  0  0  0
    2.2664  -17.8837    0.0000 C   0  0  0  0  0  0  0  0  0  0  0  0
    0.8348  -18.7037    0.0000 C   0  0  0  0  0  0  0  0  0  0  0  0
    0.1553  -16.6703    0.0000 C   0  0  0  0  0  0  0  0  0  0  0  0
    0.1553  -17.4808    0.0000 C   0  0  0  0  0  0  0  0  0  0  0  0
   -2.0043  -15.4328    0.0000 C   0  0  0  0  0  0  0  0  0  0  0  0
    3.0041  -19.1309    0.0000 C   0  0  0  0  0  0  0  0  0  0  0  0
   -2.0043  -13.7731    0.0000 C   0  0  0  0  0  0  0  0  0  0  0  0
    4.4309  -19.1309    0.0000 O   0  0  0  0  0  0  0  0  0  0  0  0
    2.9895  -15.0251    0.0000 C   0  0  0  0  0  0  0  0  0  0  0  0
    3.7223  -18.7037    0.0000 C   0  0  0  0  0  0  0  0  0  0  0  0
   -2.7177  -15.0106    0.0000 C   0  0  0  0  0  0  0  0  0  0  0  0
   -2.7177  -14.1856    0.0000 C   0  0  0  0  0  0  0  0  0  0  0  0
  8  7  1  0
  9 21  1  0
 10 18  1  0
 11  8  1  0
 12  4  2  0
 13  8  2  0
 14 11  2  0
 15  1  1  0
 16  9  1  0
 17 19  1  0
 18 16  1  0
 19  9  1  0
 20 15  1  0
 21 20  1  0
 22  5  1  0
 23 10  1  0
 24  6  1  0
 25 27  1  0
 26 11  1  0
 27 23  1  0
 28 22  2  0
 29 24  2  0
  3  4  1  0
 28 29  1  0
 13 12  1  0
 10 17  1  0
  2  1  1  0
  3  6  1  0
  4  2  1  0
  5  1  1  0
  6  5  2  0
  7  2  2  0
M  END
> <chembl_id>
CHEMBL1085

> <chembl_pref_name>
ACETOPHENAZINE
