
     RDKit          2D

 31 32  0  0  0  0  0  0  0  0999 V2000
    3.2542   -0.9917    0.0000 C   0  0  0  0  0  0  0  0  0  0  0  0
    2.4000   -1.4542    0.0000 C   0  0  0  0  0  0  0  0  0  0  0  0
    3.3292    0.0125    0.0000 O   0  0  0  0  0  0  0  0  0  0  0  0
    1.5542   -2.8792    0.0000 N   0  0  0  0  0  0  0  0  0  0  0  0
    3.9792   -1.5625    0.0000 O   0  0  0  0  0  0  0  0  0  0  0  0
    2.4000   -2.3750    0.0000 C   0  0  0  0  0  0  0  0  0  0  0  0
    1.5542   -0.9375    0.0000 C   0  0  0  0  0  0  0  0  0  0  0  0
    0.7250   -2.3750    0.0000 C   0  0  0  0  0  0  0  0  0  0  0  0
    0.7250   -1.4542    0.0000 C   0  0  0  0  0  0  0  0  0  0  0  0
   -1.6458   -0.3375    0.0000 C   0  0  0  0  0  0  0  0  0  0  0  0
   -1.6458    0.6458    0.0000 C   0  0  0  0  0  0  0  0  0  0  0  0
   -2.5000   -0.8542    0.0000 N   0  0  0  0  0  0  0  0  0  0  0  0
   -3.3333    0.6458    0.0000 N   0  0  0  0  0  0  0  0  0  0  0  0
   -3.3333   -0.3667    0.0000 C   0  0  0  0  0  0  0  0  0  0  0  0
   -2.5000    1.1333    0.0000 C   0  0  0  0  0  0  0  0  0  0  0  0
   -0.7250   -0.6417    0.0000 N   0  0  0  0  0  0  0  0  0  0  0  0
   -0.7250    0.9208    0.0000 N   0  0  0  0  0  0  0  0  0  0  0  0
   -0.1750    0.1833    0.0000 C   0  0  0  0  0  0  0  0  0  0  0  0
   -0.4208    1.8708    0.0000 C   0  0  0  0  0  0  0  0  0  0  0  0
   -4.1625   -0.9167    0.0000 O   0  0  0  0  0  0  0  0  0  0  0  0
   -2.4875    2.1125    0.0000 O   0  0  0  0  0  0  0  0  0  0  0  0
    0.5292    2.0833    0.0000 C   0  0  0  0  0  0  0  0  0  0  0  0
   -2.4875   -1.8667    0.0000 C   0  0  0  0  0  0  0  0  0  0  0  0
   -4.1625    1.1958    0.0000 C   0  0  0  0  0  0  0  0  0  0  0  0
    1.1667    1.3458    0.0000 C   0  0  0  0  0  0  0  0  0  0  0  0
    2.0542    1.5333    0.0000 N   0  0  0  0  0  0  0  0  0  0  0  0
    0.8292    2.9708    0.0000 O   0  0  0  0  0  0  0  0  0  0  0  0
    4.2375    0.1833    0.0000 O   0  0  0  0  0  0  0  0  0  0  0  0
    2.6750    0.7958    0.0000 C   0  0  0  0  0  0  0  0  0  0  0  0
    2.4000    2.3958    0.0000 C   0  0  0  0  0  0  0  0  0  0  0  0
    3.6542    0.9458    0.0000 C   0  0  0  0  0  0  0  0  0  0  0  0
  2  1  1  0
  3  1  2  0
  4  6  1  0
  5  1  1  0
  6  2  2  0
  7  2  1  0
  8  9  1  0
  9  7  2  0
  4  8  2  0
 11 10  2  0
 12 10  1  0
 13 14  1  0
 14 12  1  0
 15 11  1  0
 16 10  1  0
 17 11  1  0
 18 16  2  0
 19 17  1  0
 20 14  2  0
 21 15  2  0
 22 19  1  0
 23 12  1  0
 24 13  1  0
 25 22  1  0
 26 25  1  0
 27 22  1  0
 28 31  1  0
 29 26  1  0
 30 26  1  0
 31 29  1  0
 17 18  1  0
 15 13  1  0
M  END
> <chembl_id>
CHEMBL1560089

> <chembl_pref_name>
XANTHINOL NIACINATE
