
     RDKit          2D

 20 20  0  0  0  0  0  0  0  0999 V2000
    5.2750   -5.5625    0.0000 Cl  0  0  0  0  0  0  0  0  0  0  0  0
    5.7500   -7.3667    0.0000 N   0  0  0  0  0  0  0  0  0  0  0  0
    6.1625   -6.7875    0.0000 C   0  0  0  0  0  0  0  0  0  0  0  0
    5.0500   -7.1167    0.0000 C   0  0  0  0  0  0  0  0  0  0  0  0
    5.0500   -6.4167    0.0000 C   0  0  0  0  0  0  0  0  0  0  0  0
    5.7500   -6.2042    0.0000 C   0  0  0  0  0  0  0  0  0  0  0  0
    4.4292   -6.0750    0.0000 C   0  0  0  0  0  0  0  0  0  0  0  0
    6.8667   -6.7875    0.0000 O   0  0  0  0  0  0  0  0  0  0  0  0
    4.4292   -5.3792    0.0000 C   0  0  0  0  0  0  0  0  0  0  0  0
    3.2125   -5.3792    0.0000 N   0  0  0  0  0  0  0  0  0  0  0  0
    3.8292   -5.0292    0.0000 C   0  0  0  0  0  0  0  0  0  0  0  0
    4.4292   -7.5000    0.0000 C   0  0  0  0  0  0  0  0  0  0  0  0
    3.8167   -7.1167    0.0000 C   0  0  0  0  0  0  0  0  0  0  0  0
    3.8167   -6.4375    0.0000 C   0  0  0  0  0  0  0  0  0  0  0  0
    2.6000   -5.0292    0.0000 C   0  0  0  0  0  0  0  0  0  0  0  0
    3.2125   -6.0750    0.0000 C   0  0  0  0  0  0  0  0  0  0  0  0
    1.9792   -5.3792    0.0000 C   0  0  0  0  0  0  0  0  0  0  0  0
    2.6000   -6.4375    0.0000 C   0  0  0  0  0  0  0  0  0  0  0  0
    1.3625   -5.0292    0.0000 C   0  0  0  0  0  0  0  0  0  0  0  0
    1.9792   -6.0750    0.0000 C   0  0  0  0  0  0  0  0  0  0  0  0
  3  2  1  0
  4  2  1  0
  5  4  2  0
  6  3  1  0
  7  5  1  0
  8  3  2  0
  9  7  1  0
 10 11  1  0
 11  9  1  0
 12  4  1  0
 13 12  2  0
 14 13  1  0
 15 10  1  0
 16 10  1  0
 17 15  1  0
 18 16  1  0
 19 17  1  0
 20 18  1  0
  6  5  1  0
 14  7  2  0
M  END
> <chembl_id>
CHEMBL1200411

> <chembl_pref_name>
ROPINIROLE HYDROCHLORIDE
