
     RDKit          2D

 48 53  0  0  0  0  0  0  0  0999 V2000
   -3.2468   -0.8571    0.0000 Cl  0  0  0  0  0  0  0  0  0  0  0  0
   -4.3442    3.2211    0.0000 C   0  0  0  0  0  0  0  0  0  0  0  0
   -5.0586    2.8086    0.0000 C   0  0  0  0  0  0  0  0  0  0  0  0
   -5.0586    1.9836    0.0000 C   0  0  0  0  0  0  0  0  0  0  0  0
   -4.3442    1.5711    0.0000 C   0  0  0  0  0  0  0  0  0  0  0  0
   -3.6297    1.9836    0.0000 C   0  0  0  0  0  0  0  0  0  0  0  0
   -3.6297    2.8086    0.0000 C   0  0  0  0  0  0  0  0  0  0  0  0
   -2.9152    1.5711    0.0000 C   0  0  0  0  0  0  0  0  0  0  0  0
   -2.2007    1.9836    0.0000 C   0  0  0  0  0  0  0  0  0  0  0  0
   -2.2007    2.8086    0.0000 C   0  0  0  0  0  0  0  0  0  0  0  0
   -2.9152    3.2211    0.0000 N   0  0  0  0  0  0  0  0  0  0  0  0
   -1.4862    1.5710    0.0000 C   0  0  0  0  0  0  0  0  0  0  0  0
   -0.7718    1.9835    0.0000 C   0  0  0  0  0  0  0  0  0  0  0  0
   -1.4862    3.2210    0.0000 O   0  0  0  0  0  0  0  0  0  0  0  0
   -1.4862    0.7460    0.0000 C   0  0  0  0  0  0  0  0  0  0  0  0
   -0.7718    0.3335    0.0000 C   0  0  0  0  0  0  0  0  0  0  0  0
   -0.0573    0.7460    0.0000 N   0  0  0  0  0  0  0  0  0  0  0  0
   -0.0573    1.5710    0.0000 C   0  0  0  0  0  0  0  0  0  0  0  0
    0.6572    0.3335    0.0000 C   0  0  0  0  0  0  0  0  0  0  0  0
    1.3716    0.7460    0.0000 O   0  0  0  0  0  0  0  0  0  0  0  0
    0.6572   -0.4915    0.0000 N   0  0  0  0  0  0  0  0  0  0  0  0
    1.3716   -0.9040    0.0000 C   0  0  0  0  0  0  0  0  0  0  0  0
    2.0861   -0.4915    0.0000 C   0  0  0  0  0  0  0  0  0  0  0  0
    1.3716   -1.7290    0.0000 C   0  0  0  0  0  0  0  0  0  0  0  0
    2.0861   -2.1415    0.0000 O   0  0  0  0  0  0  0  0  0  0  0  0
    2.8005   -1.7290    0.0000 C   0  0  0  0  0  0  0  0  0  0  0  0
    2.8005   -0.9040    0.0000 C   0  0  0  0  0  0  0  0  0  0  0  0
    3.5150   -0.4915    0.0000 C   0  0  0  0  0  0  0  0  0  0  0  0
    3.5150   -2.1415    0.0000 C   0  0  0  0  0  0  0  0  0  0  0  0
    4.2295   -1.7290    0.0000 C   0  0  0  0  0  0  0  0  0  0  0  0
    4.2295   -0.9040    0.0000 C   0  0  0  0  0  0  0  0  0  0  0  0
   -0.0573   -1.7290    0.0000 C   0  0  0  0  0  0  0  0  0  0  0  0
    0.6572   -2.1415    0.0000 N   0  0  0  0  0  0  0  0  0  0  0  0
   -0.7718   -2.1415    0.0000 C   0  0  0  0  0  0  0  0  0  0  0  0
   -0.7718   -2.9666    0.0000 N   0  0  0  0  0  0  0  0  0  0  0  0
   -0.0573   -3.3791    0.0000 C   0  0  0  0  0  0  0  0  0  0  0  0
    0.6572   -2.9666    0.0000 C   0  0  0  0  0  0  0  0  0  0  0  0
   -2.2007   -2.9666    0.0000 C   0  0  0  0  0  0  0  0  0  0  0  0
   -1.4862   -3.3791    0.0000 C   0  0  0  0  0  0  0  0  0  0  0  0
   -2.9152   -3.3791    0.0000 C   0  0  0  0  0  0  0  0  0  0  0  0
   -2.9152   -4.2041    0.0000 N   0  0  0  0  0  0  0  0  0  0  0  0
   -2.2007   -4.6166    0.0000 C   0  0  0  0  0  0  0  0  0  0  0  0
   -1.4862   -4.2041    0.0000 C   0  0  0  0  0  0  0  0  0  0  0  0
    4.9440   -0.4915    0.0000 C   0  0  0  0  0  0  0  0  0  0  0  0
    3.6865   -2.9485    0.0000 C   0  0  0  0  0  0  0  0  0  0  0  0
    4.5070   -3.0347    0.0000 N   0  0  0  0  0  0  0  0  0  0  0  0
    4.8426   -2.2811    0.0000 N   0  0  0  0  0  0  0  0  0  0  0  0
   -3.6071   -4.6534    0.0000 C   0  0  0  0  0  0  0  0  0  0  0  0
  2  3  2  0
  3  4  1  0
  4  5  2  0
  5  6  1  0
  6  7  2  0
  2  7  1  0
  8  9  2  0
  9 10  1  0
 10 11  1  0
  6  8  1  0
  7 11  1  0
 12 13  1  0
  9 12  1  0
 10 14  2  0
 15 16  1  0
 16 17  1  0
 17 18  1  0
 12 15  1  0
 13 18  1  0
 19 20  2  0
 17 19  1  0
 21 22  1  0
 22 23  1  6
 19 21  1  0
 24 25  2  0
 26 27  2  0
 22 24  1  0
 23 27  1  0
 29 30  2  0
 30 31  1  0
 28 31  2  0
 26 29  1  0
 28 27  1  0
 32 33  1  0
 33 24  1  0
 34 35  1  0
 35 36  1  0
 36 37  1  0
 32 34  1  0
 37 33  1  0
 38 39  1  0
 39 35  1  0
 40 41  1  0
 41 42  1  0
 42 43  1  0
 38 40  1  0
 43 39  1  0
 31 44  1  0
 45 46  2  0
 46 47  1  0
 29 45  1  0
 30 47  1  0
 41 48  1  0
M  END
> <chembl_id>
CHEMBL4650220

> <chembl_pref_name>
ZAVEGEPANT HYDROCHLORIDE
