
     RDKit          2D

 26 28  0  0  0  0  0  0  0  0999 V2000
   10.6750   -6.2667    0.0000 S   0  0  0  0  0  0  0  0  0  0  0  0
   10.3000   -5.5375    0.0000 N   0  0  0  0  0  0  0  0  0  0  0  0
   13.7917   -2.9042    0.0000 N   0  0  0  0  0  0  0  0  0  0  0  0
   13.1250   -4.0667    0.0000 C   0  0  0  0  0  0  0  0  0  0  0  0
   13.0417   -3.2500    0.0000 C   0  0  0  0  0  0  0  0  0  0  0  0
   14.3417   -3.5167    0.0000 O   0  0  0  0  0  0  0  0  0  0  0  0
   13.9292   -4.2375    0.0000 C   0  0  0  0  0  0  0  0  0  0  0  0
   11.2875   -5.7167    0.0000 C   0  0  0  0  0  0  0  0  0  0  0  0
    9.5792   -5.9417    0.0000 C   0  0  0  0  0  0  0  0  0  0  0  0
   12.5125   -4.6167    0.0000 C   0  0  0  0  0  0  0  0  0  0  0  0
   11.3875   -6.6792    0.0000 O   0  0  0  0  0  0  0  0  0  0  0  0
   10.4542   -7.0625    0.0000 O   0  0  0  0  0  0  0  0  0  0  0  0
   12.3250   -2.8375    0.0000 C   0  0  0  0  0  0  0  0  0  0  0  0
    9.5792   -6.7667    0.0000 O   0  0  0  0  0  0  0  0  0  0  0  0
   11.1167   -4.9125    0.0000 C   0  0  0  0  0  0  0  0  0  0  0  0
   12.0792   -5.9750    0.0000 C   0  0  0  0  0  0  0  0  0  0  0  0
   11.7292   -4.3542    0.0000 C   0  0  0  0  0  0  0  0  0  0  0  0
   12.6875   -5.4167    0.0000 C   0  0  0  0  0  0  0  0  0  0  0  0
   14.2667   -4.9917    0.0000 C   0  0  0  0  0  0  0  0  0  0  0  0
    8.8667   -5.5292    0.0000 C   0  0  0  0  0  0  0  0  0  0  0  0
   12.3250   -2.0042    0.0000 C   0  0  0  0  0  0  0  0  0  0  0  0
   11.6042   -3.2500    0.0000 C   0  0  0  0  0  0  0  0  0  0  0  0
    8.1500   -5.9417    0.0000 C   0  0  0  0  0  0  0  0  0  0  0  0
   10.8917   -2.8375    0.0000 C   0  0  0  0  0  0  0  0  0  0  0  0
   11.6042   -1.5917    0.0000 C   0  0  0  0  0  0  0  0  0  0  0  0
   10.8917   -2.0042    0.0000 C   0  0  0  0  0  0  0  0  0  0  0  0
  2  1  1  0
  3  5  2  0
  4 10  1  0
  5  4  1  0
  6  7  1  0
  7  4  2  0
  8  1  1  0
  9  2  1  0
 10 18  1  0
 11  1  2  0
 12  1  2  0
 13  5  1  0
 14  9  2  0
 15  8  2  0
 16  8  1  0
 17 15  1  0
 18 16  2  0
 19  7  1  0
 20  9  1  0
 21 13  1  0
 22 13  2  0
 23 20  1  0
 24 22  1  0
 25 21  2  0
 26 25  1  0
 17 10  2  0
  3  6  1  0
 24 26  2  0
M  END
> <chembl_id>
CHEMBL1206690

> <chembl_pref_name>
PARECOXIB
