
     RDKit          2D

 32 36  0  0  0  0  0  0  0  0999 V2000
    3.4000   -0.9375    0.0000 C   0  0  0  0  0  0  0  0  0  0  0  0
    2.4542   -0.8625    0.0000 N   0  0  0  0  0  0  0  0  0  0  0  0
    3.6000   -1.8292    0.0000 N   0  0  0  0  0  0  0  0  0  0  0  0
    2.1000   -1.7292    0.0000 C   0  0  0  0  0  0  0  0  0  0  0  0
    2.8125   -2.3375    0.0000 C   0  0  0  0  0  0  0  0  0  0  0  0
   -2.3583    0.7458    0.0000 N   0  0  0  0  0  0  0  0  0  0  0  0
   -3.3250    0.7458    0.0000 C   0  0  0  0  0  0  0  0  0  0  0  0
   -0.4458    0.7458    0.0000 N   0  0  0  0  0  0  0  0  0  0  0  0
    4.0375   -0.2167    0.0000 O   0  0  0  0  0  0  0  0  0  0  0  0
   -1.9083   -0.0917    0.0000 C   0  0  0  0  0  0  0  0  0  0  0  0
   -1.9083    1.5583    0.0000 C   0  0  0  0  0  0  0  0  0  0  0  0
   -3.3250   -0.2167    0.0000 C   0  0  0  0  0  0  0  0  0  0  0  0
   -3.3250    1.6833    0.0000 C   0  0  0  0  0  0  0  0  0  0  0  0
    1.9417   -0.0417    0.0000 C   0  0  0  0  0  0  0  0  0  0  0  0
   -0.9333    1.5583    0.0000 C   0  0  0  0  0  0  0  0  0  0  0  0
   -0.9333   -0.0917    0.0000 C   0  0  0  0  0  0  0  0  0  0  0  0
    0.9792   -0.0750    0.0000 C   0  0  0  0  0  0  0  0  0  0  0  0
    0.4917    0.7458    0.0000 C   0  0  0  0  0  0  0  0  0  0  0  0
    1.2042   -2.0375    0.0000 C   0  0  0  0  0  0  0  0  0  0  0  0
    2.6542   -3.2542    0.0000 C   0  0  0  0  0  0  0  0  0  0  0  0
   -4.1458   -0.7042    0.0000 C   0  0  0  0  0  0  0  0  0  0  0  0
   -2.5083   -0.7042    0.0000 C   0  0  0  0  0  0  0  0  0  0  0  0
   -4.1458    2.1708    0.0000 C   0  0  0  0  0  0  0  0  0  0  0  0
   -2.5083    2.1708    0.0000 C   0  0  0  0  0  0  0  0  0  0  0  0
    1.0542   -2.9792    0.0000 C   0  0  0  0  0  0  0  0  0  0  0  0
    1.7667   -3.5875    0.0000 C   0  0  0  0  0  0  0  0  0  0  0  0
   -4.1458   -1.6542    0.0000 C   0  0  0  0  0  0  0  0  0  0  0  0
   -2.5083   -1.6542    0.0000 C   0  0  0  0  0  0  0  0  0  0  0  0
   -4.1458    3.1083    0.0000 C   0  0  0  0  0  0  0  0  0  0  0  0
   -2.5083    3.1083    0.0000 C   0  0  0  0  0  0  0  0  0  0  0  0
   -3.3250   -2.1375    0.0000 C   0  0  0  0  0  0  0  0  0  0  0  0
   -3.3250    3.5958    0.0000 C   0  0  0  0  0  0  0  0  0  0  0  0
  2  1  1  0
  3  1  1  0
  4  2  1  0
  5  3  1  0
  6 10  1  0
  7  6  1  0
  8 18  1  0
  9  1  2  0
 10 16  1  0
 11 15  1  0
 12  7  1  0
 13  7  1  0
 14  2  1  0
 15  8  1  0
 16  8  1  0
 17 14  1  0
 18 17  1  0
 19  4  1  0
 20  5  1  0
 21 12  2  0
 22 12  1  0
 23 13  1  0
 24 13  2  0
 25 19  2  0
 26 20  2  0
 27 21  1  0
 28 22  2  0
 29 23  2  0
 30 24  1  0
 31 28  1  0
 32 30  2  0
  4  5  2  0
 25 26  1  0
  6 11  1  0
 29 32  1  0
 27 31  2  0
M  END
> <chembl_id>
CHEMBL13828

> <chembl_pref_name>
OXATOMIDE
