
     RDKit          2D

 19 19  0  0  0  0  0  0  0  0999 V2000
    7.3792   -3.1542    0.0000 C   0  0  0  0  0  0  0  0  0  0  0  0
    7.3792   -3.8625    0.0000 O   0  0  0  0  0  0  0  0  0  0  0  0
    1.8417   -4.2417    0.0000 N   0  0  0  0  0  0  0  0  0  0  0  0
    6.7667   -2.8042    0.0000 C   0  0  0  0  0  0  0  0  0  0  0  0
    4.3000   -4.2250    0.0000 O   0  0  0  0  0  0  0  0  0  0  0  0
    8.0000   -2.8000    0.0000 N   0  0  0  0  0  0  0  0  0  0  0  0
    3.0667   -4.2292    0.0000 C   0  0  0  0  0  0  0  0  0  0  0  0
    4.9167   -3.8750    0.0000 C   0  0  0  0  0  0  0  0  0  0  0  0
    2.4542   -3.8875    0.0000 C   0  0  0  0  0  0  0  0  0  0  0  0
    6.1542   -3.1542    0.0000 C   0  0  0  0  0  0  0  0  0  0  0  0
    3.6917   -3.8667    0.0000 C   0  0  0  0  0  0  0  0  0  0  0  0
    5.5292   -4.2292    0.0000 C   0  0  0  0  0  0  0  0  0  0  0  0
    4.9167   -3.1667    0.0000 C   0  0  0  0  0  0  0  0  0  0  0  0
    5.5375   -2.8042    0.0000 C   0  0  0  0  0  0  0  0  0  0  0  0
    6.1500   -3.8667    0.0000 C   0  0  0  0  0  0  0  0  0  0  0  0
    3.0750   -4.9417    0.0000 O   0  0  0  0  0  0  0  0  0  0  0  0
    1.2250   -3.9000    0.0000 C   0  0  0  0  0  0  0  0  0  0  0  0
    0.6125   -4.2542    0.0000 C   0  0  0  0  0  0  0  0  0  0  0  0
    1.2292   -3.1917    0.0000 C   0  0  0  0  0  0  0  0  0  0  0  0
  2  1  2  0
  3  9  1  0
  4  1  1  0
  5  8  1  0
  6  1  1  0
  7 11  1  0
  8 12  1  0
  9  7  1  0
 10  4  1  0
 11  5  1  0
 12 15  2  0
 13 14  1  0
 14 10  2  0
 15 10  1  0
 16  7  1  0
 17  3  1  0
 18 17  1  0
 19 17  1  0
  8 13  2  0
M  END
> <chembl_id>
CHEMBL24

> <chembl_pref_name>
ATENOLOL
