
     RDKit          2D

 30 31  0  0  1  0  0  0  0  0999 V2000
   -1.7125   -1.3167    0.0000 C   0  0  0  0  0  0  0  0  0  0  0  0
   -1.7125   -0.6042    0.0000 C   0  0  0  0  0  0  0  0  0  0  0  0
   -1.1083    0.4625    0.0000 C   0  0  0  0  0  0  0  0  0  0  0  0
   -1.1000   -0.2417    0.0000 O   0  0  0  0  0  0  0  0  0  0  0  0
   -1.1000   -1.6667    0.0000 C   0  0  0  0  0  0  0  0  0  0  0  0
    0.7375   -1.3167    0.0000 N   0  0  0  0  0  0  0  0  0  0  0  0
    0.1250   -1.6667    0.0000 C   0  0  0  0  0  0  0  0  0  0  0  0
   -0.4875   -1.3167    0.0000 C   0  0  0  0  0  0  0  0  0  0  0  0
   -2.3250   -1.6667    0.0000 C   0  0  0  0  0  0  0  0  0  0  0  0
   -1.7208    0.8125    0.0000 O   0  0  0  0  0  0  0  0  0  0  0  0
   -2.3250   -0.2500    0.0000 C   0  0  0  0  0  0  0  0  0  0  0  0
   -1.1083   -2.3792    0.0000 C   0  0  0  0  0  0  0  0  0  0  0  0
   -0.4958    0.8208    0.0000 C   0  0  0  0  0  0  0  0  0  0  0  0
    1.3500   -1.6667    0.0000 C   0  0  0  0  0  0  0  0  0  0  0  0
    0.7375   -0.6042    0.0000 C   0  0  0  0  0  0  0  0  0  0  0  0
   -2.9375   -1.3167    0.0000 C   0  0  0  0  0  0  0  0  0  0  0  0
   -2.9375   -0.6042    0.0000 C   0  0  0  0  0  0  0  0  0  0  0  0
   -4.1708   -1.3167    0.0000 O   0  0  0  0  0  0  0  0  0  0  0  0
   -3.5500   -1.6667    0.0000 C   0  0  0  0  0  0  0  0  0  0  0  0
   -1.7208   -2.7292    0.0000 C   0  0  0  0  0  0  0  0  0  0  0  0
   -0.4958   -2.7292    0.0000 C   0  0  0  0  0  0  0  0  0  0  0  0
    0.1250    0.4708    0.0000 C   0  0  0  0  0  0  0  0  0  0  0  0
   -0.4958    1.5250    0.0000 C   0  0  0  0  0  0  0  0  0  0  0  0
    1.3542   -0.2542    0.0000 C   0  0  0  0  0  0  0  0  0  0  0  0
    0.1250   -0.2542    0.0000 C   0  0  0  0  0  0  0  0  0  0  0  0
    1.3500   -2.3792    0.0000 C   0  0  0  0  0  0  0  0  0  0  0  0
    1.9667   -1.3167    0.0000 C   0  0  0  0  0  0  0  0  0  0  0  0
   -0.4958   -3.4292    0.0000 C   0  0  0  0  0  0  0  0  0  0  0  0
   -1.7208   -3.4375    0.0000 C   0  0  0  0  0  0  0  0  0  0  0  0
   -1.1083   -3.7917    0.0000 C   0  0  0  0  0  0  0  0  0  0  0  0
  2  1  1  0
  3  4  1  0
  4  2  1  0
  5  1  1  0
  6  7  1  0
  7  8  1  0
  8  5  1  0
  9  1  2  0
 10  3  2  0
 11  2  2  0
  5 12  1  6
 13  3  1  0
 14  6  1  0
 15  6  1  0
 16  9  1  0
 17 16  2  0
 18 19  1  0
 19 16  1  0
 20 12  2  0
 21 12  1  0
 22 13  1  0
 23 13  1  0
 24 15  1  0
 25 15  1  0
 26 14  1  0
 27 14  1  0
 28 21  2  0
 29 20  1  0
 30 28  1  0
 17 11  1  0
 30 29  2  0
M  END
> <chembl_id>
CHEMBL1201764

> <chembl_pref_name>
FESOTERODINE
