
     RDKit          2D

 19 19  0  0  0  0  0  0  0  0999 V2000
    9.1772   -7.3184    0.0000 Na  0  0  0  0  0 15  0  0  0  0  0  0
    4.4551   -5.3529    0.0000 C   0  0  0  0  0  0  0  0  0  0  0  0
    4.4600   -6.1779    0.0000 C   0  0  0  0  0  0  0  0  0  0  0  0
    3.0332   -5.3529    0.0000 N   0  0  0  0  0  0  0  0  0  0  0  0
    3.7417   -6.5904    0.0000 N   0  0  0  0  0  0  0  0  0  0  0  0
    3.7417   -4.9356    0.0000 C   0  0  0  0  0  0  0  0  0  0  0  0
    5.2413   -5.0908    0.0000 N   0  0  0  0  0  0  0  0  0  0  0  0
    3.0332   -6.1731    0.0000 C   0  0  0  0  0  0  0  0  0  0  0  0
    5.2462   -6.4254    0.0000 N   0  0  0  0  0  0  0  0  0  0  0  0
    5.7315   -5.7557    0.0000 C   0  0  0  0  0  0  0  0  0  0  0  0
    3.7417   -4.1154    0.0000 O   0  0  0  0  0  0  0  0  0  0  0  0
    5.2413   -7.2505    0.0000 C   0  0  0  0  0  0  0  0  0  0  0  0
    2.3149   -6.5856    0.0000 N   0  0  0  0  0  0  0  0  0  0  0  0
    8.0949   -7.2796    0.0000 O   0  0  0  0  0  0  0  0  0  0  0  0
    5.9498   -7.6678    0.0000 C   0  0  0  0  0  0  0  0  0  0  0  0
    6.6681   -7.2651    0.0000 C   0  0  0  0  0  0  0  0  0  0  0  0
    7.3766   -7.6824    0.0000 C   0  0  0  0  0  0  0  0  0  0  0  0
    7.3961   -6.0323    0.0000 O   0  0  0  0  0  0  0  0  0  0  0  0
    6.6778   -6.4400    0.0000 C   0  0  0  0  0  0  0  0  0  0  0  0
  3  2  2  0
  4  6  2  0
  5  3  1  0
  6  2  1  0
  7  2  1  0
  8  5  2  0
  9  3  1  0
 10  7  2  0
 11  6  1  0
 12  9  1  0
 13  8  1  0
 14 17  1  0
 15 12  1  0
 16 15  1  0
 17 16  1  0
 18 19  1  0
 19 16  1  0
 10  9  1  0
  8  4  1  0
M  CHG  2   1   1  11  -1
M  END
> <chembl_id>
CHEMBL2079793

> <chembl_pref_name>
PENCICLOVIR SODIUM
