
     RDKit          2D

 53 54  0  0  0  0  0  0  0  0999 V2000
   -3.2468   -5.6261    0.0000 C   0  0  0  0  0  0  0  0  0  0  0  0
   -2.5323   -5.2136    0.0000 C   0  0  0  0  0  0  0  0  0  0  0  0
   -1.8178   -5.6261    0.0000 O   0  0  0  0  0  0  0  0  0  0  0  0
   -2.5323   -4.3886    0.0000 O   0  0  0  0  0  0  0  0  0  0  0  0
   -5.2500   -2.5189    0.0000 C   0  0  0  0  0  0  0  0  0  0  0  0
   -5.9644   -2.1064    0.0000 C   0  0  0  0  0  0  0  0  0  0  0  0
   -5.9644   -1.2814    0.0000 C   0  0  0  0  0  0  0  0  0  0  0  0
   -5.2499   -0.8689    0.0000 C   0  0  0  0  0  0  0  0  0  0  0  0
   -4.5355   -1.2814    0.0000 C   0  0  0  0  0  0  0  0  0  0  0  0
   -4.5355   -2.1064    0.0000 C   0  0  0  0  0  0  0  0  0  0  0  0
   -5.2499   -0.0439    0.0000 C   0  0  0  0  0  0  0  0  0  0  0  0
   -4.5355    0.3686    0.0000 C   0  0  0  0  0  0  0  0  0  0  0  0
   -4.5354    1.1936    0.0000 N   0  0  0  0  0  0  0  0  0  0  0  0
   -3.8210   -0.0439    0.0000 C   0  0  0  0  0  0  0  0  0  0  0  0
   -3.8210   -0.8689    0.0000 O   0  0  0  0  0  0  0  0  0  0  0  0
   -3.1065    0.3686    0.0000 N   0  0  0  0  0  0  0  0  0  0  0  0
   -2.3920   -0.0439    0.0000 C   0  0  0  0  0  0  0  0  0  0  0  0
   -1.6776    0.3686    0.0000 C   0  0  0  0  0  0  0  0  0  0  0  0
   -2.3921   -0.8689    0.0000 C   0  0  0  0  0  0  0  0  0  0  0  0
   -1.6776   -1.2814    0.0000 C   0  0  0  0  0  0  0  0  0  0  0  0
   -1.6776    1.1936    0.0000 O   0  0  0  0  0  0  0  0  0  0  0  0
   -0.9631   -0.0439    0.0000 N   0  0  0  0  0  0  0  0  0  0  0  0
   -0.2486    0.3686    0.0000 C   0  0  0  0  0  0  0  0  0  0  0  0
   -0.2486    1.1936    0.0000 C   0  0  0  0  0  0  0  0  0  0  0  0
    0.4659    1.6061    0.0000 C   0  0  0  0  0  0  0  0  0  0  0  0
    0.4659    2.4311    0.0000 C   0  0  0  0  0  0  0  0  0  0  0  0
    1.1803    1.1936    0.0000 C   0  0  0  0  0  0  0  0  0  0  0  0
    0.4658   -0.0439    0.0000 C   0  0  0  0  0  0  0  0  0  0  0  0
    0.4658   -0.8689    0.0000 O   0  0  0  0  0  0  0  0  0  0  0  0
    1.1803    0.3686    0.0000 N   0  0  0  0  0  0  0  0  0  0  0  0
    1.8948   -0.0440    0.0000 C   0  0  0  0  0  0  0  0  0  0  0  0
    2.6093    0.3685    0.0000 C   0  0  0  0  0  0  0  0  0  0  0  0
    2.6093    1.1935    0.0000 O   0  0  0  0  0  0  0  0  0  0  0  0
    3.3237   -0.0440    0.0000 N   0  0  0  0  0  0  0  0  0  0  0  0
    1.8948   -0.8690    0.0000 C   0  0  0  0  0  0  0  0  0  0  0  0
    2.6092   -1.2815    0.0000 C   0  0  0  0  0  0  0  0  0  0  0  0
    2.6092   -2.1065    0.0000 C   0  0  0  0  0  0  0  0  0  0  0  0
    3.3237   -2.5190    0.0000 C   0  0  0  0  0  0  0  0  0  0  0  0
    3.3237   -3.3440    0.0000 N   0  0  0  0  0  0  0  0  0  0  0  0
   -0.9631   -0.8689    0.0000 C   0  0  0  0  0  0  0  0  0  0  0  0
   -0.2486   -1.2814    0.0000 C   0  0  0  0  0  0  0  0  0  0  0  0
   -0.2487   -2.1064    0.0000 C   0  0  0  0  0  0  0  0  0  0  0  0
   -0.9631   -2.5189    0.0000 C   0  0  0  0  0  0  0  0  0  0  0  0
   -1.6776   -2.1064    0.0000 C   0  0  0  0  0  0  0  0  0  0  0  0
    4.0382    0.3685    0.0000 C   0  0  0  0  0  0  0  0  0  0  0  0
    3.3237   -0.8690    0.0000 C   0  0  0  0  0  0  0  0  0  0  0  0
    4.0382   -1.2815    0.0000 C   0  0  0  0  0  0  0  0  0  0  0  0
    4.7527   -0.8690    0.0000 C   0  0  0  0  0  0  0  0  0  0  0  0
    4.7527   -0.0440    0.0000 C   0  0  0  0  0  0  0  0  0  0  0  0
    5.2193   -1.6570    0.0000 N   0  0  0  0  0  0  0  0  0  0  0  0
    5.4004   -0.6621    0.0000 C   0  0  0  0  0  0  0  0  0  0  0  0
    5.6902    0.0965    0.0000 O   0  0  0  0  0  0  0  0  0  0  0  0
    5.9645   -1.2432    0.0000 O   0  0  0  0  0  0  0  0  0  0  0  0
  1  2  1  0
  2  3  1  0
  2  4  2  0
  5  6  1  0
  6  7  2  0
  7  8  1  0
  8  9  2  0
  9 10  1  0
  5 10  2  0
  8 11  1  0
 12 11  1  1
 12 13  1  0
 12 14  1  0
 14 15  2  0
 14 16  1  0
 16 17  1  0
 17 18  1  0
 17 19  1  1
 19 20  1  0
 18 21  2  0
 18 22  1  0
 22 23  1  0
 23 24  1  6
 24 25  1  0
 25 26  1  0
 25 27  1  0
 23 28  1  0
 28 29  2  0
 28 30  1  0
 30 31  1  0
 31 32  1  0
 32 33  2  0
 32 34  1  0
 31 35  1  1
 35 36  1  0
 36 37  1  0
 37 38  1  0
 38 39  1  0
 40 41  2  0
 41 42  1  0
 42 43  2  0
 43 44  1  0
 20 40  1  0
 20 44  2  0
 46 47  1  0
 47 48  1  0
 48 49  1  0
 45 49  1  0
 45 34  1  0
 34 46  1  0
 48 50  1  0
 48 51  1  0
 51 52  1  0
 51 53  2  0
M  END
> <chembl_id>
CHEMBL5315123

> <chembl_pref_name>
DIFELIKEFALIN ACETATE
