
     RDKit          2D

 32 35  0  0  0  0  0  0  0  0999 V2000
    0.5598    1.9446    0.0000 C   0  0  0  0  0  0  0  0  0  0  0  0
   -0.1547    1.5321    0.0000 C   0  0  0  0  0  0  0  0  0  0  0  0
   -0.1547    0.7071    0.0000 C   0  0  0  0  0  0  0  0  0  0  0  0
    0.5598    0.2946    0.0000 C   0  0  0  0  0  0  0  0  0  0  0  0
    1.2743    0.7071    0.0000 C   0  0  0  0  0  0  0  0  0  0  0  0
    1.2743    1.5321    0.0000 C   0  0  0  0  0  0  0  0  0  0  0  0
    1.9888    0.2946    0.0000 Cl  0  0  0  0  0  0  0  0  0  0  0  0
    1.9888    1.9446    0.0000 C   0  0  0  0  0  0  0  0  0  0  0  0
    2.7033    1.5321    0.0000 C   0  0  0  0  0  0  0  0  0  0  0  0
    2.7032    0.7071    0.0000 C   0  0  0  0  0  0  0  0  0  0  0  0
    3.4177    0.2946    0.0000 C   0  0  0  0  0  0  0  0  0  0  0  0
    4.1322    0.7071    0.0000 C   0  0  0  0  0  0  0  0  0  0  0  0
    4.1322    1.5322    0.0000 C   0  0  0  0  0  0  0  0  0  0  0  0
    3.4177    1.9447    0.0000 C   0  0  0  0  0  0  0  0  0  0  0  0
    4.8467    0.2946    0.0000 O   0  0  0  0  0  0  0  0  0  0  0  0
    5.5611    0.7071    0.0000 C   0  0  0  0  0  0  0  0  0  0  0  0
    6.2756    0.2946    0.0000 C   0  0  0  0  0  0  0  0  0  0  0  0
    6.9901    0.7071    0.0000 O   0  0  0  0  0  0  0  0  0  0  0  0
    7.7046    0.2946    0.0000 C   0  0  0  0  0  0  0  0  0  0  0  0
    8.1171   -0.4198    0.0000 C   0  0  0  0  0  0  0  0  0  0  0  0
    8.5296    0.2946    0.0000 C   0  0  0  0  0  0  0  0  0  0  0  0
   -0.8691    1.9446    0.0000 C   0  0  0  0  0  0  0  0  0  0  0  0
   -0.8691    2.7696    0.0000 O   0  0  0  0  0  0  0  0  0  0  0  0
   -1.5836    3.1822    0.0000 C   0  0  0  0  0  0  0  0  0  0  0  0
   -2.2981    2.7697    0.0000 C   0  0  0  0  0  0  0  0  0  0  0  0
   -2.2981    1.9447    0.0000 C   0  0  0  0  0  0  0  0  0  0  0  0
   -1.5836    1.5322    0.0000 C   0  0  0  0  0  0  0  0  0  0  0  0
   -1.5836    4.0072    0.0000 C   0  0  0  0  0  0  0  0  0  0  0  0
   -2.2981    4.4197    0.0000 O   0  0  0  0  0  0  0  0  0  0  0  0
   -3.0126    3.1822    0.0000 O   0  0  0  0  0  0  0  0  0  0  0  0
   -3.0126    1.5322    0.0000 O   0  0  0  0  0  0  0  0  0  0  0  0
   -1.5836    0.7072    0.0000 O   0  0  0  0  0  0  0  0  0  0  0  0
  1  2  1  0
  1  6  2  0
  2  3  2  0
  3  4  1  0
  4  5  2  0
  5  6  1  0
  5  7  1  0
  6  8  1  0
  8  9  1  0
  9 10  1  0
  9 14  2  0
 10 11  2  0
 11 12  1  0
 12 13  2  0
 13 14  1  0
 12 15  1  0
 15 16  1  0
 16 17  1  0
 17 18  1  0
 18 19  1  0
 19 20  1  0
 21 19  1  0
 20 21  1  0
 22  2  1  1
 22 23  1  0
 27 22  1  0
 23 24  1  0
 24 25  1  0
 25 26  1  0
 26 27  1  0
 24 28  1  1
 28 29  1  0
 25 30  1  6
 26 31  1  1
 27 32  1  6
M  END
> <chembl_id>
CHEMBL1808388

> <chembl_pref_name>
BEXAGLIFLOZIN
