
     RDKit          2D

 28 30  0  0  0  0  0  0  0  0999 V2000
    4.6943   -2.5102    0.0000 C   0  0  0  0  0  0  0  0  0  0  0  0
    4.6943   -3.3352    0.0000 C   0  0  0  0  0  0  0  0  0  0  0  0
    5.4088   -1.2727    0.0000 C   0  0  0  0  0  0  0  0  0  0  0  0
    6.1233   -0.8602    0.0000 O   0  0  0  0  0  0  0  0  0  0  0  0
    4.6943   -0.8602    0.0000 C   0  0  0  0  0  0  0  0  0  0  0  0
    3.9799   -1.2727    0.0000 C   0  0  0  0  0  0  0  0  0  0  0  0
    3.2654   -0.8602    0.0000 S   0  0  0  0  0  0  0  0  0  0  0  0
    3.9799   -2.0977    0.0000 O   0  0  0  0  0  0  0  0  0  0  0  0
    5.4088   -2.0977    0.0000 C   0  0  0  0  0  0  0  0  0  0  0  0
    5.4088   -3.7477    0.0000 C   0  0  0  0  0  0  0  0  0  0  0  0
    5.4088   -4.5727    0.0000 C   0  0  0  0  0  0  0  0  0  0  0  0
    6.1233   -4.9852    0.0000 C   0  0  0  0  0  0  0  0  0  0  0  0
    6.1233   -5.8102    0.0000 C   0  0  0  0  0  0  0  0  0  0  0  0
    6.8378   -6.2227    0.0000 C   0  0  0  0  0  0  0  0  0  0  0  0
    6.8378   -7.0477    0.0000 C   0  0  0  0  0  0  0  0  0  0  0  0
    6.1233   -7.4602    0.0000 C   0  0  0  0  0  0  0  0  0  0  0  0
    6.1233   -8.2852    0.0000 O   0  0  0  0  0  0  0  0  0  0  0  0
    5.4088   -7.0477    0.0000 C   0  0  0  0  0  0  0  0  0  0  0  0
    5.4088   -6.2227    0.0000 C   0  0  0  0  0  0  0  0  0  0  0  0
    4.6943   -4.9852    0.0000 C   0  0  0  0  0  0  0  0  0  0  0  0
    4.6943   -5.8102    0.0000 Cl  0  0  0  0  0  0  0  0  0  0  0  0
    3.9799   -4.5727    0.0000 C   0  0  0  0  0  0  0  0  0  0  0  0
    3.9799   -3.7477    0.0000 C   0  0  0  0  0  0  0  0  0  0  0  0
    5.4088   -8.6977    0.0000 C   0  0  0  0  0  0  0  0  0  0  0  0
    5.4088   -9.5227    0.0000 C   0  0  0  0  0  0  0  0  0  0  0  0
    6.1233   -2.5102    0.0000 O   0  0  0  0  0  0  0  0  0  0  0  0
    2.5509   -1.2727    0.0000 C   0  0  0  0  0  0  0  0  0  0  0  0
    4.6943   -0.0352    0.0000 O   0  0  0  0  0  0  0  0  0  0  0  0
  1  2  1  6
  1  8  1  0
  2 10  2  0
  3  4  1  6
  3  9  1  0
  5  6  1  0
  5  3  1  0
  5 28  1  1
  6  7  1  6
  8  6  1  0
  9  1  1  0
  9 26  1  1
 10 11  1  0
 11 20  2  0
 12 11  1  0
 12 13  1  0
 13 14  2  0
 13 19  1  0
 15 14  1  0
 16 15  2  0
 17 16  1  0
 17 24  1  0
 18 16  1  0
 19 18  2  0
 20 21  1  0
 22 20  1  0
 23 22  2  0
 23  2  1  0
 24 25  1  0
 27  7  1  0
M  END
> <chembl_id>
CHEMBL3039507

> <chembl_pref_name>
SOTAGLIFLOZIN
