
     RDKit          2D

 12 11  0  0  1  0  0  0  0  0999 V2000
   -1.4833    0.4083    0.0000 C   0  0  0  0  0  0  0  0  0  0  0  0
   -0.1000   -0.3417    0.0000 C   0  0  0  0  0  0  0  0  0  0  0  0
   -2.8083   -0.3167    0.0000 C   0  0  0  0  0  0  0  0  0  0  0  0
    1.2292    0.3750    0.0000 C   0  0  0  0  0  0  0  0  0  0  0  0
   -1.4833    1.9083    0.0000 O   0  0  0  0  0  0  0  0  0  0  0  0
   -0.0958   -1.8417    0.0000 O   0  0  0  0  0  0  0  0  0  0  0  0
   -2.8625   -1.7917    0.0000 O   0  0  0  0  0  0  0  0  0  0  0  0
    1.2792    1.8708    0.0000 O   0  0  0  0  0  0  0  0  0  0  0  0
   -3.7333    1.9458    0.0000 Br  0  0  0  0  0  0  0  0  0  0  0  0
    3.6542    0.4833    0.0000 Br  0  0  0  0  0  0  0  0  0  0  0  0
    2.4875   -0.4292    0.0000 C   0  0  0  0  0  0  0  0  0  0  0  0
   -4.0708    0.4875    0.0000 C   0  0  0  0  0  0  0  0  0  0  0  0
  2  1  1  0
  3  1  1  0
  4  2  1  0
  1  5  1  1
  2  6  1  1
  3  7  1  6
  4  8  1  6
  9 12  1  0
 10 11  1  0
 11  4  1  0
 12  3  1  0
M  END
> <chembl_id>
CHEMBL447629

> <chembl_pref_name>
MITOBRONITOL
