
     RDKit          2D

 35 38  0  0  1  0  0  0  0  0999 V2000
    2.5792   -6.4583    0.0000 N   0  0  0  0  0  0  0  0  0  0  0  0
    1.8750   -6.4625    0.0000 C   0  0  0  0  0  0  0  0  0  0  0  0
    2.5792   -5.7500    0.0000 C   0  0  0  0  0  0  0  0  0  0  0  0
    1.8750   -5.7500    0.0000 C   0  0  0  0  0  0  0  0  0  0  0  0
    6.2042   -6.4083    0.0000 N   0  0  0  0  0  0  0  0  0  0  0  0
    5.6333   -6.8292    0.0000 C   0  0  0  0  0  0  0  0  0  0  0  0
    3.1833   -6.8083    0.0000 C   0  0  0  0  0  0  0  0  0  0  0  0
    5.8500   -7.5000    0.0000 N   0  0  0  0  0  0  0  0  0  0  0  0
    6.5583   -7.5000    0.0000 N   0  0  0  0  0  0  0  0  0  0  0  0
    6.7792   -6.8292    0.0000 N   0  0  0  0  0  0  0  0  0  0  0  0
    3.1917   -5.4000    0.0000 S   0  0  0  0  0  0  0  0  0  0  0  0
    3.7958   -6.4625    0.0000 C   0  0  0  0  0  0  0  0  0  0  0  0
   -1.1625   -5.3292    0.0000 N   0  0  0  0  0  0  0  0  0  0  0  0
   -1.7333   -5.7500    0.0000 C   0  0  0  0  0  0  0  0  0  0  0  0
    1.2542   -5.3917    0.0000 N   0  0  0  0  0  0  0  0  0  0  0  0
   -0.5875   -5.7500    0.0000 C   0  0  0  0  0  0  0  0  0  0  0  0
    3.1792   -7.5167    0.0000 C   0  0  0  0  0  0  0  0  0  0  0  0
   -1.5167   -6.4208    0.0000 S   0  0  0  0  0  0  0  0  0  0  0  0
    0.6375   -5.7500    0.0000 C   0  0  0  0  0  0  0  0  0  0  0  0
    5.0208   -6.4708    0.0000 S   0  0  0  0  0  0  0  0  0  0  0  0
    0.0250   -5.3958    0.0000 C   0  0  0  0  0  0  0  0  0  0  0  0
    6.2042   -5.7000    0.0000 C   0  0  0  0  0  0  0  0  0  0  0  0
    3.8000   -5.7583    0.0000 C   0  0  0  0  0  0  0  0  0  0  0  0
   -0.8083   -6.4208    0.0000 C   0  0  0  0  0  0  0  0  0  0  0  0
    1.3750   -6.9625    0.0000 O   0  0  0  0  0  0  0  0  0  0  0  0
    4.4042   -6.8208    0.0000 C   0  0  0  0  0  0  0  0  0  0  0  0
    2.5625   -7.8667    0.0000 O   0  0  0  0  0  0  0  0  0  0  0  0
    0.6375   -6.4583    0.0000 O   0  0  0  0  0  0  0  0  0  0  0  0
   -2.3500   -5.3917    0.0000 N   0  0  0  0  0  0  0  0  0  0  0  0
    6.8208   -5.3458    0.0000 C   0  0  0  0  0  0  0  0  0  0  0  0
    7.4333   -5.7000    0.0000 N   0  0  0  0  0  0  0  0  0  0  0  0
    3.7875   -7.8750    0.0000 O   0  0  0  0  0  0  0  0  0  0  0  0
    7.4333   -6.4083    0.0000 C   0  0  0  0  0  0  0  0  0  0  0  0
    8.0458   -5.3458    0.0000 C   0  0  0  0  0  0  0  0  0  0  0  0
    2.5750   -5.0417    0.0000 H   0  0  0  0  0  0  0  0  0  0  0  0
  2  1  1  0
  3  1  1  0
  4  3  1  0
  5  6  1  0
  6 20  1  0
  7  1  1  0
  8  6  2  0
  9  8  1  0
 10  5  1  0
 11  3  1  0
 12  7  2  0
 13 16  1  0
 14 13  2  0
  4 15  1  1
 16 21  1  0
 17  7  1  0
 18 24  1  0
 19 15  1  0
 20 26  1  0
 21 19  1  0
 22  5  1  0
 23 11  1  0
 24 16  2  0
 25  2  2  0
 26 12  1  0
 27 17  2  0
 28 19  2  0
 29 14  1  0
 30 22  1  0
 31 30  1  0
 32 17  1  0
 33 31  1  0
 34 31  1  0
  3 35  1  6
  2  4  1  0
 23 12  1  0
 10  9  2  0
 18 14  1  0
M  END
> <chembl_id>
CHEMBL1296

> <chembl_pref_name>
CEFOTIAM
