
     RDKit          2D

 29 33  0  0  0  0  0  0  0  0999 V2000
    7.6167   -5.9000    0.0000 Br  0  0  0  0  0  0  0  0  0  0  0  0
    4.9542   -5.6792    0.0000 C   0  0  0  0  0  0  0  0  0  0  0  0
    5.3500   -4.9750    0.0000 C   0  0  0  0  0  0  0  0  0  0  0  0
    4.1292   -5.6792    0.0000 C   0  0  0  0  0  0  0  0  0  0  0  0
    5.3667   -3.5542    0.0000 N   0  0  0  0  0  0  0  0  0  0  0  0
    5.3500   -6.3792    0.0000 C   0  0  0  0  0  0  0  0  0  0  0  0
    3.7292   -6.4042    0.0000 C   0  0  0  0  0  0  0  0  0  0  0  0
    4.9542   -4.2667    0.0000 C   0  0  0  0  0  0  0  0  0  0  0  0
    4.5917   -7.0000    0.0000 O   0  0  0  0  0  0  0  0  0  0  0  0
    3.7000   -4.9750    0.0000 C   0  0  0  0  0  0  0  0  0  0  0  0
    4.1292   -4.2667    0.0000 C   0  0  0  0  0  0  0  0  0  0  0  0
    4.5417   -4.9792    0.0000 C   0  0  0  0  0  0  0  0  0  0  0  0
    6.1625   -4.9750    0.0000 C   0  0  0  0  0  0  0  0  0  0  0  0
    6.1625   -6.3792    0.0000 C   0  0  0  0  0  0  0  0  0  0  0  0
    4.9750   -2.7917    0.0000 C   0  0  0  0  0  0  0  0  0  0  0  0
    4.5417   -3.7917    0.0000 C   0  0  0  0  0  0  0  0  0  0  0  0
    2.9042   -6.4167    0.0000 C   0  0  0  0  0  0  0  0  0  0  0  0
    4.1167   -2.7500    0.0000 C   0  0  0  0  0  0  0  0  0  0  0  0
    3.4292   -2.3042    0.0000 C   0  0  0  0  0  0  0  0  0  0  0  0
    3.3875   -3.1250    0.0000 C   0  0  0  0  0  0  0  0  0  0  0  0
    2.8750   -4.9917    0.0000 C   0  0  0  0  0  0  0  0  0  0  0  0
    6.5625   -5.6792    0.0000 C   0  0  0  0  0  0  0  0  0  0  0  0
    5.7625   -4.2750    0.0000 O   0  0  0  0  0  0  0  0  0  0  0  0
    6.5667   -7.0792    0.0000 O   0  0  0  0  0  0  0  0  0  0  0  0
    2.4792   -5.7125    0.0000 C   0  0  0  0  0  0  0  0  0  0  0  0
    6.0417   -3.0292    0.0000 C   0  0  0  0  0  0  0  0  0  0  0  0
    2.5042   -7.1417    0.0000 O   0  0  0  0  0  0  0  0  0  0  0  0
    4.4547   -3.4004    0.0000 H   0  0  0  0  0  0  0  0  0  0  0  0
    5.6863   -7.3209    0.0000 H   0  0  0  0  0  0  0  0  0  0  0  0
  3  2  1  0
  4  2  1  0
  5 16  1  0
  6  2  1  0
  7  4  1  0
  8  3  1  0
  6  9  1  0
 10  4  2  0
 11 10  1  0
  2 12  1  1
 13  3  1  0
 14  6  1  0
 15  5  1  0
 16 12  1  0
 17  7  2  0
 18 15  1  0
 19 18  1  0
 20 18  1  0
 21 10  1  0
 22 14  1  0
  3 23  1  1
 24 14  2  0
 25 21  2  0
 26  5  1  0
 27 17  1  0
  7  9  1  0
  8  5  1  0
 22 13  1  0
  8 11  1  0
 25 17  1  0
 19 20  1  0
  8 28  1  6
  6 29  1  1
M  CHG  2   1  -1   5   1
M  END
> <chembl_id>
CHEMBL1201770

> <chembl_pref_name>
METHYLNALTREXONE BROMIDE
