
     RDKit          2D

 38 41  0  0  0  0  0  0  0  0999 V2000
    0.0125   -3.8042    0.0000 N   0  0  0  0  0  0  0  0  0  0  0  0
    0.6250   -4.1667    0.0000 C   0  0  0  0  0  0  0  0  0  0  0  0
    0.0125   -5.2542    0.0000 S   0  0  0  0  0  0  0  0  0  0  0  0
    2.4625   -3.8000    0.0000 C   0  0  0  0  0  0  0  0  0  0  0  0
    0.6250   -4.8917    0.0000 C   0  0  0  0  0  0  0  0  0  0  0  0
   -0.5875   -4.1667    0.0000 C   0  0  0  0  0  0  0  0  0  0  0  0
   -0.5875   -4.8917    0.0000 C   0  0  0  0  0  0  0  0  0  0  0  0
    1.2500   -3.8042    0.0000 C   0  0  0  0  0  0  0  0  0  0  0  0
    1.8500   -4.1667    0.0000 C   0  0  0  0  0  0  0  0  0  0  0  0
    1.8417   -2.5042    0.0000 N   0  0  0  0  0  0  0  0  0  0  0  0
    3.0792   -1.7667    0.0000 N   0  0  0  0  0  0  0  0  0  0  0  0
    5.5417   -1.8042    0.0000 C   0  0  0  0  0  0  0  0  0  0  0  0
    1.2500   -5.2542    0.0000 C   0  0  0  0  0  0  0  0  0  0  0  0
    1.8500   -4.8917    0.0000 C   0  0  0  0  0  0  0  0  0  0  0  0
    6.1667   -1.4750    0.0000 O   0  0  0  0  0  0  0  0  0  0  0  0
    3.0792   -4.1417    0.0000 F   0  0  0  0  0  0  0  0  0  0  0  0
    2.8125   -3.1792    0.0000 F   0  0  0  0  0  0  0  0  0  0  0  0
    2.1042   -3.1792    0.0000 F   0  0  0  0  0  0  0  0  0  0  0  0
    0.0125   -2.8667    0.0000 C   0  0  0  0  0  0  0  0  0  0  0  0
    2.4458   -2.8417    0.0000 C   0  0  0  0  0  0  0  0  0  0  0  0
    1.8375   -1.7792    0.0000 C   0  0  0  0  0  0  0  0  0  0  0  0
    3.0792   -2.4792    0.0000 C   0  0  0  0  0  0  0  0  0  0  0  0
    2.4458   -1.4042    0.0000 C   0  0  0  0  0  0  0  0  0  0  0  0
    0.6250   -2.5042    0.0000 C   0  0  0  0  0  0  0  0  0  0  0  0
    4.9417   -1.4167    0.0000 O   0  0  0  0  0  0  0  0  0  0  0  0
    1.2417   -2.8667    0.0000 C   0  0  0  0  0  0  0  0  0  0  0  0
    3.6875   -1.4042    0.0000 C   0  0  0  0  0  0  0  0  0  0  0  0
   -1.1875   -3.8042    0.0000 C   0  0  0  0  0  0  0  0  0  0  0  0
    4.2875   -1.7667    0.0000 C   0  0  0  0  0  0  0  0  0  0  0  0
   -1.1875   -5.2542    0.0000 C   0  0  0  0  0  0  0  0  0  0  0  0
    5.5125   -2.5042    0.0000 C   0  0  0  0  0  0  0  0  0  0  0  0
    4.8792   -2.8375    0.0000 C   0  0  0  0  0  0  0  0  0  0  0  0
    4.1917   -4.5792    0.0000 C   0  0  0  0  0  0  0  0  0  0  0  0
    4.2250   -3.8750    0.0000 C   0  0  0  0  0  0  0  0  0  0  0  0
    4.8542   -3.5417    0.0000 C   0  0  0  0  0  0  0  0  0  0  0  0
   -1.7875   -4.1417    0.0000 C   0  0  0  0  0  0  0  0  0  0  0  0
   -1.7875   -4.9167    0.0000 C   0  0  0  0  0  0  0  0  0  0  0  0
    3.5667   -4.9042    0.0000 C   0  0  0  0  0  0  0  0  0  0  0  0
  2  1  1  0
  3  5  1  0
  4  9  1  0
  5  2  2  0
  6  1  1  0
  7  6  2  0
  8  2  1  0
  9  8  2  0
 10 26  1  0
 11 22  1  0
 12 25  1  0
 13  5  1  0
 14  9  1  0
 15 12  2  0
 16  4  1  0
 17  4  1  0
 18  4  1  0
 19  1  1  0
 20 10  1  0
 21 10  1  0
 22 20  1  0
 23 21  1  0
 24 19  1  0
 25 29  1  0
 26 24  1  0
 27 11  1  0
 28  6  1  0
 29 27  1  0
 30  7  1  0
 31 12  1  0
 32 31  1  0
 33 34  1  0
 34 35  1  0
 35 32  1  0
 36 28  2  0
 37 36  1  0
 38 33  1  0
  7  3  1  0
 13 14  2  0
 30 37  2  0
 23 11  1  0
M  END
> <chembl_id>
CHEMBL1200951

> <chembl_pref_name>
FLUPHENAZINE ENANTHATE
