
     RDKit          2D

 12 12  0  0  0  0  0  0  0  0999 V2000
   14.0226  -19.1108    0.0000 C   0  0  0  0  0  0  0  0  0  0  0  0
   14.0226  -19.9079    0.0000 C   0  0  0  0  0  0  0  0  0  0  0  0
   14.7451  -20.3064    0.0000 C   0  0  0  0  0  0  0  0  0  0  0  0
   15.4720  -19.9079    0.0000 C   0  0  0  0  0  0  0  0  0  0  0  0
   15.4720  -19.1108    0.0000 C   0  0  0  0  0  0  0  0  0  0  0  0
   14.7451  -18.7076    0.0000 O   0  0  0  0  0  0  0  0  0  0  0  0
   16.1948  -18.7131    0.0000 O   0  0  0  0  0  0  0  0  0  0  0  0
   16.1938  -20.3074    0.0000 F   0  0  0  0  0  0  0  0  0  0  0  0
   14.7438  -21.1035    0.0000 O   0  0  0  0  0  0  0  0  0  0  0  0
   13.3002  -20.3064    0.0000 O   0  0  0  0  0  0  0  0  0  0  0  0
   13.2992  -18.7141    0.0000 C   0  0  0  0  0  0  0  0  0  0  0  0
   12.5779  -19.1142    0.0000 O   0  0  0  0  0  0  0  0  0  0  0  0
  5  6  1  0
  5  7  1  6
  1  2  1  0
  4  8  1  6
  1  6  1  0
  3  9  1  1
  2  3  1  0
  2 10  1  6
  3  4  1  0
  1 11  1  1
  4  5  1  0
 11 12  1  0
M  ISO  1   8  18
M  END
> <chembl_id>
CHEMBL1092067

> <chembl_pref_name>
FLUDEOXYGLUCOSE F 18
