
     RDKit          2D

 17 18  0  0  0  0  0  0  0  0999 V2000
    0.0479   -1.1497    0.0000 C   0  0  0  0  0  0  0  0  0  0  0  0
    1.3533   -1.7309    0.0000 C   0  0  0  0  0  0  0  0  0  0  0  0
    1.6889   -0.9772    0.0000 C   0  0  0  0  0  0  0  0  0  0  0  0
    1.2040   -0.3098    0.0000 C   0  0  0  0  0  0  0  0  0  0  0  0
   -0.7725   -1.2359    0.0000 O   0  0  0  0  0  0  0  0  0  0  0  0
   -1.2284    2.7785    0.0000 O   0  0  0  0  0  0  0  0  0  0  0  0
   -0.5139    2.3660    0.0000 C   0  0  0  0  0  0  0  0  0  0  0  0
   -0.5139    1.5410    0.0000 C   0  0  0  0  0  0  0  0  0  0  0  0
    0.1535    1.0561    0.0000 O   0  0  0  0  0  0  0  0  0  0  0  0
   -0.1014    0.2714    0.0000 C   0  0  0  0  0  0  0  0  0  0  0  0
    0.3835   -0.3960    0.0000 N   0  0  0  0  0  0  0  0  0  0  0  0
    0.5329   -1.8171    0.0000 N   0  0  0  0  0  0  0  0  0  0  0  0
    1.8383   -2.3983    0.0000 O   0  0  0  0  0  0  0  0  0  0  0  0
    2.5094   -0.8910    0.0000 I   0  0  0  0  0  0  0  0  0  0  0  0
   -0.9264    0.2714    0.0000 C   0  0  0  0  0  0  0  0  0  0  0  0
   -1.1814    1.0561    0.0000 C   0  0  0  0  0  0  0  0  0  0  0  0
   -1.9660    1.3110    0.0000 O   0  0  0  0  0  0  0  0  0  0  0  0
  1  5  2  0
  1 11  1  0
  1 12  1  0
  2  3  1  0
  2 12  1  0
  2 13  2  0
  3  4  2  0
  3 14  1  0
  4 11  1  0
  7  6  1  0
  8  7  1  1
  8  9  1  0
 16  8  1  0
 10  9  1  0
 10 11  1  1
 10 15  1  0
 15 16  1  0
 16 17  1  6
M  END
> <chembl_id>
CHEMBL788

> <chembl_pref_name>
IDOXURIDINE
