
     RDKit          2D

102108  0  0  0  0  0  0  0  0999 V2000
    9.9542   -6.8167    0.0000 C   0  0  0  0  0  0  0  0  0  0  0  0
    9.9542   -6.1125    0.0000 O   0  0  0  0  0  0  0  0  0  0  0  0
   10.5667   -7.1792    0.0000 O   0  0  0  0  0  0  0  0  0  0  0  0
    9.3417   -7.1792    0.0000 C   0  0  0  0  0  0  0  0  0  0  0  0
   11.1542   -2.3292    0.0000 N   0  0  0  0  0  0  0  0  0  0  0  0
   10.5417   -2.6833    0.0000 C   0  0  0  0  0  0  0  0  0  0  0  0
    1.3375   -3.7375    0.0000 C   0  0  0  0  0  0  0  0  0  0  0  0
    3.1750   -2.6792    0.0000 C   0  0  0  0  0  0  0  0  0  0  0  0
    7.4292   -1.6792    0.0000 N   0  0  0  0  0  0  0  0  0  0  0  0
    1.3375   -2.3208    0.0000 C   0  0  0  0  0  0  0  0  0  0  0  0
   -0.5042   -2.6792    0.0000 C   0  0  0  0  0  0  0  0  0  0  0  0
    6.8583   -2.6792    0.0000 C   0  0  0  0  0  0  0  0  0  0  0  0
    5.0167   -2.3208    0.0000 C   0  0  0  0  0  0  0  0  0  0  0  0
    8.7000   -2.3292    0.0000 C   0  0  0  0  0  0  0  0  0  0  0  0
   -2.3500   -2.3292    0.0000 C   0  0  0  0  0  0  0  0  0  0  0  0
   -3.5375   -2.2750    0.0000 N   0  0  0  0  0  0  0  0  0  0  0  0
    7.7875   -0.5875    0.0000 N   0  0  0  0  0  0  0  0  0  0  0  0
    1.9500   -2.6792    0.0000 N   0  0  0  0  0  0  0  0  0  0  0  0
   11.7292   -2.7458    0.0000 C   0  0  0  0  0  0  0  0  0  0  0  0
    2.5583   -2.3250    0.0000 C   0  0  0  0  0  0  0  0  0  0  0  0
    6.8583   -1.2625    0.0000 C   0  0  0  0  0  0  0  0  0  0  0  0
    2.4833   -3.7208    0.0000 N   0  0  0  0  0  0  0  0  0  0  0  0
    3.7875   -2.3208    0.0000 N   0  0  0  0  0  0  0  0  0  0  0  0
    5.6292   -2.6792    0.0000 N   0  0  0  0  0  0  0  0  0  0  0  0
    0.1083   -2.3208    0.0000 N   0  0  0  0  0  0  0  0  0  0  0  0
   -1.7333   -2.6792    0.0000 N   0  0  0  0  0  0  0  0  0  0  0  0
    7.4750   -2.3292    0.0000 N   0  0  0  0  0  0  0  0  0  0  0  0
    9.3125   -2.6833    0.0000 N   0  0  0  0  0  0  0  0  0  0  0  0
    1.9042   -3.3125    0.0000 C   0  0  0  0  0  0  0  0  0  0  0  0
    6.2458   -2.3250    0.0000 C   0  0  0  0  0  0  0  0  0  0  0  0
   -1.1208   -2.3250    0.0000 C   0  0  0  0  0  0  0  0  0  0  0  0
    0.7208   -2.6750    0.0000 C   0  0  0  0  0  0  0  0  0  0  0  0
    8.0042   -1.2625    0.0000 C   0  0  0  0  0  0  0  0  0  0  0  0
    4.4000   -2.6750    0.0000 C   0  0  0  0  0  0  0  0  0  0  0  0
    8.0833   -2.6792    0.0000 C   0  0  0  0  0  0  0  0  0  0  0  0
   11.7250   -3.4542    0.0000 C   0  0  0  0  0  0  0  0  0  0  0  0
    9.9250   -2.3292    0.0000 C   0  0  0  0  0  0  0  0  0  0  0  0
    0.6417   -1.2917    0.0000 N   0  0  0  0  0  0  0  0  0  0  0  0
   -2.9625   -2.6917    0.0000 C   0  0  0  0  0  0  0  0  0  0  0  0
   11.1542    0.5042    0.0000 C   0  0  0  0  0  0  0  0  0  0  0  0
   -4.1083   -2.6917    0.0000 C   0  0  0  0  0  0  0  0  0  0  0  0
    7.0750   -0.5875    0.0000 C   0  0  0  0  0  0  0  0  0  0  0  0
    1.5667   -4.4083    0.0000 C   0  0  0  0  0  0  0  0  0  0  0  0
    0.7208   -3.3833    0.0000 C   0  0  0  0  0  0  0  0  0  0  0  0
    6.2458   -1.6167    0.0000 C   0  0  0  0  0  0  0  0  0  0  0  0
   -0.5042   -1.2625    0.0000 C   0  0  0  0  0  0  0  0  0  0  0  0
   -1.1208   -1.6167    0.0000 C   0  0  0  0  0  0  0  0  0  0  0  0
   -0.2667   -0.5958    0.0000 N   0  0  0  0  0  0  0  0  0  0  0  0
    0.4417   -0.6125    0.0000 C   0  0  0  0  0  0  0  0  0  0  0  0
    2.2750   -4.3958    0.0000 C   0  0  0  0  0  0  0  0  0  0  0  0
   10.5417    0.8583    0.0000 N   0  0  0  0  0  0  0  0  0  0  0  0
    0.0583   -1.6917    0.0000 C   0  0  0  0  0  0  0  0  0  0  0  0
   10.5417   -3.3917    0.0000 O   0  0  0  0  0  0  0  0  0  0  0  0
    3.1750   -3.3875    0.0000 O   0  0  0  0  0  0  0  0  0  0  0  0
   -0.5042   -3.3875    0.0000 O   0  0  0  0  0  0  0  0  0  0  0  0
    5.0167   -1.6125    0.0000 O   0  0  0  0  0  0  0  0  0  0  0  0
    6.8583   -3.3875    0.0000 O   0  0  0  0  0  0  0  0  0  0  0  0
    8.7000   -1.6167    0.0000 O   0  0  0  0  0  0  0  0  0  0  0  0
    1.3375   -1.6125    0.0000 O   0  0  0  0  0  0  0  0  0  0  0  0
   -2.3583   -1.6250    0.0000 O   0  0  0  0  0  0  0  0  0  0  0  0
    4.4000   -3.3833    0.0000 C   0  0  0  0  0  0  0  0  0  0  0  0
   11.1083   -3.8000    0.0000 O   0  0  0  0  0  0  0  0  0  0  0  0
    8.0833   -3.3917    0.0000 C   0  0  0  0  0  0  0  0  0  0  0  0
   -4.7833   -2.4750    0.0000 O   0  0  0  0  0  0  0  0  0  0  0  0
    8.3917   -0.2292    0.0000 C   0  0  0  0  0  0  0  0  0  0  0  0
   -3.1833   -3.3667    0.0000 C   0  0  0  0  0  0  0  0  0  0  0  0
   11.1542   -0.2042    0.0000 N   0  0  0  0  0  0  0  0  0  0  0  0
   12.3333   -3.8125    0.0000 N   0  0  0  0  0  0  0  0  0  0  0  0
   11.7667    0.8583    0.0000 N   0  0  0  0  0  0  0  0  0  0  0  0
   11.3750   -1.6542    0.0000 C   0  0  0  0  0  0  0  0  0  0  0  0
   -3.8917   -3.3667    0.0000 C   0  0  0  0  0  0  0  0  0  0  0  0
    5.0167   -3.7375    0.0000 C   0  0  0  0  0  0  0  0  0  0  0  0
    6.2417   -4.4458    0.0000 C   0  0  0  0  0  0  0  0  0  0  0  0
    2.5583   -1.6167    0.0000 C   0  0  0  0  0  0  0  0  0  0  0  0
    8.3833    0.4792    0.0000 C   0  0  0  0  0  0  0  0  0  0  0  0
    5.6292   -3.3833    0.0000 C   0  0  0  0  0  0  0  0  0  0  0  0
    5.0167   -4.4458    0.0000 C   0  0  0  0  0  0  0  0  0  0  0  0
    5.6292   -4.8000    0.0000 C   0  0  0  0  0  0  0  0  0  0  0  0
    6.2417   -3.7375    0.0000 C   0  0  0  0  0  0  0  0  0  0  0  0
   12.3042   -2.3292    0.0000 C   0  0  0  0  0  0  0  0  0  0  0  0
    6.8583   -4.8000    0.0000 O   0  0  0  0  0  0  0  0  0  0  0  0
    3.1750   -1.2625    0.0000 O   0  0  0  0  0  0  0  0  0  0  0  0
   12.0833   -1.6542    0.0000 C   0  0  0  0  0  0  0  0  0  0  0  0
    9.9250   -1.6208    0.0000 C   0  0  0  0  0  0  0  0  0  0  0  0
    1.2208   -5.0292    0.0000 C   0  0  0  0  0  0  0  0  0  0  0  0
    8.7000   -3.7417    0.0000 C   0  0  0  0  0  0  0  0  0  0  0  0
    2.6417   -5.0000    0.0000 C   0  0  0  0  0  0  0  0  0  0  0  0
   12.9458   -3.4583    0.0000 C   0  0  0  0  0  0  0  0  0  0  0  0
   10.5417   -0.5583    0.0000 C   0  0  0  0  0  0  0  0  0  0  0  0
    8.9958    0.8417    0.0000 C   0  0  0  0  0  0  0  0  0  0  0  0
    7.7667    0.8250    0.0000 C   0  0  0  0  0  0  0  0  0  0  0  0
   10.5417   -1.2667    0.0000 C   0  0  0  0  0  0  0  0  0  0  0  0
    9.3125   -3.3917    0.0000 C   0  0  0  0  0  0  0  0  0  0  0  0
    8.7000   -4.4542    0.0000 C   0  0  0  0  0  0  0  0  0  0  0  0
   13.5625   -3.8125    0.0000 C   0  0  0  0  0  0  0  0  0  0  0  0
    1.5875   -5.6333    0.0000 C   0  0  0  0  0  0  0  0  0  0  0  0
    2.3000   -5.6208    0.0000 C   0  0  0  0  0  0  0  0  0  0  0  0
    7.7542    1.5292    0.0000 C   0  0  0  0  0  0  0  0  0  0  0  0
    8.9833    1.5500    0.0000 C   0  0  0  0  0  0  0  0  0  0  0  0
    8.3667    1.8958    0.0000 C   0  0  0  0  0  0  0  0  0  0  0  0
   12.3417   -3.1000    0.0000 H   0  0  0  0  0  0  0  0  0  0  0  0
   -2.3500   -3.0417    0.0000 H   0  0  0  0  0  0  0  0  0  0  0  0
  2  1  2  0
  3  1  1  0
  4  1  1  0
  6  5  1  0
  7 44  1  0
  8 23  1  0
  9 21  1  0
 10 18  1  0
 11 25  1  0
 12 27  1  0
 13 24  1  0
 14 28  1  0
 15 26  1  0
 16 39  1  0
 17 42  1  0
 18 20  1  0
 19  5  1  0
 20  8  1  0
 21 45  1  0
 22 29  1  0
 23 34  1  0
 24 30  1  0
 25 32  1  0
 26 31  1  0
 27 35  1  0
 28 37  1  0
 29  7  2  0
 30 12  1  0
 31 11  1  0
 32 10  1  0
 33  9  2  0
 34 13  1  0
 35 14  1  0
 36 19  1  0
 37  6  1  0
 38 52  1  0
 39 15  1  0
 40 67  1  0
 41 16  1  0
 42 21  2  0
 43  7  1  0
 32 44  1  6
 30 45  1  6
 46 47  1  0
 31 47  1  1
 48 46  1  0
 49 48  1  0
 50 43  2  0
 51 40  2  0
 52 46  2  0
 53  6  2  0
 54  8  2  0
 55 11  2  0
 56 13  2  0
 57 12  2  0
 58 14  2  0
 59 10  2  0
 60 15  2  0
 34 61  1  6
 62 36  2  0
 35 63  1  6
 64 41  2  0
 65 17  1  0
 66 39  1  0
 67 89  1  0
 68 36  1  0
 69 40  1  0
 70  5  1  0
 71 66  1  0
 72 61  1  0
 73 79  2  0
 20 74  1  1
 75 65  1  0
 76 72  2  0
 77 72  1  0
 78 77  2  0
 79 76  1  0
 80 19  1  0
 81 73  1  0
 82 74  1  0
 83 70  1  0
 37 84  1  1
 85 43  1  0
 86 63  1  0
 87 50  1  0
 88 68  1  0
 89 92  1  0
 90 75  2  0
 91 75  1  0
 92 84  1  0
 93 86  1  0
 94 86  1  0
 95 88  1  0
 96 85  2  0
 97 96  1  0
 98 91  2  0
 99 90  1  0
100 98  1  0
 19101  1  6
 39102  1  1
 80 83  1  0
 33 17  1  0
 73 78  1  0
100 99  2  0
 22 50  1  0
 87 97  2  0
 49 38  2  0
 71 41  1  0
M  END
> <chembl_id>
CHEMBL1200509

> <chembl_pref_name>
HISTRELIN ACETATE
