
     RDKit          2D

 14 15  0  0  0  0  0  0  0  0999 V2000
    6.2375   -6.3500    0.0000 N   0  0  0  0  0  0  0  0  0  0  0  0
    5.6667   -5.9167    0.0000 C   0  0  0  0  0  0  0  0  0  0  0  0
    6.0000   -7.0125    0.0000 C   0  0  0  0  0  0  0  0  0  0  0  0
    5.0667   -6.3500    0.0000 C   0  0  0  0  0  0  0  0  0  0  0  0
    5.3000   -7.0125    0.0000 C   0  0  0  0  0  0  0  0  0  0  0  0
    5.6667   -5.2125    0.0000 O   0  0  0  0  0  0  0  0  0  0  0  0
    6.4042   -7.5875    0.0000 O   0  0  0  0  0  0  0  0  0  0  0  0
    4.4542   -5.9750    0.0000 C   0  0  0  0  0  0  0  0  0  0  0  0
    6.9167   -6.1542    0.0000 C   0  0  0  0  0  0  0  0  0  0  0  0
    3.8542   -6.3292    0.0000 C   0  0  0  0  0  0  0  0  0  0  0  0
    4.4542   -5.2667    0.0000 C   0  0  0  0  0  0  0  0  0  0  0  0
    3.8542   -4.9042    0.0000 C   0  0  0  0  0  0  0  0  0  0  0  0
    3.2292   -5.9750    0.0000 C   0  0  0  0  0  0  0  0  0  0  0  0
    3.2292   -5.2667    0.0000 C   0  0  0  0  0  0  0  0  0  0  0  0
  2  1  1  0
  3  1  1  0
  4  2  1  0
  5  3  1  0
  6  2  2  0
  7  3  2  0
  8  4  1  0
  9  1  1  0
 10  8  1  0
 11  8  2  0
 12 11  1  0
 13 10  2  0
 14 12  2  0
  5  4  1  0
 14 13  1  0
M  END
> <chembl_id>
CHEMBL797

> <chembl_pref_name>
PHENSUXIMIDE
