
     RDKit          2D

102107  0  0  1  0  0  0  0  0999 V2000
   10.9292   -5.0000    0.0000 N   0  0  0  0  0  0  0  0  0  0  0  0
   10.2250   -4.6875    0.0000 C   0  0  0  0  0  0  0  0  0  0  0  0
   12.2000   -4.7208    0.0000 C   0  0  0  0  0  0  0  0  0  0  0  0
    2.5333   -4.7208    0.0000 C   0  0  0  0  0  0  0  0  0  0  0  0
   11.5375   -5.0000    0.0000 C   0  0  0  0  0  0  0  0  0  0  0  0
    0.6792   -5.0417    0.0000 C   0  0  0  0  0  0  0  0  0  0  0  0
    8.2667   -5.0000    0.0000 C   0  0  0  0  0  0  0  0  0  0  0  0
   -1.2458   -4.7208    0.0000 C   0  0  0  0  0  0  0  0  0  0  0  0
    4.4292   -5.0417    0.0000 C   0  0  0  0  0  0  0  0  0  0  0  0
   -3.1125   -5.0417    0.0000 C   0  0  0  0  0  0  0  0  0  0  0  0
    6.2875   -4.6292    0.0000 C   0  0  0  0  0  0  0  0  0  0  0  0
    1.2667   -4.7208    0.0000 N   0  0  0  0  0  0  0  0  0  0  0  0
    1.9292   -5.0417    0.0000 C   0  0  0  0  0  0  0  0  0  0  0  0
    3.1583   -5.0417    0.0000 N   0  0  0  0  0  0  0  0  0  0  0  0
   -2.4875   -4.7208    0.0000 N   0  0  0  0  0  0  0  0  0  0  0  0
   -0.6125   -5.0417    0.0000 N   0  0  0  0  0  0  0  0  0  0  0  0
    6.9833   -5.0000    0.0000 N   0  0  0  0  0  0  0  0  0  0  0  0
    8.9292   -4.6875    0.0000 N   0  0  0  0  0  0  0  0  0  0  0  0
   12.8708   -5.0000    0.0000 N   0  0  0  0  0  0  0  0  0  0  0  0
    4.9833   -4.7208    0.0000 N   0  0  0  0  0  0  0  0  0  0  0  0
   -1.8417   -5.0417    0.0000 C   0  0  0  0  0  0  0  0  0  0  0  0
    3.7875   -4.7208    0.0000 C   0  0  0  0  0  0  0  0  0  0  0  0
    0.0250   -4.7208    0.0000 C   0  0  0  0  0  0  0  0  0  0  0  0
    7.6208   -4.6875    0.0000 C   0  0  0  0  0  0  0  0  0  0  0  0
    9.6417   -5.0000    0.0000 C   0  0  0  0  0  0  0  0  0  0  0  0
   -3.7667   -4.7208    0.0000 C   0  0  0  0  0  0  0  0  0  0  0  0
   11.4958   -6.8542    0.0000 C   0  0  0  0  0  0  0  0  0  0  0  0
    7.3917   -6.8542    0.0000 C   0  0  0  0  0  0  0  0  0  0  0  0
   14.2208   -5.0000    0.0000 C   0  0  0  0  0  0  0  0  0  0  0  0
   -4.4042   -5.0417    0.0000 N   0  0  0  0  0  0  0  0  0  0  0  0
    5.6208   -5.0417    0.0000 C   0  0  0  0  0  0  0  0  0  0  0  0
   -5.0458   -4.6875    0.0000 C   0  0  0  0  0  0  0  0  0  0  0  0
   13.4958   -4.7208    0.0000 C   0  0  0  0  0  0  0  0  0  0  0  0
   11.4958   -6.2833    0.0000 N   0  0  0  0  0  0  0  0  0  0  0  0
   10.2250   -3.9625    0.0000 O   0  0  0  0  0  0  0  0  0  0  0  0
   12.2000   -3.9625    0.0000 O   0  0  0  0  0  0  0  0  0  0  0  0
   -3.7667   -3.4583    0.0000 C   0  0  0  0  0  0  0  0  0  0  0  0
    2.5333   -4.0333    0.0000 O   0  0  0  0  0  0  0  0  0  0  0  0
   -3.1125   -5.7208    0.0000 O   0  0  0  0  0  0  0  0  0  0  0  0
   -1.2458   -4.0000    0.0000 O   0  0  0  0  0  0  0  0  0  0  0  0
    8.2667   -5.7750    0.0000 O   0  0  0  0  0  0  0  0  0  0  0  0
    4.4292   -5.7208    0.0000 O   0  0  0  0  0  0  0  0  0  0  0  0
    0.6792   -5.7625    0.0000 O   0  0  0  0  0  0  0  0  0  0  0  0
    6.2875   -3.8167    0.0000 O   0  0  0  0  0  0  0  0  0  0  0  0
   -1.9750   -3.1292    0.0000 C   0  0  0  0  0  0  0  0  0  0  0  0
   -1.8708   -5.9833    0.0000 C   0  0  0  0  0  0  0  0  0  0  0  0
    3.7875   -3.8667    0.0000 C   0  0  0  0  0  0  0  0  0  0  0  0
   -3.1083   -3.1292    0.0000 C   0  0  0  0  0  0  0  0  0  0  0  0
    0.0250   -3.9083    0.0000 C   0  0  0  0  0  0  0  0  0  0  0  0
   -2.5458   -3.4583    0.0000 C   0  0  0  0  0  0  0  0  0  0  0  0
    7.3917   -6.1875    0.0000 O   0  0  0  0  0  0  0  0  0  0  0  0
   14.2208   -5.8333    0.0000 O   0  0  0  0  0  0  0  0  0  0  0  0
    7.6208   -3.6917    0.0000 C   0  0  0  0  0  0  0  0  0  0  0  0
    1.1917   -2.5750    0.0000 N   0  0  0  0  0  0  0  0  0  0  0  0
   -5.0458   -4.0000    0.0000 O   0  0  0  0  0  0  0  0  0  0  0  0
   10.8500   -7.2625    0.0000 N   0  0  0  0  0  0  0  0  0  0  0  0
    6.7875   -7.2208    0.0000 N   0  0  0  0  0  0  0  0  0  0  0  0
   -1.9750   -2.4792    0.0000 C   0  0  0  0  0  0  0  0  0  0  0  0
   12.0583   -7.2625    0.0000 N   0  0  0  0  0  0  0  0  0  0  0  0
    8.0167   -7.2208    0.0000 N   0  0  0  0  0  0  0  0  0  0  0  0
   -2.5083   -2.1250    0.0000 C   0  0  0  0  0  0  0  0  0  0  0  0
   14.8042   -4.6667    0.0000 N   0  0  0  0  0  0  0  0  0  0  0  0
   10.6833   -5.6083    0.0000 C   0  0  0  0  0  0  0  0  0  0  0  0
    4.3875   -3.4833    0.0000 C   0  0  0  0  0  0  0  0  0  0  0  0
   -1.2458   -6.3333    0.0000 C   0  0  0  0  0  0  0  0  0  0  0  0
   -3.1083   -2.4792    0.0000 C   0  0  0  0  0  0  0  0  0  0  0  0
   -0.1208   -6.9625    0.0000 C   0  0  0  0  0  0  0  0  0  0  0  0
    5.5583   -2.7625    0.0000 C   0  0  0  0  0  0  0  0  0  0  0  0
    0.5917   -3.5625    0.0000 C   0  0  0  0  0  0  0  0  0  0  0  0
    0.4542   -7.2958    0.0000 Cl  0  0  0  0  0  0  0  0  0  0  0  0
    1.9292   -5.7625    0.0000 C   0  0  0  0  0  0  0  0  0  0  0  0
    4.9417   -3.8167    0.0000 C   0  0  0  0  0  0  0  0  0  0  0  0
   -1.2458   -6.9625    0.0000 C   0  0  0  0  0  0  0  0  0  0  0  0
   -0.6417   -6.0000    0.0000 C   0  0  0  0  0  0  0  0  0  0  0  0
    4.3875   -2.7625    0.0000 C   0  0  0  0  0  0  0  0  0  0  0  0
   -0.1208   -6.3333    0.0000 C   0  0  0  0  0  0  0  0  0  0  0  0
   -0.6625   -7.2625    0.0000 C   0  0  0  0  0  0  0  0  0  0  0  0
    5.5583   -3.4833    0.0000 C   0  0  0  0  0  0  0  0  0  0  0  0
    4.9833   -2.4375    0.0000 C   0  0  0  0  0  0  0  0  0  0  0  0
   11.7875   -5.6292    0.0000 C   0  0  0  0  0  0  0  0  0  0  0  0
    6.2250   -2.4375    0.0000 O   0  0  0  0  0  0  0  0  0  0  0  0
    2.5167   -6.0958    0.0000 O   0  0  0  0  0  0  0  0  0  0  0  0
    0.5917   -2.9292    0.0000 C   0  0  0  0  0  0  0  0  0  0  0  0
   11.2333   -6.0000    0.0000 C   0  0  0  0  0  0  0  0  0  0  0  0
    9.6417   -5.8583    0.0000 C   0  0  0  0  0  0  0  0  0  0  0  0
    8.2250   -3.3333    0.0000 C   0  0  0  0  0  0  0  0  0  0  0  0
   -5.6542   -5.0417    0.0000 C   0  0  0  0  0  0  0  0  0  0  0  0
    1.7625   -2.9292    0.0000 C   0  0  0  0  0  0  0  0  0  0  0  0
    5.6208   -5.8167    0.0000 C   0  0  0  0  0  0  0  0  0  0  0  0
   13.4958   -3.9625    0.0000 C   0  0  0  0  0  0  0  0  0  0  0  0
   -1.4083   -3.4417    0.0000 C   0  0  0  0  0  0  0  0  0  0  0  0
    6.2250   -6.8542    0.0000 C   0  0  0  0  0  0  0  0  0  0  0  0
   10.2250   -6.8875    0.0000 C   0  0  0  0  0  0  0  0  0  0  0  0
   -1.4083   -2.1250    0.0000 C   0  0  0  0  0  0  0  0  0  0  0  0
    1.1917   -3.9083    0.0000 C   0  0  0  0  0  0  0  0  0  0  0  0
   10.2250   -6.1667    0.0000 C   0  0  0  0  0  0  0  0  0  0  0  0
    6.2250   -6.0958    0.0000 C   0  0  0  0  0  0  0  0  0  0  0  0
    8.8667   -3.6917    0.0000 C   0  0  0  0  0  0  0  0  0  0  0  0
    8.2250   -2.5750    0.0000 C   0  0  0  0  0  0  0  0  0  0  0  0
    1.7625   -3.5625    0.0000 C   0  0  0  0  0  0  0  0  0  0  0  0
   -0.8000   -3.1292    0.0000 C   0  0  0  0  0  0  0  0  0  0  0  0
   -0.8000   -2.4792    0.0000 C   0  0  0  0  0  0  0  0  0  0  0  0
  2  1  1  0
  5  3  1  6
  4 14  1  0
  5  1  1  0
  6 12  1  0
  7 18  1  0
  8 16  1  0
  9 20  1  0
 10 15  1  0
 11 17  1  0
 12 13  1  0
 13  4  1  0
 14 22  1  0
 15 21  1  0
 16 23  1  0
 17 24  1  0
 18 25  1  0
 19  3  1  0
 20 31  1  0
 21  8  1  0
 22  9  1  0
 23  6  1  0
 24  7  1  0
 25  2  1  0
 26 10  1  0
 27 56  1  0
 28 57  1  0
 29 33  1  0
 30 26  1  0
 31 11  1  0
 32 30  1  0
 33 19  1  0
 34 27  2  0
 35  2  2  0
 36  3  2  0
 26 37  1  6
 38  4  2  0
 39 10  2  0
 40  8  2  0
 41  7  2  0
 42  9  2  0
 43  6  2  0
 44 11  2  0
 45 50  1  0
 21 46  1  1
 22 47  1  1
 48 37  1  0
 23 49  1  6
 50 48  2  0
 51 28  2  0
 52 29  2  0
 24 53  1  1
 54 83  2  0
 55 32  2  0
 56 93  1  0
 57 92  1  0
 58 61  1  0
 59 27  1  0
 60 28  1  0
 61 66  2  0
 62 29  1  0
 63  1  1  0
 64 47  1  0
 65 46  1  0
 66 48  1  0
 67 76  2  0
 68 79  1  0
 69 49  1  0
 70 67  1  0
 13 71  1  6
 72 64  2  0
 73 65  1  0
 74 65  2  0
 75 64  1  0
 76 74  1  0
 77 73  2  0
 78 72  1  0
 79 75  2  0
 80  5  1  0
 81 68  1  0
 82 71  1  0
 83 69  1  0
 84 63  1  0
 25 85  1  6
 86 53  1  0
 87 32  1  0
 88100  2  0
 31 89  1  1
 33 90  1  6
 91 45  1  0
 92 97  1  0
 93 96  1  0
 94 58  1  0
 95 69  2  0
 96 85  1  0
 97 89  1  0
 98 86  1  0
 99 86  1  0
100 95  1  0
101 91  2  0
102 94  2  0
 80 84  1  0
 78 68  2  0
 54 88  1  0
 77 67  1  0
 45 58  2  0
101102  1  0
M  END
> <chembl_id>
CHEMBL1200490

> <chembl_pref_name>
CETRORELIX
