
     RDKit          2D

 19 21  0  0  1  0  0  0  0  0999 V2000
   -0.1125   -5.0208    0.0000 C   0  0  0  0  0  0  0  0  0  0  0  0
   -0.7250   -5.3792    0.0000 C   0  0  0  0  0  0  0  0  0  0  0  0
    0.5042   -5.3792    0.0000 C   0  0  0  0  0  0  0  0  0  0  0  0
   -0.7250   -6.0917    0.0000 C   0  0  0  0  0  0  0  0  0  0  0  0
    0.5083   -6.0958    0.0000 C   0  0  0  0  0  0  0  0  0  0  0  0
   -0.1125   -6.4458    0.0000 C   0  0  0  0  0  0  0  0  0  0  0  0
   -1.3375   -5.0250    0.0000 C   0  0  0  0  0  0  0  0  0  0  0  0
   -1.3375   -6.4458    0.0000 C   0  0  0  0  0  0  0  0  0  0  0  0
    1.1167   -5.0167    0.0000 N   0  0  0  0  0  0  0  0  0  0  0  0
   -1.9500   -5.3792    0.0000 C   0  0  0  0  0  0  0  0  0  0  0  0
   -0.4708   -4.4042    0.0000 C   0  0  0  0  0  0  0  0  0  0  0  0
    0.2375   -4.4042    0.0000 C   0  0  0  0  0  0  0  0  0  0  0  0
   -1.9500   -6.0917    0.0000 C   0  0  0  0  0  0  0  0  0  0  0  0
   -2.5625   -5.0250    0.0000 O   0  0  0  0  0  0  0  0  0  0  0  0
    1.2167   -6.0958    0.0000 C   0  0  0  0  0  0  0  0  0  0  0  0
    1.2167   -4.3833    0.0000 C   0  0  0  0  0  0  0  0  0  0  0  0
    1.7208   -5.5917    0.0000 C   0  0  0  0  0  0  0  0  0  0  0  0
    1.7208   -4.8833    0.0000 C   0  0  0  0  0  0  0  0  0  0  0  0
    0.5000   -6.8000    0.0000 H   0  0  0  0  0  0  0  0  0  0  0  0
  2  1  1  0
  3  1  1  0
  4  2  1  0
  5  3  1  0
  6  5  1  0
  7  2  2  0
  8  4  2  0
  3  9  1  1
 10  7  1  0
  1 11  1  6
 12  1  1  0
 13  8  1  0
 14 10  1  0
 15  5  1  0
 16 12  1  0
 17 18  1  0
 18 16  1  0
  5 19  1  6
  6  4  1  0
 17 15  1  0
 13 10  2  0
M  END
> <chembl_id>
CHEMBL1685

> <chembl_pref_name>
DEZOCINE
