
     RDKit          2D

 32 34  0  0  1  0  0  0  0  0999 V2000
    9.3917   -1.7750    0.0000 C   0  0  0  0  0  0  0  0  0  0  0  0
    8.0542   -4.6125    0.0000 C   0  0  0  0  0  0  0  0  0  0  0  0
    8.6917   -4.9875    0.0000 C   0  0  0  0  0  0  0  0  0  0  0  0
    9.3917   -2.4625    0.0000 C   0  0  0  0  0  0  0  0  0  0  0  0
   10.0542   -1.5500    0.0000 C   0  0  0  0  0  0  0  0  0  0  0  0
    8.0542   -3.9625    0.0000 C   0  0  0  0  0  0  0  0  0  0  0  0
    8.6917   -5.6625    0.0000 C   0  0  0  0  0  0  0  0  0  0  0  0
    8.7792   -2.8250    0.0000 C   0  0  0  0  0  0  0  0  0  0  0  0
    8.7792   -3.5250    0.0000 C   0  0  0  0  0  0  0  0  0  0  0  0
   10.6500   -0.4500    0.0000 C   0  0  0  0  0  0  0  0  0  0  0  0
   11.2625   -0.7875    0.0000 C   0  0  0  0  0  0  0  0  0  0  0  0
   10.0542   -2.6792    0.0000 C   0  0  0  0  0  0  0  0  0  0  0  0
   10.4667   -2.1125    0.0000 C   0  0  0  0  0  0  0  0  0  0  0  0
    8.0750   -6.0375    0.0000 C   0  0  0  0  0  0  0  0  0  0  0  0
    7.4542   -5.0125    0.0000 C   0  0  0  0  0  0  0  0  0  0  0  0
    7.4917   -5.6625    0.0000 C   0  0  0  0  0  0  0  0  0  0  0  0
   10.0667   -0.8542    0.0000 C   0  0  0  0  0  0  0  0  0  0  0  0
    9.2917   -4.6125    0.0000 C   0  0  0  0  0  0  0  0  0  0  0  0
   11.8375   -0.4500    0.0000 C   0  0  0  0  0  0  0  0  0  0  0  0
    8.7792   -1.4125    0.0000 C   0  0  0  0  0  0  0  0  0  0  0  0
    9.3167   -6.0000    0.0000 O   0  0  0  0  0  0  0  0  0  0  0  0
    9.3917   -0.9917    0.0000 C   0  0  0  0  0  0  0  0  0  0  0  0
   12.4583   -0.8000    0.0000 C   0  0  0  0  0  0  0  0  0  0  0  0
    6.8500   -6.0625    0.0000 O   0  0  0  0  0  0  0  0  0  0  0  0
    8.1792   -2.4625    0.0000 C   0  0  0  0  0  0  0  0  0  0  0  0
    8.1792   -1.7750    0.0000 C   0  0  0  0  0  0  0  0  0  0  0  0
    9.4750   -0.5125    0.0000 C   0  0  0  0  0  0  0  0  0  0  0  0
   11.8125    0.2333    0.0000 C   0  0  0  0  0  0  0  0  0  0  0  0
   12.4625   -1.4875    0.0000 C   0  0  0  0  0  0  0  0  0  0  0  0
   13.0958   -0.4708    0.0000 C   0  0  0  0  0  0  0  0  0  0  0  0
    9.3917   -3.2292    0.0000 H   0  0  0  0  0  0  0  0  0  0  0  0
   10.6667   -1.1917    0.0000 H   0  0  0  0  0  0  0  0  0  0  0  0
  2  6  2  0
  3  2  1  0
  4  1  1  0
  5  1  1  0
  6  9  1  0
  7  3  1  0
  8  4  1  0
  9  8  2  0
 10 17  1  0
 11 10  2  0
 12  4  1  0
 13  5  1  0
 14 16  1  0
 15  2  1  0
 16 15  1  0
 17  5  1  0
 18  3  2  0
 19 11  1  0
 20  1  1  0
  7 21  1  1
  1 22  1  1
 23 19  1  0
 16 24  1  6
 25 26  1  0
 26 20  1  0
 17 27  1  6
 19 28  1  6
 29 23  1  0
 30 23  1  0
  4 31  1  6
  5 32  1  6
 12 13  1  0
  8 25  1  0
  7 14  1  0
M  END
> <chembl_id>
CHEMBL1200810

> <chembl_pref_name>
DOXERCALCIFEROL
