
     RDKit          2D

114124  0  0  0  0  0  0  0  0999 V2000
   -3.5070  -20.7070    0.0000 C   0  0  0  0  0  0  0  0  0  0  0  0
   -1.9734  -18.2955    0.0000 C   0  0  0  0  0  0  0  0  0  0  0  0
   -3.9204  -13.6703    0.0000 C   0  0  0  0  0  0  0  0  0  0  0  0
    4.7055  -20.3930    0.0000 C   0  0  0  0  0  0  0  0  0  0  0  0
   -5.3480  -13.6091    0.0000 C   0  0  0  0  0  0  0  0  0  0  0  0
   -6.1149  -14.8148    0.0000 C   0  0  0  0  0  0  0  0  0  0  0  0
    7.0076  -19.4841    0.0000 C   0  0  0  0  0  0  0  0  0  0  0  0
    6.6042  -17.3390    0.0000 C   0  0  0  0  0  0  0  0  0  0  0  0
    4.5447  -16.6158    0.0000 C   0  0  0  0  0  0  0  0  0  0  0  0
   -3.4717  -19.8827    0.0000 C   0  0  0  0  0  0  0  0  0  0  0  0
   -3.4010  -18.2342    0.0000 C   0  0  0  0  0  0  0  0  0  0  0  0
   -2.7049  -18.6770    0.0000 C   0  0  0  0  0  0  0  0  0  0  0  0
   -3.3657  -17.4100    0.0000 C   0  0  0  0  0  0  0  0  0  0  0  0
    1.3462  -19.5337    0.0000 C   0  0  0  0  0  0  0  0  0  0  0  0
    0.5302  -19.4124    0.0000 C   0  0  0  0  0  0  0  0  0  0  0  0
   -4.7226  -15.7003    0.0000 C   0  0  0  0  0  0  0  0  0  0  0  0
   -4.0264  -16.1430    0.0000 C   0  0  0  0  0  0  0  0  0  0  0  0
    2.6827  -18.8366    0.0000 C   0  0  0  0  0  0  0  0  0  0  0  0
    2.1925  -17.5950    0.0000 C   0  0  0  0  0  0  0  0  0  0  0  0
    0.2844  -17.3114    0.0000 C   0  0  0  0  0  0  0  0  0  0  0  0
   -1.2772  -18.7382    0.0000 C   0  0  0  0  0  0  0  0  0  0  0  0
   -1.9380  -17.4712    0.0000 C   0  0  0  0  0  0  0  0  0  0  0  0
   -3.9557  -14.4945    0.0000 C   0  0  0  0  0  0  0  0  0  0  0  0
    4.8268  -19.5770    0.0000 C   0  0  0  0  0  0  0  0  0  0  0  0
    1.8593  -18.8876    0.0000 C   0  0  0  0  0  0  0  0  0  0  0  0
   -2.7402  -19.5012    0.0000 C   0  0  0  0  0  0  0  0  0  0  0  0
    2.8887  -18.0378    0.0000 C   0  0  0  0  0  0  0  0  0  0  0  0
    0.2272  -18.6450    0.0000 C   0  0  0  0  0  0  0  0  0  0  0  0
    1.5563  -18.1203    0.0000 C   0  0  0  0  0  0  0  0  0  0  0  0
    0.7403  -17.9990    0.0000 C   0  0  0  0  0  0  0  0  0  0  0  0
   -0.5457  -18.3567    0.0000 C   0  0  0  0  0  0  0  0  0  0  0  0
   -0.5104  -17.5325    0.0000 C   0  0  0  0  0  0  0  0  0  0  0  0
   -4.6872  -14.8760    0.0000 C   0  0  0  0  0  0  0  0  0  0  0  0
   -2.6342  -17.0285    0.0000 C   0  0  0  0  0  0  0  0  0  0  0  0
   -1.3126  -19.5624    0.0000 C   0  0  0  0  0  0  0  0  0  0  0  0
   -3.2950  -15.7615    0.0000 C   0  0  0  0  0  0  0  0  0  0  0  0
   -1.2065  -17.0897    0.0000 C   0  0  0  0  0  0  0  0  0  0  0  0
    5.5942  -19.2740    0.0000 C   0  0  0  0  0  0  0  0  0  0  0  0
    5.7155  -18.4580    0.0000 C   0  0  0  0  0  0  0  0  0  0  0  0
    5.0694  -17.9449    0.0000 C   0  0  0  0  0  0  0  0  0  0  0  0
    4.3021  -18.2479    0.0000 C   0  0  0  0  0  0  0  0  0  0  0  0
   -5.3834  -14.4333    0.0000 N   0  0  0  0  0  0  0  0  0  0  0  0
   -0.6164  -20.0052    0.0000 O   0  0  0  0  0  0  0  0  0  0  0  0
   -1.1712  -16.2655    0.0000 O   0  0  0  0  0  0  0  0  0  0  0  0
    6.2402  -19.7871    0.0000 O   0  0  0  0  0  0  0  0  0  0  0  0
    6.4828  -18.1550    0.0000 O   0  0  0  0  0  0  0  0  0  0  0  0
    5.1908  -17.1289    0.0000 O   0  0  0  0  0  0  0  0  0  0  0  0
   -3.2596  -14.9373    0.0000 O   0  0  0  0  0  0  0  0  0  0  0  0
    4.1808  -19.0639    0.0000 O   0  0  0  0  0  0  0  0  0  0  0  0
   -2.0441  -19.9440    0.0000 O   0  0  0  0  0  0  0  0  0  0  0  0
    3.6560  -17.7348    0.0000 O   0  0  0  0  0  0  0  0  0  0  0  0
   -2.5988  -16.2043    0.0000 O   0  0  0  0  0  0  0  0  0  0  0  0
    2.2408  -19.6191    0.0000 H   0  0  0  0  0  0  0  0  0  0  0  0
   -0.1143  -19.3960    0.0000 H   0  0  0  0  0  0  0  0  0  0  0  0
    1.0767  -17.4490    0.0000 H   0  0  0  0  0  0  0  0  0  0  0  0
    0.9183  -17.1934    0.0000 H   0  0  0  0  0  0  0  0  0  0  0  0
   -3.3434  -11.6984    0.0000 C   0  0  0  0  0  0  0  0  0  0  0  0
    1.8128  -11.2925    0.0000 C   0  0  0  0  0  0  0  0  0  0  0  0
   -1.8097   -9.2869    0.0000 C   0  0  0  0  0  0  0  0  0  0  0  0
   -3.7567   -4.6617    0.0000 C   0  0  0  0  0  0  0  0  0  0  0  0
    4.8692  -11.3844    0.0000 C   0  0  0  0  0  0  0  0  0  0  0  0
   -5.1844   -4.6005    0.0000 C   0  0  0  0  0  0  0  0  0  0  0  0
   -5.9512   -5.8062    0.0000 C   0  0  0  0  0  0  0  0  0  0  0  0
    7.1712  -10.4755    0.0000 C   0  0  0  0  0  0  0  0  0  0  0  0
    6.7678   -8.3304    0.0000 C   0  0  0  0  0  0  0  0  0  0  0  0
    4.7084   -7.6072    0.0000 C   0  0  0  0  0  0  0  0  0  0  0  0
   -3.3080  -10.8741    0.0000 C   0  0  0  0  0  0  0  0  0  0  0  0
   -3.2373   -9.2256    0.0000 C   0  0  0  0  0  0  0  0  0  0  0  0
   -2.5412   -9.6684    0.0000 C   0  0  0  0  0  0  0  0  0  0  0  0
   -3.2020   -8.4014    0.0000 C   0  0  0  0  0  0  0  0  0  0  0  0
   -4.5589   -6.6917    0.0000 C   0  0  0  0  0  0  0  0  0  0  0  0
   -3.8628   -7.1344    0.0000 C   0  0  0  0  0  0  0  0  0  0  0  0
    0.6939  -10.4038    0.0000 C   0  0  0  0  0  0  0  0  0  0  0  0
    2.8464   -9.8280    0.0000 C   0  0  0  0  0  0  0  0  0  0  0  0
    2.3562   -8.5864    0.0000 C   0  0  0  0  0  0  0  0  0  0  0  0
    0.4481   -8.3028    0.0000 C   0  0  0  0  0  0  0  0  0  0  0  0
   -1.1136   -9.7296    0.0000 C   0  0  0  0  0  0  0  0  0  0  0  0
    1.5099  -10.5251    0.0000 C   0  0  0  0  0  0  0  0  0  0  0  0
   -1.7744   -8.4626    0.0000 C   0  0  0  0  0  0  0  0  0  0  0  0
   -3.7921   -5.4859    0.0000 C   0  0  0  0  0  0  0  0  0  0  0  0
    4.9905  -10.5684    0.0000 C   0  0  0  0  0  0  0  0  0  0  0  0
   -2.5765  -10.4926    0.0000 C   0  0  0  0  0  0  0  0  0  0  0  0
    3.0523   -9.0292    0.0000 C   0  0  0  0  0  0  0  0  0  0  0  0
    2.0230   -9.8790    0.0000 C   0  0  0  0  0  0  0  0  0  0  0  0
    0.3909   -9.6364    0.0000 C   0  0  0  0  0  0  0  0  0  0  0  0
    1.7200   -9.1117    0.0000 C   0  0  0  0  0  0  0  0  0  0  0  0
    0.9040   -8.9904    0.0000 C   0  0  0  0  0  0  0  0  0  0  0  0
   -0.3821   -9.3481    0.0000 C   0  0  0  0  0  0  0  0  0  0  0  0
   -0.3467   -8.5239    0.0000 C   0  0  0  0  0  0  0  0  0  0  0  0
   -4.5236   -5.8675    0.0000 C   0  0  0  0  0  0  0  0  0  0  0  0
   -2.4705   -8.0199    0.0000 C   0  0  0  0  0  0  0  0  0  0  0  0
   -1.1489  -10.5539    0.0000 C   0  0  0  0  0  0  0  0  0  0  0  0
   -3.1313   -6.7529    0.0000 C   0  0  0  0  0  0  0  0  0  0  0  0
   -1.0429   -8.0811    0.0000 C   0  0  0  0  0  0  0  0  0  0  0  0
    5.7578  -10.2654    0.0000 C   0  0  0  0  0  0  0  0  0  0  0  0
    5.8792   -9.4494    0.0000 C   0  0  0  0  0  0  0  0  0  0  0  0
    5.2331   -8.9363    0.0000 C   0  0  0  0  0  0  0  0  0  0  0  0
    4.4657   -9.2393    0.0000 C   0  0  0  0  0  0  0  0  0  0  0  0
   -5.2197   -5.4247    0.0000 N   0  0  0  0  0  0  0  0  0  0  0  0
   -0.4528  -10.9966    0.0000 O   0  0  0  0  0  0  0  0  0  0  0  0
   -1.0075   -7.2569    0.0000 O   0  0  0  0  0  0  0  0  0  0  0  0
    6.4039  -10.7785    0.0000 O   0  0  0  0  0  0  0  0  0  0  0  0
    6.6465   -9.1464    0.0000 O   0  0  0  0  0  0  0  0  0  0  0  0
    5.3544   -8.1203    0.0000 O   0  0  0  0  0  0  0  0  0  0  0  0
   -3.0959   -5.9287    0.0000 O   0  0  0  0  0  0  0  0  0  0  0  0
    4.3444  -10.0553    0.0000 O   0  0  0  0  0  0  0  0  0  0  0  0
   -1.8804  -10.9354    0.0000 O   0  0  0  0  0  0  0  0  0  0  0  0
    3.8197   -8.7262    0.0000 O   0  0  0  0  0  0  0  0  0  0  0  0
   -2.4351   -7.1957    0.0000 O   0  0  0  0  0  0  0  0  0  0  0  0
    2.4045  -10.6105    0.0000 H   0  0  0  0  0  0  0  0  0  0  0  0
    0.0494  -10.3874    0.0000 H   0  0  0  0  0  0  0  0  0  0  0  0
    1.2404   -8.4404    0.0000 H   0  0  0  0  0  0  0  0  0  0  0  0
    1.0819   -8.1848    0.0000 H   0  0  0  0  0  0  0  0  0  0  0  0
   -0.6158  -10.1393    0.0000 H   0  0  0  0  0  0  0  0  0  0  0  0
 10  1  1  0
 12 11  1  0
 13 11  1  0
 15 14  2  0
 17 16  1  0
 22  2  1  6
 23  3  1  1
 24  4  1  6
 25 14  1  0
 25 18  1  0
 26 10  1  1
 26 12  1  0
 27 18  1  0
 27 19  1  0
 28 15  1  0
 29 19  1  0
 29 25  1  0
 30 20  1  0
 30 28  1  0
 30 29  1  0
 31 21  1  0
 31 28  1  0
 32 20  2  0
 32 31  1  0
 33 16  1  0
 33 23  1  0
 34 13  1  0
 34 22  1  0
 35 21  1  0
 36 17  1  0
 37 22  1  0
 37 32  1  0
 38 24  1  0
 39 38  1  0
 40 39  1  0
 41 40  1  0
 42  5  1  0
 42  6  1  0
 33 42  1  6
 43 35  2  0
 44 37  2  0
 45  7  1  0
 38 45  1  1
 46  8  1  0
 39 46  1  6
 47  9  1  0
 40 47  1  6
 48 23  1  0
 48 36  1  0
 49 24  1  0
 49 41  1  0
 50 26  1  0
 50 35  1  0
 27 51  1  6
 41 51  1  1
 34 52  1  6
 36 52  1  1
 25 53  1  6
 28 54  1  6
 29 55  1  1
 30 56  1  6
 67 57  1  0
 69 68  1  0
 70 68  1  0
 72 71  1  0
 78 58  1  0
 78 73  2  0
 79 59  1  6
 80 60  1  1
 81 61  1  6
 82 67  1  1
 82 69  1  0
 83 74  1  0
 83 75  1  0
 84 74  1  0
 84 78  1  0
 85 73  1  0
 86 75  1  0
 86 84  1  0
 87 76  1  0
 87 85  1  0
 87 86  1  0
 88 77  1  0
 88 85  1  0
 89 76  2  0
 89 88  1  0
 90 71  1  0
 90 80  1  0
 91 70  1  0
 91 79  1  0
 92 77  1  0
 93 72  1  0
 94 79  1  0
 94 89  1  0
 95 81  1  0
 96 95  1  0
 97 96  1  0
 98 97  1  0
 99 62  1  0
 99 63  1  0
 90 99  1  6
100 92  2  0
101 94  2  0
102 64  1  0
 95102  1  1
103 65  1  0
 96103  1  6
104 66  1  0
 97104  1  6
105 80  1  0
105 93  1  0
106 81  1  0
106 98  1  0
107 82  1  0
107 92  1  0
 83108  1  6
 98108  1  1
 91109  1  6
 93109  1  1
 84110  1  6
 85111  1  6
 86112  1  1
 87113  1  6
 88114  1  1
M  END
> <chembl_id>
CHEMBL4297065

> <chembl_pref_name>
SPINOSAD
