
     RDKit          2D

 33 34  0  0  0  0  0  0  0  0999 V2000
    5.3042   -4.4375    0.0000 Cl  0  0  0  0  0  0  0  0  0  0  0  0
    2.6667   -2.6292    0.0000 N   0  0  0  0  0  0  0  0  0  0  0  0
    2.6667   -1.9292    0.0000 C   0  0  0  0  0  0  0  0  0  0  0  0
    3.2417   -2.9500    0.0000 C   0  0  0  0  0  0  0  0  0  0  0  0
    2.0542   -3.0000    0.0000 C   0  0  0  0  0  0  0  0  0  0  0  0
    3.2417   -3.7000    0.0000 C   0  0  0  0  0  0  0  0  0  0  0  0
    1.4000   -1.9292    0.0000 N   0  0  0  0  0  0  0  0  0  0  0  0
    3.8667   -2.6125    0.0000 C   0  0  0  0  0  0  0  0  0  0  0  0
    2.0542   -1.5625    0.0000 C   0  0  0  0  0  0  0  0  0  0  0  0
    0.7292   -0.8667    0.0000 C   0  0  0  0  0  0  0  0  0  0  0  0
    2.0542   -3.7000    0.0000 C   0  0  0  0  0  0  0  0  0  0  0  0
    2.6667   -4.0167    0.0000 C   0  0  0  0  0  0  0  0  0  0  0  0
    0.7292   -1.5750    0.0000 C   0  0  0  0  0  0  0  0  0  0  0  0
    3.3125   -1.5750    0.0000 O   0  0  0  0  0  0  0  0  0  0  0  0
    3.8667   -1.9000    0.0000 O   0  0  0  0  0  0  0  0  0  0  0  0
    1.3250   -0.4750    0.0000 O   0  0  0  0  0  0  0  0  0  0  0  0
    0.1292   -1.9542    0.0000 C   0  0  0  0  0  0  0  0  0  0  0  0
    4.4917   -2.9125    0.0000 O   0  0  0  0  0  0  0  0  0  0  0  0
    0.1292   -0.5042    0.0000 O   0  0  0  0  0  0  0  0  0  0  0  0
   -0.4708   -1.6250    0.0000 C   0  0  0  0  0  0  0  0  0  0  0  0
   -1.0875   -1.9875    0.0000 C   0  0  0  0  0  0  0  0  0  0  0  0
    2.0667   -0.8542    0.0000 C   0  0  0  0  0  0  0  0  0  0  0  0
    2.6667   -4.7667    0.0000 C   0  0  0  0  0  0  0  0  0  0  0  0
    1.4667   -4.0792    0.0000 C   0  0  0  0  0  0  0  0  0  0  0  0
   -0.4875   -0.8667    0.0000 C   0  0  0  0  0  0  0  0  0  0  0  0
   -1.0875   -2.6667    0.0000 C   0  0  0  0  0  0  0  0  0  0  0  0
   -1.6958   -1.6250    0.0000 C   0  0  0  0  0  0  0  0  0  0  0  0
   -1.1083   -0.5250    0.0000 C   0  0  0  0  0  0  0  0  0  0  0  0
    1.4667   -4.7667    0.0000 C   0  0  0  0  0  0  0  0  0  0  0  0
    2.1000   -5.1042    0.0000 C   0  0  0  0  0  0  0  0  0  0  0  0
   -1.6958   -3.0292    0.0000 C   0  0  0  0  0  0  0  0  0  0  0  0
   -2.3250   -1.9875    0.0000 C   0  0  0  0  0  0  0  0  0  0  0  0
   -2.3250   -2.6667    0.0000 C   0  0  0  0  0  0  0  0  0  0  0  0
  3  2  1  0
  4  2  1  0
  5  2  1  0
  6  4  1  0
  7  9  1  0
  4  8  1  6
  9  3  1  0
 13 10  1  1
 11  5  1  0
 12 11  1  0
 13  7  1  0
 14  3  2  0
 15  8  2  0
 16 10  2  0
 17 13  1  0
 18  8  1  0
 19 10  1  0
 20 17  1  0
 21 20  1  0
  9 22  1  1
 23 12  2  0
 24 11  2  0
 25 19  1  0
 26 21  2  0
 27 21  1  0
 28 25  1  0
 29 24  1  0
 30 29  2  0
 31 26  1  0
 32 27  2  0
 33 31  2  0
 12  6  1  0
 30 23  1  0
 33 32  1  0
M  END
> <chembl_id>
CHEMBL1201011

> <chembl_pref_name>
QUINAPRIL HYDROCHLORIDE
