
     RDKit          2D

 18 17  0  0  0  0  0  0  0  0999 V2000
    4.3331  -15.5956    0.0000 C   0  0  0  0  0  0  0  0  0  0  0  0
    5.0454  -16.0060    0.0000 C   0  0  0  0  0  0  0  0  0  0  0  0
    5.7618  -15.5956    0.0000 C   0  0  0  0  0  0  0  0  0  0  0  0
    5.7618  -14.7706    0.0000 C   0  0  0  0  0  0  0  0  0  0  0  0
    5.7618  -13.9457    0.0000 C   0  0  0  0  0  0  0  0  0  0  0  0
    5.0454  -13.5311    0.0000 O   0  0  0  0  0  0  0  0  0  0  0  0
    5.0454  -12.7061    0.0000 C   0  0  0  0  0  0  0  0  0  0  0  0
    4.3331  -12.2916    0.0000 N   0  0  0  0  0  0  0  0  0  0  0  0
    4.3331  -11.4666    0.0000 C   0  0  0  0  0  0  0  0  0  0  0  0
    3.6168  -11.0562    0.0000 C   0  0  0  0  0  0  0  0  0  0  0  0
    5.0454  -11.0562    0.0000 C   0  0  0  0  0  0  0  0  0  0  0  0
    5.7618  -12.2916    0.0000 O   0  0  0  0  0  0  0  0  0  0  0  0
    4.9368  -14.7706    0.0000 C   0  0  0  0  0  0  0  0  0  0  0  0
    6.5868  -14.7706    0.0000 C   0  0  0  0  0  0  0  0  0  0  0  0
    6.9972  -14.0543    0.0000 O   0  0  0  0  0  0  0  0  0  0  0  0
    7.8221  -14.0543    0.0000 C   0  0  0  0  0  0  0  0  0  0  0  0
    8.2367  -13.3420    0.0000 N   0  0  0  0  0  0  0  0  0  0  0  0
    8.2367  -14.7706    0.0000 O   0  0  0  0  0  0  0  0  0  0  0  0
  1  2  1  0
  2  3  1  0
  3  4  1  0
  4  5  1  0
  5  6  1  0
  6  7  1  0
  7  8  1  0
  8  9  1  0
  9 10  1  0
  9 11  1  0
  7 12  2  0
  4 13  1  0
  4 14  1  0
 14 15  1  0
 15 16  1  0
 16 17  1  0
 16 18  2  0
M  END
> <chembl_id>
CHEMBL1233

> <chembl_pref_name>
CARISOPRODOL
