
     RDKit          2D

 26 29  0  0  0  0  0  0  0  0999 V2000
    1.7584   -6.4334    0.0000 Cl  0  0  0  0  0  0  0  0  0  0  0  0
    2.0375   -4.4792    0.0000 C   0  0  0  0  0  0  0  0  0  0  0  0
    2.3875   -3.8834    0.0000 C   0  0  0  0  0  0  0  0  0  0  0  0
    2.3750   -5.0709    0.0000 C   0  0  0  0  0  0  0  0  0  0  0  0
    1.6625   -5.4167    0.0000 O   0  0  0  0  0  0  0  0  0  0  0  0
    1.3583   -4.4834    0.0000 C   0  0  0  0  0  0  0  0  0  0  0  0
    2.0458   -3.2959    0.0000 C   0  0  0  0  0  0  0  0  0  0  0  0
    1.0208   -5.0709    0.0000 C   0  0  0  0  0  0  0  0  0  0  0  0
    1.0208   -3.8834    0.0000 C   0  0  0  0  0  0  0  0  0  0  0  0
    2.3875   -2.7042    0.0000 N   0  0  0  0  0  0  0  0  0  0  0  0
    1.3583   -3.2959    0.0000 C   0  0  0  0  0  0  0  0  0  0  0  0
    1.6875   -3.8792    0.0000 C   0  0  0  0  0  0  0  0  0  0  0  0
    3.0708   -3.8917    0.0000 C   0  0  0  0  0  0  0  0  0  0  0  0
    3.0625   -5.0792    0.0000 C   0  0  0  0  0  0  0  0  0  0  0  0
    0.3333   -5.0709    0.0000 C   0  0  0  0  0  0  0  0  0  0  0  0
    0.3333   -3.8834    0.0000 C   0  0  0  0  0  0  0  0  0  0  0  0
    1.7000   -2.7042    0.0000 C   0  0  0  0  0  0  0  0  0  0  0  0
   -0.0125   -4.4834    0.0000 C   0  0  0  0  0  0  0  0  0  0  0  0
    3.4083   -4.4834    0.0000 C   0  0  0  0  0  0  0  0  0  0  0  0
    2.7375   -3.2709    0.0000 O   0  0  0  0  0  0  0  0  0  0  0  0
    3.4000   -5.6792    0.0000 O   0  0  0  0  0  0  0  0  0  0  0  0
    2.9875   -2.3584    0.0000 C   0  0  0  0  0  0  0  0  0  0  0  0
   -0.0183   -5.6858    0.0000 O   0  0  0  0  0  0  0  0  0  0  0  0
   -0.7266   -5.6888    0.0000 C   0  0  0  0  0  0  0  0  0  0  0  0
    1.5458   -2.4298    0.0000 H   0  0  0  0  0  0  0  0  0  0  0  0
    2.5931   -6.0468    0.0000 H   0  0  0  0  0  0  0  0  0  0  0  0
  4  2  1  0
  4  5  1  0
  6  2  1  0
  7  3  1  0
  8  6  1  0
  9  6  2  0
 10 17  1  0
 11  9  1  0
  2 12  1  1
 13  3  1  0
 14  4  1  0
 15  8  2  0
 16  9  1  0
 17 12  1  0
 18 16  2  0
 19 14  1  0
  3 20  1  1
 21 14  2  0
 22 10  1  0
  5  8  1  0
  7 10  1  0
 11  7  1  0
 19 13  1  0
 18 15  1  0
 15 23  1  0
 23 24  1  0
  3  2  1  0
  7 25  1  6
  4 26  1  1
M  END
> <chembl_id>
CHEMBL1200890

> <chembl_pref_name>
OXYCODONE HYDROCHLORIDE
