
     RDKit          2D

 18 18  0  0  0  0  0  0  0  0999 V2000
    6.8042   -5.3958    0.0000 C   0  0  0  0  0  0  0  0  0  0  0  0
    3.1250   -5.4083    0.0000 C   0  0  0  0  0  0  0  0  0  0  0  0
    6.1917   -5.0417    0.0000 C   0  0  0  0  0  0  0  0  0  0  0  0
    2.5125   -5.0542    0.0000 C   0  0  0  0  0  0  0  0  0  0  0  0
    3.1250   -6.1208    0.0000 C   0  0  0  0  0  0  0  0  0  0  0  0
    6.8083   -6.1042    0.0000 O   0  0  0  0  0  0  0  0  0  0  0  0
    1.9000   -5.4125    0.0000 C   0  0  0  0  0  0  0  0  0  0  0  0
    7.4167   -5.0375    0.0000 O   0  0  0  0  0  0  0  0  0  0  0  0
    2.5125   -6.4750    0.0000 C   0  0  0  0  0  0  0  0  0  0  0  0
    1.9000   -6.1208    0.0000 C   0  0  0  0  0  0  0  0  0  0  0  0
    3.7375   -5.0500    0.0000 O   0  0  0  0  0  0  0  0  0  0  0  0
    5.5792   -5.4000    0.0000 C   0  0  0  0  0  0  0  0  0  0  0  0
    6.5417   -4.4250    0.0000 C   0  0  0  0  0  0  0  0  0  0  0  0
    5.8292   -4.4250    0.0000 C   0  0  0  0  0  0  0  0  0  0  0  0
    2.5125   -4.3458    0.0000 C   0  0  0  0  0  0  0  0  0  0  0  0
    4.3500   -5.4042    0.0000 C   0  0  0  0  0  0  0  0  0  0  0  0
    2.5167   -7.1833    0.0000 C   0  0  0  0  0  0  0  0  0  0  0  0
    4.9625   -5.0458    0.0000 C   0  0  0  0  0  0  0  0  0  0  0  0
  2 11  1  0
  3  1  1  0
  4  2  2  0
  5  2  1  0
  6  1  2  0
  7  4  1  0
  8  1  1  0
  9  5  2  0
 10  7  2  0
 11 16  1  0
 12  3  1  0
 13  3  1  0
 14  3  1  0
 15  4  1  0
 16 18  1  0
 17  9  1  0
 18 12  1  0
  9 10  1  0
M  END
> <chembl_id>
CHEMBL457

> <chembl_pref_name>
GEMFIBROZIL
