
     RDKit          2D

 47 50  0  0  0  0  0  0  0  0999 V2000
    2.2750   -5.1542    0.0000 Br  0  0  0  0  0  0  0  0  0  0  0  0
    5.4917   -5.5792    0.0000 C   0  0  0  0  0  0  0  0  0  0  0  0
    3.6917   -6.6292    0.0000 C   0  0  0  0  0  0  0  0  0  0  0  0
    5.5000   -6.2792    0.0000 C   0  0  0  0  0  0  0  0  0  0  0  0
    6.1542   -5.3625    0.0000 C   0  0  0  0  0  0  0  0  0  0  0  0
    6.5667   -5.9292    0.0000 C   0  0  0  0  0  0  0  0  0  0  0  0
    4.2917   -6.2792    0.0000 C   0  0  0  0  0  0  0  0  0  0  0  0
    4.9000   -6.6292    0.0000 C   0  0  0  0  0  0  0  0  0  0  0  0
    7.2625   -5.9292    0.0000 N   0  0  0  0  0  0  0  0  0  0  0  0
    1.8667   -6.2875    0.0000 N   0  0  0  0  0  0  0  0  0  0  0  0
    2.4792   -6.6292    0.0000 C   0  0  0  0  0  0  0  0  0  0  0  0
    2.4917   -7.3375    0.0000 C   0  0  0  0  0  0  0  0  0  0  0  0
    3.0917   -6.2792    0.0000 C   0  0  0  0  0  0  0  0  0  0  0  0
    6.1625   -6.4917    0.0000 C   0  0  0  0  0  0  0  0  0  0  0  0
    3.7042   -7.3375    0.0000 C   0  0  0  0  0  0  0  0  0  0  0  0
    4.8875   -5.2250    0.0000 C   0  0  0  0  0  0  0  0  0  0  0  0
    6.1167   -4.6542    0.0000 O   0  0  0  0  0  0  0  0  0  0  0  0
    3.1000   -7.6917    0.0000 C   0  0  0  0  0  0  0  0  0  0  0  0
    4.2917   -5.5792    0.0000 C   0  0  0  0  0  0  0  0  0  0  0  0
    1.8875   -7.6917    0.0000 O   0  0  0  0  0  0  0  0  0  0  0  0
    4.9000   -7.3375    0.0000 C   0  0  0  0  0  0  0  0  0  0  0  0
    6.7042   -4.2667    0.0000 C   0  0  0  0  0  0  0  0  0  0  0  0
    1.8875   -8.3792    0.0000 C   0  0  0  0  0  0  0  0  0  0  0  0
    4.3042   -7.6917    0.0000 C   0  0  0  0  0  0  0  0  0  0  0  0
    1.3042   -8.7667    0.0000 O   0  0  0  0  0  0  0  0  0  0  0  0
    6.6667   -3.5542    0.0000 O   0  0  0  0  0  0  0  0  0  0  0  0
    5.4625   -4.8417    0.0000 C   0  0  0  0  0  0  0  0  0  0  0  0
    3.6667   -5.9042    0.0000 C   0  0  0  0  0  0  0  0  0  0  0  0
    6.9042   -5.3625    0.0000 C   0  0  0  0  0  0  0  0  0  0  0  0
    2.6250   -5.7750    0.0000 C   0  0  0  0  0  0  0  0  0  0  0  0
    7.6042   -6.5292    0.0000 C   0  0  0  0  0  0  0  0  0  0  0  0
    7.6042   -5.3250    0.0000 C   0  0  0  0  0  0  0  0  0  0  0  0
    1.8667   -5.5875    0.0000 C   0  0  0  0  0  0  0  0  0  0  0  0
    1.2542   -6.6417    0.0000 C   0  0  0  0  0  0  0  0  0  0  0  0
    2.4667   -8.7667    0.0000 C   0  0  0  0  0  0  0  0  0  0  0  0
    7.3417   -4.5875    0.0000 C   0  0  0  0  0  0  0  0  0  0  0  0
    1.2542   -5.2250    0.0000 C   0  0  0  0  0  0  0  0  0  0  0  0
    8.3042   -5.3250    0.0000 C   0  0  0  0  0  0  0  0  0  0  0  0
    8.3042   -6.5375    0.0000 C   0  0  0  0  0  0  0  0  0  0  0  0
    0.6417   -6.2875    0.0000 C   0  0  0  0  0  0  0  0  0  0  0  0
    0.6292   -5.5875    0.0000 C   0  0  0  0  0  0  0  0  0  0  0  0
    8.6625   -5.9292    0.0000 C   0  0  0  0  0  0  0  0  0  0  0  0
    4.9292   -5.9792    0.0000 H   0  0  0  0  0  0  0  0  0  0  0  0
    4.3167   -6.9292    0.0000 H   0  0  0  0  0  0  0  0  0  0  0  0
    3.6917   -8.1417    0.0000 H   0  0  0  0  0  0  0  0  0  0  0  0
    5.5417   -6.9875    0.0000 H   0  0  0  0  0  0  0  0  0  0  0  0
    6.9542   -6.9667    0.0000 Br  0  0  0  0  0  0  0  0  0  0  0  0
  3  7  1  0
  4  2  1  0
  5  2  1  0
  6  5  1  0
  7 19  1  0
  8  4  1  0
  6  9  1  1
 11 10  1  1
 11 13  1  0
 12 18  1  0
 13  3  1  0
 14  4  1  0
 15  3  1  0
 16  2  1  0
  5 17  1  1
 18 15  1  0
 19 16  1  0
 12 20  1  6
 21  8  1  0
 22 17  1  0
 23 20  1  0
 24 21  1  0
 25 23  2  0
 26 22  2  0
  2 27  1  1
  3 28  1  1
 29  9  1  0
 30 10  1  0
 31  9  1  0
 32  9  1  0
 33 10  1  0
 34 10  1  0
 35 23  1  0
 36 22  1  0
 37 33  1  0
 38 32  1  0
 39 31  1  0
 40 34  1  0
 41 40  1  0
 42 38  1  0
  8 43  1  1
  7 44  1  6
 15 45  1  6
  4 46  1  6
  6 14  1  0
  7  8  1  0
 15 24  1  0
 42 39  1  0
 12 11  1  0
 41 37  1  0
M  CHG  4   1  -1   9   1  10   1  47  -1
M  END
> <chembl_id>
CHEMBL1200757

> <chembl_pref_name>
PANCURONIUM BROMIDE
