
     RDKit          2D

 42 41  0  0  0  0  0  0  0  0999 V2000
    8.2667   -7.5625    0.0000 Br  0  0  0  0  0  0  0  0  0  0  0  0
   -0.0583   -6.2042    0.0000 C   0  0  0  0  0  0  0  0  0  0  0  0
    5.4667   -5.8250    0.0000 C   0  0  0  0  0  0  0  0  0  0  0  0
   -1.9125   -7.9875    0.0000 N   0  0  0  0  0  0  0  0  0  0  0  0
    8.5417   -6.1750    0.0000 N   0  0  0  0  0  0  0  0  0  0  0  0
    6.0875   -6.1875    0.0000 O   0  0  0  0  0  0  0  0  0  0  0  0
   -0.6833   -5.8500    0.0000 O   0  0  0  0  0  0  0  0  0  0  0  0
    7.9292   -5.8250    0.0000 C   0  0  0  0  0  0  0  0  0  0  0  0
   -1.9125   -7.2792    0.0000 C   0  0  0  0  0  0  0  0  0  0  0  0
   -1.2958   -6.9167    0.0000 C   0  0  0  0  0  0  0  0  0  0  0  0
    7.3042   -6.1750    0.0000 C   0  0  0  0  0  0  0  0  0  0  0  0
    4.8542   -6.1875    0.0000 N   0  0  0  0  0  0  0  0  0  0  0  0
    0.5500   -5.8417    0.0000 N   0  0  0  0  0  0  0  0  0  0  0  0
    5.4667   -5.1167    0.0000 O   0  0  0  0  0  0  0  0  0  0  0  0
   -0.0583   -6.9167    0.0000 O   0  0  0  0  0  0  0  0  0  0  0  0
    6.7000   -5.8250    0.0000 C   0  0  0  0  0  0  0  0  0  0  0  0
   -1.2958   -6.2125    0.0000 C   0  0  0  0  0  0  0  0  0  0  0  0
   -1.5625   -8.6000    0.0000 C   0  0  0  0  0  0  0  0  0  0  0  0
    9.1500   -5.8167    0.0000 C   0  0  0  0  0  0  0  0  0  0  0  0
    8.8917   -6.7875    0.0000 C   0  0  0  0  0  0  0  0  0  0  0  0
    8.1792   -6.7875    0.0000 C   0  0  0  0  0  0  0  0  0  0  0  0
   -2.5208   -8.3500    0.0000 C   0  0  0  0  0  0  0  0  0  0  0  0
   -1.2083   -7.9875    0.0000 C   0  0  0  0  0  0  0  0  0  0  0  0
    7.9167   -5.1125    0.0000 C   0  0  0  0  0  0  0  0  0  0  0  0
   -2.5208   -6.9292    0.0000 C   0  0  0  0  0  0  0  0  0  0  0  0
   -2.5208   -6.2167    0.0000 C   0  0  0  0  0  0  0  0  0  0  0  0
    7.2917   -4.7542    0.0000 C   0  0  0  0  0  0  0  0  0  0  0  0
    1.1542   -6.2000    0.0000 C   0  0  0  0  0  0  0  0  0  0  0  0
    4.8542   -6.8917    0.0000 C   0  0  0  0  0  0  0  0  0  0  0  0
    0.5500   -5.1417    0.0000 C   0  0  0  0  0  0  0  0  0  0  0  0
    4.2417   -5.8292    0.0000 C   0  0  0  0  0  0  0  0  0  0  0  0
   -1.9125   -5.8625    0.0000 C   0  0  0  0  0  0  0  0  0  0  0  0
    6.6875   -5.1167    0.0000 C   0  0  0  0  0  0  0  0  0  0  0  0
    4.2417   -7.2542    0.0000 C   0  0  0  0  0  0  0  0  0  0  0  0
    1.1667   -6.9042    0.0000 C   0  0  0  0  0  0  0  0  0  0  0  0
    3.6292   -8.3250    0.0000 C   0  0  0  0  0  0  0  0  0  0  0  0
    4.2417   -7.9625    0.0000 C   0  0  0  0  0  0  0  0  0  0  0  0
    1.7792   -7.2667    0.0000 C   0  0  0  0  0  0  0  0  0  0  0  0
    1.7875   -7.9750    0.0000 C   0  0  0  0  0  0  0  0  0  0  0  0
    2.4042   -8.3292    0.0000 C   0  0  0  0  0  0  0  0  0  0  0  0
    3.0167   -7.9667    0.0000 C   0  0  0  0  0  0  0  0  0  0  0  0
   -0.5708   -8.2500    0.0000 Br  0  0  0  0  0  0  0  0  0  0  0  0
  3 12  1  0
  4  9  1  0
  5  8  1  0
  6  3  1  0
  7  2  1  0
  8 11  1  0
  9 10  2  0
 10 17  1  0
 11 16  2  0
 12 29  1  0
 13  2  1  0
 14  3  2  0
 15  2  2  0
 16  6  1  0
 17  7  1  0
 18  4  1  0
 19  5  1  0
 20  5  1  0
 21  5  1  0
 22  4  1  0
 23  4  1  0
 24 27  1  0
 25 26  2  0
 26 32  1  0
 27 33  2  0
 28 13  1  0
 29 34  1  0
 30 13  1  0
 31 12  1  0
 32 17  2  0
 33 16  1  0
 34 37  1  0
 35 28  1  0
 36 41  1  0
 37 36  1  0
 38 35  1  0
 39 38  1  0
 40 39  1  0
 41 40  1  0
  9 25  1  0
  8 24  2  0
M  CHG  4   1  -1   4   1   5   1  42  -1
M  END
> <chembl_id>
CHEMBL1200514

> <chembl_pref_name>
DEMECARIUM BROMIDE
