
     RDKit          2D

 34 34  0  0  0  0  0  0  0  0999 V2000
    8.2948  -10.2966    0.0000 O   0  0  0  0  0  0  0  0  0  0  0  0
    9.0116  -11.5345    0.0000 O   0  0  0  0  0  0  0  0  0  0  0  0
   11.8736  -10.7075    0.0000 O   0  0  0  0  0  0  0  0  0  0  0  0
   11.1568   -9.4696    0.0000 O   0  0  0  0  0  0  0  0  0  0  0  0
    9.7282   -9.4697    0.0000 O   0  0  0  0  0  0  0  0  0  0  0  0
   10.4402  -11.5344    0.0000 O   0  0  0  0  0  0  0  0  0  0  0  0
    9.0125  -10.7083    0.0000 C   0  0  0  0  0  0  0  0  0  0  0  0
    9.7270  -10.2958    0.0000 C   0  0  0  0  0  0  0  0  0  0  0  0
   10.4414  -10.7083    0.0000 C   0  0  0  0  0  0  0  0  0  0  0  0
   11.1559  -10.2958    0.0000 C   0  0  0  0  0  0  0  0  0  0  0  0
   17.1591   -9.7303    0.0000 C   0  0  0  0  0  0  0  0  0  0  0  0
   16.4386  -10.1414    0.0000 C   0  0  0  0  0  0  0  0  0  0  0  0
   14.3014   -9.7354    0.0000 N   0  0  0  0  0  0  0  0  0  0  0  0
   15.0122  -10.1560    0.0000 C   0  0  0  0  0  0  0  0  0  0  0  0
   15.7230   -9.7353    0.0000 C   0  0  0  0  0  0  0  0  0  0  0  0
   17.1591   -8.8939    0.0000 C   0  0  0  0  0  0  0  0  0  0  0  0
   17.8602  -10.1413    0.0000 C   0  0  0  0  0  0  0  0  0  0  0  0
   16.4386  -10.9634    0.0000 C   0  0  0  0  0  0  0  0  0  0  0  0
   17.8601   -8.4828    0.0000 C   0  0  0  0  0  0  0  0  0  0  0  0
   13.5906  -10.1416    0.0000 C   0  0  0  0  0  0  0  0  0  0  0  0
   14.3014   -8.9231    0.0000 C   0  0  0  0  0  0  0  0  0  0  0  0
   18.5807   -9.7303    0.0000 C   0  0  0  0  0  0  0  0  0  0  0  0
   18.5806   -8.8938    0.0000 C   0  0  0  0  0  0  0  0  0  0  0  0
   16.4385   -8.4829    0.0000 O   0  0  0  0  0  0  0  0  0  0  0  0
   17.1592  -11.3744    0.0000 C   0  0  0  0  0  0  0  0  0  0  0  0
   15.7231  -11.3745    0.0000 C   0  0  0  0  0  0  0  0  0  0  0  0
   14.9976   -8.5120    0.0000 C   0  0  0  0  0  0  0  0  0  0  0  0
   13.5762  -10.9636    0.0000 C   0  0  0  0  0  0  0  0  0  0  0  0
   12.8798   -9.7306    0.0000 C   0  0  0  0  0  0  0  0  0  0  0  0
   13.5905   -8.5024    0.0000 C   0  0  0  0  0  0  0  0  0  0  0  0
   19.2915  -10.1413    0.0000 C   0  0  0  0  0  0  0  0  0  0  0  0
   15.7232  -12.2013    0.0000 C   0  0  0  0  0  0  0  0  0  0  0  0
   17.1593  -12.2013    0.0000 C   0  0  0  0  0  0  0  0  0  0  0  0
   16.4387  -12.6220    0.0000 C   0  0  0  0  0  0  0  0  0  0  0  0
  7  2  2  0
  8  5  1  0
  9  6  1  0
  7  1  1  0
  9 10  1  0
  8  9  1  0
 10  3  1  0
  7  8  1  0
 10  4  2  0
 20 13  1  0
 21 13  1  0
 22 17  2  0
 23 22  1  0
 24 16  1  0
 25 18  2  0
 26 18  1  0
 27 21  1  0
 28 20  1  0
 29 20  1  0
 30 21  1  0
 31 22  1  0
 32 26  2  0
 33 25  1  0
 34 32  1  0
 19 23  2  0
 33 34  2  0
 12 11  1  0
 13 14  1  0
 14 15  1  0
 15 12  1  0
 16 11  2  0
 17 11  1  0
 12 18  1  1
 19 16  1  0
M  END
> <chembl_id>
CHEMBL1722209

> <chembl_pref_name>
TOLTERODINE TARTRATE
