
     RDKit          2D

 23 24  0  0  1  0  0  0  0  0999 V2000
   -0.6583   -0.1542    0.0000 S   0  0  0  0  0  0  0  0  0  0  0  0
   -0.0333    0.2000    0.0000 C   0  0  0  0  0  0  0  0  0  0  0  0
   -0.0250    0.9083    0.0000 C   0  0  0  0  0  0  0  0  0  0  0  0
    0.6417   -0.0250    0.0000 S   0  0  0  0  0  0  0  0  0  0  0  0
    1.0667    0.5500    0.0000 C   0  0  0  0  0  0  0  0  0  0  0  0
    1.7750    0.5458    0.0000 S   0  0  0  0  0  0  0  0  0  0  0  0
   -1.2708    0.2125    0.0000 N   0  0  0  0  0  0  0  0  0  0  0  0
    0.6542    1.1333    0.0000 C   0  0  0  0  0  0  0  0  0  0  0  0
   -0.6583    1.2750    0.0000 C   0  0  0  0  0  0  0  0  0  0  0  0
   -1.2708    0.9083    0.0000 C   0  0  0  0  0  0  0  0  0  0  0  0
   -1.0208   -0.7667    0.0000 O   0  0  0  0  0  0  0  0  0  0  0  0
   -0.3083   -0.7667    0.0000 O   0  0  0  0  0  0  0  0  0  0  0  0
    1.7792    1.2458    0.0000 O   0  0  0  0  0  0  0  0  0  0  0  0
    2.3833    0.8833    0.0000 O   0  0  0  0  0  0  0  0  0  0  0  0
    2.1167   -0.0708    0.0000 N   0  0  0  0  0  0  0  0  0  0  0  0
   -0.6458    1.9875    0.0000 N   0  0  0  0  0  0  0  0  0  0  0  0
   -1.8958   -0.1417    0.0000 C   0  0  0  0  0  0  0  0  0  0  0  0
   -2.5083    0.2000    0.0000 C   0  0  0  0  0  0  0  0  0  0  0  0
   -3.7458    0.2000    0.0000 O   0  0  0  0  0  0  0  0  0  0  0  0
   -3.1208   -0.1417    0.0000 C   0  0  0  0  0  0  0  0  0  0  0  0
   -0.0250    2.3500    0.0000 C   0  0  0  0  0  0  0  0  0  0  0  0
   -4.3583   -0.1417    0.0000 C   0  0  0  0  0  0  0  0  0  0  0  0
    0.5917    1.9750    0.0000 C   0  0  0  0  0  0  0  0  0  0  0  0
  2  1  1  0
  3  2  2  0
  4  2  1  0
  5  4  1  0
  6  5  1  0
  7  1  1  0
  8  3  1  0
  9  3  1  0
 10  7  1  0
 11  1  2  0
 12  1  2  0
 13  6  2  0
 14  6  2  0
 15  6  1  0
  9 16  1  6
 17  7  1  0
 18 17  1  0
 19 20  1  0
 20 18  1  0
 21 16  1  0
 22 19  1  0
 23 21  1  0
  9 10  1  0
  8  5  2  0
M  END
> <chembl_id>
CHEMBL220491

> <chembl_pref_name>
BRINZOLAMIDE
