
     RDKit          2D

203213  0  0  0  0  0  0  0  0999 V2000
   10.9972   -8.8741    0.0000 S   0  0  0  0  0  0  0  0  0  0  0  0
   10.5242   -8.0965    0.0000 O   0  0  0  0  0  0  0  0  0  0  0  0
   11.4281   -8.1385    0.0000 O   0  0  0  0  0  0  0  0  0  0  0  0
   10.3552   -9.3588    0.0000 O   0  0  0  0  0  0  0  0  0  0  0  0
   11.6928   -9.3593    0.0000 O   0  0  0  0  0  0  0  0  0  0  0  0
   13.6883   -8.5714    0.0000 O   0  0  0  0  0  0  0  0  0  0  0  0
   -9.0033    0.9077    0.0000 C   0  0  0  0  0  0  0  0  0  0  0  0
   -8.5816    0.1986    0.0000 S   0  0  0  0  0  0  0  0  0  0  0  0
   -7.7769    0.3807    0.0000 C   0  0  0  0  0  0  0  0  0  0  0  0
   -7.7014    1.2022    0.0000 C   0  0  0  0  0  0  0  0  0  0  0  0
   -8.4594    1.5279    0.0000 N   0  0  0  0  0  0  0  0  0  0  0  0
   -9.8277    0.9401    0.0000 N   0  0  0  0  0  0  0  0  0  0  0  0
   -6.9924    1.6241    0.0000 C   0  0  0  0  0  0  0  0  0  0  0  0
   -6.2942    2.8708    0.0000 O   0  0  0  0  0  0  0  0  0  0  0  0
   -7.0032    2.4490    0.0000 N   0  0  0  0  0  0  0  0  0  0  0  0
   -6.2986    1.2209    0.0000 C   0  0  0  0  0  0  0  0  0  0  0  0
   -5.5117    1.7466    0.0000 N   0  0  0  0  0  0  0  0  0  0  0  0
   -6.3480    3.6940    0.0000 C   0  0  0  0  0  0  0  0  0  0  0  0
   -6.9883    4.1573    0.0000 C   0  0  0  0  0  0  0  0  0  0  0  0
   -6.4020    4.5172    0.0000 C   0  0  0  0  0  0  0  0  0  0  0  0
   -5.6622    4.1524    0.0000 C   0  0  0  0  0  0  0  0  0  0  0  0
   -4.9041    3.8267    0.0000 O   0  0  0  0  0  0  0  0  0  0  0  0
   -5.7161    4.9756    0.0000 O   0  0  0  0  0  0  0  0  0  0  0  0
   -6.2618    0.3960    0.0000 O   0  0  0  0  0  0  0  0  0  0  0  0
   -4.7443    1.7397    0.0000 C   0  0  0  0  0  0  0  0  0  0  0  0
   -4.7443    2.5647    0.0000 C   0  0  0  0  0  0  0  0  0  0  0  0
   -3.9193    1.7397    0.0000 C   0  0  0  0  0  0  0  0  0  0  0  0
   -5.3855    3.0839    0.0000 O   0  0  0  0  0  0  0  0  0  0  0  0
   -3.9186    0.9428    0.0000 H   0  0  0  0  0  0  0  0  0  0  0  0
   -3.2048    2.9772    0.0000 C   0  0  0  0  0  0  0  0  0  0  0  0
   -3.9193    2.5647    0.0000 N   0  0  0  0  0  0  0  0  0  0  0  0
   -3.2048    1.3271    0.0000 S   0  0  0  0  0  0  0  0  0  0  0  0
   -2.4904    1.7397    0.0000 C   0  0  0  0  0  0  0  0  0  0  0  0
   -2.4904    2.5647    0.0000 C   0  0  0  0  0  0  0  0  0  0  0  0
   -3.1617    3.8011    0.0000 C   0  0  0  0  0  0  0  0  0  0  0  0
   -3.8536    4.2504    0.0000 O   0  0  0  0  0  0  0  0  0  0  0  0
   -2.4266    4.1756    0.0000 O   0  0  0  0  0  0  0  0  0  0  0  0
   -1.7759    2.9772    0.0000 C   0  0  0  0  0  0  0  0  0  0  0  0
   -1.0669    2.5969    0.0000 N   0  0  0  0  0  0  0  0  0  0  0  0
   -1.7564    2.1440    0.0000 C   0  0  0  0  0  0  0  0  0  0  0  0
   -1.5387    1.3483    0.0000 C   0  0  0  0  0  0  0  0  0  0  0  0
   -0.7146    1.3092    0.0000 C   0  0  0  0  0  0  0  0  0  0  0  0
   -0.4230    2.0812    0.0000 C   0  0  0  0  0  0  0  0  0  0  0  0
   -0.3357    2.9791    0.0000 C   0  0  0  0  0  0  0  0  0  0  0  0
    0.3846    2.5266    0.0000 C   0  0  0  0  0  0  0  0  0  0  0  0
    1.0920    2.9192    0.0000 N   0  0  0  0  0  0  0  0  0  0  0  0
    1.7886    2.4772    0.0000 C   0  0  0  0  0  0  0  0  0  0  0  0
    1.7540    1.6530    0.0000 O   0  0  0  0  0  0  0  0  0  0  0  0
    2.5196    2.8595    0.0000 C   0  0  0  0  0  0  0  0  0  0  0  0
    3.2211    4.1044    0.0000 C   0  0  0  0  0  0  0  0  0  0  0  0
    2.5110    3.6844    0.0000 C   0  0  0  0  0  0  0  0  0  0  0  0
    3.2384    2.4545    0.0000 C   0  0  0  0  0  0  0  0  0  0  0  0
    3.9485    2.8744    0.0000 C   0  0  0  0  0  0  0  0  0  0  0  0
    3.9399    3.6994    0.0000 C   0  0  0  0  0  0  0  0  0  0  0  0
    1.8386    4.1623    0.0000 Cl  0  0  0  0  0  0  0  0  0  0  0  0
    3.2126    4.9294    0.0000 O   0  0  0  0  0  0  0  0  0  0  0  0
    4.6500    4.1193    0.0000 O   0  0  0  0  0  0  0  0  0  0  0  0
   -9.0181   -5.0549    0.0000 C   0  0  0  0  0  0  0  0  0  0  0  0
   -8.5963   -5.7638    0.0000 S   0  0  0  0  0  0  0  0  0  0  0  0
   -7.7916   -5.5818    0.0000 C   0  0  0  0  0  0  0  0  0  0  0  0
   -7.7161   -4.7603    0.0000 C   0  0  0  0  0  0  0  0  0  0  0  0
   -8.4741   -4.4347    0.0000 N   0  0  0  0  0  0  0  0  0  0  0  0
   -9.8425   -5.0224    0.0000 N   0  0  0  0  0  0  0  0  0  0  0  0
   -7.0071   -4.3385    0.0000 C   0  0  0  0  0  0  0  0  0  0  0  0
   -6.3089   -3.0918    0.0000 O   0  0  0  0  0  0  0  0  0  0  0  0
   -7.0178   -3.5136    0.0000 N   0  0  0  0  0  0  0  0  0  0  0  0
   -6.3133   -4.7417    0.0000 C   0  0  0  0  0  0  0  0  0  0  0  0
   -5.5264   -4.2160    0.0000 N   0  0  0  0  0  0  0  0  0  0  0  0
   -6.3628   -2.2686    0.0000 C   0  0  0  0  0  0  0  0  0  0  0  0
   -7.0030   -1.8053    0.0000 C   0  0  0  0  0  0  0  0  0  0  0  0
   -6.4166   -1.4454    0.0000 C   0  0  0  0  0  0  0  0  0  0  0  0
   -5.6769   -1.8102    0.0000 C   0  0  0  0  0  0  0  0  0  0  0  0
   -4.9189   -2.1359    0.0000 O   0  0  0  0  0  0  0  0  0  0  0  0
   -5.7308   -0.9870    0.0000 O   0  0  0  0  0  0  0  0  0  0  0  0
   -6.2765   -5.5664    0.0000 O   0  0  0  0  0  0  0  0  0  0  0  0
   -4.7590   -4.2229    0.0000 C   0  0  0  0  0  0  0  0  0  0  0  0
   -4.7590   -3.3979    0.0000 C   0  0  0  0  0  0  0  0  0  0  0  0
   -3.9340   -4.2229    0.0000 C   0  0  0  0  0  0  0  0  0  0  0  0
   -5.4002   -2.8786    0.0000 O   0  0  0  0  0  0  0  0  0  0  0  0
   -3.9333   -5.0198    0.0000 H   0  0  0  0  0  0  0  0  0  0  0  0
   -3.2195   -2.9854    0.0000 C   0  0  0  0  0  0  0  0  0  0  0  0
   -3.9340   -3.3979    0.0000 N   0  0  0  0  0  0  0  0  0  0  0  0
   -3.2195   -4.6355    0.0000 S   0  0  0  0  0  0  0  0  0  0  0  0
   -2.5051   -4.2229    0.0000 C   0  0  0  0  0  0  0  0  0  0  0  0
   -2.5051   -3.3979    0.0000 C   0  0  0  0  0  0  0  0  0  0  0  0
   -3.1764   -2.1615    0.0000 C   0  0  0  0  0  0  0  0  0  0  0  0
   -3.8683   -1.7122    0.0000 O   0  0  0  0  0  0  0  0  0  0  0  0
   -2.4413   -1.7870    0.0000 O   0  0  0  0  0  0  0  0  0  0  0  0
   -1.7906   -2.9854    0.0000 C   0  0  0  0  0  0  0  0  0  0  0  0
   -1.0815   -3.3656    0.0000 N   0  0  0  0  0  0  0  0  0  0  0  0
   -1.7711   -3.8185    0.0000 C   0  0  0  0  0  0  0  0  0  0  0  0
   -1.5532   -4.6143    0.0000 C   0  0  0  0  0  0  0  0  0  0  0  0
   -0.7292   -4.6531    0.0000 C   0  0  0  0  0  0  0  0  0  0  0  0
   -0.4377   -3.8814    0.0000 C   0  0  0  0  0  0  0  0  0  0  0  0
   -0.3504   -2.9834    0.0000 C   0  0  0  0  0  0  0  0  0  0  0  0
    0.3699   -3.4360    0.0000 C   0  0  0  0  0  0  0  0  0  0  0  0
    1.0773   -3.0432    0.0000 N   0  0  0  0  0  0  0  0  0  0  0  0
    1.7738   -3.4853    0.0000 C   0  0  0  0  0  0  0  0  0  0  0  0
    1.7393   -4.3096    0.0000 O   0  0  0  0  0  0  0  0  0  0  0  0
    2.5049   -3.1031    0.0000 C   0  0  0  0  0  0  0  0  0  0  0  0
    3.2064   -1.8582    0.0000 C   0  0  0  0  0  0  0  0  0  0  0  0
    2.4963   -2.2782    0.0000 C   0  0  0  0  0  0  0  0  0  0  0  0
    3.2237   -3.5081    0.0000 C   0  0  0  0  0  0  0  0  0  0  0  0
    3.9338   -3.0881    0.0000 C   0  0  0  0  0  0  0  0  0  0  0  0
    3.9252   -2.2632    0.0000 C   0  0  0  0  0  0  0  0  0  0  0  0
    1.8239   -1.8002    0.0000 Cl  0  0  0  0  0  0  0  0  0  0  0  0
    3.1979   -1.0330    0.0000 O   0  0  0  0  0  0  0  0  0  0  0  0
    4.6353   -1.8432    0.0000 O   0  0  0  0  0  0  0  0  0  0  0  0
   -9.0259  -10.8237    0.0000 C   0  0  0  0  0  0  0  0  0  0  0  0
   -8.6041  -11.5328    0.0000 S   0  0  0  0  0  0  0  0  0  0  0  0
   -7.7994  -11.3507    0.0000 C   0  0  0  0  0  0  0  0  0  0  0  0
   -7.7239  -10.5292    0.0000 C   0  0  0  0  0  0  0  0  0  0  0  0
   -8.4819  -10.2035    0.0000 N   0  0  0  0  0  0  0  0  0  0  0  0
   -9.8501  -10.7913    0.0000 N   0  0  0  0  0  0  0  0  0  0  0  0
   -7.0149  -10.1072    0.0000 C   0  0  0  0  0  0  0  0  0  0  0  0
   -6.3167   -8.8606    0.0000 O   0  0  0  0  0  0  0  0  0  0  0  0
   -7.0257   -9.2824    0.0000 N   0  0  0  0  0  0  0  0  0  0  0  0
   -6.3211  -10.5105    0.0000 C   0  0  0  0  0  0  0  0  0  0  0  0
   -5.5342   -9.9848    0.0000 N   0  0  0  0  0  0  0  0  0  0  0  0
   -6.3705   -8.0374    0.0000 C   0  0  0  0  0  0  0  0  0  0  0  0
   -7.0108   -7.5742    0.0000 C   0  0  0  0  0  0  0  0  0  0  0  0
   -6.4245   -7.2142    0.0000 C   0  0  0  0  0  0  0  0  0  0  0  0
   -5.6847   -7.5790    0.0000 C   0  0  0  0  0  0  0  0  0  0  0  0
   -4.9266   -7.9047    0.0000 O   0  0  0  0  0  0  0  0  0  0  0  0
   -5.7386   -6.7558    0.0000 O   0  0  0  0  0  0  0  0  0  0  0  0
   -6.2843  -11.3354    0.0000 O   0  0  0  0  0  0  0  0  0  0  0  0
   -4.7668   -9.9917    0.0000 C   0  0  0  0  0  0  0  0  0  0  0  0
   -4.7668   -9.1667    0.0000 C   0  0  0  0  0  0  0  0  0  0  0  0
   -3.9418   -9.9917    0.0000 C   0  0  0  0  0  0  0  0  0  0  0  0
   -5.4080   -8.6475    0.0000 O   0  0  0  0  0  0  0  0  0  0  0  0
   -3.9411  -10.7886    0.0000 H   0  0  0  0  0  0  0  0  0  0  0  0
   -3.2274   -8.7542    0.0000 C   0  0  0  0  0  0  0  0  0  0  0  0
   -3.9418   -9.1667    0.0000 N   0  0  0  0  0  0  0  0  0  0  0  0
   -3.2274  -10.4042    0.0000 S   0  0  0  0  0  0  0  0  0  0  0  0
   -2.5129   -9.9917    0.0000 C   0  0  0  0  0  0  0  0  0  0  0  0
   -2.5129   -9.1667    0.0000 C   0  0  0  0  0  0  0  0  0  0  0  0
   -3.1842   -7.9303    0.0000 C   0  0  0  0  0  0  0  0  0  0  0  0
   -3.8761   -7.4810    0.0000 O   0  0  0  0  0  0  0  0  0  0  0  0
   -2.4491   -7.5558    0.0000 O   0  0  0  0  0  0  0  0  0  0  0  0
   -1.7984   -8.7542    0.0000 C   0  0  0  0  0  0  0  0  0  0  0  0
   -1.0894   -9.1344    0.0000 N   0  0  0  0  0  0  0  0  0  0  0  0
   -1.7789   -9.5874    0.0000 C   0  0  0  0  0  0  0  0  0  0  0  0
   -1.5612  -10.3831    0.0000 C   0  0  0  0  0  0  0  0  0  0  0  0
   -0.7371  -10.4220    0.0000 C   0  0  0  0  0  0  0  0  0  0  0  0
   -0.4455   -9.6503    0.0000 C   0  0  0  0  0  0  0  0  0  0  0  0
   -0.3581   -8.7523    0.0000 C   0  0  0  0  0  0  0  0  0  0  0  0
    0.3621   -9.2049    0.0000 C   0  0  0  0  0  0  0  0  0  0  0  0
    1.0693   -8.8121    0.0000 N   0  0  0  0  0  0  0  0  0  0  0  0
    1.7661   -9.2542    0.0000 C   0  0  0  0  0  0  0  0  0  0  0  0
    1.7315  -10.0784    0.0000 O   0  0  0  0  0  0  0  0  0  0  0  0
    2.4971   -8.8719    0.0000 C   0  0  0  0  0  0  0  0  0  0  0  0
    3.1986   -7.6270    0.0000 C   0  0  0  0  0  0  0  0  0  0  0  0
    2.4885   -8.0470    0.0000 C   0  0  0  0  0  0  0  0  0  0  0  0
    3.2158   -9.2769    0.0000 C   0  0  0  0  0  0  0  0  0  0  0  0
    3.9260   -8.8570    0.0000 C   0  0  0  0  0  0  0  0  0  0  0  0
    3.9174   -8.0320    0.0000 C   0  0  0  0  0  0  0  0  0  0  0  0
    1.8161   -7.5691    0.0000 Cl  0  0  0  0  0  0  0  0  0  0  0  0
    3.1901   -6.8020    0.0000 O   0  0  0  0  0  0  0  0  0  0  0  0
    4.6275   -7.6121    0.0000 O   0  0  0  0  0  0  0  0  0  0  0  0
   11.8379    3.4805    0.0000 C   0  0  0  0  0  0  0  0  0  0  0  0
   11.4255    4.1950    0.0000 C   0  0  0  0  0  0  0  0  0  0  0  0
   10.6005    4.1950    0.0000 C   0  0  0  0  0  0  0  0  0  0  0  0
   10.1880    3.4805    0.0000 C   0  0  0  0  0  0  0  0  0  0  0  0
   10.6005    2.7660    0.0000 C   0  0  0  0  0  0  0  0  0  0  0  0
   11.4255    2.7660    0.0000 C   0  0  0  0  0  0  0  0  0  0  0  0
    9.3630    3.4805    0.0000 C   0  0  0  0  0  0  0  0  0  0  0  0
   12.6630    3.4805    0.0000 S   0  0  0  0  0  0  0  0  0  0  0  0
   13.4880    3.4805    0.0000 O   0  0  0  0  0  0  0  0  0  0  0  0
   12.6630    4.3055    0.0000 O   0  0  0  0  0  0  0  0  0  0  0  0
   12.6622    2.6917    0.0000 O   0  0  0  0  0  0  0  0  0  0  0  0
   11.8585    1.1396    0.0000 C   0  0  0  0  0  0  0  0  0  0  0  0
   11.4460    1.8540    0.0000 C   0  0  0  0  0  0  0  0  0  0  0  0
   10.6210    1.8540    0.0000 C   0  0  0  0  0  0  0  0  0  0  0  0
   10.2085    1.1396    0.0000 C   0  0  0  0  0  0  0  0  0  0  0  0
   10.6210    0.4251    0.0000 C   0  0  0  0  0  0  0  0  0  0  0  0
   11.4460    0.4251    0.0000 C   0  0  0  0  0  0  0  0  0  0  0  0
    9.3835    1.1396    0.0000 C   0  0  0  0  0  0  0  0  0  0  0  0
   12.6835    1.1396    0.0000 S   0  0  0  0  0  0  0  0  0  0  0  0
   13.5085    1.1396    0.0000 O   0  0  0  0  0  0  0  0  0  0  0  0
   12.6835    1.9646    0.0000 O   0  0  0  0  0  0  0  0  0  0  0  0
   12.6827    0.3507    0.0000 O   0  0  0  0  0  0  0  0  0  0  0  0
   11.8844   -1.2500    0.0000 C   0  0  0  0  0  0  0  0  0  0  0  0
   11.4720   -0.5356    0.0000 C   0  0  0  0  0  0  0  0  0  0  0  0
   10.6469   -0.5356    0.0000 C   0  0  0  0  0  0  0  0  0  0  0  0
   10.2345   -1.2500    0.0000 C   0  0  0  0  0  0  0  0  0  0  0  0
   10.6469   -1.9645    0.0000 C   0  0  0  0  0  0  0  0  0  0  0  0
   11.4720   -1.9645    0.0000 C   0  0  0  0  0  0  0  0  0  0  0  0
    9.4095   -1.2500    0.0000 C   0  0  0  0  0  0  0  0  0  0  0  0
   12.7095   -1.2500    0.0000 S   0  0  0  0  0  0  0  0  0  0  0  0
   13.5345   -1.2500    0.0000 O   0  0  0  0  0  0  0  0  0  0  0  0
   12.7095   -0.4249    0.0000 O   0  0  0  0  0  0  0  0  0  0  0  0
   12.7087   -2.0389    0.0000 O   0  0  0  0  0  0  0  0  0  0  0  0
   11.9365   -5.1461    0.0000 C   0  0  0  0  0  0  0  0  0  0  0  0
   11.5239   -4.4317    0.0000 C   0  0  0  0  0  0  0  0  0  0  0  0
   10.6989   -4.4317    0.0000 C   0  0  0  0  0  0  0  0  0  0  0  0
   10.2864   -5.1461    0.0000 C   0  0  0  0  0  0  0  0  0  0  0  0
   10.6989   -5.8606    0.0000 C   0  0  0  0  0  0  0  0  0  0  0  0
   11.5239   -5.8606    0.0000 C   0  0  0  0  0  0  0  0  0  0  0  0
    9.4614   -5.1461    0.0000 C   0  0  0  0  0  0  0  0  0  0  0  0
   12.7615   -5.1461    0.0000 S   0  0  0  0  0  0  0  0  0  0  0  0
   13.5865   -5.1461    0.0000 O   0  0  0  0  0  0  0  0  0  0  0  0
   12.7615   -4.3211    0.0000 O   0  0  0  0  0  0  0  0  0  0  0  0
   12.7606   -5.9349    0.0000 O   0  0  0  0  0  0  0  0  0  0  0  0
  1  2  2  0
  1  3  2  0
  1  4  1  0
  1  5  1  0
  7  8  1  0
  8  9  1  0
  9 10  2  0
 10 11  1  0
  7 11  2  0
  7 12  1  0
 10 13  1  0
 14 15  1  0
 16 17  1  0
 15 13  2  0
 13 16  1  0
 14 18  1  0
 18 19  1  0
 18 20  1  0
 18 21  1  0
 21 22  2  0
 21 23  1  0
 16 24  2  0
 25 17  1  6
 25 26  1  0
 27 25  1  0
 26 28  2  0
 27 29  1  1
 30 31  1  0
 32 33  1  0
 33 34  1  0
 30 34  2  0
 31 27  1  0
 27 32  1  0
 26 31  1  0
 30 35  1  0
 35 36  2  0
 35 37  1  0
 34 38  1  0
 38 39  1  0
 40 41  1  0
 41 42  1  0
 42 43  1  0
 39 40  1  0
 39 43  1  0
 39 44  1  0
 44 45  1  0
 45 46  1  0
 46 47  1  0
 47 48  2  0
 47 49  1  0
 50 51  1  0
 52 53  2  0
 53 54  1  0
 50 54  2  0
 51 49  2  0
 49 52  1  0
 51 55  1  0
 50 56  1  0
 54 57  1  0
 58 59  1  0
 59 60  1  0
 60 61  2  0
 61 62  1  0
 58 62  2  0
 58 63  1  0
 61 64  1  0
 65 66  1  0
 67 68  1  0
 66 64  2  0
 64 67  1  0
 65 69  1  0
 69 70  1  0
 69 71  1  0
 69 72  1  0
 72 73  2  0
 72 74  1  0
 67 75  2  0
 76 68  1  6
 76 77  1  0
 78 76  1  0
 77 79  2  0
 78 80  1  1
 81 82  1  0
 83 84  1  0
 84 85  1  0
 81 85  2  0
 82 78  1  0
 78 83  1  0
 77 82  1  0
 81 86  1  0
 86 87  2  0
 86 88  1  0
 85 89  1  0
 89 90  1  0
 91 92  1  0
 92 93  1  0
 93 94  1  0
 90 91  1  0
 90 94  1  0
 90 95  1  0
 95 96  1  0
 96 97  1  0
 97 98  1  0
 98 99  2  0
 98100  1  0
101102  1  0
103104  2  0
104105  1  0
101105  2  0
102100  2  0
100103  1  0
102106  1  0
101107  1  0
105108  1  0
109110  1  0
110111  1  0
111112  2  0
112113  1  0
109113  2  0
109114  1  0
112115  1  0
116117  1  0
118119  1  0
117115  2  0
115118  1  0
116120  1  0
120121  1  0
120122  1  0
120123  1  0
123124  2  0
123125  1  0
118126  2  0
127119  1  6
127128  1  0
129127  1  0
128130  2  0
129131  1  1
132133  1  0
134135  1  0
135136  1  0
132136  2  0
133129  1  0
129134  1  0
128133  1  0
132137  1  0
137138  2  0
137139  1  0
136140  1  0
140141  1  0
142143  1  0
143144  1  0
144145  1  0
141142  1  0
141145  1  0
141146  1  0
146147  1  0
147148  1  0
148149  1  0
149150  2  0
149151  1  0
152153  1  0
154155  2  0
155156  1  0
152156  2  0
153151  2  0
151154  1  0
153157  1  0
152158  1  0
156159  1  0
160161  1  0
161162  2  0
162163  1  0
163164  2  0
164165  1  0
160165  2  0
163166  1  0
160167  1  0
167168  1  0
167169  2  0
167170  2  0
171172  1  0
172173  2  0
173174  1  0
174175  2  0
175176  1  0
171176  2  0
174177  1  0
171178  1  0
178179  1  0
178180  2  0
178181  2  0
182183  1  0
183184  2  0
184185  1  0
185186  2  0
186187  1  0
182187  2  0
185188  1  0
182189  1  0
189190  1  0
189191  2  0
189192  2  0
193194  1  0
194195  2  0
195196  1  0
196197  2  0
197198  1  0
193198  2  0
196199  1  0
193200  1  0
200201  1  0
200202  2  0
200203  2  0
M  CHG  6   4  -1   5  -1  39   1  90   1 141   1 201  -1
M  END
> <chembl_id>
CHEMBL4297211

> <chembl_pref_name>
CEFIDEROCOL SULFATE TOSYLATE
