
     RDKit          2D

 17 18  0  0  0  0  0  0  0  0999 V2000
    4.7417   -5.1292    0.0000 C   0  0  0  0  0  0  0  0  0  0  0  0
    4.7417   -4.4167    0.0000 C   0  0  0  0  0  0  0  0  0  0  0  0
    5.3667   -5.4792    0.0000 C   0  0  0  0  0  0  0  0  0  0  0  0
    4.1292   -4.0667    0.0000 C   0  0  0  0  0  0  0  0  0  0  0  0
    4.1167   -5.4667    0.0000 C   0  0  0  0  0  0  0  0  0  0  0  0
    5.3667   -4.0667    0.0000 C   0  0  0  0  0  0  0  0  0  0  0  0
    7.8292   -6.1917    0.0000 O   0  0  0  0  0  0  0  0  0  0  0  0
    7.8292   -5.4792    0.0000 C   0  0  0  0  0  0  0  0  0  0  0  0
    5.9792   -5.1292    0.0000 C   0  0  0  0  0  0  0  0  0  0  0  0
    3.5042   -4.4042    0.0000 C   0  0  0  0  0  0  0  0  0  0  0  0
    5.9792   -4.4292    0.0000 C   0  0  0  0  0  0  0  0  0  0  0  0
    3.5042   -5.1167    0.0000 C   0  0  0  0  0  0  0  0  0  0  0  0
    7.2167   -5.1292    0.0000 C   0  0  0  0  0  0  0  0  0  0  0  0
    6.6042   -5.4792    0.0000 C   0  0  0  0  0  0  0  0  0  0  0  0
    2.9042   -4.0417    0.0000 O   0  0  0  0  0  0  0  0  0  0  0  0
    8.4417   -5.1292    0.0000 C   0  0  0  0  0  0  0  0  0  0  0  0
    2.2750   -4.3708    0.0000 C   0  0  0  0  0  0  0  0  0  0  0  0
  2  1  1  0
  3  1  2  0
  4  2  1  0
  5  1  1  0
  6  2  2  0
  7  8  2  0
  8 13  1  0
  9  3  1  0
 10 12  1  0
 11  9  2  0
 12  5  2  0
 13 14  1  0
 14  9  1  0
 15 10  1  0
 16  8  1  0
 17 15  1  0
 10  4  2  0
 11  6  1  0
M  END
> <chembl_id>
CHEMBL1070

> <chembl_pref_name>
NABUMETONE
