
     RDKit          2D

 24 27  0  0  1  0  0  0  0  0999 V2000
    9.7991   -5.0691    0.0000 C   0  0  0  0  0  0  0  0  0  0  0  0
    9.8019   -5.8922    0.0000 C   0  0  0  0  0  0  0  0  0  0  0  0
    9.0799   -6.3063    0.0000 C   0  0  0  0  0  0  0  0  0  0  0  0
    8.3675   -5.8846    0.0000 C   0  0  0  0  0  0  0  0  0  0  0  0
    7.6580   -6.3069    0.0000 C   0  0  0  0  0  0  0  0  0  0  0  0
   10.5840   -4.8169    0.0000 C   0  0  0  0  0  0  0  0  0  0  0  0
   10.5760   -6.1515    0.0000 C   0  0  0  0  0  0  0  0  0  0  0  0
    7.6608   -7.1301    0.0000 C   0  0  0  0  0  0  0  0  0  0  0  0
   11.0685   -5.4888    0.0000 C   0  0  0  0  0  0  0  0  0  0  0  0
    9.0867   -4.6557    0.0000 C   0  0  0  0  0  0  0  0  0  0  0  0
    8.3730   -5.0614    0.0000 C   0  0  0  0  0  0  0  0  0  0  0  0
    9.0909   -7.1294    0.0000 C   0  0  0  0  0  0  0  0  0  0  0  0
    6.9457   -5.8978    0.0000 C   0  0  0  0  0  0  0  0  0  0  0  0
    8.3731   -7.5435    0.0000 C   0  0  0  0  0  0  0  0  0  0  0  0
    6.9513   -7.5483    0.0000 C   0  0  0  0  0  0  0  0  0  0  0  0
   11.8917   -5.4860    0.0000 F   0  0  0  0  0  0  0  0  0  0  0  0
    6.2390   -7.1391    0.0000 C   0  0  0  0  0  0  0  0  0  0  0  0
   10.8432   -4.0386    0.0000 O   0  0  0  0  0  0  0  0  0  0  0  0
    6.2362   -6.3118    0.0000 C   0  0  0  0  0  0  0  0  0  0  0  0
    9.7963   -4.2459    0.0000 C   0  0  0  0  0  0  0  0  0  0  0  0
    5.5253   -7.5532    0.0000 O   0  0  0  0  0  0  0  0  0  0  0  0
    8.3667   -6.7167    0.0000 H   0  0  0  0  0  0  0  0  0  0  0  0
    9.0792   -5.4792    0.0000 H   0  0  0  0  0  0  0  0  0  0  0  0
    9.7917   -6.7208    0.0000 H   0  0  0  0  0  0  0  0  0  0  0  0
  2  1  1  0
  3  2  1  0
  4 11  1  0
  5  4  1  0
  6  1  1  0
  7  2  1  0
  8  5  2  0
  9  6  1  0
 10  1  1  0
 11 10  1  0
 12  3  1  0
 13  5  1  0
 14 12  1  0
 15  8  1  0
  9 16  1  6
 17 19  1  0
  6 18  1  1
 19 13  2  0
  1 20  1  1
 21 17  1  0
  9  7  1  0
  4  3  1  0
 14  8  1  0
 17 15  2  0
  4 22  1  6
  3 23  1  1
  2 24  1  6
M  END
> <chembl_id>
CHEMBL1627367

> <chembl_pref_name>
FLUOROESTRADIOL
