
     RDKit          2D

 35 38  0  0  0  0  0  0  0  0999 V2000
    8.2921  -10.2964    0.0000 O   0  0  0  0  0  0  0  0  0  0  0  0
    9.0100  -11.5360    0.0000 O   0  0  0  0  0  0  0  0  0  0  0  0
   11.8763  -10.7077    0.0000 O   0  0  0  0  0  0  0  0  0  0  0  0
   11.1584   -9.4681    0.0000 O   0  0  0  0  0  0  0  0  0  0  0  0
    9.7277   -9.4682    0.0000 O   0  0  0  0  0  0  0  0  0  0  0  0
   10.4407  -11.5359    0.0000 O   0  0  0  0  0  0  0  0  0  0  0  0
    9.0125  -10.7083    0.0000 C   0  0  0  0  0  0  0  0  0  0  0  0
    9.7270  -10.2958    0.0000 C   0  0  0  0  0  0  0  0  0  0  0  0
   10.4414  -10.7083    0.0000 C   0  0  0  0  0  0  0  0  0  0  0  0
   11.1559  -10.2958    0.0000 C   0  0  0  0  0  0  0  0  0  0  0  0
   14.5402  -11.0320    0.0000 C   0  0  0  0  0  0  0  0  0  0  0  0
   15.3393  -11.0320    0.0000 C   0  0  0  0  0  0  0  0  0  0  0  0
   15.7219  -11.7148    0.0000 C   0  0  0  0  0  0  0  0  0  0  0  0
   14.1480  -11.7149    0.0000 C   0  0  0  0  0  0  0  0  0  0  0  0
   14.1479  -10.3493    0.0000 C   0  0  0  0  0  0  0  0  0  0  0  0
   14.9520  -12.1943    0.0000 O   0  0  0  0  0  0  0  0  0  0  0  0
   14.5402   -9.6615    0.0000 C   0  0  0  0  0  0  0  0  0  0  0  0
   15.7364  -10.3492    0.0000 C   0  0  0  0  0  0  0  0  0  0  0  0
   15.3392   -9.6615    0.0000 C   0  0  0  0  0  0  0  0  0  0  0  0
   14.1479   -8.9691    0.0000 N   0  0  0  0  0  0  0  0  0  0  0  0
   14.9470  -10.3347    0.0000 C   0  0  0  0  0  0  0  0  0  0  0  0
   13.3538  -10.3444    0.0000 C   0  0  0  0  0  0  0  0  0  0  0  0
   16.5161  -11.7293    0.0000 C   0  0  0  0  0  0  0  0  0  0  0  0
   13.3539  -11.7149    0.0000 C   0  0  0  0  0  0  0  0  0  0  0  0
   14.9373   -8.9691    0.0000 C   0  0  0  0  0  0  0  0  0  0  0  0
   16.5305  -10.3491    0.0000 C   0  0  0  0  0  0  0  0  0  0  0  0
   12.9616  -11.0321    0.0000 C   0  0  0  0  0  0  0  0  0  0  0  0
   16.9228  -11.0464    0.0000 C   0  0  0  0  0  0  0  0  0  0  0  0
   12.9617  -12.4074    0.0000 O   0  0  0  0  0  0  0  0  0  0  0  0
   16.9084  -12.4217    0.0000 O   0  0  0  0  0  0  0  0  0  0  0  0
   13.4554   -8.5769    0.0000 C   0  0  0  0  0  0  0  0  0  0  0  0
   17.6978  -12.4265    0.0000 C   0  0  0  0  0  0  0  0  0  0  0  0
   13.6483   -9.4830    0.0000 H   0  0  0  0  0  0  0  0  0  0  0  0
   15.0437   -8.7975    0.0000 H   0  0  0  0  0  0  0  0  0  0  0  0
   13.8824  -12.6790    0.0000 H   0  0  0  0  0  0  0  0  0  0  0  0
  7  2  2  0
  8  5  1  0
  9  6  1  0
  7  1  1  0
  9 10  1  0
  8  9  1  0
 10  3  1  0
  7  8  1  0
 10  4  2  0
 20 25  1  0
 11 21  1  6
 22 15  1  0
 23 13  2  0
 24 14  1  0
 25 21  1  0
 26 18  1  0
 27 22  1  0
 28 26  2  0
 24 29  1  1
 30 23  1  0
 31 20  1  0
 32 30  1  0
 15 33  1  6
 13 16  1  0
 17 20  1  0
 24 27  1  0
 18 19  1  0
 28 23  1  0
 12 11  1  0
 13 12  1  0
 14 11  1  0
 15 11  1  0
 14 16  1  0
 17 15  1  0
 18 12  2  0
 19 17  1  0
 17 34  1  1
 14 35  1  6
M  END
> <chembl_id>
CHEMBL2062266

> <chembl_pref_name>
DIHYDROCODEINE BITARTRATE
