
     RDKit          2D

 38 41  0  0  0  0  0  0  0  0999 V2000
    6.6108   -9.4190    0.0000 N   0  0  0  0  0  0  0  0  0  0  0  0
    5.8963   -9.0065    0.0000 C   0  0  0  0  0  0  0  0  0  0  0  0
    5.8963   -8.1815    0.0000 C   0  0  0  0  0  0  0  0  0  0  0  0
    6.6108   -7.7690    0.0000 C   0  0  0  0  0  0  0  0  0  0  0  0
    7.3253   -6.5315    0.0000 C   0  0  0  0  0  0  0  0  0  0  0  0
    6.6108   -6.9440    0.0000 C   0  0  0  0  0  0  0  0  0  0  0  0
    8.0397   -6.9440    0.0000 C   0  0  0  0  0  0  0  0  0  0  0  0
    7.3253   -5.7065    0.0000 C   0  0  0  0  0  0  0  0  0  0  0  0
    6.6108   -5.2940    0.0000 C   0  0  0  0  0  0  0  0  0  0  0  0
    6.6108   -4.4690    0.0000 N   0  0  0  0  0  0  0  0  0  0  0  0
    5.1818   -5.2940    0.0000 O   0  0  0  0  0  0  0  0  0  0  0  0
    5.8963   -5.7065    0.0000 C   0  0  0  0  0  0  0  0  0  0  0  0
    7.3253   -8.1815    0.0000 C   0  0  0  0  0  0  0  0  0  0  0  0
    7.3253   -9.0065    0.0000 C   0  0  0  0  0  0  0  0  0  0  0  0
    5.8963   -6.5315    0.0000 C   0  0  0  0  0  0  0  0  0  0  0  0
    4.4674   -5.7065    0.0000 C   0  0  0  0  0  0  0  0  0  0  0  0
    4.4674   -6.5315    0.0000 C   0  0  0  0  0  0  0  0  0  0  0  0
    3.7529   -5.2940    0.0000 C   0  0  0  0  0  0  0  0  0  0  0  0
    4.4674   -4.0565    0.0000 C   0  0  0  0  0  0  0  0  0  0  0  0
    4.4674   -3.2315    0.0000 C   0  0  0  0  0  0  0  0  0  0  0  0
    5.8963   -3.2315    0.0000 N   0  0  0  0  0  0  0  0  0  0  0  0
    5.1818   -2.8190    0.0000 C   0  0  0  0  0  0  0  0  0  0  0  0
    5.1818   -1.9940    0.0000 N   0  0  0  0  0  0  0  0  0  0  0  0
    3.7529   -2.8190    0.0000 Cl  0  0  0  0  0  0  0  0  0  0  0  0
    5.1818   -4.4690    0.0000 N   0  0  0  0  0  0  0  0  0  0  0  0
    6.6108   -1.9940    0.0000 C   0  0  0  0  0  0  0  0  0  0  0  0
    5.8963   -1.5815    0.0000 C   0  0  0  0  0  0  0  0  0  0  0  0
    5.1818   -0.3440    0.0000 S   0  0  0  0  0  0  0  0  0  0  0  0
    5.8963   -0.7565    0.0000 C   0  0  0  0  0  0  0  0  0  0  0  0
    6.6108   -0.3440    0.0000 C   0  0  0  0  0  0  0  0  0  0  0  0
    7.3253   -0.7565    0.0000 C   0  0  0  0  0  0  0  0  0  0  0  0
    7.3253   -1.5815    0.0000 C   0  0  0  0  0  0  0  0  0  0  0  0
    5.8963   -4.0565    0.0000 C   0  0  0  0  0  0  0  0  0  0  0  0
    4.4674    0.0685    0.0000 C   0  0  0  0  0  0  0  0  0  0  0  0
    3.7529   -0.3440    0.0000 C   0  0  0  0  0  0  0  0  0  0  0  0
    4.4674    0.8935    0.0000 C   0  0  0  0  0  0  0  0  0  0  0  0
    5.5943    0.3705    0.0000 O   0  0  0  0  0  0  0  0  0  0  0  0
    4.7693   -1.0584    0.0000 O   0  0  0  0  0  0  0  0  0  0  0  0
  1  2  1  0
  2  3  1  0
  3  4  1  0
  4  6  1  0
  4 13  1  0
  5  6  1  0
  5  8  2  0
  6 15  2  0
  7  5  1  0
  9  8  1  0
  9 10  1  0
 10 33  1  0
 11 12  1  0
 11 16  1  0
 12  9  2  0
 13 14  1  0
 14  1  1  0
 15 12  1  0
 16 17  1  0
 16 18  1  0
 19 20  2  0
 20 24  1  0
 21 22  2  0
 21 33  1  0
 22 23  1  0
 22 20  1  0
 23 27  1  0
 25 19  1  0
 26 27  1  0
 26 32  2  0
 27 29  2  0
 28 29  1  0
 28 34  1  0
 29 30  1  0
 30 31  2  0
 32 31  1  0
 33 25  2  0
 34 35  1  0
 34 36  1  0
 37 28  2  0
 38 28  2  0
M  END
> <chembl_id>
CHEMBL2403108

> <chembl_pref_name>
CERITINIB
