
     RDKit          2D

 29 28  0  0  0  0  0  0  0  0999 V2000
    4.5917  -18.7792    0.0000 C   0  0  0  0  0  0  0  0  0  0  0  0
    5.2917  -19.1917    0.0000 C   0  0  0  0  0  0  0  0  0  0  0  0
    4.5917  -17.9542    0.0000 N   0  0  0  0  0  0  0  0  0  0  0  0
    3.8750  -19.1917    0.0000 C   0  0  0  0  0  0  0  0  0  0  0  0
    5.2917  -20.0292    0.0000 C   0  0  0  0  0  0  0  0  0  0  0  0
    6.0042  -18.7792    0.0000 N   0  0  0  0  0  0  0  0  0  0  0  0
    3.8750  -20.0292    0.0000 C   0  0  0  0  0  0  0  0  0  0  0  0
    4.5917  -20.4417    0.0000 C   0  0  0  0  0  0  0  0  0  0  0  0
    1.0250  -17.5292    0.0000 N   0  0  0  0  0  0  0  0  0  0  0  0
    3.1500  -20.4417    0.0000 O   0  0  0  0  0  0  0  0  0  0  0  0
    3.8792  -17.5417    0.0000 C   0  0  0  0  0  0  0  0  0  0  0  0
    6.0042  -20.4417    0.0000 C   0  0  0  0  0  0  0  0  0  0  0  0
    6.7292  -19.1917    0.0000 C   0  0  0  0  0  0  0  0  0  0  0  0
    1.7417  -17.9375    0.0000 C   0  0  0  0  0  0  0  0  0  0  0  0
    2.4417  -20.0167    0.0000 C   0  0  0  0  0  0  0  0  0  0  0  0
    3.1667  -17.9542    0.0000 C   0  0  0  0  0  0  0  0  0  0  0  0
    3.8792  -16.7167    0.0000 C   0  0  0  0  0  0  0  0  0  0  0  0
    2.4625  -17.5292    0.0000 C   0  0  0  0  0  0  0  0  0  0  0  0
    6.7292  -20.0292    0.0000 C   0  0  0  0  0  0  0  0  0  0  0  0
    8.8167  -19.0792    0.0000 P   0  0  0  0  0  0  0  0  0  0  0  0
    9.6417  -19.0792    0.0000 O   0  0  0  0  0  0  0  0  0  0  0  0
    8.8125  -19.9042    0.0000 O   0  0  0  0  0  0  0  0  0  0  0  0
    8.8125  -18.2542    0.0000 O   0  0  0  0  0  0  0  0  0  0  0  0
    7.9917  -19.0792    0.0000 O   0  0  0  0  0  0  0  0  0  0  0  0
    8.6000  -22.0000    0.0000 P   0  0  0  0  0  0  0  0  0  0  0  0
    9.4250  -22.0000    0.0000 O   0  0  0  0  0  0  0  0  0  0  0  0
    8.6000  -22.8250    0.0000 O   0  0  0  0  0  0  0  0  0  0  0  0
    8.6000  -21.1750    0.0000 O   0  0  0  0  0  0  0  0  0  0  0  0
    7.7750  -22.0000    0.0000 O   0  0  0  0  0  0  0  0  0  0  0  0
  2  1  1  0
  3  1  1  0
  4  1  2  0
  5  2  1  0
  6  2  2  0
  7  4  1  0
  8  7  2  0
  9 14  1  0
 10  7  1  0
 11  3  1  0
 12  5  2  0
 13  6  1  0
 14 18  1  0
 15 10  1  0
 16 11  1  0
 17 11  1  0
 18 16  1  0
 19 13  2  0
  5  8  1  0
 12 19  1  0
 21 20  1  0
 22 20  1  0
 23 20  2  0
 24 20  1  0
 26 25  1  0
 27 25  1  0
 28 25  2  0
 29 25  1  0
M  END
> <chembl_id>
CHEMBL43128

> <chembl_pref_name>
PRIMAQUINE PHOSPHATE
