
     RDKit          2D

 18 19  0  0  0  0  0  0  0  0999 V2000
    4.1500   -4.6417    0.0000 C   0  0  0  0  0  0  0  0  0  0  0  0
    5.9875   -5.0000    0.0000 C   0  0  0  0  0  0  0  0  0  0  0  0
    5.3750   -4.6500    0.0000 O   0  0  0  0  0  0  0  0  0  0  0  0
    4.7542   -4.9917    0.0000 O   0  0  0  0  0  0  0  0  0  0  0  0
    4.1500   -3.9292    0.0000 O   0  0  0  0  0  0  0  0  0  0  0  0
    5.9792   -5.7125    0.0000 O   0  0  0  0  0  0  0  0  0  0  0  0
    6.6000   -4.6417    0.0000 C   0  0  0  0  0  0  0  0  0  0  0  0
    3.5292   -5.0042    0.0000 C   0  0  0  0  0  0  0  0  0  0  0  0
    2.9167   -4.6417    0.0000 C   0  0  0  0  0  0  0  0  0  0  0  0
    3.5167   -5.7042    0.0000 C   0  0  0  0  0  0  0  0  0  0  0  0
    7.2167   -5.0000    0.0000 C   0  0  0  0  0  0  0  0  0  0  0  0
    6.6125   -3.9417    0.0000 C   0  0  0  0  0  0  0  0  0  0  0  0
    2.2917   -5.0000    0.0000 C   0  0  0  0  0  0  0  0  0  0  0  0
    2.9042   -6.0542    0.0000 C   0  0  0  0  0  0  0  0  0  0  0  0
    7.8375   -4.6417    0.0000 C   0  0  0  0  0  0  0  0  0  0  0  0
    7.2250   -3.5917    0.0000 C   0  0  0  0  0  0  0  0  0  0  0  0
    2.2917   -5.7000    0.0000 C   0  0  0  0  0  0  0  0  0  0  0  0
    7.8417   -3.9417    0.0000 C   0  0  0  0  0  0  0  0  0  0  0  0
  2  3  1  0
  3  4  1  0
  4  1  1  0
  5  1  2  0
  6  2  2  0
  7  2  1  0
  8  1  1  0
  9  8  2  0
 10  8  1  0
 11  7  2  0
 12  7  1  0
 13  9  1  0
 14 10  2  0
 15 11  1  0
 16 12  2  0
 17 14  1  0
 18 16  1  0
 17 13  2  0
 18 15  2  0
M  END
> <chembl_id>
CHEMBL1200370

> <chembl_pref_name>
BENZOYL PEROXIDE
