
     RDKit          2D

 26 28  0  0  0  0  0  0  0  0999 V2000
   -4.0909    1.1757    0.0000 C   0  0  0  0  0  0  0  0  0  0  0  0
   -4.8054    0.7632    0.0000 C   0  0  0  0  0  0  0  0  0  0  0  0
   -4.8054   -0.0619    0.0000 C   0  0  0  0  0  0  0  0  0  0  0  0
   -4.0909   -0.4744    0.0000 C   0  0  0  0  0  0  0  0  0  0  0  0
   -3.3764   -0.0619    0.0000 C   0  0  0  0  0  0  0  0  0  0  0  0
   -3.3764    0.7632    0.0000 C   0  0  0  0  0  0  0  0  0  0  0  0
   -2.6620   -0.4744    0.0000 O   0  0  0  0  0  0  0  0  0  0  0  0
   -1.9475   -0.0619    0.0000 C   0  0  0  0  0  0  0  0  0  0  0  0
   -1.9475    0.7631    0.0000 C   0  0  0  0  0  0  0  0  0  0  0  0
   -1.2330   -0.4744    0.0000 C   0  0  0  0  0  0  0  0  0  0  0  0
   -0.5185   -0.0619    0.0000 C   0  0  0  0  0  0  0  0  0  0  0  0
   -0.5185    0.7631    0.0000 C   0  0  0  0  0  0  0  0  0  0  0  0
   -1.2330    1.1756    0.0000 C   0  0  0  0  0  0  0  0  0  0  0  0
    0.6085    0.4611    0.0000 C   0  0  0  0  0  0  0  0  0  0  0  0
    0.1960    1.1755    0.0000 S   0  0  0  0  0  0  0  0  0  0  0  0
   -1.0615   -1.2814    0.0000 C   0  0  0  0  0  0  0  0  0  0  0  0
   -0.2410   -1.3676    0.0000 C   0  0  0  0  0  0  0  0  0  0  0  0
    0.0945   -0.6140    0.0000 C   0  0  0  0  0  0  0  0  0  0  0  0
   -4.0909    2.0007    0.0000 C   0  0  0  0  0  0  0  0  0  0  0  0
   -4.0909    2.8257    0.0000 N   0  0  0  0  0  0  0  0  0  0  0  0
   -5.4973   -0.5112    0.0000 F   0  0  0  0  0  0  0  0  0  0  0  0
   -0.2165    1.8900    0.0000 O   0  0  0  0  0  0  0  0  0  0  0  0
    0.8879    1.6249    0.0000 O   0  0  0  0  0  0  0  0  0  0  0  0
    0.8792   -0.3591    0.0000 O   0  0  0  0  0  0  0  0  0  0  0  0
    0.1714   -2.0821    0.0000 F   0  0  0  0  0  0  0  0  0  0  0  0
   -1.6136   -1.8944    0.0000 F   0  0  0  0  0  0  0  0  0  0  0  0
  1  2  1  0
  2  3  2  0
  3  4  1  0
  4  5  2  0
  5  6  1  0
  1  6  2  0
  7  8  1  0
  8  9  2  0
  5  7  1  0
 10 11  2  0
 11 12  1  0
 12 13  2  0
  8 10  1  0
  9 13  1  0
 14 15  1  0
 12 15  1  0
 16 17  1  0
 17 18  1  0
 10 16  1  0
 11 18  1  0
  1 19  1  0
 19 20  3  0
  3 21  1  0
 15 22  2  0
 15 23  2  0
 18 24  1  6
 17 25  1  6
 16 26  1  6
M  END
> <chembl_id>
CHEMBL4585668

> <chembl_pref_name>
BELZUTIFAN
