
     RDKit          2D

 21 23  0  0  0  0  0  0  0  0999 V2000
    4.4040    2.0557    0.0000 C   0  0  0  0  0  0  0  0  0  0  0  0
    4.4040    1.2307    0.0000 C   0  0  0  0  0  0  0  0  0  0  0  0
    5.1185    0.8182    0.0000 C   0  0  0  0  0  0  0  0  0  0  0  0
    5.8329    1.2307    0.0000 C   0  0  0  0  0  0  0  0  0  0  0  0
    5.8329    2.0557    0.0000 C   0  0  0  0  0  0  0  0  0  0  0  0
    5.1185    2.4682    0.0000 C   0  0  0  0  0  0  0  0  0  0  0  0
    3.6895    0.8182    0.0000 C   0  0  0  0  0  0  0  0  0  0  0  0
    2.9358    1.1538    0.0000 N   0  0  0  0  0  0  0  0  0  0  0  0
    2.3838    0.5407    0.0000 O   0  0  0  0  0  0  0  0  0  0  0  0
    2.7963   -0.1738    0.0000 C   0  0  0  0  0  0  0  0  0  0  0  0
    3.6033   -0.0023    0.0000 N   0  0  0  0  0  0  0  0  0  0  0  0
    2.4608   -0.9275    0.0000 C   0  0  0  0  0  0  0  0  0  0  0  0
    1.6403   -1.0137    0.0000 C   0  0  0  0  0  0  0  0  0  0  0  0
    1.3047   -1.7674    0.0000 C   0  0  0  0  0  0  0  0  0  0  0  0
    1.7896   -2.4348    0.0000 C   0  0  0  0  0  0  0  0  0  0  0  0
    2.6101   -2.3486    0.0000 C   0  0  0  0  0  0  0  0  0  0  0  0
    2.9457   -1.5949    0.0000 C   0  0  0  0  0  0  0  0  0  0  0  0
    3.7662   -1.5087    0.0000 F   0  0  0  0  0  0  0  0  0  0  0  0
    6.5474    0.8182    0.0000 C   0  0  0  0  0  0  0  0  0  0  0  0
    6.5474   -0.0068    0.0000 O   0  0  0  0  0  0  0  0  0  0  0  0
    7.2619    1.2307    0.0000 O   0  0  0  0  0  0  0  0  0  0  0  0
  3  4  2  0
  4  5  1  0
  5  6  2  0
  6  1  1  0
  2  7  1  0
  7  8  2  0
  8  9  1  0
  9 10  1  0
 10 11  2  0
 11  7  1  0
 10 12  1  0
 12 13  1  0
 13 14  2  0
 14 15  1  0
 15 16  2  0
 16 17  1  0
 17 12  2  0
 17 18  1  0
  4 19  1  0
  1  2  2  0
 19 20  1  0
  2  3  1  0
 19 21  2  0
M  END
> <chembl_id>
CHEMBL256997

> <chembl_pref_name>
ATALUREN
