
     RDKit          2D

 12 12  0  0  0  0  0  0  0  0999 V2000
    5.0917   -6.3000    0.0000 C   0  0  0  0  0  0  0  0  0  0  0  0
    4.5292   -5.8792    0.0000 N   0  0  0  0  0  0  0  0  0  0  0  0
    5.7125   -5.9542    0.0000 N   0  0  0  0  0  0  0  0  0  0  0  0
    4.8625   -6.9792    0.0000 C   0  0  0  0  0  0  0  0  0  0  0  0
    4.1417   -6.9667    0.0000 N   0  0  0  0  0  0  0  0  0  0  0  0
    3.9417   -6.2917    0.0000 C   0  0  0  0  0  0  0  0  0  0  0  0
    5.7125   -5.2417    0.0000 O   0  0  0  0  0  0  0  0  0  0  0  0
    6.3250   -6.3250    0.0000 O   0  0  0  0  0  0  0  0  0  0  0  0
    4.5417   -5.1750    0.0000 C   0  0  0  0  0  0  0  0  0  0  0  0
    3.2792   -6.0542    0.0000 C   0  0  0  0  0  0  0  0  0  0  0  0
    5.1750   -4.1167    0.0000 O   0  0  0  0  0  0  0  0  0  0  0  0
    5.1667   -4.8292    0.0000 C   0  0  0  0  0  0  0  0  0  0  0  0
  2  1  1  0
  3  1  1  0
  4  1  2  0
  5  4  1  0
  6  2  1  0
  7  3  1  0
  8  3  2  0
  9  2  1  0
 10  6  1  0
 11 12  1  0
 12  9  1  0
  5  6  2  0
M  CHG  2   3   1   7  -1
M  END
> <chembl_id>
CHEMBL137

> <chembl_pref_name>
METRONIDAZOLE
