
     RDKit          2D

 23 25  0  0  0  0  0  0  0  0999 V2000
    0.1292   -0.4792    0.0000 S   0  0  0  0  0  0  0  0  0  0  0  0
   -0.7208    0.0208    0.0000 C   0  0  0  0  0  0  0  0  0  0  0  0
    1.0125    0.0208    0.0000 N   0  0  0  0  0  0  0  0  0  0  0  0
   -3.2875   -0.4792    0.0000 S   0  0  0  0  0  0  0  0  0  0  0  0
   -2.4333    0.0208    0.0000 C   0  0  0  0  0  0  0  0  0  0  0  0
   -0.7208    1.0208    0.0000 C   0  0  0  0  0  0  0  0  0  0  0  0
   -1.5833   -0.4792    0.0000 C   0  0  0  0  0  0  0  0  0  0  0  0
    0.1292    1.5208    0.0000 N   0  0  0  0  0  0  0  0  0  0  0  0
    1.0125    1.0208    0.0000 C   0  0  0  0  0  0  0  0  0  0  0  0
   -2.4333    1.0208    0.0000 C   0  0  0  0  0  0  0  0  0  0  0  0
   -1.5833    1.5208    0.0000 C   0  0  0  0  0  0  0  0  0  0  0  0
    0.5792   -1.4417    0.0000 O   0  0  0  0  0  0  0  0  0  0  0  0
   -0.3083   -1.4375    0.0000 O   0  0  0  0  0  0  0  0  0  0  0  0
   -3.7458    0.3500    0.0000 O   0  0  0  0  0  0  0  0  0  0  0  0
   -2.8000   -1.3542    0.0000 O   0  0  0  0  0  0  0  0  0  0  0  0
   -4.2208   -0.9667    0.0000 N   0  0  0  0  0  0  0  0  0  0  0  0
    1.9000    1.5208    0.0000 C   0  0  0  0  0  0  0  0  0  0  0  0
   -3.3083    1.5125    0.0000 Cl  0  0  0  0  0  0  0  0  0  0  0  0
    2.7667    1.0208    0.0000 C   0  0  0  0  0  0  0  0  0  0  0  0
    3.6917    1.4083    0.0000 C   0  0  0  0  0  0  0  0  0  0  0  0
    2.8542    0.0333    0.0000 C   0  0  0  0  0  0  0  0  0  0  0  0
    4.3417    0.6625    0.0000 C   0  0  0  0  0  0  0  0  0  0  0  0
    3.8125   -0.1917    0.0000 C   0  0  0  0  0  0  0  0  0  0  0  0
  2  1  1  0
  3  1  1  0
  4  5  1  0
  5  7  2  0
  6  2  2  0
  7  2  1  0
  8  9  1  0
  9  3  1  0
 10  5  1  0
 11  6  1  0
 12  1  2  0
 13  1  2  0
 14  4  2  0
 15  4  2  0
 16  4  1  0
 17  9  1  0
 18 10  1  0
 19 17  1  0
 20 19  1  0
 21 19  1  0
 22 20  1  0
 23 21  1  0
  6  8  1  0
 11 10  2  0
 22 23  1  0
M  END
> <chembl_id>
CHEMBL1373254

> <chembl_pref_name>
CYCLOPENTHIAZIDE
