
     RDKit          2D

 28 30  0  0  0  0  0  0  0  0999 V2000
   -0.4117    3.0501    0.0000 C   0  0  0  0  0  0  0  0  0  0  0  0
    0.3028    2.6376    0.0000 N   0  0  0  0  0  0  0  0  0  0  0  0
    1.0173    3.0501    0.0000 C   0  0  0  0  0  0  0  0  0  0  0  0
    0.3028    1.8126    0.0000 C   0  0  0  0  0  0  0  0  0  0  0  0
   -0.4117    1.4001    0.0000 O   0  0  0  0  0  0  0  0  0  0  0  0
    1.0173    1.4000    0.0000 N   0  0  0  0  0  0  0  0  0  0  0  0
    1.0173    0.5751    0.0000 C   0  0  0  0  0  0  0  0  0  0  0  0
    1.7317    0.1625    0.0000 C   0  0  0  0  0  0  0  0  0  0  0  0
    1.7317   -0.6625    0.0000 C   0  0  0  0  0  0  0  0  0  0  0  0
    1.0173   -1.0750    0.0000 C   0  0  0  0  0  0  0  0  0  0  0  0
    0.3028   -0.6624    0.0000 C   0  0  0  0  0  0  0  0  0  0  0  0
    0.3028    0.1626    0.0000 C   0  0  0  0  0  0  0  0  0  0  0  0
    1.0173   -1.9000    0.0000 C   0  0  0  0  0  0  0  0  0  0  0  0
    1.7317   -2.3125    0.0000 C   0  0  0  0  0  0  0  0  0  0  0  0
    1.7317   -3.1375    0.0000 N   0  0  0  0  0  0  0  0  0  0  0  0
    2.4462   -3.5500    0.0000 C   0  0  0  0  0  0  0  0  0  0  0  0
    2.4462   -4.3750    0.0000 C   0  0  0  0  0  0  0  0  0  0  0  0
    1.7317   -4.7875    0.0000 N   0  0  0  0  0  0  0  0  0  0  0  0
    1.0173   -4.3750    0.0000 C   0  0  0  0  0  0  0  0  0  0  0  0
    1.0173   -3.5500    0.0000 C   0  0  0  0  0  0  0  0  0  0  0  0
    1.7317   -5.6125    0.0000 C   0  0  0  0  0  0  0  0  0  0  0  0
    1.0173   -6.0250    0.0000 C   0  0  0  0  0  0  0  0  0  0  0  0
    2.4462   -6.0250    0.0000 C   0  0  0  0  0  0  0  0  0  0  0  0
    2.4462   -6.8500    0.0000 C   0  0  0  0  0  0  0  0  0  0  0  0
    1.7317   -7.2625    0.0000 C   0  0  0  0  0  0  0  0  0  0  0  0
    1.0173   -6.8500    0.0000 C   0  0  0  0  0  0  0  0  0  0  0  0
    0.3028   -5.6125    0.0000 Cl  0  0  0  0  0  0  0  0  0  0  0  0
    0.3028   -7.2625    0.0000 Cl  0  0  0  0  0  0  0  0  0  0  0  0
  1  2  1  0
  2  3  1  0
  2  4  1  0
  4  5  2  0
  4  6  1  0
  7  8  1  0
  7 12  1  0
  8  9  1  0
  9 10  1  0
 10 11  1  0
 11 12  1  0
 10 13  1  6
 13 14  1  0
 14 15  1  0
 15 16  1  0
 15 20  1  0
 16 17  1  0
 17 18  1  0
 18 19  1  0
 19 20  1  0
 18 21  1  0
 22 21  2  0
 21 23  1  0
 22 26  1  0
 23 24  2  0
 24 25  1  0
 25 26  2  0
 22 27  1  0
 26 28  1  0
  7  6  1  1
M  END
> <chembl_id>
CHEMBL2028019

> <chembl_pref_name>
CARIPRAZINE
