
     RDKit          2D

 19 20  0  0  0  0  0  0  0  0999 V2000
   -4.9105    0.2330    0.0000 N   0  0  0  0  0  0  0  0  0  0  0  0
   -5.4939   -0.3504    0.0000 C   0  0  0  0  0  0  0  0  0  0  0  0
   -5.1193   -1.0854    0.0000 C   0  0  0  0  0  0  0  0  0  0  0  0
   -4.3045   -0.9564    0.0000 N   0  0  0  0  0  0  0  0  0  0  0  0
   -4.1755   -0.1416    0.0000 C   0  0  0  0  0  0  0  0  0  0  0  0
   -6.3087   -0.2213    0.0000 N   0  0  0  0  0  0  0  0  0  0  0  0
   -6.6044    0.5489    0.0000 O   0  0  0  0  0  0  0  0  0  0  0  0
   -6.8607   -0.8345    0.0000 O   0  0  0  0  0  0  0  0  0  0  0  0
   -5.0396    1.0478    0.0000 C   0  0  0  0  0  0  0  0  0  0  0  0
   -3.4404    0.2330    0.0000 C   0  0  0  0  0  0  0  0  0  0  0  0
   -2.7485   -0.2163    0.0000 O   0  0  0  0  0  0  0  0  0  0  0  0
   -2.0134    0.1582    0.0000 C   0  0  0  0  0  0  0  0  0  0  0  0
   -1.3215   -0.2911    0.0000 C   0  0  0  0  0  0  0  0  0  0  0  0
   -0.5864    0.0834    0.0000 C   0  0  0  0  0  0  0  0  0  0  0  0
   -0.5432    0.9073    0.0000 C   0  0  0  0  0  0  0  0  0  0  0  0
   -1.2351    1.3566    0.0000 C   0  0  0  0  0  0  0  0  0  0  0  0
   -1.9702    0.9821    0.0000 C   0  0  0  0  0  0  0  0  0  0  0  0
    0.1713    1.3198    0.0000 S   0  0  0  0  0  0  0  0  0  0  0  0
    0.8857    0.9073    0.0000 C   0  0  0  0  0  0  0  0  0  0  0  0
  1  2  1  0
  2  3  2  0
  3  4  1  0
  4  5  2  0
  1  5  1  0
  2  6  1  0
  6  7  2  0
  6  8  1  0
  1  9  1  0
  5 10  1  0
 10 11  1  0
 11 12  1  0
 13 14  2  0
 14 15  1  0
 15 16  2  0
 16 17  1  0
 12 13  1  0
 12 17  2  0
 15 18  1  0
 18 19  1  0
M  CHG  2   6   1   8  -1
M  END
> <chembl_id>
CHEMBL1631694

> <chembl_pref_name>
FEXINIDAZOLE
