
     RDKit          2D

 20 23  0  0  0  0  0  0  0  0999 V2000
    5.1292   -4.4917    0.0000 N   0  0  0  0  0  0  0  0  0  0  0  0
    4.7292   -5.0792    0.0000 C   0  0  0  0  0  0  0  0  0  0  0  0
    4.6792   -3.9167    0.0000 C   0  0  0  0  0  0  0  0  0  0  0  0
    4.0167   -4.8667    0.0000 C   0  0  0  0  0  0  0  0  0  0  0  0
    4.0167   -4.1750    0.0000 C   0  0  0  0  0  0  0  0  0  0  0  0
    5.0917   -3.3250    0.0000 N   0  0  0  0  0  0  0  0  0  0  0  0
    5.4250   -5.3875    0.0000 C   0  0  0  0  0  0  0  0  0  0  0  0
    4.4375   -5.6292    0.0000 O   0  0  0  0  0  0  0  0  0  0  0  0
    5.7792   -4.2292    0.0000 C   0  0  0  0  0  0  0  0  0  0  0  0
    5.9542   -5.0167    0.0000 C   0  0  0  0  0  0  0  0  0  0  0  0
    5.4250   -6.0417    0.0000 C   0  0  0  0  0  0  0  0  0  0  0  0
    5.7792   -3.5417    0.0000 C   0  0  0  0  0  0  0  0  0  0  0  0
    6.6292   -5.9542    0.0000 C   0  0  0  0  0  0  0  0  0  0  0  0
    3.3875   -5.2375    0.0000 C   0  0  0  0  0  0  0  0  0  0  0  0
    6.6292   -5.3042    0.0000 C   0  0  0  0  0  0  0  0  0  0  0  0
    6.0917   -6.3625    0.0000 C   0  0  0  0  0  0  0  0  0  0  0  0
    7.3542   -6.2750    0.0000 Cl  0  0  0  0  0  0  0  0  0  0  0  0
    3.3875   -3.8000    0.0000 C   0  0  0  0  0  0  0  0  0  0  0  0
    2.7667   -4.8792    0.0000 C   0  0  0  0  0  0  0  0  0  0  0  0
    2.7667   -4.1667    0.0000 C   0  0  0  0  0  0  0  0  0  0  0  0
  2  1  1  0
  3  1  1  0
  4  2  1  0
  5  3  1  0
  6  3  2  0
  7  2  1  0
  8  2  1  0
  9  1  1  0
 10  7  1  0
 11  7  2  0
 12  9  1  0
 13 16  2  0
 14  4  1  0
 15 10  2  0
 16 11  1  0
 17 13  1  0
 18  5  1  0
 19 14  2  0
 20 18  2  0
 12  6  1  0
  5  4  2  0
 20 19  1  0
 13 15  1  0
M  END
> <chembl_id>
CHEMBL781

> <chembl_pref_name>
MAZINDOL
