
     RDKit          2D

 19 19  0  0  0  0  0  0  0  0999 V2000
    6.2000   -4.4792    0.0000 C   0  0  0  0  0  0  0  0  0  0  0  0
    6.8167   -5.5250    0.0000 N   0  0  0  0  0  0  0  0  0  0  0  0
    6.8167   -4.1292    0.0000 C   0  0  0  0  0  0  0  0  0  0  0  0
    6.2000   -5.1792    0.0000 C   0  0  0  0  0  0  0  0  0  0  0  0
    3.7500   -4.4792    0.0000 C   0  0  0  0  0  0  0  0  0  0  0  0
    4.3542   -4.1292    0.0000 N   0  0  0  0  0  0  0  0  0  0  0  0
    5.5917   -4.1125    0.0000 C   0  0  0  0  0  0  0  0  0  0  0  0
    5.5917   -5.5417    0.0000 C   0  0  0  0  0  0  0  0  0  0  0  0
    7.4375   -5.1625    0.0000 O   0  0  0  0  0  0  0  0  0  0  0  0
    6.8167   -6.2375    0.0000 O   0  0  0  0  0  0  0  0  0  0  0  0
    4.9750   -4.4792    0.0000 C   0  0  0  0  0  0  0  0  0  0  0  0
    3.7500   -5.1792    0.0000 O   0  0  0  0  0  0  0  0  0  0  0  0
    7.1917   -3.5167    0.0000 F   0  0  0  0  0  0  0  0  0  0  0  0
    7.4375   -4.4792    0.0000 F   0  0  0  0  0  0  0  0  0  0  0  0
    6.4542   -3.5167    0.0000 F   0  0  0  0  0  0  0  0  0  0  0  0
    3.1292   -4.1292    0.0000 C   0  0  0  0  0  0  0  0  0  0  0  0
    4.9750   -5.1792    0.0000 C   0  0  0  0  0  0  0  0  0  0  0  0
    2.5167   -4.4792    0.0000 C   0  0  0  0  0  0  0  0  0  0  0  0
    3.1250   -3.4167    0.0000 C   0  0  0  0  0  0  0  0  0  0  0  0
  2  4  1  0
  3  1  1  0
  4  1  1  0
  5  6  1  0
  6 11  1  0
  7  1  2  0
  8  4  2  0
  9  2  1  0
 10  2  2  0
 11  7  1  0
 12  5  2  0
 13  3  1  0
 14  3  1  0
 15  3  1  0
 16  5  1  0
 17 11  2  0
 18 16  1  0
 19 16  1  0
 17  8  1  0
M  CHG  2   2   1   9  -1
M  END
> <chembl_id>
CHEMBL806

> <chembl_pref_name>
FLUTAMIDE
