
     RDKit          2D

 35 35  0  0  0  0  0  0  0  0999 V2000
    6.1292   -6.5792    0.0000 C   0  0  0  0  0  0  0  0  0  0  0  0
    6.1250   -8.0000    0.0000 C   0  0  0  0  0  0  0  0  0  0  0  0
    5.5167   -6.9375    0.0000 C   0  0  0  0  0  0  0  0  0  0  0  0
    5.5167   -7.6417    0.0000 C   0  0  0  0  0  0  0  0  0  0  0  0
    6.1375   -5.8750    0.0000 O   0  0  0  0  0  0  0  0  0  0  0  0
    6.1167   -8.7042    0.0000 O   0  0  0  0  0  0  0  0  0  0  0  0
    6.7417   -6.9417    0.0000 O   0  0  0  0  0  0  0  0  0  0  0  0
    6.7417   -7.6500    0.0000 O   0  0  0  0  0  0  0  0  0  0  0  0
    2.3375   -6.8917    0.0000 N   0  0  0  0  0  0  0  0  0  0  0  0
    1.7250   -6.5417    0.0000 C   0  0  0  0  0  0  0  0  0  0  0  0
    2.5500   -7.5667    0.0000 C   0  0  0  0  0  0  0  0  0  0  0  0
    0.5000   -6.5417    0.0000 N   0  0  0  0  0  0  0  0  0  0  0  0
    1.1167   -6.8917    0.0000 C   0  0  0  0  0  0  0  0  0  0  0  0
    2.1958   -8.1875    0.0000 C   0  0  0  0  0  0  0  0  0  0  0  0
   -0.1208   -7.6042    0.0000 C   0  0  0  0  0  0  0  0  0  0  0  0
   -0.1125   -6.8917    0.0000 C   0  0  0  0  0  0  0  0  0  0  0  0
    1.7250   -5.8292    0.0000 O   0  0  0  0  0  0  0  0  0  0  0  0
    2.5542   -8.7917    0.0000 O   0  0  0  0  0  0  0  0  0  0  0  0
    0.4917   -7.9625    0.0000 O   0  0  0  0  0  0  0  0  0  0  0  0
   -0.7250   -6.5417    0.0000 C   0  0  0  0  0  0  0  0  0  0  0  0
    2.9125   -6.4792    0.0000 C   0  0  0  0  0  0  0  0  0  0  0  0
    1.4917   -8.1917    0.0000 O   0  0  0  0  0  0  0  0  0  0  0  0
   -0.7333   -7.9500    0.0000 O   0  0  0  0  0  0  0  0  0  0  0  0
   -1.3375   -6.8917    0.0000 C   0  0  0  0  0  0  0  0  0  0  0  0
    3.2542   -7.5750    0.0000 C   0  0  0  0  0  0  0  0  0  0  0  0
   -1.9583   -6.5417    0.0000 C   0  0  0  0  0  0  0  0  0  0  0  0
    3.4792   -6.9042    0.0000 C   0  0  0  0  0  0  0  0  0  0  0  0
    1.1167   -7.6042    0.0000 C   0  0  0  0  0  0  0  0  0  0  0  0
   -1.3458   -7.5917    0.0000 C   0  0  0  0  0  0  0  0  0  0  0  0
   -2.5625   -6.8917    0.0000 C   0  0  0  0  0  0  0  0  0  0  0  0
   -1.9500   -5.8292    0.0000 C   0  0  0  0  0  0  0  0  0  0  0  0
   -1.9667   -7.9375    0.0000 C   0  0  0  0  0  0  0  0  0  0  0  0
   -2.5625   -5.4792    0.0000 C   0  0  0  0  0  0  0  0  0  0  0  0
   -3.1750   -6.5417    0.0000 C   0  0  0  0  0  0  0  0  0  0  0  0
   -3.1833   -5.8292    0.0000 C   0  0  0  0  0  0  0  0  0  0  0  0
  2  4  1  0
  3  1  1  0
  4  3  2  0
  5  1  2  0
  6  2  2  0
  7  1  1  0
  8  2  1  0
 10  9  1  0
 11  9  1  0
 13 12  1  0
 13 10  1  0
 11 14  1  1
 16 15  1  0
 16 12  1  6
 17 10  2  0
 18 14  2  0
 19 15  2  0
 20 16  1  0
 21  9  1  0
 22 14  1  0
 23 15  1  0
 24 20  1  0
 25 11  1  0
 26 24  1  0
 27 21  1  0
 13 28  1  6
 29 23  1  0
 30 26  1  0
 31 26  2  0
 32 29  1  0
 33 31  1  0
 34 30  2  0
 35 33  2  0
 27 25  1  0
 35 34  1  0
M  END
> <chembl_id>
CHEMBL1200659

> <chembl_pref_name>
ENALAPRIL MALEATE
