
     RDKit          2D

 38 39  0  0  0  0  0  0  0  0999 V2000
   -7.7107    4.7494    0.0000 O   0  0  0  0  0  0  0  0  0  0  0  0
   -8.1458    4.0000    0.0000 S   0  0  0  0  0  0  0  0  0  0  0  0
   -8.7368    3.5232    0.0000 C   0  0  0  0  0  0  0  0  0  0  0  0
   -8.5251    4.7663    0.0000 O   0  0  0  0  0  0  0  0  0  0  0  0
   -7.4548    3.5453    0.0000 O   0  0  0  0  0  0  0  0  0  0  0  0
   -2.7191    4.1671    0.0000 C   0  0  0  0  0  0  0  0  0  0  0  0
   -3.4238    3.7381    0.0000 C   0  0  0  0  0  0  0  0  0  0  0  0
   -3.4047    2.9133    0.0000 C   0  0  0  0  0  0  0  0  0  0  0  0
   -2.6808    2.5175    0.0000 C   0  0  0  0  0  0  0  0  0  0  0  0
   -1.9761    2.9464    0.0000 C   0  0  0  0  0  0  0  0  0  0  0  0
   -1.9953    3.7712    0.0000 N   0  0  0  0  0  0  0  0  0  0  0  0
   -4.1416    1.6864    0.0000 C   0  0  0  0  0  0  0  0  0  0  0  0
   -4.8635    1.2869    0.0000 N   0  0  0  0  0  0  0  0  0  0  0  0
   -4.8785    0.4621    0.0000 C   0  0  0  0  0  0  0  0  0  0  0  0
   -4.1716    0.0366    0.0000 N   0  0  0  0  0  0  0  0  0  0  0  0
   -3.4498    0.4361    0.0000 C   0  0  0  0  0  0  0  0  0  0  0  0
   -3.4348    1.2609    0.0000 N   0  0  0  0  0  0  0  0  0  0  0  0
   -2.0217    0.4091    0.0000 N   0  0  0  0  0  0  0  0  0  0  0  0
   -2.7435    0.0096    0.0000 C   0  0  0  0  0  0  0  0  0  0  0  0
   -2.7586   -0.8153    0.0000 C   0  0  0  0  0  0  0  0  0  0  0  0
   -2.0517   -1.2407    0.0000 C   0  0  0  0  0  0  0  0  0  0  0  0
   -1.3299   -0.8413    0.0000 C   0  0  0  0  0  0  0  0  0  0  0  0
   -1.3148   -0.0164    0.0000 C   0  0  0  0  0  0  0  0  0  0  0  0
   -1.2887    2.4904    0.0000 C   0  0  0  0  0  0  0  0  0  0  0  0
   -4.1265    2.5139    0.0000 N   0  0  0  0  0  0  0  0  0  0  0  0
   -0.5930    0.3830    0.0000 C   0  0  0  0  0  0  0  0  0  0  0  0
   -5.6003    0.0626    0.0000 N   0  0  0  0  0  0  0  0  0  0  0  0
   -6.3072    0.4881    0.0000 C   0  0  0  0  0  0  0  0  0  0  0  0
   -7.0290    0.0887    0.0000 C   0  0  0  0  0  0  0  0  0  0  0  0
   -7.7509   -0.3108    0.0000 O   0  0  0  0  0  0  0  0  0  0  0  0
   -6.9803   -0.7306    0.0000 C   0  0  0  0  0  0  0  0  0  0  0  0
   -7.6038    0.6352    0.0000 C   0  0  0  0  0  0  0  0  0  0  0  0
   -0.6183    2.8662    0.0000 F   0  0  0  0  0  0  0  0  0  0  0  0
   -0.6012    2.0343    0.0000 F   0  0  0  0  0  0  0  0  0  0  0  0
   -1.3356    1.7639    0.0000 F   0  0  0  0  0  0  0  0  0  0  0  0
   -0.6612    1.1828    0.0000 F   0  0  0  0  0  0  0  0  0  0  0  0
    0.1289    0.7825    0.0000 F   0  0  0  0  0  0  0  0  0  0  0  0
    0.1355   -0.0623    0.0000 F   0  0  0  0  0  0  0  0  0  0  0  0
  1  2  2  0
  2  3  1  0
  2  4  2  0
  2  5  1  0
  6  7  2  0
  7  8  1  0
  8  9  2  0
  9 10  1  0
 10 11  2  0
  6 11  1  0
 12 13  2  0
 13 14  1  0
 14 15  2  0
 15 16  1  0
 16 17  2  0
 12 17  1  0
 18 19  2  0
 19 20  1  0
 20 21  2  0
 21 22  1  0
 22 23  2  0
 18 23  1  0
 10 24  1  0
  8 25  1  0
 25 12  1  0
 16 19  1  0
 23 26  1  0
 14 27  1  0
 27 28  1  0
 28 29  1  0
 29 30  1  0
 29 32  1  0
 24 33  1  0
 24 34  1  0
 24 35  1  0
 26 36  1  0
 26 37  1  0
 26 38  1  0
 29 31  1  0
M  END
> <chembl_id>
CHEMBL3989931

> <chembl_pref_name>
ENASIDENIB MESYLATE
