
     RDKit          2D

 17 18  0  0  0  0  0  0  0  0999 V2000
   -2.6000   -0.0625    0.0000 C   0  0  0  0  0  0  0  0  0  0  0  0
    1.3792   -0.0625    0.0000 C   0  0  0  0  0  0  0  0  0  0  0  0
    0.3667    0.5208    0.0000 C   0  0  0  0  0  0  0  0  0  0  0  0
   -2.6000   -1.2250    0.0000 C   0  0  0  0  0  0  0  0  0  0  0  0
   -3.7083    0.2708    0.0000 O   0  0  0  0  0  0  0  0  0  0  0  0
   -3.7083   -1.5667    0.0000 O   0  0  0  0  0  0  0  0  0  0  0  0
   -4.3458   -0.6417    0.0000 C   0  0  0  0  0  0  0  0  0  0  0  0
    3.3667   -0.0292    0.0000 C   0  0  0  0  0  0  0  0  0  0  0  0
   -1.6208    0.4833    0.0000 C   0  0  0  0  0  0  0  0  0  0  0  0
    2.3917    0.5208    0.0000 C   0  0  0  0  0  0  0  0  0  0  0  0
   -0.6375   -0.0625    0.0000 C   0  0  0  0  0  0  0  0  0  0  0  0
   -1.6208   -1.8167    0.0000 C   0  0  0  0  0  0  0  0  0  0  0  0
   -0.6375   -1.2250    0.0000 C   0  0  0  0  0  0  0  0  0  0  0  0
    2.3917    1.6833    0.0000 O   0  0  0  0  0  0  0  0  0  0  0  0
    4.3417    0.5333    0.0000 C   0  0  0  0  0  0  0  0  0  0  0  0
    3.3792   -1.1625    0.0000 C   0  0  0  0  0  0  0  0  0  0  0  0
    4.1625   -0.8292    0.0000 C   0  0  0  0  0  0  0  0  0  0  0  0
  2  3  2  0
  3 11  1  0
  4  1  1  0
  5  1  1  0
  6  4  1  0
  7  5  1  0
  8 10  1  0
  9  1  2  0
 10  2  1  0
 11  9  1  0
 12  4  2  0
 13 11  2  0
 14 10  1  0
 15  8  1  0
 16  8  1  0
 17  8  1  0
  6  7  1  0
 12 13  1  0
M  END
> <chembl_id>
CHEMBL1983350

> <chembl_pref_name>
STIRIPENTOL
