
     RDKit          2D

 20 17  0  0  0  0  0  0  0  0999 V2000
    4.4250   -0.1542    0.0000 Br  0  0  0  0  0  0  0  0  0  0  0  0
    4.5542    0.6583    0.0000 N   0  0  0  0  0  0  0  0  0  0  0  0
   -2.1958    0.4625    0.0000 N   0  0  0  0  0  0  0  0  0  0  0  0
   -1.5750    0.8000    0.0000 C   0  0  0  0  0  0  0  0  0  0  0  0
    3.9292    0.3208    0.0000 C   0  0  0  0  0  0  0  0  0  0  0  0
   -2.5583   -0.1500    0.0000 C   0  0  0  0  0  0  0  0  0  0  0  0
    5.1583    0.2875    0.0000 C   0  0  0  0  0  0  0  0  0  0  0  0
    4.9042    1.2750    0.0000 C   0  0  0  0  0  0  0  0  0  0  0  0
    4.2000    1.2750    0.0000 C   0  0  0  0  0  0  0  0  0  0  0  0
   -2.8000    0.8333    0.0000 C   0  0  0  0  0  0  0  0  0  0  0  0
   -1.8458   -0.1500    0.0000 C   0  0  0  0  0  0  0  0  0  0  0  0
   -0.9708    0.4333    0.0000 C   0  0  0  0  0  0  0  0  0  0  0  0
    3.3292    0.6875    0.0000 C   0  0  0  0  0  0  0  0  0  0  0  0
    2.7125    0.3500    0.0000 C   0  0  0  0  0  0  0  0  0  0  0  0
    2.1000    0.7125    0.0000 C   0  0  0  0  0  0  0  0  0  0  0  0
    1.4750    0.3750    0.0000 C   0  0  0  0  0  0  0  0  0  0  0  0
    0.8917    0.7458    0.0000 C   0  0  0  0  0  0  0  0  0  0  0  0
    0.2625    0.4083    0.0000 C   0  0  0  0  0  0  0  0  0  0  0  0
   -0.3458    0.7750    0.0000 C   0  0  0  0  0  0  0  0  0  0  0  0
   -2.2583    1.3125    0.0000 Br  0  0  0  0  0  0  0  0  0  0  0  0
  3  4  1  0
  4 12  1  0
  5  2  1  0
  6  3  1  0
  7  2  1  0
  8  2  1  0
  9  2  1  0
 10  3  1  0
 11  3  1  0
 12 19  1  0
 13  5  1  0
 14 13  1  0
 15 14  1  0
 16 15  1  0
 17 16  1  0
 18 17  1  0
 19 18  1  0
M  CHG  4   1  -1   2   1   3   1  20  -1
M  END
> <chembl_id>
CHEMBL1134

> <chembl_pref_name>
DECAMETHONIUM BROMIDE
