
     RDKit          2D

 17 16  0  0  0  0  0  0  0  0999 V2000
   -0.2472    0.7853    0.0000 Zn  0  0  0  0  0 15  0  0  0  0  0  0
    2.0991    1.4785    0.0000 N   0  0  0  0  0  0  0  0  0  0  0  0
    1.3816    1.0713    0.0000 C   0  0  0  0  0  0  0  0  0  0  0  0
    2.1136    2.3124    0.0000 O   0  0  0  0  0  0  0  0  0  0  0  0
    0.6593    1.4931    0.0000 S   0  0  0  0  0  0  0  0  0  0  0  0
    2.7972    1.0568    0.0000 C   0  0  0  0  0  0  0  0  0  0  0  0
    1.3719    0.2569    0.0000 C   0  0  0  0  0  0  0  0  0  0  0  0
    2.7972    0.2278    0.0000 C   0  0  0  0  0  0  0  0  0  0  0  0
    2.0846   -0.1649    0.0000 C   0  0  0  0  0  0  0  0  0  0  0  0
   -1.4931    0.2860    0.0000 N   0  0  0  0  0  0  0  0  0  0  0  0
   -1.4834    1.1053    0.0000 C   0  0  0  0  0  0  0  0  0  0  0  0
   -0.7708   -0.1358    0.0000 O   0  0  0  0  0  0  0  0  0  0  0  0
   -0.7804    1.5076    0.0000 S   0  0  0  0  0  0  0  0  0  0  0  0
   -2.2202   -0.1212    0.0000 C   0  0  0  0  0  0  0  0  0  0  0  0
   -2.2057    1.5270    0.0000 C   0  0  0  0  0  0  0  0  0  0  0  0
   -2.9232    0.3005    0.0000 C   0  0  0  0  0  0  0  0  0  0  0  0
   -2.9232    1.1198    0.0000 C   0  0  0  0  0  0  0  0  0  0  0  0
  3  2  1  0
  4  2  1  0
  5  3  2  0
  6  2  1  0
  7  3  1  0
  8  6  2  0
  9  7  2  0
  8  9  1  0
 11 10  1  0
 12 10  1  0
 13 11  2  0
 14 10  1  0
 15 11  1  0
 16 14  2  0
 17 16  1  0
 15 17  2  0
M  CHG  3   1   2   4  -1  12  -1
M  END
> <chembl_id>
CHEMBL3392049

> <chembl_pref_name>
PYRITHIONE ZINC
