
     RDKit          2D

 18 19  0  0  0  0  0  0  0  0999 V2000
   -1.9958    0.0333    0.0000 C   0  0  0  0  0  0  0  0  0  0  0  0
   -0.9208    0.0333    0.0000 C   0  0  0  0  0  0  0  0  0  0  0  0
   -0.3708    0.9625    0.0000 N   0  0  0  0  0  0  0  0  0  0  0  0
   -2.5458   -0.8917    0.0000 C   0  0  0  0  0  0  0  0  0  0  0  0
   -2.5458    0.9625    0.0000 C   0  0  0  0  0  0  0  0  0  0  0  0
   -0.3708   -0.8917    0.0000 O   0  0  0  0  0  0  0  0  0  0  0  0
   -3.5875   -0.8917    0.0000 C   0  0  0  0  0  0  0  0  0  0  0  0
    0.7292    0.9625    0.0000 C   0  0  0  0  0  0  0  0  0  0  0  0
   -3.5875    0.9625    0.0000 C   0  0  0  0  0  0  0  0  0  0  0  0
    2.8417    0.9000    0.0000 C   0  0  0  0  0  0  0  0  0  0  0  0
   -4.1458    0.0333    0.0000 C   0  0  0  0  0  0  0  0  0  0  0  0
   -1.9958   -1.8167    0.0000 O   0  0  0  0  0  0  0  0  0  0  0  0
   -4.1458    1.9208    0.0000 Br  0  0  0  0  0  0  0  0  0  0  0  0
    3.9042    0.9000    0.0000 Br  0  0  0  0  0  0  0  0  0  0  0  0
    1.2792    1.8625    0.0000 C   0  0  0  0  0  0  0  0  0  0  0  0
    1.3250    0.0333    0.0000 C   0  0  0  0  0  0  0  0  0  0  0  0
    2.2917    1.8458    0.0000 C   0  0  0  0  0  0  0  0  0  0  0  0
    2.2917    0.0333    0.0000 C   0  0  0  0  0  0  0  0  0  0  0  0
  2  1  1  0
  3  2  1  0
  4  1  1  0
  5  1  2  0
  6  2  2  0
  7  4  2  0
  8  3  1  0
  9  5  1  0
 10 18  2  0
 11  9  2  0
 12  4  1  0
 13  9  1  0
 14 10  1  0
 15  8  1  0
 16  8  2  0
 17 15  2  0
 18 16  1  0
  7 11  1  0
 17 10  1  0
M  END
> <chembl_id>
CHEMBL21869

> <chembl_pref_name>
DIBROMSALAN
