
     RDKit          2D

 54 57  0  0  0  0  0  0  0  0999 V2000
    5.7125    1.8417    0.0000 C   0  0  0  0  0  0  0  0  0  0  0  0
   -5.7167    0.1917    0.0000 C   0  0  0  0  0  0  0  0  0  0  0  0
   -5.0042    0.6042    0.0000 C   0  0  0  0  0  0  0  0  0  0  0  0
   -5.0042    1.4292    0.0000 C   0  0  0  0  0  0  0  0  0  0  0  0
   -6.4292    0.6042    0.0000 C   0  0  0  0  0  0  0  0  0  0  0  0
    6.4292    1.4292    0.0000 C   0  0  0  0  0  0  0  0  0  0  0  0
    5.7125    2.6667    0.0000 C   0  0  0  0  0  0  0  0  0  0  0  0
   -5.7167    1.8417    0.0000 C   0  0  0  0  0  0  0  0  0  0  0  0
   -6.4292    1.4292    0.0000 C   0  0  0  0  0  0  0  0  0  0  0  0
   -4.2875    1.8417    0.0000 C   0  0  0  0  0  0  0  0  0  0  0  0
    6.4292    0.6042    0.0000 Cl  0  0  0  0  0  0  0  0  0  0  0  0
    5.0000    3.0792    0.0000 Cl  0  0  0  0  0  0  0  0  0  0  0  0
    5.0000    1.4292    0.0000 C   0  0  0  0  0  0  0  0  0  0  0  0
   -2.8583    1.8417    0.0000 N   0  0  0  0  0  0  0  0  0  0  0  0
   -7.1417    0.1917    0.0000 O   0  0  0  0  0  0  0  0  0  0  0  0
   -5.7167   -0.6333    0.0000 C   0  0  0  0  0  0  0  0  0  0  0  0
   -3.8750    2.5542    0.0000 O   0  0  0  0  0  0  0  0  0  0  0  0
   -5.0042   -1.0458    0.0000 O   0  0  0  0  0  0  0  0  0  0  0  0
    4.2833    1.8417    0.0000 O   0  0  0  0  0  0  0  0  0  0  0  0
    7.1417    2.6667    0.0000 C   0  0  0  0  0  0  0  0  0  0  0  0
    2.1417    1.4292    0.0000 O   0  0  0  0  0  0  0  0  0  0  0  0
    7.1417    1.8417    0.0000 C   0  0  0  0  0  0  0  0  0  0  0  0
    6.4292    3.0792    0.0000 C   0  0  0  0  0  0  0  0  0  0  0  0
   -3.5750    1.4292    0.0000 C   0  0  0  0  0  0  0  0  0  0  0  0
   -2.1458    1.4292    0.0000 C   0  0  0  0  0  0  0  0  0  0  0  0
    2.8542    1.8417    0.0000 C   0  0  0  0  0  0  0  0  0  0  0  0
    3.5708    1.4292    0.0000 C   0  0  0  0  0  0  0  0  0  0  0  0
    1.4250    1.8417    0.0000 C   0  0  0  0  0  0  0  0  0  0  0  0
   -1.4292    1.8417    0.0000 C   0  0  0  0  0  0  0  0  0  0  0  0
    0.7125    1.4292    0.0000 C   0  0  0  0  0  0  0  0  0  0  0  0
    0.0000    1.8417    0.0000 C   0  0  0  0  0  0  0  0  0  0  0  0
   -0.7167    1.4292    0.0000 C   0  0  0  0  0  0  0  0  0  0  0  0
   -0.1083   -0.6000    0.0000 C   0  0  0  0  0  0  0  0  0  0  0  0
   -0.1083    0.2250    0.0000 C   0  0  0  0  0  0  0  0  0  0  0  0
   -0.8208    0.6375    0.0000 O   0  0  0  0  0  0  0  0  0  0  0  0
    0.7167   -0.6000    0.0000 C   0  0  0  0  0  0  0  0  0  0  0  0
   -0.9333   -0.6000    0.0000 C   0  0  0  0  0  0  0  0  0  0  0  0
   -0.1083   -1.4250    0.0000 C   0  0  0  0  0  0  0  0  0  0  0  0
    0.6083    0.6375    0.0000 O   0  0  0  0  0  0  0  0  0  0  0  0
   -0.8208   -1.8375    0.0000 C   0  0  0  0  0  0  0  0  0  0  0  0
    0.6083   -1.8375    0.0000 C   0  0  0  0  0  0  0  0  0  0  0  0
    1.1292   -1.3125    0.0000 C   0  0  0  0  0  0  0  0  0  0  0  0
    1.1292    0.1167    0.0000 C   0  0  0  0  0  0  0  0  0  0  0  0
   -1.3458   -1.3125    0.0000 C   0  0  0  0  0  0  0  0  0  0  0  0
   -1.3458    0.1167    0.0000 C   0  0  0  0  0  0  0  0  0  0  0  0
   -2.1708   -1.3125    0.0000 C   0  0  0  0  0  0  0  0  0  0  0  0
    1.9542   -1.3125    0.0000 C   0  0  0  0  0  0  0  0  0  0  0  0
    1.9542    0.1167    0.0000 C   0  0  0  0  0  0  0  0  0  0  0  0
   -0.8208   -2.6625    0.0000 C   0  0  0  0  0  0  0  0  0  0  0  0
    0.6083   -2.6625    0.0000 C   0  0  0  0  0  0  0  0  0  0  0  0
   -2.1708    0.1167    0.0000 C   0  0  0  0  0  0  0  0  0  0  0  0
   -0.1083   -3.0750    0.0000 C   0  0  0  0  0  0  0  0  0  0  0  0
    2.3667   -0.6000    0.0000 C   0  0  0  0  0  0  0  0  0  0  0  0
   -2.5833   -0.6000    0.0000 C   0  0  0  0  0  0  0  0  0  0  0  0
  2  3  1  0
  3  4  2  0
  4 10  1  0
  5  9  1  0
  6  1  1  0
  7  1  2  0
  8  4  1  0
  9  8  2  0
 10 24  1  0
 11  6  1  0
 12  7  1  0
 13  1  1  0
 14 25  1  0
 15  5  1  0
 16  2  1  0
 10 17  1  1
 18 16  1  0
 19 13  1  0
 20 23  2  0
 21 26  1  0
 22  6  2  0
 23  7  1  0
 24 14  1  0
 25 29  1  0
 26 27  1  0
 27 19  1  0
 28 21  1  0
 29 32  1  0
 30 28  1  0
 31 30  1  0
 32 31  1  0
 20 22  1  0
  2  5  2  0
 34 33  1  0
 35 34  2  0
 36 33  1  0
 37 33  1  0
 38 33  1  0
 39 34  1  0
 40 38  1  0
 41 38  2  0
 42 36  1  0
 43 36  2  0
 44 37  2  0
 45 37  1  0
 46 44  1  0
 47 42  2  0
 48 43  1  0
 49 40  2  0
 50 41  1  0
 51 45  2  0
 52 50  2  0
 53 48  2  0
 54 51  1  0
 53 47  1  0
 52 49  1  0
 46 54  2  0
M  END
> <chembl_id>
CHEMBL1084172

> <chembl_pref_name>
VILANTEROL TRIFENATATE
