
  SciTegic07151911232D

 21 22  0  0  0  0            999 V2000
    3.9042   -4.5375    0.0000 S   0  3
    3.9000   -2.8875    0.0000 N   0  0
    3.1917   -4.1250    0.0000 C   0  0
    4.6167   -4.1250    0.0000 C   0  0
    2.4750   -4.5458    0.0000 C   0  0
    5.3375   -4.5333    0.0000 C   0  0
    3.1917   -3.3000    0.0000 C   0  0
    4.6167   -3.2958    0.0000 C   0  0
    1.7625   -4.1333    0.0000 C   0  0
    6.0542   -4.1125    0.0000 C   0  0
    1.0417   -4.5375    0.0000 N   0  0
    6.7667   -4.5250    0.0000 N   0  0
    1.7625   -3.3083    0.0000 C   0  0
    6.0417   -3.2833    0.0000 C   0  0
    2.4750   -2.8875    0.0000 C   0  0
    5.3292   -2.8750    0.0000 C   0  0
    7.4792   -4.1125    0.0000 C   0  0
    6.7625   -5.3500    0.0000 C   0  0
    1.0417   -5.3625    0.0000 C   0  0
    0.3292   -4.1250    0.0000 C   0  0
    9.1334   -4.1125    0.0000 Cl  0  5
  7  3  1  0
  8  4  2  0
  9  5  2  0
 10  6  2  0
 11  9  1  0
 12 10  1  0
 13 15  2  0
 14 16  2  0
 15  7  1  0
 16  8  1  0
 17 12  1  0
 18 12  1  0
 19 11  1  0
 20 11  1  0
  2  7  2  0
 10 14  1  0
  9 13  1  0
  2  8  1  0
  3  1  2  0
  4  1  1  0
  5  3  1  0
  6  4  1  0
M  CHG  2   1   1  21  -1
M  END
> <chembl_id>
CHEMBL405110

> <chembl_pref_name>
METHYLENE BLUE ANHYDROUS
