
     RDKit          2D

 19 17  0  0  0  0  0  0  0  0999 V2000
    6.0542   -7.5000    0.0000 Na  0  0  0  0  0 15  0  0  0  0  0  0
    4.1000   -6.4792    0.0000 C   0  0  0  0  0  0  0  0  0  0  0  0
    4.1000   -7.1667    0.0000 P   0  0  0  0  0  0  0  0  0  0  0  0
    4.6875   -6.1167    0.0000 P   0  0  0  0  0  0  0  0  0  0  0  0
    3.4792   -6.1417    0.0000 S   0  0  0  0  0  0  0  0  0  0  0  0
    4.6792   -7.5042    0.0000 O   0  0  0  0  0  0  0  0  0  0  0  0
    5.2750   -6.5042    0.0000 O   0  0  0  0  0  0  0  0  0  0  0  0
    4.3292   -5.5000    0.0000 O   0  0  0  0  0  0  0  0  0  0  0  0
    3.3917   -7.1625    0.0000 O   0  0  0  0  0  0  0  0  0  0  0  0
    3.7417   -7.7792    0.0000 O   0  0  0  0  0  0  0  0  0  0  0  0
    5.0375   -5.5000    0.0000 O   0  0  0  0  0  0  0  0  0  0  0  0
    2.8792   -6.5000    0.0000 C   0  0  0  0  0  0  0  0  0  0  0  0
    1.6667   -7.1917    0.0000 C   0  0  0  0  0  0  0  0  0  0  0  0
    1.0542   -7.5542    0.0000 Cl  0  0  0  0  0  0  0  0  0  0  0  0
    2.8792   -7.1917    0.0000 C   0  0  0  0  0  0  0  0  0  0  0  0
    2.2750   -6.1417    0.0000 C   0  0  0  0  0  0  0  0  0  0  0  0
    2.2750   -7.5542    0.0000 C   0  0  0  0  0  0  0  0  0  0  0  0
    1.6667   -6.5000    0.0000 C   0  0  0  0  0  0  0  0  0  0  0  0
    6.0792   -6.5000    0.0000 Na  0  0  0  0  0 15  0  0  0  0  0  0
  3  2  1  0
  4  2  1  0
  5  2  1  0
  6  3  1  0
  7  4  1  0
  8  4  2  0
  9  3  2  0
 10  3  1  0
 11  4  1  0
 12  5  1  0
 13 18  1  0
 14 13  1  0
 15 12  2  0
 16 12  1  0
 17 15  1  0
 18 16  2  0
 17 13  2  0
M  CHG  4   1   1   6  -1   7  -1  19   1
M  END
> <chembl_id>
CHEMBL1200448

> <chembl_pref_name>
TILUDRONATE DISODIUM
