
     RDKit          2D

 20 20  0  0  0  0  0  0  0  0999 V2000
    2.0542   -0.9042    0.0000 N   0  0  0  0  0  0  0  0  0  0  0  0
    3.8917   -0.5542    0.0000 O   0  0  0  0  0  0  0  0  0  0  0  0
    2.6667   -0.5542    0.0000 C   0  0  0  0  0  0  0  0  0  0  0  0
    1.4375   -0.5542    0.0000 C   0  0  0  0  0  0  0  0  0  0  0  0
    2.4042   -1.5167    0.0000 C   0  0  0  0  0  0  0  0  0  0  0  0
    1.6917   -1.5167    0.0000 C   0  0  0  0  0  0  0  0  0  0  0  0
    3.2792   -0.9042    0.0000 C   0  0  0  0  0  0  0  0  0  0  0  0
   -0.9250   -1.6667    0.0000 N   0  0  0  0  0  0  0  0  0  0  0  0
   -0.3208   -1.3250    0.0000 C   0  0  0  0  0  0  0  0  0  0  0  0
   -1.5375   -0.6250    0.0000 N   0  0  0  0  0  0  0  0  0  0  0  0
   -0.3208   -0.6000    0.0000 C   0  0  0  0  0  0  0  0  0  0  0  0
   -1.5375   -1.3042    0.0000 C   0  0  0  0  0  0  0  0  0  0  0  0
   -0.9250   -0.2375    0.0000 C   0  0  0  0  0  0  0  0  0  0  0  0
    0.3375   -1.5417    0.0000 N   0  0  0  0  0  0  0  0  0  0  0  0
    0.3375   -0.3750    0.0000 N   0  0  0  0  0  0  0  0  0  0  0  0
    0.7542   -0.9792    0.0000 C   0  0  0  0  0  0  0  0  0  0  0  0
   -2.1750   -1.6500    0.0000 O   0  0  0  0  0  0  0  0  0  0  0  0
   -0.9250    0.4500    0.0000 O   0  0  0  0  0  0  0  0  0  0  0  0
   -0.9375   -2.4000    0.0000 C   0  0  0  0  0  0  0  0  0  0  0  0
   -2.1750   -0.2625    0.0000 C   0  0  0  0  0  0  0  0  0  0  0  0
  2  7  1  0
  3  1  1  0
  4  1  1  0
  5  1  1  0
  6  1  1  0
  7  3  1  0
  9  8  1  0
 10 12  1  0
 11  9  2  0
 12  8  1  0
 13 10  1  0
 14  9  1  0
 15 11  1  0
 16 14  2  0
 17 12  2  0
 18 13  2  0
 19  8  1  0
 20 10  1  0
 13 11  1  0
 16 15  1  0
M  CHG  2   1   1  15  -1
M  END
> <chembl_id>
CHEMBL1200434

> <chembl_pref_name>
OXTRIPHYLLINE
