
     RDKit          2D

 31 34  0  0  0  0  0  0  0  0999 V2000
   -5.6299    1.5458    0.0000 N   0  0  0  0  0  0  0  0  0  0  0  0
   -6.3836    0.2313    0.0000 N   0  0  0  0  0  0  0  0  0  0  0  0
   -5.6299   -0.1042    0.0000 C   0  0  0  0  0  0  0  0  0  0  0  0
   -4.9154    0.3083    0.0000 C   0  0  0  0  0  0  0  0  0  0  0  0
   -4.9154    1.1333    0.0000 C   0  0  0  0  0  0  0  0  0  0  0  0
   -4.2009    1.5458    0.0000 N   0  0  0  0  0  0  0  0  0  0  0  0
   -4.2009   -0.1042    0.0000 C   0  0  0  0  0  0  0  0  0  0  0  0
   -3.4865    0.3083    0.0000 C   0  0  0  0  0  0  0  0  0  0  0  0
   -3.4865    1.1333    0.0000 C   0  0  0  0  0  0  0  0  0  0  0  0
   -2.7719   -0.1042    0.0000 C   0  0  0  0  0  0  0  0  0  0  0  0
   -2.7719   -0.9292    0.0000 N   0  0  0  0  0  0  0  0  0  0  0  0
   -2.0575    0.3083    0.0000 O   0  0  0  0  0  0  0  0  0  0  0  0
   -2.0575   -2.1667    0.0000 C   0  0  0  0  0  0  0  0  0  0  0  0
   -2.0575   -1.3416    0.0000 C   0  0  0  0  0  0  0  0  0  0  0  0
   -1.3430   -0.9292    0.0000 C   0  0  0  0  0  0  0  0  0  0  0  0
   -1.3430   -2.5792    0.0000 C   0  0  0  0  0  0  0  0  0  0  0  0
   -0.6286   -2.1667    0.0000 C   0  0  0  0  0  0  0  0  0  0  0  0
   -0.6286   -1.3416    0.0000 C   0  0  0  0  0  0  0  0  0  0  0  0
   -5.7161   -0.9247    0.0000 C   0  0  0  0  0  0  0  0  0  0  0  0
   -6.9356   -0.3817    0.0000 N   0  0  0  0  0  0  0  0  0  0  0  0
   -6.5231   -1.0962    0.0000 C   0  0  0  0  0  0  0  0  0  0  0  0
    0.0859   -2.5792    0.0000 O   0  0  0  0  0  0  0  0  0  0  0  0
    0.8004   -2.1667    0.0000 C   0  0  0  0  0  0  0  0  0  0  0  0
    1.5148   -1.7542    0.0000 F   0  0  0  0  0  0  0  0  0  0  0  0
    1.2129   -2.8812    0.0000 Cl  0  0  0  0  0  0  0  0  0  0  0  0
    0.3879   -1.4523    0.0000 F   0  0  0  0  0  0  0  0  0  0  0  0
   -5.5867    2.3696    0.0000 C   0  0  0  0  0  0  0  0  0  0  0  0
   -6.3569    2.6652    0.0000 C   0  0  0  0  0  0  0  0  0  0  0  0
   -6.8761    2.0240    0.0000 C   0  0  0  0  0  0  0  0  0  0  0  0
   -6.4268    1.3321    0.0000 C   0  0  0  0  0  0  0  0  0  0  0  0
   -7.7000    2.0673    0.0000 O   0  0  0  0  0  0  0  0  0  0  0  0
  2  3  2  0
  3  4  1  0
  4  5  2  0
  1  5  1  0
  7  8  2  0
  8  9  1  0
  6  9  2  0
  4  7  1  0
  6  5  1  0
 10 11  1  0
  8 10  1  0
 13 14  1  0
 11 14  1  0
 10 12  2  0
 16 17  1  0
 17 18  2  0
 15 18  1  0
 13 16  2  0
 15 14  2  0
  3 19  1  0
  2 20  1  0
 19 21  2  0
 21 20  1  0
 17 22  1  0
 22 23  1  0
 23 24  1  0
 23 25  1  0
 23 26  1  0
 27 28  1  0
 28 29  1  0
 29 30  1  0
 29 31  1  6
  1 27  1  0
 30  1  1  0
M  END
> <chembl_id>
CHEMBL4208229

> <chembl_pref_name>
ASCIMINIB
