
     RDKit          2D

 27 27  0  0  0  0  0  0  0  0999 V2000
   -0.7958    0.2625    0.0000 C   0  0  0  0  0  0  0  0  0  0  0  0
    1.0500   -0.8042    0.0000 C   0  0  0  0  0  0  0  0  0  0  0  0
   -0.1750    0.6208    0.0000 N   0  0  0  0  0  0  0  0  0  0  0  0
    1.6542   -0.4542    0.0000 C   0  0  0  0  0  0  0  0  0  0  0  0
    1.0417   -1.5167    0.0000 C   0  0  0  0  0  0  0  0  0  0  0  0
   -1.3875    0.6208    0.0000 N   0  0  0  0  0  0  0  0  0  0  0  0
    0.4500   -0.4542    0.0000 C   0  0  0  0  0  0  0  0  0  0  0  0
    0.4500    0.2625    0.0000 C   0  0  0  0  0  0  0  0  0  0  0  0
   -0.7958   -0.4417    0.0000 O   0  0  0  0  0  0  0  0  0  0  0  0
    2.2792   -0.8167    0.0000 O   0  0  0  0  0  0  0  0  0  0  0  0
    4.7167   -0.8167    0.0000 N   0  0  0  0  0  0  0  0  0  0  0  0
    0.4292   -1.8667    0.0000 O   0  0  0  0  0  0  0  0  0  0  0  0
    5.3417   -0.4667    0.0000 C   0  0  0  0  0  0  0  0  0  0  0  0
    1.6542    0.2625    0.0000 C   0  0  0  0  0  0  0  0  0  0  0  0
    3.4917   -0.8167    0.0000 C   0  0  0  0  0  0  0  0  0  0  0  0
    2.8792   -0.4667    0.0000 C   0  0  0  0  0  0  0  0  0  0  0  0
    4.1042   -0.4667    0.0000 C   0  0  0  0  0  0  0  0  0  0  0  0
    1.0500    0.6208    0.0000 C   0  0  0  0  0  0  0  0  0  0  0  0
    3.4917   -1.5250    0.0000 O   0  0  0  0  0  0  0  0  0  0  0  0
   -1.9958    0.2500    0.0000 C   0  0  0  0  0  0  0  0  0  0  0  0
   -1.3875    1.3208    0.0000 C   0  0  0  0  0  0  0  0  0  0  0  0
    1.6500   -1.8750    0.0000 C   0  0  0  0  0  0  0  0  0  0  0  0
    5.9417   -0.8167    0.0000 C   0  0  0  0  0  0  0  0  0  0  0  0
    5.9167   -0.1167    0.0000 C   0  0  0  0  0  0  0  0  0  0  0  0
    5.3167    0.3500    0.0000 C   0  0  0  0  0  0  0  0  0  0  0  0
   -2.6083    0.6208    0.0000 C   0  0  0  0  0  0  0  0  0  0  0  0
   -1.9833    1.6708    0.0000 C   0  0  0  0  0  0  0  0  0  0  0  0
  2  7  1  0
  3  1  1  0
  4 14  1  0
  5  2  1  0
  6  1  1  0
  7  8  2  0
  8  3  1  0
  9  1  2  0
 10  4  1  0
 11 17  1  0
 12  5  2  0
 13 11  1  0
 14 18  2  0
 15 16  1  0
 16 10  1  0
 17 15  1  0
 18  8  1  0
 19 15  1  0
 20  6  1  0
 21  6  1  0
 22  5  1  0
 23 13  1  0
 24 13  1  0
 25 13  1  0
 26 20  1  0
 27 21  1  0
  2  4  2  0
M  END
> <chembl_id>
CHEMBL27810

> <chembl_pref_name>
CELIPROLOL
