
     RDKit          2D

 10  9  0  0  1  0  0  0  0  0999 V2000
    0.0875  -17.0542    0.0000 C   0  0  0  0  0  0  0  0  0  0  0  0
    0.7042  -17.4125    0.0000 C   0  0  0  0  0  0  0  0  0  0  0  0
   -0.5250  -17.4125    0.0000 C   0  0  0  0  0  0  0  0  0  0  0  0
    1.3167  -17.0542    0.0000 C   0  0  0  0  0  0  0  0  0  0  0  0
   -0.5250  -18.1292    0.0000 O   0  0  0  0  0  0  0  0  0  0  0  0
    1.3167  -16.3417    0.0000 O   0  0  0  0  0  0  0  0  0  0  0  0
    0.0875  -16.3500    0.0000 S   0  0  0  0  0  0  0  0  0  0  0  0
    0.7042  -18.1292    0.0000 S   0  0  0  0  0  0  0  0  0  0  0  0
    1.9292  -17.4125    0.0000 O   0  0  0  0  0  0  0  0  0  0  0  0
   -1.1458  -17.0542    0.0000 O   0  0  0  0  0  0  0  0  0  0  0  0
  2  1  1  0
  3  1  1  0
  4  2  1  0
  5  3  2  0
  6  4  2  0
  1  7  1  1
  2  8  1  6
  9  4  1  0
 10  3  1  0
M  END
> <chembl_id>
CHEMBL1201073

> <chembl_pref_name>
SUCCIMER
