
     RDKit          2D

 18 19  0  0  0  0  0  0  0  0999 V2000
   -2.3183    0.2775    0.0000 O   0  0  0  0  0  0  0  0  0  0  0  0
   -2.8651   -0.3402    0.0000 C   0  0  0  0  0  0  0  0  0  0  0  0
   -2.4467   -1.0511    0.0000 C   0  0  0  0  0  0  0  0  0  0  0  0
   -1.6412   -0.8729    0.0000 C   0  0  0  0  0  0  0  0  0  0  0  0
   -1.5618   -0.0517    0.0000 C   0  0  0  0  0  0  0  0  0  0  0  0
   -0.1364    1.6042    0.0000 N   0  0  0  0  0  0  0  0  0  0  0  0
   -0.8508    1.1917    0.0000 C   0  0  0  0  0  0  0  0  0  0  0  0
   -0.8508    0.3667    0.0000 N   0  0  0  0  0  0  0  0  0  0  0  0
   -0.1364   -0.0458    0.0000 C   0  0  0  0  0  0  0  0  0  0  0  0
    0.5781    0.3667    0.0000 C   0  0  0  0  0  0  0  0  0  0  0  0
    0.5781    1.1917    0.0000 C   0  0  0  0  0  0  0  0  0  0  0  0
   -1.5653    1.6042    0.0000 O   0  0  0  0  0  0  0  0  0  0  0  0
    1.2926    1.6042    0.0000 O   0  0  0  0  0  0  0  0  0  0  0  0
   -3.6863   -0.2608    0.0000 C   0  0  0  0  0  0  0  0  0  0  0  0
   -4.1656   -0.9323    0.0000 O   0  0  0  0  0  0  0  0  0  0  0  0
   -2.7760   -1.8076    0.0000 O   0  0  0  0  0  0  0  0  0  0  0  0
   -1.4587   -1.6774    0.0000 F   0  0  0  0  0  0  0  0  0  0  0  0
   -0.8205   -0.9565    0.0000 F   0  0  0  0  0  0  0  0  0  0  0  0
  1  2  1  0
  2  3  1  0
  3  4  1  0
  4  5  1  0
  1  5  1  0
  6  7  1  0
  7  8  1  0
  8  9  1  0
  9 10  1  0
 10 11  1  0
  6 11  1  0
  7 12  2  0
 11 13  1  6
  5  8  1  1
  2 14  1  1
 14 15  1  0
  3 16  1  6
  4 17  1  0
  4 18  1  0
M  END
> <chembl_id>
CHEMBL3237547

> <chembl_pref_name>
CEDAZURIDINE
