
     RDKit          2D

 27 30  0  0  1  0  0  0  0  0999 V2000
    3.1417   -7.9667    0.0000 C   0  0  0  0  0  0  0  0  0  0  0  0
    1.8875   -7.9667    0.0000 C   0  0  0  0  0  0  0  0  0  0  0  0
    2.5083   -9.0417    0.0000 C   0  0  0  0  0  0  0  0  0  0  0  0
    1.8875   -8.6792    0.0000 C   0  0  0  0  0  0  0  0  0  0  0  0
    3.1417   -8.6792    0.0000 C   0  0  0  0  0  0  0  0  0  0  0  0
    2.4917   -7.6125    0.0000 C   0  0  0  0  0  0  0  0  0  0  0  0
    3.8375   -7.7542    0.0000 C   0  0  0  0  0  0  0  0  0  0  0  0
    1.2792   -9.0417    0.0000 C   0  0  0  0  0  0  0  0  0  0  0  0
    1.2792   -9.7792    0.0000 C   0  0  0  0  0  0  0  0  0  0  0  0
    4.4500   -7.4000    0.0000 C   0  0  0  0  0  0  0  0  0  0  0  0
    2.5083   -9.7792    0.0000 C   0  0  0  0  0  0  0  0  0  0  0  0
    3.8375   -8.9167    0.0000 C   0  0  0  0  0  0  0  0  0  0  0  0
    5.0625   -7.0417    0.0000 C   0  0  0  0  0  0  0  0  0  0  0  0
    1.2125   -7.6750    0.0000 C   0  0  0  0  0  0  0  0  0  0  0  0
    4.2375   -8.3250    0.0000 C   0  0  0  0  0  0  0  0  0  0  0  0
    1.8875  -10.1292    0.0000 C   0  0  0  0  0  0  0  0  0  0  0  0
    0.6500  -10.1292    0.0000 C   0  0  0  0  0  0  0  0  0  0  0  0
    3.8375   -7.0542    0.0000 O   0  0  0  0  0  0  0  0  0  0  0  0
    3.1417   -7.2542    0.0000 C   0  0  0  0  0  0  0  0  0  0  0  0
    0.6500   -8.6792    0.0000 C   0  0  0  0  0  0  0  0  0  0  0  0
    0.0250   -9.7792    0.0000 C   0  0  0  0  0  0  0  0  0  0  0  0
    2.5375   -6.9000    0.0000 C   0  0  0  0  0  0  0  0  0  0  0  0
    0.0250   -9.0417    0.0000 C   0  0  0  0  0  0  0  0  0  0  0  0
    1.8875   -9.3125    0.0000 H   0  0  0  0  0  0  0  0  0  0  0  0
    1.2667   -8.4417    0.0000 H   0  0  0  0  0  0  0  0  0  0  0  0
    3.1417   -9.4292    0.0000 H   0  0  0  0  0  0  0  0  0  0  0  0
    2.5083   -8.4750    0.0000 H   0  0  0  0  0  0  0  0  0  0  0  0
  2  6  1  0
  3  5  1  0
  4  2  1  0
  5  1  1  0
  6  1  1  0
  7  1  1  0
  8  4  1  0
  9  8  1  0
 10  7  1  0
 11  3  1  0
 12  5  1  0
 13 10  3  0
 14  2  2  0
 15  7  1  0
 16 11  1  0
 17  9  2  0
  7 18  1  1
  1 19  1  1
 20  8  1  0
 21 23  1  0
 22 19  1  0
 23 20  1  0
  4 24  1  6
  8 25  1  1
  5 26  1  6
  3 27  1  1
 12 15  1  0
  3  4  1  0
 16  9  1  0
 17 21  1  0
M  END
> <chembl_id>
CHEMBL1533

> <chembl_pref_name>
DESOGESTREL
