
     RDKit          2D

 35 34  0  0  0  0  0  0  0  0999 V2000
   -1.2850    0.4887    0.0000 C   0  0  0  0  0  0  0  0  0  0  0  0
   -1.9297    1.0112    0.0000 C   0  0  0  0  0  0  0  0  0  0  0  0
   -1.4241   -0.3160    0.0000 C   0  0  0  0  0  0  0  0  0  0  0  0
   -0.5013    0.7794    0.0000 C   0  0  0  0  0  0  0  0  0  0  0  0
   -2.8397   -0.0758    0.0000 C   0  0  0  0  0  0  0  0  0  0  0  0
   -2.2077   -0.5983    0.0000 C   0  0  0  0  0  0  0  0  0  0  0  0
   -2.7007    0.7331    0.0000 C   0  0  0  0  0  0  0  0  0  0  0  0
    0.8890    0.5393    0.0000 N   0  0  0  0  0  0  0  0  0  0  0  0
   -0.3666    1.5926    0.0000 O   0  0  0  0  0  0  0  0  0  0  0  0
   -3.6234   -0.3582    0.0000 O   0  0  0  0  0  0  0  0  0  0  0  0
    0.1180    0.2486    0.0000 C   0  0  0  0  0  0  0  0  0  0  0  0
    1.5294    0.0210    0.0000 C   0  0  0  0  0  0  0  0  0  0  0  0
    2.3047    0.2991    0.0000 C   0  0  0  0  0  0  0  0  0  0  0  0
    2.9493   -0.2191    0.0000 C   0  0  0  0  0  0  0  0  0  0  0  0
    3.7204    0.0506    0.0000 C   0  0  0  0  0  0  0  0  0  0  0  0
    0.0422    3.0336    0.0000 S   0  0  0  0  0  0  0  0  0  0  0  0
    0.6994    3.5392    0.0000 O   0  0  0  0  0  0  0  0  0  0  0  0
   -0.5941    3.5392    0.0000 O   0  0  0  0  0  0  0  0  0  0  0  0
   -0.5013    2.4226    0.0000 O   0  0  0  0  0  0  0  0  0  0  0  0
    0.6067    2.4226    0.0000 O   0  0  0  0  0  0  0  0  0  0  0  0
   -1.2850   -2.5280    0.0000 C   0  0  0  0  0  0  0  0  0  0  0  0
   -1.4241   -3.3496    0.0000 C   0  0  0  0  0  0  0  0  0  0  0  0
   -1.9297   -2.0013    0.0000 C   0  0  0  0  0  0  0  0  0  0  0  0
   -0.5013   -2.2415    0.0000 C   0  0  0  0  0  0  0  0  0  0  0  0
   -2.8397   -3.1010    0.0000 C   0  0  0  0  0  0  0  0  0  0  0  0
   -2.2077   -3.6319    0.0000 C   0  0  0  0  0  0  0  0  0  0  0  0
   -2.7007   -2.2878    0.0000 C   0  0  0  0  0  0  0  0  0  0  0  0
    0.8890   -2.4817    0.0000 N   0  0  0  0  0  0  0  0  0  0  0  0
   -0.3666   -1.4283    0.0000 O   0  0  0  0  0  0  0  0  0  0  0  0
   -3.6234   -3.3917    0.0000 O   0  0  0  0  0  0  0  0  0  0  0  0
    0.1180   -2.7724    0.0000 C   0  0  0  0  0  0  0  0  0  0  0  0
    1.5294   -3.0125    0.0000 C   0  0  0  0  0  0  0  0  0  0  0  0
    2.3047   -2.7218    0.0000 C   0  0  0  0  0  0  0  0  0  0  0  0
    2.9493   -3.2527    0.0000 C   0  0  0  0  0  0  0  0  0  0  0  0
    3.7204   -2.9620    0.0000 C   0  0  0  0  0  0  0  0  0  0  0  0
  2  1  1  0
  3  1  2  0
  4  1  1  0
  5  6  2  0
  6  3  1  0
  7  2  2  0
  8 11  1  0
  9  4  1  0
 10  5  1  0
 11  4  1  0
 12  8  1  0
 13 12  1  0
 14 13  1  0
 15 14  1  0
  7  5  1  0
 17 16  2  0
 18 16  2  0
 19 16  1  0
 20 16  1  0
 22 21  2  0
 23 21  1  0
 24 21  1  0
 25 26  2  0
 26 22  1  0
 27 23  2  0
 28 31  1  0
 29 24  1  0
 30 25  1  0
 31 24  1  0
 32 28  1  0
 33 32  1  0
 34 33  1  0
 35 34  1  0
 27 25  1  0
M  END
> <chembl_id>
CHEMBL2106636

> <chembl_pref_name>
BAMETHAN SULFATE
