
     RDKit          2D

 35 38  0  0  0  0  0  0  0  0999 V2000
   -1.9792   -0.2625    0.0000 C   0  0  0  0  0  0  0  0  0  0  0  0
   -0.5500   -0.2625    0.0000 C   0  0  0  0  0  0  0  0  0  0  0  0
    0.1625    0.9750    0.0000 C   0  0  0  0  0  0  0  0  0  0  0  0
   -1.2667    0.1500    0.0000 C   0  0  0  0  0  0  0  0  0  0  0  0
    0.1625    0.1500    0.0000 C   0  0  0  0  0  0  0  0  0  0  0  0
   -1.9792   -1.0875    0.0000 C   0  0  0  0  0  0  0  0  0  0  0  0
   -0.5500   -1.0875    0.0000 C   0  0  0  0  0  0  0  0  0  0  0  0
   -1.2667   -1.5000    0.0000 C   0  0  0  0  0  0  0  0  0  0  0  0
    0.9458    1.2292    0.0000 C   0  0  0  0  0  0  0  0  0  0  0  0
   -0.5500    1.3875    0.0000 C   0  0  0  0  0  0  0  0  0  0  0  0
   -1.2667    0.9750    0.0000 C   0  0  0  0  0  0  0  0  0  0  0  0
    0.9458   -0.1042    0.0000 C   0  0  0  0  0  0  0  0  0  0  0  0
   -2.6958    0.1500    0.0000 C   0  0  0  0  0  0  0  0  0  0  0  0
    1.4333    0.5625    0.0000 C   0  0  0  0  0  0  0  0  0  0  0  0
   -2.6958   -1.5000    0.0000 C   0  0  0  0  0  0  0  0  0  0  0  0
    3.5375    1.7875    0.0000 C   0  0  0  0  0  0  0  0  0  0  0  0
    3.7500    2.5833    0.0000 O   0  0  0  0  0  0  0  0  0  0  0  0
    1.3583    1.9458    0.0000 C   0  0  0  0  0  0  0  0  0  0  0  0
    0.1625   -1.5000    0.0000 O   0  0  0  0  0  0  0  0  0  0  0  0
    2.1583    2.1583    0.0000 C   0  0  0  0  0  0  0  0  0  0  0  0
    2.7417    1.5750    0.0000 C   0  0  0  0  0  0  0  0  0  0  0  0
   -1.9792    0.5625    0.0000 C   0  0  0  0  0  0  0  0  0  0  0  0
    0.1625    1.8000    0.0000 C   0  0  0  0  0  0  0  0  0  0  0  0
   -3.4083   -0.2625    0.0000 C   0  0  0  0  0  0  0  0  0  0  0  0
   -3.4083   -1.0875    0.0000 C   0  0  0  0  0  0  0  0  0  0  0  0
    4.1208    1.2042    0.0000 O   0  0  0  0  0  0  0  0  0  0  0  0
   -1.2667   -2.3250    0.0000 C   0  0  0  0  0  0  0  0  0  0  0  0
   -4.1250   -1.5000    0.0000 O   0  0  0  0  0  0  0  0  0  0  0  0
    0.7750    2.5292    0.0000 C   0  0  0  0  0  0  0  0  0  0  0  0
   -0.5500   -2.7375    0.0000 C   0  0  0  0  0  0  0  0  0  0  0  0
    1.9443    1.2837    0.0000 H   0  0  0  0  0  0  0  0  0  0  0  0
   -1.9804   -2.0875    0.0000 H   0  0  0  0  0  0  0  0  0  0  0  0
    0.2678   -0.8444    0.0000 H   0  0  0  0  0  0  0  0  0  0  0  0
   -2.1330    0.6495    0.0000 H   0  0  0  0  0  0  0  0  0  0  0  0
    0.3163   -0.7620    0.0000 H   0  0  0  0  0  0  0  0  0  0  0  0
  2  4  1  0
  3 10  1  0
  4  1  1  0
  5  2  1  0
  6  1  1  0
  7  2  1  0
  8  6  1  0
  9  3  1  0
 10 11  1  0
 11  4  1  0
 12  5  1  0
 13  1  1  0
 14 12  1  0
 15  6  1  0
 16 21  1  0
 17 16  2  0
 18  9  1  0
  7 19  1  6
 20 18  1  0
 21 20  1  0
  1 22  1  1
  3 23  1  1
 24 13  1  0
 25 24  1  0
 26 16  1  0
  8 27  1  6
 25 28  1  6
 18 29  1  6
 30 27  1  0
  7  8  1  0
  3  5  1  0
 15 25  1  0
  9 14  1  0
  9 31  1  6
  6 32  1  1
  5 33  1  6
  4 34  1  6
  2 35  1  1
M  END
> <chembl_id>
CHEMBL566315

> <chembl_pref_name>
OBETICHOLIC ACID
