
     RDKit          2D

 35 39  0  0  0  0  0  0  0  0999 V2000
    0.9917   -1.8167    0.0000 N   0  0  0  0  0  0  0  0  0  0  0  0
    1.4167   -2.3917    0.0000 C   0  0  0  0  0  0  0  0  0  0  0  0
    0.9917   -2.9667    0.0000 C   0  0  0  0  0  0  0  0  0  0  0  0
    0.3167   -2.7500    0.0000 C   0  0  0  0  0  0  0  0  0  0  0  0
    0.3167   -2.0375    0.0000 C   0  0  0  0  0  0  0  0  0  0  0  0
    1.2167   -1.1375    0.0000 C   0  0  0  0  0  0  0  0  0  0  0  0
    2.1292   -2.3917    0.0000 C   0  0  0  0  0  0  0  0  0  0  0  0
   -0.2958   -1.6792    0.0000 C   0  0  0  0  0  0  0  0  0  0  0  0
   -0.2958   -3.1042    0.0000 C   0  0  0  0  0  0  0  0  0  0  0  0
   -2.5458    1.2375    0.0000 N   0  0  0  0  0  0  0  0  0  0  0  0
    2.4792   -1.7750    0.0000 C   0  0  0  0  0  0  0  0  0  0  0  0
    2.4792   -3.0042    0.0000 C   0  0  0  0  0  0  0  0  0  0  0  0
    0.7417   -0.6125    0.0000 C   0  0  0  0  0  0  0  0  0  0  0  0
   -0.9125   -2.7500    0.0000 C   0  0  0  0  0  0  0  0  0  0  0  0
    1.2167   -3.6417    0.0000 C   0  0  0  0  0  0  0  0  0  0  0  0
   -0.9125   -2.0375    0.0000 C   0  0  0  0  0  0  0  0  0  0  0  0
    3.5500   -2.3917    0.0000 C   0  0  0  0  0  0  0  0  0  0  0  0
   -0.2125    0.4458    0.0000 C   0  0  0  0  0  0  0  0  0  0  0  0
    3.1917   -3.0042    0.0000 C   0  0  0  0  0  0  0  0  0  0  0  0
    3.1917   -1.7750    0.0000 C   0  0  0  0  0  0  0  0  0  0  0  0
    0.0417   -0.7542    0.0000 C   0  0  0  0  0  0  0  0  0  0  0  0
    0.9625    0.0708    0.0000 C   0  0  0  0  0  0  0  0  0  0  0  0
    0.4792    0.5958    0.0000 C   0  0  0  0  0  0  0  0  0  0  0  0
   -0.4333   -0.2292    0.0000 C   0  0  0  0  0  0  0  0  0  0  0  0
   -0.6958    0.9833    0.0000 O   0  0  0  0  0  0  0  0  0  0  0  0
   -1.8583    1.3750    0.0000 C   0  0  0  0  0  0  0  0  0  0  0  0
   -1.5333   -3.1042    0.0000 O   0  0  0  0  0  0  0  0  0  0  0  0
    4.2625   -2.3917    0.0000 O   0  0  0  0  0  0  0  0  0  0  0  0
   -1.3875    0.8458    0.0000 C   0  0  0  0  0  0  0  0  0  0  0  0
   -2.9875    1.8000    0.0000 C   0  0  0  0  0  0  0  0  0  0  0  0
   -2.7250    0.5375    0.0000 C   0  0  0  0  0  0  0  0  0  0  0  0
   -3.3833    0.2583    0.0000 C   0  0  0  0  0  0  0  0  0  0  0  0
   -3.6958    1.8250    0.0000 C   0  0  0  0  0  0  0  0  0  0  0  0
   -4.1583    1.2833    0.0000 C   0  0  0  0  0  0  0  0  0  0  0  0
   -4.0208    0.5833    0.0000 C   0  0  0  0  0  0  0  0  0  0  0  0
  2  1  1  0
  3  2  2  0
  4  5  2  0
  5  1  1  0
  6  1  1  0
  7  2  1  0
  8  5  1  0
  9  4  1  0
 10 26  1  0
 11  7  1  0
 12  7  2  0
 13  6  1  0
 14 16  1  0
 15  3  1  0
 16  8  2  0
 17 19  2  0
 18 24  2  0
 19 12  1  0
 20 11  2  0
 21 13  2  0
 22 13  1  0
 23 22  2  0
 24 21  1  0
 25 18  1  0
 26 29  1  0
 27 14  1  0
 28 17  1  0
 29 25  1  0
 30 10  1  0
 31 10  1  0
 32 31  1  0
 33 30  1  0
 34 33  1  0
 35 32  1  0
  3  4  1  0
 20 17  1  0
 23 18  1  0
  9 14  2  0
 35 34  1  0
M  END
> <chembl_id>
CHEMBL46740

> <chembl_pref_name>
BAZEDOXIFENE
