
     RDKit          2D

 11 13  0  0  0  0  0  0  0  0999 V2000
    2.4917   -7.2500    0.0000 P   0  0  0  0  0  0  0  0  0  0  0  0
    3.1083   -7.6000    0.0000 N   0  0  0  0  0  0  0  0  0  0  0  0
    1.8833   -7.6042    0.0000 N   0  0  0  0  0  0  0  0  0  0  0  0
    2.4917   -7.9542    0.0000 N   0  0  0  0  0  0  0  0  0  0  0  0
    2.1333   -8.5667    0.0000 C   0  0  0  0  0  0  0  0  0  0  0  0
    2.8417   -8.5708    0.0000 C   0  0  0  0  0  0  0  0  0  0  0  0
    1.1750   -7.6125    0.0000 C   0  0  0  0  0  0  0  0  0  0  0  0
    1.5333   -8.2250    0.0000 C   0  0  0  0  0  0  0  0  0  0  0  0
    3.4667   -8.2083    0.0000 C   0  0  0  0  0  0  0  0  0  0  0  0
    3.8167   -7.5917    0.0000 C   0  0  0  0  0  0  0  0  0  0  0  0
    2.4917   -6.5417    0.0000 S   0  0  0  0  0  0  0  0  0  0  0  0
  2  1  1  0
  3  1  1  0
  4  1  1  0
  5  4  1  0
  6  4  1  0
  7  3  1  0
  8  3  1  0
  9  2  1  0
 10  2  1  0
 11  1  2  0
  5  6  1  0
  7  8  1  0
  9 10  1  0
M  END
> <chembl_id>
CHEMBL671

> <chembl_pref_name>
THIOTEPA
