
     RDKit          2D

 18 20  0  0  0  0  0  0  0  0999 V2000
   -3.0583   -1.0375    0.0000 C   0  0  0  0  0  0  0  0  0  0  0  0
   -3.0583   -0.3000    0.0000 C   0  0  0  0  0  0  0  0  0  0  0  0
   -2.4083    0.0625    0.0000 C   0  0  0  0  0  0  0  0  0  0  0  0
   -1.7625   -1.0375    0.0000 N   0  0  0  0  0  0  0  0  0  0  0  0
   -2.4083   -1.4042    0.0000 C   0  0  0  0  0  0  0  0  0  0  0  0
   -1.7625   -0.3000    0.0000 C   0  0  0  0  0  0  0  0  0  0  0  0
   -3.7000   -1.4042    0.0000 C   0  0  0  0  0  0  0  0  0  0  0  0
   -2.4083    0.7958    0.0000 C   0  0  0  0  0  0  0  0  0  0  0  0
   -3.7000   -2.1292    0.0000 N   0  0  0  0  0  0  0  0  0  0  0  0
   -3.7000    0.0625    0.0000 C   0  0  0  0  0  0  0  0  0  0  0  0
   -1.1333   -1.3917    0.0000 C   0  0  0  0  0  0  0  0  0  0  0  0
   -4.3458   -0.3000    0.0000 C   0  0  0  0  0  0  0  0  0  0  0  0
   -4.3458   -1.0375    0.0000 C   0  0  0  0  0  0  0  0  0  0  0  0
   -1.8000    1.1458    0.0000 C   0  0  0  0  0  0  0  0  0  0  0  0
   -3.0625    1.1458    0.0000 C   0  0  0  0  0  0  0  0  0  0  0  0
   -3.0625    1.8833    0.0000 C   0  0  0  0  0  0  0  0  0  0  0  0
   -1.8000    1.9208    0.0000 C   0  0  0  0  0  0  0  0  0  0  0  0
   -2.4208    2.2708    0.0000 C   0  0  0  0  0  0  0  0  0  0  0  0
  2  1  1  0
  3  2  1  0
  4  5  1  0
  5  1  1  0
  6  4  1  0
  7  1  2  0
  8  3  1  0
  9  7  1  0
 10  2  2  0
 11  4  1  0
 12 13  2  0
 13  7  1  0
 14  8  2  0
 15  8  1  0
 16 15  2  0
 17 14  1  0
 18 16  1  0
 10 12  1  0
  3  6  1  0
 17 18  2  0
M  END
> <chembl_id>
CHEMBL273575

> <chembl_pref_name>
NOMIFENSINE
