
     RDKit          2D

 51 48  0  0  0  0  0  0  0  0999 V2000
    0.1375   -1.7667    0.0000 O   0  0  0  0  0  0  0  0  0  0  0  0
   -0.3875    0.5458    0.0000 C   0  0  0  0  0  0  0  0  0  0  0  0
    1.5375    0.5625    0.0000 C   0  0  0  0  0  0  0  0  0  0  0  0
    1.2125    0.0000    0.0000 C   0  0  0  0  0  0  0  0  0  0  0  0
    0.2292    0.5333    0.0000 C   0  0  0  0  0  0  0  0  0  0  0  0
   -0.7208   -0.0167    0.0000 C   0  0  0  0  0  0  0  0  0  0  0  0
    0.5542   -0.0042    0.0000 C   0  0  0  0  0  0  0  0  0  0  0  0
   -2.7083   -0.0292    0.0000 C   0  0  0  0  0  0  0  0  0  0  0  0
   -2.3750   -0.5917    0.0000 C   0  0  0  0  0  0  0  0  0  0  0  0
   -2.7208   -1.1417    0.0000 C   0  0  0  0  0  0  0  0  0  0  0  0
    2.1792    0.4208    0.0000 C   0  0  0  0  0  0  0  0  0  0  0  0
   -3.3250    0.0083    0.0000 O   0  0  0  0  0  0  0  0  0  0  0  0
    2.6667    0.8500    0.0000 C   0  0  0  0  0  0  0  0  0  0  0  0
   -0.7250    1.0750    0.0000 C   0  0  0  0  0  0  0  0  0  0  0  0
    0.5375    1.1125    0.0000 C   0  0  0  0  0  0  0  0  0  0  0  0
    1.2125    1.1125    0.0000 C   0  0  0  0  0  0  0  0  0  0  0  0
   -3.3625   -1.1292    0.0000 C   0  0  0  0  0  0  0  0  0  0  0  0
    3.3292    0.7208    0.0000 C   0  0  0  0  0  0  0  0  0  0  0  0
   -3.6750   -0.5542    0.0000 C   0  0  0  0  0  0  0  0  0  0  0  0
   -1.3625   -0.0292    0.0000 C   0  0  0  0  0  0  0  0  0  0  0  0
    3.6542    1.3000    0.0000 C   0  0  0  0  0  0  0  0  0  0  0  0
    1.6667   -0.4792    0.0000 C   0  0  0  0  0  0  0  0  0  0  0  0
   -2.3458    0.5208    0.0000 O   0  0  0  0  0  0  0  0  0  0  0  0
   -1.7000    0.5208    0.0000 C   0  0  0  0  0  0  0  0  0  0  0  0
   -1.3958    1.0958    0.0000 C   0  0  0  0  0  0  0  0  0  0  0  0
    0.2375   -0.5792    0.0000 C   0  0  0  0  0  0  0  0  0  0  0  0
    3.1875    1.7833    0.0000 O   0  0  0  0  0  0  0  0  0  0  0  0
    2.2542   -0.2125    0.0000 C   0  0  0  0  0  0  0  0  0  0  0  0
   -0.4000   -0.5792    0.0000 C   0  0  0  0  0  0  0  0  0  0  0  0
    2.6000    1.5083    0.0000 C   0  0  0  0  0  0  0  0  0  0  0  0
    4.2917    1.3625    0.0000 O   0  0  0  0  0  0  0  0  0  0  0  0
    0.9500   -0.6000    0.0000 O   0  0  0  0  0  0  0  0  0  0  0  0
   -1.0458   -0.5917    0.0000 O   0  0  0  0  0  0  0  0  0  0  0  0
   -0.0958    1.1083    0.0000 C   0  0  0  0  0  0  0  0  0  0  0  0
   -1.7250   -0.6125    0.0000 O   0  0  0  0  0  0  0  0  0  0  0  0
   -2.4000   -1.7375    0.0000 O   0  0  0  0  0  0  0  0  0  0  0  0
   -3.7000   -1.6792    0.0000 O   0  0  0  0  0  0  0  0  0  0  0  0
    1.9167    1.0958    0.0000 C   0  0  0  0  0  0  0  0  0  0  0  0
   -0.4083    1.6583    0.0000 O   0  0  0  0  0  0  0  0  0  0  0  0
    0.2167    1.6750    0.0000 O   0  0  0  0  0  0  0  0  0  0  0  0
   -0.1125    1.7708    0.0000 O   0  0  0  0  0  0  0  0  0  0  0  0
   -4.3458   -0.5375    0.0000 C   0  0  0  0  0  0  0  0  0  0  0  0
   -0.0583   -0.0042    0.0000 H   0  0  0  0  0  0  0  0  0  0  0  0
    0.9500    0.5875    0.0000 H   0  0  0  0  0  0  0  0  0  0  0  0
    4.1667   -0.4875    0.0000 O   0  0  0  0  0  0  0  0  0  0  0  0
    2.4792   -1.6042    0.0000 O   0  0  0  0  0  0  0  0  0  0  0  0
    1.9542    2.7208    0.0000 O   0  0  0  0  0  0  0  0  0  0  0  0
   -0.0625    2.8125    0.0000 O   0  0  0  0  0  0  0  0  0  0  0  0
   -1.9833    2.0583    0.0000 O   0  0  0  0  0  0  0  0  0  0  0  0
   -3.4833    1.0958    0.0000 O   0  0  0  0  0  0  0  0  0  0  0  0
   -1.9208   -2.6792    0.0000 O   0  0  0  0  0  0  0  0  0  0  0  0
  3 16  1  0
  4  7  1  0
  5  2  1  0
  6  2  1  0
  7  5  1  0
  8 23  1  0
  9  8  1  0
 10  9  1  0
 11  3  1  0
  8 12  1  1
 11 13  1  1
 14  2  1  0
 15  5  1  0
 16 15  1  0
 17 19  1  0
 18 13  2  0
 19 12  1  0
 20  6  1  0
 21 18  1  0
 22  4  1  0
 24 23  1  1
 24 25  1  0
 25 14  1  0
 26 29  1  0
 27 30  1  0
 28 22  1  0
 29  6  1  0
 30 13  1  0
 31 21  2  0
  4 32  1  1
  6 33  1  1
  2 34  1  1
  9 35  1  6
 10 36  1  6
 17 37  1  1
  3 38  1  1
 14 39  1  1
 15 40  1  6
 41 34  1  0
 19 42  1  6
  5 43  1  6
  7 44  1  1
 20 24  1  0
  7 26  1  0
  4  3  1  0
 11 28  1  0
 10 17  1  0
 27 21  1  0
M  END
> <chembl_id>
CHEMBL1889436

> <chembl_pref_name>
OUABAIN OCTAHYDRATE
