
     RDKit          2D

 19 19  0  0  0  0  0  0  0  0999 V2000
    4.2792    1.3708    0.0000 N   0  0  0  0  0  0  0  0  0  0  0  0
    2.7917   -0.4375    0.0000 O   0  0  0  0  0  0  0  0  0  0  0  0
    3.9667    0.5375    0.0000 C   0  0  0  0  0  0  0  0  0  0  0  0
    3.0917    0.3875    0.0000 C   0  0  0  0  0  0  0  0  0  0  0  0
   -2.6458    0.6708    0.0000 N   0  0  0  0  0  0  0  0  0  0  0  0
   -1.8833    0.2208    0.0000 C   0  0  0  0  0  0  0  0  0  0  0  0
   -3.4333    0.2000    0.0000 C   0  0  0  0  0  0  0  0  0  0  0  0
   -1.8625   -0.6667    0.0000 C   0  0  0  0  0  0  0  0  0  0  0  0
   -3.4083   -0.6792    0.0000 C   0  0  0  0  0  0  0  0  0  0  0  0
   -2.6083   -1.1292    0.0000 C   0  0  0  0  0  0  0  0  0  0  0  0
   -4.2333    0.5958    0.0000 O   0  0  0  0  0  0  0  0  0  0  0  0
   -1.1000    0.6708    0.0000 C   0  0  0  0  0  0  0  0  0  0  0  0
   -2.6333    1.5625    0.0000 O   0  0  0  0  0  0  0  0  0  0  0  0
   -2.5625   -2.0167    0.0000 C   0  0  0  0  0  0  0  0  0  0  0  0
   -0.3208    0.2208    0.0000 C   0  0  0  0  0  0  0  0  0  0  0  0
   -1.1000    1.5750    0.0000 C   0  0  0  0  0  0  0  0  0  0  0  0
   -0.3208    2.0208    0.0000 C   0  0  0  0  0  0  0  0  0  0  0  0
    0.4667    0.6708    0.0000 C   0  0  0  0  0  0  0  0  0  0  0  0
    0.4792    1.5750    0.0000 C   0  0  0  0  0  0  0  0  0  0  0  0
  2  4  1  0
  3  1  1  0
  4  3  1  0
  6  5  1  0
  7  5  1  0
  8  6  2  0
  9  7  1  0
 10  9  2  0
 11  7  2  0
 12  6  1  0
 13  5  1  0
 14 10  1  0
 15 12  1  0
 16 12  1  0
 17 16  1  0
 18 15  1  0
 19 17  1  0
  8 10  1  0
 18 19  1  0
M  END
> <chembl_id>
CHEMBL242580

> <chembl_pref_name>
CICLOPIROX OLAMINE
