
     RDKit          2D

 27 29  0  0  0  0  0  0  0  0999 V2000
    0.8042   -2.3042    0.0000 C   0  0  0  0  0  0  0  0  0  0  0  0
    0.2042   -1.9292    0.0000 C   0  0  0  0  0  0  0  0  0  0  0  0
    1.4292   -1.9542    0.0000 C   0  0  0  0  0  0  0  0  0  0  0  0
    0.8000   -2.9917    0.0000 C   0  0  0  0  0  0  0  0  0  0  0  0
   -0.4083   -2.2792    0.0000 C   0  0  0  0  0  0  0  0  0  0  0  0
    0.2042   -1.2292    0.0000 Cl  0  0  0  0  0  0  0  0  0  0  0  0
    1.4417   -1.2417    0.0000 C   0  0  0  0  0  0  0  0  0  0  0  0
    2.0375   -2.3125    0.0000 C   0  0  0  0  0  0  0  0  0  0  0  0
    1.4000   -3.3750    0.0000 C   0  0  0  0  0  0  0  0  0  0  0  0
    0.1792   -3.3417    0.0000 C   0  0  0  0  0  0  0  0  0  0  0  0
   -1.0250   -1.9125    0.0000 C   0  0  0  0  0  0  0  0  0  0  0  0
   -0.4250   -3.0000    0.0000 C   0  0  0  0  0  0  0  0  0  0  0  0
    0.7792   -4.4167    0.0000 C   0  0  0  0  0  0  0  0  0  0  0  0
    2.6750   -1.2667    0.0000 C   0  0  0  0  0  0  0  0  0  0  0  0
   -1.6583   -2.9750    0.0000 C   0  0  0  0  0  0  0  0  0  0  0  0
    0.1667   -4.0542    0.0000 C   0  0  0  0  0  0  0  0  0  0  0  0
    2.0625   -0.9000    0.0000 C   0  0  0  0  0  0  0  0  0  0  0  0
    2.6542   -1.9667    0.0000 C   0  0  0  0  0  0  0  0  0  0  0  0
   -1.6458   -2.2542    0.0000 C   0  0  0  0  0  0  0  0  0  0  0  0
   -1.0500   -3.3375    0.0000 C   0  0  0  0  0  0  0  0  0  0  0  0
    1.4000   -4.0792    0.0000 C   0  0  0  0  0  0  0  0  0  0  0  0
    3.3000   -0.9167    0.0000 O   0  0  0  0  0  0  0  0  0  0  0  0
    0.7667   -5.1375    0.0000 O   0  0  0  0  0  0  0  0  0  0  0  0
   -2.2833   -3.3167    0.0000 O   0  0  0  0  0  0  0  0  0  0  0  0
    3.9042   -1.2792    0.0000 C   0  0  0  0  0  0  0  0  0  0  0  0
    0.1417   -5.4875    0.0000 C   0  0  0  0  0  0  0  0  0  0  0  0
   -2.2958   -4.0292    0.0000 C   0  0  0  0  0  0  0  0  0  0  0  0
  2  1  2  0
  3  1  1  0
  4  1  1  0
  5  2  1  0
  6  2  1  0
  7  3  2  0
  8  3  1  0
  9  4  2  0
 10  4  1  0
 11  5  2  0
 12  5  1  0
 13 16  1  0
 14 18  1  0
 15 20  1  0
 16 10  2  0
 17  7  1  0
 18  8  2  0
 19 11  1  0
 20 12  2  0
 21  9  1  0
 22 14  1  0
 23 13  1  0
 24 15  1  0
 25 22  1  0
 26 23  1  0
 27 24  1  0
 13 21  2  0
 14 17  2  0
 15 19  2  0
M  END
> <chembl_id>
CHEMBL1200761

> <chembl_pref_name>
CHLOROTRIANISENE
