
     RDKit          2D

 31 34  0  0  0  0  0  0  0  0999 V2000
   -3.6314   -0.2034    0.0000 C   0  0  0  0  0  0  0  0  0  0  0  0
   -2.9169    0.2091    0.0000 C   0  0  0  0  0  0  0  0  0  0  0  0
   -2.9169    1.0341    0.0000 C   0  0  0  0  0  0  0  0  0  0  0  0
   -3.6314    1.4466    0.0000 C   0  0  0  0  0  0  0  0  0  0  0  0
   -4.3459    1.0341    0.0000 C   0  0  0  0  0  0  0  0  0  0  0  0
   -4.3459    0.2091    0.0000 C   0  0  0  0  0  0  0  0  0  0  0  0
   -2.2025   -0.2034    0.0000 C   0  0  0  0  0  0  0  0  0  0  0  0
   -1.4880    0.2090    0.0000 C   0  0  0  0  0  0  0  0  0  0  0  0
   -1.4880    1.0340    0.0000 C   0  0  0  0  0  0  0  0  0  0  0  0
   -2.2025    1.4466    0.0000 C   0  0  0  0  0  0  0  0  0  0  0  0
   -0.7735   -0.2035    0.0000 C   0  0  0  0  0  0  0  0  0  0  0  0
   -0.0590    1.0340    0.0000 C   0  0  0  0  0  0  0  0  0  0  0  0
   -0.7735    1.4465    0.0000 C   0  0  0  0  0  0  0  0  0  0  0  0
   -1.4880   -1.4410    0.0000 C   0  0  0  0  0  0  0  0  0  0  0  0
   -0.7735   -1.0285    0.0000 N   0  0  0  0  0  0  0  0  0  0  0  0
    1.3699    1.0340    0.0000 C   0  0  0  0  0  0  0  0  0  0  0  0
    0.6555    1.4465    0.0000 C   0  0  0  0  0  0  0  0  0  0  0  0
    0.6555    2.2715    0.0000 C   0  0  0  0  0  0  0  0  0  0  0  0
    1.3699    2.6840    0.0000 C   0  0  0  0  0  0  0  0  0  0  0  0
    2.0844    2.2715    0.0000 C   0  0  0  0  0  0  0  0  0  0  0  0
    2.0844    1.4465    0.0000 C   0  0  0  0  0  0  0  0  0  0  0  0
    3.5134    2.2715    0.0000 O   0  0  0  0  0  0  0  0  0  0  0  0
    2.7989    2.6840    0.0000 C   0  0  0  0  0  0  0  0  0  0  0  0
   -1.3165   -2.2479    0.0000 C   0  0  0  0  0  0  0  0  0  0  0  0
   -0.4960   -2.3342    0.0000 C   0  0  0  0  0  0  0  0  0  0  0  0
   -0.1604   -1.5805    0.0000 N   0  0  0  0  0  0  0  0  0  0  0  0
   -4.0439    2.1611    0.0000 C   0  0  0  0  0  0  0  0  0  0  0  0
   -3.1701    2.1306    0.0000 C   0  0  0  0  0  0  0  0  0  0  0  0
   -4.0927   -0.8874    0.0000 C   0  0  0  0  0  0  0  0  0  0  0  0
   -3.2189   -0.9179    0.0000 C   0  0  0  0  0  0  0  0  0  0  0  0
    2.7989    3.5090    0.0000 O   0  0  0  0  0  0  0  0  0  0  0  0
  1  2  1  0
  2  3  2  0
  3  4  1  0
  4  5  1  0
  5  6  1  0
  1  6  1  0
  7  8  2  0
  8  9  1  0
  9 10  2  0
  2  7  1  0
  3 10  1  0
 12 13  2  0
  9 13  1  0
  8 11  1  0
 14 15  1  0
 15 11  1  0
 16 17  2  0
 12 17  1  0
 18 19  2  0
 19 20  1  0
 20 21  2  0
 16 21  1  0
 17 18  1  0
 22 23  1  0
 20 23  1  0
 24 25  1  0
 25 26  2  0
 14 24  2  0
 15 26  1  0
  4 27  1  0
  4 28  1  0
  1 29  1  0
  1 30  1  0
 23 31  2  0
M  END
> <chembl_id>
CHEMBL2105648

> <chembl_pref_name>
PALOVAROTENE
