
     RDKit          2D

 26 27  0  0  0  0  0  0  0  0999 V2000
   -2.4867   -0.6600    0.0000 S   0  0  0  0  0  0  0  0  0  0  0  0
    4.5348   -0.3825    0.0000 C   0  0  0  0  0  0  0  0  0  0  0  0
    3.9828   -0.9956    0.0000 N   0  0  0  0  0  0  0  0  0  0  0  0
   -1.7722   -1.0725    0.0000 N   0  0  0  0  0  0  0  0  0  0  0  0
    5.3553   -0.4687    0.0000 N   0  0  0  0  0  0  0  0  0  0  0  0
    5.8402    0.1987    0.0000 C   0  0  0  0  0  0  0  0  0  0  0  0
    4.1223    0.3320    0.0000 S   0  0  0  0  0  0  0  0  0  0  0  0
    3.2291   -0.6600    0.0000 C   0  0  0  0  0  0  0  0  0  0  0  0
   -3.2011   -0.2475    0.0000 C   0  0  0  0  0  0  0  0  0  0  0  0
    3.3153    0.1605    0.0000 C   0  0  0  0  0  0  0  0  0  0  0  0
   -2.0742    0.0544    0.0000 O   0  0  0  0  0  0  0  0  0  0  0  0
   -2.8992   -1.3745    0.0000 O   0  0  0  0  0  0  0  0  0  0  0  0
   -1.0577   -0.6600    0.0000 C   0  0  0  0  0  0  0  0  0  0  0  0
    5.5047    0.9524    0.0000 N   0  0  0  0  0  0  0  0  0  0  0  0
   -3.2011    0.5775    0.0000 C   0  0  0  0  0  0  0  0  0  0  0  0
   -3.9156   -0.6600    0.0000 C   0  0  0  0  0  0  0  0  0  0  0  0
    6.6607    0.1125    0.0000 N   0  0  0  0  0  0  0  0  0  0  0  0
   -0.3433   -1.0725    0.0000 N   0  0  0  0  0  0  0  0  0  0  0  0
   -4.6301    0.5775    0.0000 C   0  0  0  0  0  0  0  0  0  0  0  0
   -4.6301   -0.2475    0.0000 C   0  0  0  0  0  0  0  0  0  0  0  0
   -3.9156    0.9900    0.0000 C   0  0  0  0  0  0  0  0  0  0  0  0
    1.8002   -0.6600    0.0000 S   0  0  0  0  0  0  0  0  0  0  0  0
   -5.3446    0.9900    0.0000 Br  0  0  0  0  0  0  0  0  0  0  0  0
    2.5146   -1.0725    0.0000 C   0  0  0  0  0  0  0  0  0  0  0  0
    0.3712   -0.6600    0.0000 C   0  0  0  0  0  0  0  0  0  0  0  0
    1.0857   -1.0725    0.0000 C   0  0  0  0  0  0  0  0  0  0  0  0
  2  3  2  0
  3  8  1  0
  4  1  1  0
  5  2  1  0
  6  5  2  0
  7 10  1  0
  8 24  1  0
  9  1  1  0
 10  8  2  0
 11  1  2  0
 12  1  2  0
 13  4  2  0
 14  6  1  0
 15  9  2  0
 16  9  1  0
 17  6  1  0
 18 13  1  0
 19 20  1  0
 20 16  2  0
 21 15  1  0
 22 26  1  0
 23 19  1  0
 24 22  1  0
 25 18  1  0
 26 25  1  0
 21 19  2  0
  2  7  1  0
M  END
> <chembl_id>
CHEMBL1742471

> <chembl_pref_name>
EBROTIDINE
