
     RDKit          2D

  3  0  0  0  0  0  0  0  0  0999 V2000
    0.2792   -3.5875    0.0000 Mg  0  0  0  0  0 15  0  0  0  0  0  0
   -0.7500   -3.5875    0.0000 Cl  0  0  0  0  0  0  0  0  0  0  0  0
    1.4667   -3.6167    0.0000 Cl  0  0  0  0  0  0  0  0  0  0  0  0
M  CHG  3   1   2   2  -1   3  -1
M  END
> <chembl_id>
CHEMBL2219642

> <chembl_pref_name>
MAGNESIUM CHLORIDE ANHYDROUS
