
     RDKit          2D

  8  6  0  0  0  0  0  0  0  0999 V2000
    0.9792    1.2458    0.0000 Cl  0  0  0  0  0  0  0  0  0  0  0  0
   -1.3625   -0.1167    0.0000 N   0  0  0  0  0  0  0  0  0  0  0  0
    2.2292   -1.3542    0.0000 O   0  0  0  0  0  0  0  0  0  0  0  0
    0.0667   -0.1167    0.0000 C   0  0  0  0  0  0  0  0  0  0  0  0
   -1.6833   -1.5042    0.0000 C   0  0  0  0  0  0  0  0  0  0  0  0
   -2.0833    1.1208    0.0000 C   0  0  0  0  0  0  0  0  0  0  0  0
   -2.3375   -1.1542    0.0000 C   0  0  0  0  0  0  0  0  0  0  0  0
    0.7875   -1.3542    0.0000 C   0  0  0  0  0  0  0  0  0  0  0  0
  3  8  1  0
  4  2  1  0
  5  2  1  0
  6  2  1  0
  7  2  1  0
  8  4  1  0
M  CHG  2   1  -1   2   1
M  END
> <chembl_id>
CHEMBL282468

> <chembl_pref_name>
CHOLINE CHLORIDE
