
     RDKit          2D

 18 12  0  0  0  0  0  0  0  0999 V2000
   -0.0958    3.1583    0.0000 O   0  0  0  0  0  0  0  0  0  0  0  0
    3.1875   -1.3250    0.0000 S   0  0  0  0  0  0  0  0  0  0  0  0
    4.1000   -1.3667    0.0000 O   0  0  0  0  0  0  0  0  0  0  0  0
    3.2542   -0.4375    0.0000 O   0  0  0  0  0  0  0  0  0  0  0  0
    2.2875   -1.4000    0.0000 O   0  0  0  0  0  0  0  0  0  0  0  0
    3.2667   -2.2250    0.0000 O   0  0  0  0  0  0  0  0  0  0  0  0
   -0.4333   -2.2000    0.0000 S   0  0  0  0  0  0  0  0  0  0  0  0
    0.4667   -2.2417    0.0000 O   0  0  0  0  0  0  0  0  0  0  0  0
   -0.3625   -1.3042    0.0000 O   0  0  0  0  0  0  0  0  0  0  0  0
   -1.3208   -2.2667    0.0000 O   0  0  0  0  0  0  0  0  0  0  0  0
   -0.3583   -3.0917    0.0000 O   0  0  0  0  0  0  0  0  0  0  0  0
   -3.3333   -0.5000    0.0000 S   0  0  0  0  0  0  0  0  0  0  0  0
   -2.4208   -0.5417    0.0000 O   0  0  0  0  0  0  0  0  0  0  0  0
   -3.2625    0.4000    0.0000 O   0  0  0  0  0  0  0  0  0  0  0  0
   -3.2625   -1.3917    0.0000 O   0  0  0  0  0  0  0  0  0  0  0  0
   -4.2333   -0.5750    0.0000 O   0  0  0  0  0  0  0  0  0  0  0  0
   -1.1208    1.6583    0.0000 Al  0  0  0  0  0 15  0  0  0  0  0  0
    1.2875    0.6583    0.0000 Al  0  0  0  0  0 15  0  0  0  0  0  0
  3  2  1  0
  4  2  1  0
  5  2  2  0
  6  2  2  0
  8  7  1  0
  9  7  1  0
 10  7  2  0
 11  7  2  0
 13 12  1  0
 14 12  1  0
 15 12  2  0
 16 12  2  0
M  CHG  8   3  -1   4  -1   8  -1   9  -1  13  -1  14  -1  17   3  18   3
M  END
> <chembl_id>
CHEMBL3833332

> <chembl_pref_name>
ALUMINUM SULFATE
