
     RDKit          2D

 15 15  0  0  0  0  0  0  0  0999 V2000
   -2.7083   -1.5042    0.0000 C   0  0  0  0  0  0  0  0  0  0  0  0
   -2.2375    0.5375    0.0000 N   0  0  0  0  0  0  0  0  0  0  0  0
   -1.5583   -0.7167    0.0000 C   0  0  0  0  0  0  0  0  0  0  0  0
   -2.2833   -2.8792    0.0000 S   0  0  0  0  0  0  0  0  0  0  0  0
   -1.4375    1.7583    0.0000 C   0  0  0  0  0  0  0  0  0  0  0  0
    2.7375   -0.8250    0.0000 C   0  0  0  0  0  0  0  0  0  0  0  0
   -4.0708   -1.0292    0.0000 O   0  0  0  0  0  0  0  0  0  0  0  0
   -2.1208    3.0083    0.0000 O   0  0  0  0  0  0  0  0  0  0  0  0
    1.9750   -2.0417    0.0000 O   0  0  0  0  0  0  0  0  0  0  0  0
    0.6375    0.4333    0.0000 S   0  0  0  0  0  0  0  0  0  0  0  0
   -0.4208   -1.5375    0.0000 C   0  0  0  0  0  0  0  0  0  0  0  0
   -0.8625   -2.8792    0.0000 C   0  0  0  0  0  0  0  0  0  0  0  0
    4.1875   -0.8292    0.0000 O   0  0  0  0  0  0  0  0  0  0  0  0
   -0.0333    1.7583    0.0000 C   0  0  0  0  0  0  0  0  0  0  0  0
    2.0292    0.4333    0.0000 C   0  0  0  0  0  0  0  0  0  0  0  0
  2  3  1  0
  3  1  1  0
  4  1  1  0
  5  2  1  0
  6 15  1  0
  7  1  2  0
  8  5  2  0
  9  6  2  0
 10 14  1  0
 11  3  1  0
 12  4  1  0
 13  6  1  0
 14  5  1  0
 15 10  1  0
 11 12  1  0
M  END
> <chembl_id>
CHEMBL1697744

> <chembl_pref_name>
ERDOSTEINE
