
     RDKit          2D

 34 38  0  0  1  0  0  0  0  0999 V2000
    4.2667   -4.3958    0.0000 C   0  0  0  0  0  0  0  0  0  0  0  0
    3.5917   -4.6083    0.0000 C   0  0  0  0  0  0  0  0  0  0  0  0
    2.3583   -5.3042    0.0000 C   0  0  0  0  0  0  0  0  0  0  0  0
    3.5833   -5.3125    0.0000 C   0  0  0  0  0  0  0  0  0  0  0  0
    1.7458   -5.6542    0.0000 C   0  0  0  0  0  0  0  0  0  0  0  0
    2.9708   -5.6625    0.0000 C   0  0  0  0  0  0  0  0  0  0  0  0
    4.6750   -4.9667    0.0000 C   0  0  0  0  0  0  0  0  0  0  0  0
    1.7458   -6.3667    0.0000 C   0  0  0  0  0  0  0  0  0  0  0  0
    4.6833   -3.8292    0.0000 O   0  0  0  0  0  0  0  0  0  0  0  0
    2.3625   -4.5958    0.0000 C   0  0  0  0  0  0  0  0  0  0  0  0
    2.9792   -4.2458    0.0000 C   0  0  0  0  0  0  0  0  0  0  0  0
    5.3500   -4.0500    0.0000 C   0  0  0  0  0  0  0  0  0  0  0  0
    5.3500   -4.7542    0.0000 O   0  0  0  0  0  0  0  0  0  0  0  0
    4.2542   -5.5417    0.0000 C   0  0  0  0  0  0  0  0  0  0  0  0
    4.2625   -3.6875    0.0000 C   0  0  0  0  0  0  0  0  0  0  0  0
    1.1333   -6.7167    0.0000 C   0  0  0  0  0  0  0  0  0  0  0  0
    2.9667   -6.3708    0.0000 C   0  0  0  0  0  0  0  0  0  0  0  0
    1.1333   -5.3042    0.0000 C   0  0  0  0  0  0  0  0  0  0  0  0
    2.3542   -6.7208    0.0000 C   0  0  0  0  0  0  0  0  0  0  0  0
    0.5250   -6.3667    0.0000 C   0  0  0  0  0  0  0  0  0  0  0  0
    2.3542   -6.0125    0.0000 F   0  0  0  0  0  0  0  0  0  0  0  0
    3.6458   -3.3375    0.0000 O   0  0  0  0  0  0  0  0  0  0  0  0
   -0.0917   -6.7167    0.0000 O   0  0  0  0  0  0  0  0  0  0  0  0
    3.5875   -3.9000    0.0000 C   0  0  0  0  0  0  0  0  0  0  0  0
    0.5250   -5.6542    0.0000 C   0  0  0  0  0  0  0  0  0  0  0  0
    1.7500   -4.2375    0.0000 O   0  0  0  0  0  0  0  0  0  0  0  0
    1.7417   -4.9500    0.0000 C   0  0  0  0  0  0  0  0  0  0  0  0
    4.8708   -3.3250    0.0000 C   0  0  0  0  0  0  0  0  0  0  0  0
    4.8667   -2.6167    0.0000 Cl  0  0  0  0  0  0  0  0  0  0  0  0
    5.7000   -3.4292    0.0000 C   0  0  0  0  0  0  0  0  0  0  0  0
    6.0542   -4.0500    0.0000 C   0  0  0  0  0  0  0  0  0  0  0  0
    5.2577   -5.7794    0.0000 H   0  0  0  0  0  0  0  0  0  0  0  0
    3.8343   -6.1669    0.0000 H   0  0  0  0  0  0  0  0  0  0  0  0
    3.6781   -6.3080    0.0000 H   0  0  0  0  0  0  0  0  0  0  0  0
  2  1  1  0
  3  6  1  0
  4  2  1  0
  5  3  1  0
  6  4  1  0
  7  1  1  0
  8  5  1  0
  1  9  1  0
 10 11  1  0
 11  2  1  0
 12  9  1  0
  7 13  1  0
 14  7  1  0
  1 15  1  1
 16  8  2  0
 17  6  1  0
 18  5  1  0
 19 17  1  0
 20 16  1  0
  3 21  1  6
 22 15  2  0
 23 20  2  0
  2 24  1  1
 25 18  1  0
 10 26  1  1
  5 27  1  1
 28 15  1  0
 29 28  1  0
 30 12  1  0
 31 12  1  0
 12 13  1  0
 14  4  1  0
 10  3  1  0
 19  8  1  0
 20 25  1  0
  7 32  1  1
  6 33  1  1
  4 34  1  6
M  END
> <chembl_id>
CHEMBL1200845

> <chembl_pref_name>
HALCINONIDE
