
     RDKit          2D

 16 16  0  0  0  0  0  0  0  0999 V2000
    5.5042   -0.2625    0.0000 N   0  0  0  0  0  0  0  0  0  0  0  0
    4.8917    0.0917    0.0000 O   0  0  0  0  0  0  0  0  0  0  0  0
    6.1208    0.0958    0.0000 O   0  0  0  0  0  0  0  0  0  0  0  0
    5.5042   -0.9667    0.0000 C   0  0  0  0  0  0  0  0  0  0  0  0
    6.0792   -1.3875    0.0000 N   0  0  0  0  0  0  0  0  0  0  0  0
    4.9333   -1.3875    0.0000 C   0  0  0  0  0  0  0  0  0  0  0  0
    5.8625   -2.0625    0.0000 C   0  0  0  0  0  0  0  0  0  0  0  0
    6.6917   -1.0292    0.0000 C   0  0  0  0  0  0  0  0  0  0  0  0
    5.1500   -2.0625    0.0000 N   0  0  0  0  0  0  0  0  0  0  0  0
    6.4667   -2.4167    0.0000 C   0  0  0  0  0  0  0  0  0  0  0  0
    7.3083   -1.3750    0.0000 C   0  0  0  0  0  0  0  0  0  0  0  0
    7.9167   -1.0125    0.0000 S   0  0  0  0  0  0  0  0  0  0  0  0
    8.2667   -0.3917    0.0000 O   0  0  0  0  0  0  0  0  0  0  0  0
    7.5542   -0.3917    0.0000 O   0  0  0  0  0  0  0  0  0  0  0  0
    8.5333   -1.3583    0.0000 C   0  0  0  0  0  0  0  0  0  0  0  0
    9.1417   -1.0000    0.0000 C   0  0  0  0  0  0  0  0  0  0  0  0
  2  1  1  0
  1  3  2  0
  1  4  1  0
  5  4  1  0
  6  4  2  0
  7  5  1  0
  8  5  1  0
  9  6  1  0
 10  7  1  0
  7  9  2  0
 11  8  1  0
 12 11  1  0
 13 12  2  0
 14 12  2  0
 15 12  1  0
 16 15  1  0
M  CHG  2   1   1   2  -1
M  END
> <chembl_id>
CHEMBL1220

> <chembl_pref_name>
TINIDAZOLE
