
     RDKit          2D

 31 32  0  0  0  0  0  0  0  0999 V2000
   -1.2208   -0.2042    0.0000 C   0  0  0  0  0  0  0  0  0  0  0  0
   -1.8458   -0.5667    0.0000 C   0  0  0  0  0  0  0  0  0  0  0  0
   -1.8458   -1.2875    0.0000 C   0  0  0  0  0  0  0  0  0  0  0  0
   -2.4833   -1.6542    0.0000 C   0  0  0  0  0  0  0  0  0  0  0  0
   -3.1125   -1.3000    0.0000 C   0  0  0  0  0  0  0  0  0  0  0  0
    3.0417   -0.5542    0.0000 C   0  0  0  0  0  0  0  0  0  0  0  0
    2.4417   -0.2000    0.0000 N   0  0  0  0  0  0  0  0  0  0  0  0
   -1.2333    0.5125    0.0000 O   0  0  0  0  0  0  0  0  0  0  0  0
    3.6667   -0.2167    0.0000 C   0  0  0  0  0  0  0  0  0  0  0  0
   -2.4833   -0.2042    0.0000 C   0  0  0  0  0  0  0  0  0  0  0  0
   -3.1125   -0.5667    0.0000 C   0  0  0  0  0  0  0  0  0  0  0  0
    3.6750    0.4875    0.0000 C   0  0  0  0  0  0  0  0  0  0  0  0
   -0.6208   -0.5667    0.0000 O   0  0  0  0  0  0  0  0  0  0  0  0
    3.7000    1.9208    0.0000 C   0  0  0  0  0  0  0  0  0  0  0  0
   -2.4833   -2.3750    0.0000 O   0  0  0  0  0  0  0  0  0  0  0  0
    4.3000    0.8333    0.0000 C   0  0  0  0  0  0  0  0  0  0  0  0
    3.0542    0.8458    0.0000 C   0  0  0  0  0  0  0  0  0  0  0  0
   -3.7333   -1.6542    0.0000 O   0  0  0  0  0  0  0  0  0  0  0  0
    4.3000    1.5708    0.0000 C   0  0  0  0  0  0  0  0  0  0  0  0
    3.0625    1.5583    0.0000 C   0  0  0  0  0  0  0  0  0  0  0  0
    3.7167    2.6333    0.0000 O   0  0  0  0  0  0  0  0  0  0  0  0
    2.4375    0.5083    0.0000 C   0  0  0  0  0  0  0  0  0  0  0  0
    1.8292   -0.5542    0.0000 C   0  0  0  0  0  0  0  0  0  0  0  0
    3.0292   -1.2750    0.0000 C   0  0  0  0  0  0  0  0  0  0  0  0
    0.0042   -0.2125    0.0000 C   0  0  0  0  0  0  0  0  0  0  0  0
   -3.0958   -2.7292    0.0000 C   0  0  0  0  0  0  0  0  0  0  0  0
   -4.3458   -1.3042    0.0000 C   0  0  0  0  0  0  0  0  0  0  0  0
    4.3417    2.9625    0.0000 C   0  0  0  0  0  0  0  0  0  0  0  0
    1.2292   -0.2125    0.0000 C   0  0  0  0  0  0  0  0  0  0  0  0
    0.6042   -0.5667    0.0000 C   0  0  0  0  0  0  0  0  0  0  0  0
    1.8167    0.8458    0.0000 C   0  0  0  0  0  0  0  0  0  0  0  0
  2  1  1  0
  3  2  1  0
  4  3  2  0
  5 11  2  0
  6  7  1  0
  7 23  1  0
  8  1  2  0
  9  6  1  0
 10  2  2  0
 11 10  1  0
 12  9  1  0
 13  1  1  0
 14 19  2  0
 15  4  1  0
 16 12  2  0
 17 12  1  0
 18  5  1  0
 19 16  1  0
 20 17  2  0
 21 14  1  0
 22  7  1  0
 23 29  1  0
 24  6  1  0
 25 13  1  0
 26 15  1  0
 27 18  1  0
 28 21  1  0
 29 30  1  0
 30 25  1  0
 31 22  1  0
  4  5  1  0
 20 14  1  0
M  END
> <chembl_id>
CHEMBL282121

> <chembl_pref_name>
MEBEVERINE
