
     RDKit          2D

 28 32  0  0  0  0  0  0  0  0999 V2000
  -11.9920   -1.5027    0.0000 C   0  0  0  0  0  0  0  0  0  0  0  0
  -11.2775   -1.0902    0.0000 N   0  0  0  0  0  0  0  0  0  0  0  0
  -11.2775   -0.2652    0.0000 C   0  0  0  0  0  0  0  0  0  0  0  0
  -11.9920    0.1473    0.0000 C   0  0  0  0  0  0  0  0  0  0  0  0
  -12.7064   -0.2652    0.0000 C   0  0  0  0  0  0  0  0  0  0  0  0
  -12.7064   -1.0902    0.0000 C   0  0  0  0  0  0  0  0  0  0  0  0
  -10.5630    0.1473    0.0000 C   0  0  0  0  0  0  0  0  0  0  0  0
   -9.8485   -0.2652    0.0000 C   0  0  0  0  0  0  0  0  0  0  0  0
   -9.8485   -1.0902    0.0000 C   0  0  0  0  0  0  0  0  0  0  0  0
  -10.5630   -1.5027    0.0000 C   0  0  0  0  0  0  0  0  0  0  0  0
   -9.1341   -1.5026    0.0000 O   0  0  0  0  0  0  0  0  0  0  0  0
   -9.1341    0.1474    0.0000 H   0  0  0  0  0  0  0  0  0  0  0  0
  -11.2775    0.5598    0.0000 H   0  0  0  0  0  0  0  0  0  0  0  0
  -13.4209   -0.6777    0.0000 H   0  0  0  0  0  0  0  0  0  0  0  0
  -13.1189    0.4493    0.0000 O   0  0  0  0  0  0  0  0  0  0  0  0
  -13.9439    0.4493    0.0000 C   0  0  0  0  0  0  0  0  0  0  0  0
  -14.3564    1.1638    0.0000 C   0  0  0  0  0  0  0  0  0  0  0  0
  -14.3564   -0.2652    0.0000 O   0  0  0  0  0  0  0  0  0  0  0  0
  -14.0209    1.9175    0.0000 C   0  0  0  0  0  0  0  0  0  0  0  0
  -14.6340    2.4695    0.0000 N   0  0  0  0  0  0  0  0  0  0  0  0
  -15.3484    2.0570    0.0000 C   0  0  0  0  0  0  0  0  0  0  0  0
  -15.1769    1.2500    0.0000 C   0  0  0  0  0  0  0  0  0  0  0  0
  -16.1331    2.3119    0.0000 C   0  0  0  0  0  0  0  0  0  0  0  0
  -16.7462    1.7599    0.0000 C   0  0  0  0  0  0  0  0  0  0  0  0
  -16.5746    0.9529    0.0000 C   0  0  0  0  0  0  0  0  0  0  0  0
  -15.7900    0.6980    0.0000 C   0  0  0  0  0  0  0  0  0  0  0  0
  -11.9920   -2.3277    0.0000 H   0  0  0  0  0  0  0  0  0  0  0  0
  -11.3510   -1.8549    0.0000 C   0  0  0  0  0  0  0  0  0  0  0  0
  1  2  1  0
  3  4  1  0
  4  5  1  0
  5  6  1  0
  6  1  1  0
 10  2  1  0
  2  3  1  0
  3  7  1  0
  7  8  1  0
  8  9  1  0
  9 10  1  0
  9 11  2  0
  8 12  1  1
  3 13  1  1
  5 14  1  1
  5 15  1  0
 15 16  1  0
 16 17  1  0
 16 18  2  0
 17 19  2  0
 17 22  1  0
 19 20  1  0
 20 21  1  0
 21 23  1  0
 22 21  2  0
 26 22  1  0
 23 24  2  0
 24 25  1  0
 25 26  2  0
  1 27  1  1
  1 28  1  0
  8 28  1  0
M  END
> <chembl_id>
CHEMBL2368925

> <chembl_pref_name>
DOLASETRON
