
     RDKit          2D

  9  7  0  0  0  0  0  0  0  0999 V2000
    1.3375   -1.0792    0.0000 Cl  0  0  0  0  0  0  0  0  0  0  0  0
   -0.7833   -1.3792    0.0000 N   0  0  0  0  0  0  0  0  0  0  0  0
    0.4792    0.7750    0.0000 C   0  0  0  0  0  0  0  0  0  0  0  0
   -0.7833    0.0500    0.0000 C   0  0  0  0  0  0  0  0  0  0  0  0
    0.4792    2.2208    0.0000 O   0  0  0  0  0  0  0  0  0  0  0  0
    1.7167    0.0500    0.0000 O   0  0  0  0  0  0  0  0  0  0  0  0
    0.5917   -1.7417    0.0000 C   0  0  0  0  0  0  0  0  0  0  0  0
    0.2167   -2.3792    0.0000 C   0  0  0  0  0  0  0  0  0  0  0  0
   -2.0208   -2.0875    0.0000 C   0  0  0  0  0  0  0  0  0  0  0  0
  3  4  1  0
  4  2  1  0
  5  3  2  0
  6  3  1  0
  7  2  1  0
  8  2  1  0
  9  2  1  0
M  CHG  2   1  -1   2   1
M  END
> <chembl_id>
CHEMBL1201130

> <chembl_pref_name>
BETAINE HYDROCHLORIDE
