
     RDKit          2D

 18 16  0  0  0  0  0  0  0  0999 V2000
    3.9691   -6.5565    0.0000 P   0  0  0  0  0  0  0  0  0  0  0  0
    3.5476   -5.8298    0.0000 O   0  0  0  0  0  0  0  0  0  0  0  0
    4.6812   -6.9634    0.0000 O   0  0  0  0  0  0  0  0  0  0  0  0
    4.3713   -5.8298    0.0000 O   0  0  0  0  0  0  0  0  0  0  0  0
    3.2522   -6.9634    0.0000 O   0  0  0  0  0  0  0  0  0  0  0  0
    2.8290   -4.5100    0.0000 P   0  0  0  0  0  0  0  0  0  0  0  0
    2.4076   -3.7834    0.0000 O   0  0  0  0  0  0  0  0  0  0  0  0
    3.5411   -4.9170    0.0000 O   0  0  0  0  0  0  0  0  0  0  0  0
    3.2312   -3.7834    0.0000 O   0  0  0  0  0  0  0  0  0  0  0  0
    2.1121   -4.9170    0.0000 O   0  0  0  0  0  0  0  0  0  0  0  0
   -1.1723   -4.7571    0.0000 N   0  0  0  0  0  0  0  0  0  0  0  0
   -0.3294   -4.7571    0.0000 C   0  0  0  0  0  0  0  0  0  0  0  0
   -0.7557   -3.4879    0.0000 N   0  0  0  0  0  0  0  0  0  0  0  0
   -1.4339   -3.9578    0.0000 C   0  0  0  0  0  0  0  0  0  0  0  0
   -0.0823   -3.9723    0.0000 C   0  0  0  0  0  0  0  0  0  0  0  0
    0.0872   -5.4692    0.0000 C   0  0  0  0  0  0  0  0  0  0  0  0
    1.3274   -6.1813    0.0000 N   0  0  0  0  0  0  0  0  0  0  0  0
    0.9059   -5.4692    0.0000 C   0  0  0  0  0  0  0  0  0  0  0  0
  2  1  2  0
  3  1  1  0
  4  1  1  0
  5  1  1  0
  7  6  2  0
  8  6  1  0
  9  6  1  0
 10  6  1  0
 12 11  1  0
 13 14  1  0
 14 11  2  0
 15 12  2  0
 16 12  1  0
 17 18  1  0
 18 16  1  0
 15 13  1  0
M  END
> <chembl_id>
CHEMBL3989520

> <chembl_pref_name>
HISTAMINE PHOSPHATE
