
     RDKit          2D

 31 34  0  0  0  0  0  0  0  0999 V2000
   -3.8766    1.3120    0.0000 N   0  0  0  0  0  0  0  0  0  0  0  0
   -4.5911    0.8995    0.0000 C   0  0  0  0  0  0  0  0  0  0  0  0
   -3.8766   -0.3380    0.0000 N   0  0  0  0  0  0  0  0  0  0  0  0
   -3.1622    0.0745    0.0000 C   0  0  0  0  0  0  0  0  0  0  0  0
   -3.1622    0.8995    0.0000 C   0  0  0  0  0  0  0  0  0  0  0  0
   -2.4477   -0.3380    0.0000 C   0  0  0  0  0  0  0  0  0  0  0  0
   -1.7332    0.0745    0.0000 N   0  0  0  0  0  0  0  0  0  0  0  0
   -2.4477    1.3120    0.0000 O   0  0  0  0  0  0  0  0  0  0  0  0
   -3.8766   -1.1630    0.0000 N   0  0  0  0  0  0  0  0  0  0  0  0
   -3.1622   -1.5755    0.0000 C   0  0  0  0  0  0  0  0  0  0  0  0
   -2.4477   -1.1630    0.0000 C   0  0  0  0  0  0  0  0  0  0  0  0
   -1.0188   -1.1630    0.0000 C   0  0  0  0  0  0  0  0  0  0  0  0
   -1.0188   -0.3380    0.0000 C   0  0  0  0  0  0  0  0  0  0  0  0
   -0.3043    0.0745    0.0000 C   0  0  0  0  0  0  0  0  0  0  0  0
   -0.3043   -1.5755    0.0000 C   0  0  0  0  0  0  0  0  0  0  0  0
    0.4102   -1.1630    0.0000 C   0  0  0  0  0  0  0  0  0  0  0  0
    0.4102   -0.3380    0.0000 C   0  0  0  0  0  0  0  0  0  0  0  0
    0.4102    1.3120    0.0000 C   0  0  0  0  0  0  0  0  0  0  0  0
   -0.3043    0.8995    0.0000 O   0  0  0  0  0  0  0  0  0  0  0  0
    1.1246    0.0745    0.0000 C   0  0  0  0  0  0  0  0  0  0  0  0
    1.1246    0.8995    0.0000 N   0  0  0  0  0  0  0  0  0  0  0  0
   -5.0036   -1.6861    0.0000 C   0  0  0  0  0  0  0  0  0  0  0  0
   -4.5911   -2.4006    0.0000 C   0  0  0  0  0  0  0  0  0  0  0  0
   -3.8766   -2.8131    0.0000 C   0  0  0  0  0  0  0  0  0  0  0  0
   -3.1622   -2.4006    0.0000 N   0  0  0  0  0  0  0  0  0  0  0  0
    1.9092   -0.1804    0.0000 N   0  0  0  0  0  0  0  0  0  0  0  0
    2.3942    0.4870    0.0000 N   0  0  0  0  0  0  0  0  0  0  0  0
    1.9093    1.1544    0.0000 C   0  0  0  0  0  0  0  0  0  0  0  0
   -5.4161   -2.4005    0.0000 C   0  0  0  0  0  0  0  0  0  0  0  0
   -3.8766   -3.6381    0.0000 O   0  0  0  0  0  0  0  0  0  0  0  0
    3.2146    0.4008    0.0000 C   0  0  0  0  0  0  0  0  0  0  0  0
  1  2  1  0
  3  4  1  0
  4  5  1  0
  1  5  1  0
  6  7  1  0
  4  6  2  0
  5  8  2  0
  9 10  1  0
 10 11  2  0
  3  9  2  0
 11  6  1  0
 12 13  1  0
  7 13  1  0
 15 16  1  0
 16 17  2  0
 14 17  1  0
 12 15  2  0
 14 13  2  0
 18 19  1  0
 20 21  1  0
 19 14  1  0
 17 20  1  0
 22 23  1  0
 23 24  1  0
 24 25  1  0
 25 10  1  0
 26 27  1  0
 27 28  1  0
 20 26  2  0
 21 28  2  0
 22 29  1  0
 29 23  1  0
 24 30  2  0
 27 31  1  0
M  END
> <chembl_id>
CHEMBL4596392

> <chembl_pref_name>
CRAVACITINIB
