
     RDKit          2D

 15 14  0  0  0  0  0  0  0  0999 V2000
    0.6542   -3.1167    0.0000 P   0  0  0  0  0  0  0  0  0  0  0  0
    1.0042   -2.5000    0.0000 O   0  0  0  0  0  0  0  0  0  0  0  0
    3.1125   -3.1167    0.0000 N   0  0  0  0  0  0  0  0  0  0  0  0
    1.2750   -3.4667    0.0000 S   0  0  0  0  0  0  0  0  0  0  0  0
    1.8875   -3.1167    0.0000 C   0  0  0  0  0  0  0  0  0  0  0  0
    0.3000   -2.5000    0.0000 O   0  0  0  0  0  0  0  0  0  0  0  0
    0.0417   -3.4667    0.0000 O   0  0  0  0  0  0  0  0  0  0  0  0
    2.5000   -3.4667    0.0000 C   0  0  0  0  0  0  0  0  0  0  0  0
    2.7542   -2.4917    0.0000 C   0  0  0  0  0  0  0  0  0  0  0  0
    3.7250   -3.4667    0.0000 C   0  0  0  0  0  0  0  0  0  0  0  0
    3.4625   -2.4917    0.0000 C   0  0  0  0  0  0  0  0  0  0  0  0
   -0.4083   -2.5042    0.0000 C   0  0  0  0  0  0  0  0  0  0  0  0
   -0.5708   -3.1167    0.0000 C   0  0  0  0  0  0  0  0  0  0  0  0
   -0.7708   -1.8917    0.0000 C   0  0  0  0  0  0  0  0  0  0  0  0
   -1.1833   -3.4667    0.0000 C   0  0  0  0  0  0  0  0  0  0  0  0
  2  1  2  0
  3  8  1  0
  4  1  1  0
  5  4  1  0
  6  1  1  0
  7  1  1  0
  8  5  1  0
  9  3  1  0
 10  3  1  0
 11  3  1  0
 12  6  1  0
 13  7  1  0
 14 12  1  0
 15 13  1  0
M  CHG  1   3   1
M  END
> <chembl_id>
CHEMBL1201341

> <chembl_pref_name>
ECHOTHIOPHATE
