
     RDKit          2D

 18 19  0  0  0  0  0  0  0  0999 V2000
    3.7167   -5.1292    0.0000 C   0  0  0  0  0  0  0  0  0  0  0  0
    4.3375   -4.7750    0.0000 C   0  0  0  0  0  0  0  0  0  0  0  0
    3.1000   -4.7875    0.0000 C   0  0  0  0  0  0  0  0  0  0  0  0
    4.9542   -5.1167    0.0000 C   0  0  0  0  0  0  0  0  0  0  0  0
    5.5542   -4.7667    0.0000 C   0  0  0  0  0  0  0  0  0  0  0  0
    6.1792   -5.1167    0.0000 C   0  0  0  0  0  0  0  0  0  0  0  0
    6.8000   -4.7625    0.0000 C   0  0  0  0  0  0  0  0  0  0  0  0
    3.7250   -5.8375    0.0000 C   0  0  0  0  0  0  0  0  0  0  0  0
    5.5625   -4.0625    0.0000 C   0  0  0  0  0  0  0  0  0  0  0  0
    4.9542   -5.8292    0.0000 C   0  0  0  0  0  0  0  0  0  0  0  0
    3.1000   -4.0667    0.0000 O   0  0  0  0  0  0  0  0  0  0  0  0
    4.3375   -6.1917    0.0000 C   0  0  0  0  0  0  0  0  0  0  0  0
    6.7917   -4.0542    0.0000 C   0  0  0  0  0  0  0  0  0  0  0  0
    6.1792   -5.8292    0.0000 F   0  0  0  0  0  0  0  0  0  0  0  0
    2.4792   -5.1375    0.0000 O   0  0  0  0  0  0  0  0  0  0  0  0
    6.1792   -3.7042    0.0000 C   0  0  0  0  0  0  0  0  0  0  0  0
    3.1042   -6.1917    0.0000 O   0  0  0  0  0  0  0  0  0  0  0  0
    7.4125   -3.7042    0.0000 F   0  0  0  0  0  0  0  0  0  0  0  0
  2  1  1  0
  3  1  1  0
  4  2  2  0
  5  4  1  0
  6  5  2  0
  7  6  1  0
  8  1  2  0
  9  5  1  0
 10 12  2  0
 11  3  2  0
 12  8  1  0
 13 16  1  0
 14  6  1  0
 15  3  1  0
 16  9  2  0
 17  8  1  0
 18 13  1  0
 10  4  1  0
 13  7  2  0
M  END
> <chembl_id>
CHEMBL898

> <chembl_pref_name>
DIFLUNISAL
