
     RDKit          2D

 15 15  0  0  0  0  0  0  0  0999 V2000
   -0.4750    0.9833    0.0000 C   0  0  0  0  0  0  0  0  0  0  0  0
    0.8542   -1.3250    0.0000 C   0  0  0  0  0  0  0  0  0  0  0  0
    0.8542    0.2208    0.0000 C   0  0  0  0  0  0  0  0  0  0  0  0
   -1.8083    0.2000    0.0000 N   0  0  0  0  0  0  0  0  0  0  0  0
   -0.4625   -2.0792    0.0000 N   0  0  0  0  0  0  0  0  0  0  0  0
   -1.8083   -1.3042    0.0000 C   0  0  0  0  0  0  0  0  0  0  0  0
    2.1542   -2.1000    0.0000 O   0  0  0  0  0  0  0  0  0  0  0  0
   -0.4750    2.2250    0.0000 O   0  0  0  0  0  0  0  0  0  0  0  0
   -3.1375   -2.1000    0.0000 O   0  0  0  0  0  0  0  0  0  0  0  0
    2.1667   -0.2500    0.0000 C   0  0  0  0  0  0  0  0  0  0  0  0
    1.2417    1.5208    0.0000 C   0  0  0  0  0  0  0  0  0  0  0  0
    2.1917   -1.3542    0.0000 C   0  0  0  0  0  0  0  0  0  0  0  0
    2.3917    0.9583    0.0000 C   0  0  0  0  0  0  0  0  0  0  0  0
    2.5000    2.2875    0.0000 C   0  0  0  0  0  0  0  0  0  0  0  0
    3.4042   -2.0792    0.0000 C   0  0  0  0  0  0  0  0  0  0  0  0
  2  3  1  0
  3  1  1  0
  4  1  1  0
  5  6  1  0
  6  4  1  0
  7  2  2  0
  8  1  2  0
  9  6  2  0
 10  3  1  0
 11  3  1  0
 12 10  1  0
 13 10  1  0
 14 11  1  0
 15 12  1  0
  2  5  1  0
M  END
> <chembl_id>
CHEMBL449

> <chembl_pref_name>
BUTABARBITAL
