
     RDKit          2D

 16 16  0  0  0  0  0  0  0  0999 V2000
    6.1542   -6.8875    0.0000 K   0  0  0  0  0 15  0  0  0  0  0  0
    4.2292   -5.5667    0.0000 N   0  0  0  0  0  0  0  0  0  0  0  0
    3.5167   -5.5625    0.0000 C   0  0  0  0  0  0  0  0  0  0  0  0
    4.9125   -5.7917    0.0000 C   0  0  0  0  0  0  0  0  0  0  0  0
    4.2417   -4.8667    0.0000 C   0  0  0  0  0  0  0  0  0  0  0  0
    5.3292   -5.2375    0.0000 C   0  0  0  0  0  0  0  0  0  0  0  0
    4.9167   -4.6542    0.0000 O   0  0  0  0  0  0  0  0  0  0  0  0
    3.5417   -4.8542    0.0000 C   0  0  0  0  0  0  0  0  0  0  0  0
    4.9042   -6.5167    0.0000 C   0  0  0  0  0  0  0  0  0  0  0  0
    6.0375   -5.2542    0.0000 C   0  0  0  0  0  0  0  0  0  0  0  0
    3.0167   -6.0667    0.0000 O   0  0  0  0  0  0  0  0  0  0  0  0
    5.4792   -6.8917    0.0000 O   0  0  0  0  0  0  0  0  0  0  0  0
    4.2542   -6.8417    0.0000 O   0  0  0  0  0  0  0  0  0  0  0  0
    6.4167   -4.6292    0.0000 C   0  0  0  0  0  0  0  0  0  0  0  0
    7.1292   -4.6417    0.0000 O   0  0  0  0  0  0  0  0  0  0  0  0
    4.2375   -4.1542    0.0000 H   0  0  0  0  0  0  0  0  0  0  0  0
  3  2  1  0
  4  2  1  0
  5  2  1  0
  6  4  1  0
  7  5  1  0
  8  5  1  0
  4  9  1  6
 10  6  2  0
 11  3  2  0
 12  9  1  0
 13  9  2  0
 14 10  1  0
 15 14  1  0
  5 16  1  6
  3  8  1  0
  6  7  1  0
M  CHG  2   1   1  12  -1
M  END
> <chembl_id>
CHEMBL1003

> <chembl_pref_name>
CLAVULANATE POTASSIUM
