
     RDKit          2D

 56 59  0  0  0  0  0  0  0  0999 V2000
    3.5313   -8.9500    0.0000 O   0  0  0  0  0  0  0  0  0  0  0  0
    3.5313   -8.1250    0.0000 S   0  0  0  0  0  0  0  0  0  0  0  0
    2.7063   -8.1250    0.0000 O   0  0  0  0  0  0  0  0  0  0  0  0
    4.3563   -8.1250    0.0000 O   0  0  0  0  0  0  0  0  0  0  0  0
    3.5313   -7.3000    0.0000 C   0  0  0  0  0  0  0  0  0  0  0  0
   -2.2961   -2.8236    0.0000 C   0  0  0  0  0  0  0  0  0  0  0  0
   -2.3023   -3.6484    0.0000 C   0  0  0  0  0  0  0  0  0  0  0  0
   -1.5944   -4.0616    0.0000 C   0  0  0  0  0  0  0  0  0  0  0  0
   -1.5932   -2.4106    0.0000 C   0  0  0  0  0  0  0  0  0  0  0  0
   -0.8774   -2.8169    0.0000 C   0  0  0  0  0  0  0  0  0  0  0  0
   -0.8757   -3.6459    0.0000 C   0  0  0  0  0  0  0  0  0  0  0  0
   -0.1591   -4.0559    0.0000 C   0  0  0  0  0  0  0  0  0  0  0  0
    0.5564   -3.6388    0.0000 C   0  0  0  0  0  0  0  0  0  0  0  0
    0.5481   -2.8091    0.0000 C   0  0  0  0  0  0  0  0  0  0  0  0
   -0.1650   -2.4008    0.0000 N   0  0  0  0  0  0  0  0  0  0  0  0
    1.2623   -2.3936    0.0000 C   0  0  0  0  0  0  0  0  0  0  0  0
    1.2534   -1.5686    0.0000 O   0  0  0  0  0  0  0  0  0  0  0  0
    2.6900   -2.3795    0.0000 C   0  0  0  0  0  0  0  0  0  0  0  0
    3.4085   -2.7889    0.0000 C   0  0  0  0  0  0  0  0  0  0  0  0
    2.6858   -1.5545    0.0000 C   0  0  0  0  0  0  0  0  0  0  0  0
    3.3954   -1.1390    0.0000 C   0  0  0  0  0  0  0  0  0  0  0  0
    3.3912   -0.3140    0.0000 O   0  0  0  0  0  0  0  0  0  0  0  0
    3.4128   -3.6139    0.0000 O   0  0  0  0  0  0  0  0  0  0  0  0
    4.8394   -2.7773    0.0000 C   0  0  0  0  0  0  0  0  0  0  0  0
    5.5490   -2.3618    0.0000 C   0  0  0  0  0  0  0  0  0  0  0  0
    4.8435   -3.6013    0.0000 C   0  0  0  0  0  0  0  0  0  0  0  0
    4.4228   -4.3135    0.0000 C   0  0  0  0  0  0  0  0  0  0  0  0
    3.5976   -4.3014    0.0000 C   0  0  0  0  0  0  0  0  0  0  0  0
    3.1813   -5.0112    0.0000 C   0  0  0  0  0  0  0  0  0  0  0  0
    3.5841   -5.7326    0.0000 C   0  0  0  0  0  0  0  0  0  0  0  0
    4.4147   -5.7357    0.0000 C   0  0  0  0  0  0  0  0  0  0  0  0
    4.8303   -5.0282    0.0000 C   0  0  0  0  0  0  0  0  0  0  0  0
    6.2675   -2.7712    0.0000 C   0  0  0  0  0  0  0  0  0  0  0  0
    6.9772   -2.3510    0.0000 N   0  0  0  0  0  0  0  0  0  0  0  0
    7.6953   -2.7678    0.0000 C   0  0  0  0  0  0  0  0  0  0  0  0
    8.4060   -2.3536    0.0000 C   0  0  0  0  0  0  0  0  0  0  0  0
    6.9740   -1.5320    0.0000 C   0  0  0  0  0  0  0  0  0  0  0  0
    7.6861   -1.1195    0.0000 C   0  0  0  0  0  0  0  0  0  0  0  0
    8.4024   -1.5308    0.0000 C   0  0  0  0  0  0  0  0  0  0  0  0
    9.1186   -1.1219    0.0000 C   0  0  0  0  0  0  0  0  0  0  0  0
    9.1197   -0.2943    0.0000 C   0  0  0  0  0  0  0  0  0  0  0  0
    8.4032    0.1171    0.0000 C   0  0  0  0  0  0  0  0  0  0  0  0
    7.6858   -0.2946    0.0000 C   0  0  0  0  0  0  0  0  0  0  0  0
    7.6973   -3.5928    0.0000 C   0  0  0  0  0  0  0  0  0  0  0  0
    6.9840   -4.0070    0.0000 O   0  0  0  0  0  0  0  0  0  0  0  0
    9.1261   -3.5895    0.0000 C   0  0  0  0  0  0  0  0  0  0  0  0
    9.8351   -3.1694    0.0000 C   0  0  0  0  0  0  0  0  0  0  0  0
    9.5461   -4.3038    0.0000 C   0  0  0  0  0  0  0  0  0  0  0  0
    8.7126   -2.8786    0.0000 C   0  0  0  0  0  0  0  0  0  0  0  0
    9.1165   -1.9433    0.0000 H   0  0  0  0  0  0  0  0  0  0  0  0
    6.9719   -0.7070    0.0000 H   0  0  0  0  0  0  0  0  0  0  0  0
    1.9802   -2.8001    0.0000 N   0  0  0  0  0  0  0  0  0  0  0  0
    4.1143   -1.5485    0.0000 N   0  0  0  0  0  0  0  0  0  0  0  0
    4.1206   -2.3723    0.0000 N   0  0  0  0  0  0  0  0  0  0  0  0
    5.5452   -1.5370    0.0000 O   0  0  0  0  0  0  0  0  0  0  0  0
    8.4126   -4.0038    0.0000 N   0  0  0  0  0  0  0  0  0  0  0  0
  1  2  1  0
  2  3  2  0
  2  4  2  0
  2  5  1  0
 14 15  2  0
 15 10  1  0
 14 16  1  0
 16 17  2  0
 18 19  1  0
 18 20  1  1
 20 21  1  0
 21 22  2  0
 19 23  2  0
 24 25  1  0
 24 26  1  6
 26 27  1  0
 27 28  2  0
 28 29  1  0
 29 30  2  0
 30 31  1  0
 31 32  2  0
 32 27  1  0
 25 33  1  0
 33 34  1  0
 34 35  1  0
 34 37  1  0
 35 36  1  0
 36 39  1  0
 38 37  1  0
 38 39  1  0
 38 43  1  0
 39 40  1  0
 40 41  1  0
 41 42  1  0
 42 43  1  0
 35 44  1  1
 44 45  2  0
 46 47  1  0
 46 48  1  0
 46 49  1  0
 39 50  1  6
 38 51  1  6
  6  7  2  0
  7  8  1  0
  8 11  2  0
 10  9  2  0
 16 52  1  0
 52 18  1  0
 19 54  1  0
 54 24  1  0
 25 55  1  6
 21 53  1  0
 44 56  1  0
 56 46  1  0
  9  6  1  0
 10 11  1  0
 11 12  1  0
 12 13  2  0
 13 14  1  0
M  END
> <chembl_id>
CHEMBL282042

> <chembl_pref_name>
SAQUINAVIR MESYLATE
