
     RDKit          2D

 27 29  0  0  0  0  0  0  0  0999 V2000
   -0.3750    0.3208    0.0000 C   0  0  0  0  0  0  0  0  0  0  0  0
   -0.3750    1.2208    0.0000 C   0  0  0  0  0  0  0  0  0  0  0  0
   -1.1375   -0.0917    0.0000 C   0  0  0  0  0  0  0  0  0  0  0  0
    0.4000   -0.1042    0.0000 C   0  0  0  0  0  0  0  0  0  0  0  0
    3.4500   -0.9792    0.0000 C   0  0  0  0  0  0  0  0  0  0  0  0
   -3.4458   -2.2917    0.0000 C   0  0  0  0  0  0  0  0  0  0  0  0
    2.7000   -1.4250    0.0000 O   0  0  0  0  0  0  0  0  0  0  0  0
   -3.4458   -1.4167    0.0000 O   0  0  0  0  0  0  0  0  0  0  0  0
    4.2417   -1.3542    0.0000 O   0  0  0  0  0  0  0  0  0  0  0  0
   -4.1750   -2.7792    0.0000 O   0  0  0  0  0  0  0  0  0  0  0  0
   -1.9083    0.3375    0.0000 C   0  0  0  0  0  0  0  0  0  0  0  0
   -1.1375   -0.9792    0.0000 C   0  0  0  0  0  0  0  0  0  0  0  0
    0.4000   -0.9792    0.0000 C   0  0  0  0  0  0  0  0  0  0  0  0
    1.1667    0.3208    0.0000 C   0  0  0  0  0  0  0  0  0  0  0  0
    1.9375   -0.9917    0.0000 C   0  0  0  0  0  0  0  0  0  0  0  0
   -2.6833   -0.9792    0.0000 C   0  0  0  0  0  0  0  0  0  0  0  0
    1.1542   -1.4375    0.0000 C   0  0  0  0  0  0  0  0  0  0  0  0
    1.9375   -0.1042    0.0000 C   0  0  0  0  0  0  0  0  0  0  0  0
   -2.6833   -0.0917    0.0000 C   0  0  0  0  0  0  0  0  0  0  0  0
   -1.9083   -1.4250    0.0000 C   0  0  0  0  0  0  0  0  0  0  0  0
    0.3875    1.6958    0.0000 C   0  0  0  0  0  0  0  0  0  0  0  0
   -1.1458    1.6333    0.0000 C   0  0  0  0  0  0  0  0  0  0  0  0
   -2.7208   -2.7792    0.0000 C   0  0  0  0  0  0  0  0  0  0  0  0
    3.4917   -0.1042    0.0000 C   0  0  0  0  0  0  0  0  0  0  0  0
    0.3750    2.5708    0.0000 C   0  0  0  0  0  0  0  0  0  0  0  0
   -1.1458    2.5208    0.0000 C   0  0  0  0  0  0  0  0  0  0  0  0
   -0.4333    3.0000    0.0000 C   0  0  0  0  0  0  0  0  0  0  0  0
  2  1  2  0
  3  1  1  0
  4  1  1  0
  5  7  1  0
  6  8  1  0
  7 15  1  0
  8 16  1  0
  9  5  2  0
 10  6  2  0
 11  3  2  0
 12  3  1  0
 13  4  2  0
 14  4  1  0
 15 18  1  0
 16 20  1  0
 17 13  1  0
 18 14  2  0
 19 11  1  0
 20 12  2  0
 21  2  1  0
 22  2  1  0
 23  6  1  0
 24  5  1  0
 25 21  1  0
 26 22  1  0
 27 26  1  0
 17 15  2  0
 19 16  2  0
 25 27  1  0
M  END
> <chembl_id>
CHEMBL141305

> <chembl_pref_name>
CYCLOFENIL
