
     RDKit          2D

 22 19  0  0  0  0  0  0  0  0999 V2000
    5.1167  -15.2792    0.0000 Na  0  0  0  0  0 15  0  0  0  0  0  0
    3.9875  -15.8000    0.0000 C   0  0  0  0  0  0  0  0  0  0  0  0
    0.4417  -15.8083    0.0000 C   0  0  0  0  0  0  0  0  0  0  0  0
    3.5375  -17.4875    0.0000 C   0  0  0  0  0  0  0  0  0  0  0  0
    0.8875  -17.4792    0.0000 C   0  0  0  0  0  0  0  0  0  0  0  0
    2.9292  -16.4250    0.0000 N   0  0  0  0  0  0  0  0  0  0  0  0
    1.5125  -16.4250    0.0000 N   0  0  0  0  0  0  0  0  0  0  0  0
    4.3333  -15.1833    0.0000 O   0  0  0  0  0  0  0  0  0  0  0  0
    0.0875  -15.1958    0.0000 O   0  0  0  0  0  0  0  0  0  0  0  0
    4.3458  -16.4125    0.0000 O   0  0  0  0  0  0  0  0  0  0  0  0
    0.0917  -16.4208    0.0000 O   0  0  0  0  0  0  0  0  0  0  0  0
    4.1542  -17.8417    0.0000 O   0  0  0  0  0  0  0  0  0  0  0  0
    0.2708  -17.8292    0.0000 O   0  0  0  0  0  0  0  0  0  0  0  0
    1.1542  -15.8042    0.0000 C   0  0  0  0  0  0  0  0  0  0  0  0
    3.2792  -15.8042    0.0000 C   0  0  0  0  0  0  0  0  0  0  0  0
    3.5417  -16.7792    0.0000 C   0  0  0  0  0  0  0  0  0  0  0  0
    0.8917  -16.7750    0.0000 C   0  0  0  0  0  0  0  0  0  0  0  0
    1.8667  -15.8125    0.0000 C   0  0  0  0  0  0  0  0  0  0  0  0
    2.5792  -15.8125    0.0000 C   0  0  0  0  0  0  0  0  0  0  0  0
    2.9250  -17.8375    0.0000 O   0  0  0  0  0  0  0  0  0  0  0  0
    1.5000  -17.8417    0.0000 O   0  0  0  0  0  0  0  0  0  0  0  0
   -0.9708  -15.2500    0.0000 Na  0  0  0  0  0 15  0  0  0  0  0  0
  3 14  1  0
  4 16  1  0
  5 17  1  0
  6 15  1  0
  7 18  1  0
  8  2  1  0
  9  3  1  0
 10  2  2  0
 11  3  2  0
 12  4  2  0
 13  5  2  0
 14  7  1  0
 15  2  1  0
 16  6  1  0
 17  7  1  0
 18 19  1  0
 19  6  1  0
 20  4  1  0
 21  5  1  0
M  CHG  4   1   1   8  -1   9  -1  22   1
M  END
> <chembl_id>
CHEMBL1749

> <chembl_pref_name>
EDETATE DISODIUM ANHYDROUS
