
     RDKit          2D

 15 15  0  0  0  0  0  0  0  0999 V2000
   -1.5208    2.0583    0.0000 As  0  0  0  0  0  5  0  0  0  0  0  0
   -1.5208    0.7208    0.0000 C   0  0  0  0  0  0  0  0  0  0  0  0
   -0.3708   -1.2667    0.0000 C   0  0  0  0  0  0  0  0  0  0  0  0
   -0.3708    0.0625    0.0000 C   0  0  0  0  0  0  0  0  0  0  0  0
    0.8042   -1.9625    0.0000 N   0  0  0  0  0  0  0  0  0  0  0  0
    1.9542   -1.3000    0.0000 C   0  0  0  0  0  0  0  0  0  0  0  0
   -2.8500    2.0583    0.0000 O   0  0  0  0  0  0  0  0  0  0  0  0
   -1.5208   -1.9292    0.0000 C   0  0  0  0  0  0  0  0  0  0  0  0
   -2.6708    0.0625    0.0000 C   0  0  0  0  0  0  0  0  0  0  0  0
    1.9792    0.0333    0.0000 O   0  0  0  0  0  0  0  0  0  0  0  0
   -0.1875    2.0583    0.0000 O   0  0  0  0  0  0  0  0  0  0  0  0
   -1.5208    3.3833    0.0000 O   0  0  0  0  0  0  0  0  0  0  0  0
   -2.6708   -1.2667    0.0000 C   0  0  0  0  0  0  0  0  0  0  0  0
   -1.5208   -3.2625    0.0000 O   0  0  0  0  0  0  0  0  0  0  0  0
    3.1000   -1.9917    0.0000 C   0  0  0  0  0  0  0  0  0  0  0  0
  2  1  1  0
  3  4  2  0
  4  2  1  0
  5  3  1  0
  6  5  1  0
  7  1  2  0
  8 13  2  0
  9  2  2  0
 10  6  2  0
 11  1  1  0
 12  1  1  0
 13  9  1  0
 14  8  1  0
 15  6  1  0
  3  8  1  0
M  END
> <chembl_id>
CHEMBL1330792

> <chembl_pref_name>
ACETARSONE
