
     RDKit          2D

 24 26  0  0  0  0  0  0  0  0999 V2000
   -1.4750   -0.2542    0.0000 C   0  0  0  0  0  0  0  0  0  0  0  0
   -0.8208   -0.9000    0.0000 C   0  0  0  0  0  0  0  0  0  0  0  0
   -1.0583   -1.8000    0.0000 N   0  0  0  0  0  0  0  0  0  0  0  0
   -2.3750   -0.4792    0.0000 C   0  0  0  0  0  0  0  0  0  0  0  0
   -1.2333    0.6458    0.0000 C   0  0  0  0  0  0  0  0  0  0  0  0
   -1.8833    1.3125    0.0000 C   0  0  0  0  0  0  0  0  0  0  0  0
   -3.0250    0.1708    0.0000 C   0  0  0  0  0  0  0  0  0  0  0  0
   -2.7833    1.0625    0.0000 C   0  0  0  0  0  0  0  0  0  0  0  0
    0.0875   -0.6750    0.0000 C   0  0  0  0  0  0  0  0  0  0  0  0
   -1.9708   -2.0292    0.0000 C   0  0  0  0  0  0  0  0  0  0  0  0
   -2.6208   -1.3792    0.0000 C   0  0  0  0  0  0  0  0  0  0  0  0
    0.3375    0.2208    0.0000 C   0  0  0  0  0  0  0  0  0  0  0  0
    3.0417    0.8875    0.0000 C   0  0  0  0  0  0  0  0  0  0  0  0
    1.2500    0.4500    0.0000 C   0  0  0  0  0  0  0  0  0  0  0  0
   -1.6333    2.2083    0.0000 O   0  0  0  0  0  0  0  0  0  0  0  0
   -3.4458    1.7208    0.0000 O   0  0  0  0  0  0  0  0  0  0  0  0
    3.9542    1.1000    0.0000 Cl  0  0  0  0  0  0  0  0  0  0  0  0
    2.3917    1.5750    0.0000 C   0  0  0  0  0  0  0  0  0  0  0  0
    2.7792   -0.0042    0.0000 C   0  0  0  0  0  0  0  0  0  0  0  0
    1.4917    1.3458    0.0000 C   0  0  0  0  0  0  0  0  0  0  0  0
    1.8792   -0.2167    0.0000 C   0  0  0  0  0  0  0  0  0  0  0  0
   -0.3833   -2.4542    0.0000 C   0  0  0  0  0  0  0  0  0  0  0  0
   -0.7208    2.4583    0.0000 C   0  0  0  0  0  0  0  0  0  0  0  0
   -4.3458    1.4708    0.0000 C   0  0  0  0  0  0  0  0  0  0  0  0
  2  1  1  0
  3  2  1  0
  4  1  2  0
  5  1  1  0
  6  5  2  0
  7  4  1  0
  8  6  1  0
  9  2  1  0
 10 11  1  0
 11  4  1  0
 12  9  1  0
 13 19  2  0
 14 12  1  0
 15  6  1  0
 16  8  1  0
 17 13  1  0
 18 20  2  0
 19 21  1  0
 20 14  1  0
 21 14  2  0
 22  3  1  0
 23 15  1  0
 24 16  1  0
  7  8  2  0
  3 10  1  0
 18 13  1  0
M  END
> <chembl_id>
CHEMBL2106915

> <chembl_pref_name>
METHOPHOLINE
