
     RDKit          2D

 27 29  0  0  0  0  0  0  0  0999 V2000
   -0.7250   -0.8625    0.0000 N   0  0  0  0  0  0  0  0  0  0  0  0
    0.5000   -0.1500    0.0000 N   0  0  0  0  0  0  0  0  0  0  0  0
    0.5000   -0.8542    0.0000 C   0  0  0  0  0  0  0  0  0  0  0  0
   -0.1125   -1.2167    0.0000 C   0  0  0  0  0  0  0  0  0  0  0  0
   -0.7333   -0.1542    0.0000 C   0  0  0  0  0  0  0  0  0  0  0  0
   -1.3375   -1.2167    0.0000 C   0  0  0  0  0  0  0  0  0  0  0  0
    1.7292   -0.8542    0.0000 O   0  0  0  0  0  0  0  0  0  0  0  0
   -1.3458    0.1958    0.0000 C   0  0  0  0  0  0  0  0  0  0  0  0
    1.1167   -1.2125    0.0000 C   0  0  0  0  0  0  0  0  0  0  0  0
   -0.0750    0.2625    0.0000 C   0  0  0  0  0  0  0  0  0  0  0  0
    1.0667    0.2708    0.0000 C   0  0  0  0  0  0  0  0  0  0  0  0
   -1.3375   -1.9292    0.0000 C   0  0  0  0  0  0  0  0  0  0  0  0
   -1.9500   -0.8667    0.0000 C   0  0  0  0  0  0  0  0  0  0  0  0
    2.3417   -1.2042    0.0000 C   0  0  0  0  0  0  0  0  0  0  0  0
    2.9542   -0.8500    0.0000 C   0  0  0  0  0  0  0  0  0  0  0  0
   -1.3458    0.9083    0.0000 C   0  0  0  0  0  0  0  0  0  0  0  0
   -1.9500   -0.1542    0.0000 C   0  0  0  0  0  0  0  0  0  0  0  0
    0.1417    0.9375    0.0000 C   0  0  0  0  0  0  0  0  0  0  0  0
    0.8500    0.9375    0.0000 C   0  0  0  0  0  0  0  0  0  0  0  0
    2.9500   -0.1417    0.0000 C   0  0  0  0  0  0  0  0  0  0  0  0
    3.5667   -1.2042    0.0000 C   0  0  0  0  0  0  0  0  0  0  0  0
   -1.9500   -2.2875    0.0000 C   0  0  0  0  0  0  0  0  0  0  0  0
   -2.5625   -1.2250    0.0000 C   0  0  0  0  0  0  0  0  0  0  0  0
   -2.5708    0.1958    0.0000 C   0  0  0  0  0  0  0  0  0  0  0  0
   -1.9583    1.2583    0.0000 C   0  0  0  0  0  0  0  0  0  0  0  0
   -2.5625   -1.9292    0.0000 C   0  0  0  0  0  0  0  0  0  0  0  0
   -2.5708    0.9000    0.0000 C   0  0  0  0  0  0  0  0  0  0  0  0
  2  3  1  0
  3  4  1  0
  4  1  1  0
  5  1  1  0
  6  1  1  0
  7  9  1  0
  8  5  1  0
  9  3  1  0
 10  2  1  0
 11  2  1  0
 12  6  1  0
 13  6  2  0
 14  7  1  0
 15 14  1  0
 16  8  2  0
 17  8  1  0
 18 10  1  0
 19 11  1  0
 20 15  1  0
 21 15  1  0
 22 12  2  0
 23 13  1  0
 24 17  2  0
 25 16  1  0
 26 23  2  0
 27 24  1  0
 26 22  1  0
 27 25  2  0
 18 19  1  0
M  END
> <chembl_id>
CHEMBL1008

> <chembl_pref_name>
BEPRIDIL
