
     RDKit          2D

 33 36  0  0  0  0  0  0  0  0999 V2000
   -6.0000    1.6237    0.0000 C   0  0  0  0  0  0  0  0  0  0  0  0
   -6.7145    1.2112    0.0000 C   0  0  0  0  0  0  0  0  0  0  0  0
   -6.7145    0.3862    0.0000 C   0  0  0  0  0  0  0  0  0  0  0  0
   -6.0000   -0.0263    0.0000 C   0  0  0  0  0  0  0  0  0  0  0  0
   -5.2855    0.3862    0.0000 C   0  0  0  0  0  0  0  0  0  0  0  0
   -5.2855    1.2112    0.0000 C   0  0  0  0  0  0  0  0  0  0  0  0
   -4.5711   -0.0263    0.0000 N   0  0  0  0  0  0  0  0  0  0  0  0
   -3.8565    0.3862    0.0000 C   0  0  0  0  0  0  0  0  0  0  0  0
   -3.8565    1.2112    0.0000 O   0  0  0  0  0  0  0  0  0  0  0  0
   -3.1421   -0.0263    0.0000 N   0  0  0  0  0  0  0  0  0  0  0  0
   -2.4276    0.3862    0.0000 C   0  0  0  0  0  0  0  0  0  0  0  0
   -2.4276    1.2112    0.0000 C   0  0  0  0  0  0  0  0  0  0  0  0
   -3.1421    1.6237    0.0000 F   0  0  0  0  0  0  0  0  0  0  0  0
   -1.7132    1.6237    0.0000 C   0  0  0  0  0  0  0  0  0  0  0  0
   -1.7132   -0.0264    0.0000 C   0  0  0  0  0  0  0  0  0  0  0  0
   -0.9987    0.3862    0.0000 C   0  0  0  0  0  0  0  0  0  0  0  0
   -0.9987    1.2112    0.0000 C   0  0  0  0  0  0  0  0  0  0  0  0
   -0.2842    1.6237    0.0000 Br  0  0  0  0  0  0  0  0  0  0  0  0
   -0.2842   -0.0264    0.0000 C   0  0  0  0  0  0  0  0  0  0  0  0
    0.4302    0.3862    0.0000 C   0  0  0  0  0  0  0  0  0  0  0  0
   -0.2842   -0.8514    0.0000 C   0  0  0  0  0  0  0  0  0  0  0  0
    0.4302   -1.2639    0.0000 N   0  0  0  0  0  0  0  0  0  0  0  0
    1.1447   -0.8514    0.0000 C   0  0  0  0  0  0  0  0  0  0  0  0
    1.1447   -0.0264    0.0000 C   0  0  0  0  0  0  0  0  0  0  0  0
    1.8592    0.3862    0.0000 C   0  0  0  0  0  0  0  0  0  0  0  0
    1.8592   -1.2639    0.0000 C   0  0  0  0  0  0  0  0  0  0  0  0
    2.5736   -0.8514    0.0000 C   0  0  0  0  0  0  0  0  0  0  0  0
    2.5736   -0.0264    0.0000 N   0  0  0  0  0  0  0  0  0  0  0  0
    0.4302   -2.0889    0.0000 C   0  0  0  0  0  0  0  0  0  0  0  0
    1.1447   -2.5014    0.0000 C   0  0  0  0  0  0  0  0  0  0  0  0
    3.2881   -1.2639    0.0000 N   0  0  0  0  0  0  0  0  0  0  0  0
    4.0026   -0.8514    0.0000 C   0  0  0  0  0  0  0  0  0  0  0  0
   -1.0193   -1.2259    0.0000 O   0  0  0  0  0  0  0  0  0  0  0  0
  1  2  1  0
  2  3  2  0
  3  4  1  0
  4  5  2  0
  5  6  1  0
  1  6  2  0
  7  8  1  0
  8  9  2  0
  5  7  1  0
 10 11  1  0
 11 12  2  0
 12 13  1  0
  8 10  1  0
 15 16  2  0
 16 17  1  0
 14 17  2  0
 11 15  1  0
 14 12  1  0
 19 20  2  0
 18 17  1  0
 16 19  1  0
 21 22  1  0
 22 23  1  0
 23 24  2  0
 19 21  1  0
 20 24  1  0
 26 27  2  0
 27 28  1  0
 25 28  2  0
 23 26  1  0
 25 24  1  0
 29 30  1  0
 22 29  1  0
 31 32  1  0
 27 31  1  0
 21 33  2  0
M  END
> <chembl_id>
CHEMBL4216467

> <chembl_pref_name>
RIPRETINIB
