
     RDKit          2D

 30 35  0  0  0  0  0  0  0  0999 V2000
   -3.7842   -0.2464    0.0000 N   0  0  0  0  0  0  0  0  0  0  0  0
   -4.4987   -0.6589    0.0000 N   0  0  0  0  0  0  0  0  0  0  0  0
   -4.4987   -1.4839    0.0000 C   0  0  0  0  0  0  0  0  0  0  0  0
   -3.7842   -1.8964    0.0000 C   0  0  0  0  0  0  0  0  0  0  0  0
   -3.0697   -1.4839    0.0000 C   0  0  0  0  0  0  0  0  0  0  0  0
   -3.0697   -0.6589    0.0000 C   0  0  0  0  0  0  0  0  0  0  0  0
   -2.3553   -0.2464    0.0000 C   0  0  0  0  0  0  0  0  0  0  0  0
   -2.3553    0.5786    0.0000 C   0  0  0  0  0  0  0  0  0  0  0  0
   -1.6408    0.9911    0.0000 C   0  0  0  0  0  0  0  0  0  0  0  0
   -1.6408   -0.6589    0.0000 N   0  0  0  0  0  0  0  0  0  0  0  0
   -0.9263   -0.2464    0.0000 C   0  0  0  0  0  0  0  0  0  0  0  0
   -0.9263    0.5786    0.0000 N   0  0  0  0  0  0  0  0  0  0  0  0
   -0.2119    0.9911    0.0000 C   0  0  0  0  0  0  0  0  0  0  0  0
   -0.2119   -0.6589    0.0000 C   0  0  0  0  0  0  0  0  0  0  0  0
    0.5026   -0.2464    0.0000 C   0  0  0  0  0  0  0  0  0  0  0  0
    0.5026    0.5786    0.0000 C   0  0  0  0  0  0  0  0  0  0  0  0
    1.2171    0.9911    0.0000 N   0  0  0  0  0  0  0  0  0  0  0  0
    1.2171    1.8161    0.0000 C   0  0  0  0  0  0  0  0  0  0  0  0
    1.9315    2.2286    0.0000 C   0  0  0  0  0  0  0  0  0  0  0  0
    1.9315    0.5786    0.0000 C   0  0  0  0  0  0  0  0  0  0  0  0
    2.6460    0.9911    0.0000 C   0  0  0  0  0  0  0  0  0  0  0  0
    2.6460    1.8161    0.0000 N   0  0  0  0  0  0  0  0  0  0  0  0
   -5.2832   -1.7389    0.0000 N   0  0  0  0  0  0  0  0  0  0  0  0
   -5.7682   -1.0714    0.0000 C   0  0  0  0  0  0  0  0  0  0  0  0
   -5.2833   -0.4040    0.0000 C   0  0  0  0  0  0  0  0  0  0  0  0
   -6.5932   -1.0714    0.0000 C   0  0  0  0  0  0  0  0  0  0  0  0
   -3.7842   -2.7214    0.0000 C   0  0  0  0  0  0  0  0  0  0  0  0
   -1.6408    1.8161    0.0000 O   0  0  0  0  0  0  0  0  0  0  0  0
    1.5190    2.9431    0.0000 C   0  0  0  0  0  0  0  0  0  0  0  0
    2.3440    2.9431    0.0000 C   0  0  0  0  0  0  0  0  0  0  0  0
  1  2  1  0
  2  3  1  0
  3  4  1  0
  4  5  2  0
  5  6  1  0
  1  6  2  0
  7  8  2  0
  6  7  1  0
 10 11  2  0
 11 12  1  0
  9 12  1  0
  7 10  1  0
  9  8  1  0
 14 15  2  0
 15 16  1  0
 13 16  2  0
 11 14  1  0
 13 12  1  0
 17 18  1  0
 16 17  1  0
 20 21  1  0
 21 22  1  0
 19 22  1  0
 17 20  1  0
 19 18  1  0
 23 24  1  0
 24 25  2  0
  2 25  1  0
  3 23  2  0
 24 26  1  0
  4 27  1  0
  9 28  2  0
 19 29  1  0
 29 30  1  0
 30 19  1  0
M  END
> <chembl_id>
CHEMBL4297528

> <chembl_pref_name>
RISDIPLAM
