
     RDKit          2D

 40 44  0  0  0  0  0  0  0  0999 V2000
    5.3036    2.7696    0.0000 C   0  0  0  0  0  0  0  0  0  0  0  0
    4.5891    2.3571    0.0000 C   0  0  0  0  0  0  0  0  0  0  0  0
    4.5891    1.5321    0.0000 C   0  0  0  0  0  0  0  0  0  0  0  0
    5.3036    1.1196    0.0000 C   0  0  0  0  0  0  0  0  0  0  0  0
    6.0181    1.5321    0.0000 C   0  0  0  0  0  0  0  0  0  0  0  0
    6.0181    2.3571    0.0000 C   0  0  0  0  0  0  0  0  0  0  0  0
    6.7325    1.1196    0.0000 P   0  0  0  0  0  0  0  0  0  0  0  0
    5.3036    0.2946    0.0000 N   0  0  0  0  0  0  0  0  0  0  0  0
    4.5891   -0.1179    0.0000 C   0  0  0  0  0  0  0  0  0  0  0  0
    6.7325    0.2946    0.0000 C   0  0  0  0  0  0  0  0  0  0  0  0
    7.4470    1.5321    0.0000 O   0  0  0  0  0  0  0  0  0  0  0  0
    7.5294    0.9061    0.0000 C   0  0  0  0  0  0  0  0  0  0  0  0
    3.8746    0.2946    0.0000 N   0  0  0  0  0  0  0  0  0  0  0  0
    3.1601   -0.1179    0.0000 C   0  0  0  0  0  0  0  0  0  0  0  0
    3.1601   -0.9429    0.0000 N   0  0  0  0  0  0  0  0  0  0  0  0
    3.8746   -1.3554    0.0000 C   0  0  0  0  0  0  0  0  0  0  0  0
    4.5891   -0.9429    0.0000 C   0  0  0  0  0  0  0  0  0  0  0  0
    5.3036   -1.3554    0.0000 Cl  0  0  0  0  0  0  0  0  0  0  0  0
    2.4457    0.2946    0.0000 N   0  0  0  0  0  0  0  0  0  0  0  0
    1.7312   -0.1179    0.0000 C   0  0  0  0  0  0  0  0  0  0  0  0
    1.0167    0.2947    0.0000 C   0  0  0  0  0  0  0  0  0  0  0  0
    0.3022   -0.1178    0.0000 C   0  0  0  0  0  0  0  0  0  0  0  0
    0.3023   -0.9429    0.0000 C   0  0  0  0  0  0  0  0  0  0  0  0
    1.0167   -1.3554    0.0000 C   0  0  0  0  0  0  0  0  0  0  0  0
    1.7312   -0.9429    0.0000 C   0  0  0  0  0  0  0  0  0  0  0  0
   -0.4122   -1.3554    0.0000 N   0  0  0  0  0  0  0  0  0  0  0  0
   -1.1267   -0.9429    0.0000 C   0  0  0  0  0  0  0  0  0  0  0  0
   -1.8412   -1.3554    0.0000 C   0  0  0  0  0  0  0  0  0  0  0  0
   -1.8412   -2.1804    0.0000 C   0  0  0  0  0  0  0  0  0  0  0  0
   -1.1267   -2.5929    0.0000 C   0  0  0  0  0  0  0  0  0  0  0  0
   -0.4122   -2.1804    0.0000 C   0  0  0  0  0  0  0  0  0  0  0  0
   -2.5557   -2.5929    0.0000 N   0  0  0  0  0  0  0  0  0  0  0  0
   -3.2701   -2.1804    0.0000 C   0  0  0  0  0  0  0  0  0  0  0  0
   -3.9846   -2.5929    0.0000 C   0  0  0  0  0  0  0  0  0  0  0  0
   -3.9846   -3.4179    0.0000 N   0  0  0  0  0  0  0  0  0  0  0  0
   -3.2702   -3.8304    0.0000 C   0  0  0  0  0  0  0  0  0  0  0  0
   -2.5557   -3.4179    0.0000 C   0  0  0  0  0  0  0  0  0  0  0  0
   -4.6991   -3.8304    0.0000 C   0  0  0  0  0  0  0  0  0  0  0  0
    2.4457   -1.3554    0.0000 O   0  0  0  0  0  0  0  0  0  0  0  0
    2.4457   -2.1804    0.0000 C   0  0  0  0  0  0  0  0  0  0  0  0
  1  2  1  0
  1  6  2  0
  2  3  2  0
  3  4  1  0
  4  5  2  0
  5  6  1  0
  5  7  1  0
  4  8  1  0
  8  9  1  0
  7 10  1  0
  7 11  2  0
  7 12  1  0
  9 13  2  0
 17  9  1  0
 13 14  1  0
 14 15  2  0
 15 16  1  0
 16 17  2  0
 17 18  1  0
 14 19  1  0
 19 20  1  0
 20 21  1  0
 20 25  2  0
 21 22  2  0
 22 23  1  0
 23 24  2  0
 24 25  1  0
 23 26  1  0
 26 27  1  0
 31 26  1  0
 27 28  1  0
 28 29  1  0
 29 30  1  0
 30 31  1  0
 29 32  1  0
 32 33  1  0
 37 32  1  0
 33 34  1  0
 34 35  1  0
 35 36  1  0
 36 37  1  0
 35 38  1  0
 25 39  1  0
 39 40  1  0
M  END
> <chembl_id>
CHEMBL3545311

> <chembl_pref_name>
BRIGATINIB
