
     RDKit          2D

 33 35  0  0  0  0  0  0  0  0999 V2000
    2.6167   -2.5417    0.0000 Br  0  0  0  0  0  0  0  0  0  0  0  0
   -3.5208    0.2125    0.0000 C   0  0  0  0  0  0  0  0  0  0  0  0
   -2.6250   -0.3375    0.0000 C   0  0  0  0  0  0  0  0  0  0  0  0
    0.9417    0.0375    0.0000 C   0  0  0  0  0  0  0  0  0  0  0  0
    2.5042   -1.3792    0.0000 N   0  0  0  0  0  0  0  0  0  0  0  0
   -4.3458   -0.3000    0.0000 C   0  0  0  0  0  0  0  0  0  0  0  0
   -3.4833   -0.7375    0.0000 C   0  0  0  0  0  0  0  0  0  0  0  0
    0.9000    1.5000    0.0000 C   0  0  0  0  0  0  0  0  0  0  0  0
    1.3375    0.7625    0.0000 C   0  0  0  0  0  0  0  0  0  0  0  0
    0.1750    0.0375    0.0000 C   0  0  0  0  0  0  0  0  0  0  0  0
    1.3875   -0.6875    0.0000 C   0  0  0  0  0  0  0  0  0  0  0  0
    0.1167    1.5000    0.0000 C   0  0  0  0  0  0  0  0  0  0  0  0
   -0.2958    0.7625    0.0000 C   0  0  0  0  0  0  0  0  0  0  0  0
   -2.6250   -1.3250    0.0000 C   0  0  0  0  0  0  0  0  0  0  0  0
   -4.3458   -1.3042    0.0000 C   0  0  0  0  0  0  0  0  0  0  0  0
   -3.4875   -1.8125    0.0000 C   0  0  0  0  0  0  0  0  0  0  0  0
    4.2417   -0.3917    0.0000 O   0  0  0  0  0  0  0  0  0  0  0  0
    2.2375    0.7625    0.0000 Br  0  0  0  0  0  0  0  0  0  0  0  0
   -0.2000    1.9958    0.0000 O   0  0  0  0  0  0  0  0  0  0  0  0
   -0.9208    0.7625    0.0000 O   0  0  0  0  0  0  0  0  0  0  0  0
    1.6500   -1.8667    0.0000 C   0  0  0  0  0  0  0  0  0  0  0  0
   -3.0125    0.7083    0.0000 C   0  0  0  0  0  0  0  0  0  0  0  0
   -4.0833    0.6958    0.0000 C   0  0  0  0  0  0  0  0  0  0  0  0
    3.3667   -1.8792    0.0000 C   0  0  0  0  0  0  0  0  0  0  0  0
    2.5000   -0.3917    0.0000 C   0  0  0  0  0  0  0  0  0  0  0  0
   -0.0583   -1.8375    0.0000 O   0  0  0  0  0  0  0  0  0  0  0  0
    3.3792    0.1083    0.0000 C   0  0  0  0  0  0  0  0  0  0  0  0
    4.2417   -1.4000    0.0000 C   0  0  0  0  0  0  0  0  0  0  0  0
   -1.7708   -1.8292    0.0000 C   0  0  0  0  0  0  0  0  0  0  0  0
    0.8000   -1.3542    0.0000 C   0  0  0  0  0  0  0  0  0  0  0  0
   -0.9083   -1.3375    0.0000 C   0  0  0  0  0  0  0  0  0  0  0  0
   -1.3750    1.5458    0.0000 C   0  0  0  0  0  0  0  0  0  0  0  0
    0.3042    2.7708    0.0000 C   0  0  0  0  0  0  0  0  0  0  0  0
  3  2  1  0
  4 11  1  0
  5 21  1  0
  6  2  1  0
  7  6  1  0
  8  9  1  0
  9  4  2  0
 10  4  1  0
 11  5  1  0
 12 13  1  0
 13 10  2  0
 14  3  1  0
 15  6  1  0
 16 15  1  0
 17 28  1  0
 18  9  1  0
 19 12  1  0
 20 13  1  0
 21 30  1  0
 22  2  1  0
 23  2  1  0
 24  5  1  0
 25  5  1  0
 26 31  1  0
 27 25  1  0
 28 24  1  0
 29 14  1  0
 30 26  1  0
 31 29  1  0
 32 20  1  0
 33 19  1  0
  3  7  1  0
 14 16  1  0
 27 17  1  0
  8 12  2  0
M  CHG  2   1  -1   5   1
M  END
> <chembl_id>
CHEMBL1909298

> <chembl_pref_name>
PINAVERIUM BROMIDE
