
     RDKit          2D

 25 26  0  0  0  0  0  0  0  0999 V2000
    6.0268   -0.6429    0.0000 Cl  0  0  0  0  0  0  0  0  0  0  0  0
    0.0773    0.5912    0.0000 C   0  0  0  0  0  0  0  0  0  0  0  0
    1.5828   -3.1130    0.0000 C   0  0  0  0  0  0  0  0  0  0  0  0
    4.5997   -4.2194    0.0000 C   0  0  0  0  0  0  0  0  0  0  0  0
    5.0129   -3.5054    0.0000 C   0  0  0  0  0  0  0  0  0  0  0  0
    3.7747   -4.2186    0.0000 C   0  0  0  0  0  0  0  0  0  0  0  0
    4.6011   -2.7905    0.0000 C   0  0  0  0  0  0  0  0  0  0  0  0
    3.3629   -3.5037    0.0000 C   0  0  0  0  0  0  0  0  0  0  0  0
    0.7400   -1.2658    0.0000 C   0  0  0  0  0  0  0  0  0  0  0  0
    0.1197   -1.6427    0.0000 C   0  0  0  0  0  0  0  0  0  0  0  0
    1.9893   -0.5417    0.0000 C   0  0  0  0  0  0  0  0  0  0  0  0
    3.7761   -2.7897    0.0000 C   0  0  0  0  0  0  0  0  0  0  0  0
    1.0605   -0.5572    0.0000 C   0  0  0  0  0  0  0  0  0  0  0  0
    0.6396   -0.9304    0.0000 C   0  0  0  0  0  0  0  0  0  0  0  0
    2.1275   -1.3591    0.0000 C   0  0  0  0  0  0  0  0  0  0  0  0
    1.6113   -0.9304    0.0000 C   0  0  0  0  0  0  0  0  0  0  0  0
    3.3643   -2.0748    0.0000 C   0  0  0  0  0  0  0  0  0  0  0  0
    1.3311   -1.7064    0.0000 C   0  0  0  0  0  0  0  0  0  0  0  0
    0.4999   -0.1173    0.0000 N   0  0  0  0  0  0  0  0  0  0  0  0
    3.7775   -1.3607    0.0000 O   0  0  0  0  0  0  0  0  0  0  0  0
    0.5190   -1.8517    0.0000 O   0  0  0  0  0  0  0  0  0  0  0  0
    1.8630   -2.3370    0.0000 O   0  0  0  0  0  0  0  0  0  0  0  0
    2.5393   -2.0740    0.0000 O   0  0  0  0  0  0  0  0  0  0  0  0
    0.8706    0.2456    0.0000 H   0  0  0  0  0  0  0  0  0  0  0  0
    0.0368   -0.3671    0.0000 H   0  0  0  0  0  0  0  0  0  0  0  0
  5  4  2  0
  6  4  1  0
  7  5  1  0
  8  6  2  0
 10  9  1  0
 12  7  2  0
 12  8  1  0
 13  9  1  0
 13 11  1  0
 14 10  1  0
 15 11  1  0
 16 14  1  0
 16 15  1  0
 17 12  1  0
 16 18  1  1
 19  2  1  0
 19 13  1  0
 14 19  1  0
 20 17  2  0
 21 18  2  0
 22  3  1  0
 22 18  1  0
 15 23  1  6
 23 17  1  0
 13 24  1  1
 14 25  1  6
M  END
> <chembl_id>
CHEMBL529437

> <chembl_pref_name>
COCAINE HYDROCHLORIDE
