
     RDKit          2D

 19 21  0  0  0  0  0  0  0  0999 V2000
    4.2417   -3.1417    0.0000 C   0  0  0  0  0  0  0  0  0  0  0  0
    4.1917   -2.0000    0.0000 C   0  0  0  0  0  0  0  0  0  0  0  0
    3.8000   -2.5917    0.0000 C   0  0  0  0  0  0  0  0  0  0  0  0
    4.9042   -2.9000    0.0000 C   0  0  0  0  0  0  0  0  0  0  0  0
    4.8792   -2.1917    0.0000 C   0  0  0  0  0  0  0  0  0  0  0  0
    3.0917   -2.6167    0.0000 C   0  0  0  0  0  0  0  0  0  0  0  0
    4.0542   -3.8292    0.0000 O   0  0  0  0  0  0  0  0  0  0  0  0
    3.9417   -1.3292    0.0000 O   0  0  0  0  0  0  0  0  0  0  0  0
    2.7667   -3.2500    0.0000 C   0  0  0  0  0  0  0  0  0  0  0  0
    2.7125   -2.0167    0.0000 C   0  0  0  0  0  0  0  0  0  0  0  0
    1.6750   -2.6792    0.0000 C   0  0  0  0  0  0  0  0  0  0  0  0
    2.0042   -2.0542    0.0000 C   0  0  0  0  0  0  0  0  0  0  0  0
    2.0542   -3.2792    0.0000 C   0  0  0  0  0  0  0  0  0  0  0  0
    5.4792   -1.8042    0.0000 C   0  0  0  0  0  0  0  0  0  0  0  0
    5.5375   -3.2250    0.0000 C   0  0  0  0  0  0  0  0  0  0  0  0
    0.9667   -2.7125    0.0000 O   0  0  0  0  0  0  0  0  0  0  0  0
    0.5875   -2.1167    0.0000 C   0  0  0  0  0  0  0  0  0  0  0  0
    6.1375   -2.8417    0.0000 C   0  0  0  0  0  0  0  0  0  0  0  0
    6.1042   -2.1375    0.0000 C   0  0  0  0  0  0  0  0  0  0  0  0
  2  3  1  0
  3  1  1  0
  4  1  1  0
  5  4  2  0
  6  3  1  0
  7  1  2  0
  8  2  2  0
  9  6  1  0
 10  6  2  0
 11 12  2  0
 12 10  1  0
 13  9  2  0
 14  5  1  0
 15  4  1  0
 16 11  1  0
 17 16  1  0
 18 15  2  0
 19 18  1  0
  5  2  1  0
 19 14  2  0
 11 13  1  0
M  END
> <chembl_id>
CHEMBL712

> <chembl_pref_name>
ANISINDIONE
