
     RDKit          2D

 29 31  0  0  0  0  0  0  0  0999 V2000
   24.3013  -11.2295    0.0000 C   0  0  0  0  0  0  0  0  0  0  0  0
   23.5874  -10.8173    0.0000 C   0  0  0  0  0  0  0  0  0  0  0  0
   22.8735  -11.2295    0.0000 C   0  0  0  0  0  0  0  0  0  0  0  0
   22.1597  -10.8173    0.0000 C   0  0  0  0  0  0  0  0  0  0  0  0
   21.4458  -11.2294    0.0000 C   0  0  0  0  0  0  0  0  0  0  0  0
   20.7319  -10.8173    0.0000 C   0  0  0  0  0  0  0  0  0  0  0  0
   20.0181  -11.2294    0.0000 C   0  0  0  0  0  0  0  0  0  0  0  0
   19.3042  -10.8172    0.0000 C   0  0  0  0  0  0  0  0  0  0  0  0
   18.5902  -11.2294    0.0000 N   0  0  0  0  0  0  0  0  0  0  0  0
   17.8764  -10.8172    0.0000 C   0  0  0  0  0  0  0  0  0  0  0  0
   17.1625  -11.2293    0.0000 C   0  0  0  0  0  0  0  0  0  0  0  0
   16.4486  -10.8172    0.0000 C   0  0  0  0  0  0  0  0  0  0  0  0
   15.7347  -11.2293    0.0000 C   0  0  0  0  0  0  0  0  0  0  0  0
   15.0209  -10.8171    0.0000 C   0  0  0  0  0  0  0  0  0  0  0  0
   15.0209   -9.9928    0.0000 C   0  0  0  0  0  0  0  0  0  0  0  0
   15.7348   -9.5806    0.0000 C   0  0  0  0  0  0  0  0  0  0  0  0
   16.4486   -9.9927    0.0000 C   0  0  0  0  0  0  0  0  0  0  0  0
   14.3070   -9.5805    0.0000 O   0  0  0  0  0  0  0  0  0  0  0  0
   13.5931   -9.9927    0.0000 C   0  0  0  0  0  0  0  0  0  0  0  0
   13.5931  -10.8170    0.0000 C   0  0  0  0  0  0  0  0  0  0  0  0
   14.3070  -11.2292    0.0000 O   0  0  0  0  0  0  0  0  0  0  0  0
   16.7503  -11.9431    0.0000 O   0  0  0  0  0  0  0  0  0  0  0  0
   18.4895  -10.2343    0.0000 C   0  0  0  0  0  0  0  0  0  0  0  0
   18.2460   -9.4380    0.0000 N   0  0  0  0  0  0  0  0  0  0  0  0
   17.4764   -9.1426    0.0000 C   0  0  0  0  0  0  0  0  0  0  0  0
   17.5196   -8.3194    0.0000 C   0  0  0  0  0  0  0  0  0  0  0  0
   18.3158   -8.1061    0.0000 C   0  0  0  0  0  0  0  0  0  0  0  0
   18.7647   -8.7974    0.0000 C   0  0  0  0  0  0  0  0  0  0  0  0
   19.3042   -9.9929    0.0000 O   0  0  0  0  0  0  0  0  0  0  0  0
  1  2  1  0
  2  3  1  0
  3  4  1  0
  4  5  1  0
  5  6  1  0
  6  7  1  0
  7  8  1  0
  8  9  1  0
 10  9  1  1
 10 11  1  0
 11 12  1  0
 12 13  1  0
 12 17  2  0
 13 14  2  0
 15 16  2  0
 16 17  1  0
 21 14  1  0
 14 15  1  0
 15 18  1  0
 18 19  1  0
 19 20  1  0
 20 21  1  0
 11 22  1  6
 10 23  1  0
 23 24  1  0
 24 25  1  0
 24 28  1  0
 25 26  1  0
 26 27  1  0
 27 28  1  0
  8 29  2  0
M  END
> <chembl_id>
CHEMBL2110588

> <chembl_pref_name>
ELIGLUSTAT
