
     RDKit          2D

 39 41  0  0  0  0  0  0  0  0999 V2000
    7.4402   -0.1461    0.0000 O   0  0  0  0  0  0  0  0  0  0  0  0
    6.8161   -1.4316    0.0000 O   0  0  0  0  0  0  0  0  0  0  0  0
    5.1545   -1.3293    0.0000 N   0  0  0  0  0  0  0  0  0  0  0  0
    6.6980    0.2142    0.0000 C   0  0  0  0  0  0  0  0  0  0  0  0
    5.9558    0.5744    0.0000 C   0  0  0  0  0  0  0  0  0  0  0  0
    6.3377   -0.5280    0.0000 C   0  0  0  0  0  0  0  0  0  0  0  0
    7.0583    0.9563    0.0000 C   0  0  0  0  0  0  0  0  0  0  0  0
    7.8811    1.0154    0.0000 C   0  0  0  0  0  0  0  0  0  0  0  0
    5.2727    0.1118    0.0000 C   0  0  0  0  0  0  0  0  0  0  0  0
    5.8967    1.3973    0.0000 C   0  0  0  0  0  0  0  0  0  0  0  0
    5.5148   -0.5871    0.0000 C   0  0  0  0  0  0  0  0  0  0  0  0
    7.4992   -0.9690    0.0000 C   0  0  0  0  0  0  0  0  0  0  0  0
    6.3104   -1.3526    0.0000 C   0  0  0  0  0  0  0  0  0  0  0  0
    4.5305    0.4721    0.0000 C   0  0  0  0  0  0  0  0  0  0  0  0
    5.1545    1.7576    0.0000 C   0  0  0  0  0  0  0  0  0  0  0  0
    8.2414    1.7576    0.0000 C   0  0  0  0  0  0  0  0  0  0  0  0
    8.3437    0.3323    0.0000 C   0  0  0  0  0  0  0  0  0  0  0  0
    4.4715    1.2950    0.0000 C   0  0  0  0  0  0  0  0  0  0  0  0
    8.2414   -1.3293    0.0000 C   0  0  0  0  0  0  0  0  0  0  0  0
    9.0643    1.8167    0.0000 C   0  0  0  0  0  0  0  0  0  0  0  0
    9.1666    0.3914    0.0000 C   0  0  0  0  0  0  0  0  0  0  0  0
    9.5269    1.1336    0.0000 C   0  0  0  0  0  0  0  0  0  0  0  0
    4.3317   -1.3884    0.0000 C   0  0  0  0  0  0  0  0  0  0  0  0
    5.6172   -2.0124    0.0000 C   0  0  0  0  0  0  0  0  0  0  0  0
    8.3005   -2.1522    0.0000 C   0  0  0  0  0  0  0  0  0  0  0  0
   -1.4800   -0.5598    0.0000 S   0  0  0  0  0  0  0  0  0  0  0  0
   -2.1944   -0.9723    0.0000 O   0  0  0  0  0  0  0  0  0  0  0  0
   -1.0675   -1.2743    0.0000 O   0  0  0  0  0  0  0  0  0  0  0  0
   -1.8925    0.1546    0.0000 O   0  0  0  0  0  0  0  0  0  0  0  0
   -0.7655   -0.1473    0.0000 C   0  0  0  0  0  0  0  0  0  0  0  0
    0.6634   -0.1473    0.0000 C   0  0  0  0  0  0  0  0  0  0  0  0
    0.6634    0.6777    0.0000 C   0  0  0  0  0  0  0  0  0  0  0  0
   -0.0510   -0.5598    0.0000 C   0  0  0  0  0  0  0  0  0  0  0  0
   -0.7655    0.6777    0.0000 C   0  0  0  0  0  0  0  0  0  0  0  0
   -0.0510    1.0902    0.0000 C   0  0  0  0  0  0  0  0  0  0  0  0
    1.3779   -0.5598    0.0000 C   0  0  0  0  0  0  0  0  0  0  0  0
    1.3779    1.0902    0.0000 C   0  0  0  0  0  0  0  0  0  0  0  0
    2.0924   -0.1473    0.0000 C   0  0  0  0  0  0  0  0  0  0  0  0
    2.0924    0.6777    0.0000 C   0  0  0  0  0  0  0  0  0  0  0  0
  4  1  1  6
  1 12  1  0
  2 12  2  0
  3 11  1  0
  3 23  1  0
  3 24  1  0
  4  5  1  0
  4  6  1  0
  4  7  1  1
  5  9  2  0
  5 10  1  0
  6 11  1  0
  6 13  1  1
  7  8  1  0
  8 16  2  0
  8 17  1  0
  9 14  1  0
 10 15  2  0
 12 19  1  0
 14 18  2  0
 15 18  1  0
 16 20  1  0
 17 21  2  0
 19 25  1  0
 20 22  2  0
 21 22  1  0
 26 27  2  0
 26 28  2  0
 26 29  1  0
 26 30  1  0
 30 33  1  0
 30 34  2  0
 31 32  1  0
 31 33  2  0
 31 36  1  0
 32 35  2  0
 32 37  1  0
 34 35  1  0
 36 38  2  0
 37 39  2  0
 38 39  1  0
M  END
> <chembl_id>
CHEMBL1593906

> <chembl_pref_name>
LEVOPROPOXYPHENE NAPSYLATE
