
     RDKit          2D

 31 33  0  0  0  0  0  0  0  0999 V2000
    0.0000    0.7486    0.0000 C   0  0  0  0  0  0  0  0  0  0  0  0
    0.0000   -0.7486    0.0000 C   0  0  0  0  0  0  0  0  0  0  0  0
    1.2964   -1.4973    0.0000 C   0  0  0  0  0  0  0  0  0  0  0  0
    2.5911   -3.7520    0.0000 C   0  0  0  0  0  0  0  0  0  0  0  0
   -1.2447   -7.4974    0.0000 C   0  0  0  0  0  0  0  0  0  0  0  0
   -1.2964    1.4973    0.0000 C   0  0  0  0  0  0  0  0  0  0  0  0
    1.2933   -2.9981    0.0000 O   0  0  0  0  0  0  0  0  0  0  0  0
    1.2964    1.4973    0.0000 C   0  0  0  0  0  0  0  0  0  0  0  0
   -1.2964   -1.4973    0.0000 C   0  0  0  0  0  0  0  0  0  0  0  0
   -1.2596   -5.9975    0.0000 O   0  0  0  0  0  0  0  0  0  0  0  0
   -2.6111    0.7486    0.0000 C   0  0  0  0  0  0  0  0  0  0  0  0
   -2.5363   -8.2603    0.0000 C   0  0  0  0  0  0  0  0  0  0  0  0
    2.5880   -5.2529    0.0000 C   0  0  0  0  0  0  0  0  0  0  0  0
   -1.2845   -2.9981    0.0000 C   0  0  0  0  0  0  0  0  0  0  0  0
    2.5929   -0.7486    0.0000 C   0  0  0  0  0  0  0  0  0  0  0  0
   -2.6111   -0.7486    0.0000 C   0  0  0  0  0  0  0  0  0  0  0  0
   -2.5660   -5.2603    0.0000 C   0  0  0  0  0  0  0  0  0  0  0  0
    3.4583   -3.2541    0.0000 O   0  0  0  0  0  0  0  0  0  0  0  0
   -3.8427   -7.5232    0.0000 C   0  0  0  0  0  0  0  0  0  0  0  0
   -0.1996   -8.0871    0.0000 O   0  0  0  0  0  0  0  0  0  0  0  0
    2.5929    0.7486    0.0000 C   0  0  0  0  0  0  0  0  0  0  0  0
   -3.8575   -6.0232    0.0000 C   0  0  0  0  0  0  0  0  0  0  0  0
   -2.5778   -3.7595    0.0000 C   0  0  0  0  0  0  0  0  0  0  0  0
   -4.8759   -8.1334    0.0000 O   0  0  0  0  0  0  0  0  0  0  0  0
    3.8857   -6.0068    0.0000 C   0  0  0  0  0  0  0  0  0  0  0  0
    2.5849   -6.4529    0.0000 C   0  0  0  0  0  0  0  0  0  0  0  0
    1.7208   -5.7508    0.0000 C   0  0  0  0  0  0  0  0  0  0  0  0
   -3.6486   -1.3517    0.0000 C   0  0  0  0  0  0  0  0  0  0  0  0
    3.6321    1.3486    0.0000 C   0  0  0  0  0  0  0  0  0  0  0  0
    3.8837   -7.0068    0.0000 C   0  0  0  0  0  0  0  0  0  0  0  0
    0.0000   -1.7486    0.0000 H   0  0  0  0  0  0  0  0  0  0  0  0
  2  1  1  0
  3  2  1  0
  4  7  1  0
  5 10  1  0
  6  1  1  0
  3  7  1  6
  8  1  2  0
  9  2  1  0
 10 17  1  0
 11  6  2  0
 12 19  1  0
 13  4  1  0
  9 14  1  1
 15 21  1  0
 16 11  1  0
 17 23  1  1
 18  4  2  0
 19 22  1  0
 20  5  2  0
 21  8  1  0
 22 17  1  0
 23 14  1  0
 19 24  1  6
 25 13  1  0
 26 13  1  0
 27 13  1  0
 16 28  1  1
 21 29  1  6
 30 25  1  0
  2 31  1  1
  3 15  1  0
 16  9  1  0
  5 12  1  0
M  END
> <chembl_id>
CHEMBL1064

> <chembl_pref_name>
SIMVASTATIN
