
     RDKit          2D

 26 29  0  0  0  0  0  0  0  0999 V2000
   12.5757   -8.6150    0.0000 N   0  0  0  0  0  0  0  0  0  0  0  0
   11.8627   -9.0363    0.0000 C   0  0  0  0  0  0  0  0  0  0  0  0
   12.5885  -10.2682    0.0000 S   0  0  0  0  0  0  0  0  0  0  0  0
   11.1560   -8.6260    0.0000 C   0  0  0  0  0  0  0  0  0  0  0  0
   13.2920   -9.0252    0.0000 C   0  0  0  0  0  0  0  0  0  0  0  0
   11.8691   -9.8613    0.0000 C   0  0  0  0  0  0  0  0  0  0  0  0
   13.2984   -9.8501    0.0000 C   0  0  0  0  0  0  0  0  0  0  0  0
   12.5693   -7.7933    0.0000 C   0  0  0  0  0  0  0  0  0  0  0  0
   10.4430   -9.0473    0.0000 C   0  0  0  0  0  0  0  0  0  0  0  0
    9.7073   -8.6212    0.0000 S   0  0  0  0  0  0  0  0  0  0  0  0
   13.9795   -6.1323    0.0000 N   0  0  0  0  0  0  0  0  0  0  0  0
   13.2792   -7.3752    0.0000 C   0  0  0  0  0  0  0  0  0  0  0  0
   13.2729   -6.5502    0.0000 C   0  0  0  0  0  0  0  0  0  0  0  0
   11.1688  -10.2792    0.0000 C   0  0  0  0  0  0  0  0  0  0  0  0
    9.6913   -7.7868    0.0000 O   0  0  0  0  0  0  0  0  0  0  0  0
   10.4494   -9.8722    0.0000 C   0  0  0  0  0  0  0  0  0  0  0  0
   14.7182   -6.5390    0.0000 C   0  0  0  0  0  0  0  0  0  0  0  0
   13.9731   -5.3072    0.0000 C   0  0  0  0  0  0  0  0  0  0  0  0
   13.9987   -8.6040    0.0000 C   0  0  0  0  0  0  0  0  0  0  0  0
    8.9909   -9.0266    0.0000 C   0  0  0  0  0  0  0  0  0  0  0  0
   14.0115  -10.2571    0.0000 C   0  0  0  0  0  0  0  0  0  0  0  0
   12.5566   -6.1432    0.0000 C   0  0  0  0  0  0  0  0  0  0  0  0
   13.2600   -4.9003    0.0000 C   0  0  0  0  0  0  0  0  0  0  0  0
   14.7182   -9.0141    0.0000 C   0  0  0  0  0  0  0  0  0  0  0  0
   14.7245   -9.8391    0.0000 C   0  0  0  0  0  0  0  0  0  0  0  0
   12.5501   -5.3182    0.0000 C   0  0  0  0  0  0  0  0  0  0  0  0
  2  1  1  0
  3  7  1  0
  4  2  1  0
  5  1  1  0
  6  2  2  0
  7  5  2  0
  8  1  1  0
  9  4  2  0
 10  9  1  0
 11 13  1  0
 12  8  1  0
 13 12  1  0
 14  6  1  0
 15 10  1  0
 16 14  2  0
 17 11  1  0
 18 11  1  0
 19  5  1  0
 20 10  1  0
 21  7  1  0
 22 13  1  0
 23 26  1  0
 24 19  2  0
 25 24  1  0
 26 22  1  0
  6  3  1  0
 21 25  2  0
  9 16  1  0
 18 23  1  0
M  CHG  2  10   1  15  -1
M  END
> <chembl_id>
CHEMBL1088

> <chembl_pref_name>
MESORIDAZINE
