
     RDKit          2D

 17 19  0  0  0  0  0  0  0  0999 V2000
    3.6667   -5.9042    0.0000 N   0  0  0  0  0  0  0  0  0  0  0  0
    4.9042   -5.9042    0.0000 C   0  0  0  0  0  0  0  0  0  0  0  0
    4.2792   -5.5292    0.0000 C   0  0  0  0  0  0  0  0  0  0  0  0
    3.6667   -6.6167    0.0000 C   0  0  0  0  0  0  0  0  0  0  0  0
    4.2792   -6.9667    0.0000 N   0  0  0  0  0  0  0  0  0  0  0  0
    5.4917   -5.5292    0.0000 C   0  0  0  0  0  0  0  0  0  0  0  0
    4.9042   -6.6167    0.0000 C   0  0  0  0  0  0  0  0  0  0  0  0
    6.0625   -5.9875    0.0000 N   0  0  0  0  0  0  0  0  0  0  0  0
    6.6417   -5.5667    0.0000 N   0  0  0  0  0  0  0  0  0  0  0  0
    6.4292   -4.8875    0.0000 N   0  0  0  0  0  0  0  0  0  0  0  0
    5.7292   -4.8875    0.0000 N   0  0  0  0  0  0  0  0  0  0  0  0
    3.0500   -6.9667    0.0000 C   0  0  0  0  0  0  0  0  0  0  0  0
    3.0500   -5.5292    0.0000 C   0  0  0  0  0  0  0  0  0  0  0  0
    4.2792   -4.8500    0.0000 O   0  0  0  0  0  0  0  0  0  0  0  0
    2.4417   -5.9042    0.0000 C   0  0  0  0  0  0  0  0  0  0  0  0
    2.4417   -6.6167    0.0000 C   0  0  0  0  0  0  0  0  0  0  0  0
    3.0500   -7.6792    0.0000 C   0  0  0  0  0  0  0  0  0  0  0  0
  2  3  1  0
  3  1  1  0
  4  1  1  0
  5  4  2  0
  6  2  1  0
  7  5  1  0
  8  6  1  0
  9  8  1  0
 10 11  1  0
 11  6  2  0
 12  4  1  0
 13  1  1  0
 14  3  2  0
 15 13  2  0
 16 15  1  0
 17 12  1  0
 16 12  2  0
  7  2  2  0
  9 10  2  0
M  END
> <chembl_id>
CHEMBL1201198

> <chembl_pref_name>
PEMIROLAST
