
     RDKit          2D

 25 27  0  0  0  0  0  0  0  0999 V2000
    8.0265   -4.2146    0.0000 C   0  0  0  0  0  0  0  0  0  0  0  0
    9.3672   -4.2162    0.0000 C   0  0  0  0  0  0  0  0  0  0  0  0
    8.6917   -4.7112    0.0000 C   0  0  0  0  0  0  0  0  0  0  0  0
    9.1064   -3.4307    0.0000 C   0  0  0  0  0  0  0  0  0  0  0  0
    8.2800   -3.4297    0.0000 C   0  0  0  0  0  0  0  0  0  0  0  0
    7.3006   -4.6269    0.0000 C   0  0  0  0  0  0  0  0  0  0  0  0
    4.4191   -2.9843    0.0000 S   0  0  0  0  0  0  0  0  0  0  0  0
   10.0830   -4.6440    0.0000 C   0  0  0  0  0  0  0  0  0  0  0  0
    7.8676   -2.7129    0.0000 C   0  0  0  0  0  0  0  0  0  0  0  0
   10.7998   -4.2224    0.0000 C   0  0  0  0  0  0  0  0  0  0  0  0
    9.5205   -2.7149    0.0000 C   0  0  0  0  0  0  0  0  0  0  0  0
    5.1394   -3.3984    0.0000 C   0  0  0  0  0  0  0  0  0  0  0  0
    4.4109   -2.1578    0.0000 O   0  0  0  0  0  0  0  0  0  0  0  0
   10.8008   -3.3913    0.0000 O   0  0  0  0  0  0  0  0  0  0  0  0
    6.5802   -4.2174    0.0000 C   0  0  0  0  0  0  0  0  0  0  0  0
    5.8562   -2.9768    0.0000 C   0  0  0  0  0  0  0  0  0  0  0  0
    5.1384   -4.2294    0.0000 C   0  0  0  0  0  0  0  0  0  0  0  0
    9.1081   -2.0026    0.0000 C   0  0  0  0  0  0  0  0  0  0  0  0
    8.2771   -1.9971    0.0000 C   0  0  0  0  0  0  0  0  0  0  0  0
    8.6908   -5.5377    0.0000 C   0  0  0  0  0  0  0  0  0  0  0  0
   11.5155   -4.6457    0.0000 O   0  0  0  0  0  0  0  0  0  0  0  0
    6.5720   -3.4001    0.0000 C   0  0  0  0  0  0  0  0  0  0  0  0
    5.8634   -4.6390    0.0000 C   0  0  0  0  0  0  0  0  0  0  0  0
    9.5314   -1.2823    0.0000 F   0  0  0  0  0  0  0  0  0  0  0  0
    3.6931   -3.4012    0.0000 C   0  0  0  0  0  0  0  0  0  0  0  0
  2  3  2  0
  3  1  1  0
  4  5  2  0
  5  1  1  0
  6  1  2  0
  7 12  1  0
  8  2  1  0
  9  5  1  0
 10  8  1  0
 11  4  1  0
 12 17  2  0
 13  7  1  0
 14 10  2  0
 15  6  1  0
 16 22  2  0
 17 23  1  0
 18 19  1  0
 19  9  2  0
 20  3  1  0
 21 10  1  0
 22 15  1  0
 23 15  2  0
 24 18  1  0
 25  7  1  0
  4  2  1  0
 16 12  1  0
 11 18  2  0
M  CHG  2   7   1  13  -1
M  END
> <chembl_id>
CHEMBL15770

> <chembl_pref_name>
SULINDAC
