
     RDKit          2D

 27 29  0  0  1  0  0  0  0  0999 V2000
    0.4030   -2.0764    0.0000 C   0  0  0  0  0  0  0  0  0  0  0  0
   -0.3081   -1.6545    0.0000 C   0  0  0  0  0  0  0  0  0  0  0  0
    0.3888   -2.9013    0.0000 C   0  0  0  0  0  0  0  0  0  0  0  0
   -0.3365   -3.3043    0.0000 O   0  0  0  0  0  0  0  0  0  0  0  0
   -1.0477   -2.8918    0.0000 C   0  0  0  0  0  0  0  0  0  0  0  0
   -1.0382   -2.0622    0.0000 C   0  0  0  0  0  0  0  0  0  0  0  0
    1.1283   -1.6545    0.0000 C   0  0  0  0  0  0  0  0  0  0  0  0
    1.8394   -2.9203    0.0000 C   0  0  0  0  0  0  0  0  0  0  0  0
    1.0999   -3.3327    0.0000 C   0  0  0  0  0  0  0  0  0  0  0  0
    1.8394   -2.0812    0.0000 C   0  0  0  0  0  0  0  0  0  0  0  0
   -1.7493   -1.6403    0.0000 C   0  0  0  0  0  0  0  0  0  0  0  0
   -0.2987   -0.8297    0.0000 C   0  0  0  0  0  0  0  0  0  0  0  0
    2.5173   -3.3185    0.0000 C   0  0  0  0  0  0  0  0  0  0  0  0
   -1.0192   -0.4030    0.0000 C   0  0  0  0  0  0  0  0  0  0  0  0
   -1.0050    0.4219    0.0000 O   0  0  0  0  0  0  0  0  0  0  0  0
    1.1283   -0.8581    0.0000 O   0  0  0  0  0  0  0  0  0  0  0  0
   -1.7445   -0.8107    0.0000 C   0  0  0  0  0  0  0  0  0  0  0  0
   -1.4459   -3.5603    0.0000 C   0  0  0  0  0  0  0  0  0  0  0  0
   -1.8299   -2.8728    0.0000 C   0  0  0  0  0  0  0  0  0  0  0  0
    3.2332   -2.9345    0.0000 C   0  0  0  0  0  0  0  0  0  0  0  0
    2.1096   -4.0154    0.0000 C   0  0  0  0  0  0  0  0  0  0  0  0
    2.9155   -4.0154    0.0000 C   0  0  0  0  0  0  0  0  0  0  0  0
    3.9301   -3.3470    0.0000 C   0  0  0  0  0  0  0  0  0  0  0  0
    6.0207   -2.9772    0.0000 C   0  0  0  0  0  0  0  0  0  0  0  0
    5.3238   -3.3564    0.0000 C   0  0  0  0  0  0  0  0  0  0  0  0
    4.6364   -2.9582    0.0000 C   0  0  0  0  0  0  0  0  0  0  0  0
    6.7034   -3.3896    0.0000 C   0  0  0  0  0  0  0  0  0  0  0  0
  2  1  1  0
  3  1  2  0
  4  3  1  0
  6  5  1  0
  2  6  1  0
  7  1  1  0
  8 10  1  0
  9  3  1  0
 10  7  2  0
  6 11  1  0
  2 12  1  0
 13  8  1  0
 14 12  1  0
 15 14  2  0
 16  7  1  0
 17 14  1  0
 18  5  1  0
 19  5  1  0
 20 13  1  0
 21 13  1  0
 22 13  1  0
 23 20  1  0
 24 25  1  0
 25 26  1  0
 26 23  1  0
 27 24  1  0
  8  9  2  0
  4  5  1  0
 17 11  1  0
M  END
> <chembl_id>
CHEMBL2218896

> <chembl_pref_name>
NABILONE
