
     RDKit          2D

 34 37  0  0  1  0  0  0  0  0999 V2000
    2.2750    0.3375    0.0000 C   0  0  0  0  0  0  0  0  0  0  0  0
    2.1125    0.9375    0.0000 C   0  0  0  0  0  0  0  0  0  0  0  0
   -1.1208   -0.4417    0.0000 C   0  0  0  0  0  0  0  0  0  0  0  0
    1.6750    0.1833    0.0000 C   0  0  0  0  0  0  0  0  0  0  0  0
   -0.8458   -1.0042    0.0000 N   0  0  0  0  0  0  0  0  0  0  0  0
   -2.2083   -0.7000    0.0000 C   0  0  0  0  0  0  0  0  0  0  0  0
    2.8750    0.1833    0.0000 C   0  0  0  0  0  0  0  0  0  0  0  0
    1.5167    0.7750    0.0000 C   0  0  0  0  0  0  0  0  0  0  0  0
   -1.7250   -0.3125    0.0000 C   0  0  0  0  0  0  0  0  0  0  0  0
   -2.2083   -1.3250    0.0000 C   0  0  0  0  0  0  0  0  0  0  0  0
    2.5500    1.3750    0.0000 C   0  0  0  0  0  0  0  0  0  0  0  0
    3.3125    0.6208    0.0000 C   0  0  0  0  0  0  0  0  0  0  0  0
   -2.7458   -0.4000    0.0000 C   0  0  0  0  0  0  0  0  0  0  0  0
    3.1417    1.2208    0.0000 C   0  0  0  0  0  0  0  0  0  0  0  0
   -3.2833   -0.7042    0.0000 C   0  0  0  0  0  0  0  0  0  0  0  0
   -3.2833   -1.3250    0.0000 C   0  0  0  0  0  0  0  0  0  0  0  0
   -2.7458   -1.6292    0.0000 C   0  0  0  0  0  0  0  0  0  0  0  0
    1.2917   -0.0917    0.0000 C   0  0  0  0  0  0  0  0  0  0  0  0
   -0.6458   -0.0500    0.0000 O   0  0  0  0  0  0  0  0  0  0  0  0
   -1.1125   -1.5667    0.0000 C   0  0  0  0  0  0  0  0  0  0  0  0
   -1.7208   -1.7042    0.0000 C   0  0  0  0  0  0  0  0  0  0  0  0
    1.2917   -0.7167    0.0000 N   0  0  0  0  0  0  0  0  0  0  0  0
    0.2417   -0.7000    0.0000 C   0  0  0  0  0  0  0  0  0  0  0  0
   -0.2083   -1.0750    0.0000 C   0  0  0  0  0  0  0  0  0  0  0  0
    3.9042    0.4583    0.0000 O   0  0  0  0  0  0  0  0  0  0  0  0
    3.5792    1.6583    0.0000 O   0  0  0  0  0  0  0  0  0  0  0  0
   -3.8125   -0.3917    0.0000 O   0  0  0  0  0  0  0  0  0  0  0  0
   -3.8125   -1.6292    0.0000 O   0  0  0  0  0  0  0  0  0  0  0  0
    0.7292   -1.0250    0.0000 C   0  0  0  0  0  0  0  0  0  0  0  0
    1.9167   -1.0250    0.0000 C   0  0  0  0  0  0  0  0  0  0  0  0
    4.3417    0.8958    0.0000 C   0  0  0  0  0  0  0  0  0  0  0  0
    3.4167    2.2500    0.0000 C   0  0  0  0  0  0  0  0  0  0  0  0
   -4.3458   -0.7000    0.0000 C   0  0  0  0  0  0  0  0  0  0  0  0
   -3.8125   -2.2417    0.0000 C   0  0  0  0  0  0  0  0  0  0  0  0
  2  1  2  0
  3  5  1  0
  4  1  1  0
  5 24  1  0
  6  9  1  0
  7  1  1  0
  8  4  1  0
  9  3  1  0
 10 21  1  0
 11  2  1  0
 12  7  2  0
 13  6  2  0
 14 12  1  0
 15 13  1  0
 16 17  1  0
 17 10  2  0
  4 18  1  1
 19  3  2  0
 20  5  1  0
 21 20  1  0
 22 18  1  0
 23 29  1  0
 24 23  1  0
 25 12  1  0
 26 14  1  0
 27 15  1  0
 28 16  1  0
 29 22  1  0
 30 22  1  0
 31 25  1  0
 32 26  1  0
 33 27  1  0
 34 28  1  0
  2  8  1  0
 11 14  2  0
  6 10  1  0
 15 16  2  0
M  END
> <chembl_id>
CHEMBL471737

> <chembl_pref_name>
IVABRADINE
