
     RDKit          2D

 35 37  0  0  0  0  0  0  0  0999 V2000
    2.1167   -8.1375    0.0000 N   0  0  0  0  0  0  0  0  0  0  0  0
    2.8292   -9.3750    0.0000 N   0  0  0  0  0  0  0  0  0  0  0  0
    3.5417   -8.1375    0.0000 C   0  0  0  0  0  0  0  0  0  0  0  0
    3.5417   -8.9625    0.0000 C   0  0  0  0  0  0  0  0  0  0  0  0
    2.8292   -7.7250    0.0000 C   0  0  0  0  0  0  0  0  0  0  0  0
    2.1167   -8.9625    0.0000 C   0  0  0  0  0  0  0  0  0  0  0  0
    4.2542   -7.7250    0.0000 N   0  0  0  0  0  0  0  0  0  0  0  0
    9.2625   -6.4875    0.0000 C   0  0  0  0  0  0  0  0  0  0  0  0
    4.2542   -9.3750    0.0000 N   0  0  0  0  0  0  0  0  0  0  0  0
    9.9750   -6.9000    0.0000 N   0  0  0  0  0  0  0  0  0  0  0  0
   11.1042   -5.7750    0.0000 C   0  0  0  0  0  0  0  0  0  0  0  0
    7.1375   -9.2500    0.0000 C   0  0  0  0  0  0  0  0  0  0  0  0
   10.6917   -6.4875    0.0000 C   0  0  0  0  0  0  0  0  0  0  0  0
    7.8625   -9.6500    0.0000 C   0  0  0  0  0  0  0  0  0  0  0  0
    8.5417   -6.9000    0.0000 C   0  0  0  0  0  0  0  0  0  0  0  0
    4.9750   -8.1375    0.0000 C   0  0  0  0  0  0  0  0  0  0  0  0
   12.1167   -8.1375    0.0000 C   0  0  0  0  0  0  0  0  0  0  0  0
    7.1167   -7.7250    0.0000 C   0  0  0  0  0  0  0  0  0  0  0  0
    9.2625   -5.6625    0.0000 O   0  0  0  0  0  0  0  0  0  0  0  0
    5.6875   -7.7250    0.0000 C   0  0  0  0  0  0  0  0  0  0  0  0
    6.4042   -8.1375    0.0000 C   0  0  0  0  0  0  0  0  0  0  0  0
   10.6917   -5.0542    0.0000 O   0  0  0  0  0  0  0  0  0  0  0  0
   12.1167   -8.9625    0.0000 O   0  0  0  0  0  0  0  0  0  0  0  0
    2.8292   -6.9000    0.0000 N   0  0  0  0  0  0  0  0  0  0  0  0
    8.5417   -7.7250    0.0000 C   0  0  0  0  0  0  0  0  0  0  0  0
    7.8292   -6.4875    0.0000 C   0  0  0  0  0  0  0  0  0  0  0  0
    1.4000   -9.3750    0.0000 N   0  0  0  0  0  0  0  0  0  0  0  0
    7.8292   -8.1375    0.0000 C   0  0  0  0  0  0  0  0  0  0  0  0
    7.1167   -6.9000    0.0000 C   0  0  0  0  0  0  0  0  0  0  0  0
    4.9750   -8.9625    0.0000 C   0  0  0  0  0  0  0  0  0  0  0  0
   11.4042   -6.9000    0.0000 C   0  0  0  0  0  0  0  0  0  0  0  0
   11.4042   -7.7250    0.0000 C   0  0  0  0  0  0  0  0  0  0  0  0
   11.9292   -5.7750    0.0000 O   0  0  0  0  0  0  0  0  0  0  0  0
   12.8292   -7.7250    0.0000 O   0  0  0  0  0  0  0  0  0  0  0  0
    6.4167   -8.8542    0.0000 C   0  0  0  0  0  0  0  0  0  0  0  0
  2  6  1  0
  3  5  2  0
  4  2  2  0
  5  1  1  0
  6  1  2  0
  7  3  1  0
  8 15  1  0
  9  4  1  0
 10  8  1  0
 13 11  1  0
 12 35  1  0
 13 10  1  6
 14 12  3  0
 15 26  1  0
 16  7  2  0
 17 32  1  0
 18 21  1  0
 19  8  2  0
 20 16  1  0
 21 20  1  0
 22 11  2  0
 23 17  2  0
 24  5  1  0
 25 28  1  0
 26 29  2  0
 27  6  1  0
 28 18  2  0
 29 18  1  0
 30  9  2  0
 31 13  1  0
 32 31  1  0
 33 11  1  0
 34 17  1  0
 35 21  1  0
  4  3  1  0
 30 16  1  0
 15 25  2  0
M  END
> <chembl_id>
CHEMBL1201746

> <chembl_pref_name>
PRALATREXATE
