
     RDKit          2D

  4  3  0  0  0  0  0  0  0  0999 V2000
   -0.6777    0.0000    0.0000 Se  0  0  0  0  0  4  0  0  0  0  0  0
    0.1473    0.0000    0.0000 O   0  0  0  0  0  0  0  0  0  0  0  0
   -1.0902    0.7145    0.0000 O   0  0  0  0  0  0  0  0  0  0  0  0
   -1.0902   -0.7145    0.0000 O   0  0  0  0  0  0  0  0  0  0  0  0
  1  2  1  0
  1  3  2  0
  1  4  1  0
M  END
> <chembl_id>
CHEMBL2009089

> <chembl_pref_name>
SELENIOUS ACID
