
     RDKit          2D

 15 16  0  0  1  0  0  0  0  0999 V2000
   10.0272   -1.2655    0.0000 C   0  0  0  0  0  0  0  0  0  0  0  0
    9.3115   -0.8539    0.0000 N   0  0  0  0  0  0  0  0  0  0  0  0
    9.3109   -0.0295    0.0000 C   0  0  0  0  0  0  0  0  0  0  0  0
   10.0259    0.3833    0.0000 C   0  0  0  0  0  0  0  0  0  0  0  0
   10.7416   -0.0283    0.0000 C   0  0  0  0  0  0  0  0  0  0  0  0
   10.7381   -0.8527    0.0000 N   0  0  0  0  0  0  0  0  0  0  0  0
   10.0279   -2.0899    0.0000 O   0  0  0  0  0  0  0  0  0  0  0  0
   12.2073   -0.9264    0.0000 O   0  0  0  0  0  0  0  0  0  0  0  0
   12.7605   -1.5420    0.0000 C   0  0  0  0  0  0  0  0  0  0  0  0
   12.3489   -2.2535    0.0000 S   0  0  0  0  0  0  0  0  0  0  0  0
   11.5391   -2.0819    0.0000 C   0  0  0  0  0  0  0  0  0  0  0  0
   11.4538   -1.2644    0.0000 C   0  0  0  0  0  0  0  0  0  0  0  0
   13.5780   -1.4523    0.0000 C   0  0  0  0  0  0  0  0  0  0  0  0
   14.0629   -2.1212    0.0000 O   0  0  0  0  0  0  0  0  0  0  0  0
    8.5994    0.3822    0.0000 N   0  0  0  0  0  0  0  0  0  0  0  0
  1  2  1  0
  2  3  2  0
  3  4  1  0
  4  5  2  0
  5  6  1  0
  1  6  1  0
  1  7  2  0
  8  9  1  0
  9 10  1  0
 10 11  1  0
 11 12  1  0
  8 12  1  0
 13 14  1  0
  9 13  1  1
 12  6  1  1
  3 15  1  0
M  END
> <chembl_id>
CHEMBL141

> <chembl_pref_name>
LAMIVUDINE
