
     RDKit          2D

 33 36  0  0  1  0  0  0  0  0999 V2000
    2.2167   -2.7750    0.0000 C   0  0  0  0  0  0  0  0  0  0  0  0
    0.3667   -3.8250    0.0000 C   0  0  0  0  0  0  0  0  0  0  0  0
    2.9000   -2.5625    0.0000 C   0  0  0  0  0  0  0  0  0  0  0  0
    1.5917   -3.8292    0.0000 C   0  0  0  0  0  0  0  0  0  0  0  0
    2.2125   -3.4792    0.0000 C   0  0  0  0  0  0  0  0  0  0  0  0
    0.9792   -3.4750    0.0000 C   0  0  0  0  0  0  0  0  0  0  0  0
    0.3667   -4.5417    0.0000 C   0  0  0  0  0  0  0  0  0  0  0  0
    4.7417   -1.4750    0.0000 P   0  0  0  0  0  0  0  0  0  0  0  0
    1.6042   -2.4042    0.0000 C   0  0  0  0  0  0  0  0  0  0  0  0
    0.9875   -2.7625    0.0000 C   0  0  0  0  0  0  0  0  0  0  0  0
   -0.2500   -3.4750    0.0000 C   0  0  0  0  0  0  0  0  0  0  0  0
    2.8917   -1.8500    0.0000 C   0  0  0  0  0  0  0  0  0  0  0  0
   -0.2500   -4.8917    0.0000 C   0  0  0  0  0  0  0  0  0  0  0  0
    3.3125   -3.1375    0.0000 C   0  0  0  0  0  0  0  0  0  0  0  0
    2.8875   -3.7125    0.0000 C   0  0  0  0  0  0  0  0  0  0  0  0
    1.5917   -4.5417    0.0000 C   0  0  0  0  0  0  0  0  0  0  0  0
   -0.8708   -3.8250    0.0000 C   0  0  0  0  0  0  0  0  0  0  0  0
   -0.8708   -4.5417    0.0000 C   0  0  0  0  0  0  0  0  0  0  0  0
    3.5042   -1.4792    0.0000 C   0  0  0  0  0  0  0  0  0  0  0  0
    4.1292   -1.8375    0.0000 O   0  0  0  0  0  0  0  0  0  0  0  0
    5.3625   -1.8292    0.0000 O   0  0  0  0  0  0  0  0  0  0  0  0
    5.0917   -0.8542    0.0000 O   0  0  0  0  0  0  0  0  0  0  0  0
    0.9792   -4.9000    0.0000 C   0  0  0  0  0  0  0  0  0  0  0  0
    4.3792   -0.8542    0.0000 O   0  0  0  0  0  0  0  0  0  0  0  0
    2.2750   -1.4917    0.0000 O   0  0  0  0  0  0  0  0  0  0  0  0
   -1.4833   -4.8917    0.0000 O   0  0  0  0  0  0  0  0  0  0  0  0
    3.5167   -2.2000    0.0000 O   0  0  0  0  0  0  0  0  0  0  0  0
    2.2125   -2.0625    0.0000 C   0  0  0  0  0  0  0  0  0  0  0  0
    0.3667   -2.4000    0.0000 O   0  0  0  0  0  0  0  0  0  0  0  0
    0.3625   -3.1167    0.0000 C   0  0  0  0  0  0  0  0  0  0  0  0
    2.2042   -4.1917    0.0000 H   0  0  0  0  0  0  0  0  0  0  0  0
    1.5917   -3.1167    0.0000 H   0  0  0  0  0  0  0  0  0  0  0  0
    0.9792   -4.1875    0.0000 H   0  0  0  0  0  0  0  0  0  0  0  0
  2  6  1  0
  3  1  1  0
  4  5  1  0
  5  1  1  0
  6 10  1  0
  7  2  1  0
  8 20  1  0
  9  1  1  0
 10  9  1  0
 11  2  1  0
 12  3  1  0
 13  7  2  0
 14  3  1  0
 15  5  1  0
 16  4  1  0
 17 11  2  0
 18 17  1  0
 19 12  1  0
 20 19  1  0
 21  8  1  0
 22  8  1  0
 23 16  1  0
 24  8  2  0
 25 12  2  0
 26 18  2  0
  3 27  1  6
  1 28  1  1
 10 29  1  1
  2 30  1  1
  5 31  1  6
  4 32  1  1
  6 33  1  6
 14 15  1  0
  6  4  1  0
 23  7  1  0
 18 13  1  0
M  END
> <chembl_id>
CHEMBL1201231

> <chembl_pref_name>
PREDNISOLONE PHOSPHORIC ACID
