
     RDKit          2D

 27 26  0  0  0  0  0  0  0  0999 V2000
    1.4542    1.0958    0.0000 P   0  0  0  0  0  0  0  0  0  0  0  0
    1.0167    0.3958    0.0000 O   0  0  0  0  0  0  0  0  0  0  0  0
    1.9125    1.7833    0.0000 O   0  0  0  0  0  0  0  0  0  0  0  0
    3.5792   -0.2000    0.0000 N   0  0  0  0  0  0  0  0  0  0  0  0
    2.1542    0.6500    0.0000 O   0  0  0  0  0  0  0  0  0  0  0  0
    0.7792    1.5333    0.0000 O   0  0  0  0  0  0  0  0  0  0  0  0
    2.8875    1.0333    0.0000 C   0  0  0  0  0  0  0  0  0  0  0  0
    3.5792    0.5958    0.0000 C   0  0  0  0  0  0  0  0  0  0  0  0
    2.8292   -0.2000    0.0000 C   0  0  0  0  0  0  0  0  0  0  0  0
    3.5792   -0.9000    0.0000 C   0  0  0  0  0  0  0  0  0  0  0  0
    4.3417   -0.2000    0.0000 C   0  0  0  0  0  0  0  0  0  0  0  0
    0.0542    1.1583    0.0000 C   0  0  0  0  0  0  0  0  0  0  0  0
   -0.6333    1.6000    0.0000 C   0  0  0  0  0  0  0  0  0  0  0  0
   -1.0750   -1.1167    0.0000 C   0  0  0  0  0  0  0  0  0  0  0  0
   -1.8958   -1.1042    0.0000 C   0  0  0  0  0  0  0  0  0  0  0  0
   -2.6208    1.0583    0.0000 C   0  0  0  0  0  0  0  0  0  0  0  0
   -3.3208    1.4958    0.0000 C   0  0  0  0  0  0  0  0  0  0  0  0
   -3.9625    0.9833    0.0000 C   0  0  0  0  0  0  0  0  0  0  0  0
   -3.7000    0.2125    0.0000 C   0  0  0  0  0  0  0  0  0  0  0  0
   -4.3458   -0.2917    0.0000 C   0  0  0  0  0  0  0  0  0  0  0  0
   -4.0833   -1.0792    0.0000 C   0  0  0  0  0  0  0  0  0  0  0  0
   -3.2708   -1.0917    0.0000 C   0  0  0  0  0  0  0  0  0  0  0  0
   -2.9958   -1.8667    0.0000 C   0  0  0  0  0  0  0  0  0  0  0  0
   -2.1708   -1.8792    0.0000 C   0  0  0  0  0  0  0  0  0  0  0  0
   -1.9708    1.5625    0.0000 C   0  0  0  0  0  0  0  0  0  0  0  0
   -1.2875    1.0958    0.0000 C   0  0  0  0  0  0  0  0  0  0  0  0
   -0.7875   -0.3417    0.0000 C   0  0  0  0  0  0  0  0  0  0  0  0
  2  1  1  0
  3  1  2  0
  4  8  1  0
  5  1  1  0
  6  1  1  0
  7  5  1  0
  8  7  1  0
  9  4  1  0
 10  4  1  0
 11  4  1  0
 12  6  1  0
 13 12  1  0
 14 15  1  0
 15 24  1  0
 16 25  1  0
 17 16  1  0
 18 17  1  0
 19 18  1  0
 20 19  1  0
 21 20  1  0
 22 21  1  0
 23 22  1  0
 24 23  1  0
 25 26  1  0
 26 13  1  0
 27 14  1  0
M  CHG  2   2  -1   4   1
M  END
> <chembl_id>
CHEMBL125

> <chembl_pref_name>
MILTEFOSINE
