
     RDKit          2D

 27 32  0  0  1  0  0  0  0  0999 V2000
    0.5167   -1.6667    0.0000 C   0  0  0  0  0  0  0  0  0  0  0  0
    0.9917   -0.8625    0.0000 C   0  0  0  0  0  0  0  0  0  0  0  0
   -0.4208   -1.6667    0.0000 C   0  0  0  0  0  0  0  0  0  0  0  0
    0.9792   -2.5167    0.0000 C   0  0  0  0  0  0  0  0  0  0  0  0
   -0.9000   -2.5042    0.0000 C   0  0  0  0  0  0  0  0  0  0  0  0
    0.0542   -3.1000    0.0000 O   0  0  0  0  0  0  0  0  0  0  0  0
    0.5292   -0.0542    0.0000 C   0  0  0  0  0  0  0  0  0  0  0  0
    0.5167    1.0333    0.0000 N   0  0  0  0  0  0  0  0  0  0  0  0
   -0.9000   -0.8625    0.0000 C   0  0  0  0  0  0  0  0  0  0  0  0
   -0.4208   -0.0542    0.0000 C   0  0  0  0  0  0  0  0  0  0  0  0
    1.9167   -2.5167    0.0000 C   0  0  0  0  0  0  0  0  0  0  0  0
   -0.0833   -0.8042    0.0000 C   0  0  0  0  0  0  0  0  0  0  0  0
    1.9417   -0.8792    0.0000 C   0  0  0  0  0  0  0  0  0  0  0  0
    1.2917    1.5833    0.0000 C   0  0  0  0  0  0  0  0  0  0  0  0
   -1.8458   -2.5042    0.0000 C   0  0  0  0  0  0  0  0  0  0  0  0
   -0.0833    0.4833    0.0000 C   0  0  0  0  0  0  0  0  0  0  0  0
    1.2042    2.5625    0.0000 C   0  0  0  0  0  0  0  0  0  0  0  0
    0.3292    2.9708    0.0000 C   0  0  0  0  0  0  0  0  0  0  0  0
    1.0667    3.5958    0.0000 C   0  0  0  0  0  0  0  0  0  0  0  0
    2.4125   -1.7125    0.0000 C   0  0  0  0  0  0  0  0  0  0  0  0
   -1.8500   -0.8625    0.0000 C   0  0  0  0  0  0  0  0  0  0  0  0
    1.7417    0.0208    0.0000 O   0  0  0  0  0  0  0  0  0  0  0  0
   -2.3333   -1.6667    0.0000 C   0  0  0  0  0  0  0  0  0  0  0  0
    2.3792   -3.3792    0.0000 C   0  0  0  0  0  0  0  0  0  0  0  0
   -2.2875   -3.3375    0.0000 O   0  0  0  0  0  0  0  0  0  0  0  0
    1.3042   -3.4125    0.0000 H   0  0  0  0  0  0  0  0  0  0  0  0
    1.3042    0.5375    0.0000 H   0  0  0  0  0  0  0  0  0  0  0  0
  2  1  1  0
  3  1  1  0
  4  1  1  0
  5  3  1  0
  6  4  1  0
  7  2  1  0
  8 16  1  0
  9  3  2  0
 10  9  1  0
 11  4  1  0
  1 12  1  1
 13  2  1  0
 14  8  1  0
 15  5  2  0
 16 12  1  0
 17 14  1  0
 18 17  1  0
 19 17  1  0
 20 11  1  0
 21  9  1  0
  2 22  1  1
 23 21  2  0
 24 11  2  0
 25 15  1  0
  4 26  1  1
  7 27  1  6
  5  6  1  0
  7  8  1  0
 13 20  1  0
  7 10  1  0
 15 23  1  0
 18 19  1  0
M  END
> <chembl_id>
CHEMBL982

> <chembl_pref_name>
NALMEFENE
