
     RDKit          2D

 18 19  0  0  0  0  0  0  0  0999 V2000
   -1.4208    0.0500    0.0000 C   0  0  0  0  0  0  0  0  0  0  0  0
   -0.0958    0.0500    0.0000 C   0  0  0  0  0  0  0  0  0  0  0  0
   -2.0875    1.1958    0.0000 C   0  0  0  0  0  0  0  0  0  0  0  0
   -3.4250    1.1958    0.0000 C   0  0  0  0  0  0  0  0  0  0  0  0
    0.5542    1.1958    0.0000 N   0  0  0  0  0  0  0  0  0  0  0  0
   -4.0833    0.0500    0.0000 C   0  0  0  0  0  0  0  0  0  0  0  0
   -2.0875   -1.0917    0.0000 C   0  0  0  0  0  0  0  0  0  0  0  0
   -3.4250   -1.0917    0.0000 C   0  0  0  0  0  0  0  0  0  0  0  0
    0.5542   -1.0917    0.0000 O   0  0  0  0  0  0  0  0  0  0  0  0
   -4.1000    2.3625    0.0000 Br  0  0  0  0  0  0  0  0  0  0  0  0
   -1.4000    2.3625    0.0000 O   0  0  0  0  0  0  0  0  0  0  0  0
    1.8750    1.1833    0.0000 C   0  0  0  0  0  0  0  0  0  0  0  0
   -4.1000   -2.2417    0.0000 Br  0  0  0  0  0  0  0  0  0  0  0  0
    2.5042    2.2708    0.0000 C   0  0  0  0  0  0  0  0  0  0  0  0
    2.5250    0.2125    0.0000 C   0  0  0  0  0  0  0  0  0  0  0  0
    3.7542    2.2708    0.0000 C   0  0  0  0  0  0  0  0  0  0  0  0
    3.7375    0.2125    0.0000 C   0  0  0  0  0  0  0  0  0  0  0  0
    4.3417    1.1833    0.0000 C   0  0  0  0  0  0  0  0  0  0  0  0
  2  1  1  0
  3  1  2  0
  4  3  1  0
  5  2  1  0
  6  8  1  0
  7  1  1  0
  8  7  2  0
  9  2  2  0
 10  4  1  0
 11  3  1  0
 12  5  1  0
 13  8  1  0
 14 12  1  0
 15 12  2  0
 16 14  2  0
 17 15  1  0
 18 17  2  0
  4  6  2  0
 16 18  1  0
M  END
> <chembl_id>
CHEMBL1801800

> <chembl_pref_name>
METABROMSALAN
