
     RDKit          2D

 66 68  0  0  0  0  0  0  0  0999 V2000
   -2.1435   -2.0625    0.0000 C   0  0  0  0  0  0  0  0  0  0  0  0
   -2.8580   -1.6500    0.0000 O   0  0  0  0  0  0  0  0  0  0  0  0
   -3.5725   -2.0625    0.0000 C   0  0  0  0  0  0  0  0  0  0  0  0
   -3.5725   -2.8875    0.0000 C   0  0  0  0  0  0  0  0  0  0  0  0
   -2.8580   -3.3000    0.0000 C   0  0  0  0  0  0  0  0  0  0  0  0
   -2.1436   -2.8875    0.0000 C   0  0  0  0  0  0  0  0  0  0  0  0
   -4.2870   -1.6500    0.0000 O   0  0  0  0  0  0  0  0  0  0  0  0
   -4.2870   -0.8250    0.0000 C   0  0  0  0  0  0  0  0  0  0  0  0
   -3.5725   -0.4125    0.0000 C   0  0  0  0  0  0  0  0  0  0  0  0
   -5.0014   -0.4125    0.0000 C   0  0  0  0  0  0  0  0  0  0  0  0
   -5.7159   -0.8250    0.0000 C   0  0  0  0  0  0  0  0  0  0  0  0
   -6.4304   -0.4125    0.0000 C   0  0  0  0  0  0  0  0  0  0  0  0
   -7.1449   -0.8250    0.0000 C   0  0  0  0  0  0  0  0  0  0  0  0
   -7.8593   -0.4125    0.0000 C   0  0  0  0  0  0  0  0  0  0  0  0
   -8.5738   -0.8250    0.0000 C   0  0  0  0  0  0  0  0  0  0  0  0
   -9.2883   -0.4125    0.0000 C   0  0  0  0  0  0  0  0  0  0  0  0
  -10.0027   -0.8250    0.0000 C   0  0  0  0  0  0  0  0  0  0  0  0
  -10.7172   -0.4125    0.0000 C   0  0  0  0  0  0  0  0  0  0  0  0
  -11.4317   -0.8250    0.0000 C   0  0  0  0  0  0  0  0  0  0  0  0
  -12.1462   -0.4125    0.0000 C   0  0  0  0  0  0  0  0  0  0  0  0
  -12.8606   -0.8250    0.0000 C   0  0  0  0  0  0  0  0  0  0  0  0
  -13.5751   -0.4125    0.0000 C   0  0  0  0  0  0  0  0  0  0  0  0
  -14.2896   -0.8250    0.0000 C   0  0  0  0  0  0  0  0  0  0  0  0
  -15.0040   -0.4125    0.0000 C   0  0  0  0  0  0  0  0  0  0  0  0
  -15.7185   -0.8250    0.0000 C   0  0  0  0  0  0  0  0  0  0  0  0
  -15.0040    0.4125    0.0000 C   0  0  0  0  0  0  0  0  0  0  0  0
  -15.7185    0.8250    0.0000 O   0  0  0  0  0  0  0  0  0  0  0  0
  -14.2896    0.8250    0.0000 C   0  0  0  0  0  0  0  0  0  0  0  0
  -13.5751    0.4125    0.0000 C   0  0  0  0  0  0  0  0  0  0  0  0
  -14.2896    1.6500    0.0000 C   0  0  0  0  0  0  0  0  0  0  0  0
  -15.0040    2.0625    0.0000 C   0  0  0  0  0  0  0  0  0  0  0  0
  -13.5751    2.0625    0.0000 O   0  0  0  0  0  0  0  0  0  0  0  0
  -12.8606    1.6500    0.0000 C   0  0  0  0  0  0  0  0  0  0  0  0
  -12.1462    2.0625    0.0000 C   0  0  0  0  0  0  0  0  0  0  0  0
  -11.4317    1.6500    0.0000 C   0  0  0  0  0  0  0  0  0  0  0  0
  -10.7172    2.0625    0.0000 C   0  0  0  0  0  0  0  0  0  0  0  0
  -10.0027    1.6500    0.0000 C   0  0  0  0  0  0  0  0  0  0  0  0
   -9.2883    2.0625    0.0000 C   0  0  0  0  0  0  0  0  0  0  0  0
   -8.5738    1.6500    0.0000 C   0  0  0  0  0  0  0  0  0  0  0  0
   -7.8593    2.0625    0.0000 C   0  0  0  0  0  0  0  0  0  0  0  0
   -7.1449    1.6500    0.0000 C   0  0  0  0  0  0  0  0  0  0  0  0
   -6.4304    2.0625    0.0000 C   0  0  0  0  0  0  0  0  0  0  0  0
   -5.7159    1.6500    0.0000 C   0  0  0  0  0  0  0  0  0  0  0  0
   -5.0014    2.0625    0.0000 C   0  0  0  0  0  0  0  0  0  0  0  0
   -4.2870    1.6500    0.0000 C   0  0  0  0  0  0  0  0  0  0  0  0
   -3.5725    2.0625    0.0000 C   0  0  0  0  0  0  0  0  0  0  0  0
   -2.8580    1.6500    0.0000 C   0  0  0  0  0  0  0  0  0  0  0  0
   -2.8580    0.8250    0.0000 C   0  0  0  0  0  0  0  0  0  0  0  0
   -2.1436    0.4125    0.0000 C   0  0  0  0  0  0  0  0  0  0  0  0
   -3.5725    0.4125    0.0000 C   0  0  0  0  0  0  0  0  0  0  0  0
   -2.1436    2.0625    0.0000 O   0  0  0  0  0  0  0  0  0  0  0  0
   -2.1436   -0.4125    0.0000 O   0  0  0  0  0  0  0  0  0  0  0  0
   -1.4291    0.8250    0.0000 O   0  0  0  0  0  0  0  0  0  0  0  0
   -1.4291   -1.6500    0.0000 C   0  0  0  0  0  0  0  0  0  0  0  0
   -1.4291   -3.3000    0.0000 O   0  0  0  0  0  0  0  0  0  0  0  0
   -2.8580   -4.1250    0.0000 N   0  0  0  0  0  0  0  0  0  0  0  0
   -4.2870   -3.3000    0.0000 O   0  0  0  0  0  0  0  0  0  0  0  0
  -12.8606    0.8250    0.0000 O   0  0  0  0  0  0  0  0  0  0  0  0
  -11.4317    0.8250    0.0000 O   0  0  0  0  0  0  0  0  0  0  0  0
  -10.0027    0.8250    0.0000 O   0  0  0  0  0  0  0  0  0  0  0  0
   -8.5738    0.8250    0.0000 O   0  0  0  0  0  0  0  0  0  0  0  0
   -6.4304    2.8875    0.0000 O   0  0  0  0  0  0  0  0  0  0  0  0
   -5.7159    0.8250    0.0000 O   0  0  0  0  0  0  0  0  0  0  0  0
   -4.2870    0.8250    0.0000 O   0  0  0  0  0  0  0  0  0  0  0  0
   -4.2870    2.4750    0.0000 O   0  0  0  0  0  0  0  0  0  0  0  0
   -2.7065   -0.0875    0.0000 H   0  0  0  0  0  0  0  0  0  0  0  0
  1  2  1  0
  6  1  1  0
  3  2  1  0
  4  3  1  0
  4  5  1  0
  5  6  1  0
  3  7  1  6
  8  7  1  1
  8  9  1  0
  8 10  1  0
 10 11  2  0
 11 12  1  0
 12 13  2  0
 13 14  1  0
 14 15  2  0
 15 16  1  0
 16 17  2  0
 17 18  1  0
 18 19  1  0
 19 20  1  0
 20 21  2  0
 21 22  1  0
 22 23  2  0
 24 23  1  0
 24 25  1  6
 26 24  1  0
 26 27  1  1
 26 28  1  0
 28 29  1  6
 28 30  1  0
 30 31  1  6
 30 32  1  0
 32 33  1  0
 33 34  1  0
 35 34  1  0
 35 36  1  0
 37 36  1  0
 37 38  1  0
 39 38  1  0
 39 40  1  0
 40 41  1  0
 42 41  1  0
 42 43  1  0
 43 44  1  0
 45 44  1  0
 45 46  1  0
 47 46  1  0
 48 47  1  0
 48 49  1  1
 48 50  1  0
 50  9  1  0
 47 51  1  6
 49 52  1  0
 49 53  2  0
  1 54  1  6
  6 55  1  1
  5 56  1  6
  4 57  1  6
 33 58  2  0
 35 59  1  1
 37 60  1  1
 39 61  1  1
 42 62  1  1
 43 63  1  1
 45 64  1  0
 50 64  1  0
 45 65  1  1
 50 66  1  1
M  END
> <chembl_id>
CHEMBL450895

> <chembl_pref_name>
NYSTATIN
