
     RDKit          2D

  5  3  0  0  0  0  0  0  0  0999 V2000
    5.9542   -6.7792    0.0000 Na  0  0  0  0  0 15  0  0  0  0  0  0
    4.7542   -6.4250    0.0000 C   0  0  0  0  0  0  0  0  0  0  0  0
    5.3500   -6.7917    0.0000 O   0  0  0  0  0  0  0  0  0  0  0  0
    4.7542   -5.7042    0.0000 O   0  0  0  0  0  0  0  0  0  0  0  0
    4.1292   -6.7750    0.0000 O   0  0  0  0  0  0  0  0  0  0  0  0
  3  2  1  0
  4  2  2  0
  5  2  1  0
M  CHG  2   1   1   3  -1
M  END
> <chembl_id>
CHEMBL1353

> <chembl_pref_name>
SODIUM BICARBONATE
