
     RDKit          2D

 19 20  0  0  0  0  0  0  0  0999 V2000
    0.6875   -0.9250    0.0000 S   0  0  0  0  0  0  0  0  0  0  0  0
    1.9292   -0.9250    0.0000 N   0  0  0  0  0  0  0  0  0  0  0  0
    2.5292    0.1208    0.0000 C   0  0  0  0  0  0  0  0  0  0  0  0
    1.9292    1.1500    0.0000 C   0  0  0  0  0  0  0  0  0  0  0  0
   -0.5500   -0.9250    0.0000 C   0  0  0  0  0  0  0  0  0  0  0  0
    3.7542    0.1208    0.0000 N   0  0  0  0  0  0  0  0  0  0  0  0
    0.6875    0.2833    0.0000 O   0  0  0  0  0  0  0  0  0  0  0  0
    0.6875   -2.1292    0.0000 O   0  0  0  0  0  0  0  0  0  0  0  0
    2.5292    2.2208    0.0000 N   0  0  0  0  0  0  0  0  0  0  0  0
   -1.1750   -1.9542    0.0000 C   0  0  0  0  0  0  0  0  0  0  0  0
   -1.1750    0.1208    0.0000 C   0  0  0  0  0  0  0  0  0  0  0  0
   -2.9708   -0.9250    0.0000 C   0  0  0  0  0  0  0  0  0  0  0  0
    0.7375    1.1333    0.0000 O   0  0  0  0  0  0  0  0  0  0  0  0
   -4.1958   -0.9250    0.0000 N   0  0  0  0  0  0  0  0  0  0  0  0
   -2.3625   -1.9542    0.0000 C   0  0  0  0  0  0  0  0  0  0  0  0
   -2.3625    0.1208    0.0000 C   0  0  0  0  0  0  0  0  0  0  0  0
    4.3417    1.1500    0.0000 C   0  0  0  0  0  0  0  0  0  0  0  0
    3.7167    2.1958    0.0000 C   0  0  0  0  0  0  0  0  0  0  0  0
    0.1167    2.1250    0.0000 C   0  0  0  0  0  0  0  0  0  0  0  0
  2  1  1  0
  3  2  1  0
  4  3  1  0
  5  1  1  0
  6  3  2  0
  7  1  2  0
  8  1  2  0
  9  4  2  0
 10  5  2  0
 11  5  1  0
 12 16  1  0
 13  4  1  0
 14 12  1  0
 15 10  1  0
 16 11  2  0
 17  6  1  0
 18 17  2  0
 19 13  1  0
 15 12  2  0
  9 18  1  0
M  END
> <chembl_id>
CHEMBL1525826

> <chembl_pref_name>
SULFALENE
