
     RDKit          2D

 33 34  0  0  1  0  0  0  0  0999 V2000
   -0.7208   -2.2250    0.0000 C   0  0  0  0  0  0  0  0  0  0  0  0
   -0.7333   -2.9167    0.0000 C   0  0  0  0  0  0  0  0  0  0  0  0
   -1.3333   -1.8542    0.0000 C   0  0  0  0  0  0  0  0  0  0  0  0
   -1.3583   -3.2750    0.0000 C   0  0  0  0  0  0  0  0  0  0  0  0
   -1.9708   -2.2042    0.0000 C   0  0  0  0  0  0  0  0  0  0  0  0
   -1.9708   -2.9042    0.0000 C   0  0  0  0  0  0  0  0  0  0  0  0
   -0.0958   -1.8792    0.0000 C   0  0  0  0  0  0  0  0  0  0  0  0
    0.5167   -2.2417    0.0000 C   0  0  0  0  0  0  0  0  0  0  0  0
   -1.3333   -1.1417    0.0000 O   0  0  0  0  0  0  0  0  0  0  0  0
   -1.3708   -3.9792    0.0000 O   0  0  0  0  0  0  0  0  0  0  0  0
    1.1417   -1.9000    0.0000 C   0  0  0  0  0  0  0  0  0  0  0  0
   -0.1208   -3.2792    0.0000 C   0  0  0  0  0  0  0  0  0  0  0  0
   -2.5708   -1.8417    0.0000 C   0  0  0  0  0  0  0  0  0  0  0  0
   -2.6000   -3.2500    0.0000 C   0  0  0  0  0  0  0  0  0  0  0  0
    2.3792   -1.9167    0.0000 C   0  0  0  0  0  0  0  0  0  0  0  0
    4.8542   -1.9417    0.0000 C   0  0  0  0  0  0  0  0  0  0  0  0
    7.3250   -1.9792    0.0000 C   0  0  0  0  0  0  0  0  0  0  0  0
    1.7542   -2.2667    0.0000 C   0  0  0  0  0  0  0  0  0  0  0  0
    1.1417   -1.1792    0.0000 C   0  0  0  0  0  0  0  0  0  0  0  0
    7.9292   -2.3375    0.0000 C   0  0  0  0  0  0  0  0  0  0  0  0
    5.4500   -2.2917    0.0000 C   0  0  0  0  0  0  0  0  0  0  0  0
    6.7000   -2.3250    0.0000 C   0  0  0  0  0  0  0  0  0  0  0  0
    4.2167   -2.2750    0.0000 C   0  0  0  0  0  0  0  0  0  0  0  0
    2.9750   -2.2792    0.0000 C   0  0  0  0  0  0  0  0  0  0  0  0
    6.0875   -1.9667    0.0000 C   0  0  0  0  0  0  0  0  0  0  0  0
    3.6042   -1.9375    0.0000 C   0  0  0  0  0  0  0  0  0  0  0  0
    8.5625   -1.9792    0.0000 C   0  0  0  0  0  0  0  0  0  0  0  0
   -3.2208   -2.8875    0.0000 C   0  0  0  0  0  0  0  0  0  0  0  0
   -3.2000   -2.1875    0.0000 C   0  0  0  0  0  0  0  0  0  0  0  0
    9.1792   -2.3500    0.0000 C   0  0  0  0  0  0  0  0  0  0  0  0
    8.5750   -1.2917    0.0000 C   0  0  0  0  0  0  0  0  0  0  0  0
    6.0917   -1.2542    0.0000 C   0  0  0  0  0  0  0  0  0  0  0  0
    3.6042   -1.2167    0.0000 C   0  0  0  0  0  0  0  0  0  0  0  0
  2  1  2  0
  3  1  1  0
  4  2  1  0
  5  3  1  0
  6  5  1  0
  7  1  1  0
  8  7  1  0
  9  3  2  0
 10  4  2  0
 11  8  2  0
 12  2  1  0
 13  5  2  0
 14  6  2  0
 15 18  1  0
 16 23  1  0
 17 22  1  0
 18 11  1  0
 19 11  1  0
 20 17  1  0
 21 16  1  0
 22 25  1  0
 23 26  1  0
 24 15  1  0
 25 21  1  0
 26 24  1  0
 27 20  1  0
 28 29  2  0
 29 13  1  0
 30 27  1  0
 31 27  1  0
 25 32  1  6
 26 33  1  6
  6  4  1  0
 14 28  1  0
M  END
> <chembl_id>
CHEMBL1550

> <chembl_pref_name>
PHYTONADIONE
