
     RDKit          2D

 42 46  0  0  0  0  0  0  0  0999 V2000
   -8.1305    0.3659    0.0000 C   0  0  0  0  0  0  0  0  0  0  0  0
   -8.1305   -0.4591    0.0000 C   0  0  0  0  0  0  0  0  0  0  0  0
   -8.8450   -0.8716    0.0000 C   0  0  0  0  0  0  0  0  0  0  0  0
   -9.5594   -0.4591    0.0000 C   0  0  0  0  0  0  0  0  0  0  0  0
   -9.5594    0.3659    0.0000 C   0  0  0  0  0  0  0  0  0  0  0  0
   -8.8450    0.7784    0.0000 C   0  0  0  0  0  0  0  0  0  0  0  0
   -8.8450   -1.6966    0.0000 C   0  0  0  0  0  0  0  0  0  0  0  0
   -8.8450    1.6034    0.0000 S   0  0  0  0  0  0  0  0  0  0  0  0
   -8.8450    2.4284    0.0000 O   0  0  0  0  0  0  0  0  0  0  0  0
   -8.1174    2.0709    0.0000 O   0  0  0  0  0  0  0  0  0  0  0  0
   -9.4946    2.0319    0.0000 O   0  0  0  0  0  0  0  0  0  0  0  0
   -8.6668    4.3761    0.0000 C   0  0  0  0  0  0  0  0  0  0  0  0
   -8.6668    5.2011    0.0000 C   0  0  0  0  0  0  0  0  0  0  0  0
   -7.9524    5.6136    0.0000 C   0  0  0  0  0  0  0  0  0  0  0  0
   -7.2379    5.2011    0.0000 C   0  0  0  0  0  0  0  0  0  0  0  0
   -7.2379    4.3761    0.0000 C   0  0  0  0  0  0  0  0  0  0  0  0
   -7.9524    3.9636    0.0000 C   0  0  0  0  0  0  0  0  0  0  0  0
   -9.3813    5.6136    0.0000 F   0  0  0  0  0  0  0  0  0  0  0  0
   -6.5234    3.9636    0.0000 C   0  0  0  0  0  0  0  0  0  0  0  0
   -6.5234    3.1386    0.0000 C   0  0  0  0  0  0  0  0  0  0  0  0
   -5.8090    2.7261    0.0000 C   0  0  0  0  0  0  0  0  0  0  0  0
   -5.8090    1.9011    0.0000 C   0  0  0  0  0  0  0  0  0  0  0  0
   -5.0945    1.4886    0.0000 N   0  0  0  0  0  0  0  0  0  0  0  0
   -5.8090    4.3761    0.0000 O   0  0  0  0  0  0  0  0  0  0  0  0
   -4.3800    1.9011    0.0000 C   0  0  0  0  0  0  0  0  0  0  0  0
   -5.0945    0.6636    0.0000 C   0  0  0  0  0  0  0  0  0  0  0  0
   -4.3800    0.2511    0.0000 C   0  0  0  0  0  0  0  0  0  0  0  0
   -3.6655    0.6636    0.0000 C   0  0  0  0  0  0  0  0  0  0  0  0
   -3.6655    1.4886    0.0000 C   0  0  0  0  0  0  0  0  0  0  0  0
   -4.2085   -0.5559    0.0000 C   0  0  0  0  0  0  0  0  0  0  0  0
   -3.3880   -0.6421    0.0000 C   0  0  0  0  0  0  0  0  0  0  0  0
   -3.0135    0.0337    0.0000 N   0  0  0  0  0  0  0  0  0  0  0  0
   -4.6934   -1.2233    0.0000 C   0  0  0  0  0  0  0  0  0  0  0  0
   -4.3579   -1.9770    0.0000 C   0  0  0  0  0  0  0  0  0  0  0  0
   -3.5374   -2.0632    0.0000 C   0  0  0  0  0  0  0  0  0  0  0  0
   -3.0524   -1.3958    0.0000 C   0  0  0  0  0  0  0  0  0  0  0  0
   -5.0475   -0.2338    0.0000 H   0  0  0  0  0  0  0  0  0  0  0  0
   -2.1896   -1.4204    0.0000 N   0  0  0  0  0  0  0  0  0  0  0  0
   -1.7403   -0.7285    0.0000 C   0  0  0  0  0  0  0  0  0  0  0  0
   -2.1148    0.0066    0.0000 C   0  0  0  0  0  0  0  0  0  0  0  0
   -2.9981    1.1485    0.0000 H   0  0  0  0  0  0  0  0  0  0  0  0
   -1.7047   -2.0878    0.0000 C   0  0  0  0  0  0  0  0  0  0  0  0
  1  2  1  0
  2  3  2  0
  3  4  1  0
  4  5  2  0
  5  6  1  0
  1  6  2  0
  3  7  1  0
  6  8  1  0
  8  9  1  0
  8 10  2  0
  8 11  2  0
 12 13  2  0
 13 14  1  0
 14 15  2  0
 15 16  1  0
 16 17  2  0
 12 17  1  0
 13 18  1  0
 16 19  1  0
 19 20  1  0
 20 21  1  0
 21 22  1  0
 22 23  1  0
 19 24  2  0
 26 27  1  0
 27 28  1  0
 28 29  1  0
 25 29  1  0
 25 23  1  0
 23 26  1  0
 31 32  1  0
 28 32  1  0
 27 30  1  0
 33 34  1  0
 34 35  2  0
 35 36  1  0
 30 33  2  0
 36 31  2  0
 30 31  1  0
 27 37  1  1
 38 39  1  0
 39 40  1  0
 32 40  1  0
 36 38  1  0
 28 41  1  1
 38 42  1  0
M  END
> <chembl_id>
CHEMBL3233142

> <chembl_pref_name>
LUMATEPERONE TOSYLATE
