
     RDKit          2D

 26 27  0  0  0  0  0  0  0  0999 V2000
   -0.0458   -1.3667    0.0000 N   0  0  0  0  0  0  0  0  0  0  0  0
   -1.4458   -2.6042    0.0000 C   0  0  0  0  0  0  0  0  0  0  0  0
   -1.8083   -1.9917    0.0000 C   0  0  0  0  0  0  0  0  0  0  0  0
   -0.3875   -1.9792    0.0000 C   0  0  0  0  0  0  0  0  0  0  0  0
   -1.0958   -1.9917    0.0000 C   0  0  0  0  0  0  0  0  0  0  0  0
   -2.0583   -2.9667    0.0000 C   0  0  0  0  0  0  0  0  0  0  0  0
   -0.8333   -2.9625    0.0000 C   0  0  0  0  0  0  0  0  0  0  0  0
   -2.5125   -1.9917    0.0000 O   0  0  0  0  0  0  0  0  0  0  0  0
   -0.0458   -0.6542    0.0000 C   0  0  0  0  0  0  0  0  0  0  0  0
    0.6667   -1.3542    0.0000 C   0  0  0  0  0  0  0  0  0  0  0  0
   -1.4583   -1.3750    0.0000 N   0  0  0  0  0  0  0  0  0  0  0  0
   -0.6583   -1.0125    0.0000 C   0  0  0  0  0  0  0  0  0  0  0  0
   -0.8333   -3.6667    0.0000 C   0  0  0  0  0  0  0  0  0  0  0  0
   -0.2250   -2.6042    0.0000 C   0  0  0  0  0  0  0  0  0  0  0  0
   -2.0583   -3.6792    0.0000 C   0  0  0  0  0  0  0  0  0  0  0  0
   -2.6708   -2.6125    0.0000 C   0  0  0  0  0  0  0  0  0  0  0  0
    0.5625   -0.2917    0.0000 C   0  0  0  0  0  0  0  0  0  0  0  0
   -0.6625   -0.3042    0.0000 C   0  0  0  0  0  0  0  0  0  0  0  0
    1.0167   -0.7417    0.0000 C   0  0  0  0  0  0  0  0  0  0  0  0
    1.0250   -1.9667    0.0000 C   0  0  0  0  0  0  0  0  0  0  0  0
    0.3875   -2.9542    0.0000 C   0  0  0  0  0  0  0  0  0  0  0  0
   -3.2833   -2.9667    0.0000 C   0  0  0  0  0  0  0  0  0  0  0  0
   -2.6708   -4.0292    0.0000 C   0  0  0  0  0  0  0  0  0  0  0  0
   -0.2208   -4.0167    0.0000 C   0  0  0  0  0  0  0  0  0  0  0  0
   -3.2833   -3.6792    0.0000 C   0  0  0  0  0  0  0  0  0  0  0  0
    0.3917   -3.6667    0.0000 C   0  0  0  0  0  0  0  0  0  0  0  0
  2  5  1  0
  3  2  1  0
  4  1  1  0
  5  4  1  0
  6  2  1  0
  7  2  1  0
  8  3  2  0
  9  1  1  0
 10  1  1  0
 11  3  1  0
 12  1  1  0
 13  7  2  0
 14  7  1  0
 15  6  1  0
 16  6  2  0
 17  9  1  0
 18  9  1  0
 19 10  1  0
 20 10  1  0
 21 14  2  0
 22 16  1  0
 23 15  2  0
 24 13  1  0
 25 23  1  0
 26 21  1  0
 26 24  2  0
 25 22  2  0
M  CHG  1   1   1
M  END
> <chembl_id>
CHEMBL1201232

> <chembl_pref_name>
ISOPROPAMIDE
