
     RDKit          2D

 29 32  0  0  1  0  0  0  0  0999 V2000
    1.4681   -0.0770    0.0000 C   0  0  0  0  0  0  0  0  0  0  0  0
    0.7145   -0.4125    0.0000 C   0  0  0  0  0  0  0  0  0  0  0  0
    0.7145    0.4125    0.0000 C   0  0  0  0  0  0  0  0  0  0  0  0
   -0.0000    0.8250    0.0000 C   0  0  0  0  0  0  0  0  0  0  0  0
   -0.0000    1.6500    0.0000 O   0  0  0  0  0  0  0  0  0  0  0  0
   -0.7145    0.4125    0.0000 C   0  0  0  0  0  0  0  0  0  0  0  0
   -0.7145   -0.4125    0.0000 C   0  0  0  0  0  0  0  0  0  0  0  0
   -1.4289   -0.8250    0.0000 C   0  0  0  0  0  0  0  0  0  0  0  0
   -2.1434   -0.4125    0.0000 C   0  0  0  0  0  0  0  0  0  0  0  0
   -2.1434    0.4125    0.0000 C   0  0  0  0  0  0  0  0  0  0  0  0
   -2.8579    0.8250    0.0000 C   0  0  0  0  0  0  0  0  0  0  0  0
   -2.8579    1.6500    0.0000 C   0  0  0  0  0  0  0  0  0  0  0  0
   -3.5724    2.0625    0.0000 O   0  0  0  0  0  0  0  0  0  0  0  0
   -2.1434    2.0625    0.0000 C   0  0  0  0  0  0  0  0  0  0  0  0
   -1.4289    1.6500    0.0000 C   0  0  0  0  0  0  0  0  0  0  0  0
   -1.4289    0.8250    0.0000 C   0  0  0  0  0  0  0  0  0  0  0  0
   -0.7145    1.2375    0.0000 C   0  0  0  0  0  0  0  0  0  0  0  0
   -0.0000   -0.8250    0.0000 C   0  0  0  0  0  0  0  0  0  0  0  0
    0.1715   -1.6320    0.0000 C   0  0  0  0  0  0  0  0  0  0  0  0
    0.9920   -1.7182    0.0000 C   0  0  0  0  0  0  0  0  0  0  0  0
    1.3276   -0.9645    0.0000 C   0  0  0  0  0  0  0  0  0  0  0  0
    1.9170   -1.5418    0.0000 O   0  0  0  0  0  0  0  0  0  0  0  0
    2.1266   -0.7594    0.0000 C   0  0  0  0  0  0  0  0  0  0  0  0
    2.3485    0.0352    0.0000 O   0  0  0  0  0  0  0  0  0  0  0  0
    2.7039   -1.3488    0.0000 C   0  0  0  0  0  0  0  0  0  0  0  0
    3.5029   -1.1436    0.0000 O   0  0  0  0  0  0  0  0  0  0  0  0
   -0.7145   -1.2375    0.0000 H   0  0  0  0  0  0  0  0  0  0  0  0
   -1.4289   -0.0000    0.0000 H   0  0  0  0  0  0  0  0  0  0  0  0
   -0.0000   -0.0000    0.0000 H   0  0  0  0  0  0  0  0  0  0  0  0
  2  1  1  1
  2  3  1  0
  3  4  1  0
  4  5  1  1
  6  4  1  0
  6  7  1  0
  7  8  1  0
  8  9  1  0
  9 10  1  0
 10 11  2  0
 11 12  1  0
 12 13  2  0
 12 14  1  0
 14 15  2  0
 15 16  1  0
 16  6  1  0
 16 10  1  0
 16 17  1  1
  7 18  1  0
 18  2  1  0
 18 19  1  0
 19 20  1  0
 20 21  1  0
 21  2  1  0
 21 22  1  6
 21 23  1  0
 23 24  2  0
 23 25  1  0
 25 26  1  0
  7 27  1  1
  6 28  1  6
 18 29  1  6
M  END
> <chembl_id>
CHEMBL131

> <chembl_pref_name>
PREDNISOLONE
