
     RDKit          2D

 24 26  0  0  0  0  0  0  0  0999 V2000
    4.2010   -3.2956    0.0000 C   0  0  0  0  0  0  0  0  0  0  0  0
    4.9531   -1.9978    0.0000 C   0  0  0  0  0  0  0  0  0  0  0  0
    3.9511   -0.8815    0.0000 N   0  0  0  0  0  0  0  0  0  0  0  0
    2.5987   -1.5004    0.0000 N   0  0  0  0  0  0  0  0  0  0  0  0
    2.7343   -2.9815    0.0000 C   0  0  0  0  0  0  0  0  0  0  0  0
    1.8365   -3.7777    0.0000 O   0  0  0  0  0  0  0  0  0  0  0  0
    6.1467   -1.8742    0.0000 O   0  0  0  0  0  0  0  0  0  0  0  0
    4.8111   -4.6641    0.0000 C   0  0  0  0  0  0  0  0  0  0  0  0
    6.3037   -4.8211    0.0000 C   0  0  0  0  0  0  0  0  0  0  0  0
    6.9148   -6.1919    0.0000 C   0  0  0  0  0  0  0  0  0  0  0  0
    8.1082   -6.3175    0.0000 C   0  0  0  0  0  0  0  0  0  0  0  0
    1.2990   -0.7500    0.0000 C   0  0  0  0  0  0  0  0  0  0  0  0
    1.2990    0.7500    0.0000 C   0  0  0  0  0  0  0  0  0  0  0  0
    0.0000    1.5000    0.0000 C   0  0  0  0  0  0  0  0  0  0  0  0
   -1.2990    0.7500    0.0000 C   0  0  0  0  0  0  0  0  0  0  0  0
   -1.2990   -0.7500    0.0000 C   0  0  0  0  0  0  0  0  0  0  0  0
    0.0000   -1.5000    0.0000 C   0  0  0  0  0  0  0  0  0  0  0  0
    4.2567    0.5878    0.0000 C   0  0  0  0  0  0  0  0  0  0  0  0
    3.2235    1.6679    0.0000 C   0  0  0  0  0  0  0  0  0  0  0  0
    3.6446    3.1076    0.0000 C   0  0  0  0  0  0  0  0  0  0  0  0
    5.1019    3.4627    0.0000 C   0  0  0  0  0  0  0  0  0  0  0  0
    6.1382    2.3782    0.0000 C   0  0  0  0  0  0  0  0  0  0  0  0
    5.7171    0.9385    0.0000 C   0  0  0  0  0  0  0  0  0  0  0  0
    5.4388    4.6145    0.0000 O   0  0  0  0  0  0  0  0  0  0  0  0
  5  6  2  0
 12 13  2  0
 13 14  1  0
  2  7  2  0
 14 15  2  0
  2  3  1  0
 15 16  1  0
  1  8  1  0
 16 17  2  0
 17 12  1  0
  4 12  1  0
  3  4  1  0
  8  9  1  0
 18 19  2  0
  4  5  1  0
 19 20  1  0
  9 10  1  0
 20 21  2  0
  5  1  1  0
 21 22  1  0
 10 11  1  0
 22 23  2  0
 23 18  1  0
  3 18  1  0
  1  2  1  0
 21 24  1  0
M  END
> <chembl_id>
CHEMBL1228

> <chembl_pref_name>
OXYPHENBUTAZONE ANHYDROUS
