
     RDKit          2D

 23 24  0  0  0  0  0  0  0  0999 V2000
    3.1125   -4.2500    0.0000 N   0  0  0  0  0  0  0  0  0  0  0  0
    3.7250   -3.8917    0.0000 O   0  0  0  0  0  0  0  0  0  0  0  0
    2.5000   -3.8958    0.0000 O   0  0  0  0  0  0  0  0  0  0  0  0
    3.1167   -4.9583    0.0000 C   0  0  0  0  0  0  0  0  0  0  0  0
    2.5083   -5.3125    0.0000 C   0  0  0  0  0  0  0  0  0  0  0  0
    3.7292   -5.3083    0.0000 C   0  0  0  0  0  0  0  0  0  0  0  0
    1.8958   -4.9583    0.0000 C   0  0  0  0  0  0  0  0  0  0  0  0
    2.5042   -6.0208    0.0000 C   0  0  0  0  0  0  0  0  0  0  0  0
    3.7292   -6.0208    0.0000 C   0  0  0  0  0  0  0  0  0  0  0  0
    1.2792   -5.3125    0.0000 C   0  0  0  0  0  0  0  0  0  0  0  0
    1.8958   -4.2500    0.0000 O   0  0  0  0  0  0  0  0  0  0  0  0
    3.1167   -6.3750    0.0000 C   0  0  0  0  0  0  0  0  0  0  0  0
    4.3458   -6.3750    0.0000 C   0  0  0  0  0  0  0  0  0  0  0  0
    0.6667   -4.9542    0.0000 C   0  0  0  0  0  0  0  0  0  0  0  0
    1.2792   -6.0167    0.0000 C   0  0  0  0  0  0  0  0  0  0  0  0
    4.9583   -6.0208    0.0000 F   0  0  0  0  0  0  0  0  0  0  0  0
    4.6917   -6.9875    0.0000 F   0  0  0  0  0  0  0  0  0  0  0  0
    3.9875   -6.9875    0.0000 F   0  0  0  0  0  0  0  0  0  0  0  0
    0.6667   -4.2500    0.0000 O   0  0  0  0  0  0  0  0  0  0  0  0
    0.0542   -5.3125    0.0000 C   0  0  0  0  0  0  0  0  0  0  0  0
    1.8958   -6.3708    0.0000 O   0  0  0  0  0  0  0  0  0  0  0  0
    0.6667   -6.3750    0.0000 C   0  0  0  0  0  0  0  0  0  0  0  0
    0.0542   -6.0167    0.0000 C   0  0  0  0  0  0  0  0  0  0  0  0
  2  1  1  0
  1  3  2  0
  1  4  1  0
  4  5  2  0
  6  4  1  0
  5  7  1  0
  8  5  1  0
  9  6  2  0
 10  7  1  0
 11  7  2  0
 12  8  2  0
 13  9  1  0
  9 12  1  0
 14 10  1  0
 15 10  1  0
 16 13  1  0
 17 13  1  0
 18 13  1  0
 19 14  2  0
 20 14  1  0
 21 15  2  0
 22 15  1  0
 23 20  1  0
 22 23  1  0
M  CHG  2   1   1   2  -1
M  END
> <chembl_id>
CHEMBL1337

> <chembl_pref_name>
NITISINONE
