
     RDKit          2D

 22 24  0  0  1  0  0  0  0  0999 V2000
    1.3292   -3.7667    0.0000 C   0  0  0  0  0  0  0  0  0  0  0  0
    1.3292   -3.0625    0.0000 C   0  0  0  0  0  0  0  0  0  0  0  0
    1.9500   -2.7042    0.0000 C   0  0  0  0  0  0  0  0  0  0  0  0
    5.0250   -3.0792    0.0000 C   0  0  0  0  0  0  0  0  0  0  0  0
    2.5625   -3.0667    0.0000 C   0  0  0  0  0  0  0  0  0  0  0  0
    5.6375   -2.7292    0.0000 S   0  0  0  0  0  0  0  0  0  0  0  0
    1.9417   -4.1292    0.0000 C   0  0  0  0  0  0  0  0  0  0  0  0
    3.1750   -2.7167    0.0000 N   0  0  0  0  0  0  0  0  0  0  0  0
    6.2500   -3.0792    0.0000 C   0  0  0  0  0  0  0  0  0  0  0  0
    4.4125   -2.7292    0.0000 C   0  0  0  0  0  0  0  0  0  0  0  0
    2.5625   -3.7792    0.0000 C   0  0  0  0  0  0  0  0  0  0  0  0
    0.7042   -4.1250    0.0000 C   0  0  0  0  0  0  0  0  0  0  0  0
    5.0250   -3.7917    0.0000 C   0  0  0  0  0  0  0  0  0  0  0  0
    3.7917   -3.0792    0.0000 C   0  0  0  0  0  0  0  0  0  0  0  0
    6.2500   -3.7917    0.0000 C   0  0  0  0  0  0  0  0  0  0  0  0
    0.7000   -4.8417    0.0000 O   0  0  0  0  0  0  0  0  0  0  0  0
    0.7167   -2.7000    0.0000 C   0  0  0  0  0  0  0  0  0  0  0  0
    0.0917   -3.0542    0.0000 C   0  0  0  0  0  0  0  0  0  0  0  0
    3.1792   -2.0125    0.0000 C   0  0  0  0  0  0  0  0  0  0  0  0
    0.0917   -3.7625    0.0000 C   0  0  0  0  0  0  0  0  0  0  0  0
    2.5667   -1.6417    0.0000 C   0  0  0  0  0  0  0  0  0  0  0  0
    2.5792   -0.9292    0.0000 C   0  0  0  0  0  0  0  0  0  0  0  0
  2  1  1  0
  3  2  1  0
  4 10  1  0
  5 11  1  0
  6  4  1  0
  7  1  1  0
  5  8  1  1
  9  6  1  0
 10 14  1  0
 11  7  1  0
 12  1  2  0
 13  4  2  0
 14  8  1  0
 15 13  1  0
 16 12  1  0
 17  2  2  0
 18 20  2  0
 19  8  1  0
 20 12  1  0
 21 19  1  0
 22 21  1  0
 18 17  1  0
  5  3  1  0
  9 15  2  0
M  END
> <chembl_id>
CHEMBL1303

> <chembl_pref_name>
ROTIGOTINE
