
     RDKit          2D

 21 20  0  0  0  0  0  0  0  0999 V2000
    1.0125   -2.7750    0.0000 N   0  0  0  0  0  0  0  0  0  0  0  0
    2.7792    0.8833    0.0000 N   0  0  0  0  0  0  0  0  0  0  0  0
   -0.8833    2.6583    0.0000 N   0  0  0  0  0  0  0  0  0  0  0  0
   -3.0625   -1.0042    0.0000 N   0  0  0  0  0  0  0  0  0  0  0  0
    0.0875   -0.0792    0.0000 C   0  0  0  0  0  0  0  0  0  0  0  0
    1.9667   -3.2792    0.0000 O   0  0  0  0  0  0  0  0  0  0  0  0
    3.3167    1.8583    0.0000 O   0  0  0  0  0  0  0  0  0  0  0  0
   -1.8000    3.1583    0.0000 O   0  0  0  0  0  0  0  0  0  0  0  0
   -3.5708   -1.9542    0.0000 O   0  0  0  0  0  0  0  0  0  0  0  0
    0.0542    3.2083    0.0000 O   0  0  0  0  0  0  0  0  0  0  0  0
    3.3542   -0.0292    0.0000 O   0  0  0  0  0  0  0  0  0  0  0  0
   -3.6000   -0.0792    0.0000 O   0  0  0  0  0  0  0  0  0  0  0  0
    0.0875   -3.3167    0.0000 O   0  0  0  0  0  0  0  0  0  0  0  0
    1.0125   -1.6792    0.0000 O   0  0  0  0  0  0  0  0  0  0  0  0
    1.7292    0.8708    0.0000 O   0  0  0  0  0  0  0  0  0  0  0  0
   -0.8500    1.5750    0.0000 O   0  0  0  0  0  0  0  0  0  0  0  0
   -2.0000   -1.0042    0.0000 O   0  0  0  0  0  0  0  0  0  0  0  0
    0.0875   -1.1417    0.0000 C   0  0  0  0  0  0  0  0  0  0  0  0
    1.1667   -0.0792    0.0000 C   0  0  0  0  0  0  0  0  0  0  0  0
    0.0875    1.0458    0.0000 C   0  0  0  0  0  0  0  0  0  0  0  0
   -1.4708   -0.0792    0.0000 C   0  0  0  0  0  0  0  0  0  0  0  0
  2 15  1  0
  3 16  1  0
  4 17  1  0
  5 18  1  0
  6  1  1  0
  7  2  1  0
  8  3  1  0
  9  4  1  0
 10  3  2  0
 11  2  2  0
 12  4  2  0
 13  1  2  0
 14  1  1  0
 15 19  1  0
 16 20  1  0
 17 21  1  0
 18 14  1  0
 19  5  1  0
 20  5  1  0
 21  5  1  0
M  CHG  8   1   1   2   1   3   1   4   1   6  -1   7  -1   8  -1   9  -1
M  END
> <chembl_id>
CHEMBL466659

> <chembl_pref_name>
PENTAERYTHRITOL TETRANITRATE
