
     RDKit          2D

 63 70  0  0  0  0  0  0  0  0999 V2000
   30.9419   -2.1760    0.0000 S   0  0  0  0  0  0  0  0  0  0  0  0
   30.0793   -2.1760    0.0000 O   0  0  0  0  0  0  0  0  0  0  0  0
   30.9419   -1.2212    0.0000 O   0  0  0  0  0  0  0  0  0  0  0  0
   31.7557   -2.1760    0.0000 O   0  0  0  0  0  0  0  0  0  0  0  0
   30.9419   -3.0115    0.0000 O   0  0  0  0  0  0  0  0  0  0  0  0
   34.6960    0.3792    0.0000 C   0  0  0  0  0  0  0  0  0  0  0  0
   38.3471   -0.0006    0.0000 C   0  0  0  0  0  0  0  0  0  0  0  0
   39.0795   -1.2320    0.0000 C   0  0  0  0  0  0  0  0  0  0  0  0
   34.0179    0.7861    0.0000 C   0  0  0  0  0  0  0  0  0  0  0  0
   38.3471   -0.8089    0.0000 C   0  0  0  0  0  0  0  0  0  0  0  0
   39.7793    0.0320    0.0000 C   0  0  0  0  0  0  0  0  0  0  0  0
   37.6147   -1.2320    0.0000 N   0  0  0  0  0  0  0  0  0  0  0  0
   39.0252    0.3629    0.0000 C   0  0  0  0  0  0  0  0  0  0  0  0
   36.8606   -0.8089    0.0000 C   0  0  0  0  0  0  0  0  0  0  0  0
   36.8606   -0.0006    0.0000 C   0  0  0  0  0  0  0  0  0  0  0  0
   39.7793   -0.7981    0.0000 C   0  0  0  0  0  0  0  0  0  0  0  0
   35.4284   -0.0006    0.0000 C   0  0  0  0  0  0  0  0  0  0  0  0
   34.0179    1.5673    0.0000 C   0  0  0  0  0  0  0  0  0  0  0  0
   33.3181    0.3792    0.0000 N   0  0  0  0  0  0  0  0  0  0  0  0
   36.1662   -1.2375    0.0000 C   0  0  0  0  0  0  0  0  0  0  0  0
   36.1282    0.3738    0.0000 C   0  0  0  0  0  0  0  0  0  0  0  0
   39.0252    1.2038    0.0000 N   0  0  0  0  0  0  0  0  0  0  0  0
   39.5352   -1.9536    0.0000 C   0  0  0  0  0  0  0  0  0  0  0  0
   34.2132   -0.3369    0.0000 C   0  0  0  0  0  0  0  0  0  0  0  0
   32.6345    1.5673    0.0000 C   0  0  0  0  0  0  0  0  0  0  0  0
   35.4284   -0.8089    0.0000 C   0  0  0  0  0  0  0  0  0  0  0  0
   32.6345    0.7861    0.0000 C   0  0  0  0  0  0  0  0  0  0  0  0
   34.6634    2.8205    0.0000 N   0  0  0  0  0  0  0  0  0  0  0  0
   37.6147    0.3738    0.0000 C   0  0  0  0  0  0  0  0  0  0  0  0
   35.4013    0.7861    0.0000 C   0  0  0  0  0  0  0  0  0  0  0  0
   40.5550    0.3955    0.0000 C   0  0  0  0  0  0  0  0  0  0  0  0
   33.3181    1.9524    0.0000 C   0  0  0  0  0  0  0  0  0  0  0  0
   36.1011    2.8313    0.0000 C   0  0  0  0  0  0  0  0  0  0  0  0
   35.4013    1.5673    0.0000 C   0  0  0  0  0  0  0  0  0  0  0  0
   37.6092    1.2038    0.0000 C   0  0  0  0  0  0  0  0  0  0  0  0
   38.7051   -2.0783    0.0000 O   0  0  0  0  0  0  0  0  0  0  0  0
   40.5550    1.2526    0.0000 C   0  0  0  0  0  0  0  0  0  0  0  0
   35.4013    3.2544    0.0000 C   0  0  0  0  0  0  0  0  0  0  0  0
   34.6852    1.9524    0.0000 C   0  0  0  0  0  0  0  0  0  0  0  0
   40.4140   -1.9536    0.0000 O   0  0  0  0  0  0  0  0  0  0  0  0
   34.6038   -1.1724    0.0000 O   0  0  0  0  0  0  0  0  0  0  0  0
   33.3181    2.8205    0.0000 C   0  0  0  0  0  0  0  0  0  0  0  0
   36.1119    2.0013    0.0000 C   0  0  0  0  0  0  0  0  0  0  0  0
   40.5550   -1.2049    0.0000 O   0  0  0  0  0  0  0  0  0  0  0  0
   40.5768   -0.3586    0.0000 C   0  0  0  0  0  0  0  0  0  0  0  0
   39.1554   -2.7511    0.0000 N   0  0  0  0  0  0  0  0  0  0  0  0
   37.6092   -2.1001    0.0000 C   0  0  0  0  0  0  0  0  0  0  0  0
   39.7738    1.7083    0.0000 C   0  0  0  0  0  0  0  0  0  0  0  0
   33.3018   -0.2773    0.0000 O   0  0  0  0  0  0  0  0  0  0  0  0
   34.8750   -1.3134    0.0000 O   0  0  0  0  0  0  0  0  0  0  0  0
   36.5894    3.6125    0.0000 O   0  0  0  0  0  0  0  0  0  0  0  0
   31.9618    1.9579    0.0000 C   0  0  0  0  0  0  0  0  0  0  0  0
   31.9618    0.3792    0.0000 C   0  0  0  0  0  0  0  0  0  0  0  0
   36.9800    2.9778    0.0000 C   0  0  0  0  0  0  0  0  0  0  0  0
   34.8750   -2.1977    0.0000 C   0  0  0  0  0  0  0  0  0  0  0  0
   32.7755   -1.0530    0.0000 C   0  0  0  0  0  0  0  0  0  0  0  0
   41.2929    0.1188    0.0000 C   0  0  0  0  0  0  0  0  0  0  0  0
   37.5008    2.2942    0.0000 C   0  0  0  0  0  0  0  0  0  0  0  0
   31.2619    1.5673    0.0000 C   0  0  0  0  0  0  0  0  0  0  0  0
   31.2619    0.7861    0.0000 C   0  0  0  0  0  0  0  0  0  0  0  0
   36.2639    1.0465    0.0000 H   0  0  0  0  0  0  0  0  0  0  0  0
   39.0252   -0.3586    0.0000 H   0  0  0  0  0  0  0  0  0  0  0  0
   38.3471   -1.7095    0.0000 H   0  0  0  0  0  0  0  0  0  0  0  0
  2  1  2  0
  3  1  2  0
  4  1  1  0
  5  1  1  0
  7 15  1  0
  8 10  1  0
  9  6  1  0
 10  7  1  0
 11 13  1  0
 12 14  1  0
 13  7  1  0
 14 20  1  0
 15 21  1  0
 16 11  1  0
 17  6  1  0
 18  9  2  0
 19  9  1  0
 20 26  2  0
 21 17  2  0
 22 13  1  0
 23  8  1  0
  6 24  1  1
 25 18  1  0
 26 17  1  0
 27 19  1  0
 28 39  1  0
  7 29  1  1
 30  6  1  0
 31 11  1  0
 32 18  1  0
 33 43  1  0
 34 30  1  0
 35 29  1  0
  8 36  1  1
 37 48  1  0
 38 33  1  0
 39 34  1  0
 40 23  2  0
 41 24  2  0
 42 32  1  0
 43 34  1  0
 16 44  1  1
 11 45  1  6
 46 23  1  0
 47 12  1  0
 48 22  1  0
 49 24  1  0
 50 26  1  0
 51 33  1  0
 52 25  1  0
 53 27  1  0
 33 54  1  6
 55 50  1  0
 56 49  1  0
 57 45  1  0
 58 54  1  0
 59 52  2  0
 60 53  2  0
 34 61  1  6
 13 62  1  6
 10 63  1  1
 25 27  2  0
 15 14  2  0
 42 28  1  0
 59 60  1  0
 28 38  1  0
 10 12  1  0
 22 35  1  0
  8 16  1  0
 31 37  2  0
M  END
> <chembl_id>
CHEMBL3989543

> <chembl_pref_name>
VINDESINE SULFATE
