
     RDKit          2D

 32 34  0  0  0  0  0  0  0  0999 V2000
    3.1497   -2.4751    0.0000 Cl  0  0  0  0  0  0  0  0  0  0  0  0
    2.0577    0.3300    0.0000 C   0  0  0  0  0  0  0  0  0  0  0  0
    0.6309   -0.4950    0.0000 N   0  0  0  0  0  0  0  0  0  0  0  0
    1.3443    0.7376    0.0000 C   0  0  0  0  0  0  0  0  0  0  0  0
    2.7711   -0.0874    0.0000 C   0  0  0  0  0  0  0  0  0  0  0  0
   -1.5093   -1.7326    0.0000 C   0  0  0  0  0  0  0  0  0  0  0  0
    0.6309    0.3300    0.0000 C   0  0  0  0  0  0  0  0  0  0  0  0
   -1.5238   -3.3826    0.0000 N   0  0  0  0  0  0  0  0  0  0  0  0
   -1.5142   -2.5528    0.0000 C   0  0  0  0  0  0  0  0  0  0  0  0
    2.0577   -0.4999    0.0000 C   0  0  0  0  0  0  0  0  0  0  0  0
   -0.0825   -0.9076    0.0000 C   0  0  0  0  0  0  0  0  0  0  0  0
    1.3443   -0.9076    0.0000 C   0  0  0  0  0  0  0  0  0  0  0  0
   -2.2227   -2.1451    0.0000 C   0  0  0  0  0  0  0  0  0  0  0  0
    2.4751    1.0434    0.0000 C   0  0  0  0  0  0  0  0  0  0  0  0
    2.7711   -0.9076    0.0000 O   0  0  0  0  0  0  0  0  0  0  0  0
   -1.5142   -0.9076    0.0000 C   0  0  0  0  0  0  0  0  0  0  0  0
   -0.7959   -2.1451    0.0000 C   0  0  0  0  0  0  0  0  0  0  0  0
   -0.0825   -1.7326    0.0000 C   0  0  0  0  0  0  0  0  0  0  0  0
   -0.7959   -0.4950    0.0000 C   0  0  0  0  0  0  0  0  0  0  0  0
   -2.9361   -1.7374    0.0000 C   0  0  0  0  0  0  0  0  0  0  0  0
   -2.2227   -2.9750    0.0000 C   0  0  0  0  0  0  0  0  0  0  0  0
    3.4846    0.3300    0.0000 O   0  0  0  0  0  0  0  0  0  0  0  0
   -3.6495   -2.9750    0.0000 C   0  0  0  0  0  0  0  0  0  0  0  0
   -2.9361   -3.3923    0.0000 C   0  0  0  0  0  0  0  0  0  0  0  0
   -3.6495   -2.1548    0.0000 C   0  0  0  0  0  0  0  0  0  0  0  0
   -4.3629   -3.3923    0.0000 F   0  0  0  0  0  0  0  0  0  0  0  0
    1.3443    1.5675    0.0000 C   0  0  0  0  0  0  0  0  0  0  0  0
    3.2953    1.0434    0.0000 C   0  0  0  0  0  0  0  0  0  0  0  0
    2.0577    1.7471    0.0000 C   0  0  0  0  0  0  0  0  0  0  0  0
    2.4654    2.4702    0.0000 C   0  0  0  0  0  0  0  0  0  0  0  0
    3.7126    1.7568    0.0000 C   0  0  0  0  0  0  0  0  0  0  0  0
    3.2953    2.4702    0.0000 C   0  0  0  0  0  0  0  0  0  0  0  0
  3 12  1  0
  4  2  1  0
  5  2  1  0
  6 16  1  0
  7  4  1  0
  8  9  3  0
  9  6  1  0
 10  2  1  0
 11  3  1  1
 12 10  1  0
  6 13  1  6
  2 14  1  1
 15  5  2  0
 16 19  1  0
 17 18  1  0
 18 11  1  0
 19 11  1  0
 20 13  2  0
 21 13  1  0
 22  5  1  0
 23 24  1  0
 24 21  2  0
 25 20  1  0
 26 23  1  0
  4 27  1  1
 28 14  2  0
 29 14  1  0
 30 29  2  0
 31 28  1  0
 32 31  2  0
  3  7  1  0
 32 30  1  0
 17  6  1  0
 23 25  2  0
M  END
> <chembl_id>
CHEMBL1237102

> <chembl_pref_name>
LEVOCABASTINE HYDROCHLORIDE
