
     RDKit          2D

 16 15  0  0  0  0  0  0  0  0999 V2000
    3.9625   -6.5000    0.0000 Cl  0  0  0  0  0  0  0  0  0  0  0  0
    5.3875   -5.6250    0.0000 C   0  0  0  0  0  0  0  0  0  0  0  0
    4.7667   -5.9792    0.0000 C   0  0  0  0  0  0  0  0  0  0  0  0
    4.1542   -5.6250    0.0000 N   0  0  0  0  0  0  0  0  0  0  0  0
    5.3875   -4.9042    0.0000 O   0  0  0  0  0  0  0  0  0  0  0  0
    6.0042   -5.9792    0.0000 C   0  0  0  0  0  0  0  0  0  0  0  0
    4.7750   -6.6917    0.0000 C   0  0  0  0  0  0  0  0  0  0  0  0
    4.1500   -4.9042    0.0000 C   0  0  0  0  0  0  0  0  0  0  0  0
    3.5417   -5.9792    0.0000 C   0  0  0  0  0  0  0  0  0  0  0  0
    6.6167   -5.6292    0.0000 C   0  0  0  0  0  0  0  0  0  0  0  0
    6.0042   -6.6917    0.0000 C   0  0  0  0  0  0  0  0  0  0  0  0
    3.5375   -4.5500    0.0000 C   0  0  0  0  0  0  0  0  0  0  0  0
    2.9250   -5.6250    0.0000 C   0  0  0  0  0  0  0  0  0  0  0  0
    6.6167   -7.0417    0.0000 C   0  0  0  0  0  0  0  0  0  0  0  0
    7.2375   -5.9792    0.0000 C   0  0  0  0  0  0  0  0  0  0  0  0
    7.2375   -6.6917    0.0000 C   0  0  0  0  0  0  0  0  0  0  0  0
  3  2  1  0
  4  3  1  0
  5  2  2  0
  6  2  1  0
  7  3  1  0
  8  4  1  0
  9  4  1  0
 10  6  2  0
 11  6  1  0
 12  8  1  0
 13  9  1  0
 14 11  2  0
 15 10  1  0
 16 15  2  0
 16 14  1  0
M  END
> <chembl_id>
CHEMBL1693

> <chembl_pref_name>
DIETHYLPROPION HYDROCHLORIDE
