
     RDKit          2D

 31 35  0  0  1  0  0  0  0  0999 V2000
    5.2167   -4.4667    0.0000 N   0  0  0  0  0  0  0  0  0  0  0  0
    6.2542   -5.1542    0.0000 C   0  0  0  0  0  0  0  0  0  0  0  0
    4.8417   -5.0417    0.0000 C   0  0  0  0  0  0  0  0  0  0  0  0
    5.8500   -5.7542    0.0000 C   0  0  0  0  0  0  0  0  0  0  0  0
    5.9417   -4.5083    0.0000 C   0  0  0  0  0  0  0  0  0  0  0  0
    4.1417   -4.8250    0.0000 C   0  0  0  0  0  0  0  0  0  0  0  0
    5.1417   -5.7000    0.0000 C   0  0  0  0  0  0  0  0  0  0  0  0
    4.1417   -4.1167    0.0000 C   0  0  0  0  0  0  0  0  0  0  0  0
    3.5625   -5.1917    0.0000 N   0  0  0  0  0  0  0  0  0  0  0  0
    6.1667   -6.3917    0.0000 C   0  0  0  0  0  0  0  0  0  0  0  0
    2.3167   -3.7667    0.0000 C   0  0  0  0  0  0  0  0  0  0  0  0
    4.8417   -3.9042    0.0000 C   0  0  0  0  0  0  0  0  0  0  0  0
    2.9250   -4.1292    0.0000 C   0  0  0  0  0  0  0  0  0  0  0  0
    6.8750   -6.4417    0.0000 C   0  0  0  0  0  0  0  0  0  0  0  0
    3.5625   -3.7417    0.0000 C   0  0  0  0  0  0  0  0  0  0  0  0
    2.9250   -4.8250    0.0000 C   0  0  0  0  0  0  0  0  0  0  0  0
    6.9542   -5.2042    0.0000 C   0  0  0  0  0  0  0  0  0  0  0  0
    7.2667   -5.8500    0.0000 O   0  0  0  0  0  0  0  0  0  0  0  0
    1.7000   -4.1292    0.0000 C   0  0  0  0  0  0  0  0  0  0  0  0
    6.3125   -3.9167    0.0000 O   0  0  0  0  0  0  0  0  0  0  0  0
    2.3167   -3.0667    0.0000 C   0  0  0  0  0  0  0  0  0  0  0  0
    7.2500   -6.9917    0.0000 O   0  0  0  0  0  0  0  0  0  0  0  0
    2.3167   -5.1917    0.0000 C   0  0  0  0  0  0  0  0  0  0  0  0
    1.7000   -4.8250    0.0000 C   0  0  0  0  0  0  0  0  0  0  0  0
    5.4167   -6.3250    0.0000 O   0  0  0  0  0  0  0  0  0  0  0  0
    2.9167   -2.7292    0.0000 N   0  0  0  0  0  0  0  0  0  0  0  0
    6.4375   -7.0667    0.0000 C   0  0  0  0  0  0  0  0  0  0  0  0
    1.0792   -3.7667    0.0000 O   0  0  0  0  0  0  0  0  0  0  0  0
    3.5167   -3.0875    0.0000 C   0  0  0  0  0  0  0  0  0  0  0  0
    2.9167   -2.0167    0.0000 C   0  0  0  0  0  0  0  0  0  0  0  0
    6.0417   -7.6667    0.0000 C   0  0  0  0  0  0  0  0  0  0  0  0
  2  5  1  0
  3  1  1  0
  4  2  2  0
  5  1  1  0
  6  3  1  0
  7  3  2  0
  8 12  1  0
  9  6  2  0
 10  4  1  0
 11 13  1  0
 12  1  1  0
 13 15  1  0
 14 18  1  0
 15  8  2  0
 16  9  1  0
 17  2  1  0
 18 17  1  0
 19 11  2  0
 20  5  2  0
 21 11  1  0
 22 14  2  0
 23 16  1  0
 24 23  2  0
 25 10  1  0
 26 21  1  0
 10 27  1  6
 28 19  1  0
 29 26  1  0
 30 26  1  0
 31 27  1  0
  8  6  1  0
  4  7  1  0
 13 16  2  0
 10 14  1  0
 19 24  1  0
M  END
> <chembl_id>
CHEMBL84

> <chembl_pref_name>
TOPOTECAN
