
     RDKit          2D

 17 18  0  0  0  0  0  0  0  0999 V2000
    0.4250   -0.1542    0.0000 C   0  0  0  0  0  0  0  0  0  0  0  0
    0.4292   -2.4542    0.0000 N   0  0  0  0  0  0  0  0  0  0  0  0
    1.2625   -1.2917    0.0000 C   0  0  0  0  0  0  0  0  0  0  0  0
   -0.9250   -2.0375    0.0000 N   0  0  0  0  0  0  0  0  0  0  0  0
   -0.9250   -0.5917    0.0000 C   0  0  0  0  0  0  0  0  0  0  0  0
    0.8542    1.2000    0.0000 C   0  0  0  0  0  0  0  0  0  0  0  0
   -2.1625   -2.7542    0.0000 C   0  0  0  0  0  0  0  0  0  0  0  0
   -2.1833    0.1125    0.0000 C   0  0  0  0  0  0  0  0  0  0  0  0
    0.0000    2.4333    0.0000 O   0  0  0  0  0  0  0  0  0  0  0  0
    2.7042   -1.2917    0.0000 C   0  0  0  0  0  0  0  0  0  0  0  0
   -3.4208   -2.0542    0.0000 C   0  0  0  0  0  0  0  0  0  0  0  0
   -3.4333   -0.6000    0.0000 C   0  0  0  0  0  0  0  0  0  0  0  0
    2.1792    1.4625    0.0000 C   0  0  0  0  0  0  0  0  0  0  0  0
    3.4250   -2.5292    0.0000 C   0  0  0  0  0  0  0  0  0  0  0  0
    3.4042   -0.0542    0.0000 C   0  0  0  0  0  0  0  0  0  0  0  0
    3.0750    0.3458    0.0000 C   0  0  0  0  0  0  0  0  0  0  0  0
    2.6417    2.8125    0.0000 C   0  0  0  0  0  0  0  0  0  0  0  0
  2  3  2  0
  3  1  1  0
  4  5  1  0
  5  1  2  0
  6  1  1  0
  7  4  1  0
  8  5  1  0
  9  6  2  0
 10  3  1  0
 11 12  1  0
 12  8  2  0
 13  6  1  0
 14 10  1  0
 15 10  1  0
 16 13  1  0
 17 13  1  0
  4  2  1  0
  7 11  2  0
M  END
> <chembl_id>
CHEMBL19449

> <chembl_pref_name>
IBUDILAST
