
     RDKit          2D

 35 38  0  0  0  0  0  0  0  0999 V2000
    2.0417    1.7708    0.0000 C   0  0  0  0  0  0  0  0  0  0  0  0
    2.0625   -1.0375    0.0000 N   0  0  0  0  0  0  0  0  0  0  0  0
   -3.6000   -0.7542    0.0000 C   0  0  0  0  0  0  0  0  0  0  0  0
   -2.8083   -1.1667    0.0000 C   0  0  0  0  0  0  0  0  0  0  0  0
    2.0500    0.8333    0.0000 C   0  0  0  0  0  0  0  0  0  0  0  0
   -1.1708   -2.0292    0.0000 C   0  0  0  0  0  0  0  0  0  0  0  0
    2.8042    2.2208    0.0000 C   0  0  0  0  0  0  0  0  0  0  0  0
    1.2667    2.2083    0.0000 C   0  0  0  0  0  0  0  0  0  0  0  0
   -2.7833   -2.0792    0.0000 C   0  0  0  0  0  0  0  0  0  0  0  0
   -2.0583   -0.6792    0.0000 C   0  0  0  0  0  0  0  0  0  0  0  0
   -1.9333   -2.5125    0.0000 C   0  0  0  0  0  0  0  0  0  0  0  0
   -1.1833   -1.0917    0.0000 C   0  0  0  0  0  0  0  0  0  0  0  0
    1.2542    0.3375    0.0000 C   0  0  0  0  0  0  0  0  0  0  0  0
    2.8250    0.3625    0.0000 C   0  0  0  0  0  0  0  0  0  0  0  0
    1.2542   -0.5542    0.0000 C   0  0  0  0  0  0  0  0  0  0  0  0
    2.8375   -0.5417    0.0000 C   0  0  0  0  0  0  0  0  0  0  0  0
    2.2417    2.6458    0.0000 O   0  0  0  0  0  0  0  0  0  0  0  0
   -0.3250   -2.4542    0.0000 C   0  0  0  0  0  0  0  0  0  0  0  0
    2.0417   -1.9167    0.0000 C   0  0  0  0  0  0  0  0  0  0  0  0
   -0.3125   -3.3792    0.0000 O   0  0  0  0  0  0  0  0  0  0  0  0
    1.2542   -2.3917    0.0000 C   0  0  0  0  0  0  0  0  0  0  0  0
   -3.6375    0.1333    0.0000 C   0  0  0  0  0  0  0  0  0  0  0  0
   -4.3458   -1.2375    0.0000 C   0  0  0  0  0  0  0  0  0  0  0  0
   -4.0625    0.0000    0.0000 C   0  0  0  0  0  0  0  0  0  0  0  0
    0.4542   -1.9542    0.0000 C   0  0  0  0  0  0  0  0  0  0  0  0
    1.2625    3.0958    0.0000 C   0  0  0  0  0  0  0  0  0  0  0  0
    0.5042    1.7583    0.0000 C   0  0  0  0  0  0  0  0  0  0  0  0
    3.5792    1.7833    0.0000 C   0  0  0  0  0  0  0  0  0  0  0  0
    2.7917    3.1083    0.0000 C   0  0  0  0  0  0  0  0  0  0  0  0
    4.3417    2.2250    0.0000 C   0  0  0  0  0  0  0  0  0  0  0  0
    3.5542    3.5583    0.0000 C   0  0  0  0  0  0  0  0  0  0  0  0
    0.4917    3.5333    0.0000 C   0  0  0  0  0  0  0  0  0  0  0  0
   -0.2625    2.1875    0.0000 C   0  0  0  0  0  0  0  0  0  0  0  0
   -0.2750    3.0833    0.0000 C   0  0  0  0  0  0  0  0  0  0  0  0
    4.3375    3.1208    0.0000 C   0  0  0  0  0  0  0  0  0  0  0  0
  2 16  1  0
  3  4  1  0
  4 10  2  0
  5  1  1  0
  6 18  1  0
  7  1  1  0
  8  1  1  0
  9 11  2  0
 10 12  1  0
 11  6  1  0
 12  6  2  0
 13  5  1  0
 14  5  1  0
 15 13  1  0
 16 14  1  0
 17  1  1  0
 18 25  1  0
 19  2  1  0
 20 18  1  0
 21 19  1  0
 22  3  1  0
 23  3  1  0
 24  3  1  0
 25 21  1  0
 26  8  2  0
 27  8  1  0
 28  7  2  0
 29  7  1  0
 30 28  1  0
 31 29  2  0
 32 26  1  0
 33 27  2  0
 34 33  1  0
 35 31  1  0
 15  2  1  0
 32 34  2  0
 30 35  2  0
  9  4  1  0
M  END
> <chembl_id>
CHEMBL17157

> <chembl_pref_name>
TERFENADINE
