
     RDKit          2D

 65 73  0  0  0  0  0  0  0  0999 V2000
    7.2251   -1.7924    0.0000 C   0  0  0  0  0  0  0  0  0  0  0  0
    6.8541   -2.5293    0.0000 N   0  0  0  0  0  0  0  0  0  0  0  0
    8.0487   -1.7453    0.0000 O   0  0  0  0  0  0  0  0  0  0  0  0
    6.7724   -1.1027    0.0000 C   0  0  0  0  0  0  0  0  0  0  0  0
    5.9488   -1.1498    0.0000 C   0  0  0  0  0  0  0  0  0  0  0  0
    5.4961   -0.4601    0.0000 C   0  0  0  0  0  0  0  0  0  0  0  0
    5.8671    0.2768    0.0000 C   0  0  0  0  0  0  0  0  0  0  0  0
    6.6908    0.3239    0.0000 C   0  0  0  0  0  0  0  0  0  0  0  0
    7.1434   -0.3658    0.0000 C   0  0  0  0  0  0  0  0  0  0  0  0
    3.1215   -3.5099    0.0000 N   0  0  0  0  0  0  0  0  0  0  0  0
    3.8584   -3.8809    0.0000 C   0  0  0  0  0  0  0  0  0  0  0  0
    4.5917   -3.5028    0.0000 C   0  0  0  0  0  0  0  0  0  0  0  0
    5.2857   -3.9488    0.0000 C   0  0  0  0  0  0  0  0  0  0  0  0
    6.7906   -3.8627    0.0000 C   0  0  0  0  0  0  0  0  0  0  0  0
    6.0190   -3.5707    0.0000 C   0  0  0  0  0  0  0  0  0  0  0  0
    7.3067   -3.2190    0.0000 C   0  0  0  0  0  0  0  0  0  0  0  0
    8.1304   -3.1719    0.0000 C   0  0  0  0  0  0  0  0  0  0  0  0
    8.5830   -3.8616    0.0000 C   0  0  0  0  0  0  0  0  0  0  0  0
    9.4067   -3.8145    0.0000 C   0  0  0  0  0  0  0  0  0  0  0  0
   10.6013   -3.0304    0.0000 C   0  0  0  0  0  0  0  0  0  0  0  0
   11.0473   -2.3364    0.0000 C   0  0  0  0  0  0  0  0  0  0  0  0
   11.8452   -2.5461    0.0000 N   0  0  0  0  0  0  0  0  0  0  0  0
   11.1236   -3.6691    0.0000 N   0  0  0  0  0  0  0  0  0  0  0  0
    9.7777   -3.0776    0.0000 C   0  0  0  0  0  0  0  0  0  0  0  0
    9.3250   -2.3879    0.0000 C   0  0  0  0  0  0  0  0  0  0  0  0
    8.5014   -2.4350    0.0000 C   0  0  0  0  0  0  0  0  0  0  0  0
    6.0582   -2.7466    0.0000 C   0  0  0  0  0  0  0  0  0  0  0  0
    5.3642   -2.3007    0.0000 C   0  0  0  0  0  0  0  0  0  0  0  0
    4.6309   -2.6787    0.0000 C   0  0  0  0  0  0  0  0  0  0  0  0
    3.7333   -4.6963    0.0000 C   0  0  0  0  0  0  0  0  0  0  0  0
    2.9191   -4.8293    0.0000 N   0  0  0  0  0  0  0  0  0  0  0  0
    2.5410   -4.0961    0.0000 C   0  0  0  0  0  0  0  0  0  0  0  0
   14.5704   -1.7032    0.0000 O   0  0  0  0  0  0  0  0  0  0  0  0
   13.9843   -1.1226    0.0000 C   0  0  0  0  0  0  0  0  0  0  0  0
   13.1884   -1.3400    0.0000 N   0  0  0  0  0  0  0  0  0  0  0  0
   14.1939   -0.3247    0.0000 O   0  0  0  0  0  0  0  0  0  0  0  0
    1.3475   -3.2377    0.0000 C   0  0  0  0  0  0  0  0  0  0  0  0
    0.5332   -3.3706    0.0000 C   0  0  0  0  0  0  0  0  0  0  0  0
    0.4081   -4.1861    0.0000 C   0  0  0  0  0  0  0  0  0  0  0  0
    1.1450   -4.5571    0.0000 N   0  0  0  0  0  0  0  0  0  0  0  0
    1.7255   -3.9709    0.0000 C   0  0  0  0  0  0  0  0  0  0  0  0
   12.0355   -1.8249    0.0000 C   0  0  0  0  0  0  0  0  0  0  0  0
   13.5649   -2.7184    0.0000 C   0  0  0  0  0  0  0  0  0  0  0  0
   12.9787   -2.1379    0.0000 C   0  0  0  0  0  0  0  0  0  0  0  0
   14.3607   -2.5011    0.0000 O   0  0  0  0  0  0  0  0  0  0  0  0
   13.3552   -3.5163    0.0000 N   0  0  0  0  0  0  0  0  0  0  0  0
    1.2780   -5.3713    0.0000 C   0  0  0  0  0  0  0  0  0  0  0  0
    0.6393   -5.8936    0.0000 C   0  0  0  0  0  0  0  0  0  0  0  0
    0.7723   -6.7078    0.0000 N   0  0  0  0  0  0  0  0  0  0  0  0
    2.0496   -5.6632    0.0000 O   0  0  0  0  0  0  0  0  0  0  0  0
    0.1337   -7.2301    0.0000 C   0  0  0  0  0  0  0  0  0  0  0  0
    0.2667   -8.0443    0.0000 O   0  0  0  0  0  0  0  0  0  0  0  0
   -0.6379   -6.9381    0.0000 O   0  0  0  0  0  0  0  0  0  0  0  0
   13.8775   -4.1550    0.0000 C   0  0  0  0  0  0  0  0  0  0  0  0
   12.5864   -3.8157    0.0000 C   0  0  0  0  0  0  0  0  0  0  0  0
   12.6336   -4.6394    0.0000 C   0  0  0  0  0  0  0  0  0  0  0  0
   13.4315   -4.8490    0.0000 C   0  0  0  0  0  0  0  0  0  0  0  0
   11.8924   -3.3697    0.0000 C   0  0  0  0  0  0  0  0  0  0  0  0
   14.9898   -0.1073    0.0000 C   0  0  0  0  0  0  0  0  0  0  0  0
   -0.3720   -8.5665    0.0000 C   0  0  0  0  0  0  0  0  0  0  0  0
   -0.1323   -5.6016    0.0000 C   0  0  0  0  0  0  0  0  0  0  0  0
   -0.2653   -4.7874    0.0000 C   0  0  0  0  0  0  0  0  0  0  0  0
   -0.7709   -6.1239    0.0000 C   0  0  0  0  0  0  0  0  0  0  0  0
   11.2387   -2.0384    0.0000 C   0  0  0  0  0  0  0  0  0  0  0  0
   11.8220   -1.0280    0.0000 C   0  0  0  0  0  0  0  0  0  0  0  0
  1  3  1  0
  1  4  1  6
  2  1  1  0
  4  5  2  0
  5  6  1  0
  7  6  2  0
  8  7  1  0
  9  8  2  0
  9  4  1  0
 10 11  1  0
 11 12  1  0
 12 13  2  0
 12 29  1  0
 13 15  1  0
 14 15  1  0
 14 16  2  0
 15 27  2  0
 16 17  1  0
 16  2  1  0
 17 26  2  0
 18 17  1  0
 18 19  2  0
 20 21  2  0
 20 23  1  0
 21 22  1  0
 23 58  2  0
 24 20  1  0
 24 19  1  0
 25 24  2  0
 26  3  1  0
 26 25  1  0
 27  2  1  0
 28 27  1  0
 29 28  2  0
 30 11  2  0
 31 30  1  0
 31 32  1  0
 32 10  2  0
 33 34  2  0
 34 35  1  0
 34 36  1  0
 35 44  1  0
 36 59  1  0
 37 38  1  0
 38 39  1  0
 39 40  1  0
 40 41  1  0
 40 47  1  0
 41 37  1  0
 41 32  1  1
 43 44  1  0
 43 46  1  0
 44 42  1  6
 45 43  2  0
 46 54  1  0
 47 50  2  0
 48 47  1  0
 48 49  1  0
 49 51  1  0
 51 53  2  0
 52 51  1  0
 52 60  1  0
 55 46  1  0
 55 56  1  0
 56 57  1  0
 57 54  1  0
 58 22  1  0
 55 58  1  1
 48 61  1  1
 61 62  1  0
 61 63  1  0
 42 64  1  0
 42 65  1  0
M  END
> <chembl_id>
CHEMBL3039514

> <chembl_pref_name>
ELBASVIR
