
     RDKit          2D

 22 25  0  0  0  0  0  0  0  0999 V2000
    3.8000   -2.5417    0.0000 N   0  0  0  0  0  0  0  0  0  0  0  0
    3.2375   -3.0000    0.0000 C   0  0  0  0  0  0  0  0  0  0  0  0
    3.2375   -3.7000    0.0000 C   0  0  0  0  0  0  0  0  0  0  0  0
    4.5000   -2.7042    0.0000 C   0  0  0  0  0  0  0  0  0  0  0  0
    4.8625   -2.0917    0.0000 N   0  0  0  0  0  0  0  0  0  0  0  0
    3.8000   -4.1292    0.0000 C   0  0  0  0  0  0  0  0  0  0  0  0
    4.4792   -3.9792    0.0000 N   0  0  0  0  0  0  0  0  0  0  0  0
    4.3667   -1.5417    0.0000 N   0  0  0  0  0  0  0  0  0  0  0  0
    3.7292   -1.8417    0.0000 C   0  0  0  0  0  0  0  0  0  0  0  0
    4.7917   -3.3417    0.0000 C   0  0  0  0  0  0  0  0  0  0  0  0
    2.6292   -2.6375    0.0000 C   0  0  0  0  0  0  0  0  0  0  0  0
    2.6292   -4.0625    0.0000 C   0  0  0  0  0  0  0  0  0  0  0  0
    3.4292   -4.7417    0.0000 C   0  0  0  0  0  0  0  0  0  0  0  0
    2.0042   -3.7042    0.0000 C   0  0  0  0  0  0  0  0  0  0  0  0
    2.0042   -2.9917    0.0000 C   0  0  0  0  0  0  0  0  0  0  0  0
    1.3917   -4.0542    0.0000 Cl  0  0  0  0  0  0  0  0  0  0  0  0
    3.1167   -1.5042    0.0000 C   0  0  0  0  0  0  0  0  0  0  0  0
    3.7917   -5.3542    0.0000 C   0  0  0  0  0  0  0  0  0  0  0  0
    2.7292   -4.7375    0.0000 C   0  0  0  0  0  0  0  0  0  0  0  0
    2.3750   -5.3625    0.0000 C   0  0  0  0  0  0  0  0  0  0  0  0
    3.4375   -5.9625    0.0000 C   0  0  0  0  0  0  0  0  0  0  0  0
    2.7167   -5.9625    0.0000 C   0  0  0  0  0  0  0  0  0  0  0  0
  2  1  1  0
  3  2  2  0
  4  1  1  0
  5  4  2  0
  6  3  1  0
  7 10  1  0
  8  9  2  0
  9  1  1  0
 10  4  1  0
 11  2  1  0
 12  3  1  0
 13  6  1  0
 14 15  1  0
 15 11  2  0
 16 14  1  0
 17  9  1  0
 18 13  1  0
 19 13  2  0
 20 19  1  0
 21 18  2  0
 22 20  2  0
  8  5  1  0
  7  6  2  0
 14 12  2  0
 22 21  1  0
M  END
> <chembl_id>
CHEMBL661

> <chembl_pref_name>
ALPRAZOLAM
