
     RDKit          2D

 72 76  0  0  0  0  0  0  0  0999 V2000
    7.3906   -1.9833    0.0000 O   0  0  0  0  0  0  0  0  0  0  0  0
   -6.8011    1.9811    0.0000 C   0  0  0  0  0  0  0  0  0  0  0  0
   -6.0866    1.5686    0.0000 C   0  0  0  0  0  0  0  0  0  0  0  0
   -5.3722    1.9811    0.0000 N   0  0  0  0  0  0  0  0  0  0  0  0
   -5.3722    2.8060    0.0000 C   0  0  0  0  0  0  0  0  0  0  0  0
   -4.6577    3.2186    0.0000 C   0  0  0  0  0  0  0  0  0  0  0  0
   -4.6577    1.5686    0.0000 C   0  0  0  0  0  0  0  0  0  0  0  0
   -3.9432    1.9811    0.0000 C   0  0  0  0  0  0  0  0  0  0  0  0
   -3.9432    2.8060    0.0000 N   0  0  0  0  0  0  0  0  0  0  0  0
   -3.2288    3.2186    0.0000 C   0  0  0  0  0  0  0  0  0  0  0  0
   -2.5143    1.9811    0.0000 C   0  0  0  0  0  0  0  0  0  0  0  0
   -2.5143    2.8060    0.0000 C   0  0  0  0  0  0  0  0  0  0  0  0
   -1.7998    3.2186    0.0000 C   0  0  0  0  0  0  0  0  0  0  0  0
   -1.7998    1.5686    0.0000 C   0  0  0  0  0  0  0  0  0  0  0  0
   -1.0854    1.9811    0.0000 C   0  0  0  0  0  0  0  0  0  0  0  0
   -1.0854    2.8060    0.0000 C   0  0  0  0  0  0  0  0  0  0  0  0
   -0.3709    1.5686    0.0000 N   0  0  0  0  0  0  0  0  0  0  0  0
    0.3436    1.9811    0.0000 S   0  0  0  0  0  0  0  0  0  0  0  0
    1.0580    1.5686    0.0000 C   0  0  0  0  0  0  0  0  0  0  0  0
    1.7724    1.9811    0.0000 C   0  0  0  0  0  0  0  0  0  0  0  0
    1.7724    2.8062    0.0000 N   0  0  0  0  0  0  0  0  0  0  0  0
    2.4869    3.2187    0.0000 C   0  0  0  0  0  0  0  0  0  0  0  0
    2.4870    1.5687    0.0000 C   0  0  0  0  0  0  0  0  0  0  0  0
    3.2014    1.9812    0.0000 C   0  0  0  0  0  0  0  0  0  0  0  0
    3.2014    2.8062    0.0000 C   0  0  0  0  0  0  0  0  0  0  0  0
    1.0581    0.7436    0.0000 C   0  0  0  0  0  0  0  0  0  0  0  0
    1.7724    0.3311    0.0000 C   0  0  0  0  0  0  0  0  0  0  0  0
    2.4870    0.7436    0.0000 C   0  0  0  0  0  0  0  0  0  0  0  0
   -7.2136    2.6956    0.0000 C   0  0  0  0  0  0  0  0  0  0  0  0
   -7.6261    1.9811    0.0000 C   0  0  0  0  0  0  0  0  0  0  0  0
   -3.2263    4.0425    0.0000 O   0  0  0  0  0  0  0  0  0  0  0  0
   -0.1636    2.5836    0.0000 O   0  0  0  0  0  0  0  0  0  0  0  0
    0.7789    2.6500    0.0000 O   0  0  0  0  0  0  0  0  0  0  0  0
   -6.8003   -1.9849    0.0000 C   0  0  0  0  0  0  0  0  0  0  0  0
   -6.0859   -2.3974    0.0000 C   0  0  0  0  0  0  0  0  0  0  0  0
   -5.3714   -1.9849    0.0000 N   0  0  0  0  0  0  0  0  0  0  0  0
   -5.3714   -1.1599    0.0000 C   0  0  0  0  0  0  0  0  0  0  0  0
   -4.6569   -0.7473    0.0000 C   0  0  0  0  0  0  0  0  0  0  0  0
   -4.6569   -2.3974    0.0000 C   0  0  0  0  0  0  0  0  0  0  0  0
   -3.9425   -1.9849    0.0000 C   0  0  0  0  0  0  0  0  0  0  0  0
   -3.9425   -1.1599    0.0000 N   0  0  0  0  0  0  0  0  0  0  0  0
   -3.2280   -0.7473    0.0000 C   0  0  0  0  0  0  0  0  0  0  0  0
   -2.5135   -1.9849    0.0000 C   0  0  0  0  0  0  0  0  0  0  0  0
   -2.5135   -1.1599    0.0000 C   0  0  0  0  0  0  0  0  0  0  0  0
   -1.7991   -0.7473    0.0000 C   0  0  0  0  0  0  0  0  0  0  0  0
   -1.7991   -2.3974    0.0000 C   0  0  0  0  0  0  0  0  0  0  0  0
   -1.0846   -1.9849    0.0000 C   0  0  0  0  0  0  0  0  0  0  0  0
   -1.0846   -1.1599    0.0000 C   0  0  0  0  0  0  0  0  0  0  0  0
   -0.3701   -2.3974    0.0000 N   0  0  0  0  0  0  0  0  0  0  0  0
    0.3443   -1.9849    0.0000 S   0  0  0  0  0  0  0  0  0  0  0  0
    1.0588   -2.3974    0.0000 C   0  0  0  0  0  0  0  0  0  0  0  0
    1.7733   -1.9849    0.0000 C   0  0  0  0  0  0  0  0  0  0  0  0
    1.7732   -1.1599    0.0000 N   0  0  0  0  0  0  0  0  0  0  0  0
    2.4876   -0.7473    0.0000 C   0  0  0  0  0  0  0  0  0  0  0  0
    2.4876   -2.3974    0.0000 C   0  0  0  0  0  0  0  0  0  0  0  0
    3.2022   -1.9849    0.0000 C   0  0  0  0  0  0  0  0  0  0  0  0
    3.2022   -1.1598    0.0000 C   0  0  0  0  0  0  0  0  0  0  0  0
    1.0588   -3.2224    0.0000 C   0  0  0  0  0  0  0  0  0  0  0  0
    1.7733   -3.6349    0.0000 C   0  0  0  0  0  0  0  0  0  0  0  0
    2.4876   -3.2224    0.0000 C   0  0  0  0  0  0  0  0  0  0  0  0
   -7.2128   -1.2705    0.0000 C   0  0  0  0  0  0  0  0  0  0  0  0
   -7.6253   -1.9849    0.0000 C   0  0  0  0  0  0  0  0  0  0  0  0
   -3.2210    0.0765    0.0000 O   0  0  0  0  0  0  0  0  0  0  0  0
   -0.1628   -1.3824    0.0000 O   0  0  0  0  0  0  0  0  0  0  0  0
    0.7796   -1.3161    0.0000 O   0  0  0  0  0  0  0  0  0  0  0  0
    7.1498    2.1597    0.0000 S   0  0  0  0  0  0  0  0  0  0  0  0
    7.1498    1.3347    0.0000 O   0  0  0  0  0  0  0  0  0  0  0  0
    7.1498    2.9847    0.0000 O   0  0  0  0  0  0  0  0  0  0  0  0
    7.9748    2.1597    0.0000 O   0  0  0  0  0  0  0  0  0  0  0  0
    6.3248    2.1597    0.0000 O   0  0  0  0  0  0  0  0  0  0  0  0
    7.4088   -0.5471    0.0000 O   0  0  0  0  0  0  0  0  0  0  0  0
    7.4088   -1.2766    0.0000 O   0  0  0  0  0  0  0  0  0  0  0  0
  2  3  1  0
  3  4  1  0
  4  5  1  0
  7  8  1  0
  8  9  1  0
  6  9  1  0
  4  7  1  0
  6  5  1  0
 11 12  2  0
 10 12  1  0
 10  9  1  0
 14 15  2  0
 15 16  1  0
 13 16  2  0
 11 14  1  0
 13 12  1  0
 17 18  1  0
 15 17  1  0
 19 20  1  0
 20 21  1  0
 18 19  1  0
 23 24  1  0
 24 25  2  0
 22 25  1  0
 20 23  2  0
 22 21  2  0
 26 27  1  0
 27 28  2  0
 19 26  2  0
 28 23  1  0
  2 29  1  0
 29 30  1  0
 30  2  1  0
 10 31  2  0
 18 32  2  0
 18 33  2  0
 34 35  1  0
 35 36  1  0
 36 37  1  0
 39 40  1  0
 40 41  1  0
 38 41  1  0
 36 39  1  0
 38 37  1  0
 43 44  2  0
 42 44  1  0
 42 41  1  0
 46 47  2  0
 47 48  1  0
 45 48  2  0
 43 46  1  0
 45 44  1  0
 49 50  1  0
 47 49  1  0
 51 52  1  0
 52 53  1  0
 50 51  1  0
 55 56  1  0
 56 57  2  0
 54 57  1  0
 52 55  2  0
 54 53  2  0
 58 59  1  0
 59 60  2  0
 51 58  2  0
 60 55  1  0
 34 61  1  0
 61 62  1  0
 62 34  1  0
 42 63  2  0
 50 64  2  0
 50 65  2  0
 66 67  1  0
 66 68  1  0
 66 69  2  0
 66 70  2  0
M  END
> <chembl_id>
CHEMBL4297223

> <chembl_pref_name>
MITAPIVAT SULFATE
