
     RDKit          2D

 78 81  0  0  0  0  0  0  0  0999 V2000
    4.6284   -6.7995    0.0000 C   0  0  0  0  0  0  0  0  0  0  0  0
    4.6284   -7.6245    0.0000 C   0  0  0  0  0  0  0  0  0  0  0  0
    5.2117   -6.2162    0.0000 O   0  0  0  0  0  0  0  0  0  0  0  0
    4.0153   -6.2475    0.0000 O   0  0  0  0  0  0  0  0  0  0  0  0
   -0.7052   -3.1286    0.0000 C   0  0  0  0  0  0  0  0  0  0  0  0
   -0.1666   -3.7536    0.0000 C   0  0  0  0  0  0  0  0  0  0  0  0
   -6.4392   -2.1019    0.0000 N   0  0  0  0  0  0  0  0  0  0  0  0
    0.6556   -3.6852    0.0000 O   0  0  0  0  0  0  0  0  0  0  0  0
   -5.0106   -2.1329    0.0000 C   0  0  0  0  0  0  0  0  0  0  0  0
   -4.2873   -1.7361    0.0000 C   0  0  0  0  0  0  0  0  0  0  0  0
   -3.5820   -2.1640    0.0000 C   0  0  0  0  0  0  0  0  0  0  0  0
   -2.8587   -1.7671    0.0000 C   0  0  0  0  0  0  0  0  0  0  0  0
   -2.1534   -2.1950    0.0000 N   0  0  0  0  0  0  0  0  0  0  0  0
   -0.7248   -2.2261    0.0000 C   0  0  0  0  0  0  0  0  0  0  0  0
   -1.4301   -1.7981    0.0000 C   0  0  0  0  0  0  0  0  0  0  0  0
   -1.4122   -0.9733    0.0000 O   0  0  0  0  0  0  0  0  0  0  0  0
    0.0650   -2.8330    0.0000 N   0  0  0  0  0  0  0  0  0  0  0  0
    0.1941   -2.0181    0.0000 C   0  0  0  0  0  0  0  0  0  0  0  0
   -0.4471   -1.4990    0.0000 O   0  0  0  0  0  0  0  0  0  0  0  0
    0.9643   -1.7225    0.0000 C   0  0  0  0  0  0  0  0  0  0  0  0
    1.6054   -2.2417    0.0000 N   0  0  0  0  0  0  0  0  0  0  0  0
    2.3756   -1.9460    0.0000 C   0  0  0  0  0  0  0  0  0  0  0  0
    2.5047   -1.1312    0.0000 C   0  0  0  0  0  0  0  0  0  0  0  0
    3.0168   -2.4652    0.0000 O   0  0  0  0  0  0  0  0  0  0  0  0
    1.0933   -0.9076    0.0000 C   0  0  0  0  0  0  0  0  0  0  0  0
    0.4522   -0.3885    0.0000 C   0  0  0  0  0  0  0  0  0  0  0  0
    0.5812    0.4264    0.0000 C   0  0  0  0  0  0  0  0  0  0  0  0
   -0.0599    0.9456    0.0000 C   0  0  0  0  0  0  0  0  0  0  0  0
   -5.7159   -1.7050    0.0000 C   0  0  0  0  0  0  0  0  0  0  0  0
   -5.6980   -0.8802    0.0000 C   0  0  0  0  0  0  0  0  0  0  0  0
   -6.4034   -0.4523    0.0000 O   0  0  0  0  0  0  0  0  0  0  0  0
   -4.9748   -0.4833    0.0000 O   0  0  0  0  0  0  0  0  0  0  0  0
   -0.5945   -4.4589    0.0000 N   0  0  0  0  0  0  0  0  0  0  0  0
   -1.3976   -4.2699    0.0000 C   0  0  0  0  0  0  0  0  0  0  0  0
   -1.3040   -5.0896    0.0000 C   0  0  0  0  0  0  0  0  0  0  0  0
   -0.5474   -5.4184    0.0000 C   0  0  0  0  0  0  0  0  0  0  0  0
    0.1634   -4.9995    0.0000 C   0  0  0  0  0  0  0  0  0  0  0  0
    0.7814   -5.5461    0.0000 N   0  0  0  0  0  0  0  0  0  0  0  0
    0.4525   -6.3027    0.0000 C   0  0  0  0  0  0  0  0  0  0  0  0
   -0.3687   -6.2238    0.0000 N   0  0  0  0  0  0  0  0  0  0  0  0
   -2.2071   -4.6694    0.0000 C   0  0  0  0  0  0  0  0  0  0  0  0
   -2.2430   -5.4937    0.0000 O   0  0  0  0  0  0  0  0  0  0  0  0
   -2.9125   -4.2415    0.0000 N   0  0  0  0  0  0  0  0  0  0  0  0
   -3.6358   -4.6384    0.0000 C   0  0  0  0  0  0  0  0  0  0  0  0
   -4.3411   -4.2105    0.0000 C   0  0  0  0  0  0  0  0  0  0  0  0
   -4.3232   -3.3857    0.0000 O   0  0  0  0  0  0  0  0  0  0  0  0
   -5.0644   -4.6074    0.0000 N   0  0  0  0  0  0  0  0  0  0  0  0
   -3.6537   -5.4632    0.0000 C   0  0  0  0  0  0  0  0  0  0  0  0
   -4.3769   -5.8601    0.0000 C   0  0  0  0  0  0  0  0  0  0  0  0
   -5.0823   -5.4322    0.0000 C   0  0  0  0  0  0  0  0  0  0  0  0
   -5.8055   -5.8290    0.0000 C   0  0  0  0  0  0  0  0  0  0  0  0
   -5.8235   -6.6539    0.0000 C   0  0  0  0  0  0  0  0  0  0  0  0
   -5.1181   -7.0818    0.0000 C   0  0  0  0  0  0  0  0  0  0  0  0
   -4.3949   -6.6849    0.0000 C   0  0  0  0  0  0  0  0  0  0  0  0
   -5.7697   -4.1794    0.0000 C   0  0  0  0  0  0  0  0  0  0  0  0
   -5.7876   -5.0042    0.0000 C   0  0  0  0  0  0  0  0  0  0  0  0
   -6.5109   -5.4011    0.0000 C   0  0  0  0  0  0  0  0  0  0  0  0
   -6.5288   -6.2259    0.0000 C   0  0  0  0  0  0  0  0  0  0  0  0
   -7.2521   -6.6228    0.0000 N   0  0  0  0  0  0  0  0  0  0  0  0
   -7.2700   -7.4476    0.0000 C   0  0  0  0  0  0  0  0  0  0  0  0
   -6.5646   -7.8755    0.0000 N   0  0  0  0  0  0  0  0  0  0  0  0
   -7.9932   -7.8445    0.0000 N   0  0  0  0  0  0  0  0  0  0  0  0
   -6.4930   -4.5763    0.0000 C   0  0  0  0  0  0  0  0  0  0  0  0
   -6.9923   -5.2331    0.0000 O   0  0  0  0  0  0  0  0  0  0  0  0
   -7.1983   -4.1484    0.0000 N   0  0  0  0  0  0  0  0  0  0  0  0
   -7.1804   -3.3236    0.0000 C   0  0  0  0  0  0  0  0  0  0  0  0
   -7.8857   -2.8957    0.0000 C   0  0  0  0  0  0  0  0  0  0  0  0
   -8.6090   -3.2926    0.0000 C   0  0  0  0  0  0  0  0  0  0  0  0
   -9.3552   -2.9407    0.0000 C   0  0  0  0  0  0  0  0  0  0  0  0
   -9.9204   -3.5417    0.0000 N   0  0  0  0  0  0  0  0  0  0  0  0
   -9.5235   -4.2649    0.0000 C   0  0  0  0  0  0  0  0  0  0  0  0
   -8.7130   -4.1110    0.0000 C   0  0  0  0  0  0  0  0  0  0  0  0
   -8.1744   -4.7359    0.0000 C   0  0  0  0  0  0  0  0  0  0  0  0
   -8.4464   -5.5148    0.0000 C   0  0  0  0  0  0  0  0  0  0  0  0
   -9.2569   -5.6688    0.0000 C   0  0  0  0  0  0  0  0  0  0  0  0
   -9.7955   -5.0438    0.0000 C   0  0  0  0  0  0  0  0  0  0  0  0
   -6.4571   -2.9267    0.0000 C   0  0  0  0  0  0  0  0  0  0  0  0
   -5.7518   -3.3546    0.0000 O   0  0  0  0  0  0  0  0  0  0  0  0
  1  2  1  0
  1  3  2  0
  1  4  1  0
  5  6  1  0
  6  8  2  0
  9 10  1  0
 10 11  1  0
 11 12  1  0
 12 13  1  0
  5 14  1  6
 14 15  1  0
 15 16  2  0
 13 15  1  0
  5 17  1  0
 17 18  1  0
 18 19  2  0
 18 20  1  0
 20 21  1  0
 21 22  1  0
 22 23  1  0
 22 24  2  0
 20 25  1  6
 25 26  1  0
 26 27  1  0
 27 28  1  0
  7 29  1  0
 29  9  1  6
 29 30  1  0
 30 31  2  0
 30 32  1  0
 34 33  1  1
 34 35  1  0
 34 41  1  0
 35 36  1  0
 36 37  2  0
 36 40  1  0
 37 38  1  0
 38 39  1  0
 39 40  2  0
 41 42  2  0
 41 43  1  0
 44 45  1  0
 45 46  2  0
 45 47  1  0
 44 48  1  0
 48 49  1  0
 50 51  1  0
 51 52  2  0
 52 53  1  0
 53 54  2  0
 54 49  1  0
 50 49  2  0
 44 43  1  6
 55 56  1  0
 55 63  1  0
 56 57  1  0
 57 58  1  0
 58 59  1  0
 59 60  1  0
 60 61  1  0
 60 62  2  0
 63 64  2  0
 63 65  1  0
 55 47  1  1
 66 67  1  0
 66 77  1  0
 67 68  1  0
 68 69  2  0
 68 72  1  0
 69 70  1  0
 70 71  1  0
 71 72  2  0
 71 76  1  0
 72 73  1  0
 73 74  2  0
 74 75  1  0
 75 76  2  0
 77 78  2  0
 66 65  1  1
 33  6  1  0
  7 77  1  0
M  END
> <chembl_id>
CHEMBL4297533

> <chembl_pref_name>
BREMELANOTIDE ACETATE
