
     RDKit          2D

 58 61  0  0  1  0  0  0  0  0999 V2000
    6.2042  -12.6750    0.0000 C   0  0  0  0  0  0  0  0  0  0  0  0
    6.2042  -11.9667    0.0000 C   0  0  0  0  0  0  0  0  0  0  0  0
    6.8167  -11.6125    0.0000 C   0  0  0  0  0  0  0  0  0  0  0  0
    6.8167  -10.9042    0.0000 N   0  0  0  0  0  0  0  0  0  0  0  0
    6.8167  -13.0208    0.0000 O   0  0  0  0  0  0  0  0  0  0  0  0
    8.6583  -10.5458    0.0000 O   0  0  0  0  0  0  0  0  0  0  0  0
    8.0458  -10.9000    0.0000 C   0  0  0  0  0  0  0  0  0  0  0  0
    9.2708  -10.9000    0.0000 C   0  0  0  0  0  0  0  0  0  0  0  0
    6.8125  -13.7333    0.0000 C   0  0  0  0  0  0  0  0  0  0  0  0
    7.4292  -10.5500    0.0000 C   0  0  0  0  0  0  0  0  0  0  0  0
    9.8833  -10.5458    0.0000 C   0  0  0  0  0  0  0  0  0  0  0  0
    9.2708  -11.6083    0.0000 C   0  0  0  0  0  0  0  0  0  0  0  0
    5.5875  -13.0250    0.0000 C   0  0  0  0  0  0  0  0  0  0  0  0
   10.5000  -13.0250    0.0000 C   0  0  0  0  0  0  0  0  0  0  0  0
    9.8833  -11.9625    0.0000 C   0  0  0  0  0  0  0  0  0  0  0  0
    9.8833  -12.6708    0.0000 C   0  0  0  0  0  0  0  0  0  0  0  0
    9.8833   -9.8375    0.0000 C   0  0  0  0  0  0  0  0  0  0  0  0
    6.2000  -14.0875    0.0000 C   0  0  0  0  0  0  0  0  0  0  0  0
    9.8875  -14.0875    0.0000 C   0  0  0  0  0  0  0  0  0  0  0  0
    7.2792  -14.5542    0.0000 C   0  0  0  0  0  0  0  0  0  0  0  0
    9.8875  -14.7958    0.0000 C   0  0  0  0  0  0  0  0  0  0  0  0
    5.5875  -13.7292    0.0000 C   0  0  0  0  0  0  0  0  0  0  0  0
   10.5000  -13.7333    0.0000 C   0  0  0  0  0  0  0  0  0  0  0  0
    5.5917  -11.6125    0.0000 O   0  0  0  0  0  0  0  0  0  0  0  0
    7.4333  -11.9667    0.0000 O   0  0  0  0  0  0  0  0  0  0  0  0
    8.0458  -11.6083    0.0000 O   0  0  0  0  0  0  0  0  0  0  0  0
   11.7167   -9.4875    0.0000 C   0  0  0  0  0  0  0  0  0  0  0  0
   10.4958   -9.4833    0.0000 C   0  0  0  0  0  0  0  0  0  0  0  0
    7.9875  -14.5542    0.0000 C   0  0  0  0  0  0  0  0  0  0  0  0
    5.5875  -12.3167    0.0000 O   0  0  0  0  0  0  0  0  0  0  0  0
   11.1083   -9.8417    0.0000 C   0  0  0  0  0  0  0  0  0  0  0  0
   11.1125  -12.6708    0.0000 O   0  0  0  0  0  0  0  0  0  0  0  0
   11.7208   -8.7792    0.0000 C   0  0  0  0  0  0  0  0  0  0  0  0
    9.1625  -15.1667    0.0000 C   0  0  0  0  0  0  0  0  0  0  0  0
    8.4542  -15.1667    0.0000 C   0  0  0  0  0  0  0  0  0  0  0  0
   11.1083   -8.4250    0.0000 C   0  0  0  0  0  0  0  0  0  0  0  0
    6.2042  -10.5500    0.0000 C   0  0  0  0  0  0  0  0  0  0  0  0
   10.5000  -11.6083    0.0000 O   0  0  0  0  0  0  0  0  0  0  0  0
   10.4917   -8.7792    0.0000 C   0  0  0  0  0  0  0  0  0  0  0  0
    6.1958  -14.7958    0.0000 O   0  0  0  0  0  0  0  0  0  0  0  0
    6.9208  -15.1625    0.0000 O   0  0  0  0  0  0  0  0  0  0  0  0
   12.3375   -8.4292    0.0000 Cl  0  0  0  0  0  0  0  0  0  0  0  0
   12.3292   -9.8458    0.0000 O   0  0  0  0  0  0  0  0  0  0  0  0
   10.4958  -10.9000    0.0000 C   0  0  0  0  0  0  0  0  0  0  0  0
    8.6583  -11.9625    0.0000 C   0  0  0  0  0  0  0  0  0  0  0  0
    7.4292   -9.8417    0.0000 C   0  0  0  0  0  0  0  0  0  0  0  0
    4.9750  -12.6667    0.0000 C   0  0  0  0  0  0  0  0  0  0  0  0
   10.5000  -15.1500    0.0000 C   0  0  0  0  0  0  0  0  0  0  0  0
   11.1125  -14.0875    0.0000 C   0  0  0  0  0  0  0  0  0  0  0  0
    8.1375  -15.8000    0.0000 C   0  0  0  0  0  0  0  0  0  0  0  0
    7.2708  -15.7792    0.0000 C   0  0  0  0  0  0  0  0  0  0  0  0
    5.5833  -15.1458    0.0000 C   0  0  0  0  0  0  0  0  0  0  0  0
   12.9458   -9.4917    0.0000 C   0  0  0  0  0  0  0  0  0  0  0  0
    6.2042   -9.8417    0.0000 C   0  0  0  0  0  0  0  0  0  0  0  0
   11.7250  -13.7333    0.0000 C   0  0  0  0  0  0  0  0  0  0  0  0
    6.8167   -9.4875    0.0000 C   0  0  0  0  0  0  0  0  0  0  0  0
    6.5508  -14.6985    0.0000 H   0  0  0  0  0  0  0  0  0  0  0  0
    8.2934  -10.0468    0.0000 H   0  0  0  0  0  0  0  0  0  0  0  0
  2  1  1  0
  3  2  1  0
  4  3  1  0
  5  1  1  0
  6  7  1  0
  7 10  1  0
  8  6  1  0
  9  5  1  0
 10  4  1  0
  8 11  1  6
 12  8  1  0
 13  1  1  0
 14 23  1  0
 15 12  1  0
 16 15  1  0
 17 11  2  0
 18 22  1  0
 19 21  2  0
 20  9  1  0
 21 34  1  0
 22 13  1  0
 23 19  1  0
 24  2  2  0
 25  3  2  0
 26  7  2  0
 27 31  1  0
 28 17  1  6
 29 20  1  0
  1 30  1  1
 31 28  1  0
 32 14  2  0
 33 36  1  0
 34 35  1  0
 35 29  1  0
 36 39  1  0
 37  4  1  0
 15 38  1  1
 39 28  1  0
 18 40  1  1
 20 41  1  6
 33 42  1  6
 27 43  1  6
 44 11  1  0
 12 45  1  1
 46 10  1  0
 13 47  1  1
 48 21  1  0
 23 49  1  6
 35 50  1  6
 51 41  1  0
 52 40  1  0
 53 43  1  0
 54 37  1  0
 55 49  1  0
 56 46  1  0
  9 57  1  1
  9 18  1  0
 56 54  1  0
 14 16  1  0
 33 27  1  0
 10 58  1  6
M  END
> <chembl_id>
CHEMBL1200686

> <chembl_pref_name>
PIMECROLIMUS
