
     RDKit          2D

 30 32  0  0  0  0  0  0  0  0999 V2000
    1.7973    0.2946    0.0000 O   0  0  0  0  0  0  0  0  0  0  0  0
    0.9741    2.4428    0.0000 C   0  0  0  0  0  0  0  0  0  0  0  0
    0.4892    3.1103    0.0000 N   0  0  0  0  0  0  0  0  0  0  0  0
    1.7587    2.6978    0.0000 C   0  0  0  0  0  0  0  0  0  0  0  0
    0.7192    1.6582    0.0000 N   0  0  0  0  0  0  0  0  0  0  0  0
   -2.0299   -3.9355    0.0000 N   0  0  0  0  0  0  0  0  0  0  0  0
    0.9741    3.7777    0.0000 S   0  0  0  0  0  0  0  0  0  0  0  0
   -1.6174   -3.2211    0.0000 C   0  0  0  0  0  0  0  0  0  0  0  0
   -2.8369   -3.7640    0.0000 C   0  0  0  0  0  0  0  0  0  0  0  0
   -2.1695   -2.6080    0.0000 C   0  0  0  0  0  0  0  0  0  0  0  0
   -0.8105   -3.0495    0.0000 C   0  0  0  0  0  0  0  0  0  0  0  0
    1.7587    3.5228    0.0000 C   0  0  0  0  0  0  0  0  0  0  0  0
   -0.5555   -2.2649    0.0000 C   0  0  0  0  0  0  0  0  0  0  0  0
   -1.1076   -1.6518    0.0000 C   0  0  0  0  0  0  0  0  0  0  0  0
    0.2093    0.0890    0.0000 N   0  0  0  0  0  0  0  0  0  0  0  0
   -1.9145   -1.8233    0.0000 C   0  0  0  0  0  0  0  0  0  0  0  0
   -2.9232   -2.9435    0.0000 C   0  0  0  0  0  0  0  0  0  0  0  0
    1.2712    1.0451    0.0000 C   0  0  0  0  0  0  0  0  0  0  0  0
   -0.0878    1.4867    0.0000 C   0  0  0  0  0  0  0  0  0  0  0  0
   -3.4500   -4.3160    0.0000 O   0  0  0  0  0  0  0  0  0  0  0  0
   -0.8526   -0.8672    0.0000 C   0  0  0  0  0  0  0  0  0  0  0  0
   -0.0457   -0.6957    0.0000 C   0  0  0  0  0  0  0  0  0  0  0  0
    1.0163    0.2605    0.0000 C   0  0  0  0  0  0  0  0  0  0  0  0
   -0.3427    0.7021    0.0000 C   0  0  0  0  0  0  0  0  0  0  0  0
    0.2514   -2.0934    0.0000 Cl  0  0  0  0  0  0  0  0  0  0  0  0
    2.4732    2.2853    0.0000 C   0  0  0  0  0  0  0  0  0  0  0  0
    2.4732    3.9353    0.0000 C   0  0  0  0  0  0  0  0  0  0  0  0
    3.1877    2.6978    0.0000 C   0  0  0  0  0  0  0  0  0  0  0  0
    3.1877    3.5228    0.0000 C   0  0  0  0  0  0  0  0  0  0  0  0
    1.4493   -0.2946    0.0000 Cl  0  0  0  0  0  0  0  0  0  0  0  0
  2  3  2  0
  2  4  1  0
  2  5  1  0
  3  7  1  0
  6  8  1  0
  6  9  1  0
  8 10  1  0
  8 11  2  0
  4 12  1  0
  7 12  1  0
 11 13  1  0
 13 14  2  0
 10 16  2  0
 14 16  1  0
  9 17  1  0
 10 17  1  0
  5 18  1  0
  5 19  1  0
  9 20  2  0
 14 21  1  0
 15 22  1  0
 21 22  1  0
 15 23  1  0
 18 23  1  0
 15 24  1  0
 19 24  1  0
 13 25  1  0
  4 26  2  0
 12 27  2  0
 26 28  1  0
 27 29  1  0
 28 29  2  0
M  END
> <chembl_id>
CHEMBL1375743

> <chembl_pref_name>
ZIPRASIDONE HYDROCHLORIDE
