
     RDKit          2D

 22 22  0  0  0  0  0  0  0  0999 V2000
    5.0792   -4.2792    0.0000 Cl  0  0  0  0  0  0  0  0  0  0  0  0
    1.3917   -3.7542    0.0000 C   0  0  0  0  0  0  0  0  0  0  0  0
    1.4000   -3.0375    0.0000 C   0  0  0  0  0  0  0  0  0  0  0  0
    0.7625   -4.1125    0.0000 C   0  0  0  0  0  0  0  0  0  0  0  0
    2.0292   -4.0708    0.0000 C   0  0  0  0  0  0  0  0  0  0  0  0
    0.7750   -2.6667    0.0000 O   0  0  0  0  0  0  0  0  0  0  0  0
    2.0250   -2.6792    0.0000 O   0  0  0  0  0  0  0  0  0  0  0  0
    0.7417   -3.5292    0.0000 O   0  0  0  0  0  0  0  0  0  0  0  0
    3.8542   -3.0667    0.0000 N   0  0  0  0  0  0  0  0  0  0  0  0
    2.6375   -3.0500    0.0000 C   0  0  0  0  0  0  0  0  0  0  0  0
    0.5667   -4.8042    0.0000 C   0  0  0  0  0  0  0  0  0  0  0  0
    0.1792   -3.6917    0.0000 C   0  0  0  0  0  0  0  0  0  0  0  0
    3.2500   -2.7042    0.0000 C   0  0  0  0  0  0  0  0  0  0  0  0
    2.0292   -4.8000    0.0000 C   0  0  0  0  0  0  0  0  0  0  0  0
    2.6625   -3.7167    0.0000 C   0  0  0  0  0  0  0  0  0  0  0  0
    3.8417   -3.7625    0.0000 C   0  0  0  0  0  0  0  0  0  0  0  0
    4.4500   -2.7167    0.0000 C   0  0  0  0  0  0  0  0  0  0  0  0
   -0.1750   -4.8167    0.0000 C   0  0  0  0  0  0  0  0  0  0  0  0
   -0.4083   -4.1292    0.0000 C   0  0  0  0  0  0  0  0  0  0  0  0
    2.6542   -5.1500    0.0000 C   0  0  0  0  0  0  0  0  0  0  0  0
    3.2792   -4.0667    0.0000 C   0  0  0  0  0  0  0  0  0  0  0  0
    3.2792   -4.8000    0.0000 C   0  0  0  0  0  0  0  0  0  0  0  0
  3  2  1  0
  4  2  1  0
  5  2  1  0
  6  3  2  0
  7  3  1  0
  8  4  1  0
  9 13  1  0
 10  7  1  0
 11  4  1  0
 12  4  1  0
 13 10  1  0
 14  5  2  0
 15  5  1  0
 16  9  1  0
 17  9  1  0
 18 11  1  0
 19 12  1  0
 20 14  1  0
 21 15  2  0
 22 20  2  0
 19 18  1  0
 22 21  1  0
M  END
> <chembl_id>
CHEMBL1200473

> <chembl_pref_name>
CYCLOPENTOLATE HYDROCHLORIDE
