
     RDKit          2D

 42 45  0  0  0  0  0  0  0  0999 V2000
   23.5417  -12.8068    0.0000 O   0  0  0  0  0  0  0  0  0  0  0  0
   23.9544  -13.5167    0.0000 P   0  0  0  0  0  0  0  0  0  0  0  0
   24.3629  -12.8043    0.0000 O   0  0  0  0  0  0  0  0  0  0  0  0
   28.0321  -13.0379    0.0000 C   0  0  0  0  0  0  0  0  0  0  0  0
   27.4543  -13.6240    0.0000 C   0  0  0  0  0  0  0  0  0  0  0  0
   27.1988  -14.3662    0.0000 C   0  0  0  0  0  0  0  0  0  0  0  0
   26.7840  -13.1257    0.0000 O   0  0  0  0  0  0  0  0  0  0  0  0
   26.3831  -14.3662    0.0000 C   0  0  0  0  0  0  0  0  0  0  0  0
   27.4495  -15.1478    0.0000 O   0  0  0  0  0  0  0  0  0  0  0  0
   26.1310  -13.5920    0.0000 C   0  0  0  0  0  0  0  0  0  0  0  0
   26.1213  -15.1437    0.0000 O   0  0  0  0  0  0  0  0  0  0  0  0
   25.3628  -13.3492    0.0000 C   0  0  0  0  0  0  0  0  0  0  0  0
   28.6344  -11.8493    0.0000 C   0  0  0  0  0  0  0  0  0  0  0  0
   27.9010  -12.2243    0.0000 C   0  0  0  0  0  0  0  0  0  0  0  0
   29.2205  -12.4313    0.0000 C   0  0  0  0  0  0  0  0  0  0  0  0
   28.8440  -13.1692    0.0000 N   0  0  0  0  0  0  0  0  0  0  0  0
   29.2949  -13.8548    0.0000 N   0  0  0  0  0  0  0  0  0  0  0  0
   30.1202  -13.8127    0.0000 C   0  0  0  0  0  0  0  0  0  0  0  0
   30.4926  -13.0789    0.0000 N   0  0  0  0  0  0  0  0  0  0  0  0
   30.0438  -12.3831    0.0000 C   0  0  0  0  0  0  0  0  0  0  0  0
   28.1642  -14.0367    0.0000 C   0  0  0  0  0  0  0  0  0  0  0  0
   28.8741  -14.4453    0.0000 N   0  0  0  0  0  0  0  0  0  0  0  0
   30.4126  -11.6497    0.0000 N   0  0  0  0  0  0  0  0  0  0  0  0
   24.7051  -13.8397    0.0000 O   0  0  0  0  0  0  0  0  0  0  0  0
   23.2994  -14.0053    0.0000 N   0  0  0  0  0  0  0  0  0  0  0  0
   22.5488  -13.6823    0.0000 C   0  0  0  0  0  0  0  0  0  0  0  0
   21.8937  -14.1708    0.0000 C   0  0  0  0  0  0  0  0  0  0  0  0
   22.4532  -12.8707    0.0000 C   0  0  0  0  0  0  0  0  0  0  0  0
   21.1431  -13.8478    0.0000 O   0  0  0  0  0  0  0  0  0  0  0  0
   21.9893  -14.9824    0.0000 O   0  0  0  0  0  0  0  0  0  0  0  0
   20.4880  -14.3364    0.0000 C   0  0  0  0  0  0  0  0  0  0  0  0
   19.7374  -14.0134    0.0000 C   0  0  0  0  0  0  0  0  0  0  0  0
   19.0823  -14.5020    0.0000 C   0  0  0  0  0  0  0  0  0  0  0  0
   19.6418  -13.2018    0.0000 C   0  0  0  0  0  0  0  0  0  0  0  0
   18.3317  -14.1790    0.0000 C   0  0  0  0  0  0  0  0  0  0  0  0
   18.8911  -12.8788    0.0000 C   0  0  0  0  0  0  0  0  0  0  0  0
   23.9482  -12.0978    0.0000 C   0  0  0  0  0  0  0  0  0  0  0  0
   24.7655  -12.1001    0.0000 C   0  0  0  0  0  0  0  0  0  0  0  0
   25.1719  -11.3920    0.0000 C   0  0  0  0  0  0  0  0  0  0  0  0
   24.7611  -10.6845    0.0000 C   0  0  0  0  0  0  0  0  0  0  0  0
   23.9397  -10.6897    0.0000 C   0  0  0  0  0  0  0  0  0  0  0  0
   23.5370  -11.3983    0.0000 C   0  0  0  0  0  0  0  0  0  0  0  0
  2  1  1  1
  3  2  2  0
  5  4  1  1
  6  5  1  0
  5  7  1  0
  6  8  1  0
  6  9  1  6
  7 10  1  0
  8 11  1  6
 10 12  1  1
  8 10  1  0
  4 16  1  0
 15 13  2  0
 13 14  1  0
 14  4  2  0
 15 16  1  0
 15 20  1  0
 16 17  1  0
 17 18  2  0
 18 19  1  0
 19 20  2  0
  5 21  1  0
 21 22  3  0
 20 23  1  0
 12 24  1  0
 24  2  1  0
  2 25  1  0
 25 26  1  0
 26 27  1  0
 26 28  1  6
 27 29  1  0
 27 30  2  0
 29 31  1  0
 31 32  1  0
 32 33  1  0
 32 34  1  0
 33 35  1  0
 34 36  1  0
  1 37  1  0
 37 38  2  0
 38 39  1  0
 39 40  2  0
 40 41  1  0
 41 42  2  0
 42 37  1  0
M  END
> <chembl_id>
CHEMBL4065616

> <chembl_pref_name>
REMDESIVIR
