
     RDKit          2D

 36 40  0  0  0  0  0  0  0  0999 V2000
    8.8393    2.4161    0.0000 C   0  0  0  0  0  0  0  0  0  0  0  0
    8.1248    2.0036    0.0000 N   0  0  0  0  0  0  0  0  0  0  0  0
    8.1248    1.1786    0.0000 C   0  0  0  0  0  0  0  0  0  0  0  0
    8.8393    0.7661    0.0000 C   0  0  0  0  0  0  0  0  0  0  0  0
    9.5538    1.1786    0.0000 C   0  0  0  0  0  0  0  0  0  0  0  0
    9.5538    2.0036    0.0000 N   0  0  0  0  0  0  0  0  0  0  0  0
    7.5117    0.6266    0.0000 N   0  0  0  0  0  0  0  0  0  0  0  0
    7.8473   -0.1271    0.0000 N   0  0  0  0  0  0  0  0  0  0  0  0
    8.6677   -0.0409    0.0000 N   0  0  0  0  0  0  0  0  0  0  0  0
    6.7048    0.7981    0.0000 C   0  0  0  0  0  0  0  0  0  0  0  0
    6.3692    1.5518    0.0000 C   0  0  0  0  0  0  0  0  0  0  0  0
    5.5487    1.4655    0.0000 C   0  0  0  0  0  0  0  0  0  0  0  0
    5.3772    0.6586    0.0000 C   0  0  0  0  0  0  0  0  0  0  0  0
    6.0916    0.2461    0.0000 C   0  0  0  0  0  0  0  0  0  0  0  0
    4.9967    2.0786    0.0000 O   0  0  0  0  0  0  0  0  0  0  0  0
    4.1717    2.0786    0.0000 C   0  0  0  0  0  0  0  0  0  0  0  0
    3.7592    2.7931    0.0000 C   0  0  0  0  0  0  0  0  0  0  0  0
    2.9342    2.7931    0.0000 O   0  0  0  0  0  0  0  0  0  0  0  0
    4.6235    0.3230    0.0000 O   0  0  0  0  0  0  0  0  0  0  0  0
    6.1779   -0.5744    0.0000 O   0  0  0  0  0  0  0  0  0  0  0  0
   10.2683    0.7661    0.0000 N   0  0  0  0  0  0  0  0  0  0  0  0
   10.9827    1.1786    0.0000 C   0  0  0  0  0  0  0  0  0  0  0  0
   11.8077    1.1786    0.0000 C   0  0  0  0  0  0  0  0  0  0  0  0
   11.3953    1.8930    0.0000 C   0  0  0  0  0  0  0  0  0  0  0  0
   12.5222    0.7661    0.0000 C   0  0  0  0  0  0  0  0  0  0  0  0
   12.5222   -0.0589    0.0000 C   0  0  0  0  0  0  0  0  0  0  0  0
   13.2367   -0.4714    0.0000 C   0  0  0  0  0  0  0  0  0  0  0  0
   13.9512   -0.0589    0.0000 C   0  0  0  0  0  0  0  0  0  0  0  0
   13.9512    0.7661    0.0000 C   0  0  0  0  0  0  0  0  0  0  0  0
   13.2367    1.1786    0.0000 C   0  0  0  0  0  0  0  0  0  0  0  0
   14.6656   -0.4714    0.0000 F   0  0  0  0  0  0  0  0  0  0  0  0
   13.2367   -1.2964    0.0000 F   0  0  0  0  0  0  0  0  0  0  0  0
    8.8393    3.2411    0.0000 S   0  0  0  0  0  0  0  0  0  0  0  0
    9.5538    3.6536    0.0000 C   0  0  0  0  0  0  0  0  0  0  0  0
   10.2682    3.2411    0.0000 C   0  0  0  0  0  0  0  0  0  0  0  0
   10.9827    3.6536    0.0000 C   0  0  0  0  0  0  0  0  0  0  0  0
  1  2  1  0
  1  6  2  0
  2  3  2  0
  4  5  2  0
  5  6  1  0
  3  7  1  0
  4  3  1  0
  4  9  1  0
  7  8  1  0
  8  9  2  0
 10  7  1  1
 10 11  1  0
 10 14  1  0
 11 12  1  0
 12 13  1  0
 13 14  1  0
 12 15  1  1
 15 16  1  0
 16 17  1  0
 17 18  1  0
 13 19  1  6
 14 20  1  6
  5 21  1  0
 22 21  1  6
 22 23  1  0
 24 22  1  0
 23 24  1  0
 23 25  1  1
 25 26  1  0
 25 30  2  0
 26 27  2  0
 27 28  1  0
 28 29  2  0
 29 30  1  0
 28 31  1  0
 27 32  1  0
  1 33  1  0
 33 34  1  0
 34 35  1  0
 35 36  1  0
M  END
> <chembl_id>
CHEMBL398435

> <chembl_pref_name>
TICAGRELOR
