
     RDKit          2D

 21 23  0  0  0  0  0  0  0  0999 V2000
    5.5125   -4.5667    0.0000 C   0  0  0  0  0  0  0  0  0  0  0  0
    6.2042   -4.4250    0.0000 N   0  0  0  0  0  0  0  0  0  0  0  0
    4.9625   -4.1292    0.0000 C   0  0  0  0  0  0  0  0  0  0  0  0
    5.5250   -2.9792    0.0000 N   0  0  0  0  0  0  0  0  0  0  0  0
    6.2167   -3.1417    0.0000 C   0  0  0  0  0  0  0  0  0  0  0  0
    6.5167   -3.7875    0.0000 C   0  0  0  0  0  0  0  0  0  0  0  0
    5.1500   -5.1875    0.0000 C   0  0  0  0  0  0  0  0  0  0  0  0
    4.9667   -3.4167    0.0000 C   0  0  0  0  0  0  0  0  0  0  0  0
    4.3500   -4.4667    0.0000 C   0  0  0  0  0  0  0  0  0  0  0  0
    5.5042   -5.8042    0.0000 C   0  0  0  0  0  0  0  0  0  0  0  0
    6.6667   -2.5875    0.0000 O   0  0  0  0  0  0  0  0  0  0  0  0
    4.3542   -3.0542    0.0000 C   0  0  0  0  0  0  0  0  0  0  0  0
    3.7292   -4.1042    0.0000 C   0  0  0  0  0  0  0  0  0  0  0  0
    7.2292   -3.8000    0.0000 O   0  0  0  0  0  0  0  0  0  0  0  0
    6.2167   -5.8167    0.0000 Cl  0  0  0  0  0  0  0  0  0  0  0  0
    3.7417   -3.4042    0.0000 C   0  0  0  0  0  0  0  0  0  0  0  0
    3.1125   -4.4625    0.0000 Cl  0  0  0  0  0  0  0  0  0  0  0  0
    4.4500   -5.1792    0.0000 C   0  0  0  0  0  0  0  0  0  0  0  0
    5.1417   -6.4167    0.0000 C   0  0  0  0  0  0  0  0  0  0  0  0
    4.0792   -5.7917    0.0000 C   0  0  0  0  0  0  0  0  0  0  0  0
    4.4292   -6.4167    0.0000 C   0  0  0  0  0  0  0  0  0  0  0  0
  2  1  2  0
  3  1  1  0
  4  8  1  0
  5  6  1  0
  6  2  1  0
  7  1  1  0
  8  3  1  0
  9  3  2  0
 10  7  2  0
 11  5  2  0
 12  8  2  0
 13  9  1  0
 14  6  1  0
 15 10  1  0
 16 13  2  0
 17 13  1  0
 18  7  1  0
 19 10  1  0
 20 18  2  0
 21 20  1  0
  5  4  1  0
 21 19  2  0
 16 12  1  0
M  END
> <chembl_id>
CHEMBL580

> <chembl_pref_name>
LORAZEPAM
