
     RDKit          2D

 25 27  0  0  0  0  0  0  0  0999 V2000
    0.0542   -1.0000    0.0000 C   0  0  0  0  0  0  0  0  0  0  0  0
    0.3875    0.4708    0.0000 N   0  0  0  0  0  0  0  0  0  0  0  0
   -0.3000   -0.1667    0.0000 C   0  0  0  0  0  0  0  0  0  0  0  0
    1.2000    0.0000    0.0000 C   0  0  0  0  0  0  0  0  0  0  0  0
    0.9875   -0.9167    0.0000 C   0  0  0  0  0  0  0  0  0  0  0  0
   -0.4000   -1.8167    0.0000 C   0  0  0  0  0  0  0  0  0  0  0  0
    0.2667    1.4208    0.0000 C   0  0  0  0  0  0  0  0  0  0  0  0
    2.0667    0.2833    0.0000 C   0  0  0  0  0  0  0  0  0  0  0  0
    1.6792   -1.5500    0.0000 C   0  0  0  0  0  0  0  0  0  0  0  0
   -0.5708    1.7958    0.0000 C   0  0  0  0  0  0  0  0  0  0  0  0
   -1.3458   -1.8167    0.0000 C   0  0  0  0  0  0  0  0  0  0  0  0
    0.0542   -2.6375    0.0000 O   0  0  0  0  0  0  0  0  0  0  0  0
   -1.3333    1.2333    0.0000 O   0  0  0  0  0  0  0  0  0  0  0  0
   -1.8125   -1.0167    0.0000 C   0  0  0  0  0  0  0  0  0  0  0  0
   -1.8125   -2.6375    0.0000 C   0  0  0  0  0  0  0  0  0  0  0  0
    2.7625   -0.3417    0.0000 C   0  0  0  0  0  0  0  0  0  0  0  0
   -1.2333    0.0083    0.0000 C   0  0  0  0  0  0  0  0  0  0  0  0
    2.5625   -1.2667    0.0000 C   0  0  0  0  0  0  0  0  0  0  0  0
   -3.2208   -1.8167    0.0000 C   0  0  0  0  0  0  0  0  0  0  0  0
   -0.6708    2.7208    0.0000 O   0  0  0  0  0  0  0  0  0  0  0  0
   -2.7500   -1.0167    0.0000 C   0  0  0  0  0  0  0  0  0  0  0  0
   -2.7500   -2.6375    0.0000 C   0  0  0  0  0  0  0  0  0  0  0  0
   -4.1625   -1.8167    0.0000 Cl  0  0  0  0  0  0  0  0  0  0  0  0
    3.6667   -0.0625    0.0000 O   0  0  0  0  0  0  0  0  0  0  0  0
    4.3417   -0.7042    0.0000 C   0  0  0  0  0  0  0  0  0  0  0  0
  2  3  1  0
  3  1  2  0
  4  5  2  0
  5  1  1  0
  6  1  1  0
  7  2  1  0
  8  4  1  0
  9  5  1  0
 10  7  1  0
 11  6  1  0
 12  6  2  0
 13 10  2  0
 14 11  2  0
 15 11  1  0
 16 18  1  0
 17  3  1  0
 18  9  2  0
 19 22  1  0
 20 10  1  0
 21 14  1  0
 22 15  2  0
 23 19  1  0
 24 16  1  0
 25 24  1  0
  4  2  1  0
 21 19  2  0
  8 16  2  0
M  END
> <chembl_id>
CHEMBL13376

> <chembl_pref_name>
CLOMETACIN
