
     RDKit          2D

 24 26  0  0  1  0  0  0  0  0999 V2000
    0.0542    0.1500    0.0000 N   0  0  0  0  0  0  0  0  0  0  0  0
    0.5375    0.8250    0.0000 C   0  0  0  0  0  0  0  0  0  0  0  0
    0.3042   -0.6292    0.0000 C   0  0  0  0  0  0  0  0  0  0  0  0
   -0.7458    0.4000    0.0000 C   0  0  0  0  0  0  0  0  0  0  0  0
    0.0417    1.4958    0.0000 N   0  0  0  0  0  0  0  0  0  0  0  0
    1.0875   -0.8792    0.0000 C   0  0  0  0  0  0  0  0  0  0  0  0
   -0.1833   -1.2917    0.0000 O   0  0  0  0  0  0  0  0  0  0  0  0
   -0.7458    1.2333    0.0000 C   0  0  0  0  0  0  0  0  0  0  0  0
    1.0875   -1.7042    0.0000 C   0  0  0  0  0  0  0  0  0  0  0  0
   -1.4583   -0.0042    0.0000 C   0  0  0  0  0  0  0  0  0  0  0  0
    0.3042   -1.9625    0.0000 C   0  0  0  0  0  0  0  0  0  0  0  0
   -1.4625    1.6458    0.0000 C   0  0  0  0  0  0  0  0  0  0  0  0
    1.3542    0.8333    0.0000 N   0  0  0  0  0  0  0  0  0  0  0  0
   -2.1750    0.4000    0.0000 C   0  0  0  0  0  0  0  0  0  0  0  0
   -2.1708    1.2333    0.0000 C   0  0  0  0  0  0  0  0  0  0  0  0
    1.7542   -0.3917    0.0000 O   0  0  0  0  0  0  0  0  0  0  0  0
    1.7542   -2.1875    0.0000 O   0  0  0  0  0  0  0  0  0  0  0  0
   -2.8875   -0.0042    0.0000 Cl  0  0  0  0  0  0  0  0  0  0  0  0
   -2.8875    1.6458    0.0000 Cl  0  0  0  0  0  0  0  0  0  0  0  0
    0.0500   -2.7417    0.0000 C   0  0  0  0  0  0  0  0  0  0  0  0
    1.7667    1.5458    0.0000 C   0  0  0  0  0  0  0  0  0  0  0  0
    0.6042   -3.3542    0.0000 O   0  0  0  0  0  0  0  0  0  0  0  0
    2.5917    1.5583    0.0000 C   0  0  0  0  0  0  0  0  0  0  0  0
    1.3542    2.2708    0.0000 C   0  0  0  0  0  0  0  0  0  0  0  0
  2  1  1  0
  3  1  1  6
  4  1  1  0
  5  2  2  0
  6  3  1  0
  7  3  1  0
  8  4  1  0
  9  6  1  0
 10  4  2  0
 11  7  1  0
 12  8  2  0
 13  2  1  0
 14 10  1  0
 15 14  2  0
  6 16  1  1
  9 17  1  1
 18 14  1  0
 19 15  1  0
 11 20  1  6
 21 13  1  0
 22 20  1  0
 23 21  1  0
 24 21  1  0
  8  5  1  0
 11  9  1  0
 12 15  1  0
M  END
> <chembl_id>
CHEMBL515408

> <chembl_pref_name>
MARIBAVIR
