
     RDKit          2D

  4  3  0  0  0  0  0  0  0  0999 V2000
   -0.0833   -5.6750    0.0000 C   0  0  0  0  0  0  0  0  0  0  0  0
   -0.0833   -4.9667    0.0000 O   0  0  0  0  0  0  0  0  0  0  0  0
    0.5292   -6.0292    0.0000 N   0  0  0  0  0  0  0  0  0  0  0  0
   -0.6958   -6.0292    0.0000 N   0  0  0  0  0  0  0  0  0  0  0  0
  2  1  2  0
  3  1  1  0
  4  1  1  0
M  ISO  1   1  14
M  END
> <chembl_id>
CHEMBL2096635

> <chembl_pref_name>
UREA C 14
