
     RDKit          2D

 20 23  0  0  0  0  0  0  0  0999 V2000
    4.7292   -5.5167    0.0000 N   0  0  0  0  0  0  0  0  0  0  0  0
    5.4417   -5.5167    0.0000 C   0  0  0  0  0  0  0  0  0  0  0  0
    4.2792   -5.0167    0.0000 C   0  0  0  0  0  0  0  0  0  0  0  0
    5.8542   -4.9167    0.0000 C   0  0  0  0  0  0  0  0  0  0  0  0
    4.4250   -4.2542    0.0000 C   0  0  0  0  0  0  0  0  0  0  0  0
    5.7125   -4.2500    0.0000 C   0  0  0  0  0  0  0  0  0  0  0  0
    4.3875   -6.1292    0.0000 C   0  0  0  0  0  0  0  0  0  0  0  0
    5.0417   -3.9292    0.0000 C   0  0  0  0  0  0  0  0  0  0  0  0
    5.4292   -6.7375    0.0000 N   0  0  0  0  0  0  0  0  0  0  0  0
    5.7917   -6.1167    0.0000 C   0  0  0  0  0  0  0  0  0  0  0  0
    3.6167   -5.2292    0.0000 N   0  0  0  0  0  0  0  0  0  0  0  0
    4.7042   -6.7375    0.0000 C   0  0  0  0  0  0  0  0  0  0  0  0
    6.5542   -5.1250    0.0000 C   0  0  0  0  0  0  0  0  0  0  0  0
    3.8667   -3.8417    0.0000 C   0  0  0  0  0  0  0  0  0  0  0  0
    5.7542   -7.4417    0.0000 C   0  0  0  0  0  0  0  0  0  0  0  0
    6.2042   -3.7500    0.0000 C   0  0  0  0  0  0  0  0  0  0  0  0
    3.0875   -4.7792    0.0000 C   0  0  0  0  0  0  0  0  0  0  0  0
    3.2292   -4.0917    0.0000 C   0  0  0  0  0  0  0  0  0  0  0  0
    7.0542   -4.6500    0.0000 C   0  0  0  0  0  0  0  0  0  0  0  0
    6.8875   -3.9625    0.0000 C   0  0  0  0  0  0  0  0  0  0  0  0
  2  1  1  0
  3  1  1  0
  4  2  1  0
  5  3  2  0
  6  4  2  0
  7  1  1  0
  8  5  1  0
  9 12  1  0
 10  2  1  0
 11  3  1  0
 12  7  1  0
 13  4  1  0
 14  5  1  0
 15  9  1  0
 16  6  1  0
 17 11  2  0
 18 17  1  0
 19 13  2  0
 20 19  1  0
  9 10  1  0
  8  6  1  0
 18 14  2  0
 20 16  2  0
M  END
> <chembl_id>
CHEMBL654

> <chembl_pref_name>
MIRTAZAPINE
