
     RDKit          2D

 30 32  0  0  1  0  0  0  0  0999 V2000
    1.0667   -1.2667    0.0000 C   0  0  0  0  0  0  0  0  0  0  0  0
    1.0625   -1.9625    0.0000 C   0  0  0  0  0  0  0  0  0  0  0  0
   -0.1333   -1.9625    0.0000 C   0  0  0  0  0  0  0  0  0  0  0  0
    2.2667   -1.2667    0.0000 C   0  0  0  0  0  0  0  0  0  0  0  0
    0.4667   -2.3042    0.0000 C   0  0  0  0  0  0  0  0  0  0  0  0
    0.4667   -0.9250    0.0000 C   0  0  0  0  0  0  0  0  0  0  0  0
   -0.1333   -1.2667    0.0000 C   0  0  0  0  0  0  0  0  0  0  0  0
    2.2667   -1.9625    0.0000 C   0  0  0  0  0  0  0  0  0  0  0  0
    1.6625   -2.3042    0.0000 C   0  0  0  0  0  0  0  0  0  0  0  0
    2.8750   -0.9167    0.0000 C   0  0  0  0  0  0  0  0  0  0  0  0
   -1.3333   -4.0417    0.0000 C   0  0  0  0  0  0  0  0  0  0  0  0
   -0.7333   -2.3042    0.0000 C   0  0  0  0  0  0  0  0  0  0  0  0
   -0.7333   -3.0042    0.0000 O   0  0  0  0  0  0  0  0  0  0  0  0
   -0.7333   -4.3792    0.0000 O   0  0  0  0  0  0  0  0  0  0  0  0
   -1.3333   -3.3417    0.0000 C   0  0  0  0  0  0  0  0  0  0  0  0
    2.8750   -2.3042    0.0000 O   0  0  0  0  0  0  0  0  0  0  0  0
    3.4792   -1.2667    0.0000 C   0  0  0  0  0  0  0  0  0  0  0  0
   -1.9333   -4.3792    0.0000 O   0  0  0  0  0  0  0  0  0  0  0  0
   -0.7333   -0.9250    0.0000 C   0  0  0  0  0  0  0  0  0  0  0  0
    4.0792   -0.2167    0.0000 O   0  0  0  0  0  0  0  0  0  0  0  0
   -1.3375   -1.2667    0.0000 C   0  0  0  0  0  0  0  0  0  0  0  0
   -1.3375   -1.9625    0.0000 C   0  0  0  0  0  0  0  0  0  0  0  0
    4.0792   -0.9167    0.0000 C   0  0  0  0  0  0  0  0  0  0  0  0
    4.6792   -1.2542    0.0000 C   0  0  0  0  0  0  0  0  0  0  0  0
    4.0750   -2.9917    0.0000 C   0  0  0  0  0  0  0  0  0  0  0  0
    4.6750   -1.9500    0.0000 C   0  0  0  0  0  0  0  0  0  0  0  0
    4.0750   -2.2917    0.0000 C   0  0  0  0  0  0  0  0  0  0  0  0
    3.4667   -3.3375    0.0000 C   0  0  0  0  0  0  0  0  0  0  0  0
    1.0375   -0.5792    0.0000 H   0  0  0  0  0  0  0  0  0  0  0  0
    1.0292   -2.6542    0.0000 H   0  0  0  0  0  0  0  0  0  0  0  0
  2  1  1  0
  3  7  1  0
  4  1  1  0
  5  2  1  0
  6  1  1  0
  7  6  1  0
  8  4  1  0
  9  2  1  0
  4 10  1  1
 11 15  1  0
 12  3  2  0
 13 12  1  0
 14 11  2  0
 15 13  1  0
  8 16  1  6
 17 10  1  0
 18 11  1  0
 19  7  2  0
 23 20  1  1
 21 19  1  0
 22 21  2  0
 23 17  1  0
 24 23  1  0
 25 27  1  0
 26 24  1  0
 27 26  1  0
 28 25  1  0
  1 29  1  1
  2 30  1  1
  8  9  1  0
  5  3  1  0
 22 12  1  0
M  END
> <chembl_id>
CHEMBL1237119

> <chembl_pref_name>
TREPROSTINIL
