
     RDKit          2D

  5  4  0  0  0  0  0  0  0  0999 V2000
    3.0176    0.3375    0.0000 Al  0  0  0  0  0  3  0  0  0  0  0  0
    4.4466    0.3375    0.0000 Al  0  0  0  0  0  3  0  0  0  0  0  0
    3.7321    0.7500    0.0000 O   0  0  0  0  0  0  0  0  0  0  0  0
    2.3031    0.7500    0.0000 O   0  0  0  0  0  0  0  0  0  0  0  0
    4.4466   -0.4875    0.0000 O   0  0  0  0  0  0  0  0  0  0  0  0
  1  4  2  0
  1  3  1  0
  3  2  1  0
  5  2  2  0
M  END
> <chembl_id>
CHEMBL4594252

> <chembl_pref_name>
ALUMINIUM OXIDE
