
     RDKit          2D

 90 95  0  0  0  0  0  0  0  0999 V2000
   -1.2699  -19.7176    0.0000 N   0  0  0  0  0  0  0  0  0  0  0  0
   -1.8574  -19.1301    0.0000 C   0  0  0  0  0  0  0  0  0  0  0  0
   -2.5977  -19.5072    0.0000 C   0  0  0  0  0  0  0  0  0  0  0  0
   -2.4678  -20.3279    0.0000 C   0  0  0  0  0  0  0  0  0  0  0  0
   -1.6471  -20.4578    0.0000 C   0  0  0  0  0  0  0  0  0  0  0  0
   -0.6292  -14.5500    0.0000 C   0  0  0  0  0  0  0  0  0  0  0  0
   -0.1332  -14.9877    0.0000 O   0  0  0  0  0  0  0  0  0  0  0  0
   -0.6296  -13.8625    0.0000 C   0  0  0  0  0  0  0  0  0  0  0  0
    0.0826  -13.4460    0.0000 N   0  0  0  0  0  0  0  0  0  0  0  0
   -1.3463  -13.4540    0.0000 C   0  0  0  0  0  0  0  0  0  0  0  0
   -1.3509  -12.6290    0.0000 C   0  0  0  0  0  0  0  0  0  0  0  0
    0.7993  -13.8546    0.0000 C   0  0  0  0  0  0  0  0  0  0  0  0
    1.5115  -13.4381    0.0000 C   0  0  0  0  0  0  0  0  0  0  0  0
    0.8039  -14.6795    0.0000 C   0  0  0  0  0  0  0  0  0  0  0  0
    0.3667  -15.0500    0.0000 O   0  0  0  0  0  0  0  0  0  0  0  0
    1.6217  -14.7885    0.0000 N   0  0  0  0  0  0  0  0  0  0  0  0
    1.5069  -12.6131    0.0000 C   0  0  0  0  0  0  0  0  0  0  0  0
    2.2223  -12.2011    0.0000 C   0  0  0  0  0  0  0  0  0  0  0  0
    2.2180  -11.3769    0.0000 C   0  0  0  0  0  0  0  0  0  0  0  0
    1.5007  -10.9676    0.0000 C   0  0  0  0  0  0  0  0  0  0  0  0
    0.7862  -11.3885    0.0000 C   0  0  0  0  0  0  0  0  0  0  0  0
    0.7940  -12.2113    0.0000 C   0  0  0  0  0  0  0  0  0  0  0  0
    1.4950  -10.1426    0.0000 O   0  0  0  0  0  0  0  0  0  0  0  0
    1.6167  -15.6125    0.0000 C   0  0  0  0  0  0  0  0  0  0  0  0
    2.3286  -16.0293    0.0000 C   0  0  0  0  0  0  0  0  0  0  0  0
    0.8997  -16.0206    0.0000 C   0  0  0  0  0  0  0  0  0  0  0  0
    0.1878  -15.6038    0.0000 C   0  0  0  0  0  0  0  0  0  0  0  0
    0.8947  -16.8456    0.0000 C   0  0  0  0  0  0  0  0  0  0  0  0
    2.3236  -16.8543    0.0000 N   0  0  0  0  0  0  0  0  0  0  0  0
    3.0456  -15.6212    0.0000 O   0  0  0  0  0  0  0  0  0  0  0  0
    3.0355  -17.2712    0.0000 C   0  0  0  0  0  0  0  0  0  0  0  0
    3.0305  -18.0962    0.0000 C   0  0  0  0  0  0  0  0  0  0  0  0
    3.7525  -16.8630    0.0000 C   0  0  0  0  0  0  0  0  0  0  0  0
    3.7575  -16.0381    0.0000 C   0  0  0  0  0  0  0  0  0  0  0  0
    4.4745  -15.6299    0.0000 C   0  0  0  0  0  0  0  0  0  0  0  0
    4.4795  -14.8049    0.0000 N   0  0  0  0  0  0  0  0  0  0  0  0
    2.3135  -18.5043    0.0000 N   0  0  0  0  0  0  0  0  0  0  0  0
    3.7424  -18.5130    0.0000 O   0  0  0  0  0  0  0  0  0  0  0  0
    2.3083  -19.3292    0.0000 C   0  0  0  0  0  0  0  0  0  0  0  0
    1.5913  -19.7372    0.0000 C   0  0  0  0  0  0  0  0  0  0  0  0
    3.0202  -19.7461    0.0000 C   0  0  0  0  0  0  0  0  0  0  0  0
    3.0150  -20.5711    0.0000 C   0  0  0  0  0  0  0  0  0  0  0  0
    3.7269  -20.9881    0.0000 C   0  0  0  0  0  0  0  0  0  0  0  0
    2.2980  -20.9791    0.0000 C   0  0  0  0  0  0  0  0  0  0  0  0
    0.8794  -19.3202    0.0000 N   0  0  0  0  0  0  0  0  0  0  0  0
    1.5861  -20.5622    0.0000 O   0  0  0  0  0  0  0  0  0  0  0  0
    0.1624  -19.7282    0.0000 C   0  0  0  0  0  0  0  0  0  0  0  0
   -0.5495  -19.3112    0.0000 C   0  0  0  0  0  0  0  0  0  0  0  0
   -0.5443  -18.4862    0.0000 O   0  0  0  0  0  0  0  0  0  0  0  0
    0.1572  -20.5532    0.0000 C   0  0  0  0  0  0  0  0  0  0  0  0
   -0.5599  -20.9612    0.0000 C   0  0  0  0  0  0  0  0  0  0  0  0
   -1.2675  -20.5404    0.0000 C   0  0  0  0  0  0  0  0  0  0  0  0
   -1.9840  -20.9477    0.0000 C   0  0  0  0  0  0  0  0  0  0  0  0
   -1.9897  -21.7736    0.0000 C   0  0  0  0  0  0  0  0  0  0  0  0
   -1.2728  -22.1904    0.0000 C   0  0  0  0  0  0  0  0  0  0  0  0
   -0.5591  -21.7807    0.0000 C   0  0  0  0  0  0  0  0  0  0  0  0
   -1.8625  -18.3042    0.0000 C   0  0  0  0  0  0  0  0  0  0  0  0
   -1.1506  -17.8872    0.0000 O   0  0  0  0  0  0  0  0  0  0  0  0
   -2.5795  -17.8961    0.0000 N   0  0  0  0  0  0  0  0  0  0  0  0
   -2.5875  -17.0708    0.0000 C   0  0  0  0  0  0  0  0  0  0  0  0
   -1.8771  -16.6514    0.0000 C   0  0  0  0  0  0  0  0  0  0  0  0
   -3.3059  -16.6653    0.0000 C   0  0  0  0  0  0  0  0  0  0  0  0
   -1.1586  -17.0570    0.0000 O   0  0  0  0  0  0  0  0  0  0  0  0
   -1.8850  -15.8265    0.0000 N   0  0  0  0  0  0  0  0  0  0  0  0
   -4.0164  -17.0847    0.0000 C   0  0  0  0  0  0  0  0  0  0  0  0
   -4.7351  -16.6802    0.0000 C   0  0  0  0  0  0  0  0  0  0  0  0
   -5.4451  -17.0989    0.0000 C   0  0  0  0  0  0  0  0  0  0  0  0
   -5.4375  -17.9247    0.0000 C   0  0  0  0  0  0  0  0  0  0  0  0
   -4.7141  -18.3301    0.0000 C   0  0  0  0  0  0  0  0  0  0  0  0
   -4.0071  -17.9090    0.0000 C   0  0  0  0  0  0  0  0  0  0  0  0
   -2.6042  -15.4125    0.0000 C   0  0  0  0  0  0  0  0  0  0  0  0
   -2.6052  -14.5875    0.0000 C   0  0  0  0  0  0  0  0  0  0  0  0
   -3.3181  -15.8259    0.0000 C   0  0  0  0  0  0  0  0  0  0  0  0
   -4.0331  -15.4143    0.0000 C   0  0  0  0  0  0  0  0  0  0  0  0
   -3.3202  -14.1759    0.0000 O   0  0  0  0  0  0  0  0  0  0  0  0
   -1.8913  -14.1741    0.0000 C   0  0  0  0  0  0  0  0  0  0  0  0
   -4.0353  -14.5900    0.0000 C   0  0  0  0  0  0  0  0  0  0  0  0
   -4.7495  -14.1785    0.0000 C   0  0  0  0  0  0  0  0  0  0  0  0
   -5.4644  -14.5920    0.0000 C   0  0  0  0  0  0  0  0  0  0  0  0
   -5.4607  -15.4212    0.0000 C   0  0  0  0  0  0  0  0  0  0  0  0
   -4.7460  -15.8290    0.0000 C   0  0  0  0  0  0  0  0  0  0  0  0
   -1.1763  -14.5857    0.0000 N   0  0  0  0  0  0  0  0  0  0  0  0
   -1.8923  -13.3491    0.0000 C   0  0  0  0  0  0  0  0  0  0  0  0
   -2.6073  -12.9375    0.0000 C   0  0  0  0  0  0  0  0  0  0  0  0
   -0.6388  -12.2125    0.0000 C   0  0  0  0  0  0  0  0  0  0  0  0
   -0.6434  -11.3876    0.0000 O   0  0  0  0  0  0  0  0  0  0  0  0
    0.0780  -12.6211    0.0000 O   0  0  0  0  0  0  0  0  0  0  0  0
   -2.6083  -12.1125    0.0000 N   0  0  0  0  0  0  0  0  0  0  0  0
   -3.3212  -13.3509    0.0000 O   0  0  0  0  0  0  0  0  0  0  0  0
   -2.5750  -18.7167    0.0000 H   0  0  0  0  0  0  0  0  0  0  0  0
 40 45  1  0
  1  2  1  0
 40 46  2  0
 20 23  1  0
 45 47  1  0
  9 12  1  0
 47 48  1  0
 48  1  1  0
 16 24  1  0
 48 49  2  0
 47 50  1  6
 24 25  1  0
 50 51  1  0
 12 13  1  1
 51 52  2  0
 24 26  1  6
 52 53  1  0
  6  7  2  0
 53 54  2  0
 26 27  1  0
 54 55  1  0
 12 14  1  0
 55 56  2  0
 56 51  1  0
 26 28  1  0
  2 57  1  0
  2  3  1  0
 57 58  2  0
 25 29  1  0
 57 59  1  0
 14 15  2  0
 59 60  1  0
 25 30  2  0
 60 61  1  0
  6  8  1  0
 60 62  1  1
 29 31  1  0
 61 63  2  0
 14 16  1  0
 61 64  1  0
 31 32  1  0
 62 65  1  0
  3  4  1  0
 65 66  2  0
 31 33  1  1
 66 67  1  0
 13 17  1  0
 67 68  2  0
 33 34  1  0
 68 69  1  0
  8  9  1  0
 69 70  2  0
 70 65  1  0
 34 35  1  0
 64 71  1  0
 17 18  2  0
 71 72  1  0
 35 36  1  0
 71 73  1  6
  4  5  1  0
 73 74  1  0
 32 37  1  0
 72 75  2  0
 18 19  1  0
 72 76  1  0
 32 38  2  0
 74 77  2  0
  8 10  1  6
 77 78  1  0
 37 39  1  0
 78 79  2  0
 19 20  2  0
 79 80  1  0
 39 40  1  0
 80 81  2  0
 81 74  1  0
  5  1  1  0
 76 82  1  0
 82  6  1  0
 39 41  1  1
 76 83  1  6
 20 21  1  0
 83 84  1  0
 41 42  1  0
 11 85  1  0
 10 11  1  0
 85 86  2  0
 42 43  1  0
 85 87  1  0
 21 22  2  0
 84 88  1  0
 42 44  1  0
 84 89  2  0
 22 17  1  0
  2 90  1  6
M  END
> <chembl_id>
CHEMBL577736

> <chembl_pref_name>
TYROTHRICIN
