
     RDKit          2D

 49 53  0  0  0  0  0  0  0  0999 V2000
    5.6322   -4.5967    0.0000 C   0  0  0  0  0  0  0  0  0  0  0  0
    6.3214   -4.9972    0.0000 O   0  0  0  0  0  0  0  0  0  0  0  0
    4.9084   -5.0108    0.0000 C   0  0  0  0  0  0  0  0  0  0  0  0
    4.1977   -4.5974    0.0000 O   0  0  0  0  0  0  0  0  0  0  0  0
    7.0486   -4.5943    0.0000 C   0  0  0  0  0  0  0  0  0  0  0  0
    8.4453   -4.5974    0.0000 O   0  0  0  0  0  0  0  0  0  0  0  0
    7.7578   -5.0084    0.0000 C   0  0  0  0  0  0  0  0  0  0  0  0
    9.1731   -5.0145    0.0000 C   0  0  0  0  0  0  0  0  0  0  0  0
    9.8849   -4.5906    0.0000 C   0  0  0  0  0  0  0  0  0  0  0  0
   10.5691   -4.9972    0.0000 O   0  0  0  0  0  0  0  0  0  0  0  0
   11.3062   -4.5972    0.0000 C   0  0  0  0  0  0  0  0  0  0  0  0
   12.7179   -4.5974    0.0000 O   0  0  0  0  0  0  0  0  0  0  0  0
   12.0228   -5.0213    0.0000 C   0  0  0  0  0  0  0  0  0  0  0  0
    2.1392   -3.0725    0.0000 C   0  0  0  0  0  0  0  0  0  0  0  0
    3.0070   -3.0855    0.0000 C   0  0  0  0  0  0  0  0  0  0  0  0
    1.7651   -3.7816    0.0000 C   0  0  0  0  0  0  0  0  0  0  0  0
    2.6234   -4.2977    0.0000 O   0  0  0  0  0  0  0  0  0  0  0  0
    0.9379   -3.7951    0.0000 C   0  0  0  0  0  0  0  0  0  0  0  0
    0.5249   -3.0718    0.0000 C   0  0  0  0  0  0  0  0  0  0  0  0
    0.9203   -2.3611    0.0000 C   0  0  0  0  0  0  0  0  0  0  0  0
    1.7449   -2.3587    0.0000 C   0  0  0  0  0  0  0  0  0  0  0  0
    2.1593   -1.6631    0.0000 C   0  0  0  0  0  0  0  0  0  0  0  0
    2.9828   -1.6136    0.0000 C   0  0  0  0  0  0  0  0  0  0  0  0
    3.3631   -2.3553    0.0000 C   0  0  0  0  0  0  0  0  0  0  0  0
    3.3755   -3.7939    0.0000 C   0  0  0  0  0  0  0  0  0  0  0  0
    4.2064   -3.8059    0.0000 C   0  0  0  0  0  0  0  0  0  0  0  0
    4.6164   -3.0721    0.0000 C   0  0  0  0  0  0  0  0  0  0  0  0
    5.0222   -3.7729    0.0000 H   0  0  0  0  0  0  0  0  0  0  0  0
    3.3730   -4.5974    0.0000 H   0  0  0  0  0  0  0  0  0  0  0  0
    2.4611   -2.3487    0.0000 O   0  0  0  0  0  0  0  0  0  0  0  0
   11.2937   -3.7729    0.0000 O   0  0  0  0  0  0  0  0  0  0  0  0
   12.0181   -3.3646    0.0000 C   0  0  0  0  0  0  0  0  0  0  0  0
   12.7301   -3.7698    0.0000 C   0  0  0  0  0  0  0  0  0  0  0  0
    7.0210   -3.7729    0.0000 O   0  0  0  0  0  0  0  0  0  0  0  0
    7.7584   -3.3681    0.0000 C   0  0  0  0  0  0  0  0  0  0  0  0
    8.4658   -3.7876    0.0000 C   0  0  0  0  0  0  0  0  0  0  0  0
    9.1448   -3.3481    0.0000 O   0  0  0  0  0  0  0  0  0  0  0  0
   10.5970   -3.3750    0.0000 C   0  0  0  0  0  0  0  0  0  0  0  0
    9.8905   -3.7912    0.0000 C   0  0  0  0  0  0  0  0  0  0  0  0
    6.1091   -3.3606    0.0000 C   0  0  0  0  0  0  0  0  0  0  0  0
    4.2056   -2.3605    0.0000 C   0  0  0  0  0  0  0  0  0  0  0  0
    3.8287   -3.0855    0.0000 C   0  0  0  0  0  0  0  0  0  0  0  0
    3.3916   -0.8970    0.0000 N   0  0  0  0  0  0  0  0  0  0  0  0
    4.1061   -1.3095    0.0000 C   0  0  0  0  0  0  0  0  0  0  0  0
    3.1761   -0.1007    0.0000 C   0  0  0  0  0  0  0  0  0  0  0  0
    3.7579    0.4842    0.0000 C   0  0  0  0  0  0  0  0  0  0  0  0
    4.5548    0.2706    0.0000 C   0  0  0  0  0  0  0  0  0  0  0  0
    2.3994   -1.0302    0.0000 H   0  0  0  0  0  0  0  0  0  0  0  0
    0.5295   -4.5119    0.0000 O   0  0  0  0  0  0  0  0  0  0  0  0
  1  2  1  0
  1  3  1  0
  2  5  1  0
  3  4  1  0
  6  7  1  0
  7  5  1  0
  8  9  1  0
  8  6  1  0
  9 10  1  0
 10 11  1  0
 12 13  1  0
 13 11  1  0
 14 15  1  0
 14 16  1  0
 15 25  1  0
 15 24  1  0
 16 17  1  0
 18 16  2  0
 18 19  1  0
 19 20  2  0
 20 21  1  0
 21 14  2  0
 22 21  1  0
 23 24  1  0
 23 22  1  0
 24 30  1  1
 25 26  1  0
 25 29  1  1
 25 17  1  6
 26 28  1  1
 26  4  1  6
 26 27  1  0
 31 32  1  0
 32 33  1  0
 33 12  1  0
 34 35  1  0
 36 37  1  0
 36 35  1  0
 38 31  1  0
 38 39  1  0
 39 37  1  0
 40 34  1  0
 27 41  1  0
 41 24  1  0
 15 42  1  1
 23 43  1  1
 43 44  1  0
 44 42  1  0
 43 45  1  0
 45 46  1  0
 46 47  2  0
 23 48  1  6
 18 49  1  0
M  END
> <chembl_id>
CHEMBL2219418

> <chembl_pref_name>
NALOXEGOL
