
     RDKit          2D

 13 14  0  0  0  0  0  0  0  0999 V2000
    4.7000   -4.1417    0.0000 C   0  0  0  0  0  0  0  0  0  0  0  0
    5.3042   -3.7792    0.0000 C   0  0  0  0  0  0  0  0  0  0  0  0
    4.6917   -4.8417    0.0000 C   0  0  0  0  0  0  0  0  0  0  0  0
    5.9250   -4.1417    0.0000 C   0  0  0  0  0  0  0  0  0  0  0  0
    5.2917   -5.2000    0.0000 C   0  0  0  0  0  0  0  0  0  0  0  0
    5.9167   -4.8417    0.0000 C   0  0  0  0  0  0  0  0  0  0  0  0
    4.0792   -3.7792    0.0000 N   0  0  0  0  0  0  0  0  0  0  0  0
    5.3042   -3.0667    0.0000 O   0  0  0  0  0  0  0  0  0  0  0  0
    6.5375   -3.7792    0.0000 I   0  0  0  0  0  0  0  0  0  0  0  0
    5.3125   -5.9125    0.0000 Cl  0  0  0  0  0  0  0  0  0  0  0  0
    4.0792   -5.1917    0.0000 C   0  0  0  0  0  0  0  0  0  0  0  0
    3.4542   -4.1417    0.0000 C   0  0  0  0  0  0  0  0  0  0  0  0
    3.4625   -4.8500    0.0000 C   0  0  0  0  0  0  0  0  0  0  0  0
  2  1  1  0
  3  1  1  0
  4  2  2  0
  5  3  1  0
  6  5  2  0
  7  1  2  0
  8  2  1  0
  9  4  1  0
 10  5  1  0
 11  3  2  0
 12  7  1  0
 13 12  2  0
 13 11  1  0
  6  4  1  0
M  END
> <chembl_id>
CHEMBL497

> <chembl_pref_name>
CLIOQUINOL
