
     RDKit          2D

 26 27  0  0  0  0  0  0  0  0999 V2000
    3.5875   -4.9042    0.0000 Na  0  0  0  0  0 15  0  0  0  0  0  0
    1.4167   -3.5417    0.0000 N   0  0  0  0  0  0  0  0  0  0  0  0
    1.4000   -2.8250    0.0000 C   0  0  0  0  0  0  0  0  0  0  0  0
    0.7167   -3.5292    0.0000 C   0  0  0  0  0  0  0  0  0  0  0  0
    0.7250   -2.8167    0.0000 C   0  0  0  0  0  0  0  0  0  0  0  0
    2.0875   -3.7542    0.0000 C   0  0  0  0  0  0  0  0  0  0  0  0
    2.0875   -2.6125    0.0000 S   0  0  0  0  0  0  0  0  0  0  0  0
    2.5083   -3.1750    0.0000 C   0  0  0  0  0  0  0  0  0  0  0  0
    0.1375   -2.4542    0.0000 N   0  0  0  0  0  0  0  0  0  0  0  0
   -0.4750   -2.8042    0.0000 C   0  0  0  0  0  0  0  0  0  0  0  0
    2.0875   -4.4792    0.0000 C   0  0  0  0  0  0  0  0  0  0  0  0
   -1.1000   -2.4375    0.0000 C   0  0  0  0  0  0  0  0  0  0  0  0
    0.2125   -4.0292    0.0000 O   0  0  0  0  0  0  0  0  0  0  0  0
   -0.4708   -3.5000    0.0000 O   0  0  0  0  0  0  0  0  0  0  0  0
    2.7042   -4.8542    0.0000 O   0  0  0  0  0  0  0  0  0  0  0  0
    1.4667   -4.8250    0.0000 O   0  0  0  0  0  0  0  0  0  0  0  0
   -1.7250   -2.7792    0.0000 C   0  0  0  0  0  0  0  0  0  0  0  0
   -1.1000   -1.7292    0.0000 N   0  0  0  0  0  0  0  0  0  0  0  0
    3.1250   -2.8167    0.0000 C   0  0  0  0  0  0  0  0  0  0  0  0
    3.1250   -3.5292    0.0000 C   0  0  0  0  0  0  0  0  0  0  0  0
   -2.3458   -2.4167    0.0000 C   0  0  0  0  0  0  0  0  0  0  0  0
   -1.7250   -3.4917    0.0000 C   0  0  0  0  0  0  0  0  0  0  0  0
   -2.9708   -2.7667    0.0000 C   0  0  0  0  0  0  0  0  0  0  0  0
   -2.3583   -3.8375    0.0000 C   0  0  0  0  0  0  0  0  0  0  0  0
   -2.9833   -3.4917    0.0000 C   0  0  0  0  0  0  0  0  0  0  0  0
    1.3792   -2.1250    0.0000 H   0  0  0  0  0  0  0  0  0  0  0  0
  3  2  1  0
  4  2  1  0
  5  3  1  0
  6  2  1  0
  7  3  1  0
  8  6  1  0
  5  9  1  1
 10  9  1  0
  6 11  1  6
 12 10  1  0
 13  4  2  0
 14 10  2  0
 15 11  1  0
 16 11  2  0
 17 12  1  0
 12 18  1  1
 19  8  1  0
 20  8  1  0
 21 17  2  0
 22 17  1  0
 23 21  1  0
 24 22  2  0
 25 23  2  0
  3 26  1  6
  4  5  1  0
  7  8  1  0
 24 25  1  0
M  CHG  2   1   1  15  -1
M  END
> <chembl_id>
CHEMBL1200758

> <chembl_pref_name>
AMPICILLIN SODIUM
