
     RDKit          2D

 14 14  0  0  1  0  0  0  0  0999 V2000
    5.3167   -5.4375    0.0000 N   0  0  0  0  0  0  0  0  0  0  0  0
    5.3167   -4.7292    0.0000 C   0  0  0  0  0  0  0  0  0  0  0  0
    5.8917   -5.8542    0.0000 C   0  0  0  0  0  0  0  0  0  0  0  0
    6.5042   -5.4917    0.0000 C   0  0  0  0  0  0  0  0  0  0  0  0
    4.7042   -4.3750    0.0000 C   0  0  0  0  0  0  0  0  0  0  0  0
    5.9292   -4.3750    0.0000 O   0  0  0  0  0  0  0  0  0  0  0  0
    6.4917   -4.7875    0.0000 O   0  0  0  0  0  0  0  0  0  0  0  0
    4.7417   -5.8542    0.0000 C   0  0  0  0  0  0  0  0  0  0  0  0
    7.1167   -5.8417    0.0000 O   0  0  0  0  0  0  0  0  0  0  0  0
    3.4792   -4.3750    0.0000 S   0  0  0  0  0  0  0  0  0  0  0  0
    4.0917   -4.7292    0.0000 C   0  0  0  0  0  0  0  0  0  0  0  0
    5.6750   -6.5292    0.0000 C   0  0  0  0  0  0  0  0  0  0  0  0
    4.9625   -6.5292    0.0000 C   0  0  0  0  0  0  0  0  0  0  0  0
    4.7042   -3.6667    0.0000 C   0  0  0  0  0  0  0  0  0  0  0  0
  2  1  1  0
  3  1  1  0
  3  4  1  6
  5  2  1  0
  6  2  2  0
  7  4  2  0
  8  1  1  0
  9  4  1  0
 10 11  1  0
 11  5  1  0
 12  3  1  0
 13  8  1  0
  5 14  1  1
 12 13  1  0
M  END
> <chembl_id>
CHEMBL1560

> <chembl_pref_name>
CAPTOPRIL
