
     RDKit          2D

 34 38  0  0  1  0  0  0  0  0999 V2000
   -2.4333   -1.0625    0.0000 C   0  0  0  0  0  0  0  0  0  0  0  0
   -2.4333   -2.4667    0.0000 C   0  0  0  0  0  0  0  0  0  0  0  0
   -3.6208   -0.3417    0.0000 C   0  0  0  0  0  0  0  0  0  0  0  0
   -4.8083   -1.0625    0.0000 C   0  0  0  0  0  0  0  0  0  0  0  0
    1.2167    1.0208    0.0000 C   0  0  0  0  0  0  0  0  0  0  0  0
   -1.2000   -0.3417    0.0000 C   0  0  0  0  0  0  0  0  0  0  0  0
    2.5375    1.4458    0.0000 C   0  0  0  0  0  0  0  0  0  0  0  0
   -0.0125   -1.0625    0.0000 C   0  0  0  0  0  0  0  0  0  0  0  0
   -4.7875    0.3125    0.0000 C   0  0  0  0  0  0  0  0  0  0  0  0
   -1.2000   -3.1417    0.0000 C   0  0  0  0  0  0  0  0  0  0  0  0
   -3.6208   -3.1417    0.0000 C   0  0  0  0  0  0  0  0  0  0  0  0
    0.0042   -2.4667    0.0000 C   0  0  0  0  0  0  0  0  0  0  0  0
    1.2417   -0.3875    0.0000 C   0  0  0  0  0  0  0  0  0  0  0  0
   -4.8083   -2.4667    0.0000 C   0  0  0  0  0  0  0  0  0  0  0  0
    0.0292    1.7375    0.0000 C   0  0  0  0  0  0  0  0  0  0  0  0
    3.3417    0.3333    0.0000 C   0  0  0  0  0  0  0  0  0  0  0  0
    3.9000    1.7375    0.0000 O   0  0  0  0  0  0  0  0  0  0  0  0
   -1.2000    1.0625    0.0000 C   0  0  0  0  0  0  0  0  0  0  0  0
    2.5375   -0.8125    0.0000 C   0  0  0  0  0  0  0  0  0  0  0  0
    2.2792    2.7958    0.0000 C   0  0  0  0  0  0  0  0  0  0  0  0
    5.2542    2.0250    0.0000 C   0  0  0  0  0  0  0  0  0  0  0  0
   -6.0792   -3.1875    0.0000 O   0  0  0  0  0  0  0  0  0  0  0  0
    6.1917    1.0000    0.0000 O   0  0  0  0  0  0  0  0  0  0  0  0
    3.3000    3.7333    0.0000 O   0  0  0  0  0  0  0  0  0  0  0  0
   -1.1625   -4.5417    0.0000 Cl  0  0  0  0  0  0  0  0  0  0  0  0
   -2.4333    0.3333    0.0000 C   0  0  0  0  0  0  0  0  0  0  0  0
    1.2417    2.4208    0.0000 C   0  0  0  0  0  0  0  0  0  0  0  0
    5.6792    3.3583    0.0000 C   0  0  0  0  0  0  0  0  0  0  0  0
    0.9625    3.2708    0.0000 C   0  0  0  0  0  0  0  0  0  0  0  0
   -3.2208    0.9750    0.0000 H   0  0  0  0  0  0  0  0  0  0  0  0
   -1.2458   -1.6625    0.0000 H   0  0  0  0  0  0  0  0  0  0  0  0
   -6.0792   -0.7250    0.0000 H   0  0  0  0  0  0  0  0  0  0  0  0
   -0.0125    0.0958    0.0000 H   0  0  0  0  0  0  0  0  0  0  0  0
    1.2167   -1.6625    0.0000 H   0  0  0  0  0  0  0  0  0  0  0  0
  2  1  1  0
  3  1  1  0
  4  3  1  0
  5 15  1  0
  6  1  1  0
  7  5  1  0
  8  6  1  0
  9  3  1  0
 10  2  1  0
 11  2  2  0
 12  8  1  0
 13  8  1  0
 14  4  1  0
 15 18  1  0
 16 19  1  0
  7 17  1  6
 18  6  1  0
 19 13  1  0
 20  7  1  0
 21 17  1  0
 22 14  2  0
 23 21  2  0
 24 20  2  0
 25 10  1  0
  1 26  1  1
  5 27  1  1
 28 21  1  0
 29 20  1  0
  3 30  1  1
  6 31  1  6
  4 32  1  1
  8 33  1  1
 13 34  1  6
  4  9  1  0
 13  5  1  0
 10 12  2  0
 11 14  1  0
  7 16  1  0
M  END
> <chembl_id>
CHEMBL139835

> <chembl_pref_name>
CYPROTERONE ACETATE
