
     RDKit          2D

 50 51  0  0  0  0  0  0  0  0999 V2000
    8.4784   -8.2205    0.0000 C   0  0  0  0  0  0  0  0  0  0  0  0
    8.4784   -9.0455    0.0000 C   0  0  0  0  0  0  0  0  0  0  0  0
    9.1929   -9.4580    0.0000 C   0  0  0  0  0  0  0  0  0  0  0  0
    9.1929   -7.8080    0.0000 C   0  0  0  0  0  0  0  0  0  0  0  0
    9.1929   -6.9830    0.0000 O   0  0  0  0  0  0  0  0  0  0  0  0
    9.9073   -8.2205    0.0000 O   0  0  0  0  0  0  0  0  0  0  0  0
    9.1929  -10.2830    0.0000 O   0  0  0  0  0  0  0  0  0  0  0  0
    9.9073   -9.0455    0.0000 O   0  0  0  0  0  0  0  0  0  0  0  0
   -0.2652   -5.7161    0.0000 C   0  0  0  0  0  0  0  0  0  0  0  0
   -0.9797   -6.1286    0.0000 C   0  0  0  0  0  0  0  0  0  0  0  0
   -0.9797   -6.9536    0.0000 C   0  0  0  0  0  0  0  0  0  0  0  0
   -0.2652   -7.3661    0.0000 C   0  0  0  0  0  0  0  0  0  0  0  0
    0.4493   -6.9536    0.0000 C   0  0  0  0  0  0  0  0  0  0  0  0
    0.4493   -6.1286    0.0000 C   0  0  0  0  0  0  0  0  0  0  0  0
    1.1638   -7.3661    0.0000 C   0  0  0  0  0  0  0  0  0  0  0  0
    1.8783   -6.9535    0.0000 N   0  0  0  0  0  0  0  0  0  0  0  0
    1.8783   -6.1285    0.0000 C   0  0  0  0  0  0  0  0  0  0  0  0
    1.1638   -5.7160    0.0000 N   0  0  0  0  0  0  0  0  0  0  0  0
    1.1638   -8.1911    0.0000 N   0  0  0  0  0  0  0  0  0  0  0  0
    1.8783   -8.6035    0.0000 C   0  0  0  0  0  0  0  0  0  0  0  0
    1.8783   -9.4286    0.0000 C   0  0  0  0  0  0  0  0  0  0  0  0
    2.5928   -9.8410    0.0000 C   0  0  0  0  0  0  0  0  0  0  0  0
    3.3073   -9.4285    0.0000 C   0  0  0  0  0  0  0  0  0  0  0  0
    3.3073   -8.6035    0.0000 C   0  0  0  0  0  0  0  0  0  0  0  0
    2.5928   -8.1910    0.0000 C   0  0  0  0  0  0  0  0  0  0  0  0
    4.0217   -8.1910    0.0000 Cl  0  0  0  0  0  0  0  0  0  0  0  0
    4.0217   -9.8410    0.0000 F   0  0  0  0  0  0  0  0  0  0  0  0
   -1.6941   -7.3661    0.0000 N   0  0  0  0  0  0  0  0  0  0  0  0
   -1.6941   -8.1911    0.0000 C   0  0  0  0  0  0  0  0  0  0  0  0
   -2.4086   -8.6036    0.0000 C   0  0  0  0  0  0  0  0  0  0  0  0
   -0.9797   -8.6036    0.0000 O   0  0  0  0  0  0  0  0  0  0  0  0
   -3.1231   -8.1911    0.0000 C   0  0  0  0  0  0  0  0  0  0  0  0
   -3.8376   -8.6036    0.0000 C   0  0  0  0  0  0  0  0  0  0  0  0
   -4.5520   -8.1911    0.0000 N   0  0  0  0  0  0  0  0  0  0  0  0
   -5.2665   -8.6036    0.0000 C   0  0  0  0  0  0  0  0  0  0  0  0
   -4.5520   -7.3661    0.0000 C   0  0  0  0  0  0  0  0  0  0  0  0
   -1.6941   -5.7161    0.0000 O   0  0  0  0  0  0  0  0  0  0  0  0
   -2.4086   -6.1286    0.0000 C   0  0  0  0  0  0  0  0  0  0  0  0
   -3.1623   -5.7930    0.0000 C   0  0  0  0  0  0  0  0  0  0  0  0
   -3.7143   -6.4061    0.0000 O   0  0  0  0  0  0  0  0  0  0  0  0
   -3.3018   -7.1206    0.0000 C   0  0  0  0  0  0  0  0  0  0  0  0
   -2.4949   -6.9490    0.0000 C   0  0  0  0  0  0  0  0  0  0  0  0
    6.5116   -6.1286    0.0000 C   0  0  0  0  0  0  0  0  0  0  0  0
    6.5116   -6.9536    0.0000 C   0  0  0  0  0  0  0  0  0  0  0  0
    7.2261   -7.3661    0.0000 C   0  0  0  0  0  0  0  0  0  0  0  0
    7.2261   -5.7161    0.0000 C   0  0  0  0  0  0  0  0  0  0  0  0
    7.2261   -4.8911    0.0000 O   0  0  0  0  0  0  0  0  0  0  0  0
    7.9405   -6.1286    0.0000 O   0  0  0  0  0  0  0  0  0  0  0  0
    7.2261   -8.1911    0.0000 O   0  0  0  0  0  0  0  0  0  0  0  0
    7.9405   -6.9536    0.0000 O   0  0  0  0  0  0  0  0  0  0  0  0
  1  2  2  0
  2  3  1  0
  1  4  1  0
  4  5  2  0
  4  6  1  0
  3  7  2  0
  3  8  1  0
  9 10  1  0
  9 14  2  0
 10 11  2  0
 11 12  1  0
 12 13  2  0
 13 15  1  0
 13 14  1  0
 14 18  1  0
 15 16  2  0
 16 17  1  0
 17 18  2  0
 15 19  1  0
 19 20  1  0
 20 21  1  0
 20 25  2  0
 21 22  2  0
 22 23  1  0
 23 24  2  0
 24 25  1  0
 24 26  1  0
 23 27  1  0
 11 28  1  0
 28 29  1  0
 29 30  1  0
 29 31  2  0
 30 32  2  0
 32 33  1  0
 33 34  1  0
 34 35  1  0
 34 36  1  0
 10 37  1  0
 38 37  1  1
 38 39  1  0
 38 42  1  0
 39 40  1  0
 40 41  1  0
 41 42  1  0
 43 44  2  0
 44 45  1  0
 43 46  1  0
 46 47  2  0
 46 48  1  0
 45 49  2  0
 45 50  1  0
M  END
> <chembl_id>
CHEMBL2105712

> <chembl_pref_name>
AFATINIB DIMALEATE
