
     RDKit          2D

 13 10  0  0  0  0  0  0  0  0999 V2000
   -0.7145   -4.2059    0.0000 O   0  0  0  0  0  0  0  0  0  0  0  0
    0.0000   -3.7934    0.0000 Si  0  0  0  0  0  4  0  0  0  0  0  0
    0.7145   -3.3809    0.0000 O   0  0  0  0  0  0  0  0  0  0  0  0
   -0.4125   -3.0789    0.0000 O   0  0  0  0  0  0  0  0  0  0  0  0
    0.0000   -2.3645    0.0000 Si  0  0  0  0  0  4  0  0  0  0  0  0
   -0.4125   -1.6500    0.0000 O   0  0  0  0  0  0  0  0  0  0  0  0
    0.8250   -2.3645    0.0000 O   0  0  0  0  0  0  0  0  0  0  0  0
    0.4125   -4.5079    0.0000 O   0  0  0  0  0  0  0  0  0  0  0  0
    0.0000   -5.2224    0.0000 Si  0  0  0  0  0  4  0  0  0  0  0  0
    0.4125   -5.9368    0.0000 O   0  0  0  0  0  0  0  0  0  0  0  0
   -0.8250   -5.2224    0.0000 O   0  0  0  0  0  0  0  0  0  0  0  0
    0.0000    0.0000    0.0000 Mg  0  0  0  0  0 15  0  0  0  0  0  0
    1.1196    0.0000    0.0000 Mg  0  0  0  0  0 15  0  0  0  0  0  0
  1  2  1  0
  2  3  1  0
  2  4  1  0
  4  5  1  0
  5  6  2  0
  5  7  1  0
  2  8  1  0
  8  9  1  0
  9 10  2  0
  9 11  1  0
M  CHG  6   1  -1   3  -1   7  -1  11  -1  12   2  13   2
M  END
> <chembl_id>
CHEMBL2096633

> <chembl_pref_name>
MAGNESIUM TRISILICATE
