
     RDKit          2D

 26 27  0  0  0  0  0  0  0  0999 V2000
    0.0000    2.5625    0.0000 Cl  0  0  0  0  0  0  0  0  0  0  0  0
    1.0417   -0.0667    0.0000 C   0  0  0  0  0  0  0  0  0  0  0  0
    0.1375    0.0833    0.0000 C   0  0  0  0  0  0  0  0  0  0  0  0
    1.3500   -0.9292    0.0000 C   0  0  0  0  0  0  0  0  0  0  0  0
    1.6375    0.6125    0.0000 C   0  0  0  0  0  0  0  0  0  0  0  0
    2.2500   -1.1000    0.0000 C   0  0  0  0  0  0  0  0  0  0  0  0
    2.8417   -0.4042    0.0000 C   0  0  0  0  0  0  0  0  0  0  0  0
    2.5375    0.4458    0.0000 C   0  0  0  0  0  0  0  0  0  0  0  0
   -0.1458    0.9458    0.0000 N   0  0  0  0  0  0  0  0  0  0  0  0
   -2.8333   -0.9542    0.0000 C   0  0  0  0  0  0  0  0  0  0  0  0
   -0.4458   -0.5917    0.0000 C   0  0  0  0  0  0  0  0  0  0  0  0
   -3.1458   -0.0917    0.0000 C   0  0  0  0  0  0  0  0  0  0  0  0
   -1.9375   -1.1167    0.0000 C   0  0  0  0  0  0  0  0  0  0  0  0
   -1.3375   -0.4292    0.0000 C   0  0  0  0  0  0  0  0  0  0  0  0
   -2.5458    0.5875    0.0000 C   0  0  0  0  0  0  0  0  0  0  0  0
   -1.6458    0.4208    0.0000 C   0  0  0  0  0  0  0  0  0  0  0  0
    0.4375    1.6458    0.0000 C   0  0  0  0  0  0  0  0  0  0  0  0
    2.5542   -1.9625    0.0000 O   0  0  0  0  0  0  0  0  0  0  0  0
    3.7375   -0.5750    0.0000 O   0  0  0  0  0  0  0  0  0  0  0  0
   -3.4375   -1.6500    0.0000 O   0  0  0  0  0  0  0  0  0  0  0  0
   -4.0375    0.0625    0.0000 O   0  0  0  0  0  0  0  0  0  0  0  0
    1.3292    1.4750    0.0000 C   0  0  0  0  0  0  0  0  0  0  0  0
    1.9542   -2.6542    0.0000 C   0  0  0  0  0  0  0  0  0  0  0  0
   -3.1250   -2.5125    0.0000 C   0  0  0  0  0  0  0  0  0  0  0  0
    4.3417    0.1083    0.0000 C   0  0  0  0  0  0  0  0  0  0  0  0
   -4.3458    0.9250    0.0000 C   0  0  0  0  0  0  0  0  0  0  0  0
  3  2  2  0
  4  2  1  0
  5  2  1  0
  6  4  2  0
  7  8  2  0
  8  5  1  0
  9  3  1  0
 10 13  2  0
 11  3  1  0
 12 15  2  0
 13 14  1  0
 14 11  1  0
 15 16  1  0
 16 14  2  0
 17 22  1  0
 18  6  1  0
 19  7  1  0
 20 10  1  0
 21 12  1  0
 22  5  2  0
 23 18  1  0
 24 20  1  0
 25 19  1  0
 26 21  1  0
  9 17  2  0
  6  7  1  0
 10 12  1  0
M  END
> <chembl_id>
CHEMBL98123

> <chembl_pref_name>
PAPAVERINE HYDROCHLORIDE
