
     RDKit          2D

 80 86  0  0  0  0  0  0  0  0999 V2000
    2.5909   -9.9272    0.0000 C   0  0  0  0  0  0  0  0  0  0  0  0
    3.2989   -9.5184    0.0000 C   0  0  0  0  0  0  0  0  0  0  0  0
    4.0070   -9.9272    0.0000 C   0  0  0  0  0  0  0  0  0  0  0  0
    4.7150   -9.5184    0.0000 C   0  0  0  0  0  0  0  0  0  0  0  0
    1.8828   -9.5209    0.0000 O   0  0  0  0  0  0  0  0  0  0  0  0
    2.5909  -10.7473    0.0000 O   0  0  0  0  0  0  0  0  0  0  0  0
    5.4262   -9.9266    0.0000 O   0  0  0  0  0  0  0  0  0  0  0  0
    4.7182   -8.7003    0.0000 O   0  0  0  0  0  0  0  0  0  0  0  0
    3.2989   -8.7009    0.0000 O   0  0  0  0  0  0  0  0  0  0  0  0
    4.0070  -10.7448    0.0000 O   0  0  0  0  0  0  0  0  0  0  0  0
    7.8907  -11.7679    0.0000 C   0  0  0  0  0  0  0  0  0  0  0  0
    8.5987  -11.3591    0.0000 C   0  0  0  0  0  0  0  0  0  0  0  0
    9.3068  -11.7679    0.0000 C   0  0  0  0  0  0  0  0  0  0  0  0
   10.0148  -11.3591    0.0000 C   0  0  0  0  0  0  0  0  0  0  0  0
    7.1826  -11.3616    0.0000 O   0  0  0  0  0  0  0  0  0  0  0  0
    7.8907  -12.5880    0.0000 O   0  0  0  0  0  0  0  0  0  0  0  0
   10.7261  -11.7673    0.0000 O   0  0  0  0  0  0  0  0  0  0  0  0
   10.0180  -10.5410    0.0000 O   0  0  0  0  0  0  0  0  0  0  0  0
    8.5987  -10.5416    0.0000 O   0  0  0  0  0  0  0  0  0  0  0  0
    9.3068  -12.5855    0.0000 O   0  0  0  0  0  0  0  0  0  0  0  0
    6.7670   -6.9860    0.0000 C   0  0  0  0  0  0  0  0  0  0  0  0
   10.7869   -7.1156    0.0000 C   0  0  0  0  0  0  0  0  0  0  0  0
    8.7916   -3.9449    0.0000 C   0  0  0  0  0  0  0  0  0  0  0  0
    8.0806   -3.5308    0.0000 C   0  0  0  0  0  0  0  0  0  0  0  0
   12.5103   -8.0861    0.0000 O   0  0  0  0  0  0  0  0  0  0  0  0
   10.3644   -4.2921    0.0000 C   0  0  0  0  0  0  0  0  0  0  0  0
    8.0806   -5.1788    0.0000 C   0  0  0  0  0  0  0  0  0  0  0  0
    7.3651   -4.7691    0.0000 C   0  0  0  0  0  0  0  0  0  0  0  0
    7.4155   -8.0861    0.0000 O   0  0  0  0  0  0  0  0  0  0  0  0
   10.0633   -5.0534    0.0000 N   0  0  0  0  0  0  0  0  0  0  0  0
   10.3393   -7.8099    0.0000 N   0  0  0  0  0  0  0  0  0  0  0  0
   12.7236   -6.0909    0.0000 O   0  0  0  0  0  0  0  0  0  0  0  0
   11.1759   -4.1666    0.0000 C   0  0  0  0  0  0  0  0  0  0  0  0
    4.7341   -4.0788    0.0000 C   0  0  0  0  0  0  0  0  0  0  0  0
    8.0806   -6.8228    0.0000 C   0  0  0  0  0  0  0  0  0  0  0  0
    8.1056   -7.6469    0.0000 C   0  0  0  0  0  0  0  0  0  0  0  0
    4.5710   -5.5051    0.0000 C   0  0  0  0  0  0  0  0  0  0  0  0
    5.8803   -6.2539    0.0000 N   0  0  0  0  0  0  0  0  0  0  0  0
   10.2765   -6.4672    0.0000 C   0  0  0  0  0  0  0  0  0  0  0  0
   10.6237   -8.5755    0.0000 C   0  0  0  0  0  0  0  0  0  0  0  0
    8.7916   -5.5804    0.0000 H   0  0  0  0  0  0  0  0  0  0  0  0
   12.9370   -7.5088    0.0000 O   0  0  0  0  0  0  0  0  0  0  0  0
   12.1756   -5.3546    0.0000 C   0  0  0  0  0  0  0  0  0  0  0  0
   13.2339   -6.7391    0.0000 C   0  0  0  0  0  0  0  0  0  0  0  0
    7.3651   -3.9449    0.0000 N   0  0  0  0  0  0  0  0  0  0  0  0
    8.7916   -4.7691    0.0000 C   0  0  0  0  0  0  0  0  0  0  0  0
   11.1508   -6.2790    0.0000 H   0  0  0  0  0  0  0  0  0  0  0  0
    7.3651   -6.4171    0.0000 C   0  0  0  0  0  0  0  0  0  0  0  0
    4.2447   -4.7565    0.0000 C   0  0  0  0  0  0  0  0  0  0  0  0
    8.0806   -6.0029    0.0000 C   0  0  0  0  0  0  0  0  0  0  0  0
    6.6666   -6.0029    0.0000 C   0  0  0  0  0  0  0  0  0  0  0  0
   12.6483   -8.9101    0.0000 C   0  0  0  0  0  0  0  0  0  0  0  0
    5.3950   -5.5930    0.0000 C   0  0  0  0  0  0  0  0  0  0  0  0
    7.4405   -8.9101    0.0000 C   0  0  0  0  0  0  0  0  0  0  0  0
    5.9806   -6.7601    0.0000 O   0  0  0  0  0  0  0  0  0  0  0  0
    5.8803   -4.9153    0.0000 C   0  0  0  0  0  0  0  0  0  0  0  0
   11.6863   -4.8192    0.0000 C   0  0  0  0  0  0  0  0  0  0  0  0
   12.3848   -4.5557    0.0000 C   0  0  0  0  0  0  0  0  0  0  0  0
    6.6666   -5.1788    0.0000 C   0  0  0  0  0  0  0  0  0  0  0  0
    6.9804   -7.7849    0.0000 O   0  0  0  0  0  0  0  0  0  0  0  0
    9.5529   -7.5841    0.0000 C   0  0  0  0  0  0  0  0  0  0  0  0
   11.2763   -7.6385    0.0000 H   0  0  0  0  0  0  0  0  0  0  0  0
    5.3950   -7.3373    0.0000 C   0  0  0  0  0  0  0  0  0  0  0  0
   11.3893   -5.5804    0.0000 C   0  0  0  0  0  0  0  0  0  0  0  0
    9.5112   -2.7039    0.0000 C   0  0  0  0  0  0  0  0  0  0  0  0
    5.5330   -4.1666    0.0000 C   0  0  0  0  0  0  0  0  0  0  0  0
   10.5777   -5.6935    0.0000 C   0  0  0  0  0  0  0  0  0  0  0  0
    9.3019   -5.4047    0.0000 C   0  0  0  0  0  0  0  0  0  0  0  0
    9.5097   -3.5321    0.0000 C   0  0  0  0  0  0  0  0  0  0  0  0
    8.8418   -8.0358    0.0000 C   0  0  0  0  0  0  0  0  0  0  0  0
   11.5984   -6.9902    0.0000 C   0  0  0  0  0  0  0  0  0  0  0  0
   14.0455   -6.6095    0.0000 C   0  0  0  0  0  0  0  0  0  0  0  0
    8.7665   -6.3794    0.0000 C   0  0  0  0  0  0  0  0  0  0  0  0
    9.5027   -6.7601    0.0000 C   0  0  0  0  0  0  0  0  0  0  0  0
   11.8995   -6.2163    0.0000 C   0  0  0  0  0  0  0  0  0  0  0  0
    9.4525   -6.2163    0.0000 C   0  0  0  0  0  0  0  0  0  0  0  0
   11.7364   -7.8016    0.0000 C   0  0  0  0  0  0  0  0  0  0  0  0
    5.9430   -3.9449    0.0000 C   0  0  0  0  0  0  0  0  0  0  0  0
   12.4099   -6.8479    0.0000 O   0  0  0  0  0  0  0  0  0  0  0  0
   11.1020   -8.3290    0.0000 O   0  0  0  0  0  0  0  0  0  0  0  0
  1  2  1  0
  2  3  1  0
  3  4  1  0
  1  5  1  0
  1  6  2  0
  4  7  1  0
  4  8  2  0
  2  9  1  0
  3 10  1  0
 11 12  1  0
 12 13  1  0
 13 14  1  0
 11 15  1  0
 11 16  2  0
 14 17  1  0
 14 18  2  0
 12 19  1  0
 13 20  1  0
 63 55  1  0
 71 79  1  1
 31 61  1  0
 30 67  1  0
 24 45  1  0
 27 50  1  0
 42 44  2  0
 26 30  1  0
 38 51  1  0
 44 32  1  0
 75 71  1  0
 27 41  1  6
 58 43  1  0
 53 56  1  0
 67 39  1  0
 68 76  1  0
 55 21  1  0
 37 53  2  0
 49 34  2  0
 39 76  1  1
 40 31  1  0
 28 27  1  0
 71 22  1  0
 23 69  1  0
 64 67  1  0
 57 64  1  0
 74 73  2  0
 60 21  2  0
 77 71  1  0
 69 65  1  0
 46 27  1  0
 56 59  1  0
 75 64  1  0
 39 74  1  0
 59 51  2  0
 33 57  2  0
 22 31  1  0
 22 39  1  0
 68 30  1  0
 45 28  1  0
 66 56  2  0
 61 74  1  0
 22 62  1  1
 49 37  1  0
 64 43  1  6
 48 21  1  1
 34 66  1  0
 25 77  1  0
 52 25  1  0
 73 35  1  0
 23 46  2  0
 67 47  1  6
 33 26  1  0
 35 48  1  0
 75 32  1  1
 53 38  1  0
 24 23  1  0
 70 36  1  0
 78 59  1  0
 54 29  1  0
 61 70  2  0
 36 35  2  0
 29 36  1  0
 50 48  1  0
 72 44  1  0
 51 48  1  0
 78 45  1  0
 77 80  2  0
M  END
> <chembl_id>
CHEMBL538943

> <chembl_pref_name>
VINORELBINE TARTRATE
