
     RDKit          2D

 45 48  0  0  0  0  0  0  0  0999 V2000
   -2.3737   -0.1109    0.0000 C   0  0  0  0  0  0  0  0  0  0  0  0
   -2.3875    0.5918    0.0000 C   0  0  0  0  0  0  0  0  0  0  0  0
   -1.7379   -0.4996    0.0000 C   0  0  0  0  0  0  0  0  0  0  0  0
   -2.9984   -0.4996    0.0000 C   0  0  0  0  0  0  0  0  0  0  0  0
   -1.7945    0.9445    0.0000 C   0  0  0  0  0  0  0  0  0  0  0  0
   -3.0336    0.9266    0.0000 C   0  0  0  0  0  0  0  0  0  0  0  0
   -1.7379   -1.2126    0.0000 C   0  0  0  0  0  0  0  0  0  0  0  0
   -1.1167   -0.2138    0.0000 C   0  0  0  0  0  0  0  0  0  0  0  0
   -2.9984   -1.2126    0.0000 C   0  0  0  0  0  0  0  0  0  0  0  0
   -3.6376   -0.1109    0.0000 C   0  0  0  0  0  0  0  0  0  0  0  0
   -1.7945    1.6542    0.0000 C   0  0  0  0  0  0  0  0  0  0  0  0
   -3.0336    1.6542    0.0000 C   0  0  0  0  0  0  0  0  0  0  0  0
   -2.3668   -1.6013    0.0000 N   0  0  0  0  0  0  0  0  0  0  0  0
   -1.1380   -1.5730    0.0000 C   0  0  0  0  0  0  0  0  0  0  0  0
   -0.4775   -0.5314    0.0000 O   0  0  0  0  0  0  0  0  0  0  0  0
   -1.1167    0.5352    0.0000 O   0  0  0  0  0  0  0  0  0  0  0  0
   -3.6376   -1.5730    0.0000 C   0  0  0  0  0  0  0  0  0  0  0  0
   -4.2624   -0.4609    0.0000 O   0  0  0  0  0  0  0  0  0  0  0  0
   -3.6376    0.5559    0.0000 O   0  0  0  0  0  0  0  0  0  0  0  0
   -2.3875    2.0600    0.0000 C   0  0  0  0  0  0  0  0  0  0  0  0
    0.1542   -0.2138    0.0000 C   0  0  0  0  0  0  0  0  0  0  0  0
   -4.8947   -0.1109    0.0000 C   0  0  0  0  0  0  0  0  0  0  0  0
    0.7120   -0.5314    0.0000 C   0  0  0  0  0  0  0  0  0  0  0  0
   -0.1461    0.3654    0.0000 C   0  0  0  0  0  0  0  0  0  0  0  0
    0.3806    0.3654    0.0000 C   0  0  0  0  0  0  0  0  0  0  0  0
    1.3263   -0.2138    0.0000 N   0  0  0  0  0  0  0  0  0  0  0  0
    1.9621   -0.5665    0.0000 C   0  0  0  0  0  0  0  0  0  0  0  0
    1.3263    0.5559    0.0000 C   0  0  0  0  0  0  0  0  0  0  0  0
    2.6013   -0.2138    0.0000 C   0  0  0  0  0  0  0  0  0  0  0  0
    3.2225   -0.5314    0.0000 C   0  0  0  0  0  0  0  0  0  0  0  0
    3.2081   -1.2126    0.0000 C   0  0  0  0  0  0  0  0  0  0  0  0
    3.8121   -0.2276    0.0000 C   0  0  0  0  0  0  0  0  0  0  0  0
    2.6013   -1.5585    0.0000 C   0  0  0  0  0  0  0  0  0  0  0  0
    3.8121   -1.5413    0.0000 C   0  0  0  0  0  0  0  0  0  0  0  0
    3.8121    0.4958    0.0000 C   0  0  0  0  0  0  0  0  0  0  0  0
    4.4762   -0.5665    0.0000 C   0  0  0  0  0  0  0  0  0  0  0  0
    2.6013   -2.2647    0.0000 C   0  0  0  0  0  0  0  0  0  0  0  0
    3.8121   -2.2543    0.0000 C   0  0  0  0  0  0  0  0  0  0  0  0
    4.4513    0.8458    0.0000 C   0  0  0  0  0  0  0  0  0  0  0  0
    5.0581   -0.2276    0.0000 C   0  0  0  0  0  0  0  0  0  0  0  0
    3.2329   -2.6388    0.0000 C   0  0  0  0  0  0  0  0  0  0  0  0
    5.0581    0.5207    0.0000 C   0  0  0  0  0  0  0  0  0  0  0  0
   -1.1733    2.0145    0.0000 N   0  0  0  0  0  0  0  0  0  0  0  0
   -1.1484    2.7207    0.0000 O   0  0  0  0  0  0  0  0  0  0  0  0
   -0.4988    1.7211    0.0000 O   0  0  0  0  0  0  0  0  0  0  0  0
  1  4  1  0
  2  5  1  0
  2  6  2  0
  3  7  2  0
  3  8  1  0
  4  9  2  0
  4 10  1  0
  5 11  2  0
  6 12  1  0
  7 13  1  0
  7 14  1  0
  8 15  1  0
  8 16  2  0
  9 17  1  0
 10 18  1  0
 10 19  2  0
 11 20  1  0
 11 43  1  0
 15 21  1  0
 18 22  1  0
 21 23  1  0
 21 24  1  0
 21 25  1  0
 23 26  1  0
 26 27  1  0
 26 28  1  0
 27 29  1  0
 29 30  1  0
 30 31  1  0
 30 32  1  0
 31 33  1  0
 31 34  2  0
 32 35  2  0
 32 36  1  0
 33 37  2  0
 34 38  1  0
 35 39  1  0
 36 40  2  0
 37 41  1  0
 39 42  2  0
  9 13  1  0
 12 20  2  0
 38 41  2  0
 40 42  1  0
  1  2  1  0
  1  3  1  0
 43 44  2  0
 43 45  1  0
M  CHG  2  43   1  45  -1
M  END
> <chembl_id>
CHEMBL250270

> <chembl_pref_name>
LERCANIDIPINE
