
     RDKit          2D

 35 35  0  0  0  0  0  0  0  0999 V2000
    5.8339   -9.9589    0.0000 Na  0  0  0  0  0 15  0  0  0  0  0  0
   11.3841   -6.8938    0.0000 N   0  0  0  0  0  0  0  0  0  0  0  0
   10.6966   -5.6311    0.0000 N   0  0  0  0  0  0  0  0  0  0  0  0
    9.9507   -6.8597    0.0000 C   0  0  0  0  0  0  0  0  0  0  0  0
    9.9604   -6.0406    0.0000 C   0  0  0  0  0  0  0  0  0  0  0  0
   10.6528   -7.2887    0.0000 C   0  0  0  0  0  0  0  0  0  0  0  0
   11.3938   -6.0455    0.0000 C   0  0  0  0  0  0  0  0  0  0  0  0
    9.2291   -7.2546    0.0000 N   0  0  0  0  0  0  0  0  0  0  0  0
    4.2026   -8.4003    0.0000 C   0  0  0  0  0  0  0  0  0  0  0  0
    9.2633   -5.6164    0.0000 N   0  0  0  0  0  0  0  0  0  0  0  0
    3.4957   -7.9713    0.0000 N   0  0  0  0  0  0  0  0  0  0  0  0
    8.5270   -6.8304    0.0000 C   0  0  0  0  0  0  0  0  0  0  0  0
    2.7546   -9.1901    0.0000 C   0  0  0  0  0  0  0  0  0  0  0  0
    7.0840   -6.8061    0.0000 N   0  0  0  0  0  0  0  0  0  0  0  0
    2.7693   -8.3711    0.0000 C   0  0  0  0  0  0  0  0  0  0  0  0
    0.6338   -7.9127    0.0000 C   0  0  0  0  0  0  0  0  0  0  0  0
    4.9290   -7.9908    0.0000 C   0  0  0  0  0  0  0  0  0  0  0  0
    7.7957   -7.2399    0.0000 C   0  0  0  0  0  0  0  0  0  0  0  0
    6.3527   -7.2156    0.0000 C   0  0  0  0  0  0  0  0  0  0  0  0
    4.1880   -9.2145    0.0000 O   0  0  0  0  0  0  0  0  0  0  0  0
   -0.2584   -8.3515    0.0000 O   0  0  0  0  0  0  0  0  0  0  0  0
    3.4567   -9.6143    0.0000 O   0  0  0  0  0  0  0  0  0  0  0  0
    8.5270   -6.0016    0.0000 C   0  0  0  0  0  0  0  0  0  0  0  0
    0.6485   -7.0840    0.0000 O   0  0  0  0  0  0  0  0  0  0  0  0
   10.6528   -8.1078    0.0000 N   0  0  0  0  0  0  0  0  0  0  0  0
    5.6311   -8.4100    0.0000 C   0  0  0  0  0  0  0  0  0  0  0  0
    4.9290   -7.1814    0.0000 C   0  0  0  0  0  0  0  0  0  0  0  0
    6.3527   -8.0200    0.0000 C   0  0  0  0  0  0  0  0  0  0  0  0
    5.6652   -6.7768    0.0000 C   0  0  0  0  0  0  0  0  0  0  0  0
   12.1251   -5.6506    0.0000 N   0  0  0  0  0  0  0  0  0  0  0  0
    2.0672   -7.9323    0.0000 C   0  0  0  0  0  0  0  0  0  0  0  0
    1.3456   -8.3369    0.0000 C   0  0  0  0  0  0  0  0  0  0  0  0
    2.0379   -9.5948    0.0000 O   0  0  0  0  0  0  0  0  0  0  0  0
    7.0986   -5.9724    0.0000 C   0  0  0  0  0  0  0  0  0  0  0  0
   -1.2529   -8.3711    0.0000 Na  0  0  0  0  0 15  0  0  0  0  0  0
  3  7  1  0
  4  6  2  0
  5  3  2  0
  6  2  1  0
  7  2  2  0
  8  4  1  0
  9 17  1  0
 10  5  1  0
 11  9  1  0
 12  8  2  0
 15 13  1  6
 14 18  1  0
 15 11  1  0
 16 32  1  0
 17 27  1  0
 18 12  1  0
 19 14  1  0
 20  9  2  0
 21 16  1  0
 22 13  2  0
 23 10  2  0
 24 16  2  0
 25  6  1  0
 26 28  1  0
 27 29  2  0
 28 19  2  0
 29 19  1  0
 30  7  1  0
 31 15  1  0
 32 31  1  0
 33 13  1  0
 34 14  1  0
  5  4  1  0
 23 12  1  0
 17 26  2  0
M  CHG  4   1   1  21  -1  33  -1  35   1
M  END
> <chembl_id>
CHEMBL3244648

> <chembl_pref_name>
METHOTREXATE SODIUM
