
     RDKit          2D

 37 40  0  0  0  0  0  0  0  0999 V2000
   13.3292   -3.3458    0.0000 Na  0  0  0  0  0 15  0  0  0  0  0  0
   11.0125   -2.0208    0.0000 N   0  0  0  0  0  0  0  0  0  0  0  0
   11.0125   -1.3125    0.0000 C   0  0  0  0  0  0  0  0  0  0  0  0
   10.3000   -2.0250    0.0000 C   0  0  0  0  0  0  0  0  0  0  0  0
   10.3000   -1.3125    0.0000 C   0  0  0  0  0  0  0  0  0  0  0  0
   11.6875   -2.2375    0.0000 C   0  0  0  0  0  0  0  0  0  0  0  0
   11.6833   -1.0917    0.0000 S   0  0  0  0  0  0  0  0  0  0  0  0
   12.1042   -1.6625    0.0000 C   0  0  0  0  0  0  0  0  0  0  0  0
    9.0667   -1.3125    0.0000 C   0  0  0  0  0  0  0  0  0  0  0  0
    9.6792   -0.9542    0.0000 N   0  0  0  0  0  0  0  0  0  0  0  0
    7.8417   -1.3125    0.0000 C   0  0  0  0  0  0  0  0  0  0  0  0
    8.4542   -0.9583    0.0000 C   0  0  0  0  0  0  0  0  0  0  0  0
   11.6792   -2.9417    0.0000 C   0  0  0  0  0  0  0  0  0  0  0  0
    7.2292   -0.9583    0.0000 O   0  0  0  0  0  0  0  0  0  0  0  0
    9.8000   -2.5250    0.0000 O   0  0  0  0  0  0  0  0  0  0  0  0
    5.3917   -1.3167    0.0000 C   0  0  0  0  0  0  0  0  0  0  0  0
    9.0667   -2.0208    0.0000 O   0  0  0  0  0  0  0  0  0  0  0  0
    7.8417   -2.0208    0.0000 O   0  0  0  0  0  0  0  0  0  0  0  0
    6.6125   -1.3125    0.0000 C   0  0  0  0  0  0  0  0  0  0  0  0
   12.2917   -3.3042    0.0000 O   0  0  0  0  0  0  0  0  0  0  0  0
    6.0042   -0.9583    0.0000 C   0  0  0  0  0  0  0  0  0  0  0  0
    8.4542   -0.2500    0.0000 C   0  0  0  0  0  0  0  0  0  0  0  0
    5.3917   -2.0250    0.0000 C   0  0  0  0  0  0  0  0  0  0  0  0
   11.0625   -3.2917    0.0000 O   0  0  0  0  0  0  0  0  0  0  0  0
    6.0042   -2.3792    0.0000 C   0  0  0  0  0  0  0  0  0  0  0  0
    6.6167   -2.0250    0.0000 C   0  0  0  0  0  0  0  0  0  0  0  0
   12.7167   -1.3042    0.0000 C   0  0  0  0  0  0  0  0  0  0  0  0
   12.7167   -2.0167    0.0000 C   0  0  0  0  0  0  0  0  0  0  0  0
    4.7167   -1.0958    0.0000 C   0  0  0  0  0  0  0  0  0  0  0  0
    4.3000   -1.6667    0.0000 C   0  0  0  0  0  0  0  0  0  0  0  0
    4.7167   -2.2417    0.0000 C   0  0  0  0  0  0  0  0  0  0  0  0
    9.0708    0.1042    0.0000 C   0  0  0  0  0  0  0  0  0  0  0  0
    7.8458    0.1000    0.0000 C   0  0  0  0  0  0  0  0  0  0  0  0
    7.8417    0.8083    0.0000 C   0  0  0  0  0  0  0  0  0  0  0  0
    9.0708    0.8125    0.0000 C   0  0  0  0  0  0  0  0  0  0  0  0
    8.4583    1.1667    0.0000 C   0  0  0  0  0  0  0  0  0  0  0  0
   11.0042   -0.6042    0.0000 H   0  0  0  0  0  0  0  0  0  0  0  0
  3  2  1  0
  4  2  1  0
  5  4  1  0
  6  2  1  0
  7  3  1  0
  8  6  1  0
  9 10  1  0
  5 10  1  1
 11 12  1  0
 12  9  1  0
  6 13  1  6
 14 11  1  0
 15  4  2  0
 16 21  1  0
 17  9  2  0
 18 11  2  0
 19 14  1  0
 20 13  1  0
 21 19  2  0
 22 12  1  0
 23 16  2  0
 24 13  2  0
 25 26  2  0
 26 19  1  0
 27  8  1  0
 28  8  1  0
 29 16  1  0
 30 29  1  0
 31 23  1  0
 32 22  2  0
 33 22  1  0
 34 33  2  0
 35 32  1  0
 36 34  1  0
  3 37  1  6
  5  3  1  0
  7  8  1  0
 36 35  2  0
 25 23  1  0
 31 30  1  0
M  CHG  2   1   1  20  -1
M  END
> <chembl_id>
CHEMBL1200991

> <chembl_pref_name>
CARBENICILLIN INDANYL SODIUM
