
     RDKit          2D

 24 22  0  0  0  0  0  0  0  0999 V2000
    6.6964  -23.2768    0.0000 N   0  0  0  0  0  0  0  0  0  0  0  0
    7.4109  -22.8643    0.0000 C   0  0  0  0  0  0  0  0  0  0  0  0
    8.1254  -23.2768    0.0000 C   0  0  0  0  0  0  0  0  0  0  0  0
    8.8398  -22.8643    0.0000 O   0  0  0  0  0  0  0  0  0  0  0  0
    1.2770  -22.8375    0.0000 C   0  0  0  0  0  0  0  0  0  0  0  0
    0.5625  -22.4250    0.0000 C   0  0  0  0  0  0  0  0  0  0  0  0
   -0.1520  -22.8375    0.0000 C   0  0  0  0  0  0  0  0  0  0  0  0
   -0.1520  -23.6625    0.0000 C   0  0  0  0  0  0  0  0  0  0  0  0
    0.5625  -24.0750    0.0000 C   0  0  0  0  0  0  0  0  0  0  0  0
    1.2770  -23.6625    0.0000 C   0  0  0  0  0  0  0  0  0  0  0  0
    1.9915  -22.4250    0.0000 C   0  0  0  0  0  0  0  0  0  0  0  0
    2.7059  -22.8375    0.0000 C   0  0  0  0  0  0  0  0  0  0  0  0
    2.7059  -23.6625    0.0000 C   0  0  0  0  0  0  0  0  0  0  0  0
    1.9915  -24.0750    0.0000 C   0  0  0  0  0  0  0  0  0  0  0  0
    3.4204  -22.4250    0.0000 C   0  0  0  0  0  0  0  0  0  0  0  0
    4.1349  -22.8375    0.0000 C   0  0  0  0  0  0  0  0  0  0  0  0
    4.1349  -23.6625    0.0000 C   0  0  0  0  0  0  0  0  0  0  0  0
    3.4204  -24.0750    0.0000 C   0  0  0  0  0  0  0  0  0  0  0  0
    4.8494  -22.4249    0.0000 C   0  0  0  0  0  0  0  0  0  0  0  0
    5.5639  -23.6624    0.0000 C   0  0  0  0  0  0  0  0  0  0  0  0
    4.8494  -24.0749    0.0000 C   0  0  0  0  0  0  0  0  0  0  0  0
    4.8494  -21.5999    0.0000 C   0  0  0  0  0  0  0  0  0  0  0  0
    5.5639  -21.1874    0.0000 O   0  0  0  0  0  0  0  0  0  0  0  0
    4.1349  -21.1874    0.0000 O   0  0  0  0  0  0  0  0  0  0  0  0
  1  2  1  0
  2  3  1  0
  3  4  1  0
  5  6  1  0
  6  7  1  0
  7  8  2  0
  8  9  1  0
  9 10  1  0
 14 10  1  0
  5 11  1  0
 11 12  1  0
 13 14  1  0
 12 15  1  0
 18 13  1  0
 15 16  1  0
 17 18  1  0
 16 19  1  0
 21 17  1  0
 20 21  1  0
 19 22  1  0
 22 23  1  0
 22 24  2  0
M  END
> <chembl_id>
CHEMBL3989529

> <chembl_pref_name>
ETHANOLAMINE OLEATE
