
     RDKit          2D

 29 31  0  0  0  0  0  0  0  0999 V2000
    1.3651    0.5848    0.0000 C   0  0  0  0  0  0  0  0  0  0  0  0
    0.7817    1.1682    0.0000 O   0  0  0  0  0  0  0  0  0  0  0  0
    2.1901    0.5848    0.0000 N   0  0  0  0  0  0  0  0  0  0  0  0
    2.1901   -0.2402    0.0000 C   0  0  0  0  0  0  0  0  0  0  0  0
    2.9046   -0.6527    0.0000 S   0  0  0  0  0  0  0  0  0  0  0  0
    3.6190   -0.2402    0.0000 C   0  0  0  0  0  0  0  0  0  0  0  0
    3.6190    0.5848    0.0000 C   0  0  0  0  0  0  0  0  0  0  0  0
    2.9046    0.9973    0.0000 C   0  0  0  0  0  0  0  0  0  0  0  0
    4.3335    0.9973    0.0000 C   0  0  0  0  0  0  0  0  0  0  0  0
    2.9046    1.8223    0.0000 C   0  0  0  0  0  0  0  0  0  0  0  0
    3.6190    2.2348    0.0000 O   0  0  0  0  0  0  0  0  0  0  0  0
    2.1901    2.2348    0.0000 O   0  0  0  0  0  0  0  0  0  0  0  0
    1.3651   -0.2402    0.0000 C   0  0  0  0  0  0  0  0  0  0  0  0
    0.5629   -0.4328    0.0000 O   0  0  0  0  0  0  0  0  0  0  0  0
   -0.0050    0.1656    0.0000 C   0  0  0  0  0  0  0  0  0  0  0  0
    1.1725   -1.0424    0.0000 N   0  0  0  0  0  0  0  0  0  0  0  0
    0.3815   -1.2767    0.0000 C   0  0  0  0  0  0  0  0  0  0  0  0
   -0.2169   -0.7088    0.0000 O   0  0  0  0  0  0  0  0  0  0  0  0
    0.1889   -2.0789    0.0000 C   0  0  0  0  0  0  0  0  0  0  0  0
   -0.6021   -2.3132    0.0000 C   0  0  0  0  0  0  0  0  0  0  0  0
   -0.8775   -3.0909    0.0000 S   0  0  0  0  0  0  0  0  0  0  0  0
   -1.7022   -3.0693    0.0000 C   0  0  0  0  0  0  0  0  0  0  0  0
   -1.9366   -2.2783    0.0000 C   0  0  0  0  0  0  0  0  0  0  0  0
   -1.2567   -1.8110    0.0000 C   0  0  0  0  0  0  0  0  0  0  0  0
    4.3335    1.8223    0.0000 O   0  0  0  0  0  0  0  0  0  0  0  0
    5.0480    2.2348    0.0000 C   0  0  0  0  0  0  0  0  0  0  0  0
    5.0480    3.0598    0.0000 O   0  0  0  0  0  0  0  0  0  0  0  0
    5.7625    1.8223    0.0000 N   0  0  0  0  0  0  0  0  0  0  0  0
    1.9313   -1.2061    0.0000 H   0  0  0  0  0  0  0  0  0  0  0  0
  1  2  2  0
  1  3  1  0
 13  1  1  0
  4  3  1  0
  8  3  1  0
  4  5  1  0
  4 13  1  0
  6  5  1  0
  7  6  1  0
  7  8  2  0
  7  9  1  0
  8 10  1  0
  9 25  1  0
 10 11  2  0
 10 12  1  0
 13 14  1  1
 13 16  1  0
 15 14  1  0
 17 16  1  0
 17 18  2  0
 17 19  1  0
 19 20  1  0
 20 21  1  0
 20 24  2  0
 22 21  1  0
 22 23  2  0
 23 24  1  0
 26 25  1  0
 26 27  2  0
 26 28  1  0
  4 29  1  1
M  END
> <chembl_id>
CHEMBL996

> <chembl_pref_name>
CEFOXITIN
