
     RDKit          2D

 30 33  0  0  1  0  0  0  0  0999 V2000
    9.5500   -7.3792    0.0000 C   0  0  0  0  0  0  0  0  0  0  0  0
   11.4083   -6.3292    0.0000 C   0  0  0  0  0  0  0  0  0  0  0  0
   10.1667   -7.0292    0.0000 C   0  0  0  0  0  0  0  0  0  0  0  0
   11.4000   -7.0375    0.0000 C   0  0  0  0  0  0  0  0  0  0  0  0
   10.7833   -7.3875    0.0000 C   0  0  0  0  0  0  0  0  0  0  0  0
    8.9375   -7.0292    0.0000 C   0  0  0  0  0  0  0  0  0  0  0  0
    9.5500   -8.0917    0.0000 C   0  0  0  0  0  0  0  0  0  0  0  0
   12.0875   -6.1125    0.0000 C   0  0  0  0  0  0  0  0  0  0  0  0
    8.3250   -8.0917    0.0000 C   0  0  0  0  0  0  0  0  0  0  0  0
   10.7917   -5.9625    0.0000 C   0  0  0  0  0  0  0  0  0  0  0  0
   10.1708   -6.3167    0.0000 C   0  0  0  0  0  0  0  0  0  0  0  0
    8.9375   -8.4542    0.0000 C   0  0  0  0  0  0  0  0  0  0  0  0
   12.0750   -7.2667    0.0000 C   0  0  0  0  0  0  0  0  0  0  0  0
    8.3250   -7.3792    0.0000 C   0  0  0  0  0  0  0  0  0  0  0  0
   10.7792   -8.1000    0.0000 C   0  0  0  0  0  0  0  0  0  0  0  0
   12.0792   -5.4000    0.0000 O   0  0  0  0  0  0  0  0  0  0  0  0
   12.6958   -5.0375    0.0000 C   0  0  0  0  0  0  0  0  0  0  0  0
   10.1625   -8.4542    0.0000 C   0  0  0  0  0  0  0  0  0  0  0  0
   12.5000   -6.6917    0.0000 C   0  0  0  0  0  0  0  0  0  0  0  0
    7.7042   -8.4500    0.0000 O   0  0  0  0  0  0  0  0  0  0  0  0
   12.6917   -4.3250    0.0000 O   0  0  0  0  0  0  0  0  0  0  0  0
    9.5417   -6.6667    0.0000 C   0  0  0  0  0  0  0  0  0  0  0  0
   11.4042   -5.6167    0.0000 C   0  0  0  0  0  0  0  0  0  0  0  0
   13.3167   -5.3875    0.0000 C   0  0  0  0  0  0  0  0  0  0  0  0
    7.7042   -7.0292    0.0000 C   0  0  0  0  0  0  0  0  0  0  0  0
   13.9333   -5.0292    0.0000 C   0  0  0  0  0  0  0  0  0  0  0  0
   10.1625   -7.7417    0.0000 H   0  0  0  0  0  0  0  0  0  0  0  0
   10.7792   -6.6750    0.0000 H   0  0  0  0  0  0  0  0  0  0  0  0
   11.3917   -7.7500    0.0000 H   0  0  0  0  0  0  0  0  0  0  0  0
    9.5417   -8.8042    0.0000 H   0  0  0  0  0  0  0  0  0  0  0  0
  2 10  1  0
  3  1  1  0
  4  5  1  0
  5  3  1  0
  6  1  1  0
  7  1  1  0
  8  2  1  0
  9 12  1  0
 10 11  1  0
 11  3  1  0
 12  7  1  0
 13  4  1  0
 14  6  1  0
 15 18  1  0
  8 16  1  1
 17 16  1  0
 18  7  1  0
 19 13  1  0
 20  9  2  0
 21 17  2  0
  1 22  1  1
  2 23  1  1
 24 17  1  0
 14 25  1  6
 26 24  1  0
  3 27  1  6
  5 28  1  1
  4 29  1  6
  7 30  1  6
  9 14  1  0
  5 15  1  0
  4  2  1  0
  8 19  1  0
M  END
> <chembl_id>
CHEMBL1201048

> <chembl_pref_name>
DROMOSTANOLONE PROPIONATE
