
     RDKit          2D

107112  0  0  0  0  0  0  0  0999 V2000
   35.6813  -13.2884    0.0000 N   0  0  0  0  0  0  0  0  0  0  0  0
   36.3957  -12.8759    0.0000 C   0  0  0  0  0  0  0  0  0  0  0  0
   37.1102  -13.2884    0.0000 C   0  0  0  0  0  0  0  0  0  0  0  0
   37.8247  -12.8759    0.0000 N   0  0  0  0  0  0  0  0  0  0  0  0
   37.1102  -14.1134    0.0000 O   0  0  0  0  0  0  0  0  0  0  0  0
   36.3663  -10.8429    0.0000 C   0  0  0  0  0  0  0  0  0  0  0  0
   38.0825   -9.1339    0.0000 S   0  0  0  0  0  0  0  0  0  0  0  0
   38.5391  -13.2884    0.0000 C   0  0  0  0  0  0  0  0  0  0  0  0
   39.2536  -12.8759    0.0000 C   0  0  0  0  0  0  0  0  0  0  0  0
   39.9681  -13.2884    0.0000 N   0  0  0  0  0  0  0  0  0  0  0  0
   39.2536  -12.0509    0.0000 O   0  0  0  0  0  0  0  0  0  0  0  0
   38.5391  -14.1134    0.0000 C   0  0  0  0  0  0  0  0  0  0  0  0
   39.2536  -14.5259    0.0000 S   0  0  0  0  0  0  0  0  0  0  0  0
   40.6825  -12.8759    0.0000 C   0  0  0  0  0  0  0  0  0  0  0  0
   41.3970  -13.2884    0.0000 C   0  0  0  0  0  0  0  0  0  0  0  0
   40.6825  -12.0509    0.0000 C   0  0  0  0  0  0  0  0  0  0  0  0
   41.3970  -11.6384    0.0000 C   0  0  0  0  0  0  0  0  0  0  0  0
   41.3970  -10.8134    0.0000 C   0  0  0  0  0  0  0  0  0  0  0  0
   42.1115  -10.4009    0.0000 O   0  0  0  0  0  0  0  0  0  0  0  0
   40.6825  -10.4009    0.0000 O   0  0  0  0  0  0  0  0  0  0  0  0
   42.1115  -12.8759    0.0000 N   0  0  0  0  0  0  0  0  0  0  0  0
   41.3970  -14.1134    0.0000 O   0  0  0  0  0  0  0  0  0  0  0  0
   42.8260  -13.2884    0.0000 C   0  0  0  0  0  0  0  0  0  0  0  0
   43.5404  -12.8759    0.0000 C   0  0  0  0  0  0  0  0  0  0  0  0
   44.2549  -13.2884    0.0000 N   0  0  0  0  0  0  0  0  0  0  0  0
   43.5404  -12.0509    0.0000 O   0  0  0  0  0  0  0  0  0  0  0  0
   42.8260  -14.1134    0.0000 C   0  0  0  0  0  0  0  0  0  0  0  0
   43.5404  -14.5259    0.0000 C   0  0  0  0  0  0  0  0  0  0  0  0
   44.9694  -12.8759    0.0000 C   0  0  0  0  0  0  0  0  0  0  0  0
   45.6838  -13.2884    0.0000 C   0  0  0  0  0  0  0  0  0  0  0  0
   46.3983  -12.8759    0.0000 N   0  0  0  0  0  0  0  0  0  0  0  0
   45.6838  -14.1134    0.0000 O   0  0  0  0  0  0  0  0  0  0  0  0
   44.9908  -12.0830    0.0000 C   0  0  0  0  0  0  0  0  0  0  0  0
   46.0401  -11.4616    0.0000 S   0  0  0  0  0  0  0  0  0  0  0  0
   47.1128  -13.2884    0.0000 C   0  0  0  0  0  0  0  0  0  0  0  0
   47.8273  -12.8759    0.0000 C   0  0  0  0  0  0  0  0  0  0  0  0
   48.5417  -13.2884    0.0000 N   0  0  0  0  0  0  0  0  0  0  0  0
   47.8273  -12.0509    0.0000 O   0  0  0  0  0  0  0  0  0  0  0  0
   49.2562  -12.8759    0.0000 C   0  0  0  0  0  0  0  0  0  0  0  0
   49.9707  -13.2884    0.0000 C   0  0  0  0  0  0  0  0  0  0  0  0
   49.9707  -14.1134    0.0000 O   0  0  0  0  0  0  0  0  0  0  0  0
   49.2562  -12.0509    0.0000 C   0  0  0  0  0  0  0  0  0  0  0  0
   49.9707  -11.6384    0.0000 C   0  0  0  0  0  0  0  0  0  0  0  0
   49.9707  -10.8134    0.0000 N   0  0  0  0  0  0  0  0  0  0  0  0
   50.6851  -12.0509    0.0000 O   0  0  0  0  0  0  0  0  0  0  0  0
   37.5511  -19.2646    0.0000 N   0  0  0  0  0  0  0  0  0  0  0  0
   38.8404  -19.0472    0.0000 C   0  0  0  0  0  0  0  0  0  0  0  0
   39.6106  -18.7515    0.0000 C   0  0  0  0  0  0  0  0  0  0  0  0
   38.7114  -19.8620    0.0000 C   0  0  0  0  0  0  0  0  0  0  0  0
   40.2518  -19.2707    0.0000 N   0  0  0  0  0  0  0  0  0  0  0  0
   39.7397  -17.9367    0.0000 O   0  0  0  0  0  0  0  0  0  0  0  0
   41.0220  -18.9751    0.0000 C   0  0  0  0  0  0  0  0  0  0  0  0
   41.6631  -19.4943    0.0000 C   0  0  0  0  0  0  0  0  0  0  0  0
   42.4333  -19.1986    0.0000 N   0  0  0  0  0  0  0  0  0  0  0  0
   41.5341  -20.3091    0.0000 O   0  0  0  0  0  0  0  0  0  0  0  0
   41.1511  -18.1602    0.0000 C   0  0  0  0  0  0  0  0  0  0  0  0
   41.9213  -17.8646    0.0000 S   0  0  0  0  0  0  0  0  0  0  0  0
   43.0745  -19.7178    0.0000 C   0  0  0  0  0  0  0  0  0  0  0  0
   43.8447  -19.4222    0.0000 C   0  0  0  0  0  0  0  0  0  0  0  0
   44.4858  -19.9413    0.0000 N   0  0  0  0  0  0  0  0  0  0  0  0
   43.9737  -18.6073    0.0000 O   0  0  0  0  0  0  0  0  0  0  0  0
   42.9454  -20.5327    0.0000 C   0  0  0  0  0  0  0  0  0  0  0  0
   43.5866  -21.0518    0.0000 C   0  0  0  0  0  0  0  0  0  0  0  0
   42.1752  -20.8283    0.0000 O   0  0  0  0  0  0  0  0  0  0  0  0
   45.2560  -19.6457    0.0000 C   0  0  0  0  0  0  0  0  0  0  0  0
   45.8972  -20.1649    0.0000 C   0  0  0  0  0  0  0  0  0  0  0  0
   46.6674  -19.8692    0.0000 N   0  0  0  0  0  0  0  0  0  0  0  0
   45.7681  -20.9797    0.0000 O   0  0  0  0  0  0  0  0  0  0  0  0
   47.3085  -20.3884    0.0000 C   0  0  0  0  0  0  0  0  0  0  0  0
   48.0787  -20.0928    0.0000 C   0  0  0  0  0  0  0  0  0  0  0  0
   48.7199  -20.6120    0.0000 N   0  0  0  0  0  0  0  0  0  0  0  0
   48.2078  -19.2779    0.0000 O   0  0  0  0  0  0  0  0  0  0  0  0
   49.4901  -20.3163    0.0000 C   0  0  0  0  0  0  0  0  0  0  0  0
   50.1312  -20.8355    0.0000 C   0  0  0  0  0  0  0  0  0  0  0  0
   49.6191  -19.5015    0.0000 C   0  0  0  0  0  0  0  0  0  0  0  0
   50.9014  -20.5398    0.0000 O   0  0  0  0  0  0  0  0  0  0  0  0
   50.0022  -21.6503    0.0000 O   0  0  0  0  0  0  0  0  0  0  0  0
   50.3893  -19.2058    0.0000 C   0  0  0  0  0  0  0  0  0  0  0  0
   50.6851  -12.8759    0.0000 N   0  0  0  0  0  0  0  0  0  0  0  0
   51.1112  -13.9853    0.0000 C   0  0  0  0  0  0  0  0  0  0  0  0
   51.9547  -13.2884    0.0000 C   0  0  0  0  0  0  0  0  0  0  0  0
   51.9547  -12.4634    0.0000 C   0  0  0  0  0  0  0  0  0  0  0  0
   51.1701  -12.2085    0.0000 C   0  0  0  0  0  0  0  0  0  0  0  0
   37.8089  -18.4985    0.0000 C   0  0  0  0  0  0  0  0  0  0  0  0
   37.1944  -18.2978    0.0000 O   0  0  0  0  0  0  0  0  0  0  0  0
   43.9529  -15.2404    0.0000 C   0  0  0  0  0  0  0  0  0  0  0  0
   42.7154  -14.5259    0.0000 C   0  0  0  0  0  0  0  0  0  0  0  0
   42.3029  -15.2404    0.0000 C   0  0  0  0  0  0  0  0  0  0  0  0
   42.7154  -15.9549    0.0000 C   0  0  0  0  0  0  0  0  0  0  0  0
   43.5404  -15.9549    0.0000 C   0  0  0  0  0  0  0  0  0  0  0  0
   42.3029  -16.6694    0.0000 O   0  0  0  0  0  0  0  0  0  0  0  0
   51.0305  -19.7250    0.0000 C   0  0  0  0  0  0  0  0  0  0  0  0
   51.8007  -19.4294    0.0000 C   0  0  0  0  0  0  0  0  0  0  0  0
   51.9298  -18.6145    0.0000 C   0  0  0  0  0  0  0  0  0  0  0  0
   51.2886  -18.0953    0.0000 C   0  0  0  0  0  0  0  0  0  0  0  0
   50.5184  -18.3909    0.0000 C   0  0  0  0  0  0  0  0  0  0  0  0
   52.7000  -18.3188    0.0000 O   0  0  0  0  0  0  0  0  0  0  0  0
   51.4545  -14.9334    0.0000 H   0  0  0  0  0  0  0  0  0  0  0  0
   42.1409  -20.0762    0.0000 H   0  0  0  0  0  0  0  0  0  0  0  0
   41.9556  -18.6168    0.0000 H   0  0  0  0  0  0  0  0  0  0  0  0
   47.9343  -14.0830    0.0000 H   0  0  0  0  0  0  0  0  0  0  0  0
   44.9694  -13.8759    0.0000 H   0  0  0  0  0  0  0  0  0  0  0  0
   39.4051  -13.7884    0.0000 H   0  0  0  0  0  0  0  0  0  0  0  0
   47.1128  -11.4723    0.0000 C   0  0  0  0  0  0  0  0  0  0  0  0
   44.6573  -10.0955    0.0000 S   0  0  0  0  0  0  0  0  0  0  0  0
   47.5220  -19.5915    0.0000 C   0  0  0  0  0  0  0  0  0  0  0  0
   46.7345  -18.7699    0.0000 S   0  0  0  0  0  0  0  0  0  0  0  0
  2  1  1  1
  2  3  1  0
  3  4  1  0
  3  5  2  0
  2  6  1  0
  6  7  1  0
  4  8  1  0
  8  9  1  0
  9 10  1  0
  9 11  2  0
  8 12  1  0
 12 13  1  0
 14 10  1  0
 14 15  1  0
 14 16  1  1
 16 17  1  0
 17 18  1  0
 18 19  1  0
 18 20  2  0
 15 21  1  0
 15 22  2  0
 23 21  1  0
 23 24  1  0
 24 25  1  0
 24 26  2  0
 23 27  1  6
 27 28  1  0
 29 25  1  0
 29 30  1  0
 30 31  1  0
 30 32  2  0
 29 33  1  0
 33 34  1  0
 35 31  1  0
 35 36  1  0
 36 37  1  0
 36 38  2  0
 39 37  1  0
 39 40  1  0
 40 41  2  0
 39 42  1  1
 42 43  1  0
 43 44  1  0
 43 45  2  0
 47 46  1  0
 47 48  1  0
 47 49  1  6
 48 50  1  0
 48 51  2  0
 52 50  1  0
 52 53  1  0
 53 54  1  0
 53 55  2  0
 52 56  1  0
 56 57  1  0
 58 54  1  0
 58 59  1  0
 59 60  1  0
 59 61  2  0
 58 62  1  0
 62 63  1  1
 62 64  1  0
 65 60  1  0
 65 66  1  0
 66 67  1  0
 66 68  2  0
 69 67  1  0
 69 70  1  1
 70 71  1  0
 70 72  2  0
 73 71  1  1
 73 74  1  0
 73 75  1  0
 74 76  1  0
 74 77  2  0
 75 78  1  0
 57 13  1  0
 40 79  1  0
 80 79  1  0
 79 83  1  0
 80 81  1  0
 81 82  1  0
 82 83  1  0
 46 84  1  0
 84 80  1  0
 84 85  2  0
 86 28  2  0
 28 87  1  0
 86 90  1  0
 87 88  2  0
 88 89  1  0
 89 90  2  0
 89 91  1  0
 78 92  1  0
 78 96  2  0
 92 93  2  0
 93 94  1  0
 94 95  2  0
 95 96  1  0
 94 97  1  0
 80 98  1  6
 58 99  1  1
 52100  1  6
 35101  1  6
 29102  1  6
  8103  1  1
 35104  1  0
104105  1  0
  7105  1  0
 69106  1  0
106107  1  0
 34107  1  0
M  END
> <chembl_id>
CHEMBL3301675

> <chembl_pref_name>
LINACLOTIDE
