
     RDKit          2D

 25 25  0  0  0  0  0  0  0  0999 V2000
   10.4414  -11.5333    0.0000 O   0  0  0  0  0  0  0  0  0  0  0  0
    9.7270   -9.4708    0.0000 O   0  0  0  0  0  0  0  0  0  0  0  0
    8.2980  -10.2958    0.0000 O   0  0  0  0  0  0  0  0  0  0  0  0
    9.0125  -11.5333    0.0000 O   0  0  0  0  0  0  0  0  0  0  0  0
   11.8704  -10.7083    0.0000 O   0  0  0  0  0  0  0  0  0  0  0  0
   11.1559   -9.4708    0.0000 O   0  0  0  0  0  0  0  0  0  0  0  0
    9.0125  -10.7083    0.0000 C   0  0  0  0  0  0  0  0  0  0  0  0
    9.7270  -10.2958    0.0000 C   0  0  0  0  0  0  0  0  0  0  0  0
   10.4414  -10.7083    0.0000 C   0  0  0  0  0  0  0  0  0  0  0  0
   11.1559  -10.2958    0.0000 C   0  0  0  0  0  0  0  0  0  0  0  0
    4.1638   -9.2577    0.0000 C   0  0  0  0  0  0  0  0  0  0  0  0
    4.7471   -9.8412    0.0000 C   0  0  0  0  0  0  0  0  0  0  0  0
    4.5336  -10.6381    0.0000 C   0  0  0  0  0  0  0  0  0  0  0  0
    5.1170  -11.2214    0.0000 O   0  0  0  0  0  0  0  0  0  0  0  0
    5.9139  -11.0079    0.0000 C   0  0  0  0  0  0  0  0  0  0  0  0
    6.1274  -10.2110    0.0000 C   0  0  0  0  0  0  0  0  0  0  0  0
    5.5440   -9.6277    0.0000 N   0  0  0  0  0  0  0  0  0  0  0  0
    5.7576   -8.8308    0.0000 C   0  0  0  0  0  0  0  0  0  0  0  0
    3.7367  -10.8515    0.0000 C   0  0  0  0  0  0  0  0  0  0  0  0
    3.1534  -10.2681    0.0000 C   0  0  0  0  0  0  0  0  0  0  0  0
    2.3565  -10.4817    0.0000 C   0  0  0  0  0  0  0  0  0  0  0  0
    2.1429  -11.2785    0.0000 C   0  0  0  0  0  0  0  0  0  0  0  0
    2.7262  -11.8619    0.0000 C   0  0  0  0  0  0  0  0  0  0  0  0
    3.5231  -11.6484    0.0000 C   0  0  0  0  0  0  0  0  0  0  0  0
    3.8191  -10.2255    0.0000 H   0  0  0  0  0  0  0  0  0  0  0  0
  7  3  2  0
  8  2  1  0
  9  1  1  0
  7  4  1  0
  9 10  1  0
  8  9  1  0
 10  6  1  0
  7  8  1  0
 10  5  2  0
 12 11  1  6
 12 13  1  0
 13 14  1  0
 14 15  1  0
 15 16  1  0
 16 17  1  0
 12 17  1  0
 17 18  1  0
 13 19  1  0
 19 20  2  0
 20 21  1  0
 21 22  2  0
 22 23  1  0
 23 24  2  0
 19 24  1  0
 13 25  1  6
M  END
> <chembl_id>
CHEMBL2062163

> <chembl_pref_name>
PHENDIMETRAZINE TARTRATE
