
     RDKit          2D

 92 98  0  0  1  0  0  0  0  0999 V2000
   15.3214   -8.3679    0.0000 N   0  0  0  0  0  0  0  0  0  0  0  0
   16.0359   -7.9554    0.0000 C   0  0  0  0  0  0  0  0  0  0  0  0
   16.7504   -8.3679    0.0000 C   0  0  0  0  0  0  0  0  0  0  0  0
   17.4648   -7.9554    0.0000 N   0  0  0  0  0  0  0  0  0  0  0  0
   18.1793   -8.3679    0.0000 C   0  0  0  0  0  0  0  0  0  0  0  0
   18.8938   -7.9554    0.0000 C   0  0  0  0  0  0  0  0  0  0  0  0
   19.6083   -8.3679    0.0000 N   0  0  0  0  0  0  0  0  0  0  0  0
   16.0359   -7.1304    0.0000 C   0  0  0  0  0  0  0  0  0  0  0  0
   15.3214   -6.7179    0.0000 C   0  0  0  0  0  0  0  0  0  0  0  0
   15.3214   -5.8929    0.0000 C   0  0  0  0  0  0  0  0  0  0  0  0
   14.6070   -5.4804    0.0000 N   0  0  0  0  0  0  0  0  0  0  0  0
   14.6070   -4.6554    0.0000 C   0  0  0  0  0  0  0  0  0  0  0  0
   13.8925   -4.2429    0.0000 N   0  0  0  0  0  0  0  0  0  0  0  0
   15.3214   -4.2429    0.0000 N   0  0  0  0  0  0  0  0  0  0  0  0
   16.7504   -9.1929    0.0000 O   0  0  0  0  0  0  0  0  0  0  0  0
   18.1793   -9.1929    0.0000 C   0  0  0  0  0  0  0  0  0  0  0  0
   17.4648   -9.6054    0.0000 C   0  0  0  0  0  0  0  0  0  0  0  0
   17.4648  -10.4304    0.0000 C   0  0  0  0  0  0  0  0  0  0  0  0
   16.7504  -10.8429    0.0000 N   0  0  0  0  0  0  0  0  0  0  0  0
   16.7504  -11.6679    0.0000 C   0  0  0  0  0  0  0  0  0  0  0  0
   16.0359  -12.0804    0.0000 N   0  0  0  0  0  0  0  0  0  0  0  0
   17.4648  -12.0804    0.0000 N   0  0  0  0  0  0  0  0  0  0  0  0
   18.8938   -7.1304    0.0000 O   0  0  0  0  0  0  0  0  0  0  0  0
   19.6945   -9.1883    0.0000 C   0  0  0  0  0  0  0  0  0  0  0  0
   20.5014   -9.3599    0.0000 C   0  0  0  0  0  0  0  0  0  0  0  0
   20.9139   -8.6454    0.0000 C   0  0  0  0  0  0  0  0  0  0  0  0
   20.3619   -8.0323    0.0000 C   0  0  0  0  0  0  0  0  0  0  0  0
   20.5335   -7.2253    0.0000 C   0  0  0  0  0  0  0  0  0  0  0  0
   19.9204   -6.6733    0.0000 O   0  0  0  0  0  0  0  0  0  0  0  0
   21.3181   -6.9704    0.0000 N   0  0  0  0  0  0  0  0  0  0  0  0
   21.9855   -7.4553    0.0000 C   0  0  0  0  0  0  0  0  0  0  0  0
   22.6530   -6.9704    0.0000 C   0  0  0  0  0  0  0  0  0  0  0  0
   22.3980   -6.1858    0.0000 C   0  0  0  0  0  0  0  0  0  0  0  0
   21.5731   -6.1858    0.0000 C   0  0  0  0  0  0  0  0  0  0  0  0
   22.8829   -5.5184    0.0000 O   0  0  0  0  0  0  0  0  0  0  0  0
   21.9855   -8.2803    0.0000 C   0  0  0  0  0  0  0  0  0  0  0  0
   22.7000   -8.6928    0.0000 N   0  0  0  0  0  0  0  0  0  0  0  0
   21.2711   -8.6928    0.0000 O   0  0  0  0  0  0  0  0  0  0  0  0
   23.4145   -8.2803    0.0000 C   0  0  0  0  0  0  0  0  0  0  0  0
   24.1290   -8.6928    0.0000 C   0  0  0  0  0  0  0  0  0  0  0  0
   24.8434   -8.2803    0.0000 N   0  0  0  0  0  0  0  0  0  0  0  0
   24.1290   -9.5178    0.0000 O   0  0  0  0  0  0  0  0  0  0  0  0
   25.5579   -8.6928    0.0000 C   0  0  0  0  0  0  0  0  0  0  0  0
   26.2724   -8.2803    0.0000 C   0  0  0  0  0  0  0  0  0  0  0  0
   26.9868   -8.6928    0.0000 N   0  0  0  0  0  0  0  0  0  0  0  0
   26.2724   -7.4553    0.0000 O   0  0  0  0  0  0  0  0  0  0  0  0
   25.5579   -9.5178    0.0000 C   0  0  0  0  0  0  0  0  0  0  0  0
   24.9745  -10.1012    0.0000 C   0  0  0  0  0  0  0  0  0  0  0  0
   24.1597   -9.9722    0.0000 C   0  0  0  0  0  0  0  0  0  0  0  0
   23.7852  -10.7072    0.0000 C   0  0  0  0  0  0  0  0  0  0  0  0
   24.3685  -11.2906    0.0000 C   0  0  0  0  0  0  0  0  0  0  0  0
   25.1036  -10.9160    0.0000 S   0  0  0  0  0  0  0  0  0  0  0  0
   27.7013   -8.2803    0.0000 C   0  0  0  0  0  0  0  0  0  0  0  0
   28.4158   -8.6928    0.0000 C   0  0  0  0  0  0  0  0  0  0  0  0
   27.7013   -7.4553    0.0000 C   0  0  0  0  0  0  0  0  0  0  0  0
   26.9868   -7.0428    0.0000 O   0  0  0  0  0  0  0  0  0  0  0  0
   29.1303   -8.2803    0.0000 N   0  0  0  0  0  0  0  0  0  0  0  0
   28.4158   -9.5178    0.0000 O   0  0  0  0  0  0  0  0  0  0  0  0
   29.8447   -8.6928    0.0000 C   0  0  0  0  0  0  0  0  0  0  0  0
   30.5592   -8.2803    0.0000 C   0  0  0  0  0  0  0  0  0  0  0  0
   30.5592   -7.4553    0.0000 C   0  0  0  0  0  0  0  0  0  0  0  0
   29.8447   -7.0428    0.0000 C   0  0  0  0  0  0  0  0  0  0  0  0
   29.1303   -7.4553    0.0000 C   0  0  0  0  0  0  0  0  0  0  0  0
   29.8447   -6.2178    0.0000 C   0  0  0  0  0  0  0  0  0  0  0  0
   30.5592   -5.8053    0.0000 C   0  0  0  0  0  0  0  0  0  0  0  0
   31.2737   -6.2178    0.0000 C   0  0  0  0  0  0  0  0  0  0  0  0
   31.2737   -7.0428    0.0000 C   0  0  0  0  0  0  0  0  0  0  0  0
   29.8447   -9.5178    0.0000 C   0  0  0  0  0  0  0  0  0  0  0  0
   30.5592   -9.9303    0.0000 N   0  0  0  0  0  0  0  0  0  0  0  0
   29.1303   -9.9303    0.0000 O   0  0  0  0  0  0  0  0  0  0  0  0
   30.6455  -10.7508    0.0000 C   0  0  0  0  0  0  0  0  0  0  0  0
   31.4524  -10.9223    0.0000 C   0  0  0  0  0  0  0  0  0  0  0  0
   31.8649  -10.2078    0.0000 C   0  0  0  0  0  0  0  0  0  0  0  0
   31.3129   -9.5948    0.0000 C   0  0  0  0  0  0  0  0  0  0  0  0
   30.0934  -11.3639    0.0000 C   0  0  0  0  0  0  0  0  0  0  0  0
   30.3483  -12.1485    0.0000 C   0  0  0  0  0  0  0  0  0  0  0  0
   31.1553  -12.3200    0.0000 C   0  0  0  0  0  0  0  0  0  0  0  0
   31.7074  -11.7069    0.0000 C   0  0  0  0  0  0  0  0  0  0  0  0
   31.5264   -8.7979    0.0000 C   0  0  0  0  0  0  0  0  0  0  0  0
   30.9430   -8.2145    0.0000 O   0  0  0  0  0  0  0  0  0  0  0  0
   32.3233   -8.5844    0.0000 N   0  0  0  0  0  0  0  0  0  0  0  0
   33.0378   -8.9969    0.0000 C   0  0  0  0  0  0  0  0  0  0  0  0
   33.7522   -8.5844    0.0000 C   0  0  0  0  0  0  0  0  0  0  0  0
   34.4667   -8.9969    0.0000 O   0  0  0  0  0  0  0  0  0  0  0  0
   33.7522   -7.7594    0.0000 O   0  0  0  0  0  0  0  0  0  0  0  0
   33.0378   -9.8219    0.0000 C   0  0  0  0  0  0  0  0  0  0  0  0
   33.7522  -10.2344    0.0000 C   0  0  0  0  0  0  0  0  0  0  0  0
   33.7522  -11.0594    0.0000 C   0  0  0  0  0  0  0  0  0  0  0  0
   34.4667  -11.4719    0.0000 N   0  0  0  0  0  0  0  0  0  0  0  0
   34.4667  -12.2969    0.0000 C   0  0  0  0  0  0  0  0  0  0  0  0
   35.1812  -12.7094    0.0000 N   0  0  0  0  0  0  0  0  0  0  0  0
   33.7522  -12.7094    0.0000 N   0  0  0  0  0  0  0  0  0  0  0  0
  1  2  1  0
  2  3  1  0
  3  4  1  0
  4  5  1  0
  5  6  1  0
  6  7  1  0
  2  8  1  6
  8  9  1  0
  9 10  1  0
 10 11  1  0
 11 12  1  0
 12 13  1  0
 12 14  2  0
  3 15  2  0
  5 16  1  6
 16 17  1  0
 17 18  1  0
 18 19  1  0
 19 20  1  0
 20 21  1  0
 20 22  2  0
  6 23  2  0
  7 24  1  0
  7 27  1  0
 24 25  1  0
 25 26  1  0
 27 26  1  6
 27 28  1  0
 28 29  2  0
 28 30  1  0
 30 31  1  0
 30 34  1  0
 31 32  1  1
 32 33  1  0
 33 34  1  0
 33 35  1  6
 31 36  1  0
 36 37  1  0
 36 38  2  0
 37 39  1  0
 39 40  1  0
 40 41  1  0
 40 42  2  0
 41 43  1  0
 43 44  1  0
 44 45  1  0
 44 46  2  0
 43 47  1  6
 47 48  1  0
 48 49  2  0
 48 52  1  0
 49 50  1  0
 50 51  2  0
 51 52  1  0
 45 53  1  0
 53 54  1  0
 53 55  1  1
 55 56  1  0
 54 57  1  0
 54 58  2  0
 57 59  1  0
 63 57  1  0
 59 60  1  6
 60 61  1  0
 62 63  1  0
 67 61  1  0
 61 62  2  0
 62 64  1  0
 64 65  2  0
 65 66  1  0
 66 67  2  0
 59 68  1  0
 68 69  1  0
 68 70  2  0
 69 71  1  0
 69 74  1  0
 72 73  1  6
 74 73  1  6
 71 75  1  6
 72 71  1  0
 78 72  1  0
 75 76  1  0
 76 77  1  0
 77 78  1  0
 74 79  1  0
 79 80  2  0
 79 81  1  0
 81 82  1  0
 82 83  1  0
 83 84  1  0
 83 85  2  0
 82 86  1  6
 86 87  1  0
 87 88  1  0
 88 89  1  0
 89 90  1  0
 90 91  2  0
 90 92  1  0
M  END
> <chembl_id>
CHEMBL2028850

> <chembl_pref_name>
ICATIBANT
