
     RDKit          2D

 14 14  0  0  0  0  0  0  0  0999 V2000
    1.2417   -0.3417    0.0000 C   0  0  0  0  0  0  0  0  0  0  0  0
    0.0000   -1.0542    0.0000 C   0  0  0  0  0  0  0  0  0  0  0  0
    1.2417    1.0833    0.0000 N   0  0  0  0  0  0  0  0  0  0  0  0
    2.4792   -1.0542    0.0000 O   0  0  0  0  0  0  0  0  0  0  0  0
   -1.2458   -0.3417    0.0000 C   0  0  0  0  0  0  0  0  0  0  0  0
   -2.4750   -1.0542    0.0000 C   0  0  0  0  0  0  0  0  0  0  0  0
    0.0042   -2.4875    0.0000 C   0  0  0  0  0  0  0  0  0  0  0  0
   -1.2250   -3.2167    0.0000 C   0  0  0  0  0  0  0  0  0  0  0  0
    0.0000    1.8000    0.0000 C   0  0  0  0  0  0  0  0  0  0  0  0
    2.4792    1.8000    0.0000 C   0  0  0  0  0  0  0  0  0  0  0  0
   -2.4750   -2.4917    0.0000 C   0  0  0  0  0  0  0  0  0  0  0  0
   -3.7250   -0.3417    0.0000 C   0  0  0  0  0  0  0  0  0  0  0  0
    0.0000    3.2208    0.0000 C   0  0  0  0  0  0  0  0  0  0  0  0
    3.7167    1.0958    0.0000 C   0  0  0  0  0  0  0  0  0  0  0  0
  2  1  1  0
  3  1  1  0
  4  1  2  0
  5  2  2  0
  6  5  1  0
  7  2  1  0
  8  7  2  0
  9  3  1  0
 10  3  1  0
 11  8  1  0
 12  6  1  0
 13  9  1  0
 14 10  1  0
  6 11  2  0
M  END
> <chembl_id>
CHEMBL1453317

> <chembl_pref_name>
DIETHYLTOLUAMIDE
