
     RDKit          2D

 10 10  0  0  1  0  0  0  0  0999 V2000
    0.5625    1.3583    0.0000 C   0  0  0  0  0  0  0  0  0  0  0  0
    3.0417    1.3625    0.0000 N   0  0  0  0  0  0  0  0  0  0  0  0
   -0.6708    0.6333    0.0000 C   0  0  0  0  0  0  0  0  0  0  0  0
    1.8042    0.6458    0.0000 C   0  0  0  0  0  0  0  0  0  0  0  0
   -1.9125    1.3458    0.0000 C   0  0  0  0  0  0  0  0  0  0  0  0
   -0.6708   -0.8042    0.0000 C   0  0  0  0  0  0  0  0  0  0  0  0
    1.8125   -0.7875    0.0000 C   0  0  0  0  0  0  0  0  0  0  0  0
   -3.1458    0.6250    0.0000 C   0  0  0  0  0  0  0  0  0  0  0  0
   -1.9083   -1.5250    0.0000 C   0  0  0  0  0  0  0  0  0  0  0  0
   -3.1500   -0.8042    0.0000 C   0  0  0  0  0  0  0  0  0  0  0  0
  4  2  1  1
  3  1  1  0
  4  1  1  0
  5  3  2  0
  6  3  1  0
  7  4  1  0
  8  5  1  0
  9  6  2  0
 10  9  1  0
  8 10  2  0
M  END
> <chembl_id>
CHEMBL612

> <chembl_pref_name>
DEXTROAMPHETAMINE
