
     RDKit          2D

 23 25  0  0  0  0  0  0  0  0999 V2000
  -16.3109   -1.6542    0.0000 N   0  0  0  0  0  0  0  0  0  0  0  0
  -16.7959   -2.3216    0.0000 C   0  0  0  0  0  0  0  0  0  0  0  0
  -16.3109   -2.9890    0.0000 C   0  0  0  0  0  0  0  0  0  0  0  0
  -15.5263   -2.7341    0.0000 C   0  0  0  0  0  0  0  0  0  0  0  0
  -15.5263   -1.9091    0.0000 C   0  0  0  0  0  0  0  0  0  0  0  0
  -14.0974   -1.9091    0.0000 C   0  0  0  0  0  0  0  0  0  0  0  0
  -14.8118   -1.4966    0.0000 N   0  0  0  0  0  0  0  0  0  0  0  0
  -14.8118   -3.1466    0.0000 C   0  0  0  0  0  0  0  0  0  0  0  0
  -14.0974   -2.7341    0.0000 N   0  0  0  0  0  0  0  0  0  0  0  0
  -16.2408   -5.6216    0.0000 C   0  0  0  0  0  0  0  0  0  0  0  0
  -15.5263   -5.2091    0.0000 C   0  0  0  0  0  0  0  0  0  0  0  0
  -15.5263   -4.3841    0.0000 C   0  0  0  0  0  0  0  0  0  0  0  0
  -16.2408   -3.9716    0.0000 C   0  0  0  0  0  0  0  0  0  0  0  0
  -16.9553   -4.3841    0.0000 N   0  0  0  0  0  0  0  0  0  0  0  0
  -16.9553   -5.2091    0.0000 C   0  0  0  0  0  0  0  0  0  0  0  0
  -14.8118   -3.9716    0.0000 N   0  0  0  0  0  0  0  0  0  0  0  0
  -14.8118   -5.6216    0.0000 C   0  0  0  0  0  0  0  0  0  0  0  0
  -17.6697   -3.9716    0.0000 C   0  0  0  0  0  0  0  0  0  0  0  0
  -17.6697   -3.1466    0.0000 O   0  0  0  0  0  0  0  0  0  0  0  0
  -18.3842   -4.3841    0.0000 C   0  0  0  0  0  0  0  0  0  0  0  0
  -19.0987   -3.9716    0.0000 C   0  0  0  0  0  0  0  0  0  0  0  0
  -14.0974   -4.3841    0.0000 C   0  0  0  0  0  0  0  0  0  0  0  0
  -19.8131   -3.5591    0.0000 N   0  0  0  0  0  0  0  0  0  0  0  0
  1  2  1  0
  1  5  1  0
  2  3  2  0
  3  4  1  0
  7  5  1  0
  5  4  2  0
  4  8  1  0
  6  7  2  0
  6  9  1  0
  8  9  2  0
 10 11  1  0
 10 15  1  0
 11 12  1  0
 12 13  1  0
 13 14  1  0
 14 15  1  0
  8 16  1  0
 12 16  1  6
 11 17  1  6
 14 18  1  0
 18 19  2  0
 18 20  1  0
 20 21  1  0
 16 22  1  0
 23 21  3  0
M  END
> <chembl_id>
CHEMBL221959

> <chembl_pref_name>
TOFACITINIB
