
     RDKit          2D

 11  6  0  0  0  0  0  0  0  0999 V2000
    4.3607   -8.8098    0.0000 O   0  0  0  0  0  0  0  0  0  0  0  0
   -0.6348   -6.6148    0.0000 C   0  0  0  0  0  0  0  0  0  0  0  0
   -0.2277   -5.9024    0.0000 O   0  0  0  0  0  0  0  0  0  0  0  0
   -1.4634   -6.6148    0.0000 O   0  0  0  0  0  0  0  0  0  0  0  0
   -0.2277   -7.3320    0.0000 C   0  0  0  0  0  0  0  0  0  0  0  0
    2.1516   -6.6148    0.0000 C   0  0  0  0  0  0  0  0  0  0  0  0
    1.7349   -5.9024    0.0000 O   0  0  0  0  0  0  0  0  0  0  0  0
    2.9706   -6.6148    0.0000 O   0  0  0  0  0  0  0  0  0  0  0  0
    1.7349   -7.3320    0.0000 C   0  0  0  0  0  0  0  0  0  0  0  0
    0.4652   -6.7214    0.0000 Zn  0  0  0  0  0 15  0  0  0  0  0  0
    2.4750   -9.1634    0.0000 O   0  0  0  0  0  0  0  0  0  0  0  0
  3  2  1  0
  4  2  2  0
  5  2  1  0
  7  6  1  0
  8  6  2  0
  9  6  1  0
M  CHG  3   3  -1   7  -1  10   2
M  END
> <chembl_id>
CHEMBL3184986

> <chembl_pref_name>
ZINC ACETATE
