
     RDKit          2D

 52 52  0  0  0  0  0  0  0  0999 V2000
    8.2067   -3.7614    0.0000 O   0  0  0  0  0  0  0  0  0  0  0  0
    0.0000    0.0000    0.0000 Mg  0  0  0  0  0 15  0  0  0  0  0  0
    1.1983   -3.0883    0.0000 C   0  0  0  0  0  0  0  0  0  0  0  0
    1.6765   -3.6678    0.0000 N   0  0  0  0  0  0  0  0  0  0  0  0
    1.6571   -2.3444    0.0000 N   0  0  0  0  0  0  0  0  0  0  0  0
    0.3869   -3.0883    0.0000 S   0  0  0  0  0  0  0  0  0  0  0  0
    2.4589   -2.6197    0.0000 C   0  0  0  0  0  0  0  0  0  0  0  0
   -1.0330   -3.0689    0.0000 C   0  0  0  0  0  0  0  0  0  0  0  0
   -1.7430   -2.6487    0.0000 C   0  0  0  0  0  0  0  0  0  0  0  0
   -0.3665   -2.6826    0.0000 C   0  0  0  0  0  0  0  0  0  0  0  0
    2.4589   -3.4505    0.0000 C   0  0  0  0  0  0  0  0  0  0  0  0
   -2.4385   -3.0689    0.0000 C   0  0  0  0  0  0  0  0  0  0  0  0
   -1.0330   -3.8852    0.0000 N   0  0  0  0  0  0  0  0  0  0  0  0
   -2.4385   -3.8852    0.0000 C   0  0  0  0  0  0  0  0  0  0  0  0
    3.1979   -2.1754    0.0000 C   0  0  0  0  0  0  0  0  0  0  0  0
    0.2420   -3.8803    0.0000 O   0  0  0  0  0  0  0  0  0  0  0  0
   -1.7430   -4.2909    0.0000 C   0  0  0  0  0  0  0  0  0  0  0  0
    3.1979   -3.8562    0.0000 C   0  0  0  0  0  0  0  0  0  0  0  0
    3.9030   -2.6197    0.0000 C   0  0  0  0  0  0  0  0  0  0  0  0
   -3.1533   -2.6487    0.0000 O   0  0  0  0  0  0  0  0  0  0  0  0
    3.9030   -3.4505    0.0000 C   0  0  0  0  0  0  0  0  0  0  0  0
   -1.7430   -1.7842    0.0000 C   0  0  0  0  0  0  0  0  0  0  0  0
    4.6178   -2.2189    0.0000 O   0  0  0  0  0  0  0  0  0  0  0  0
   -3.1533   -4.2909    0.0000 C   0  0  0  0  0  0  0  0  0  0  0  0
   -3.8874   -3.0689    0.0000 C   0  0  0  0  0  0  0  0  0  0  0  0
    5.3229   -2.6246    0.0000 C   0  0  0  0  0  0  0  0  0  0  0  0
    7.7409    0.7187    0.0000 C   0  0  0  0  0  0  0  0  0  0  0  0
    8.2191    0.1392    0.0000 N   0  0  0  0  0  0  0  0  0  0  0  0
    8.1997    1.4626    0.0000 N   0  0  0  0  0  0  0  0  0  0  0  0
    6.9295    0.7187    0.0000 S   0  0  0  0  0  0  0  0  0  0  0  0
    9.0015    1.1873    0.0000 C   0  0  0  0  0  0  0  0  0  0  0  0
    5.5096    0.7381    0.0000 C   0  0  0  0  0  0  0  0  0  0  0  0
    4.7996    1.1583    0.0000 C   0  0  0  0  0  0  0  0  0  0  0  0
    6.1761    1.1244    0.0000 C   0  0  0  0  0  0  0  0  0  0  0  0
    9.0015    0.3565    0.0000 C   0  0  0  0  0  0  0  0  0  0  0  0
    4.1041    0.7381    0.0000 C   0  0  0  0  0  0  0  0  0  0  0  0
    5.5096   -0.0782    0.0000 N   0  0  0  0  0  0  0  0  0  0  0  0
    4.1041   -0.0782    0.0000 C   0  0  0  0  0  0  0  0  0  0  0  0
    9.7405    1.6316    0.0000 C   0  0  0  0  0  0  0  0  0  0  0  0
    6.7846   -0.0733    0.0000 O   0  0  0  0  0  0  0  0  0  0  0  0
    4.7996   -0.4839    0.0000 C   0  0  0  0  0  0  0  0  0  0  0  0
    9.7405   -0.0492    0.0000 C   0  0  0  0  0  0  0  0  0  0  0  0
   10.4456    1.1873    0.0000 C   0  0  0  0  0  0  0  0  0  0  0  0
    3.3893    1.1583    0.0000 O   0  0  0  0  0  0  0  0  0  0  0  0
   10.4456    0.3565    0.0000 C   0  0  0  0  0  0  0  0  0  0  0  0
    4.7996    2.0228    0.0000 C   0  0  0  0  0  0  0  0  0  0  0  0
   11.1604    1.5881    0.0000 O   0  0  0  0  0  0  0  0  0  0  0  0
    3.3893   -0.4839    0.0000 C   0  0  0  0  0  0  0  0  0  0  0  0
    2.6552    0.7381    0.0000 C   0  0  0  0  0  0  0  0  0  0  0  0
   11.8655    1.1824    0.0000 C   0  0  0  0  0  0  0  0  0  0  0  0
    8.1839   -2.2340    0.0000 O   0  0  0  0  0  0  0  0  0  0  0  0
    8.1839   -3.0547    0.0000 O   0  0  0  0  0  0  0  0  0  0  0  0
  4  3  1  0
  5  3  2  0
  6  3  1  0
  7  5  1  0
  8 10  1  0
  9  8  1  0
 10  6  1  0
 11  4  1  0
 12  9  2  0
 13  8  2  0
 14 17  2  0
 15  7  2  0
  6 16  1  1
 17 13  1  0
 18 11  2  0
 19 15  1  0
 20 12  1  0
 21 18  1  0
 22  9  1  0
 23 19  1  0
 24 14  1  0
 25 20  1  0
 26 23  1  0
  7 11  1  0
 19 21  2  0
 12 14  1  0
 28 27  1  0
 29 27  2  0
 30 27  1  0
 31 29  1  0
 32 34  1  0
 33 32  1  0
 34 30  1  0
 35 28  1  0
 36 33  2  0
 37 32  2  0
 38 41  2  0
 39 31  2  0
 30 40  1  1
 41 37  1  0
 42 35  2  0
 43 39  1  0
 44 36  1  0
 45 42  1  0
 46 33  1  0
 47 43  1  0
 48 38  1  0
 49 44  1  0
 50 47  1  0
 31 35  1  0
 43 45  2  0
 36 38  1  0
M  CHG  5   2   2   6   1  16  -1  30   1  40  -1
M  END
> <chembl_id>
CHEMBL5314366

> <chembl_pref_name>
ESOMEPRAZOLE MAGNESIUM
