
     RDKit          2D

 34 34  0  0  0  0  0  0  0  0999 V2000
    3.3943    0.7674    0.0000 Cl  0  0  0  0  0  0  0  0  0  0  0  0
   -3.9939    1.0185    0.0000 C   0  0  0  0  0  0  0  0  0  0  0  0
   -4.4064    0.3040    0.0000 C   0  0  0  0  0  0  0  0  0  0  0  0
   -3.9939   -0.4105    0.0000 C   0  0  0  0  0  0  0  0  0  0  0  0
   -3.1689   -0.4105    0.0000 C   0  0  0  0  0  0  0  0  0  0  0  0
   -2.7564    0.3040    0.0000 C   0  0  0  0  0  0  0  0  0  0  0  0
   -3.1689    1.0185    0.0000 C   0  0  0  0  0  0  0  0  0  0  0  0
   -5.2314    0.3040    0.0000 N   0  0  0  0  0  0  0  0  0  0  0  0
   -5.6439   -0.4105    0.0000 C   0  0  0  0  0  0  0  0  0  0  0  0
   -6.4689   -0.4105    0.0000 C   0  0  0  0  0  0  0  0  0  0  0  0
   -6.8814   -1.1250    0.0000 Cl  0  0  0  0  0  0  0  0  0  0  0  0
   -5.6439    1.0185    0.0000 C   0  0  0  0  0  0  0  0  0  0  0  0
   -5.2314    1.7329    0.0000 C   0  0  0  0  0  0  0  0  0  0  0  0
   -5.6439    2.4474    0.0000 Cl  0  0  0  0  0  0  0  0  0  0  0  0
   -1.9314    0.3040    0.0000 C   0  0  0  0  0  0  0  0  0  0  0  0
   -1.5189   -0.4104    0.0000 C   0  0  0  0  0  0  0  0  0  0  0  0
   -1.9314   -1.1249    0.0000 N   0  0  0  0  0  0  0  0  0  0  0  0
   -0.6939   -0.4104    0.0000 C   0  0  0  0  0  0  0  0  0  0  0  0
   -0.2814    0.3041    0.0000 O   0  0  0  0  0  0  0  0  0  0  0  0
   -0.2814   -1.1249    0.0000 N   0  0  0  0  0  0  0  0  0  0  0  0
    0.5436   -1.1249    0.0000 C   0  0  0  0  0  0  0  0  0  0  0  0
    0.9561   -0.4104    0.0000 C   0  0  0  0  0  0  0  0  0  0  0  0
    1.7811   -0.4104    0.0000 O   0  0  0  0  0  0  0  0  0  0  0  0
    0.5436    0.3041    0.0000 O   0  0  0  0  0  0  0  0  0  0  0  0
    0.9561    1.0185    0.0000 C   0  0  0  0  0  0  0  0  0  0  0  0
    0.5436    1.7330    0.0000 C   0  0  0  0  0  0  0  0  0  0  0  0
    0.9561   -1.8393    0.0000 C   0  0  0  0  0  0  0  0  0  0  0  0
    1.7811   -1.8393    0.0000 C   0  0  0  0  0  0  0  0  0  0  0  0
    2.1936   -2.5538    0.0000 C   0  0  0  0  0  0  0  0  0  0  0  0
    3.0186   -2.5538    0.0000 C   0  0  0  0  0  0  0  0  0  0  0  0
    3.4311   -1.8393    0.0000 C   0  0  0  0  0  0  0  0  0  0  0  0
    3.0186   -1.1248    0.0000 C   0  0  0  0  0  0  0  0  0  0  0  0
    2.1936   -1.1249    0.0000 C   0  0  0  0  0  0  0  0  0  0  0  0
    4.2561   -1.8393    0.0000 F   0  0  0  0  0  0  0  0  0  0  0  0
  2  3  1  0
  3  4  2  0
  4  5  1  0
  5  6  2  0
  6  7  1  0
  2  7  2  0
  3  8  1  0
  8  9  1  0
  9 10  1  0
 10 11  1  0
  8 12  1  0
 12 13  1  0
 13 14  1  0
  6 15  1  0
 15 16  1  0
 16 17  1  1
 16 18  1  0
 18 19  2  0
 18 20  1  0
 20 21  1  0
 21 22  1  0
 22 23  2  0
 22 24  1  0
 24 25  1  0
 25 26  1  0
 21 27  1  6
 27 28  1  0
 29 30  2  0
 30 31  1  0
 31 32  2  0
 32 33  1  0
 28 29  1  0
 28 33  2  0
 31 34  1  0
M  END
> <chembl_id>
CHEMBL4297403

> <chembl_pref_name>
MELPHALAN FLUFENAMIDE HYDROCHLORIDE
