
     RDKit          2D

 16 18  0  0  0  0  0  0  0  0999 V2000
    5.1292   -4.2167    0.0000 C   0  0  0  0  0  0  0  0  0  0  0  0
    5.3292   -3.5292    0.0000 N   0  0  0  0  0  0  0  0  0  0  0  0
    4.5292   -5.2875    0.0000 C   0  0  0  0  0  0  0  0  0  0  0  0
    5.7042   -4.6167    0.0000 N   0  0  0  0  0  0  0  0  0  0  0  0
    3.9167   -5.6417    0.0000 C   0  0  0  0  0  0  0  0  0  0  0  0
    4.5125   -4.5792    0.0000 C   0  0  0  0  0  0  0  0  0  0  0  0
    3.9167   -6.3542    0.0000 C   0  0  0  0  0  0  0  0  0  0  0  0
    6.0542   -3.5167    0.0000 C   0  0  0  0  0  0  0  0  0  0  0  0
    5.1292   -5.6375    0.0000 C   0  0  0  0  0  0  0  0  0  0  0  0
    6.2750   -4.1917    0.0000 C   0  0  0  0  0  0  0  0  0  0  0  0
    5.1500   -6.3417    0.0000 C   0  0  0  0  0  0  0  0  0  0  0  0
    3.3000   -5.2917    0.0000 C   0  0  0  0  0  0  0  0  0  0  0  0
    4.5292   -6.7000    0.0000 C   0  0  0  0  0  0  0  0  0  0  0  0
    3.3000   -6.7167    0.0000 C   0  0  0  0  0  0  0  0  0  0  0  0
    2.6792   -5.6542    0.0000 C   0  0  0  0  0  0  0  0  0  0  0  0
    2.6792   -6.3750    0.0000 C   0  0  0  0  0  0  0  0  0  0  0  0
  2  1  2  0
  3  6  1  0
  4  1  1  0
  5  3  2  0
  6  1  1  0
  7  5  1  0
  8  2  1  0
  9  3  1  0
 10  4  1  0
 11  9  2  0
 12  5  1  0
 13 11  1  0
 14  7  1  0
 15 12  2  0
 16 15  1  0
  8 10  1  0
 13  7  2  0
 16 14  2  0
M  END
> <chembl_id>
CHEMBL761

> <chembl_pref_name>
NAPHAZOLINE
