
     RDKit          2D

 32 34  0  0  0  0  0  0  0  0999 V2000
   10.5706   -0.9894    0.0000 C   0  0  0  0  0  0  0  0  0  0  0  0
   10.1539   -1.7018    0.0000 C   0  0  0  0  0  0  0  0  0  0  0  0
   11.2829   -1.4059    0.0000 C   0  0  0  0  0  0  0  0  0  0  0  0
    7.6805    1.3914    0.0000 C   0  0  0  0  0  0  0  0  0  0  0  0
    7.6793    0.5642    0.0000 C   0  0  0  0  0  0  0  0  0  0  0  0
    8.3940    0.1514    0.0000 C   0  0  0  0  0  0  0  0  0  0  0  0
    9.1103    0.5647    0.0000 C   0  0  0  0  0  0  0  0  0  0  0  0
    9.1074    1.3950    0.0000 C   0  0  0  0  0  0  0  0  0  0  0  0
    8.3922    1.8041    0.0000 C   0  0  0  0  0  0  0  0  0  0  0  0
    6.9649    1.8095    0.0000 C   0  0  0  0  0  0  0  0  0  0  0  0
    6.2505    2.2217    0.0000 N   0  0  0  0  0  0  0  0  0  0  0  0
    6.9646    0.1524    0.0000 C   0  0  0  0  0  0  0  0  0  0  0  0
    6.2507    0.5653    0.0000 F   0  0  0  0  0  0  0  0  0  0  0  0
    6.9640   -0.6725    0.0000 F   0  0  0  0  0  0  0  0  0  0  0  0
    6.7518    0.9492    0.0000 F   0  0  0  0  0  0  0  0  0  0  0  0
    9.7778    0.0878    0.0000 N   0  0  0  0  0  0  0  0  0  0  0  0
    9.7851   -0.7371    0.0000 C   0  0  0  0  0  0  0  0  0  0  0  0
   11.0508   -0.3134    0.0000 N   0  0  0  0  0  0  0  0  0  0  0  0
   10.5601    0.3495    0.0000 C   0  0  0  0  0  0  0  0  0  0  0  0
    9.1221   -1.2278    0.0000 O   0  0  0  0  0  0  0  0  0  0  0  0
   10.8079    1.1362    0.0000 S   0  0  0  0  0  0  0  0  0  0  0  0
   11.8745   -0.3044    0.0000 C   0  0  0  0  0  0  0  0  0  0  0  0
   12.2945   -1.0167    0.0000 C   0  0  0  0  0  0  0  0  0  0  0  0
   13.1193   -1.0082    0.0000 C   0  0  0  0  0  0  0  0  0  0  0  0
   13.5253   -0.2882    0.0000 C   0  0  0  0  0  0  0  0  0  0  0  0
   13.1004    0.4246    0.0000 C   0  0  0  0  0  0  0  0  0  0  0  0
   12.2770    0.4127    0.0000 C   0  0  0  0  0  0  0  0  0  0  0  0
   14.3502   -0.2783    0.0000 C   0  0  0  0  0  0  0  0  0  0  0  0
   14.7540    0.4409    0.0000 O   0  0  0  0  0  0  0  0  0  0  0  0
   14.7711   -0.9876    0.0000 N   0  0  0  0  0  0  0  0  0  0  0  0
   14.3673   -1.7069    0.0000 C   0  0  0  0  0  0  0  0  0  0  0  0
   13.5027    1.1448    0.0000 F   0  0  0  0  0  0  0  0  0  0  0  0
 10 11  3  0
  4 10  1  0
 17  1  1  0
  1 18  1  0
 18 19  1  0
 19 16  1  0
  7 16  1  0
 17 20  2  0
  5 12  1  0
 19 21  2  0
 18 22  1  0
  7  8  1  0
 12 13  1  0
 22 23  2  0
  5  6  1  0
 23 24  1  0
 12 14  1  0
 24 25  2  0
  8  9  2  0
 25 26  1  0
 12 15  1  0
 26 27  2  0
 27 22  1  0
 16 17  1  0
  9  4  1  0
  1  2  1  0
 25 28  1  0
 28 29  2  0
  3  1  1  0
 28 30  1  0
  4  5  2  0
 30 31  1  0
  6  7  2  0
 26 32  1  0
M  END
> <chembl_id>
CHEMBL1082407

> <chembl_pref_name>
ENZALUTAMIDE
