
     RDKit          2D

 70 72  0  0  1  0  0  0  0  0999 V2000
    0.4167   -1.3792    0.0000 N   0  0  0  0  0  0  0  0  0  0  0  0
    0.3792    0.6708    0.0000 N   0  0  0  0  0  0  0  0  0  0  0  0
    0.0375    0.4625    0.0000 C   0  0  0  0  0  0  0  0  0  0  0  0
    0.7667   -1.1667    0.0000 C   0  0  0  0  0  0  0  0  0  0  0  0
   -0.6375   -1.1417    0.0000 N   0  0  0  0  0  0  0  0  0  0  0  0
    0.7542   -0.7417    0.0000 C   0  0  0  0  0  0  0  0  0  0  0  0
    0.0667   -1.1667    0.0000 C   0  0  0  0  0  0  0  0  0  0  0  0
    0.0375    0.0583    0.0000 C   0  0  0  0  0  0  0  0  0  0  0  0
    0.4000   -0.1417    0.0000 N   0  0  0  0  0  0  0  0  0  0  0  0
    1.1042   -0.5375    0.0000 N   0  0  0  0  0  0  0  0  0  0  0  0
   -1.0083   -1.3375    0.0000 C   0  0  0  0  0  0  0  0  0  0  0  0
    0.7500    0.0708    0.0000 C   0  0  0  0  0  0  0  0  0  0  0  0
    0.0375    1.3208    0.0000 C   0  0  0  0  0  0  0  0  0  0  0  0
   -0.2958   -1.3542    0.0000 C   0  0  0  0  0  0  0  0  0  0  0  0
    1.1042   -0.1292    0.0000 C   0  0  0  0  0  0  0  0  0  0  0  0
    0.3667    1.0833    0.0000 C   0  0  0  0  0  0  0  0  0  0  0  0
   -1.3250   -0.6917    0.0000 N   0  0  0  0  0  0  0  0  0  0  0  0
   -1.3458   -1.1042    0.0000 C   0  0  0  0  0  0  0  0  0  0  0  0
    0.0417    1.7250    0.0000 N   0  0  0  0  0  0  0  0  0  0  0  0
    1.4500    0.0833    0.0000 C   0  0  0  0  0  0  0  0  0  0  0  0
   -1.6625   -0.4792    0.0000 C   0  0  0  0  0  0  0  0  0  0  0  0
    0.4042    2.3375    0.0000 C   0  0  0  0  0  0  0  0  0  0  0  0
    1.8000   -0.1167    0.0000 C   0  0  0  0  0  0  0  0  0  0  0  0
    0.7542    2.5333    0.0000 N   0  0  0  0  0  0  0  0  0  0  0  0
   -0.5833    0.0000    0.0000 S   0  0  0  0  0  0  0  0  0  0  0  0
    0.4000    1.9250    0.0000 C   0  0  0  0  0  0  0  0  0  0  0  0
   -0.9375   -0.1375    0.0000 S   0  0  0  0  0  0  0  0  0  0  0  0
    1.1167    3.1458    0.0000 C   0  0  0  0  0  0  0  0  0  0  0  0
   -0.3208    0.6625    0.0000 O   0  0  0  0  0  0  0  0  0  0  0  0
    0.4000   -0.5417    0.0000 O   0  0  0  0  0  0  0  0  0  0  0  0
    0.0792   -0.7625    0.0000 O   0  0  0  0  0  0  0  0  0  0  0  0
   -0.3333    1.1500    0.0000 O   0  0  0  0  0  0  0  0  0  0  0  0
   -1.0208   -1.7417    0.0000 O   0  0  0  0  0  0  0  0  0  0  0  0
    0.7417    0.4000    0.0000 O   0  0  0  0  0  0  0  0  0  0  0  0
   -0.3125   -0.1542    0.0000 C   0  0  0  0  0  0  0  0  0  0  0  0
   -1.7208   -1.3000    0.0000 C   0  0  0  0  0  0  0  0  0  0  0  0
   -1.6375   -0.0542    0.0000 C   0  0  0  0  0  0  0  0  0  0  0  0
    0.0542    2.5500    0.0000 O   0  0  0  0  0  0  0  0  0  0  0  0
    1.0375   -1.3167    0.0000 C   0  0  0  0  0  0  0  0  0  0  0  0
   -1.9458   -0.6042    0.0000 O   0  0  0  0  0  0  0  0  0  0  0  0
    1.8042   -0.5250    0.0000 O   0  0  0  0  0  0  0  0  0  0  0  0
    1.1167    3.5458    0.0000 O   0  0  0  0  0  0  0  0  0  0  0  0
    0.7625    2.9458    0.0000 C   0  0  0  0  0  0  0  0  0  0  0  0
   -0.3000   -1.7667    0.0000 C   0  0  0  0  0  0  0  0  0  0  0  0
    0.7667    0.5625    0.0000 C   0  0  0  0  0  0  0  0  0  0  0  0
    2.0667    0.0583    0.0000 N   0  0  0  0  0  0  0  0  0  0  0  0
   -1.7375   -1.7167    0.0000 C   0  0  0  0  0  0  0  0  0  0  0  0
    1.4625    2.9250    0.0000 N   0  0  0  0  0  0  0  0  0  0  0  0
   -1.7833   -2.5375    0.0000 C   0  0  0  0  0  0  0  0  0  0  0  0
   -1.2708    0.1208    0.0000 C   0  0  0  0  0  0  0  0  0  0  0  0
   -1.3958   -1.9375    0.0000 C   0  0  0  0  0  0  0  0  0  0  0  0
   -2.1000   -1.9042    0.0000 C   0  0  0  0  0  0  0  0  0  0  0  0
    1.8000    1.8958    0.0000 N   0  0  0  0  0  0  0  0  0  0  0  0
   -1.4208   -2.3542    0.0000 C   0  0  0  0  0  0  0  0  0  0  0  0
   -2.1083   -2.3125    0.0000 C   0  0  0  0  0  0  0  0  0  0  0  0
    1.3917   -1.1167    0.0000 O   0  0  0  0  0  0  0  0  0  0  0  0
    0.7500    1.2208    0.0000 C   0  0  0  0  0  0  0  0  0  0  0  0
   -1.7958   -2.9542    0.0000 O   0  0  0  0  0  0  0  0  0  0  0  0
    1.0000    0.9000    0.0000 C   0  0  0  0  0  0  0  0  0  0  0  0
    0.7417    1.7125    0.0000 C   0  0  0  0  0  0  0  0  0  0  0  0
    1.4417    1.6958    0.0000 C   0  0  0  0  0  0  0  0  0  0  0  0
    0.0542   -1.9792    0.0000 C   0  0  0  0  0  0  0  0  0  0  0  0
    1.0417   -1.7292    0.0000 C   0  0  0  0  0  0  0  0  0  0  0  0
   -0.6500   -1.9667    0.0000 C   0  0  0  0  0  0  0  0  0  0  0  0
   -1.4583   -3.1750    0.0000 C   0  0  0  0  0  0  0  0  0  0  0  0
    1.1000    1.9083    0.0000 C   0  0  0  0  0  0  0  0  0  0  0  0
    0.4000   -1.7792    0.0000 C   0  0  0  0  0  0  0  0  0  0  0  0
   -1.4833   -3.5917    0.0000 C   0  0  0  0  0  0  0  0  0  0  0  0
   -1.1724   -1.8355    0.0000 H   0  0  0  0  0  0  0  0  0  0  0  0
    0.7866   -2.1665    0.0000 H   0  0  0  0  0  0  0  0  0  0  0  0
  2  3  1  0
  8  3  1  1
  4  1  1  0
 14  5  1  0
  6  4  1  0
  7  1  1  0
  8  9  1  0
  9 12  1  0
 10  6  1  0
 11  5  1  0
 12 15  1  0
 16 13  1  6
 14  7  1  0
 15 10  1  0
 16  2  1  0
 18 17  1  0
 18 11  1  0
 19 13  1  0
 15 20  1  6
 21 17  1  0
 22 26  1  0
 23 20  1  0
 24 22  1  0
 25 35  1  0
 26 19  1  6
 27 50  1  0
 28 43  1  0
 29  3  2  0
 30  6  2  0
 31  7  2  0
 32 13  2  0
 33 11  2  0
 34 12  2  0
 35  8  1  0
 18 36  1  1
 37 21  1  0
 38 22  2  0
 39  4  1  0
 40 21  2  0
 41 23  2  0
 42 28  2  0
 43 24  1  0
 44 14  1  0
 45  2  1  0
 46 23  1  0
 47 36  1  0
 48 28  1  0
 49 55  1  0
 50 37  1  0
 51 47  2  0
 52 47  1  0
 53 61  1  0
 54 51  1  0
 55 52  2  0
 39 56  1  6
 57 16  1  0
 58 49  1  0
 59 45  1  0
 60 26  1  0
 61 66  1  0
 62 44  1  0
 63 39  1  0
 44 64  1  6
 65 58  1  0
 66 60  1  0
 67 62  1  0
 68 65  1  0
 54 49  2  0
 25 27  1  0
 57 59  1  0
 14 69  1  1
  4 70  1  1
M  END
> <chembl_id>
CHEMBL382301

> <chembl_pref_name>
ATOSIBAN
