
     RDKit          2D

 22 22  0  0  0  0  0  0  0  0999 V2000
    5.4292   -2.8542    0.0000 Cl  0  0  0  0  0  0  0  0  0  0  0  0
    4.6667   -4.6667    0.0000 C   0  0  0  0  0  0  0  0  0  0  0  0
    5.2792   -4.3167    0.0000 N   0  0  0  0  0  0  0  0  0  0  0  0
    5.8917   -4.6667    0.0000 C   0  0  0  0  0  0  0  0  0  0  0  0
    3.4250   -4.6667    0.0000 N   0  0  0  0  0  0  0  0  0  0  0  0
    4.0417   -4.3042    0.0000 C   0  0  0  0  0  0  0  0  0  0  0  0
    4.6667   -5.3792    0.0000 O   0  0  0  0  0  0  0  0  0  0  0  0
    5.8917   -5.3792    0.0000 C   0  0  0  0  0  0  0  0  0  0  0  0
    6.5125   -4.3167    0.0000 C   0  0  0  0  0  0  0  0  0  0  0  0
    3.4250   -5.3792    0.0000 C   0  0  0  0  0  0  0  0  0  0  0  0
    2.8125   -4.3042    0.0000 C   0  0  0  0  0  0  0  0  0  0  0  0
    7.1250   -5.3917    0.0000 C   0  0  0  0  0  0  0  0  0  0  0  0
    4.0417   -3.6000    0.0000 C   0  0  0  0  0  0  0  0  0  0  0  0
    6.5042   -5.7292    0.0000 C   0  0  0  0  0  0  0  0  0  0  0  0
    7.1250   -4.6792    0.0000 C   0  0  0  0  0  0  0  0  0  0  0  0
    5.2792   -5.7417    0.0000 C   0  0  0  0  0  0  0  0  0  0  0  0
    6.5167   -3.6042    0.0000 C   0  0  0  0  0  0  0  0  0  0  0  0
    2.8125   -5.7292    0.0000 C   0  0  0  0  0  0  0  0  0  0  0  0
    2.8125   -6.4417    0.0000 C   0  0  0  0  0  0  0  0  0  0  0  0
    2.8125   -3.6000    0.0000 C   0  0  0  0  0  0  0  0  0  0  0  0
    3.4292   -3.2417    0.0000 C   0  0  0  0  0  0  0  0  0  0  0  0
    2.1917   -6.7917    0.0000 C   0  0  0  0  0  0  0  0  0  0  0  0
  3  2  1  0
  4  3  1  0
  5  6  1  0
  6  2  1  1
  7  2  2  0
  8  4  1  0
  9  4  2  0
 10  5  1  0
 11  5  1  0
 12 15  2  0
 13  6  1  0
 14  8  2  0
 15  9  1  0
 16  8  1  0
 17  9  1  0
 18 10  1  0
 19 18  1  0
 20 21  1  0
 21 13  1  0
 22 19  1  0
 20 11  1  0
 12 14  1  0
M  END
> <chembl_id>
CHEMBL1200749

> <chembl_pref_name>
LEVOBUPIVACAINE HYDROCHLORIDE
