
     RDKit          2D

 36 38  0  0  0  0  0  0  0  0999 V2000
    0.3667   -7.6875    0.0000 Cl  0  0  0  0  0  0  0  0  0  0  0  0
    2.5792   -6.4583    0.0000 N   0  0  0  0  0  0  0  0  0  0  0  0
    1.8750   -6.4625    0.0000 C   0  0  0  0  0  0  0  0  0  0  0  0
    2.5792   -5.7500    0.0000 C   0  0  0  0  0  0  0  0  0  0  0  0
    1.8750   -5.7500    0.0000 C   0  0  0  0  0  0  0  0  0  0  0  0
    6.2042   -6.4083    0.0000 N   0  0  0  0  0  0  0  0  0  0  0  0
    5.6333   -6.8292    0.0000 C   0  0  0  0  0  0  0  0  0  0  0  0
    3.1833   -6.8083    0.0000 C   0  0  0  0  0  0  0  0  0  0  0  0
    5.8500   -7.5000    0.0000 N   0  0  0  0  0  0  0  0  0  0  0  0
    6.5583   -7.5000    0.0000 N   0  0  0  0  0  0  0  0  0  0  0  0
    6.7792   -6.8292    0.0000 N   0  0  0  0  0  0  0  0  0  0  0  0
    3.1917   -5.4000    0.0000 S   0  0  0  0  0  0  0  0  0  0  0  0
    3.7958   -6.4625    0.0000 C   0  0  0  0  0  0  0  0  0  0  0  0
   -1.1625   -5.3292    0.0000 N   0  0  0  0  0  0  0  0  0  0  0  0
   -1.7333   -5.7500    0.0000 C   0  0  0  0  0  0  0  0  0  0  0  0
    1.2542   -5.3917    0.0000 N   0  0  0  0  0  0  0  0  0  0  0  0
   -0.5875   -5.7500    0.0000 C   0  0  0  0  0  0  0  0  0  0  0  0
    3.1792   -7.5167    0.0000 C   0  0  0  0  0  0  0  0  0  0  0  0
   -1.5167   -6.4208    0.0000 S   0  0  0  0  0  0  0  0  0  0  0  0
    0.6375   -5.7500    0.0000 C   0  0  0  0  0  0  0  0  0  0  0  0
    5.0208   -6.4708    0.0000 S   0  0  0  0  0  0  0  0  0  0  0  0
    0.0250   -5.3958    0.0000 C   0  0  0  0  0  0  0  0  0  0  0  0
    6.2042   -5.7000    0.0000 C   0  0  0  0  0  0  0  0  0  0  0  0
    3.8000   -5.7583    0.0000 C   0  0  0  0  0  0  0  0  0  0  0  0
   -0.8083   -6.4208    0.0000 C   0  0  0  0  0  0  0  0  0  0  0  0
    1.3750   -6.9625    0.0000 O   0  0  0  0  0  0  0  0  0  0  0  0
    4.4042   -6.8208    0.0000 C   0  0  0  0  0  0  0  0  0  0  0  0
    2.5625   -7.8667    0.0000 O   0  0  0  0  0  0  0  0  0  0  0  0
    0.6375   -6.4583    0.0000 O   0  0  0  0  0  0  0  0  0  0  0  0
   -2.3500   -5.3917    0.0000 N   0  0  0  0  0  0  0  0  0  0  0  0
    6.8208   -5.3458    0.0000 C   0  0  0  0  0  0  0  0  0  0  0  0
    7.4333   -5.7000    0.0000 N   0  0  0  0  0  0  0  0  0  0  0  0
    3.7875   -7.8750    0.0000 O   0  0  0  0  0  0  0  0  0  0  0  0
    7.4333   -6.4083    0.0000 C   0  0  0  0  0  0  0  0  0  0  0  0
    8.0458   -5.3458    0.0000 C   0  0  0  0  0  0  0  0  0  0  0  0
    2.5750   -5.0417    0.0000 H   0  0  0  0  0  0  0  0  0  0  0  0
  3  2  1  0
  4  2  1  0
  5  4  1  0
  6  7  1  0
  7 21  1  0
  8  2  1  0
  9  7  2  0
 10  9  1  0
 11  6  1  0
 12  4  1  0
 13  8  2  0
 14 17  1  0
 15 14  2  0
  5 16  1  1
 17 22  1  0
 18  8  1  0
 19 25  1  0
 20 16  1  0
 21 27  1  0
 22 20  1  0
 23  6  1  0
 24 12  1  0
 25 17  2  0
 26  3  2  0
 27 13  1  0
 28 18  2  0
 29 20  2  0
 30 15  1  0
 31 23  1  0
 32 31  1  0
 33 18  1  0
 34 32  1  0
 35 32  1  0
  4 36  1  6
  3  5  1  0
 24 13  1  0
 11 10  2  0
 19 15  1  0
M  END
> <chembl_id>
CHEMBL1200589

> <chembl_pref_name>
CEFOTIAM HYDROCHLORIDE
