
     RDKit          2D

 25 27  0  0  0  0  0  0  0  0999 V2000
    0.0292   -2.2792    0.0000 C   0  0  0  0  0  0  0  0  0  0  0  0
   -0.5625   -1.9250    0.0000 C   0  0  0  0  0  0  0  0  0  0  0  0
    2.4792   -2.2917    0.0000 N   0  0  0  0  0  0  0  0  0  0  0  0
    0.6417   -1.9375    0.0000 O   0  0  0  0  0  0  0  0  0  0  0  0
    0.0292   -2.9792    0.0000 O   0  0  0  0  0  0  0  0  0  0  0  0
   -1.1833   -2.2500    0.0000 C   0  0  0  0  0  0  0  0  0  0  0  0
   -0.5458   -1.2250    0.0000 C   0  0  0  0  0  0  0  0  0  0  0  0
    1.8667   -1.9375    0.0000 C   0  0  0  0  0  0  0  0  0  0  0  0
    1.2500   -2.2917    0.0000 C   0  0  0  0  0  0  0  0  0  0  0  0
   -1.2958   -1.4875    0.0000 O   0  0  0  0  0  0  0  0  0  0  0  0
    2.4792   -3.0000    0.0000 C   0  0  0  0  0  0  0  0  0  0  0  0
    2.8292   -1.6792    0.0000 C   0  0  0  0  0  0  0  0  0  0  0  0
    3.1875   -2.3042    0.0000 C   0  0  0  0  0  0  0  0  0  0  0  0
    1.8667   -3.3542    0.0000 C   0  0  0  0  0  0  0  0  0  0  0  0
    1.2500   -3.0000    0.0000 C   0  0  0  0  0  0  0  0  0  0  0  0
    0.0792   -0.9000    0.0000 C   0  0  0  0  0  0  0  0  0  0  0  0
   -1.1458   -0.8625    0.0000 C   0  0  0  0  0  0  0  0  0  0  0  0
   -1.1958   -2.9500    0.0000 C   0  0  0  0  0  0  0  0  0  0  0  0
   -1.7792   -1.8750    0.0000 C   0  0  0  0  0  0  0  0  0  0  0  0
   -1.8083   -3.2792    0.0000 C   0  0  0  0  0  0  0  0  0  0  0  0
   -2.4083   -2.2125    0.0000 C   0  0  0  0  0  0  0  0  0  0  0  0
    0.0917   -0.1875    0.0000 C   0  0  0  0  0  0  0  0  0  0  0  0
   -1.1208   -0.1583    0.0000 C   0  0  0  0  0  0  0  0  0  0  0  0
   -0.4833    0.1750    0.0000 C   0  0  0  0  0  0  0  0  0  0  0  0
   -2.4250   -2.9000    0.0000 C   0  0  0  0  0  0  0  0  0  0  0  0
  2  1  1  0
  3  8  1  0
  4  1  1  0
  5  1  2  0
  6  2  1  0
  7  2  1  0
  8  9  1  0
  9  4  1  0
 10  2  1  0
 11 14  1  0
 12  3  1  0
 13  3  1  0
 14 15  1  0
 15  9  1  0
 16  7  2  0
 17  7  1  0
 18  6  1  0
 19  6  2  0
 20 18  2  0
 21 19  1  0
 22 16  1  0
 23 17  2  0
 24 23  1  0
 25 21  2  0
 11  3  1  0
 24 22  2  0
 25 20  1  0
M  CHG  1   3   1
M  END
> <chembl_id>
CHEMBL524004

> <chembl_pref_name>
MEPENZOLATE
