
     RDKit          2D

 24 24  0  0  0  0  0  0  0  0999 V2000
    8.5167   -4.5917    0.0000 Na  0  0  0  0  0 15  0  0  0  0  0  0
    4.2417   -5.2417    0.0000 C   0  0  0  0  0  0  0  0  0  0  0  0
    4.2417   -4.5292    0.0000 C   0  0  0  0  0  0  0  0  0  0  0  0
    4.8542   -5.5917    0.0000 C   0  0  0  0  0  0  0  0  0  0  0  0
    7.3042   -4.1792    0.0000 C   0  0  0  0  0  0  0  0  0  0  0  0
    3.6250   -5.5917    0.0000 O   0  0  0  0  0  0  0  0  0  0  0  0
    5.4667   -4.5292    0.0000 C   0  0  0  0  0  0  0  0  0  0  0  0
    1.7792   -5.2417    0.0000 C   0  0  0  0  0  0  0  0  0  0  0  0
    2.4000   -5.5917    0.0000 C   0  0  0  0  0  0  0  0  0  0  0  0
    6.6917   -4.5292    0.0000 C   0  0  0  0  0  0  0  0  0  0  0  0
    5.4667   -5.2417    0.0000 C   0  0  0  0  0  0  0  0  0  0  0  0
    4.8542   -4.1792    0.0000 C   0  0  0  0  0  0  0  0  0  0  0  0
    3.0125   -5.2417    0.0000 C   0  0  0  0  0  0  0  0  0  0  0  0
    6.0792   -4.1792    0.0000 C   0  0  0  0  0  0  0  0  0  0  0  0
    1.7792   -4.5292    0.0000 C   0  0  0  0  0  0  0  0  0  0  0  0
    7.9167   -4.5292    0.0000 O   0  0  0  0  0  0  0  0  0  0  0  0
    7.3042   -3.4667    0.0000 O   0  0  0  0  0  0  0  0  0  0  0  0
    2.4000   -4.1792    0.0000 C   0  0  0  0  0  0  0  0  0  0  0  0
    3.6292   -4.1792    0.0000 I   0  0  0  0  0  0  0  0  0  0  0  0
    4.8542   -6.3042    0.0000 I   0  0  0  0  0  0  0  0  0  0  0  0
    1.1667   -5.5917    0.0000 I   0  0  0  0  0  0  0  0  0  0  0  0
    6.6917   -5.2417    0.0000 N   0  0  0  0  0  0  0  0  0  0  0  0
    3.0125   -4.5292    0.0000 C   0  0  0  0  0  0  0  0  0  0  0  0
    1.1667   -4.1792    0.0000 O   0  0  0  0  0  0  0  0  0  0  0  0
  3  2  2  0
  4  2  1  0
  5 10  1  0
  6  2  1  0
  7 11  1  0
  8  9  2  0
  9 13  1  0
 10 14  1  0
 11  4  2  0
 12  3  1  0
 13  6  1  0
 14  7  1  0
 15 18  2  0
 16  5  1  0
 17  5  2  0
 18 23  1  0
 19  3  1  0
 20  4  1  0
 21  8  1  0
 10 22  1  1
 23 13  2  0
 24 15  1  0
  7 12  2  0
 15  8  1  0
M  CHG  2   1   1  16  -1
M  END
> <chembl_id>
CHEMBL1201119

> <chembl_pref_name>
LIOTHYRONINE SODIUM
