
     RDKit          2D

 20 20  0  0  0  0  0  0  0  0999 V2000
   -1.4333    0.3208    0.0000 N   0  0  0  0  0  0  0  0  0  0  0  0
   -0.4958   -0.2667    0.0000 C   0  0  0  0  0  0  0  0  0  0  0  0
   -2.4083   -0.2292    0.0000 C   0  0  0  0  0  0  0  0  0  0  0  0
    0.4917    0.2958    0.0000 C   0  0  0  0  0  0  0  0  0  0  0  0
   -0.4958   -1.3750    0.0000 O   0  0  0  0  0  0  0  0  0  0  0  0
    1.4292   -0.2667    0.0000 N   0  0  0  0  0  0  0  0  0  0  0  0
   -3.3583    0.3125    0.0000 C   0  0  0  0  0  0  0  0  0  0  0  0
   -2.4208   -1.3542    0.0000 C   0  0  0  0  0  0  0  0  0  0  0  0
   -4.3458   -1.3292    0.0000 C   0  0  0  0  0  0  0  0  0  0  0  0
    0.4917    1.4000    0.0000 C   0  0  0  0  0  0  0  0  0  0  0  0
    1.4000   -1.3792    0.0000 C   0  0  0  0  0  0  0  0  0  0  0  0
    2.4042    0.2708    0.0000 C   0  0  0  0  0  0  0  0  0  0  0  0
   -3.3958   -1.8917    0.0000 C   0  0  0  0  0  0  0  0  0  0  0  0
   -4.3208   -0.2167    0.0000 C   0  0  0  0  0  0  0  0  0  0  0  0
   -1.4583   -1.9292    0.0000 C   0  0  0  0  0  0  0  0  0  0  0  0
   -3.3458    1.4500    0.0000 C   0  0  0  0  0  0  0  0  0  0  0  0
    3.3500   -0.3167    0.0000 C   0  0  0  0  0  0  0  0  0  0  0  0
    2.3542   -1.9542    0.0000 C   0  0  0  0  0  0  0  0  0  0  0  0
    1.4542    1.9625    0.0000 C   0  0  0  0  0  0  0  0  0  0  0  0
    4.3417    0.2250    0.0000 C   0  0  0  0  0  0  0  0  0  0  0  0
  2  1  1  0
  3  1  1  0
  4  2  1  0
  5  2  2  0
  6  4  1  0
  7  3  2  0
  8  3  1  0
  9 13  1  0
 10  4  1  0
 11  6  1  0
 12  6  1  0
 13  8  2  0
 14  7  1  0
 15  8  1  0
 16  7  1  0
 17 12  1  0
 18 11  1  0
 19 10  1  0
 20 17  1  0
 14  9  2  0
M  END
> <chembl_id>
CHEMBL492

> <chembl_pref_name>
ETIDOCAINE
