
     RDKit          2D

  4  3  0  0  0  0  0  0  0  0999 V2000
    9.7556   -8.6604    0.0000 S   0  0  0  0  0  0  0  0  0  0  0  0
    9.7465   -7.8301    0.0000 O   0  0  0  0  0  0  0  0  0  0  0  0
   10.4732   -9.0762    0.0000 C   0  0  0  0  0  0  0  0  0  0  0  0
    9.0372   -9.0750    0.0000 C   0  0  0  0  0  0  0  0  0  0  0  0
  2  1  1  0
  3  1  1  0
  4  1  1  0
M  CHG  2   1   1   2  -1
M  END
> <chembl_id>
CHEMBL504

> <chembl_pref_name>
DIMETHYL SULFOXIDE
