
     RDKit          2D

 99104  0  0  0  0  0  0  0  0999 V2000
    5.0114    9.3195    0.0000 C   0  0  0  0  0  0  0  0  0  0  0  0
    4.5989    8.6050    0.0000 C   0  0  0  0  0  0  0  0  0  0  0  0
    5.0114    7.8905    0.0000 O   0  0  0  0  0  0  0  0  0  0  0  0
    3.7739    8.6050    0.0000 O   0  0  0  0  0  0  0  0  0  0  0  0
    0.6662  -13.5318    0.0000 C   0  0  0  0  0  0  0  0  0  0  0  0
    0.0212  -13.0174    0.0000 C   0  0  0  0  0  0  0  0  0  0  0  0
    0.1442  -12.2016    0.0000 C   0  0  0  0  0  0  0  0  0  0  0  0
   -0.5008  -11.6872    0.0000 C   0  0  0  0  0  0  0  0  0  0  0  0
   -0.3778  -10.8715    0.0000 C   0  0  0  0  0  0  0  0  0  0  0  0
   -1.0228  -10.3571    0.0000 O   0  0  0  0  0  0  0  0  0  0  0  0
   -0.8998   -9.5413    0.0000 C   0  0  0  0  0  0  0  0  0  0  0  0
   -1.4219   -8.2111    0.0000 C   0  0  0  0  0  0  0  0  0  0  0  0
   -1.5449   -9.0269    0.0000 C   0  0  0  0  0  0  0  0  0  0  0  0
   -0.1319   -9.2399    0.0000 C   0  0  0  0  0  0  0  0  0  0  0  0
   -0.0089   -8.4241    0.0000 C   0  0  0  0  0  0  0  0  0  0  0  0
   -0.6539   -7.9097    0.0000 C   0  0  0  0  0  0  0  0  0  0  0  0
    0.3599   -5.9768    0.0000 C   0  0  0  0  0  0  0  0  0  0  0  0
    0.2369   -6.7925    0.0000 C   0  0  0  0  0  0  0  0  0  0  0  0
   -0.5310   -7.0939    0.0000 C   0  0  0  0  0  0  0  0  0  0  0  0
   -1.1760   -6.5796    0.0000 C   0  0  0  0  0  0  0  0  0  0  0  0
   -1.0530   -5.7638    0.0000 C   0  0  0  0  0  0  0  0  0  0  0  0
   -0.2850   -5.4624    0.0000 C   0  0  0  0  0  0  0  0  0  0  0  0
    0.7287   -3.5294    0.0000 C   0  0  0  0  0  0  0  0  0  0  0  0
    0.6058   -4.3452    0.0000 C   0  0  0  0  0  0  0  0  0  0  0  0
   -0.1621   -4.6466    0.0000 C   0  0  0  0  0  0  0  0  0  0  0  0
   -0.8071   -4.1322    0.0000 C   0  0  0  0  0  0  0  0  0  0  0  0
   -0.6841   -3.3164    0.0000 C   0  0  0  0  0  0  0  0  0  0  0  0
    0.0837   -3.0150    0.0000 C   0  0  0  0  0  0  0  0  0  0  0  0
    0.2067   -2.1992    0.0000 C   0  0  0  0  0  0  0  0  0  0  0  0
    0.9747   -1.8978    0.0000 O   0  0  0  0  0  0  0  0  0  0  0  0
   -0.4382   -1.6849    0.0000 N   0  0  0  0  0  0  0  0  0  0  0  0
   -0.3153   -0.8691    0.0000 C   0  0  0  0  0  0  0  0  0  0  0  0
   -1.1036   -0.6259    0.0000 C   0  0  0  0  0  0  0  0  0  0  0  0
   -1.7853   -0.1612    0.0000 N   0  0  0  0  0  0  0  0  0  0  0  0
   -1.4616   -1.3692    0.0000 O   0  0  0  0  0  0  0  0  0  0  0  0
   -2.2996    0.4838    0.0000 C   0  0  0  0  0  0  0  0  0  0  0  0
    0.5096   -0.8691    0.0000 C   0  0  0  0  0  0  0  0  0  0  0  0
    1.2980   -0.6259    0.0000 C   0  0  0  0  0  0  0  0  0  0  0  0
    1.9796   -0.1612    0.0000 C   0  0  0  0  0  0  0  0  0  0  0  0
    1.6559   -1.3692    0.0000 O   0  0  0  0  0  0  0  0  0  0  0  0
    2.5408   -0.7659    0.0000 O   0  0  0  0  0  0  0  0  0  0  0  0
    3.3451   -0.5823    0.0000 C   0  0  0  0  0  0  0  0  0  0  0  0
    3.9062   -1.1871    0.0000 C   0  0  0  0  0  0  0  0  0  0  0  0
    3.6631   -1.9755    0.0000 N   0  0  0  0  0  0  0  0  0  0  0  0
    3.0306   -2.3037    0.0000 C   0  0  0  0  0  0  0  0  0  0  0  0
    4.0618   -2.6602    0.0000 C   0  0  0  0  0  0  0  0  0  0  0  0
    3.4199   -2.7638    0.0000 C   0  0  0  0  0  0  0  0  0  0  0  0
    2.4940    0.4838    0.0000 N   0  0  0  0  0  0  0  0  0  0  0  0
    2.7954    1.2517    0.0000 C   0  0  0  0  0  0  0  0  0  0  0  0
    3.5997    1.0681    0.0000 O   0  0  0  0  0  0  0  0  0  0  0  0
    2.8571    2.0744    0.0000 C   0  0  0  0  0  0  0  0  0  0  0  0
    3.6788    2.0005    0.0000 C   0  0  0  0  0  0  0  0  0  0  0  0
    4.0030    2.7591    0.0000 C   0  0  0  0  0  0  0  0  0  0  0  0
    3.3817    3.3019    0.0000 C   0  0  0  0  0  0  0  0  0  0  0  0
    2.6735    2.8787    0.0000 N   0  0  0  0  0  0  0  0  0  0  0  0
    4.8073    2.9427    0.0000 C   0  0  0  0  0  0  0  0  0  0  0  0
    4.1019    1.2922    0.0000 O   0  0  0  0  0  0  0  0  0  0  0  0
    2.2610    3.5932    0.0000 C   0  0  0  0  0  0  0  0  0  0  0  0
    2.9060    4.1076    0.0000 O   0  0  0  0  0  0  0  0  0  0  0  0
    1.6562    4.1544    0.0000 C   0  0  0  0  0  0  0  0  0  0  0  0
    2.1210    4.8360    0.0000 C   0  0  0  0  0  0  0  0  0  0  0  0
    2.3344    5.6572    0.0000 C   0  0  0  0  0  0  0  0  0  0  0  0
    2.8917    5.1380    0.0000 O   0  0  0  0  0  0  0  0  0  0  0  0
    0.9129    4.5123    0.0000 N   0  0  0  0  0  0  0  0  0  0  0  0
    0.0971    4.6353    0.0000 C   0  0  0  0  0  0  0  0  0  0  0  0
    0.0971    5.4603    0.0000 O   0  0  0  0  0  0  0  0  0  0  0  0
   -0.7185    4.5123    0.0000 C   0  0  0  0  0  0  0  0  0  0  0  0
   -0.9617    5.3007    0.0000 C   0  0  0  0  0  0  0  0  0  0  0  0
   -1.4618    4.1544    0.0000 N   0  0  0  0  0  0  0  0  0  0  0  0
   -1.7660    5.4842    0.0000 C   0  0  0  0  0  0  0  0  0  0  0  0
   -0.4006    5.9054    0.0000 O   0  0  0  0  0  0  0  0  0  0  0  0
   -2.3272    4.8795    0.0000 O   0  0  0  0  0  0  0  0  0  0  0  0
   -2.0092    6.2726    0.0000 C   0  0  0  0  0  0  0  0  0  0  0  0
   -2.8135    6.4562    0.0000 C   0  0  0  0  0  0  0  0  0  0  0  0
   -1.4481    6.8773    0.0000 C   0  0  0  0  0  0  0  0  0  0  0  0
   -1.6912    7.6657    0.0000 C   0  0  0  0  0  0  0  0  0  0  0  0
   -2.4956    7.8493    0.0000 C   0  0  0  0  0  0  0  0  0  0  0  0
   -3.0567    7.2445    0.0000 C   0  0  0  0  0  0  0  0  0  0  0  0
   -2.7387    8.6376    0.0000 O   0  0  0  0  0  0  0  0  0  0  0  0
   -2.0666    3.5932    0.0000 C   0  0  0  0  0  0  0  0  0  0  0  0
   -2.7116    4.1076    0.0000 O   0  0  0  0  0  0  0  0  0  0  0  0
   -2.4791    2.8787    0.0000 C   0  0  0  0  0  0  0  0  0  0  0  0
   -3.1873    3.3019    0.0000 C   0  0  0  0  0  0  0  0  0  0  0  0
   -2.6627    2.0744    0.0000 N   0  0  0  0  0  0  0  0  0  0  0  0
   -3.4844    2.0005    0.0000 C   0  0  0  0  0  0  0  0  0  0  0  0
   -3.8086    2.7591    0.0000 C   0  0  0  0  0  0  0  0  0  0  0  0
   -4.6129    2.9427    0.0000 O   0  0  0  0  0  0  0  0  0  0  0  0
   -2.6010    1.2517    0.0000 C   0  0  0  0  0  0  0  0  0  0  0  0
   -3.4054    1.0681    0.0000 O   0  0  0  0  0  0  0  0  0  0  0  0
   -3.0141    0.0713    0.0000 C   0  0  0  0  0  0  0  0  0  0  0  0
   -3.7286    0.4838    0.0000 C   0  0  0  0  0  0  0  0  0  0  0  0
   -3.0141   -0.7536    0.0000 O   0  0  0  0  0  0  0  0  0  0  0  0
   -2.4423   -0.4283    0.0000 H   0  0  0  0  0  0  0  0  0  0  0  0
   -2.8280    3.5643    0.0000 H   0  0  0  0  0  0  0  0  0  0  0  0
   -1.0294    6.0725    0.0000 H   0  0  0  0  0  0  0  0  0  0  0  0
    1.7139    5.4951    0.0000 H   0  0  0  0  0  0  0  0  0  0  0  0
    3.4370    1.5712    0.0000 H   0  0  0  0  0  0  0  0  0  0  0  0
    2.4632    4.3259    0.0000 H   0  0  0  0  0  0  0  0  0  0  0  0
   -1.2800    4.9968    0.0000 H   0  0  0  0  0  0  0  0  0  0  0  0
  1  2  1  0
  2  3  2  0
  2  4  1  0
  5  6  1  0
  6  7  1  0
  7  8  1  0
  8  9  1  0
  9 10  1  0
 10 11  1  0
 12 13  1  0
 14 15  2  0
 15 16  1  0
 12 16  2  0
 13 11  2  0
 11 14  1  0
 17 18  1  0
 18 19  2  0
 19 20  1  0
 20 21  2  0
 21 22  1  0
 17 22  2  0
 23 24  1  0
 24 25  2  0
 25 26  1  0
 26 27  2  0
 27 28  1  0
 23 28  2  0
 16 19  1  0
 22 25  1  0
 28 29  1  0
 29 30  2  0
 29 31  1  0
 32 31  1  6
 32 33  1  0
 33 34  1  0
 33 35  2  0
 36 34  1  0
 32 37  1  0
 38 37  1  0
 39 38  1  0
 38 40  1  6
 39 41  1  6
 41 42  1  0
 42 43  1  0
 43 44  1  0
 44 45  1  0
 44 46  1  0
 44 47  1  0
 39 48  1  0
 48 49  1  0
 49 50  2  0
 49 51  1  0
 51 52  1  0
 52 53  1  0
 53 54  1  0
 54 55  1  0
 51 55  1  0
 53 56  1  6
 52 57  1  6
 55 58  1  0
 58 59  2  0
 60 58  1  0
 60 61  1  0
 61 62  1  0
 61 63  1  0
 60 64  1  0
 64 65  1  0
 65 66  2  0
 65 67  1  0
 67 68  1  0
 67 69  1  0
 68 70  1  0
 68 71  1  0
 70 72  1  1
 70 73  1  0
 75 76  2  0
 76 77  1  0
 77 78  2  0
 74 78  1  0
 74 73  2  0
 73 75  1  0
 77 79  1  0
 69 80  1  0
 80 81  2  0
 80 82  1  0
 84 85  1  0
 85 86  1  0
 83 86  1  0
 83 82  1  0
 82 84  1  0
 86 87  1  6
 84 88  1  0
 88 89  2  0
 88 36  1  0
 36 90  1  0
 90 91  1  0
 90 92  1  6
 36 93  1  6
 82 94  1  6
 68 95  1  6
 61 96  1  6
 51 97  1  6
 60 98  1  6
 67 99  1  6
M  CHG  2   4  -1  44   1
M  END
> <chembl_id>
CHEMBL3989928

> <chembl_pref_name>
REZAFUNGIN ACETATE
