
     RDKit          2D

 47 49  0  0  0  0  0  0  0  0999 V2000
   -8.7214   -0.8250    0.0000 S   0  0  0  0  0  0  0  0  0  0  0  0
   -8.7214    0.0000    0.0000 O   0  0  0  0  0  0  0  0  0  0  0  0
   -9.4359   -1.2375    0.0000 O   0  0  0  0  0  0  0  0  0  0  0  0
   -8.0070   -1.2375    0.0000 O   0  0  0  0  0  0  0  0  0  0  0  0
   -8.7214   -1.6500    0.0000 O   0  0  0  0  0  0  0  0  0  0  0  0
    0.7430   -0.0386    0.0000 C   0  0  0  0  0  0  0  0  0  0  0  0
    0.0145   -1.2833    0.0000 C   0  0  0  0  0  0  0  0  0  0  0  0
   -2.2628   -3.1553    0.0000 C   0  0  0  0  0  0  0  0  0  0  0  0
    2.8851   -0.4825    0.0000 C   0  0  0  0  0  0  0  0  0  0  0  0
   -1.0711   -2.0697    0.0000 C   0  0  0  0  0  0  0  0  0  0  0  0
    1.4618    0.3570    0.0000 C   0  0  0  0  0  0  0  0  0  0  0  0
   -2.6728   -3.8645    0.0000 C   0  0  0  0  0  0  0  0  0  0  0  0
    3.3000   -1.1917    0.0000 C   0  0  0  0  0  0  0  0  0  0  0  0
   -0.2461   -2.0697    0.0000 C   0  0  0  0  0  0  0  0  0  0  0  0
    4.1250   -1.1917    0.0000 C   0  0  0  0  0  0  0  0  0  0  0  0
   -3.4978   -3.8645    0.0000 C   0  0  0  0  0  0  0  0  0  0  0  0
    0.7285   -0.8588    0.0000 O   0  0  0  0  0  0  0  0  0  0  0  0
   -0.6513   -0.7961    0.0000 O   0  0  0  0  0  0  0  0  0  0  0  0
   -2.6728   -2.4364    0.0000 O   0  0  0  0  0  0  0  0  0  0  0  0
    3.3000    0.2316    0.0000 O   0  0  0  0  0  0  0  0  0  0  0  0
   -1.5487   -2.7307    0.0000 O   0  0  0  0  0  0  0  0  0  0  0  0
    2.1614   -0.0628    0.0000 O   0  0  0  0  0  0  0  0  0  0  0  0
    0.0338    0.3859    0.0000 C   0  0  0  0  0  0  0  0  0  0  0  0
    4.5351   -0.4825    0.0000 C   0  0  0  0  0  0  0  0  0  0  0  0
   -3.9128   -3.1553    0.0000 C   0  0  0  0  0  0  0  0  0  0  0  0
   -1.3220   -1.2833    0.0000 C   0  0  0  0  0  0  0  0  0  0  0  0
   -3.4978   -2.4364    0.0000 C   0  0  0  0  0  0  0  0  0  0  0  0
    4.1250    0.2316    0.0000 C   0  0  0  0  0  0  0  0  0  0  0  0
    1.4763    1.1820    0.0000 C   0  0  0  0  0  0  0  0  0  0  0  0
    0.0483    1.2109    0.0000 C   0  0  0  0  0  0  0  0  0  0  0  0
    0.7720    1.6114    0.0000 C   0  0  0  0  0  0  0  0  0  0  0  0
   -2.2579   -4.5785    0.0000 N   0  0  0  0  0  0  0  0  0  0  0  0
    2.8851   -1.9057    0.0000 N   0  0  0  0  0  0  0  0  0  0  0  0
    0.2412   -2.7307    0.0000 O   0  0  0  0  0  0  0  0  0  0  0  0
   -3.9079   -4.5833    0.0000 O   0  0  0  0  0  0  0  0  0  0  0  0
    4.5303   -1.9057    0.0000 O   0  0  0  0  0  0  0  0  0  0  0  0
    2.2000    1.5825    0.0000 N   0  0  0  0  0  0  0  0  0  0  0  0
   -0.6562    1.6404    0.0000 N   0  0  0  0  0  0  0  0  0  0  0  0
   -0.6851   -0.0096    0.0000 O   0  0  0  0  0  0  0  0  0  0  0  0
   -4.7378   -3.1553    0.0000 O   0  0  0  0  0  0  0  0  0  0  0  0
    5.3601   -0.4825    0.0000 O   0  0  0  0  0  0  0  0  0  0  0  0
   -3.9079   -1.7224    0.0000 C   0  0  0  0  0  0  0  0  0  0  0  0
   -2.0408   -0.8684    0.0000 C   0  0  0  0  0  0  0  0  0  0  0  0
    4.5303    0.9504    0.0000 C   0  0  0  0  0  0  0  0  0  0  0  0
   -4.7329   -1.7224    0.0000 N   0  0  0  0  0  0  0  0  0  0  0  0
    5.3553    0.9504    0.0000 O   0  0  0  0  0  0  0  0  0  0  0  0
   -2.7596   -1.2785    0.0000 O   0  0  0  0  0  0  0  0  0  0  0  0
  1  2  1  0
  1  3  2  0
  1  4  2  0
  1  5  1  0
  7 17  1  1
  8 21  1  6
  9 22  1  1
 10 14  1  0
 11  6  1  0
 12  8  1  0
 13  9  1  0
 14  7  1  0
 15 13  1  0
 16 12  1  0
  6 17  1  6
 18  7  1  0
 19  8  1  0
 20  9  1  0
 10 21  1  6
 11 22  1  1
 23  6  1  0
 24 28  1  0
 25 27  1  0
 26 18  1  0
 27 19  1  0
 28 20  1  0
 29 11  1  0
 30 23  1  0
 31 29  1  0
 12 32  1  6
 13 33  1  1
 14 34  1  6
 16 35  1  1
 15 36  1  6
 29 37  1  6
 30 38  1  6
 23 39  1  1
 25 40  1  6
 24 41  1  1
 26 43  1  1
 28 44  1  6
 45 42  1  0
 46 44  1  0
 47 43  1  0
 30 31  1  0
 10 26  1  0
 24 15  1  0
 25 16  1  0
 27 42  1  6
M  END
> <chembl_id>
CHEMBL2206196

> <chembl_pref_name>
PAROMOMYCIN SULFATE
