
     RDKit          2D

 68 73  0  0  0  0  0  0  0  0999 V2000
    2.1566   -5.2294    0.0000 C   0  0  0  0  0  0  0  0  0  0  0  0
    2.1566   -4.4044    0.0000 C   0  0  0  0  0  0  0  0  0  0  0  0
    2.8485   -3.9550    0.0000 C   0  0  0  0  0  0  0  0  0  0  0  0
    3.5404   -4.4044    0.0000 C   0  0  0  0  0  0  0  0  0  0  0  0
    4.2755   -4.0298    0.0000 C   0  0  0  0  0  0  0  0  0  0  0  0
    4.9674   -4.4791    0.0000 O   0  0  0  0  0  0  0  0  0  0  0  0
    4.3187   -3.2059    0.0000 O   0  0  0  0  0  0  0  0  0  0  0  0
    2.8711   -5.6419    0.0000 O   0  0  0  0  0  0  0  0  0  0  0  0
    1.4421   -5.6419    0.0000 O   0  0  0  0  0  0  0  0  0  0  0  0
    3.4926   -3.4190    0.0000 O   0  0  0  0  0  0  0  0  0  0  0  0
    2.2652   -3.3717    0.0000 C   0  0  0  0  0  0  0  0  0  0  0  0
    1.4683   -3.5852    0.0000 O   0  0  0  0  0  0  0  0  0  0  0  0
    2.4787   -2.5748    0.0000 O   0  0  0  0  0  0  0  0  0  0  0  0
   -0.3701    0.0068    0.0000 C   0  0  0  0  0  0  0  0  0  0  0  0
   -1.0846   -0.4057    0.0000 C   0  0  0  0  0  0  0  0  0  0  0  0
   -1.0846   -1.2307    0.0000 C   0  0  0  0  0  0  0  0  0  0  0  0
   -0.3701   -1.6432    0.0000 C   0  0  0  0  0  0  0  0  0  0  0  0
    0.3443   -1.2307    0.0000 C   0  0  0  0  0  0  0  0  0  0  0  0
    0.3443   -0.4057    0.0000 C   0  0  0  0  0  0  0  0  0  0  0  0
    1.0588    0.0068    0.0000 C   0  0  0  0  0  0  0  0  0  0  0  0
    1.0588   -1.6432    0.0000 C   0  0  0  0  0  0  0  0  0  0  0  0
    1.7733   -1.2307    0.0000 C   0  0  0  0  0  0  0  0  0  0  0  0
    1.7733   -0.4057    0.0000 C   0  0  0  0  0  0  0  0  0  0  0  0
    1.7733    1.2443    0.0000 C   0  0  0  0  0  0  0  0  0  0  0  0
    1.0588    0.8318    0.0000 C   0  0  0  0  0  0  0  0  0  0  0  0
    2.4877    0.0068    0.0000 C   0  0  0  0  0  0  0  0  0  0  0  0
    2.4877    0.8318    0.0000 C   0  0  0  0  0  0  0  0  0  0  0  0
    3.2022    1.2443    0.0000 C   0  0  0  0  0  0  0  0  0  0  0  0
    3.2022   -0.4057    0.0000 C   0  0  0  0  0  0  0  0  0  0  0  0
    3.9167    0.0068    0.0000 C   0  0  0  0  0  0  0  0  0  0  0  0
    3.9167    0.8318    0.0000 C   0  0  0  0  0  0  0  0  0  0  0  0
    4.7412    0.8606    0.0000 C   0  0  0  0  0  0  0  0  0  0  0  0
    6.0029    0.1898    0.0000 C   0  0  0  0  0  0  0  0  0  0  0  0
    5.1784    0.1610    0.0000 C   0  0  0  0  0  0  0  0  0  0  0  0
    4.7911   -0.5675    0.0000 C   0  0  0  0  0  0  0  0  0  0  0  0
    2.4877    2.4818    0.0000 O   0  0  0  0  0  0  0  0  0  0  0  0
    3.2022    2.0693    0.0000 C   0  0  0  0  0  0  0  0  0  0  0  0
    5.1285    1.5890    0.0000 C   0  0  0  0  0  0  0  0  0  0  0  0
    3.9167    2.4818    0.0000 O   0  0  0  0  0  0  0  0  0  0  0  0
    4.3539    1.5314    0.0000 C   0  0  0  0  0  0  0  0  0  0  0  0
    2.4877   -0.8182    0.0000 C   0  0  0  0  0  0  0  0  0  0  0  0
    2.4877    1.6568    0.0000 C   0  0  0  0  0  0  0  0  0  0  0  0
    1.7582    0.4770    0.0000 H   0  0  0  0  0  0  0  0  0  0  0  0
    0.3012   -2.0546    0.0000 H   0  0  0  0  0  0  0  0  0  0  0  0
   -0.1885   -0.3862    0.0000 C   0  0  0  0  0  0  0  0  0  0  0  0
   -0.6018   -1.1900    0.0000 C   0  0  0  0  0  0  0  0  0  0  0  0
   -0.6325   -0.7458    0.0000 O   0  0  0  0  0  0  0  0  0  0  0  0
   -1.7991    0.0068    0.0000 N   0  0  0  0  0  0  0  0  0  0  0  0
   -1.7991   -1.6432    0.0000 O   0  0  0  0  0  0  0  0  0  0  0  0
   -2.5135   -1.2307    0.0000 C   0  0  0  0  0  0  0  0  0  0  0  0
   -3.2280   -1.6432    0.0000 C   0  0  0  0  0  0  0  0  0  0  0  0
   -2.8418   -2.2729    0.0000 N   0  0  0  0  0  0  0  0  0  0  0  0
   -3.4973   -2.2992    0.0000 C   0  0  0  0  0  0  0  0  0  0  0  0
   -3.9199   -1.1938    0.0000 C   0  0  0  0  0  0  0  0  0  0  0  0
   -4.6118   -0.7445    0.0000 C   0  0  0  0  0  0  0  0  0  0  0  0
   -3.9771   -0.4240    0.0000 C   0  0  0  0  0  0  0  0  0  0  0  0
   -4.5640   -1.4377    0.0000 C   0  0  0  0  0  0  0  0  0  0  0  0
   -2.6923    0.9988    0.0000 N   0  0  0  0  0  0  0  0  0  0  0  0
   -3.1048    0.2844    0.0000 C   0  0  0  0  0  0  0  0  0  0  0  0
   -2.5527   -0.3287    0.0000 N   0  0  0  0  0  0  0  0  0  0  0  0
   -1.8853    0.8273    0.0000 C   0  0  0  0  0  0  0  0  0  0  0  0
   -1.2722    1.3793    0.0000 C   0  0  0  0  0  0  0  0  0  0  0  0
   -0.0460    2.4834    0.0000 N   0  0  0  0  0  0  0  0  0  0  0  0
   -0.8307    2.7383    0.0000 C   0  0  0  0  0  0  0  0  0  0  0  0
   -1.4438    2.1863    0.0000 C   0  0  0  0  0  0  0  0  0  0  0  0
   -0.4876    1.1244    0.0000 C   0  0  0  0  0  0  0  0  0  0  0  0
    0.1255    1.6764    0.0000 C   0  0  0  0  0  0  0  0  0  0  0  0
   -0.4133   -2.4671    0.0000 C   0  0  0  0  0  0  0  0  0  0  0  0
  1  2  1  0
  2  3  1  0
  3  4  1  0
  4  5  1  0
  5  6  2  0
  5  7  1  0
  1  8  2  0
  1  9  1  0
  3 10  1  0
  3 11  1  0
 11 12  2  0
 11 13  1  0
 14 15  1  0
 15 16  1  0
 16 17  1  0
 17 18  1  0
 18 19  1  0
 19 14  1  6
 21 22  1  0
 22 23  1  0
 20 23  1  0
 18 21  1  0
 20 19  1  0
 24 25  1  0
 26 27  1  0
 24 27  1  0
 25 20  2  0
 23 26  1  0
 29 30  1  0
 30 31  1  0
 28 31  1  0
 26 29  1  0
 28 27  1  0
 33 34  1  0
 32 34  1  0
 31 32  1  1
 35 34  1  0
 36 37  1  0
 28 37  1  6
 32 38  1  6
 39 37  2  0
 31 40  1  6
 26 41  1  1
 27 42  1  6
 23 43  1  6
 18 44  1  6
 19 45  1  0
 17 46  1  0
 46 47  1  0
 47 45  1  0
 15 48  1  6
 16 49  1  1
 49 50  1  0
 50 51  1  0
 51 52  1  6
 51 53  1  0
 51 54  1  0
 54 55  1  0
 54 56  1  0
 54 57  1  0
 58 59  1  0
 59 60  2  0
 58 61  2  0
 60 48  1  0
 48 61  1  0
 61 62  1  0
 63 64  1  0
 64 65  2  0
 66 67  1  0
 63 67  2  0
 65 62  1  0
 62 66  2  0
 17 68  1  1
M  END
> <chembl_id>
CHEMBL4298168

> <chembl_pref_name>
IBREXAFUNGERP CITRATE
