
     RDKit          2D

 15 15  0  0  0  0  0  0  0  0999 V2000
    6.5542  -10.3667    0.0000 Cl  0  0  0  0  0  0  0  0  0  0  0  0
    6.7542   -8.6917    0.0000 C   0  0  0  0  0  0  0  0  0  0  0  0
    7.8167   -9.3042    0.0000 C   0  0  0  0  0  0  0  0  0  0  0  0
    7.1000   -9.3042    0.0000 N   0  0  0  0  0  0  0  0  0  0  0  0
    6.9667   -8.0250    0.0000 N   0  0  0  0  0  0  0  0  0  0  0  0
    6.0417   -8.6917    0.0000 N   0  0  0  0  0  0  0  0  0  0  0  0
    8.1750   -8.6917    0.0000 C   0  0  0  0  0  0  0  0  0  0  0  0
    8.1750   -9.9250    0.0000 C   0  0  0  0  0  0  0  0  0  0  0  0
    7.8042  -10.5417    0.0000 Cl  0  0  0  0  0  0  0  0  0  0  0  0
    7.8167   -8.0667    0.0000 Cl  0  0  0  0  0  0  0  0  0  0  0  0
    6.3917   -7.6125    0.0000 C   0  0  0  0  0  0  0  0  0  0  0  0
    5.8250   -8.0167    0.0000 C   0  0  0  0  0  0  0  0  0  0  0  0
    9.2292   -9.3042    0.0000 C   0  0  0  0  0  0  0  0  0  0  0  0
    8.8875   -8.6917    0.0000 C   0  0  0  0  0  0  0  0  0  0  0  0
    8.8875   -9.9250    0.0000 C   0  0  0  0  0  0  0  0  0  0  0  0
  3  4  1  0
  4  2  1  0
  5  2  2  0
  6  2  1  0
  7  3  1  0
  8  3  2  0
  9  8  1  0
 10  7  1  0
 11  5  1  0
 12  6  1  0
 13 15  2  0
 14  7  2  0
 15  8  1  0
 12 11  1  0
 14 13  1  0
M  END
> <chembl_id>
CHEMBL1705

> <chembl_pref_name>
CLONIDINE HYDROCHLORIDE
