
     RDKit          2D

 66 74  0  0  0  0  0  0  0  0999 V2000
   -0.2416   -1.4218    0.0000 O   0  0  0  0  0  0  0  0  0  0  0  0
    0.1798   -2.1310    0.0000 C   0  0  0  0  0  0  0  0  0  0  0  0
    1.0005   -2.1183    0.0000 C   0  0  0  0  0  0  0  0  0  0  0  0
    1.4040   -1.4035    0.0000 C   0  0  0  0  0  0  0  0  0  0  0  0
    0.9825   -0.6943    0.0000 C   0  0  0  0  0  0  0  0  0  0  0  0
    0.1576   -0.6998    0.0000 C   0  0  0  0  0  0  0  0  0  0  0  0
    1.3881    0.0242    0.0000 C   0  0  0  0  0  0  0  0  0  0  0  0
   -0.2639    0.0093    0.0000 C   0  0  0  0  0  0  0  0  0  0  0  0
    2.2290   -1.3943    0.0000 C   0  0  0  0  0  0  0  0  0  0  0  0
   -0.2226   -2.8512    0.0000 C   0  0  0  0  0  0  0  0  0  0  0  0
    0.1999   -3.5600    0.0000 C   0  0  0  0  0  0  0  0  0  0  0  0
    1.0245   -3.5233    0.0000 C   0  0  0  0  0  0  0  0  0  0  0  0
    1.6350   -4.0742    0.0000 C   0  0  0  0  0  0  0  0  0  0  0  0
    2.3522   -3.6666    0.0000 C   0  0  0  0  0  0  0  0  0  0  0  0
    2.1860   -2.8585    0.0000 C   0  0  0  0  0  0  0  0  0  0  0  0
    1.3663   -2.7668    0.0000 O   0  0  0  0  0  0  0  0  0  0  0  0
    1.5455   -4.8944    0.0000 C   0  0  0  0  0  0  0  0  0  0  0  0
    2.7887   -2.2950    0.0000 C   0  0  0  0  0  0  0  0  0  0  0  0
   -1.0891    0.0164    0.0000 C   0  0  0  0  0  0  0  0  0  0  0  0
   -1.3445    0.8025    0.0000 C   0  0  0  0  0  0  0  0  0  0  0  0
   -2.1695    0.8034    0.0000 C   0  0  0  0  0  0  0  0  0  0  0  0
   -2.4253    0.0190    0.0000 C   0  0  0  0  0  0  0  0  0  0  0  0
   -1.7583   -0.4665    0.0000 O   0  0  0  0  0  0  0  0  0  0  0  0
   -0.9409    1.5223    0.0000 C   0  0  0  0  0  0  0  0  0  0  0  0
   -0.1160    1.5328    0.0000 C   0  0  0  0  0  0  0  0  0  0  0  0
    0.2875    2.2524    0.0000 C   0  0  0  0  0  0  0  0  0  0  0  0
    0.3056    0.8236    0.0000 O   0  0  0  0  0  0  0  0  0  0  0  0
    1.1124    2.2628    0.0000 C   0  0  0  0  0  0  0  0  0  0  0  0
    1.5291    1.5492    0.0000 O   0  0  0  0  0  0  0  0  0  0  0  0
    2.3374    2.9865    0.0000 C   0  0  0  0  0  0  0  0  0  0  0  0
    1.5098    2.9797    0.0000 C   0  0  0  0  0  0  0  0  0  0  0  0
    2.7577    2.2755    0.0000 C   0  0  0  0  0  0  0  0  0  0  0  0
    2.3481    1.5545    0.0000 C   0  0  0  0  0  0  0  0  0  0  0  0
    2.7654    0.8433    0.0000 C   0  0  0  0  0  0  0  0  0  0  0  0
    3.5939    0.8468    0.0000 C   0  0  0  0  0  0  0  0  0  0  0  0
    4.0035    1.5677    0.0000 C   0  0  0  0  0  0  0  0  0  0  0  0
    3.5846    2.2852    0.0000 O   0  0  0  0  0  0  0  0  0  0  0  0
    3.1625    2.9958    0.0000 H   0  0  0  0  0  0  0  0  0  0  0  0
    0.6917    2.9833    0.0000 H   0  0  0  0  0  0  0  0  0  0  0  0
    2.3569    0.1265    0.0000 O   0  0  0  0  0  0  0  0  0  0  0  0
    4.0104    0.1346    0.0000 O   0  0  0  0  0  0  0  0  0  0  0  0
    4.8285    1.5726    0.0000 C   0  0  0  0  0  0  0  0  0  0  0  0
    2.6020   -1.4914    0.0000 C   0  0  0  0  0  0  0  0  0  0  0  0
    3.2047   -0.9280    0.0000 C   0  0  0  0  0  0  0  0  0  0  0  0
    3.0180   -0.1244    0.0000 O   0  0  0  0  0  0  0  0  0  0  0  0
    4.8354    0.1392    0.0000 C   0  0  0  0  0  0  0  0  0  0  0  0
    4.0292   -0.9250    0.0000 C   0  0  0  0  0  0  0  0  0  0  0  0
   -2.6537    1.4714    0.0000 O   0  0  0  0  0  0  0  0  0  0  0  0
   -2.3173    2.2247    0.0000 C   0  0  0  0  0  0  0  0  0  0  0  0
   -3.1537   -0.3672    0.0000 C   0  0  0  0  0  0  0  0  0  0  0  0
   -3.8531    0.0704    0.0000 C   0  0  0  0  0  0  0  0  0  0  0  0
   -4.5817   -0.3166    0.0000 C   0  0  0  0  0  0  0  0  0  0  0  0
   -3.8238    0.8948    0.0000 O   0  0  0  0  0  0  0  0  0  0  0  0
    0.3667    0.1042    0.0000 H   0  0  0  0  0  0  0  0  0  0  0  0
   -0.6208   -2.3417    0.0000 H   0  0  0  0  0  0  0  0  0  0  0  0
    2.8958   -3.2708    0.0000 H   0  0  0  0  0  0  0  0  0  0  0  0
    4.5833    2.1583    0.0000 H   0  0  0  0  0  0  0  0  0  0  0  0
    1.7583    2.1458    0.0000 H   0  0  0  0  0  0  0  0  0  0  0  0
    1.9625    1.0625    0.0000 H   0  0  0  0  0  0  0  0  0  0  0  0
    3.1750    1.5667    0.0000 H   0  0  0  0  0  0  0  0  0  0  0  0
    0.6042   -4.2333    0.0000 H   0  0  0  0  0  0  0  0  0  0  0  0
   -1.7625    1.5208    0.0000 H   0  0  0  0  0  0  0  0  0  0  0  0
   -1.0958   -0.8083    0.0000 H   0  0  0  0  0  0  0  0  0  0  0  0
    5.4083    2.1625    0.0000 H   0  0  0  0  0  0  0  0  0  0  0  0
    5.6583    0.1417    0.0000 H   0  0  0  0  0  0  0  0  0  0  0  0
   -5.2811    0.1210    0.0000 N   0  0  0  0  0  0  0  0  0  0  0  0
 30 31  1  0
 32 33  1  0
 14 15  1  0
 15 16  1  0
 16 12  1  0
  6  8  1  0
 13 17  2  0
  1  6  1  0
 32 37  1  0
 33 34  1  0
 34 35  1  0
 35 36  1  0
 36 37  1  0
 15 18  1  0
 32 38  1  1
  4  9  1  6
 28 39  1  6
 19  8  1  0
 34 40  1  0
 19 20  1  0
 35 41  1  0
  2  3  1  0
 36 42  1  0
  2 10  1  0
 18 43  1  0
  3  4  1  0
 43 44  1  0
 10 11  1  0
 44 45  1  1
 40 44  1  0
 20 21  1  0
 46 41  1  0
 42 46  1  0
 21 22  1  0
 44 47  1  0
 47 46  1  0
 22 23  1  0
 21 48  1  6
 23 19  1  0
 48 49  1  0
  4  5  1  0
 22 50  1  6
 20 24  1  0
 50 51  1  0
 11 12  1  0
 51 52  1  0
 24 25  1  0
 51 53  1  1
 12 13  1  0
 52 66  1  0
 25 26  1  0
  6 54  1  1
  5  6  1  0
  2 55  1  1
 25 27  2  0
 15 56  1  6
 36 57  1  6
 45 42  1  0
 26 28  1  0
 33 58  1  6
 28 29  1  0
 34 59  1  6
  5  7  2  0
 35 60  1  6
  1  2  1  0
 12 61  1  1
 13 14  1  0
 20 62  1  6
 28 31  1  0
 19 63  1  1
 29 33  1  0
 42 64  1  1
 32 30  1  0
 46 65  1  6
M  END
> <chembl_id>
CHEMBL1683590

> <chembl_pref_name>
ERIBULIN
