
     RDKit          2D

 17 18  0  0  0  0  0  0  0  0999 V2000
    0.5667   -0.7167    0.0000 C   0  0  0  0  0  0  0  0  0  0  0  0
    1.8042   -1.4292    0.0000 C   0  0  0  0  0  0  0  0  0  0  0  0
   -0.6708   -2.8792    0.0000 N   0  0  0  0  0  0  0  0  0  0  0  0
   -0.6708   -1.4500    0.0000 C   0  0  0  0  0  0  0  0  0  0  0  0
    0.5667    0.7208    0.0000 C   0  0  0  0  0  0  0  0  0  0  0  0
    1.8042   -2.8542    0.0000 O   0  0  0  0  0  0  0  0  0  0  0  0
    3.0417   -0.7167    0.0000 O   0  0  0  0  0  0  0  0  0  0  0  0
   -1.9125   -3.5917    0.0000 C   0  0  0  0  0  0  0  0  0  0  0  0
    1.8042    1.4375    0.0000 C   0  0  0  0  0  0  0  0  0  0  0  0
   -0.6708    1.4583    0.0000 C   0  0  0  0  0  0  0  0  0  0  0  0
   -1.9125   -0.7375    0.0000 C   0  0  0  0  0  0  0  0  0  0  0  0
    3.0417    0.7208    0.0000 C   0  0  0  0  0  0  0  0  0  0  0  0
   -3.1500   -2.8792    0.0000 C   0  0  0  0  0  0  0  0  0  0  0  0
   -0.6708    2.8833    0.0000 C   0  0  0  0  0  0  0  0  0  0  0  0
    1.8042    2.8833    0.0000 C   0  0  0  0  0  0  0  0  0  0  0  0
   -3.1500   -1.4667    0.0000 C   0  0  0  0  0  0  0  0  0  0  0  0
    0.5667    3.5958    0.0000 C   0  0  0  0  0  0  0  0  0  0  0  0
  2  1  1  0
  3  4  1  0
  4  1  1  0
  5  1  1  0
  6  2  2  0
  7  2  1  0
  8  3  1  0
  9  5  2  0
 10  5  1  0
 11  4  1  0
 12  7  1  0
 13 16  1  0
 14 10  2  0
 15  9  1  0
 16 11  1  0
 17 14  1  0
 15 17  2  0
  8 13  1  0
M  END
> <chembl_id>
CHEMBL796

> <chembl_pref_name>
METHYLPHENIDATE
