
     RDKit          2D

 18 19  0  0  0  0  0  0  0  0999 V2000
   -2.8375    0.0625    0.0000 N   0  0  0  0  0  0  0  0  0  0  0  0
   -1.5833    0.7833    0.0000 C   0  0  0  0  0  0  0  0  0  0  0  0
   -0.3375    0.0625    0.0000 C   0  0  0  0  0  0  0  0  0  0  0  0
   -2.8375   -1.4042    0.0000 C   0  0  0  0  0  0  0  0  0  0  0  0
   -1.5833   -2.1292    0.0000 N   0  0  0  0  0  0  0  0  0  0  0  0
   -0.3375   -1.4042    0.0000 C   0  0  0  0  0  0  0  0  0  0  0  0
   -1.5833    2.2333    0.0000 O   0  0  0  0  0  0  0  0  0  0  0  0
   -4.0833   -2.1292    0.0000 O   0  0  0  0  0  0  0  0  0  0  0  0
    1.3417    0.0708    0.0000 C   0  0  0  0  0  0  0  0  0  0  0  0
    0.9375   -2.1292    0.0000 O   0  0  0  0  0  0  0  0  0  0  0  0
   -4.0833    0.7833    0.0000 C   0  0  0  0  0  0  0  0  0  0  0  0
    0.2542    1.0083    0.0000 C   0  0  0  0  0  0  0  0  0  0  0  0
    2.0917   -1.1792    0.0000 C   0  0  0  0  0  0  0  0  0  0  0  0
    2.0792    1.3458    0.0000 C   0  0  0  0  0  0  0  0  0  0  0  0
   -0.2583    2.0000    0.0000 C   0  0  0  0  0  0  0  0  0  0  0  0
    3.5667   -1.2042    0.0000 C   0  0  0  0  0  0  0  0  0  0  0  0
    3.5167    1.3500    0.0000 C   0  0  0  0  0  0  0  0  0  0  0  0
    4.2667    0.1083    0.0000 C   0  0  0  0  0  0  0  0  0  0  0  0
  2  1  1  0
  3  2  1  0
  4  1  1  0
  5  4  1  0
  6  5  1  0
  7  2  2  0
  8  4  2  0
  9  3  1  0
 10  6  2  0
 11  1  1  0
 12  3  1  0
 13  9  1  0
 14  9  2  0
 15 12  1  0
 16 13  2  0
 17 14  1  0
 18 17  2  0
  3  6  1  0
 16 18  1  0
M  END
> <chembl_id>
CHEMBL45029

> <chembl_pref_name>
MEPHOBARBITAL
