
     RDKit          2D

 29 31  0  0  0  0  0  0  0  0999 V2000
    7.6417   -4.4250    0.0000 C   0  0  0  0  0  0  0  0  0  0  0  0
    7.6375   -3.7167    0.0000 O   0  0  0  0  0  0  0  0  0  0  0  0
    7.0292   -4.7833    0.0000 C   0  0  0  0  0  0  0  0  0  0  0  0
    8.2542   -4.7792    0.0000 O   0  0  0  0  0  0  0  0  0  0  0  0
    6.4167   -4.4292    0.0000 C   0  0  0  0  0  0  0  0  0  0  0  0
    7.0292   -5.4958    0.0000 C   0  0  0  0  0  0  0  0  0  0  0  0
    5.8042   -4.7875    0.0000 C   0  0  0  0  0  0  0  0  0  0  0  0
    6.4167   -5.8500    0.0000 C   0  0  0  0  0  0  0  0  0  0  0  0
    5.8042   -5.4958    0.0000 C   0  0  0  0  0  0  0  0  0  0  0  0
   -1.6583   -4.5542    0.0000 N   0  0  0  0  0  0  0  0  0  0  0  0
    2.6292   -5.4917    0.0000 N   0  0  0  0  0  0  0  0  0  0  0  0
    1.9500   -4.5417    0.0000 C   0  0  0  0  0  0  0  0  0  0  0  0
   -0.5083   -4.5542    0.0000 N   0  0  0  0  0  0  0  0  0  0  0  0
   -0.7333   -5.2500    0.0000 N   0  0  0  0  0  0  0  0  0  0  0  0
    2.6167   -4.3500    0.0000 C   0  0  0  0  0  0  0  0  0  0  0  0
    3.0292   -4.8875    0.0000 C   0  0  0  0  0  0  0  0  0  0  0  0
   -1.4458   -5.2500    0.0000 C   0  0  0  0  0  0  0  0  0  0  0  0
    1.9500   -5.2667    0.0000 C   0  0  0  0  0  0  0  0  0  0  0  0
   -1.0875   -4.1542    0.0000 C   0  0  0  0  0  0  0  0  0  0  0  0
    1.3292   -4.1917    0.0000 C   0  0  0  0  0  0  0  0  0  0  0  0
    0.7167   -4.5417    0.0000 C   0  0  0  0  0  0  0  0  0  0  0  0
    2.6167   -3.6292    0.0000 C   0  0  0  0  0  0  0  0  0  0  0  0
    0.1042   -4.1917    0.0000 C   0  0  0  0  0  0  0  0  0  0  0  0
    1.3292   -5.6292    0.0000 C   0  0  0  0  0  0  0  0  0  0  0  0
    3.8417   -3.6292    0.0000 N   0  0  0  0  0  0  0  0  0  0  0  0
    3.2167   -3.2875    0.0000 C   0  0  0  0  0  0  0  0  0  0  0  0
    0.7167   -5.2667    0.0000 C   0  0  0  0  0  0  0  0  0  0  0  0
    3.8417   -4.3500    0.0000 C   0  0  0  0  0  0  0  0  0  0  0  0
    4.4417   -3.2667    0.0000 C   0  0  0  0  0  0  0  0  0  0  0  0
  2  1  2  0
  3  1  1  0
  4  1  1  0
  5  3  2  0
  6  3  1  0
  7  5  1  0
  8  6  2  0
  9  7  2  0
  8  9  1  0
 11 18  1  0
 12 20  1  0
 13 19  1  0
 14 17  2  0
 15 12  1  0
 16 15  2  0
 17 10  1  0
 18 12  2  0
 19 10  2  0
 20 21  2  0
 21 23  1  0
 22 15  1  0
 23 13  1  0
 24 27  2  0
 25 26  1  0
 26 22  1  0
 27 21  1  0
 28 25  1  0
 29 25  1  0
 14 13  1  0
 24 18  1  0
 16 11  1  0
M  END
> <chembl_id>
CHEMBL1201032

> <chembl_pref_name>
RIZATRIPTAN BENZOATE
