
     RDKit          2D

 58 66  0  0  1  0  0  0  0  0999 V2000
   11.9233    0.1844    0.0000 C   0  0  0  0  0  0  0  0  0  0  0  0
   15.5744   -0.1954    0.0000 C   0  0  0  0  0  0  0  0  0  0  0  0
   16.3068   -1.4268    0.0000 C   0  0  0  0  0  0  0  0  0  0  0  0
   11.2452    0.5913    0.0000 C   0  0  0  0  0  0  0  0  0  0  0  0
   15.5744   -1.0037    0.0000 C   0  0  0  0  0  0  0  0  0  0  0  0
   17.0066   -0.1628    0.0000 C   0  0  0  0  0  0  0  0  0  0  0  0
   14.8420   -1.4268    0.0000 N   0  0  0  0  0  0  0  0  0  0  0  0
   16.2525    0.1681    0.0000 C   0  0  0  0  0  0  0  0  0  0  0  0
   14.0879   -1.0037    0.0000 C   0  0  0  0  0  0  0  0  0  0  0  0
   14.0879   -0.1954    0.0000 C   0  0  0  0  0  0  0  0  0  0  0  0
   17.0066   -0.9929    0.0000 C   0  0  0  0  0  0  0  0  0  0  0  0
   12.6557   -0.1954    0.0000 C   0  0  0  0  0  0  0  0  0  0  0  0
   11.2452    1.3725    0.0000 C   0  0  0  0  0  0  0  0  0  0  0  0
   10.5454    0.1844    0.0000 N   0  0  0  0  0  0  0  0  0  0  0  0
   13.3935   -1.4323    0.0000 C   0  0  0  0  0  0  0  0  0  0  0  0
   13.3555    0.1790    0.0000 C   0  0  0  0  0  0  0  0  0  0  0  0
   16.2525    1.0090    0.0000 N   0  0  0  0  0  0  0  0  0  0  0  0
   16.7625   -2.1484    0.0000 C   0  0  0  0  0  0  0  0  0  0  0  0
   11.4405   -0.5317    0.0000 C   0  0  0  0  0  0  0  0  0  0  0  0
    9.8618    1.3725    0.0000 C   0  0  0  0  0  0  0  0  0  0  0  0
   12.6557   -1.0037    0.0000 C   0  0  0  0  0  0  0  0  0  0  0  0
    9.8618    0.5913    0.0000 C   0  0  0  0  0  0  0  0  0  0  0  0
   11.8907    2.6257    0.0000 N   0  0  0  0  0  0  0  0  0  0  0  0
   14.8420    0.1790    0.0000 C   0  0  0  0  0  0  0  0  0  0  0  0
   12.6286    0.5913    0.0000 C   0  0  0  0  0  0  0  0  0  0  0  0
   17.7823    0.2007    0.0000 C   0  0  0  0  0  0  0  0  0  0  0  0
   10.5454    1.7576    0.0000 C   0  0  0  0  0  0  0  0  0  0  0  0
   13.3284    2.6365    0.0000 C   0  0  0  0  0  0  0  0  0  0  0  0
   12.6286    1.3725    0.0000 C   0  0  0  0  0  0  0  0  0  0  0  0
   14.8365    1.0090    0.0000 C   0  0  0  0  0  0  0  0  0  0  0  0
   15.9324   -2.2731    0.0000 O   0  0  0  0  0  0  0  0  0  0  0  0
   17.7823    1.0578    0.0000 C   0  0  0  0  0  0  0  0  0  0  0  0
   12.6286    3.0596    0.0000 C   0  0  0  0  0  0  0  0  0  0  0  0
   11.9125    1.7576    0.0000 C   0  0  0  0  0  0  0  0  0  0  0  0
   17.6413   -2.1484    0.0000 O   0  0  0  0  0  0  0  0  0  0  0  0
   11.8311   -1.3672    0.0000 O   0  0  0  0  0  0  0  0  0  0  0  0
   10.5454    2.6257    0.0000 C   0  0  0  0  0  0  0  0  0  0  0  0
   13.3392    1.8065    0.0000 C   0  0  0  0  0  0  0  0  0  0  0  0
   17.7823   -1.3997    0.0000 O   0  0  0  0  0  0  0  0  0  0  0  0
   17.8041   -0.5534    0.0000 C   0  0  0  0  0  0  0  0  0  0  0  0
   16.3827   -2.9459    0.0000 N   0  0  0  0  0  0  0  0  0  0  0  0
   14.8365   -2.2949    0.0000 C   0  0  0  0  0  0  0  0  0  0  0  0
   17.0011    1.5135    0.0000 C   0  0  0  0  0  0  0  0  0  0  0  0
   10.5291   -0.4721    0.0000 O   0  0  0  0  0  0  0  0  0  0  0  0
   12.1023   -1.5082    0.0000 O   0  0  0  0  0  0  0  0  0  0  0  0
   13.8167    3.4177    0.0000 O   0  0  0  0  0  0  0  0  0  0  0  0
    9.1891    1.7631    0.0000 C   0  0  0  0  0  0  0  0  0  0  0  0
    9.1891    0.1844    0.0000 C   0  0  0  0  0  0  0  0  0  0  0  0
   14.2073    2.7830    0.0000 C   0  0  0  0  0  0  0  0  0  0  0  0
   12.1023   -2.3925    0.0000 C   0  0  0  0  0  0  0  0  0  0  0  0
   10.0028   -1.2478    0.0000 C   0  0  0  0  0  0  0  0  0  0  0  0
   18.5202   -0.0760    0.0000 C   0  0  0  0  0  0  0  0  0  0  0  0
   14.7281    2.0994    0.0000 C   0  0  0  0  0  0  0  0  0  0  0  0
    8.4892    1.3725    0.0000 C   0  0  0  0  0  0  0  0  0  0  0  0
    8.4892    0.5913    0.0000 C   0  0  0  0  0  0  0  0  0  0  0  0
   13.4912    0.8517    0.0000 H   0  0  0  0  0  0  0  0  0  0  0  0
   16.2525   -0.5534    0.0000 H   0  0  0  0  0  0  0  0  0  0  0  0
   15.5744   -1.9043    0.0000 H   0  0  0  0  0  0  0  0  0  0  0  0
  2 10  1  0
  3  5  1  0
  4  1  1  0
  5  2  1  0
  6  8  1  0
  7  9  1  0
  8  2  1  0
  9 15  1  0
 10 16  1  0
 11  6  1  0
 12  1  1  0
 13  4  2  0
 14  4  1  0
 15 21  2  0
 16 12  2  0
 17  8  1  0
 18  3  1  0
  1 19  1  1
 20 13  1  0
 21 12  1  0
 22 14  1  0
 23 34  1  0
  2 24  1  1
 25  1  1  0
 26  6  1  0
 27 13  1  0
 28 38  1  0
 29 25  1  0
 30 24  1  0
  3 31  1  1
 32 43  1  0
 33 28  1  0
 34 29  1  0
 35 18  2  0
 36 19  2  0
 37 27  1  0
 38 29  1  0
 11 39  1  1
  6 40  1  6
 41 18  1  0
 42  7  1  0
 43 17  1  0
 44 19  1  0
 45 21  1  0
 46 28  1  0
 47 20  1  0
 48 22  1  0
 28 49  1  6
 50 45  1  0
 51 44  1  0
 52 40  1  0
 53 49  1  0
 54 47  2  0
 55 48  2  0
 29 56  1  6
  8 57  1  6
  5 58  1  1
 20 22  2  0
 10  9  2  0
 37 23  1  0
 54 55  1  0
 23 33  1  0
  5  7  1  0
 17 30  1  0
  3 11  1  0
 26 32  2  0
M  END
> <chembl_id>
CHEMBL238071

> <chembl_pref_name>
VINDESINE
