
     RDKit          2D

 69 70  0  0  0  0  0  0  0  0999 V2000
    8.6824   -6.4159    0.0000 C   0  0  0  0  0  0  0  0  0  0  0  0
    9.4006   -6.8333    0.0000 C   0  0  0  0  0  0  0  0  0  0  0  0
    7.9689   -6.8333    0.0000 C   0  0  0  0  0  0  0  0  0  0  0  0
    7.2506   -6.4159    0.0000 C   0  0  0  0  0  0  0  0  0  0  0  0
   10.1189   -6.4159    0.0000 C   0  0  0  0  0  0  0  0  0  0  0  0
    6.5421   -6.8333    0.0000 C   0  0  0  0  0  0  0  0  0  0  0  0
   10.1189   -5.5860    0.0000 O   0  0  0  0  0  0  0  0  0  0  0  0
    9.4006   -7.6583    0.0000 O   0  0  0  0  0  0  0  0  0  0  0  0
    8.6824   -5.5860    0.0000 O   0  0  0  0  0  0  0  0  0  0  0  0
    7.9689   -7.6583    0.0000 O   0  0  0  0  0  0  0  0  0  0  0  0
    7.2506   -5.5860    0.0000 O   0  0  0  0  0  0  0  0  0  0  0  0
   10.8274   -6.8333    0.0000 O   0  0  0  0  0  0  0  0  0  0  0  0
    6.5421   -7.6583    0.0000 O   0  0  0  0  0  0  0  0  0  0  0  0
    5.1153   -6.8333    0.0000 O   0  0  0  0  0  0  0  0  0  0  0  0
    5.8238   -6.4159    0.0000 C   0  0  0  0  0  0  0  0  0  0  0  0
    3.1545   -8.5415    0.0000 C   0  0  0  0  0  0  0  0  0  0  0  0
    0.5145   -7.2652    0.0000 C   0  0  0  0  0  0  0  0  0  0  0  0
   -0.9027   -7.2701    0.0000 C   0  0  0  0  0  0  0  0  0  0  0  0
   -1.6161   -5.2172    0.0000 C   0  0  0  0  0  0  0  0  0  0  0  0
   -0.1893   -7.6778    0.0000 C   0  0  0  0  0  0  0  0  0  0  0  0
    2.7421   -9.2502    0.0000 C   0  0  0  0  0  0  0  0  0  0  0  0
    1.2279   -6.0325    0.0000 C   0  0  0  0  0  0  0  0  0  0  0  0
    0.5145   -6.4402    0.0000 C   0  0  0  0  0  0  0  0  0  0  0  0
   -0.9027   -3.9942    0.0000 C   0  0  0  0  0  0  0  0  0  0  0  0
   -0.9027   -6.4499    0.0000 O   0  0  0  0  0  0  0  0  0  0  0  0
   -0.9027   -4.8095    0.0000 C   0  0  0  0  0  0  0  0  0  0  0  0
   -0.1989   -3.5816    0.0000 C   0  0  0  0  0  0  0  0  0  0  0  0
    3.1497   -7.4448    0.0000 O   0  0  0  0  0  0  0  0  0  0  0  0
   -1.1016  -10.8517    0.0000 C   0  0  0  0  0  0  0  0  0  0  0  0
    1.9219   -9.2502    0.0000 C   0  0  0  0  0  0  0  0  0  0  0  0
    1.2279   -5.2172    0.0000 C   0  0  0  0  0  0  0  0  0  0  0  0
    0.1359  -10.1431    0.0000 C   0  0  0  0  0  0  0  0  0  0  0  0
   -0.2717  -10.8517    0.0000 C   0  0  0  0  0  0  0  0  0  0  0  0
    2.7421   -7.8281    0.0000 O   0  0  0  0  0  0  0  0  0  0  0  0
   -0.2717   -9.4297    0.0000 O   0  0  0  0  0  0  0  0  0  0  0  0
   -1.6161   -6.0422    0.0000 C   0  0  0  0  0  0  0  0  0  0  0  0
   -1.5142  -10.1431    0.0000 C   0  0  0  0  0  0  0  0  0  0  0  0
    1.2327   -7.6729    0.0000 O   0  0  0  0  0  0  0  0  0  0  0  0
   -1.1016   -9.4297    0.0000 C   0  0  0  0  0  0  0  0  0  0  0  0
    0.5145   -3.9893    0.0000 C   0  0  0  0  0  0  0  0  0  0  0  0
    0.5145   -4.8095    0.0000 C   0  0  0  0  0  0  0  0  0  0  0  0
    1.5045   -8.5415    0.0000 C   0  0  0  0  0  0  0  0  0  0  0  0
    1.5093   -9.9684    0.0000 N   0  0  0  0  0  0  0  0  0  0  0  0
   -1.6210   -7.6825    0.0000 O   0  0  0  0  0  0  0  0  0  0  0  0
    1.9219   -7.8281    0.0000 C   0  0  0  0  0  0  0  0  0  0  0  0
   -0.1989   -2.7566    0.0000 O   0  0  0  0  0  0  0  0  0  0  0  0
   -2.0334   -4.4989    0.0000 O   0  0  0  0  0  0  0  0  0  0  0  0
    3.1594   -9.9684    0.0000 O   0  0  0  0  0  0  0  0  0  0  0  0
    1.6356   -4.4989    0.0000 O   0  0  0  0  0  0  0  0  0  0  0  0
   -0.1942   -5.2269    0.0000 O   0  0  0  0  0  0  0  0  0  0  0  0
   -1.8150  -11.2594    0.0000 O   0  0  0  0  0  0  0  0  0  0  0  0
   -2.3392  -10.1431    0.0000 O   0  0  0  0  0  0  0  0  0  0  0  0
   -2.4411   -5.2172    0.0000 C   0  0  0  0  0  0  0  0  0  0  0  0
   -0.1893   -8.5028    0.0000 C   0  0  0  0  0  0  0  0  0  0  0  0
   -0.1989   -6.0276    0.0000 C   0  0  0  0  0  0  0  0  0  0  0  0
   -1.6210   -3.5816    0.0000 C   0  0  0  0  0  0  0  0  0  0  0  0
   -1.1016  -11.6816    0.0000 C   0  0  0  0  0  0  0  0  0  0  0  0
    2.0578   -5.2172    0.0000 C   0  0  0  0  0  0  0  0  0  0  0  0
   -2.3344   -6.4548    0.0000 C   0  0  0  0  0  0  0  0  0  0  0  0
   -1.5093   -8.7115    0.0000 C   0  0  0  0  0  0  0  0  0  0  0  0
    1.2327   -3.5720    0.0000 C   0  0  0  0  0  0  0  0  0  0  0  0
    0.6843   -9.9684    0.0000 C   0  0  0  0  0  0  0  0  0  0  0  0
    1.9219  -10.6818    0.0000 C   0  0  0  0  0  0  0  0  0  0  0  0
    1.5093   -7.1099    0.0000 C   0  0  0  0  0  0  0  0  0  0  0  0
   -2.5285  -10.8419    0.0000 C   0  0  0  0  0  0  0  0  0  0  0  0
   -3.0478   -6.0422    0.0000 C   0  0  0  0  0  0  0  0  0  0  0  0
    3.8632   -8.9541    0.0000 H   0  0  0  0  0  0  0  0  0  0  0  0
    2.0578   -6.0325    0.0000 H   0  0  0  0  0  0  0  0  0  0  0  0
    0.8493  -10.5556    0.0000 H   0  0  0  0  0  0  0  0  0  0  0  0
  2  1  1  0
  3  1  1  0
  4  3  1  0
  5  2  1  0
  6  4  1  0
  7  5  2  0
  2  8  1  6
  1  9  1  1
  3 10  1  1
  4 11  1  1
 12  5  1  0
  6 13  1  6
 14 15  1  0
 15  6  1  0
 17 23  1  0
 18 20  1  0
 19 26  1  0
 20 17  1  0
 21 16  1  0
 22 28  1  0
 23 22  1  0
 24 27  1  0
 25 18  1  0
 26 24  1  0
 27 40  1  0
 28 16  1  0
 29 33  1  0
 30 21  1  0
 31 22  1  0
 32 38  1  0
 33 32  1  0
 34 16  1  0
 35 32  1  0
 36 25  1  0
 37 39  1  0
 17 38  1  6
 39 35  1  0
 40 41  1  0
 41 31  1  0
 42 45  1  0
 30 43  1  1
 44 18  2  0
 45 34  1  0
 46 27  2  0
 19 47  1  1
 21 48  1  6
 31 49  1  1
 26 50  1  1
 29 51  1  1
 37 52  1  1
 53 19  1  0
 20 54  1  1
 23 55  1  6
 24 56  1  1
 57 29  1  0
 58 31  1  0
 36 59  1  6
 39 60  1  6
 40 61  1  6
 62 43  1  0
 63 43  1  0
 45 64  1  1
 65 51  1  0
 66 59  1  0
 16 67  1  6
 22 68  1  1
 32 69  1  6
 42 30  1  0
 36 19  1  0
 37 29  1  0
M  END
> <chembl_id>
CHEMBL3545060

> <chembl_pref_name>
ERYTHROMYCIN GLUCEPTATE
