
     RDKit          2D

 16 16  0  0  0  0  0  0  0  0999 V2000
    8.0808    0.2647    0.0000 C   0  0  0  0  0  0  0  0  0  0  0  0
    8.7822    0.6565    0.0000 C   0  0  0  0  0  0  0  0  0  0  0  0
    7.3698    0.6565    0.0000 C   0  0  0  0  0  0  0  0  0  0  0  0
    5.1835    0.2502    0.0000 C   0  0  0  0  0  0  0  0  0  0  0  0
    8.4726   -0.4173    0.0000 N   0  0  0  0  0  0  0  0  0  0  0  0
    5.1835   -0.5914    0.0000 C   0  0  0  0  0  0  0  0  0  0  0  0
    5.9041    0.6275    0.0000 C   0  0  0  0  0  0  0  0  0  0  0  0
    6.6297    0.2502    0.0000 C   0  0  0  0  0  0  0  0  0  0  0  0
    8.7822    1.4885    0.0000 O   0  0  0  0  0  0  0  0  0  0  0  0
    5.9041   -0.9978    0.0000 C   0  0  0  0  0  0  0  0  0  0  0  0
    9.5029    0.2502    0.0000 O   0  0  0  0  0  0  0  0  0  0  0  0
    6.6297   -0.5914    0.0000 C   0  0  0  0  0  0  0  0  0  0  0  0
    8.0518   -1.1284    0.0000 N   0  0  0  0  0  0  0  0  0  0  0  0
    4.4821    0.6565    0.0000 O   0  0  0  0  0  0  0  0  0  0  0  0
    7.6649   -0.4463    0.0000 C   0  0  0  0  0  0  0  0  0  0  0  0
    4.4821   -1.0123    0.0000 O   0  0  0  0  0  0  0  0  0  0  0  0
  2  1  1  0
  3  1  1  0
  4  7  2  0
  5  1  1  0
  6 10  2  0
  7  8  1  0
  8  3  1  0
  9  2  2  0
 10 12  1  0
 11  2  1  0
 12  8  2  0
 13  5  1  0
 14  4  1  0
  1 15  1  6
 16  6  1  0
  4  6  1  0
M  END
> <chembl_id>
CHEMBL1201236

> <chembl_pref_name>
CARBIDOPA ANHYDROUS
