
     RDKit          2D

 36 37  0  0  0  0  0  0  0  0999 V2000
    9.0667   -4.7542    0.0000 Na  0  0  0  0  0 15  0  0  0  0  0  0
    7.1250   -5.8792    0.0000 C   0  0  0  0  0  0  0  0  0  0  0  0
    3.4292   -3.7667    0.0000 C   0  0  0  0  0  0  0  0  0  0  0  0
    7.7375   -6.9500    0.0000 C   0  0  0  0  0  0  0  0  0  0  0  0
    2.1917   -3.7667    0.0000 C   0  0  0  0  0  0  0  0  0  0  0  0
    6.5042   -6.2417    0.0000 C   0  0  0  0  0  0  0  0  0  0  0  0
    3.4292   -3.0542    0.0000 C   0  0  0  0  0  0  0  0  0  0  0  0
    2.8167   -4.1167    0.0000 C   0  0  0  0  0  0  0  0  0  0  0  0
    7.7375   -6.2417    0.0000 C   0  0  0  0  0  0  0  0  0  0  0  0
    7.1250   -7.3042    0.0000 O   0  0  0  0  0  0  0  0  0  0  0  0
    2.1917   -3.0542    0.0000 O   0  0  0  0  0  0  0  0  0  0  0  0
    6.5042   -6.9500    0.0000 C   0  0  0  0  0  0  0  0  0  0  0  0
    2.8167   -2.6917    0.0000 C   0  0  0  0  0  0  0  0  0  0  0  0
    8.3500   -7.3042    0.0000 C   0  0  0  0  0  0  0  0  0  0  0  0
    1.5875   -4.1167    0.0000 C   0  0  0  0  0  0  0  0  0  0  0  0
    4.0542   -2.6917    0.0000 C   0  0  0  0  0  0  0  0  0  0  0  0
    5.8875   -5.8792    0.0000 C   0  0  0  0  0  0  0  0  0  0  0  0
    7.1250   -5.1792    0.0000 O   0  0  0  0  0  0  0  0  0  0  0  0
    4.0542   -4.1167    0.0000 O   0  0  0  0  0  0  0  0  0  0  0  0
    8.3500   -8.0250    0.0000 O   0  0  0  0  0  0  0  0  0  0  0  0
    0.9625   -3.7667    0.0000 O   0  0  0  0  0  0  0  0  0  0  0  0
    5.8875   -5.1792    0.0000 O   0  0  0  0  0  0  0  0  0  0  0  0
    4.6667   -3.0542    0.0000 O   0  0  0  0  0  0  0  0  0  0  0  0
    1.5875   -4.8292    0.0000 O   0  0  0  0  0  0  0  0  0  0  0  0
    8.9667   -6.9500    0.0000 O   0  0  0  0  0  0  0  0  0  0  0  0
    5.2667   -4.1167    0.0000 C   0  0  0  0  0  0  0  0  0  0  0  0
    5.2667   -4.8292    0.0000 C   0  0  0  0  0  0  0  0  0  0  0  0
    4.6667   -3.7667    0.0000 C   0  0  0  0  0  0  0  0  0  0  0  0
    5.8875   -7.3042    0.0000 C   0  0  0  0  0  0  0  0  0  0  0  0
    2.8167   -1.9875    0.0000 C   0  0  0  0  0  0  0  0  0  0  0  0
    5.8875   -3.7667    0.0000 O   0  0  0  0  0  0  0  0  0  0  0  0
    5.2667   -6.9500    0.0000 C   0  0  0  0  0  0  0  0  0  0  0  0
    3.4292   -1.6250    0.0000 C   0  0  0  0  0  0  0  0  0  0  0  0
    4.0542   -1.9875    0.0000 C   0  0  0  0  0  0  0  0  0  0  0  0
    5.2667   -6.2417    0.0000 C   0  0  0  0  0  0  0  0  0  0  0  0
    0.7667   -2.5917    0.0000 Na  0  0  0  0  0 15  0  0  0  0  0  0
  3  7  1  0
  4  9  2  0
  5 11  1  0
  6  2  1  0
  7 16  1  0
  8  3  1  0
  9  2  1  0
 10  4  1  0
 11 13  1  0
 12  6  2  0
 13  7  2  0
 14  4  1  0
 15  5  1  0
 16 23  1  0
 17  6  1  0
 18  2  2  0
 19  3  2  0
 20 14  1  0
 21 15  1  0
 22 17  1  0
 23 28  1  0
 24 15  2  0
 25 14  2  0
 26 27  1  0
 27 22  1  0
 28 26  1  0
 29 12  1  0
 30 33  2  0
 31 26  1  0
 32 35  1  0
 33 34  1  0
 34 16  2  0
 35 17  2  0
 10 12  1  0
 32 29  2  0
 30 13  1  0
  5  8  2  0
M  CHG  4   1   1  20  -1  21  -1  36   1
M  END
> <chembl_id>
CHEMBL74

> <chembl_pref_name>
CROMOLYN SODIUM
