
     RDKit          2D

 28 30  0  0  1  0  0  0  0  0999 V2000
    9.9523   -7.2315    0.0000 C   0  0  0  0  0  0  0  0  0  0  0  0
   10.6668   -7.6440    0.0000 N   0  0  0  0  0  0  0  0  0  0  0  0
   11.3812   -7.2315    0.0000 C   0  0  0  0  0  0  0  0  0  0  0  0
   11.3812   -6.4065    0.0000 C   0  0  0  0  0  0  0  0  0  0  0  0
   10.6668   -5.9940    0.0000 C   0  0  0  0  0  0  0  0  0  0  0  0
    9.9523   -6.4065    0.0000 N   0  0  0  0  0  0  0  0  0  0  0  0
    9.1677   -6.1515    0.0000 N   0  0  0  0  0  0  0  0  0  0  0  0
    8.6827   -6.8190    0.0000 C   0  0  0  0  0  0  0  0  0  0  0  0
    9.1677   -7.4864    0.0000 C   0  0  0  0  0  0  0  0  0  0  0  0
   12.0957   -5.9940    0.0000 C   0  0  0  0  0  0  0  0  0  0  0  0
   12.0957   -5.1690    0.0000 O   0  0  0  0  0  0  0  0  0  0  0  0
   12.8102   -6.4065    0.0000 N   0  0  0  0  0  0  0  0  0  0  0  0
    7.8577   -6.8190    0.0000 C   0  0  0  0  0  0  0  0  0  0  0  0
   13.5246   -5.9940    0.0000 C   0  0  0  0  0  0  0  0  0  0  0  0
   14.2391   -6.4065    0.0000 C   0  0  0  0  0  0  0  0  0  0  0  0
   14.6516   -7.1209    0.0000 C   0  0  0  0  0  0  0  0  0  0  0  0
   13.8266   -7.1209    0.0000 C   0  0  0  0  0  0  0  0  0  0  0  0
   14.9536   -5.9940    0.0000 N   0  0  0  0  0  0  0  0  0  0  0  0
   15.6681   -6.4065    0.0000 C   0  0  0  0  0  0  0  0  0  0  0  0
   16.3825   -5.9940    0.0000 C   0  0  0  0  0  0  0  0  0  0  0  0
   16.3825   -5.1690    0.0000 O   0  0  0  0  0  0  0  0  0  0  0  0
   17.0970   -6.4065    0.0000 N   0  0  0  0  0  0  0  0  0  0  0  0
   17.1832   -7.2270    0.0000 C   0  0  0  0  0  0  0  0  0  0  0  0
   17.9902   -7.3985    0.0000 C   0  0  0  0  0  0  0  0  0  0  0  0
   18.4027   -6.6840    0.0000 C   0  0  0  0  0  0  0  0  0  0  0  0
   17.8507   -6.0709    0.0000 C   0  0  0  0  0  0  0  0  0  0  0  0
   16.5701   -7.7790    0.0000 C   0  0  0  0  0  0  0  0  0  0  0  0
   15.9570   -8.3310    0.0000 N   0  0  0  0  0  0  0  0  0  0  0  0
  1  2  1  0
  2  3  2  0
  3  4  1  0
  4  5  2  0
  5  6  1  0
  1  6  1  0
  7  8  2  0
  8  9  1  0
  6  7  1  0
  1  9  2  0
 10 11  2  0
 10 12  1  0
  4 10  1  0
  8 13  1  0
 14 15  1  0
 15 16  1  0
 15 17  1  0
 19 20  1  0
 20 21  2  0
 22 23  1  0
 23 24  1  0
 24 25  1  0
 25 26  1  0
 22 26  1  0
 27 28  3  0
 23 27  1  1
 20 22  1  0
 18 19  1  0
 15 18  1  0
 12 14  1  0
M  END
> <chembl_id>
CHEMBL1929396

> <chembl_pref_name>
ANAGLIPTIN
