
     RDKit          2D

 19 20  0  0  0  0  0  0  0  0999 V2000
   -0.1208   -0.1792    0.0000 O   0  0  0  0  0  0  0  0  0  0  0  0
    0.8667   -0.7417    0.0000 C   0  0  0  0  0  0  0  0  0  0  0  0
    1.8542   -0.1667    0.0000 C   0  0  0  0  0  0  0  0  0  0  0  0
   -1.1083   -0.7625    0.0000 C   0  0  0  0  0  0  0  0  0  0  0  0
    2.8500   -0.7375    0.0000 C   0  0  0  0  0  0  0  0  0  0  0  0
   -2.0958   -0.1917    0.0000 C   0  0  0  0  0  0  0  0  0  0  0  0
   -3.0708    1.4333    0.0000 C   0  0  0  0  0  0  0  0  0  0  0  0
   -2.0958    0.8333    0.0000 C   0  0  0  0  0  0  0  0  0  0  0  0
   -4.1250    0.8750    0.0000 O   0  0  0  0  0  0  0  0  0  0  0  0
    0.8667   -1.9000    0.0000 C   0  0  0  0  0  0  0  0  0  0  0  0
    2.8375   -1.9000    0.0000 C   0  0  0  0  0  0  0  0  0  0  0  0
    1.8542    0.9708    0.0000 Cl  0  0  0  0  0  0  0  0  0  0  0  0
   -2.9333    2.5333    0.0000 O   0  0  0  0  0  0  0  0  0  0  0  0
    1.8875   -2.4667    0.0000 C   0  0  0  0  0  0  0  0  0  0  0  0
    3.8750   -2.4250    0.0000 Cl  0  0  0  0  0  0  0  0  0  0  0  0
   -1.1083   -1.9167    0.0000 C   0  0  0  0  0  0  0  0  0  0  0  0
   -3.1083   -0.7542    0.0000 C   0  0  0  0  0  0  0  0  0  0  0  0
   -2.1208   -2.4792    0.0000 C   0  0  0  0  0  0  0  0  0  0  0  0
   -3.1083   -1.9042    0.0000 C   0  0  0  0  0  0  0  0  0  0  0  0
  2  1  1  0
  3  2  1  0
  4  1  1  0
  5  3  2  0
  6  4  1  0
  7  8  1  0
  8  6  1  0
  9  7  2  0
 10  2  2  0
 11 14  2  0
 12  3  1  0
 13  7  1  0
 14 10  1  0
 15 11  1  0
 16  4  2  0
 17  6  2  0
 18 16  1  0
 19 18  2  0
 17 19  1  0
  5 11  1  0
M  END
> <chembl_id>
CHEMBL15677

> <chembl_pref_name>
FENCLOFENAC
