
     RDKit          2D

 10  9  0  0  0  0  0  0  0  0999 V2000
    4.2750   -6.5417    0.0000 C   0  0  0  0  0  0  0  0  0  0  0  0
    3.0667   -6.5375    0.0000 O   0  0  0  0  0  0  0  0  0  0  0  0
    3.6667   -6.8875    0.0000 C   0  0  0  0  0  0  0  0  0  0  0  0
    2.4458   -6.8750    0.0000 C   0  0  0  0  0  0  0  0  0  0  0  0
    4.8833   -6.9042    0.0000 F   0  0  0  0  0  0  0  0  0  0  0  0
    4.6250   -5.9292    0.0000 F   0  0  0  0  0  0  0  0  0  0  0  0
    3.9167   -5.9292    0.0000 F   0  0  0  0  0  0  0  0  0  0  0  0
    3.6667   -7.6000    0.0000 Cl  0  0  0  0  0  0  0  0  0  0  0  0
    2.4458   -7.5875    0.0000 F   0  0  0  0  0  0  0  0  0  0  0  0
    1.8375   -6.5125    0.0000 F   0  0  0  0  0  0  0  0  0  0  0  0
  2  3  1  0
  3  1  1  0
  4  2  1  0
  5  1  1  0
  6  1  1  0
  7  1  1  0
  8  3  1  0
  9  4  1  0
 10  4  1  0
M  END
> <chembl_id>
CHEMBL1256

> <chembl_pref_name>
ISOFLURANE
