
     RDKit          2D

 23 25  0  0  1  0  0  0  0  0999 V2000
   -0.3742    0.3968    0.0000 O   0  0  0  0  0  0  0  0  0  0  0  0
    0.2296    0.0255    0.0000 C   0  0  0  0  0  0  0  0  0  0  0  0
   -0.9581    0.1106    0.0000 C   0  0  0  0  0  0  0  0  0  0  0  0
    0.2495   -0.7852    0.0000 C   0  0  0  0  0  0  0  0  0  0  0  0
    0.9524   -2.0920    0.0000 N   0  0  0  0  0  0  0  0  0  0  0  0
   -0.4677   -1.1764    0.0000 O   0  0  0  0  0  0  0  0  0  0  0  0
   -1.6753    0.5187    0.0000 C   0  0  0  0  0  0  0  0  0  0  0  0
    1.0063    0.4393    0.0000 C   0  0  0  0  0  0  0  0  0  0  0  0
    0.9638   -1.2359    0.0000 C   0  0  0  0  0  0  0  0  0  0  0  0
   -1.6753    1.3493    0.0000 O   0  0  0  0  0  0  0  0  0  0  0  0
    0.2041   -2.4435    0.0000 C   0  0  0  0  0  0  0  0  0  0  0  0
   -0.9581   -0.7143    0.0000 C   0  0  0  0  0  0  0  0  0  0  0  0
   -0.4762   -2.0409    0.0000 C   0  0  0  0  0  0  0  0  0  0  0  0
   -2.3867    0.1106    0.0000 C   0  0  0  0  0  0  0  0  0  0  0  0
    1.7206    0.0227    0.0000 C   0  0  0  0  0  0  0  0  0  0  0  0
    1.0205    1.2642    0.0000 C   0  0  0  0  0  0  0  0  0  0  0  0
   -2.4491    1.6214    0.0000 C   0  0  0  0  0  0  0  0  0  0  0  0
   -2.4491    2.4463    0.0000 C   0  0  0  0  0  0  0  0  0  0  0  0
   -1.6753   -1.1254    0.0000 C   0  0  0  0  0  0  0  0  0  0  0  0
   -2.3867   -0.7143    0.0000 C   0  0  0  0  0  0  0  0  0  0  0  0
    2.4350    0.4252    0.0000 C   0  0  0  0  0  0  0  0  0  0  0  0
    1.7377    1.6724    0.0000 C   0  0  0  0  0  0  0  0  0  0  0  0
    2.4491    1.2501    0.0000 C   0  0  0  0  0  0  0  0  0  0  0  0
  2  1  1  0
  3  1  1  0
  4  2  1  0
  5  9  1  0
  4  6  1  0
  7  3  1  0
  8  2  1  0
  4  9  1  0
 10  7  1  0
 11  5  1  0
 12  3  2  0
 13  6  1  0
 14  7  2  0
 15  8  1  0
 16  8  2  0
 17 10  1  0
 18 17  1  0
 19 12  1  0
 20 19  2  0
 21 15  2  0
 22 16  1  0
 23 22  2  0
 14 20  1  0
 13 11  1  0
 21 23  1  0
M  END
> <chembl_id>
CHEMBL14370

> <chembl_pref_name>
REBOXETINE
