
     RDKit          2D

 71 70  0  0  1  0  0  0  0  0999 V2000
   -6.7724    1.9114    0.0000 C   0  0  0  0  0  0  0  0  0  0  0  0
    8.2315   -0.1511    0.0000 C   0  0  0  0  0  0  0  0  0  0  0  0
    3.2302    1.0864    0.0000 C   0  0  0  0  0  0  0  0  0  0  0  0
   -0.3421   -1.8011    0.0000 C   0  0  0  0  0  0  0  0  0  0  0  0
   -1.0566    1.0864    0.0000 C   0  0  0  0  0  0  0  0  0  0  0  0
    7.5170   -0.5636    0.0000 C   0  0  0  0  0  0  0  0  0  0  0  0
    4.6592   -1.3886    0.0000 C   0  0  0  0  0  0  0  0  0  0  0  0
    2.5157    0.6739    0.0000 C   0  0  0  0  0  0  0  0  0  0  0  0
    0.3723   -1.3886    0.0000 C   0  0  0  0  0  0  0  0  0  0  0  0
   -1.7711    0.6739    0.0000 C   0  0  0  0  0  0  0  0  0  0  0  0
    8.9460   -0.5636    0.0000 C   0  0  0  0  0  0  0  0  0  0  0  0
    3.2302    1.9114    0.0000 C   0  0  0  0  0  0  0  0  0  0  0  0
   -0.3421   -2.6261    0.0000 C   0  0  0  0  0  0  0  0  0  0  0  0
   -1.0566    1.9114    0.0000 C   0  0  0  0  0  0  0  0  0  0  0  0
   -8.9158   -0.1511    0.0000 C   0  0  0  0  0  0  0  0  0  0  0  0
   -6.7724   -0.5636    0.0000 C   0  0  0  0  0  0  0  0  0  0  0  0
   -6.7724    1.0864    0.0000 C   0  0  0  0  0  0  0  0  0  0  0  0
   -9.6303   -0.5636    0.0000 C   0  0  0  0  0  0  0  0  0  0  0  0
    6.8026   -0.1511    0.0000 C   0  0  0  0  0  0  0  0  0  0  0  0
    4.6592   -0.5636    0.0000 C   0  0  0  0  0  0  0  0  0  0  0  0
    2.5157   -0.1511    0.0000 C   0  0  0  0  0  0  0  0  0  0  0  0
    0.3723   -0.5636    0.0000 C   0  0  0  0  0  0  0  0  0  0  0  0
   -1.7711   -0.1511    0.0000 C   0  0  0  0  0  0  0  0  0  0  0  0
   -6.0579   -0.1511    0.0000 C   0  0  0  0  0  0  0  0  0  0  0  0
    6.8026    0.6739    0.0000 C   0  0  0  0  0  0  0  0  0  0  0  0
    5.3736   -0.1511    0.0000 C   0  0  0  0  0  0  0  0  0  0  0  0
    3.2302   -0.5636    0.0000 C   0  0  0  0  0  0  0  0  0  0  0  0
    1.0868   -0.1511    0.0000 C   0  0  0  0  0  0  0  0  0  0  0  0
   -1.0566   -0.5636    0.0000 C   0  0  0  0  0  0  0  0  0  0  0  0
   -5.3434   -0.5636    0.0000 C   0  0  0  0  0  0  0  0  0  0  0  0
  -10.3447   -0.1511    0.0000 C   0  0  0  0  0  0  0  0  0  0  0  0
   10.3749   -0.5636    0.0000 C   0  0  0  0  0  0  0  0  0  0  0  0
    3.9447    3.1489    0.0000 C   0  0  0  0  0  0  0  0  0  0  0  0
   -1.0566   -3.8636    0.0000 C   0  0  0  0  0  0  0  0  0  0  0  0
   -0.3421    3.1489    0.0000 C   0  0  0  0  0  0  0  0  0  0  0  0
   -9.6303   -1.3886    0.0000 N   0  0  0  0  0  0  0  0  0  0  0  0
    6.0881    1.0864    0.0000 N   0  0  0  0  0  0  0  0  0  0  0  0
   11.0894   -0.1511    0.0000 N   0  0  0  0  0  0  0  0  0  0  0  0
   10.3749   -1.3886    0.0000 N   0  0  0  0  0  0  0  0  0  0  0  0
    3.2302    3.5614    0.0000 N   0  0  0  0  0  0  0  0  0  0  0  0
    4.6592    3.5614    0.0000 N   0  0  0  0  0  0  0  0  0  0  0  0
   -0.3421   -4.2761    0.0000 N   0  0  0  0  0  0  0  0  0  0  0  0
   -1.7711   -4.2761    0.0000 N   0  0  0  0  0  0  0  0  0  0  0  0
   -1.0566    3.5614    0.0000 N   0  0  0  0  0  0  0  0  0  0  0  0
    0.3723    3.5614    0.0000 N   0  0  0  0  0  0  0  0  0  0  0  0
    9.6605   -0.1511    0.0000 N   0  0  0  0  0  0  0  0  0  0  0  0
    3.9447    2.3239    0.0000 N   0  0  0  0  0  0  0  0  0  0  0  0
   -1.0566   -3.0386    0.0000 N   0  0  0  0  0  0  0  0  0  0  0  0
   -0.3421    2.3239    0.0000 N   0  0  0  0  0  0  0  0  0  0  0  0
   -6.0579    0.6739    0.0000 N   0  0  0  0  0  0  0  0  0  0  0  0
    6.0881   -0.5636    0.0000 N   0  0  0  0  0  0  0  0  0  0  0  0
    3.9447   -0.1511    0.0000 N   0  0  0  0  0  0  0  0  0  0  0  0
    1.8013   -0.5636    0.0000 N   0  0  0  0  0  0  0  0  0  0  0  0
   -0.3421   -0.1511    0.0000 N   0  0  0  0  0  0  0  0  0  0  0  0
   -4.6290   -0.1511    0.0000 N   0  0  0  0  0  0  0  0  0  0  0  0
   -7.4869    0.6739    0.0000 O   0  0  0  0  0  0  0  0  0  0  0  0
    7.5170    1.0864    0.0000 O   0  0  0  0  0  0  0  0  0  0  0  0
    5.3736    0.6739    0.0000 O   0  0  0  0  0  0  0  0  0  0  0  0
    3.2302   -1.3886    0.0000 O   0  0  0  0  0  0  0  0  0  0  0  0
    1.0868    0.6739    0.0000 O   0  0  0  0  0  0  0  0  0  0  0  0
   -1.0566   -1.3886    0.0000 O   0  0  0  0  0  0  0  0  0  0  0  0
   -5.3434   -1.3886    0.0000 O   0  0  0  0  0  0  0  0  0  0  0  0
  -11.0592   -0.5636    0.0000 O   0  0  0  0  0  0  0  0  0  0  0  0
  -10.3447    0.6739    0.0000 O   0  0  0  0  0  0  0  0  0  0  0  0
   -8.2013   -0.5636    0.0000 S   0  0  0  0  0  0  0  0  0  0  0  0
   -7.4869   -0.1511    0.0000 S   0  0  0  0  0  0  0  0  0  0  0  0
   -3.9145   -0.5636    0.0000 C   0  0  0  0  0  0  0  0  0  0  0  0
   -3.2000   -0.1511    0.0000 C   0  0  0  0  0  0  0  0  0  0  0  0
   -3.9145   -1.3886    0.0000 C   0  0  0  0  0  0  0  0  0  0  0  0
   -2.4856   -0.5636    0.0000 N   0  0  0  0  0  0  0  0  0  0  0  0
   -3.2000    0.6739    0.0000 O   0  0  0  0  0  0  0  0  0  0  0  0
  6  2  1  0
  8  3  1  0
  9  4  1  0
 10  5  1  0
 11  2  1  0
 12  3  1  0
 13  4  1  0
 14  5  1  0
 17  1  1  0
 18 15  1  0
 19  6  1  0
 20  7  1  0
 21  8  1  0
 22  9  1  0
 23 10  1  6
 24 16  1  0
 19 25  1  0
 20 26  1  0
 21 27  1  0
 22 28  1  0
 23 29  1  0
 24 30  1  0
 18 31  1  0
 18 36  1  6
 37 25  1  0
 38 32  2  0
 39 32  1  0
 40 33  2  0
 41 33  1  0
 42 34  2  0
 43 34  1  0
 44 35  2  0
 45 35  1  0
 46 11  1  0
 46 32  1  0
 47 12  1  0
 47 33  1  0
 48 13  1  0
 48 34  1  0
 49 14  1  0
 49 35  1  0
 50 17  1  0
 24 50  1  1
 19 51  1  1
 51 26  1  0
 20 52  1  1
 52 27  1  0
 21 53  1  6
 53 28  1  0
 22 54  1  1
 54 29  1  0
 55 30  1  0
 56 17  2  0
 57 25  2  0
 26 58  2  0
 27 59  2  0
 28 60  2  0
 29 61  2  0
 30 62  2  0
 63 31  2  0
 64 31  1  0
 65 15  1  0
 66 16  1  0
 66 65  1  0
 55 67  1  0
 67 68  1  0
 67 69  1  1
 68 70  1  0
 68 71  2  0
 70 23  1  0
M  END
> <chembl_id>
CHEMBL3545184

> <chembl_pref_name>
VELCALCETIDE
