
     RDKit          2D

 22 25  0  0  1  0  0  0  0  0999 V2000
    0.6500   -0.5125    0.0000 C   0  0  0  0  0  0  0  0  0  0  0  0
   -0.6333   -0.5167    0.0000 C   0  0  0  0  0  0  0  0  0  0  0  0
    0.6167    1.6458    0.0000 C   0  0  0  0  0  0  0  0  0  0  0  0
    1.2167    0.5250    0.0000 C   0  0  0  0  0  0  0  0  0  0  0  0
    1.0292    2.6833    0.0000 N   0  0  0  0  0  0  0  0  0  0  0  0
   -1.2833    0.5000    0.0000 C   0  0  0  0  0  0  0  0  0  0  0  0
   -0.6500    1.6333    0.0000 C   0  0  0  0  0  0  0  0  0  0  0  0
    1.9292    0.0083    0.0000 C   0  0  0  0  0  0  0  0  0  0  0  0
    2.0792    2.2708    0.0000 C   0  0  0  0  0  0  0  0  0  0  0  0
   -1.2958   -1.6667    0.0000 C   0  0  0  0  0  0  0  0  0  0  0  0
   -2.5333    0.5000    0.0000 C   0  0  0  0  0  0  0  0  0  0  0  0
   -2.6208   -1.6792    0.0000 C   0  0  0  0  0  0  0  0  0  0  0  0
    1.1917   -1.7167    0.0000 C   0  0  0  0  0  0  0  0  0  0  0  0
   -3.2625   -0.5500    0.0000 C   0  0  0  0  0  0  0  0  0  0  0  0
    0.3667    3.5958    0.0000 C   0  0  0  0  0  0  0  0  0  0  0  0
    2.5542    0.5250    0.0000 C   0  0  0  0  0  0  0  0  0  0  0  0
   -3.1208   -2.5125    0.0000 O   0  0  0  0  0  0  0  0  0  0  0  0
   -2.5208   -3.5917    0.0000 C   0  0  0  0  0  0  0  0  0  0  0  0
    2.5875   -1.7167    0.0000 C   0  0  0  0  0  0  0  0  0  0  0  0
    3.2792   -0.5500    0.0000 C   0  0  0  0  0  0  0  0  0  0  0  0
   -0.0333    0.5458    0.0000 H   0  0  0  0  0  0  0  0  0  0  0  0
   -0.3083    2.5833    0.0000 H   0  0  0  0  0  0  0  0  0  0  0  0
  2  1  1  0
  3  4  1  0
  4  1  1  0
  5  9  1  0
  6  2  2  0
  7  3  1  0
  1  8  1  6
  9  8  1  0
 10  2  1  0
 11  6  1  0
 12 10  2  0
 13  1  1  0
 14 12  1  0
 15  5  1  0
 16  4  1  0
 17 12  1  0
 18 17  1  0
 19 13  1  0
 20 19  1  0
  4 21  1  6
  3 22  1  1
 16 20  1  0
  3  5  1  0
  6  7  1  0
 11 14  2  0
M  END
> <chembl_id>
CHEMBL52440

> <chembl_pref_name>
DEXTROMETHORPHAN
