
     RDKit          2D

 18 18  0  0  0  0  0  0  0  0999 V2000
    4.5383   -3.2704    0.0000 S   0  0  0  0  0  0  0  0  0  0  0  0
    3.8245   -3.2704    0.0000 C   0  0  0  0  0  0  0  0  0  0  0  0
    4.9038   -3.8980    0.0000 O   0  0  0  0  0  0  0  0  0  0  0  0
    4.9038   -2.6393    0.0000 O   0  0  0  0  0  0  0  0  0  0  0  0
    5.3520   -3.2704    0.0000 O   0  0  0  0  0  0  0  0  0  0  0  0
    0.2786   -2.3654    0.0000 C   0  0  0  0  0  0  0  0  0  0  0  0
    0.9664   -2.5721    0.0000 C   0  0  0  0  0  0  0  0  0  0  0  0
    0.2786   -1.6370    0.0000 C   0  0  0  0  0  0  0  0  0  0  0  0
   -0.3417   -2.7217    0.0000 C   0  0  0  0  0  0  0  0  0  0  0  0
    1.3634   -1.9995    0.0000 C   0  0  0  0  0  0  0  0  0  0  0  0
    0.9664   -3.2668    0.0000 N   0  0  0  0  0  0  0  0  0  0  0  0
    0.9629   -1.4336    0.0000 C   0  0  0  0  0  0  0  0  0  0  0  0
   -0.3383   -1.2806    0.0000 C   0  0  0  0  0  0  0  0  0  0  0  0
   -0.9557   -2.3654    0.0000 C   0  0  0  0  0  0  0  0  0  0  0  0
    1.5805   -3.6266    0.0000 C   0  0  0  0  0  0  0  0  0  0  0  0
   -0.9557   -1.6534    0.0000 C   0  0  0  0  0  0  0  0  0  0  0  0
    2.1939   -3.2668    0.0000 C   0  0  0  0  0  0  0  0  0  0  0  0
    2.8072   -2.9147    0.0000 C   0  0  0  0  0  0  0  0  0  0  0  0
  1  2  1  0
  1  3  1  0
  1  4  2  0
  1  5  2  0
  6  8  2  0
  6  9  1  0
  7 10  1  0
  7 11  1  1
  8 12  1  0
  8 13  1  0
  9 14  2  0
 11 15  1  0
 13 16  2  0
 15 17  1  0
 17 18  3  0
 10 12  1  0
 14 16  1  0
  6  7  1  0
M  END
> <chembl_id>
CHEMBL1201142

> <chembl_pref_name>
RASAGILINE MESYLATE
