
     RDKit          2D

 22 23  0  0  0  0  0  0  0  0999 V2000
    8.4250   -5.4667    0.0000 Cl  0  0  0  0  0  0  0  0  0  0  0  0
    5.5292   -5.1375    0.0000 C   0  0  0  0  0  0  0  0  0  0  0  0
    4.8792   -5.4375    0.0000 C   0  0  0  0  0  0  0  0  0  0  0  0
    6.1667   -5.4500    0.0000 C   0  0  0  0  0  0  0  0  0  0  0  0
    5.5292   -4.4292    0.0000 C   0  0  0  0  0  0  0  0  0  0  0  0
    4.7125   -6.1250    0.0000 C   0  0  0  0  0  0  0  0  0  0  0  0
    6.3042   -6.1417    0.0000 C   0  0  0  0  0  0  0  0  0  0  0  0
    5.1417   -6.6875    0.0000 C   0  0  0  0  0  0  0  0  0  0  0  0
    5.8542   -6.6917    0.0000 C   0  0  0  0  0  0  0  0  0  0  0  0
    6.7875   -3.0292    0.0000 N   0  0  0  0  0  0  0  0  0  0  0  0
    6.1500   -4.0875    0.0000 C   0  0  0  0  0  0  0  0  0  0  0  0
    6.6792   -4.9750    0.0000 C   0  0  0  0  0  0  0  0  0  0  0  0
    4.3625   -4.9417    0.0000 C   0  0  0  0  0  0  0  0  0  0  0  0
    6.1667   -3.3750    0.0000 C   0  0  0  0  0  0  0  0  0  0  0  0
    6.9917   -6.3667    0.0000 C   0  0  0  0  0  0  0  0  0  0  0  0
    4.0250   -6.3292    0.0000 C   0  0  0  0  0  0  0  0  0  0  0  0
    6.8000   -2.3167    0.0000 C   0  0  0  0  0  0  0  0  0  0  0  0
    7.3917   -3.3875    0.0000 C   0  0  0  0  0  0  0  0  0  0  0  0
    7.3625   -5.2000    0.0000 C   0  0  0  0  0  0  0  0  0  0  0  0
    3.6792   -5.1500    0.0000 C   0  0  0  0  0  0  0  0  0  0  0  0
    3.5125   -5.8417    0.0000 C   0  0  0  0  0  0  0  0  0  0  0  0
    7.5042   -5.8917    0.0000 C   0  0  0  0  0  0  0  0  0  0  0  0
  3  2  1  0
  4  2  1  0
  5  2  2  0
  6  3  2  0
  7  4  1  0
  8  6  1  0
  9  7  1  0
 10 14  1  0
 11  5  1  0
 12  4  2  0
 13  3  1  0
 14 11  1  0
 15  7  2  0
 16  6  1  0
 17 10  1  0
 18 10  1  0
 19 12  1  0
 20 13  2  0
 21 20  1  0
 22 19  2  0
  9  8  1  0
 22 15  1  0
 21 16  2  0
M  END
> <chembl_id>
CHEMBL1200964

> <chembl_pref_name>
AMITRIPTYLINE HYDROCHLORIDE
