
     RDKit          2D

 35 37  0  0  0  0  0  0  0  0999 V2000
    6.9886  -10.3276    0.0000 C   0  0  0  0  0  0  0  0  0  0  0  0
    6.9935   -8.6775    0.0000 C   0  0  0  0  0  0  0  0  0  0  0  0
    6.2800   -9.9150    0.0000 C   0  0  0  0  0  0  0  0  0  0  0  0
    6.2800   -9.0900    0.0000 C   0  0  0  0  0  0  0  0  0  0  0  0
    7.0031   -7.8525    0.0000 O   0  0  0  0  0  0  0  0  0  0  0  0
    6.9789  -11.1526    0.0000 O   0  0  0  0  0  0  0  0  0  0  0  0
    7.7069   -9.9199    0.0000 O   0  0  0  0  0  0  0  0  0  0  0  0
    7.7069   -9.0900    0.0000 O   0  0  0  0  0  0  0  0  0  0  0  0
    2.5042   -9.1046    0.0000 C   0  0  0  0  0  0  0  0  0  0  0  0
    2.5042  -10.7498    0.0000 C   0  0  0  0  0  0  0  0  0  0  0  0
    1.7763   -9.5268    0.0000 C   0  0  0  0  0  0  0  0  0  0  0  0
    3.2080   -9.5268    0.0000 C   0  0  0  0  0  0  0  0  0  0  0  0
    1.7763  -10.3373    0.0000 C   0  0  0  0  0  0  0  0  0  0  0  0
    2.5042   -8.3038    0.0000 C   0  0  0  0  0  0  0  0  0  0  0  0
    3.2080   -7.8913    0.0000 C   0  0  0  0  0  0  0  0  0  0  0  0
    1.3880  -11.5360    0.0000 N   0  0  0  0  0  0  0  0  0  0  0  0
    3.9360   -9.1046    0.0000 N   0  0  0  0  0  0  0  0  0  0  0  0
    2.2179  -11.5360    0.0000 C   0  0  0  0  0  0  0  0  0  0  0  0
    3.2080   -7.0663    0.0000 C   0  0  0  0  0  0  0  0  0  0  0  0
    1.0532  -10.7498    0.0000 C   0  0  0  0  0  0  0  0  0  0  0  0
    3.2080  -10.3373    0.0000 C   0  0  0  0  0  0  0  0  0  0  0  0
    3.9360   -8.3038    0.0000 C   0  0  0  0  0  0  0  0  0  0  0  0
    3.9165   -6.6440    0.0000 N   0  0  0  0  0  0  0  0  0  0  0  0
    2.4848   -6.6537    0.0000 O   0  0  0  0  0  0  0  0  0  0  0  0
    1.0532   -9.1046    0.0000 C   0  0  0  0  0  0  0  0  0  0  0  0
    0.9367  -12.2203    0.0000 C   0  0  0  0  0  0  0  0  0  0  0  0
    4.6931   -9.5365    0.0000 C   0  0  0  0  0  0  0  0  0  0  0  0
    0.3252  -10.3373    0.0000 C   0  0  0  0  0  0  0  0  0  0  0  0
    4.6348   -7.0517    0.0000 C   0  0  0  0  0  0  0  0  0  0  0  0
    0.3252   -9.5268    0.0000 C   0  0  0  0  0  0  0  0  0  0  0  0
    6.0616   -7.0468    0.0000 O   0  0  0  0  0  0  0  0  0  0  0  0
    5.3482   -6.6391    0.0000 C   0  0  0  0  0  0  0  0  0  0  0  0
    4.6348   -7.8816    0.0000 C   0  0  0  0  0  0  0  0  0  0  0  0
    5.3579   -8.2893    0.0000 C   0  0  0  0  0  0  0  0  0  0  0  0
    3.9360   -9.9587    0.0000 H   0  0  0  0  0  0  0  0  0  0  0  0
  2  4  1  0
  3  1  1  0
  4  3  2  0
  5  2  2  0
  6  1  2  0
  7  1  1  0
  8  2  1  0
 10 21  1  0
 11  9  1  0
 12  9  1  0
 13 11  2  0
 14  9  2  0
 15 14  1  0
 16 20  1  0
 17 12  1  0
 18 10  2  0
 15 19  1  1
 20 13  1  0
 21 12  1  0
 22 15  1  0
 23 19  1  0
 24 19  2  0
 25 11  1  0
 26 16  1  0
 27 17  1  0
 28 20  2  0
 29 23  1  0
 30 25  2  0
 31 32  1  0
 32 29  1  0
 29 33  1  0
 34 33  1  0
 12 35  1  1
 10 13  1  0
 22 17  1  0
 30 28  1  0
 18 16  1  0
M  END
> <chembl_id>
CHEMBL3989558

> <chembl_pref_name>
METHYSERGIDE MALEATE
