
     RDKit          2D

 24 24  0  0  0  0  0  0  0  0999 V2000
    7.2042   -7.9625    0.0000 Cl  0  0  0  0  0  0  0  0  0  0  0  0
    6.7292   -6.4042    0.0000 N   0  0  0  0  0  0  0  0  0  0  0  0
    6.7292   -5.0667    0.0000 N   0  0  0  0  0  0  0  0  0  0  0  0
    7.2125   -5.7375    0.0000 C   0  0  0  0  0  0  0  0  0  0  0  0
    5.9417   -6.1500    0.0000 C   0  0  0  0  0  0  0  0  0  0  0  0
    5.9417   -5.3250    0.0000 C   0  0  0  0  0  0  0  0  0  0  0  0
    5.2292   -6.5625    0.0000 C   0  0  0  0  0  0  0  0  0  0  0  0
    4.5167   -6.1500    0.0000 C   0  0  0  0  0  0  0  0  0  0  0  0
    5.2292   -4.9125    0.0000 C   0  0  0  0  0  0  0  0  0  0  0  0
    9.6875   -4.3083    0.0000 C   0  0  0  0  0  0  0  0  0  0  0  0
    3.8000   -6.5625    0.0000 N   0  0  0  0  0  0  0  0  0  0  0  0
    4.5167   -5.3250    0.0000 C   0  0  0  0  0  0  0  0  0  0  0  0
    9.2750   -3.5958    0.0000 O   0  0  0  0  0  0  0  0  0  0  0  0
    8.0375   -5.7375    0.0000 C   0  0  0  0  0  0  0  0  0  0  0  0
    6.9833   -4.2875    0.0000 C   0  0  0  0  0  0  0  0  0  0  0  0
   10.5083   -4.3083    0.0000 O   0  0  0  0  0  0  0  0  0  0  0  0
    1.6583   -6.1500    0.0000 Cl  0  0  0  0  0  0  0  0  0  0  0  0
    3.0875   -8.6250    0.0000 Cl  0  0  0  0  0  0  0  0  0  0  0  0
    8.4500   -5.0208    0.0000 C   0  0  0  0  0  0  0  0  0  0  0  0
    9.2750   -5.0208    0.0000 C   0  0  0  0  0  0  0  0  0  0  0  0
    3.8000   -7.3833    0.0000 C   0  0  0  0  0  0  0  0  0  0  0  0
    3.0875   -6.1500    0.0000 C   0  0  0  0  0  0  0  0  0  0  0  0
    3.0875   -7.8000    0.0000 C   0  0  0  0  0  0  0  0  0  0  0  0
    2.3708   -6.5625    0.0000 C   0  0  0  0  0  0  0  0  0  0  0  0
  3  4  1  0
  4  2  2  0
  5  2  1  0
  6  5  1  0
  7  5  2  0
  8  7  1  0
  9  6  2  0
 10 20  1  0
 11  8  1  0
 12  8  2  0
 13 10  2  0
 14  4  1  0
 15  3  1  0
 16 10  1  0
 17 24  1  0
 18 23  1  0
 19 14  1  0
 20 19  1  0
 21 11  1  0
 22 11  1  0
 23 21  1  0
 24 22  1  0
  3  6  1  0
  9 12  1  0
M  END
> <chembl_id>
CHEMBL1201734

> <chembl_pref_name>
BENDAMUSTINE HYDROCHLORIDE
