
     RDKit          2D

 45 46  0  0  0  0  0  0  0  0999 V2000
    0.0000   -7.5546    0.0000 P   0  0  0  0  0  0  0  0  0  0  0  0
    0.0000   -8.3796    0.0000 O   0  0  0  0  0  0  0  0  0  0  0  0
    0.0000   -6.7296    0.0000 O   0  0  0  0  0  0  0  0  0  0  0  0
    0.8250   -7.5546    0.0000 O   0  0  0  0  0  0  0  0  0  0  0  0
   -0.8250   -7.5546    0.0000 O   0  0  0  0  0  0  0  0  0  0  0  0
    1.9597    1.1079    0.0000 C   0  0  0  0  0  0  0  0  0  0  0  0
    2.6742    0.6954    0.0000 C   0  0  0  0  0  0  0  0  0  0  0  0
    1.9597    1.9329    0.0000 C   0  0  0  0  0  0  0  0  0  0  0  0
    2.6742    2.3454    0.0000 C   0  0  0  0  0  0  0  0  0  0  0  0
    2.6742    3.1704    0.0000 C   0  0  0  0  0  0  0  0  0  0  0  0
    1.9597    3.5829    0.0000 C   0  0  0  0  0  0  0  0  0  0  0  0
    1.9597    4.4079    0.0000 O   0  0  0  0  0  0  0  0  0  0  0  0
    1.2452    3.1704    0.0000 C   0  0  0  0  0  0  0  0  0  0  0  0
    1.2452    2.3454    0.0000 C   0  0  0  0  0  0  0  0  0  0  0  0
    1.2452    0.6954    0.0000 C   0  0  0  0  0  0  0  0  0  0  0  0
    0.5307    1.1079    0.0000 C   0  0  0  0  0  0  0  0  0  0  0  0
    1.2452   -0.1296    0.0000 C   0  0  0  0  0  0  0  0  0  0  0  0
    0.5307   -0.5421    0.0000 C   0  0  0  0  0  0  0  0  0  0  0  0
   -0.1837   -0.1296    0.0000 O   0  0  0  0  0  0  0  0  0  0  0  0
    0.5307   -1.3671    0.0000 N   0  0  0  0  0  0  0  0  0  0  0  0
    1.9597   -0.5421    0.0000 C   0  0  0  0  0  0  0  0  0  0  0  0
    2.6742   -0.1296    0.0000 C   0  0  0  0  0  0  0  0  0  0  0  0
   -0.1837   -1.7796    0.0000 C   0  0  0  0  0  0  0  0  0  0  0  0
   -0.1837   -2.6046    0.0000 C   0  0  0  0  0  0  0  0  0  0  0  0
   -0.8982   -3.0171    0.0000 C   0  0  0  0  0  0  0  0  0  0  0  0
   -1.6127   -2.6046    0.0000 C   0  0  0  0  0  0  0  0  0  0  0  0
   -1.6127   -1.7796    0.0000 N   0  0  0  0  0  0  0  0  0  0  0  0
   -0.8982   -1.3671    0.0000 C   0  0  0  0  0  0  0  0  0  0  0  0
   -3.0416   -2.6046    0.0000 C   0  0  0  0  0  0  0  0  0  0  0  0
   -2.3271   -3.0171    0.0000 N   0  0  0  0  0  0  0  0  0  0  0  0
   -3.7561   -3.0171    0.0000 C   0  0  0  0  0  0  0  0  0  0  0  0
   -3.7561   -3.8421    0.0000 O   0  0  0  0  0  0  0  0  0  0  0  0
   -3.0416   -4.2546    0.0000 C   0  0  0  0  0  0  0  0  0  0  0  0
   -2.3271   -3.8421    0.0000 C   0  0  0  0  0  0  0  0  0  0  0  0
    0.5307    5.2329    0.0000 F   0  0  0  0  0  0  0  0  0  0  0  0
    0.8327    4.1059    0.0000 F   0  0  0  0  0  0  0  0  0  0  0  0
    1.6577    5.5348    0.0000 F   0  0  0  0  0  0  0  0  0  0  0  0
    1.2452    4.8204    0.0000 C   0  0  0  0  0  0  0  0  0  0  0  0
   -4.4705   -2.6046    0.0000 C   0  0  0  0  0  0  0  0  0  0  0  0
   -3.0416   -5.0796    0.0000 C   0  0  0  0  0  0  0  0  0  0  0  0
    5.6206    0.0000    0.0000 P   0  0  0  0  0  0  0  0  0  0  0  0
    5.6206   -0.8250    0.0000 O   0  0  0  0  0  0  0  0  0  0  0  0
    5.6206    0.8250    0.0000 O   0  0  0  0  0  0  0  0  0  0  0  0
    6.4456    0.0000    0.0000 O   0  0  0  0  0  0  0  0  0  0  0  0
    4.7956    0.0000    0.0000 O   0  0  0  0  0  0  0  0  0  0  0  0
  1  2  2  0
  1  3  1  0
  1  4  1  0
  1  5  1  0
  6  7  1  0
  6 15  2  0
  7 22  2  0
  8  6  1  0
  9  8  2  0
 10  9  1  0
 11 10  2  0
 11 13  1  0
 12 11  1  0
 13 14  2  0
 14  8  1  0
 15 16  1  0
 17 15  1  0
 17 18  1  0
 18 19  2  0
 20 18  1  0
 20 23  1  0
 21 17  2  0
 22 21  1  0
 23 24  2  0
 23 28  1  0
 24 25  1  0
 25 26  2  0
 27 26  1  0
 28 27  2  0
 29 30  1  0
 29 31  1  0
 31 39  1  6
 32 31  1  0
 32 33  1  0
 33 34  1  0
 38 37  1  0
 38 36  1  0
 38 35  1  0
 38 12  1  0
 33 40  1  6
 34 30  1  0
 30 26  1  0
 41 42  2  0
 41 43  1  0
 41 44  1  0
 41 45  1  0
M  END
> <chembl_id>
CHEMBL3137317

> <chembl_pref_name>
SONIDEGIB PHOSPHATE
