
     RDKit          2D

 26 29  0  0  1  0  0  0  0  0999 V2000
    5.4917   -6.3167    0.0000 C   0  0  0  0  0  0  0  0  0  0  0  0
    6.1792   -6.5375    0.0000 C   0  0  0  0  0  0  0  0  0  0  0  0
    5.0750   -6.9167    0.0000 N   0  0  0  0  0  0  0  0  0  0  0  0
    4.4000   -5.9875    0.0000 C   0  0  0  0  0  0  0  0  0  0  0  0
    4.4000   -6.7000    0.0000 C   0  0  0  0  0  0  0  0  0  0  0  0
    5.0750   -5.7417    0.0000 C   0  0  0  0  0  0  0  0  0  0  0  0
    6.8042   -6.9000    0.0000 N   0  0  0  0  0  0  0  0  0  0  0  0
    6.1917   -7.2500    0.0000 C   0  0  0  0  0  0  0  0  0  0  0  0
    3.7875   -5.6125    0.0000 C   0  0  0  0  0  0  0  0  0  0  0  0
    3.7875   -7.0625    0.0000 C   0  0  0  0  0  0  0  0  0  0  0  0
    3.1500   -6.7167    0.0000 C   0  0  0  0  0  0  0  0  0  0  0  0
    3.1417   -5.9917    0.0000 C   0  0  0  0  0  0  0  0  0  0  0  0
    5.5042   -7.4542    0.0000 C   0  0  0  0  0  0  0  0  0  0  0  0
    5.0917   -5.0375    0.0000 C   0  0  0  0  0  0  0  0  0  0  0  0
    4.4917   -3.9292    0.0000 C   0  0  0  0  0  0  0  0  0  0  0  0
    3.7750   -4.9167    0.0000 O   0  0  0  0  0  0  0  0  0  0  0  0
    3.7875   -7.7750    0.0000 O   0  0  0  0  0  0  0  0  0  0  0  0
    4.4917   -4.6667    0.0000 O   0  0  0  0  0  0  0  0  0  0  0  0
    5.9167   -5.7417    0.0000 O   0  0  0  0  0  0  0  0  0  0  0  0
    2.5250   -5.6417    0.0000 N   0  0  0  0  0  0  0  0  0  0  0  0
    3.9042   -3.5417    0.0000 O   0  0  0  0  0  0  0  0  0  0  0  0
    5.1417   -3.5875    0.0000 N   0  0  0  0  0  0  0  0  0  0  0  0
    2.5250   -7.0750    0.0000 C   0  0  0  0  0  0  0  0  0  0  0  0
    5.6042   -5.0875    0.0000 C   0  0  0  0  0  0  0  0  0  0  0  0
    6.5542   -5.9667    0.0000 H   0  0  0  0  0  0  0  0  0  0  0  0
    6.2625   -7.8375    0.0000 H   0  0  0  0  0  0  0  0  0  0  0  0
  2  1  1  0
  3  1  1  0
  4  6  1  0
  5  3  1  0
  6  1  1  0
  7  2  1  0
  8  2  1  0
  9  4  1  0
 10  5  1  0
 11 10  1  0
 12  9  1  0
 13  3  1  0
  6 14  1  1
 15 18  1  0
 16  9  2  0
 17 10  2  0
 18 14  1  0
  1 19  1  6
 20 12  1  0
 21 15  2  0
 22 15  1  0
 23 11  1  0
 24 19  1  0
  2 25  1  6
  8 26  1  6
  8 13  1  0
  4  5  2  0
  7  8  1  0
 12 11  2  0
M  END
> <chembl_id>
CHEMBL105

> <chembl_pref_name>
MITOMYCIN
