
     RDKit          2D

 22 21  0  0  0  0  0  0  0  0999 V2000
    4.0605  -10.4613    0.0000 C   0  0  0  0  0  0  0  0  0  0  0  0
    3.3494  -10.8581    0.0000 C   0  0  0  0  0  0  0  0  0  0  0  0
    4.7668  -10.8676    0.0000 C   0  0  0  0  0  0  0  0  0  0  0  0
    2.6382  -10.4518    0.0000 C   0  0  0  0  0  0  0  0  0  0  0  0
    6.2036  -10.8821    0.0000 N   0  0  0  0  0  0  0  0  0  0  0  0
    4.7669  -11.6853    0.0000 O   0  0  0  0  0  0  0  0  0  0  0  0
    1.9126  -10.8533    0.0000 O   0  0  0  0  0  0  0  0  0  0  0  0
    4.0701   -9.6244    0.0000 C   0  0  0  0  0  0  0  0  0  0  0  0
    3.3493   -9.2181    0.0000 C   0  0  0  0  0  0  0  0  0  0  0  0
    5.4924  -10.4612    0.0000 C   0  0  0  0  0  0  0  0  0  0  0  0
    2.6382   -9.6245    0.0000 C   0  0  0  0  0  0  0  0  0  0  0  0
    6.9196  -10.4757    0.0000 C   0  0  0  0  0  0  0  0  0  0  0  0
   11.8745  -10.7076    0.0000 O   0  0  0  0  0  0  0  0  0  0  0  0
   11.1573   -9.4691    0.0000 O   0  0  0  0  0  0  0  0  0  0  0  0
    8.2939  -10.2965    0.0000 O   0  0  0  0  0  0  0  0  0  0  0  0
    9.0110  -11.5350    0.0000 O   0  0  0  0  0  0  0  0  0  0  0  0
   10.4404  -11.5349    0.0000 O   0  0  0  0  0  0  0  0  0  0  0  0
    9.7280   -9.4692    0.0000 O   0  0  0  0  0  0  0  0  0  0  0  0
    9.0125  -10.7083    0.0000 C   0  0  0  0  0  0  0  0  0  0  0  0
    9.7270  -10.2958    0.0000 C   0  0  0  0  0  0  0  0  0  0  0  0
   10.4414  -10.7083    0.0000 C   0  0  0  0  0  0  0  0  0  0  0  0
   11.1559  -10.2958    0.0000 C   0  0  0  0  0  0  0  0  0  0  0  0
  2  1  2  0
  3  1  1  0
  4  2  1  0
  5 10  1  0
  3  6  1  6
  7  4  1  0
  8  1  1  0
  9  8  2  0
 10  3  1  0
 11  9  1  0
 12  5  1  0
 11  4  2  0
 19 16  2  0
 20 18  1  0
 21 17  1  0
 19 15  1  0
 21 22  1  0
 20 21  1  0
 22 13  1  0
 19 20  1  0
 22 14  2  0
M  END
> <chembl_id>
CHEMBL2062264

> <chembl_pref_name>
PHENYLEPHRINE BITARTRATE
