
     RDKit          2D

 35 38  0  0  1  0  0  0  0  0999 V2000
    0.8417    0.6500    0.0000 C   0  0  0  0  0  0  0  0  0  0  0  0
    2.5875    0.6458    0.0000 C   0  0  0  0  0  0  0  0  0  0  0  0
   -0.9000    0.6250    0.0000 C   0  0  0  0  0  0  0  0  0  0  0  0
   -0.0208    1.1625    0.0000 C   0  0  0  0  0  0  0  0  0  0  0  0
    1.7167    1.1375    0.0000 C   0  0  0  0  0  0  0  0  0  0  0  0
    0.8417   -0.3125    0.0000 C   0  0  0  0  0  0  0  0  0  0  0  0
    2.5875   -0.3250    0.0000 C   0  0  0  0  0  0  0  0  0  0  0  0
   -1.7500    1.2000    0.0000 C   0  0  0  0  0  0  0  0  0  0  0  0
   -2.6000    0.6875    0.0000 C   0  0  0  0  0  0  0  0  0  0  0  0
   -2.6208   -0.2917    0.0000 C   0  0  0  0  0  0  0  0  0  0  0  0
    1.7000   -0.8292    0.0000 C   0  0  0  0  0  0  0  0  0  0  0  0
   -0.9000   -0.3125    0.0000 C   0  0  0  0  0  0  0  0  0  0  0  0
   -0.0458   -0.7917    0.0000 C   0  0  0  0  0  0  0  0  0  0  0  0
   -3.4833   -0.7667    0.0000 C   0  0  0  0  0  0  0  0  0  0  0  0
   -1.7833   -0.7917    0.0000 C   0  0  0  0  0  0  0  0  0  0  0  0
    3.4417    1.1083    0.0000 C   0  0  0  0  0  0  0  0  0  0  0  0
   -4.3458   -0.2750    0.0000 C   0  0  0  0  0  0  0  0  0  0  0  0
   -3.4583    1.2000    0.0000 C   0  0  0  0  0  0  0  0  0  0  0  0
    1.7167    2.0958    0.0000 O   0  0  0  0  0  0  0  0  0  0  0  0
   -1.7500    2.1833    0.0000 O   0  0  0  0  0  0  0  0  0  0  0  0
    1.7042   -1.8042    0.0000 N   0  0  0  0  0  0  0  0  0  0  0  0
   -3.4958   -1.7500    0.0000 N   0  0  0  0  0  0  0  0  0  0  0  0
    0.8417    1.6708    0.0000 O   0  0  0  0  0  0  0  0  0  0  0  0
    3.4667    2.0833    0.0000 O   0  0  0  0  0  0  0  0  0  0  0  0
   -0.0208    2.1458    0.0000 O   0  0  0  0  0  0  0  0  0  0  0  0
    3.4625   -0.7667    0.0000 O   0  0  0  0  0  0  0  0  0  0  0  0
   -4.3458    0.7000    0.0000 C   0  0  0  0  0  0  0  0  0  0  0  0
    4.2667    0.6083    0.0000 N   0  0  0  0  0  0  0  0  0  0  0  0
   -3.4458    2.1833    0.0000 O   0  0  0  0  0  0  0  0  0  0  0  0
    0.8667   -2.2917    0.0000 C   0  0  0  0  0  0  0  0  0  0  0  0
    2.5417   -2.2792    0.0000 C   0  0  0  0  0  0  0  0  0  0  0  0
   -2.6583   -2.2167    0.0000 C   0  0  0  0  0  0  0  0  0  0  0  0
   -4.3458   -2.2292    0.0000 C   0  0  0  0  0  0  0  0  0  0  0  0
    0.8292   -1.2792    0.0000 H   0  0  0  0  0  0  0  0  0  0  0  0
   -0.8958   -1.2667    0.0000 H   0  0  0  0  0  0  0  0  0  0  0  0
  2  5  1  0
  3  4  2  0
  4  1  1  0
  5  1  1  0
  6  1  1  0
  7 11  1  0
  8  3  1  0
  9  8  1  0
 10 15  1  0
 11  6  1  0
 12 13  1  0
 13  6  1  0
 14 10  1  0
 15 12  1  0
 16  2  1  0
 17 14  2  0
 18  9  1  0
 19  5  2  0
 20  8  2  0
 11 21  1  1
 22 14  1  0
  1 23  1  1
 24 16  2  0
 25  4  1  0
 26  7  1  0
 27 18  2  0
 28 16  1  0
 29 18  1  0
 30 21  1  0
 31 21  1  0
 32 22  1  0
 33 22  1  0
  6 34  1  1
 12 35  1  1
  3 12  1  0
  2  7  2  0
 10  9  2  0
 17 27  1  0
M  END
> <chembl_id>
CHEMBL1434

> <chembl_pref_name>
MINOCYCLINE
