
     RDKit          2D

 27 28  0  0  0  0  0  0  0  0999 V2000
    4.1042   -2.6542    0.0000 Cl  0  0  0  0  0  0  0  0  0  0  0  0
    3.4375   -5.0917    0.0000 C   0  0  0  0  0  0  0  0  0  0  0  0
    2.8292   -4.7542    0.0000 N   0  0  0  0  0  0  0  0  0  0  0  0
    1.5667   -2.6500    0.0000 N   0  0  0  0  0  0  0  0  0  0  0  0
    2.2042   -5.1125    0.0000 C   0  0  0  0  0  0  0  0  0  0  0  0
    4.0417   -4.7625    0.0000 C   0  0  0  0  0  0  0  0  0  0  0  0
    3.4042   -5.8125    0.0000 O   0  0  0  0  0  0  0  0  0  0  0  0
    0.9667   -3.0042    0.0000 C   0  0  0  0  0  0  0  0  0  0  0  0
    1.6125   -4.7667    0.0000 C   0  0  0  0  0  0  0  0  0  0  0  0
    1.6000   -4.0667    0.0000 C   0  0  0  0  0  0  0  0  0  0  0  0
    0.9750   -3.7167    0.0000 C   0  0  0  0  0  0  0  0  0  0  0  0
    4.0500   -4.0667    0.0000 C   0  0  0  0  0  0  0  0  0  0  0  0
    4.6542   -5.1167    0.0000 C   0  0  0  0  0  0  0  0  0  0  0  0
    5.2792   -4.0667    0.0000 C   0  0  0  0  0  0  0  0  0  0  0  0
    5.2542   -4.7875    0.0000 C   0  0  0  0  0  0  0  0  0  0  0  0
    4.6667   -3.7167    0.0000 C   0  0  0  0  0  0  0  0  0  0  0  0
    2.1792   -2.9917    0.0000 C   0  0  0  0  0  0  0  0  0  0  0  0
    1.5375   -1.9292    0.0000 C   0  0  0  0  0  0  0  0  0  0  0  0
    5.9000   -3.7542    0.0000 O   0  0  0  0  0  0  0  0  0  0  0  0
    2.2042   -5.8167    0.0000 C   0  0  0  0  0  0  0  0  0  0  0  0
    0.9792   -5.1292    0.0000 C   0  0  0  0  0  0  0  0  0  0  0  0
    0.2625   -2.6042    0.0000 C   0  0  0  0  0  0  0  0  0  0  0  0
    6.5042   -4.1125    0.0000 C   0  0  0  0  0  0  0  0  0  0  0  0
    0.8750   -1.5542    0.0000 C   0  0  0  0  0  0  0  0  0  0  0  0
    1.6000   -6.1750    0.0000 C   0  0  0  0  0  0  0  0  0  0  0  0
    0.9917   -5.8292    0.0000 C   0  0  0  0  0  0  0  0  0  0  0  0
    0.2292   -1.9250    0.0000 C   0  0  0  0  0  0  0  0  0  0  0  0
  3  2  1  0
  4  8  1  0
  5  3  1  0
  6  2  1  0
  7  2  2  0
  8 11  1  0
  9  5  2  0
 10  9  1  0
 11 10  1  0
 12  6  2  0
 13  6  1  0
 14 15  1  0
 15 13  2  0
 16 12  1  0
 17  4  1  0
 18  4  1  0
 19 14  1  0
 20  5  1  0
 21  9  1  0
 22  8  1  0
 23 19  1  0
 24 27  1  0
 25 20  2  0
 26 25  1  0
 27 22  1  0
 16 14  2  0
 21 26  2  0
 18 24  1  0
M  END
> <chembl_id>
CHEMBL2106155

> <chembl_pref_name>
ENCAINIDE HYDROCHLORIDE
