
     RDKit          2D

 35 38  0  0  0  0  0  0  0  0999 V2000
   -5.9812   -2.9759    0.0000 C   0  0  0  0  0  0  0  0  0  0  0  0
   -6.6957   -3.3884    0.0000 C   0  0  0  0  0  0  0  0  0  0  0  0
   -6.6957   -4.2134    0.0000 C   0  0  0  0  0  0  0  0  0  0  0  0
   -5.9812   -4.6259    0.0000 C   0  0  0  0  0  0  0  0  0  0  0  0
   -5.2668   -4.2134    0.0000 C   0  0  0  0  0  0  0  0  0  0  0  0
   -5.2668   -3.3884    0.0000 C   0  0  0  0  0  0  0  0  0  0  0  0
   -4.5523   -2.9759    0.0000 F   0  0  0  0  0  0  0  0  0  0  0  0
   -5.9812   -5.4509    0.0000 F   0  0  0  0  0  0  0  0  0  0  0  0
   -4.5523   -4.6259    0.0000 S   0  0  0  0  0  0  0  0  0  0  0  0
   -3.8378   -4.2134    0.0000 N   0  0  0  0  0  0  0  0  0  0  0  0
   -3.1234   -4.6259    0.0000 C   0  0  0  0  0  0  0  0  0  0  0  0
   -2.4089   -4.2134    0.0000 C   0  0  0  0  0  0  0  0  0  0  0  0
   -3.1234   -5.4509    0.0000 C   0  0  0  0  0  0  0  0  0  0  0  0
   -2.4089   -5.8634    0.0000 C   0  0  0  0  0  0  0  0  0  0  0  0
   -1.6944   -5.4509    0.0000 C   0  0  0  0  0  0  0  0  0  0  0  0
   -1.6944   -4.6259    0.0000 C   0  0  0  0  0  0  0  0  0  0  0  0
   -2.4089   -3.3884    0.0000 F   0  0  0  0  0  0  0  0  0  0  0  0
   -0.9800   -4.2134    0.0000 C   0  0  0  0  0  0  0  0  0  0  0  0
    0.0120   -3.3202    0.0000 S   0  0  0  0  0  0  0  0  0  0  0  0
   -0.8085   -3.4065    0.0000 C   0  0  0  0  0  0  0  0  0  0  0  0
   -0.2655   -4.6259    0.0000 N   0  0  0  0  0  0  0  0  0  0  0  0
    0.3476   -4.0739    0.0000 C   0  0  0  0  0  0  0  0  0  0  0  0
   -1.3918   -2.8231    0.0000 C   0  0  0  0  0  0  0  0  0  0  0  0
   -1.3918   -1.3941    0.0000 C   0  0  0  0  0  0  0  0  0  0  0  0
   -2.2168   -1.3942    0.0000 N   0  0  0  0  0  0  0  0  0  0  0  0
   -2.6293   -2.1086    0.0000 C   0  0  0  0  0  0  0  0  0  0  0  0
   -2.2168   -2.8231    0.0000 C   0  0  0  0  0  0  0  0  0  0  0  0
   -0.9793   -2.1086    0.0000 N   0  0  0  0  0  0  0  0  0  0  0  0
   -0.8084   -0.8108    0.0000 N   0  0  0  0  0  0  0  0  0  0  0  0
    1.0620   -4.4864    0.0000 C   0  0  0  0  0  0  0  0  0  0  0  0
    1.7765   -4.0739    0.0000 C   0  0  0  0  0  0  0  0  0  0  0  0
    1.4745   -5.2009    0.0000 C   0  0  0  0  0  0  0  0  0  0  0  0
    0.3476   -4.8989    0.0000 C   0  0  0  0  0  0  0  0  0  0  0  0
   -4.9648   -5.3404    0.0000 O   0  0  0  0  0  0  0  0  0  0  0  0
   -4.1398   -5.3404    0.0000 O   0  0  0  0  0  0  0  0  0  0  0  0
  1  2  1  0
  1  6  2  0
  2  3  2  0
  3  4  1  0
  4  5  2  0
  5  6  1  0
  6  7  1  0
  4  8  1  0
  5  9  1  0
  9 10  1  0
 10 11  1  0
 12 11  2  0
 11 13  1  0
 12 16  1  0
 13 14  2  0
 14 15  1  0
 15 16  2  0
 12 17  1  0
 16 18  1  0
 20 18  2  0
 18 21  1  0
 19 20  1  0
 19 22  1  0
 21 22  2  0
 20 23  1  0
 27 23  1  0
 23 28  2  0
 24 25  2  0
 24 28  1  0
 25 26  1  0
 26 27  2  0
 24 29  1  0
 22 30  1  0
 30 31  1  0
 30 32  1  0
 30 33  1  0
  9 34  2  0
  9 35  2  0
M  END
> <chembl_id>
CHEMBL2028663

> <chembl_pref_name>
DABRAFENIB
