
     RDKit          2D

 20 20  0  0  0  0  0  0  0  0999 V2000
    4.7417   -1.7625    0.0000 K   0  0  0  0  0 15  0  0  0  0  0  0
    1.5917   -2.4625    0.0000 N   0  0  0  0  0  0  0  0  0  0  0  0
    0.9792   -2.8167    0.0000 C   0  0  0  0  0  0  0  0  0  0  0  0
    2.2042   -2.8167    0.0000 C   0  0  0  0  0  0  0  0  0  0  0  0
    3.4167   -1.3917    0.0000 C   0  0  0  0  0  0  0  0  0  0  0  0
    2.8125   -2.4542    0.0000 C   0  0  0  0  0  0  0  0  0  0  0  0
    0.9792   -3.5292    0.0000 C   0  0  0  0  0  0  0  0  0  0  0  0
    0.3667   -2.4667    0.0000 C   0  0  0  0  0  0  0  0  0  0  0  0
    2.8042   -1.7500    0.0000 C   0  0  0  0  0  0  0  0  0  0  0  0
    4.0292   -1.7417    0.0000 O   0  0  0  0  0  0  0  0  0  0  0  0
    3.4042   -0.6792    0.0000 O   0  0  0  0  0  0  0  0  0  0  0  0
    1.5917   -3.8875    0.0000 Cl  0  0  0  0  0  0  0  0  0  0  0  0
    0.3667   -1.7542    0.0000 Cl  0  0  0  0  0  0  0  0  0  0  0  0
   -0.2458   -3.5292    0.0000 C   0  0  0  0  0  0  0  0  0  0  0  0
    2.2042   -3.5250    0.0000 C   0  0  0  0  0  0  0  0  0  0  0  0
   -0.2458   -2.8167    0.0000 C   0  0  0  0  0  0  0  0  0  0  0  0
    0.3667   -3.8875    0.0000 C   0  0  0  0  0  0  0  0  0  0  0  0
    3.4250   -2.8042    0.0000 C   0  0  0  0  0  0  0  0  0  0  0  0
    3.4292   -3.5167    0.0000 C   0  0  0  0  0  0  0  0  0  0  0  0
    2.8167   -3.8750    0.0000 C   0  0  0  0  0  0  0  0  0  0  0  0
  3  2  1  0
  4  2  1  0
  5  9  1  0
  6  4  1  0
  7  3  1  0
  8  3  2  0
  9  6  1  0
 10  5  1  0
 11  5  2  0
 12  7  1  0
 13  8  1  0
 14 16  2  0
 15  4  2  0
 16  8  1  0
 17  7  2  0
 18  6  2  0
 19 20  2  0
 20 15  1  0
 14 17  1  0
 18 19  1  0
M  CHG  2   1   1  10  -1
M  END
> <chembl_id>
CHEMBL1200804

> <chembl_pref_name>
DICLOFENAC POTASSIUM
