
     RDKit          2D

 22 25  0  0  1  0  0  0  0  0999 V2000
    1.1375    0.1333    0.0000 C   0  0  0  0  0  0  0  0  0  0  0  0
   -0.9958    0.1458    0.0000 C   0  0  0  0  0  0  0  0  0  0  0  0
   -0.7458    1.3083    0.0000 O   0  0  0  0  0  0  0  0  0  0  0  0
    0.1167   -0.5042    0.0000 C   0  0  0  0  0  0  0  0  0  0  0  0
    0.5875    1.2833    0.0000 C   0  0  0  0  0  0  0  0  0  0  0  0
    0.1167   -1.7750    0.0000 C   0  0  0  0  0  0  0  0  0  0  0  0
    2.3917    0.1125    0.0000 C   0  0  0  0  0  0  0  0  0  0  0  0
    2.1292   -2.5292    0.0000 N   0  0  0  0  0  0  0  0  0  0  0  0
    2.3917   -0.4917    0.0000 C   0  0  0  0  0  0  0  0  0  0  0  0
    1.3000    2.3333    0.0000 C   0  0  0  0  0  0  0  0  0  0  0  0
    0.9125   -2.6167    0.0000 C   0  0  0  0  0  0  0  0  0  0  0  0
   -2.1000   -0.4917    0.0000 C   0  0  0  0  0  0  0  0  0  0  0  0
    3.0917    1.1833    0.0000 C   0  0  0  0  0  0  0  0  0  0  0  0
   -0.9958   -2.4375    0.0000 C   0  0  0  0  0  0  0  0  0  0  0  0
   -2.1000   -1.7750    0.0000 C   0  0  0  0  0  0  0  0  0  0  0  0
    2.7375   -1.6042    0.0000 C   0  0  0  0  0  0  0  0  0  0  0  0
    2.5375    2.3500    0.0000 C   0  0  0  0  0  0  0  0  0  0  0  0
   -3.1583    0.1000    0.0000 O   0  0  0  0  0  0  0  0  0  0  0  0
    3.2167    3.4583    0.0000 O   0  0  0  0  0  0  0  0  0  0  0  0
    2.7542   -3.5917    0.0000 C   0  0  0  0  0  0  0  0  0  0  0  0
   -3.1583    1.3208    0.0000 C   0  0  0  0  0  0  0  0  0  0  0  0
    0.3000    2.4833    0.0000 H   0  0  0  0  0  0  0  0  0  0  0  0
  2  4  1  0
  3  5  1  0
  4  1  1  0
  5  1  1  0
  6  4  2  0
  7  1  1  0
  8 16  1  0
  1  9  1  6
 10  5  1  0
 11  6  1  0
 12  2  2  0
 13  7  2  0
 14  6  1  0
 15 14  2  0
 16  9  1  0
 17 13  1  0
 18 12  1  0
 17 19  1  1
 20  8  1  0
 21 18  1  0
  5 22  1  6
  2  3  1  0
 10 17  1  0
 11  8  1  0
 12 15  1  0
M  END
> <chembl_id>
CHEMBL659

> <chembl_pref_name>
GALANTAMINE
