
     RDKit          2D

 29 32  0  0  1  0  0  0  0  0999 V2000
    1.2625   -2.8542    0.0000 C   0  0  0  0  0  0  0  0  0  0  0  0
    0.6875   -2.5125    0.0000 C   0  0  0  0  0  0  0  0  0  0  0  0
    0.7000   -1.8375    0.0000 N   0  0  0  0  0  0  0  0  0  0  0  0
    1.8542   -2.5292    0.0000 C   0  0  0  0  0  0  0  0  0  0  0  0
    3.0250   -2.5500    0.0000 N   0  0  0  0  0  0  0  0  0  0  0  0
    2.4292   -2.8792    0.0000 C   0  0  0  0  0  0  0  0  0  0  0  0
    0.0917   -2.8375    0.0000 O   0  0  0  0  0  0  0  0  0  0  0  0
    2.0000   -4.3417    0.0000 C   0  0  0  0  0  0  0  0  0  0  0  0
    0.6792   -3.5250    0.0000 C   0  0  0  0  0  0  0  0  0  0  0  0
    4.2042   -1.9042    0.0000 O   0  0  0  0  0  0  0  0  0  0  0  0
    0.1542   -1.4292    0.0000 C   0  0  0  0  0  0  0  0  0  0  0  0
    1.2500   -1.4500    0.0000 C   0  0  0  0  0  0  0  0  0  0  0  0
    3.0375   -1.8792    0.0000 C   0  0  0  0  0  0  0  0  0  0  0  0
    3.6042   -2.9000    0.0000 C   0  0  0  0  0  0  0  0  0  0  0  0
    3.6292   -1.5542    0.0000 C   0  0  0  0  0  0  0  0  0  0  0  0
    4.1875   -2.5792    0.0000 C   0  0  0  0  0  0  0  0  0  0  0  0
    2.7042   -3.4417    0.0000 C   0  0  0  0  0  0  0  0  0  0  0  0
    0.0042   -3.5042    0.0000 C   0  0  0  0  0  0  0  0  0  0  0  0
    1.0125   -4.1125    0.0000 C   0  0  0  0  0  0  0  0  0  0  0  0
    1.6417   -4.9167    0.0000 C   0  0  0  0  0  0  0  0  0  0  0  0
    2.6667   -4.3542    0.0000 C   0  0  0  0  0  0  0  0  0  0  0  0
    1.0542   -0.8000    0.0000 C   0  0  0  0  0  0  0  0  0  0  0  0
    0.3792   -0.7917    0.0000 C   0  0  0  0  0  0  0  0  0  0  0  0
    2.9917   -4.9542    0.0000 C   0  0  0  0  0  0  0  0  0  0  0  0
   -0.3375   -4.0792    0.0000 C   0  0  0  0  0  0  0  0  0  0  0  0
    0.6542   -4.6875    0.0000 C   0  0  0  0  0  0  0  0  0  0  0  0
    1.9667   -5.5042    0.0000 C   0  0  0  0  0  0  0  0  0  0  0  0
   -0.0208   -4.6750    0.0000 C   0  0  0  0  0  0  0  0  0  0  0  0
    2.6417   -5.5292    0.0000 C   0  0  0  0  0  0  0  0  0  0  0  0
  2  1  1  0
  3  2  1  0
  4  1  1  0
  5  6  1  0
  6  4  1  0
  7  2  2  0
  8  1  1  0
  9  1  1  0
 10 16  1  0
 11  3  1  0
 12  3  1  0
 13  5  1  0
 14  5  1  0
 15 13  1  0
 16 14  1  0
  6 17  1  1
 18  9  1  0
 19  9  2  0
 20  8  2  0
 21  8  1  0
 22 12  1  0
 23 11  1  0
 24 21  2  0
 25 18  2  0
 26 19  1  0
 27 20  1  0
 28 26  2  0
 29 24  1  0
 25 28  1  0
 27 29  2  0
 23 22  1  0
 15 10  1  0
M  END
> <chembl_id>
CHEMBL3833389

> <chembl_pref_name>
DEXTROMORAMIDE
