
     RDKit          2D

  6  6  0  0  0  0  0  0  0  0999 V2000
    1.4667    0.0000    0.0000 N   0  0  0  0  0  0  0  0  0  0  0  0
   -1.3583    0.0000    0.0000 N   0  0  0  0  0  0  0  0  0  0  0  0
    0.7792    1.2500    0.0000 C   0  0  0  0  0  0  0  0  0  0  0  0
   -0.6250    1.2500    0.0000 C   0  0  0  0  0  0  0  0  0  0  0  0
    0.7792   -1.2417    0.0000 C   0  0  0  0  0  0  0  0  0  0  0  0
   -0.6708   -1.2417    0.0000 C   0  0  0  0  0  0  0  0  0  0  0  0
  2  6  1  0
  3  1  1  0
  4  3  1  0
  5  1  1  0
  6  5  1  0
  4  2  1  0
M  END
> <chembl_id>
CHEMBL1412

> <chembl_pref_name>
PIPERAZINE
