
     RDKit          2D

 21 23  0  0  0  0  0  0  0  0999 V2000
    1.9875   -2.7792    0.0000 N   0  0  0  0  0  0  0  0  0  0  0  0
    1.3042   -1.3417    0.0000 N   0  0  0  0  0  0  0  0  0  0  0  0
    0.7500   -2.4917    0.0000 C   0  0  0  0  0  0  0  0  0  0  0  0
    1.2917   -2.9292    0.0000 C   0  0  0  0  0  0  0  0  0  0  0  0
    1.9917   -1.5042    0.0000 C   0  0  0  0  0  0  0  0  0  0  0  0
    0.7542   -1.7792    0.0000 C   0  0  0  0  0  0  0  0  0  0  0  0
    2.3042   -2.1417    0.0000 C   0  0  0  0  0  0  0  0  0  0  0  0
    0.1417   -1.4167    0.0000 C   0  0  0  0  0  0  0  0  0  0  0  0
    0.1375   -2.8292    0.0000 C   0  0  0  0  0  0  0  0  0  0  0  0
    2.4417   -0.9417    0.0000 O   0  0  0  0  0  0  0  0  0  0  0  0
    0.9417   -3.5500    0.0000 C   0  0  0  0  0  0  0  0  0  0  0  0
    3.0125   -2.1542    0.0000 O   0  0  0  0  0  0  0  0  0  0  0  0
   -0.4833   -2.4750    0.0000 C   0  0  0  0  0  0  0  0  0  0  0  0
    1.1625   -0.6417    0.0000 C   0  0  0  0  0  0  0  0  0  0  0  0
   -0.4833   -1.7667    0.0000 C   0  0  0  0  0  0  0  0  0  0  0  0
   -1.1083   -2.8250    0.0000 Cl  0  0  0  0  0  0  0  0  0  0  0  0
    1.3042   -4.1625    0.0000 C   0  0  0  0  0  0  0  0  0  0  0  0
    0.2417   -3.5542    0.0000 C   0  0  0  0  0  0  0  0  0  0  0  0
   -0.1208   -4.1750    0.0000 C   0  0  0  0  0  0  0  0  0  0  0  0
    0.9542   -4.7875    0.0000 C   0  0  0  0  0  0  0  0  0  0  0  0
    0.2417   -4.7917    0.0000 C   0  0  0  0  0  0  0  0  0  0  0  0
  2  5  1  0
  3  4  1  0
  4  1  2  0
  5  7  1  0
  6  3  1  0
  7  1  1  0
  8  6  2  0
  9  3  2  0
 10  5  2  0
 11  4  1  0
 12  7  1  0
 13  9  1  0
 14  2  1  0
 15 13  2  0
 16 13  1  0
 17 11  2  0
 18 11  1  0
 19 18  2  0
 20 17  1  0
 21 19  1  0
  2  6  1  0
 21 20  2  0
 15  8  1  0
M  END
> <chembl_id>
CHEMBL967

> <chembl_pref_name>
TEMAZEPAM
