
     RDKit          2D

 39 41  0  0  0  0  0  0  0  0999 V2000
    6.2467    0.0000    0.0000 Cl  0  0  0  0  0  0  0  0  0  0  0  0
   -3.1373    0.1149    0.0000 C   0  0  0  0  0  0  0  0  0  0  0  0
   -2.4229    0.5274    0.0000 C   0  0  0  0  0  0  0  0  0  0  0  0
   -3.1373   -0.7101    0.0000 C   0  0  0  0  0  0  0  0  0  0  0  0
   -2.4229   -1.1226    0.0000 C   0  0  0  0  0  0  0  0  0  0  0  0
   -2.4229   -1.9476    0.0000 O   0  0  0  0  0  0  0  0  0  0  0  0
   -1.7084   -0.7101    0.0000 C   0  0  0  0  0  0  0  0  0  0  0  0
   -0.9939   -1.9476    0.0000 O   0  0  0  0  0  0  0  0  0  0  0  0
   -0.9939   -1.1226    0.0000 C   0  0  0  0  0  0  0  0  0  0  0  0
   -0.2794   -0.7101    0.0000 C   0  0  0  0  0  0  0  0  0  0  0  0
    0.4350   -1.1226    0.0000 C   0  0  0  0  0  0  0  0  0  0  0  0
    0.4350   -1.9476    0.0000 O   0  0  0  0  0  0  0  0  0  0  0  0
    1.1495   -0.7101    0.0000 C   0  0  0  0  0  0  0  0  0  0  0  0
    1.8640   -1.1226    0.0000 C   0  0  0  0  0  0  0  0  0  0  0  0
    3.2929   -1.1226    0.0000 C   0  0  0  0  0  0  0  0  0  0  0  0
    4.0074   -0.7101    0.0000 O   0  0  0  0  0  0  0  0  0  0  0  0
    3.2929   -1.9476    0.0000 N   0  0  0  0  0  0  0  0  0  0  0  0
    2.5784   -0.7101    0.0000 C   0  0  0  0  0  0  0  0  0  0  0  0
    3.2929    0.5274    0.0000 O   0  0  0  0  0  0  0  0  0  0  0  0
    2.5784    0.1149    0.0000 C   0  0  0  0  0  0  0  0  0  0  0  0
    1.1495    0.1149    0.0000 C   0  0  0  0  0  0  0  0  0  0  0  0
    0.8673    0.8902    0.0000 H   0  0  0  0  0  0  0  0  0  0  0  0
   -0.2794    0.1149    0.0000 C   0  0  0  0  0  0  0  0  0  0  0  0
   -0.2794    0.9399    0.0000 H   0  0  0  0  0  0  0  0  0  0  0  0
   -0.9939    0.5274    0.0000 C   0  0  0  0  0  0  0  0  0  0  0  0
   -1.7084    0.1149    0.0000 C   0  0  0  0  0  0  0  0  0  0  0  0
   -2.4229    1.3524    0.0000 C   0  0  0  0  0  0  0  0  0  0  0  0
   -3.1373    1.7649    0.0000 N   0  0  0  0  0  0  0  0  0  0  0  0
    0.4350    0.5274    0.0000 C   0  0  0  0  0  0  0  0  0  0  0  0
    1.8640    0.5274    0.0000 C   0  0  0  0  0  0  0  0  0  0  0  0
    2.5784    1.7649    0.0000 C   0  0  0  0  0  0  0  0  0  0  0  0
    1.8640    1.3524    0.0000 N   0  0  0  0  0  0  0  0  0  0  0  0
   -3.8518    1.3524    0.0000 C   0  0  0  0  0  0  0  0  0  0  0  0
    1.1495    1.7649    0.0000 C   0  0  0  0  0  0  0  0  0  0  0  0
   -3.8518    3.0024    0.0000 C   0  0  0  0  0  0  0  0  0  0  0  0
   -3.1373    2.5899    0.0000 O   0  0  0  0  0  0  0  0  0  0  0  0
    1.3337    1.1594    0.0000 H   0  0  0  0  0  0  0  0  0  0  0  0
    1.8640   -1.9476    0.0000 O   0  0  0  0  0  0  0  0  0  0  0  0
    1.1495   -1.5351    0.0000 O   0  0  0  0  0  0  0  0  0  0  0  0
  2  3  2  0
  2  4  1  0
  3 26  1  0
  3 27  1  0
  4  5  2  0
  5  6  1  0
  7  5  1  0
  7  9  1  0
  8  9  2  0
  9 10  1  0
 10 11  2  0
 11 12  1  0
 11 13  1  0
 13 21  1  0
 14 13  1  0
 15 16  2  0
 17 15  1  0
 18 15  1  0
 18 14  1  0
 19 20  1  0
 20 18  2  0
 21 22  1  6
 21 30  1  0
 23 24  1  6
 23 25  1  0
 23 10  1  0
 23 29  1  0
 25 26  1  0
 26  7  2  0
 27 28  1  0
 28 33  1  0
 29 21  1  0
 30 20  1  0
 30 37  1  1
 30 32  1  6
 31 32  1  0
 32 34  1  0
 35 36  1  0
 36 28  1  0
 14 38  2  0
 13 39  1  6
M  END
> <chembl_id>
CHEMBL2364633

> <chembl_pref_name>
SARECYCLINE HYDROCHLORIDE
