
     RDKit          2D

 19 19  0  0  0  0  0  0  0  0999 V2000
   -0.6682    0.2171    0.0000 O   0  0  0  0  0  0  0  0  0  0  0  0
   -0.8013   -1.1030    0.0000 O   0  0  0  0  0  0  0  0  0  0  0  0
    2.8663    0.0936    0.0000 N   0  0  0  0  0  0  0  0  0  0  0  0
    2.7220   -1.2351    0.0000 N   0  0  0  0  0  0  0  0  0  0  0  0
    0.6682    0.2171    0.0000 C   0  0  0  0  0  0  0  0  0  0  0  0
    0.4130   -0.5684    0.0000 C   0  0  0  0  0  0  0  0  0  0  0  0
   -0.4130   -0.5684    0.0000 C   0  0  0  0  0  0  0  0  0  0  0  0
    2.0667   -0.0834    0.0000 C   0  0  0  0  0  0  0  0  0  0  0  0
    1.4534    0.4704    0.0000 C   0  0  0  0  0  0  0  0  0  0  0  0
    0.0000    0.7026    0.0000 C   0  0  0  0  0  0  0  0  0  0  0  0
    1.9686   -0.8965    0.0000 C   0  0  0  0  0  0  0  0  0  0  0  0
    0.8965   -1.2368    0.0000 C   0  0  0  0  0  0  0  0  0  0  0  0
    3.2768   -0.6232    0.0000 C   0  0  0  0  0  0  0  0  0  0  0  0
    3.1336    0.6979    0.0000 C   0  0  0  0  0  0  0  0  0  0  0  0
    0.6269   -1.8401    0.0000 C   0  0  0  0  0  0  0  0  0  0  0  0
    4.7968   -1.1079    0.0000 O   0  0  0  0  0  0  0  0  0  0  0  0
    5.3692   -0.1170    0.0000 O   0  0  0  0  0  0  0  0  0  0  0  0
    5.9415   -1.1079    0.0000 O   0  0  0  0  0  0  0  0  0  0  0  0
    5.3692   -0.7777    0.0000 N   0  0  0  0  0  0  0  0  0  0  0  0
  1  7  1  0
  1 10  1  0
  2  7  2  0
  3  8  1  0
  3 13  1  0
  3 14  1  0
  4 11  1  0
  4 13  2  0
  5  6  1  0
  5  9  1  6
  5 10  1  0
  6  7  1  0
  6 12  1  6
  8  9  1  0
  8 11  2  0
 12 15  1  0
 16 19  1  0
 17 19  1  0
 18 19  2  0
M  CHG  2  16  -1  19   1
M  END
> <chembl_id>
CHEMBL1213136

> <chembl_pref_name>
PILOCARPINE NITRATE
