
     RDKit          2D

 21 20  0  0  0  0  0  0  0  0999 V2000
    3.1821   -6.3348    0.0000 O   0  0  0  0  0  0  0  0  0  0  0  0
    2.5287   -3.5218    0.0000 C   0  0  0  0  0  0  0  0  0  0  0  0
    3.2408   -3.9384    0.0000 C   0  0  0  0  0  0  0  0  0  0  0  0
    1.8166   -3.9433    0.0000 C   0  0  0  0  0  0  0  0  0  0  0  0
    3.2408   -4.7571    0.0000 N   0  0  0  0  0  0  0  0  0  0  0  0
    3.9529   -3.5218    0.0000 C   0  0  0  0  0  0  0  0  0  0  0  0
    1.0948   -3.5364    0.0000 C   0  0  0  0  0  0  0  0  0  0  0  0
    1.8166   -4.7716    0.0000 C   0  0  0  0  0  0  0  0  0  0  0  0
    0.3827   -4.7716    0.0000 C   0  0  0  0  0  0  0  0  0  0  0  0
    1.9377   -2.9405    0.0000 C   0  0  0  0  0  0  0  0  0  0  0  0
    3.1100   -2.9405    0.0000 C   0  0  0  0  0  0  0  0  0  0  0  0
    0.3827   -3.9433    0.0000 C   0  0  0  0  0  0  0  0  0  0  0  0
    1.0948   -5.1882    0.0000 C   0  0  0  0  0  0  0  0  0  0  0  0
   -0.3294   -5.1882    0.0000 Cl  0  0  0  0  0  0  0  0  0  0  0  0
    2.5191   -2.3592    0.0000 C   0  0  0  0  0  0  0  0  0  0  0  0
    4.6699   -3.9384    0.0000 C   0  0  0  0  0  0  0  0  0  0  0  0
    3.9578   -5.1688    0.0000 C   0  0  0  0  0  0  0  0  0  0  0  0
    2.5287   -5.1688    0.0000 C   0  0  0  0  0  0  0  0  0  0  0  0
    5.3820   -3.5218    0.0000 C   0  0  0  0  0  0  0  0  0  0  0  0
    4.6699   -4.7571    0.0000 C   0  0  0  0  0  0  0  0  0  0  0  0
    1.7149   -5.8761    0.0000 Cl  0  0  0  0  0  0  0  0  0  0  0  0
  3  2  1  0
  4  2  1  0
  5  3  1  0
  6  3  1  0
  7  4  2  0
  8  4  1  0
  9 13  1  0
 10  2  1  0
 11  2  1  0
 12  7  1  0
 13  8  2  0
 14  9  1  0
 15 11  1  0
 16  6  1  0
 17  5  1  0
 18  5  1  0
 19 16  1  0
 20 16  1  0
 15 10  1  0
  9 12  2  0
M  END
> <chembl_id>
CHEMBL3989830

> <chembl_pref_name>
SIBUTRAMINE HYDROCHLORIDE
