
     RDKit          2D

 23 25  0  0  1  0  0  0  0  0999 V2000
    2.9542   -3.0542    0.0000 C   0  0  0  0  0  0  0  0  0  0  0  0
    0.5292   -4.5042    0.0000 C   0  0  0  0  0  0  0  0  0  0  0  0
    2.9542   -2.3292    0.0000 N   0  0  0  0  0  0  0  0  0  0  0  0
    1.1375   -4.1625    0.0000 C   0  0  0  0  0  0  0  0  0  0  0  0
    3.5792   -3.3875    0.0000 C   0  0  0  0  0  0  0  0  0  0  0  0
    0.5292   -5.2417    0.0000 C   0  0  0  0  0  0  0  0  0  0  0  0
    2.3542   -3.4167    0.0000 C   0  0  0  0  0  0  0  0  0  0  0  0
    1.1417   -3.4292    0.0000 O   0  0  0  0  0  0  0  0  0  0  0  0
    1.7375   -3.0917    0.0000 C   0  0  0  0  0  0  0  0  0  0  0  0
    1.7542   -5.2417    0.0000 C   0  0  0  0  0  0  0  0  0  0  0  0
    1.7542   -4.5042    0.0000 C   0  0  0  0  0  0  0  0  0  0  0  0
   -0.0958   -4.1625    0.0000 C   0  0  0  0  0  0  0  0  0  0  0  0
    3.5750   -1.9667    0.0000 C   0  0  0  0  0  0  0  0  0  0  0  0
    2.3167   -1.9917    0.0000 C   0  0  0  0  0  0  0  0  0  0  0  0
    1.1375   -5.5917    0.0000 C   0  0  0  0  0  0  0  0  0  0  0  0
    4.1917   -3.0167    0.0000 C   0  0  0  0  0  0  0  0  0  0  0  0
    3.5792   -4.0792    0.0000 C   0  0  0  0  0  0  0  0  0  0  0  0
   -0.0958   -5.5917    0.0000 C   0  0  0  0  0  0  0  0  0  0  0  0
   -0.7125   -4.5042    0.0000 C   0  0  0  0  0  0  0  0  0  0  0  0
    4.8000   -3.3875    0.0000 C   0  0  0  0  0  0  0  0  0  0  0  0
    4.1917   -4.4417    0.0000 C   0  0  0  0  0  0  0  0  0  0  0  0
   -0.7125   -5.2417    0.0000 C   0  0  0  0  0  0  0  0  0  0  0  0
    4.8000   -4.0792    0.0000 C   0  0  0  0  0  0  0  0  0  0  0  0
  2  4  1  0
  1  3  1  0
  4  8  1  0
  5  1  1  0
  6  2  1  0
  1  7  1  6
  8  9  1  0
  9  7  1  0
 10 11  1  0
 11  4  2  0
 12  2  2  0
 13  3  1  0
 14  3  1  0
 15 10  2  0
 16  5  2  0
 17  5  1  0
 18  6  2  0
 19 12  1  0
 20 16  1  0
 21 17  2  0
 22 19  2  0
 23 20  2  0
 21 23  1  0
  6 15  1  0
 18 22  1  0
M  END
> <chembl_id>
CHEMBL2110900

> <chembl_pref_name>
DAPOXETINE
