
     RDKit          2D

 42 46  0  0  0  0  0  0  0  0999 V2000
   -3.1114   -7.8595    0.0000 C   0  0  0  0  0  0  0  0  0  0  0  0
   -3.8259   -7.4470    0.0000 C   0  0  0  0  0  0  0  0  0  0  0  0
   -3.8259   -6.6220    0.0000 C   0  0  0  0  0  0  0  0  0  0  0  0
   -3.1114   -6.2095    0.0000 C   0  0  0  0  0  0  0  0  0  0  0  0
   -2.3969   -6.6220    0.0000 C   0  0  0  0  0  0  0  0  0  0  0  0
   -2.3969   -7.4470    0.0000 C   0  0  0  0  0  0  0  0  0  0  0  0
   -4.5404   -6.2095    0.0000 O   0  0  0  0  0  0  0  0  0  0  0  0
   -1.6825   -6.2095    0.0000 N   0  0  0  0  0  0  0  0  0  0  0  0
   -1.6825   -5.3845    0.0000 C   0  0  0  0  0  0  0  0  0  0  0  0
   -0.9680   -6.6220    0.0000 C   0  0  0  0  0  0  0  0  0  0  0  0
   -0.2535   -6.2095    0.0000 C   0  0  0  0  0  0  0  0  0  0  0  0
   -0.2535   -5.3845    0.0000 N   0  0  0  0  0  0  0  0  0  0  0  0
   -0.9680   -4.9720    0.0000 C   0  0  0  0  0  0  0  0  0  0  0  0
    0.4609   -4.9720    0.0000 C   0  0  0  0  0  0  0  0  0  0  0  0
    0.4609   -4.1470    0.0000 N   0  0  0  0  0  0  0  0  0  0  0  0
    1.1754   -5.3845    0.0000 N   0  0  0  0  0  0  0  0  0  0  0  0
    1.8899   -4.9720    0.0000 C   0  0  0  0  0  0  0  0  0  0  0  0
    1.8899   -4.1470    0.0000 C   0  0  0  0  0  0  0  0  0  0  0  0
    1.1754   -3.7345    0.0000 C   0  0  0  0  0  0  0  0  0  0  0  0
    2.6044   -5.3845    0.0000 C   0  0  0  0  0  0  0  0  0  0  0  0
    3.3188   -4.9720    0.0000 C   0  0  0  0  0  0  0  0  0  0  0  0
    3.3188   -4.1470    0.0000 C   0  0  0  0  0  0  0  0  0  0  0  0
    2.6044   -3.7345    0.0000 C   0  0  0  0  0  0  0  0  0  0  0  0
   -0.2535   -3.7345    0.0000 C   0  0  0  0  0  0  0  0  0  0  0  0
   -1.6825   -2.9095    0.0000 C   0  0  0  0  0  0  0  0  0  0  0  0
   -1.6825   -3.7345    0.0000 C   0  0  0  0  0  0  0  0  0  0  0  0
   -0.9680   -4.1470    0.0000 C   0  0  0  0  0  0  0  0  0  0  0  0
   -0.2535   -2.9095    0.0000 C   0  0  0  0  0  0  0  0  0  0  0  0
   -0.9680   -2.4970    0.0000 C   0  0  0  0  0  0  0  0  0  0  0  0
   -2.3969   -4.1470    0.0000 C   0  0  0  0  0  0  0  0  0  0  0  0
    0.4609   -2.4970    0.0000 O   0  0  0  0  0  0  0  0  0  0  0  0
    1.1754   -2.9095    0.0000 C   0  0  0  0  0  0  0  0  0  0  0  0
    1.8899   -2.4970    0.0000 C   0  0  0  0  0  0  0  0  0  0  0  0
    2.6044   -2.9095    0.0000 O   0  0  0  0  0  0  0  0  0  0  0  0
    1.8899   -1.6720    0.0000 O   0  0  0  0  0  0  0  0  0  0  0  0
    1.8899   -3.3220    0.0000 H   0  0  0  0  0  0  0  0  0  0  0  0
   -3.1114   -4.5595    0.0000 F   0  0  0  0  0  0  0  0  0  0  0  0
   -1.9844   -4.8615    0.0000 F   0  0  0  0  0  0  0  0  0  0  0  0
   -2.8094   -3.4326    0.0000 F   0  0  0  0  0  0  0  0  0  0  0  0
    2.6044   -6.2095    0.0000 F   0  0  0  0  0  0  0  0  0  0  0  0
    0.4609   -1.6720    0.0000 C   0  0  0  0  0  0  0  0  0  0  0  0
   -5.2548   -6.6220    0.0000 C   0  0  0  0  0  0  0  0  0  0  0  0
  1  2  2  0
  2  3  1  0
  3  4  2  0
  4  5  1  0
  5  6  2  0
  1  6  1  0
  3  7  1  0
  5  8  1  0
 10 11  1  0
 11 12  1  0
 12 13  1  0
  9 13  1  0
  9  8  1  0
  8 10  1  0
 12 14  1  0
 16 17  1  0
 17 18  2  0
 18 19  1  0
 15 19  1  0
 15 14  1  0
 14 16  2  0
 20 21  2  0
 21 22  1  0
 22 23  2  0
 18 23  1  0
 17 20  1  0
 15 24  1  0
 25 26  1  0
 26 27  2  0
 28 29  1  0
 25 29  2  0
 27 24  1  0
 24 28  2  0
 26 30  1  0
 28 31  1  0
 19 32  1  1
 32 33  1  0
 33 34  2  0
 33 35  1  0
 19 36  1  6
 30 37  1  0
 30 38  1  0
 30 39  1  0
 20 40  1  0
 31 41  1  0
  7 42  1  0
M  END
> <chembl_id>
CHEMBL1241951

> <chembl_pref_name>
LETERMOVIR
