
     RDKit          2D

 14 13  0  0  0  0  0  0  0  0999 V2000
    1.8268   -0.1473    0.0000 Na  0  0  0  0  0 15  0  0  0  0  0  0
    5.6056    0.0589    0.0000 C   0  0  0  0  0  0  0  0  0  0  0  0
    4.8911    0.4714    0.0000 O   0  0  0  0  0  0  0  0  0  0  0  0
    4.1766    0.0589    0.0000 C   0  0  0  0  0  0  0  0  0  0  0  0
    4.1766   -0.7661    0.0000 C   0  0  0  0  0  0  0  0  0  0  0  0
    4.8911   -1.1786    0.0000 C   0  0  0  0  0  0  0  0  0  0  0  0
    5.6055   -0.7661    0.0000 C   0  0  0  0  0  0  0  0  0  0  0  0
    3.4621    0.4714    0.0000 C   0  0  0  0  0  0  0  0  0  0  0  0
    3.4621    1.2964    0.0000 O   0  0  0  0  0  0  0  0  0  0  0  0
    2.7477    0.0589    0.0000 O   0  0  0  0  0  0  0  0  0  0  0  0
    3.4621   -1.1786    0.0000 O   0  0  0  0  0  0  0  0  0  0  0  0
    4.8911   -2.0036    0.0000 O   0  0  0  0  0  0  0  0  0  0  0  0
    6.3200   -1.1786    0.0000 O   0  0  0  0  0  0  0  0  0  0  0  0
    6.3200    0.4714    0.0000 O   0  0  0  0  0  0  0  0  0  0  0  0
  2  3  1  0
  3  4  1  0
  4  5  1  0
  5  6  1  0
  6  7  1  0
  7  2  1  0
  4  8  1  1
  8  9  2  0
  8 10  1  0
  5 11  1  6
  6 12  1  1
  7 13  1  6
  2 14  1  6
M  CHG  2   1   1  10  -1
M  END
> <chembl_id>
CHEMBL2068884

> <chembl_pref_name>
SODIUM GLUCONATE
