
     RDKit          2D

 17 17  0  0  0  0  0  0  0  0999 V2000
    5.5500   -3.9042    0.0000 C   0  0  0  0  0  0  0  0  0  0  0  0
    6.1417   -4.3208    0.0000 N   0  0  0  0  0  0  0  0  0  0  0  0
    0.6167   -3.6667    0.0000 C   0  0  0  0  0  0  0  0  0  0  0  0
    1.8417   -3.7750    0.0000 C   0  0  0  0  0  0  0  0  0  0  0  0
    1.2167   -4.0792    0.0000 N   0  0  0  0  0  0  0  0  0  0  0  0
    5.7792   -3.2250    0.0000 C   0  0  0  0  0  0  0  0  0  0  0  0
    0.0375   -3.2667    0.0000 N   0  0  0  0  0  0  0  0  0  0  0  0
    6.6917   -3.9042    0.0000 C   0  0  0  0  0  0  0  0  0  0  0  0
    6.4667   -3.2250    0.0000 N   0  0  0  0  0  0  0  0  0  0  0  0
    2.4417   -4.1917    0.0000 N   0  0  0  0  0  0  0  0  0  0  0  0
    1.8417   -3.0542    0.0000 N   0  0  0  0  0  0  0  0  0  0  0  0
    4.9167   -4.1958    0.0000 C   0  0  0  0  0  0  0  0  0  0  0  0
    4.3250   -3.8792    0.0000 S   0  0  0  0  0  0  0  0  0  0  0  0
    5.3792   -2.6417    0.0000 C   0  0  0  0  0  0  0  0  0  0  0  0
    3.0542   -3.8375    0.0000 C   0  0  0  0  0  0  0  0  0  0  0  0
    3.6917   -4.1917    0.0000 C   0  0  0  0  0  0  0  0  0  0  0  0
    2.4625   -2.7125    0.0000 C   0  0  0  0  0  0  0  0  0  0  0  0
  2  1  1  0
  3  5  1  0
  4 10  2  0
  5  4  1  0
  6  1  2  0
  7  3  3  0
  8  2  2  0
  9  6  1  0
 10 15  1  0
 11  4  1  0
 12  1  1  0
 13 12  1  0
 14  6  1  0
 15 16  1  0
 16 13  1  0
 17 11  1  0
  8  9  1  0
M  END
> <chembl_id>
CHEMBL30

> <chembl_pref_name>
CIMETIDINE
