
     RDKit          2D

 31 34  0  0  1  0  0  0  0  0999 V2000
    5.5417   -4.8042    0.0000 C   0  0  0  0  0  0  0  0  0  0  0  0
    6.2167   -4.5750    0.0000 C   0  0  0  0  0  0  0  0  0  0  0  0
    5.5417   -5.4917    0.0000 C   0  0  0  0  0  0  0  0  0  0  0  0
    3.6792   -6.5542    0.0000 C   0  0  0  0  0  0  0  0  0  0  0  0
    4.9250   -5.8500    0.0000 C   0  0  0  0  0  0  0  0  0  0  0  0
    4.3250   -5.5000    0.0000 C   0  0  0  0  0  0  0  0  0  0  0  0
    3.6792   -5.8417    0.0000 C   0  0  0  0  0  0  0  0  0  0  0  0
    6.2167   -3.8667    0.0000 C   0  0  0  0  0  0  0  0  0  0  0  0
    3.0542   -6.8917    0.0000 C   0  0  0  0  0  0  0  0  0  0  0  0
    4.9250   -4.4417    0.0000 C   0  0  0  0  0  0  0  0  0  0  0  0
    6.8417   -4.2250    0.0000 O   0  0  0  0  0  0  0  0  0  0  0  0
    4.3250   -4.8042    0.0000 C   0  0  0  0  0  0  0  0  0  0  0  0
    6.2042   -5.7042    0.0000 C   0  0  0  0  0  0  0  0  0  0  0  0
    4.9250   -6.5667    0.0000 C   0  0  0  0  0  0  0  0  0  0  0  0
    6.2167   -3.1542    0.0000 C   0  0  0  0  0  0  0  0  0  0  0  0
    3.0750   -5.4792    0.0000 C   0  0  0  0  0  0  0  0  0  0  0  0
    7.4625   -4.5750    0.0000 C   0  0  0  0  0  0  0  0  0  0  0  0
    6.5792   -5.1542    0.0000 C   0  0  0  0  0  0  0  0  0  0  0  0
    4.3167   -6.9125    0.0000 C   0  0  0  0  0  0  0  0  0  0  0  0
    2.4417   -6.5167    0.0000 C   0  0  0  0  0  0  0  0  0  0  0  0
    1.8292   -6.8625    0.0000 N   0  0  0  0  0  0  0  0  0  0  0  0
    7.4625   -5.2792    0.0000 O   0  0  0  0  0  0  0  0  0  0  0  0
    2.4417   -5.8292    0.0000 C   0  0  0  0  0  0  0  0  0  0  0  0
    5.5500   -4.0292    0.0000 C   0  0  0  0  0  0  0  0  0  0  0  0
    1.2292   -6.5167    0.0000 O   0  0  0  0  0  0  0  0  0  0  0  0
    8.0792   -4.2250    0.0000 C   0  0  0  0  0  0  0  0  0  0  0  0
    4.9125   -3.6875    0.0000 C   0  0  0  0  0  0  0  0  0  0  0  0
    5.5500   -6.2542    0.0000 H   0  0  0  0  0  0  0  0  0  0  0  0
    4.9125   -5.1125    0.0000 H   0  0  0  0  0  0  0  0  0  0  0  0
    4.3250   -6.2292    0.0000 H   0  0  0  0  0  0  0  0  0  0  0  0
    3.6792   -5.1417    0.0000 H   0  0  0  0  0  0  0  0  0  0  0  0
  2  1  1  0
  3  1  1  0
  4  7  1  0
  5  3  1  0
  6 12  1  0
  7  6  1  0
  2  8  1  6
  9  4  2  0
 10  1  1  0
 11  2  1  0
 12 10  1  0
 13  3  1  0
 14  5  1  0
 15  8  3  0
 16  7  1  0
 17 11  1  0
 18  2  1  0
 19 14  1  0
 20 23  1  0
 21 20  2  0
 22 17  2  0
 23 16  1  0
  1 24  1  1
 25 21  1  0
 26 17  1  0
 27 24  1  0
  3 28  1  6
  5 29  1  1
  6 30  1  6
  7 31  1  1
 13 18  1  0
  6  5  1  0
  4 19  1  0
 20  9  1  0
M  END
> <chembl_id>
CHEMBL1200934

> <chembl_pref_name>
NORGESTIMATE
