
     RDKit          2D

 25 27  0  0  0  0  0  0  0  0999 V2000
    1.9792   -1.7375    0.0000 C   0  0  0  0  0  0  0  0  0  0  0  0
   -0.8833   -0.1125    0.0000 C   0  0  0  0  0  0  0  0  0  0  0  0
   -0.8833   -1.2167    0.0000 C   0  0  0  0  0  0  0  0  0  0  0  0
    1.0500    2.0875    0.0000 N   0  0  0  0  0  0  0  0  0  0  0  0
    2.1792    3.4708    0.0000 N   0  0  0  0  0  0  0  0  0  0  0  0
    0.0667    0.4583    0.0000 C   0  0  0  0  0  0  0  0  0  0  0  0
    1.0167   -1.1917    0.0000 C   0  0  0  0  0  0  0  0  0  0  0  0
    1.1667    3.1958    0.0000 C   0  0  0  0  0  0  0  0  0  0  0  0
   -1.8208   -1.7792    0.0000 C   0  0  0  0  0  0  0  0  0  0  0  0
   -1.8583    0.4333    0.0000 C   0  0  0  0  0  0  0  0  0  0  0  0
    1.0167   -0.0917    0.0000 O   0  0  0  0  0  0  0  0  0  0  0  0
    0.0792    1.5625    0.0000 C   0  0  0  0  0  0  0  0  0  0  0  0
    1.9667   -2.8375    0.0000 C   0  0  0  0  0  0  0  0  0  0  0  0
    2.9167   -1.1875    0.0000 C   0  0  0  0  0  0  0  0  0  0  0  0
    2.8167    2.4458    0.0000 C   0  0  0  0  0  0  0  0  0  0  0  0
    2.0417    1.6833    0.0000 C   0  0  0  0  0  0  0  0  0  0  0  0
   -2.7958   -1.2375    0.0000 C   0  0  0  0  0  0  0  0  0  0  0  0
    0.0750   -1.7792    0.0000 Cl  0  0  0  0  0  0  0  0  0  0  0  0
   -2.7958   -0.1292    0.0000 C   0  0  0  0  0  0  0  0  0  0  0  0
    1.0167   -3.3875    0.0000 Cl  0  0  0  0  0  0  0  0  0  0  0  0
    2.9125   -0.0875    0.0000 Cl  0  0  0  0  0  0  0  0  0  0  0  0
   -3.7458   -1.8042    0.0000 Cl  0  0  0  0  0  0  0  0  0  0  0  0
    3.8792   -2.8375    0.0000 C   0  0  0  0  0  0  0  0  0  0  0  0
    2.9250   -3.3875    0.0000 C   0  0  0  0  0  0  0  0  0  0  0  0
    3.8667   -1.7292    0.0000 C   0  0  0  0  0  0  0  0  0  0  0  0
  2  6  1  0
  3  2  2  0
  4 12  1  0
  5  8  2  0
  6 11  1  0
  7  1  1  0
  8  4  1  0
  9  3  1  0
 10  2  1  0
 11  7  1  0
 12  6  1  0
 13  1  2  0
 14  1  1  0
 15 16  2  0
 16  4  1  0
 17 19  1  0
 18  3  1  0
 19 10  2  0
 20 13  1  0
 21 14  1  0
 22 17  1  0
 23 25  1  0
 24 13  1  0
 25 14  2  0
 24 23  2  0
 15  5  1  0
  9 17  2  0
M  END
> <chembl_id>
CHEMBL1571863

> <chembl_pref_name>
ISOCONAZOLE
