
     RDKit          2D

 37 38  0  0  0  0  0  0  0  0999 V2000
    5.0648   -0.2287    0.0000 C   0  0  0  0  0  0  0  0  0  0  0  0
    4.6511    0.4784    0.0000 O   0  0  0  0  0  0  0  0  0  0  0  0
    5.8946   -0.2287    0.0000 C   0  0  0  0  0  0  0  0  0  0  0  0
    4.6511   -0.9575    0.0000 O   0  0  0  0  0  0  0  0  0  0  0  0
    6.3035   -0.9575    0.0000 C   0  0  0  0  0  0  0  0  0  0  0  0
    6.3035    0.4784    0.0000 C   0  0  0  0  0  0  0  0  0  0  0  0
    7.1285    0.4784    0.0000 C   0  0  0  0  0  0  0  0  0  0  0  0
    7.1285   -0.9575    0.0000 C   0  0  0  0  0  0  0  0  0  0  0  0
    7.5470   -0.2287    0.0000 C   0  0  0  0  0  0  0  0  0  0  0  0
   -1.4526   -1.9725    0.0000 C   0  0  0  0  0  0  0  0  0  0  0  0
   -0.0243   -1.9725    0.0000 C   0  0  0  0  0  0  0  0  0  0  0  0
   -0.7384   -1.5790    0.0000 C   0  0  0  0  0  0  0  0  0  0  0  0
   -0.0243   -2.8179    0.0000 C   0  0  0  0  0  0  0  0  0  0  0  0
   -1.4526   -2.8179    0.0000 C   0  0  0  0  0  0  0  0  0  0  0  0
   -0.7384   -3.2260    0.0000 N   0  0  0  0  0  0  0  0  0  0  0  0
   -2.1522   -1.5644    0.0000 C   0  0  0  0  0  0  0  0  0  0  0  0
    0.6705   -1.5790    0.0000 C   0  0  0  0  0  0  0  0  0  0  0  0
   -0.7384   -0.3401    0.0000 C   0  0  0  0  0  0  0  0  0  0  0  0
   -0.0534    0.0680    0.0000 C   0  0  0  0  0  0  0  0  0  0  0  0
   -2.1522   -0.7628    0.0000 O   0  0  0  0  0  0  0  0  0  0  0  0
    0.6705   -0.7774    0.0000 O   0  0  0  0  0  0  0  0  0  0  0  0
    0.6705   -3.2260    0.0000 C   0  0  0  0  0  0  0  0  0  0  0  0
   -2.8518   -1.9725    0.0000 O   0  0  0  0  0  0  0  0  0  0  0  0
    1.3846   -1.9725    0.0000 O   0  0  0  0  0  0  0  0  0  0  0  0
   -2.1863   -3.2260    0.0000 C   0  0  0  0  0  0  0  0  0  0  0  0
    0.6462   -0.2672    0.0000 Cl  0  0  0  0  0  0  0  0  0  0  0  0
    3.4543   -3.2260    0.0000 N   0  0  0  0  0  0  0  0  0  0  0  0
   -1.4818    0.0680    0.0000 C   0  0  0  0  0  0  0  0  0  0  0  0
    1.3846   -2.8179    0.0000 O   0  0  0  0  0  0  0  0  0  0  0  0
   -0.0534    0.8842    0.0000 C   0  0  0  0  0  0  0  0  0  0  0  0
    2.7450   -2.8179    0.0000 C   0  0  0  0  0  0  0  0  0  0  0  0
    2.0697   -1.5644    0.0000 C   0  0  0  0  0  0  0  0  0  0  0  0
    2.0697   -3.2260    0.0000 C   0  0  0  0  0  0  0  0  0  0  0  0
   -3.5660   -1.5644    0.0000 C   0  0  0  0  0  0  0  0  0  0  0  0
   -1.4818    0.8842    0.0000 C   0  0  0  0  0  0  0  0  0  0  0  0
    2.7742   -1.9288    0.0000 C   0  0  0  0  0  0  0  0  0  0  0  0
   -0.7725    1.3069    0.0000 C   0  0  0  0  0  0  0  0  0  0  0  0
  2  1  2  0
  3  1  1  0
  4  1  1  0
  5  3  2  0
  6  3  1  0
  7  6  2  0
  8  5  1  0
  9  8  2  0
  7  9  1  0
 11 12  1  0
 12 10  1  0
 13 15  1  0
 14 10  2  0
 15 14  1  0
 16 10  1  0
 17 11  1  0
 18 12  1  0
 19 18  1  0
 20 16  2  0
 21 17  2  0
 22 13  1  0
 23 16  1  0
 24 17  1  0
 25 14  1  0
 26 19  1  0
 27 31  1  0
 28 18  2  0
 29 22  1  0
 30 19  2  0
 31 33  1  0
 32 24  1  0
 33 29  1  0
 34 23  1  0
 35 28  1  0
 36 32  1  0
 37 35  2  0
 11 13  2  0
 30 37  1  0
M  END
> <chembl_id>
CHEMBL4594262

> <chembl_pref_name>
AMLODIPINE BENZOATE
