
     RDKit          2D

 47 48  0  0  0  0  0  0  0  0999 V2000
   10.9473   -8.5668    0.0000 N   0  0  0  0  0  0  0  0  0  0  0  0
   10.2332   -8.1587    0.0000 C   0  0  0  0  0  0  0  0  0  0  0  0
    9.5044   -8.5668    0.0000 C   0  0  0  0  0  0  0  0  0  0  0  0
   10.9473   -9.3830    0.0000 C   0  0  0  0  0  0  0  0  0  0  0  0
    6.6428   -9.3830    0.0000 C   0  0  0  0  0  0  0  0  0  0  0  0
    6.6428   -8.5668    0.0000 C   0  0  0  0  0  0  0  0  0  0  0  0
    7.3619   -9.7911    0.0000 C   0  0  0  0  0  0  0  0  0  0  0  0
   10.2186   -9.8057    0.0000 N   0  0  0  0  0  0  0  0  0  0  0  0
    8.0857   -8.5668    0.0000 C   0  0  0  0  0  0  0  0  0  0  0  0
    8.7902   -8.1538    0.0000 C   0  0  0  0  0  0  0  0  0  0  0  0
    9.5044   -9.3830    0.0000 C   0  0  0  0  0  0  0  0  0  0  0  0
    8.0906   -9.3830    0.0000 C   0  0  0  0  0  0  0  0  0  0  0  0
    7.3715   -8.1538    0.0000 C   0  0  0  0  0  0  0  0  0  0  0  0
   10.2332   -7.3279    0.0000 N   0  0  0  0  0  0  0  0  0  0  0  0
   11.6615   -9.8057    0.0000 N   0  0  0  0  0  0  0  0  0  0  0  0
    5.9189   -9.8008    0.0000 O   0  0  0  0  0  0  0  0  0  0  0  0
    5.9335   -8.1587    0.0000 O   0  0  0  0  0  0  0  0  0  0  0  0
    7.3715  -10.6365    0.0000 O   0  0  0  0  0  0  0  0  0  0  0  0
    5.2047   -9.3781    0.0000 C   0  0  0  0  0  0  0  0  0  0  0  0
    6.6574  -11.0446    0.0000 C   0  0  0  0  0  0  0  0  0  0  0  0
    5.9286   -7.3230    0.0000 C   0  0  0  0  0  0  0  0  0  0  0  0
    8.4293   -4.9896    0.0000 N   0  0  0  0  0  0  0  0  0  0  0  0
    7.7151   -4.5815    0.0000 C   0  0  0  0  0  0  0  0  0  0  0  0
    6.9864   -4.9896    0.0000 C   0  0  0  0  0  0  0  0  0  0  0  0
    8.4293   -5.8058    0.0000 C   0  0  0  0  0  0  0  0  0  0  0  0
    4.1248   -5.8058    0.0000 C   0  0  0  0  0  0  0  0  0  0  0  0
    4.1248   -4.9896    0.0000 C   0  0  0  0  0  0  0  0  0  0  0  0
    4.8438   -6.2139    0.0000 C   0  0  0  0  0  0  0  0  0  0  0  0
    7.7006   -6.2285    0.0000 N   0  0  0  0  0  0  0  0  0  0  0  0
    5.5677   -4.9896    0.0000 C   0  0  0  0  0  0  0  0  0  0  0  0
    6.2722   -4.5766    0.0000 C   0  0  0  0  0  0  0  0  0  0  0  0
    6.9864   -5.8058    0.0000 C   0  0  0  0  0  0  0  0  0  0  0  0
    5.5726   -5.8058    0.0000 C   0  0  0  0  0  0  0  0  0  0  0  0
    4.8535   -4.5766    0.0000 C   0  0  0  0  0  0  0  0  0  0  0  0
    7.7151   -3.7507    0.0000 N   0  0  0  0  0  0  0  0  0  0  0  0
    9.1435   -6.2285    0.0000 N   0  0  0  0  0  0  0  0  0  0  0  0
    3.4009   -6.2236    0.0000 O   0  0  0  0  0  0  0  0  0  0  0  0
    3.4155   -4.5815    0.0000 O   0  0  0  0  0  0  0  0  0  0  0  0
    4.8535   -7.0593    0.0000 O   0  0  0  0  0  0  0  0  0  0  0  0
    2.6867   -5.8009    0.0000 C   0  0  0  0  0  0  0  0  0  0  0  0
    4.1393   -7.4674    0.0000 C   0  0  0  0  0  0  0  0  0  0  0  0
    3.4106   -3.7458    0.0000 C   0  0  0  0  0  0  0  0  0  0  0  0
   11.2569   -5.6309    0.0000 S   0  0  0  0  0  0  0  0  0  0  0  0
   11.6650   -4.9021    0.0000 O   0  0  0  0  0  0  0  0  0  0  0  0
   10.8342   -4.9021    0.0000 O   0  0  0  0  0  0  0  0  0  0  0  0
   10.5427   -6.0390    0.0000 O   0  0  0  0  0  0  0  0  0  0  0  0
   11.9711   -6.0390    0.0000 O   0  0  0  0  0  0  0  0  0  0  0  0
  2  1  2  0
  3  2  1  0
  4  1  1  0
  5  7  1  0
  6 13  1  0
  7 12  2  0
  8  4  2  0
  9 10  1  0
 10  3  1  0
 11  8  1  0
 12  9  1  0
 13  9  2  0
 14  2  1  0
 15  4  1  0
 16  5  1  0
 17  6  1  0
 18  7  1  0
 19 16  1  0
 20 18  1  0
 21 17  1  0
  3 11  2  0
  6  5  2  0
 23 22  2  0
 24 23  1  0
 25 22  1  0
 26 28  1  0
 27 34  1  0
 28 33  2  0
 29 25  2  0
 30 31  1  0
 31 24  1  0
 32 29  1  0
 33 30  1  0
 34 30  2  0
 35 23  1  0
 36 25  1  0
 37 26  1  0
 38 27  1  0
 39 28  1  0
 40 37  1  0
 41 39  1  0
 42 38  1  0
 24 32  2  0
 27 26  2  0
 44 43  2  0
 45 43  2  0
 46 43  1  0
 47 43  1  0
M  END
> <chembl_id>
CHEMBL2110367

> <chembl_pref_name>
TRIMETHOPRIM SULFATE
