
     RDKit          2D

 21 23  0  0  1  0  0  0  0  0999 V2000
    0.9125   -0.8583    0.0000 N   0  0  0  0  0  0  0  0  0  0  0  0
    2.1458   -0.8583    0.0000 C   0  0  0  0  0  0  0  0  0  0  0  0
    0.2958   -0.5125    0.0000 C   0  0  0  0  0  0  0  0  0  0  0  0
    2.1458   -1.5583    0.0000 C   0  0  0  0  0  0  0  0  0  0  0  0
   -0.3167   -0.8583    0.0000 C   0  0  0  0  0  0  0  0  0  0  0  0
    1.5417   -0.5000    0.0000 C   0  0  0  0  0  0  0  0  0  0  0  0
    0.2958    0.2083    0.0000 C   0  0  0  0  0  0  0  0  0  0  0  0
    2.8500   -1.7917    0.0000 S   0  0  0  0  0  0  0  0  0  0  0  0
    0.9125   -1.5458    0.0000 C   0  0  0  0  0  0  0  0  0  0  0  0
    1.5292   -1.9208    0.0000 C   0  0  0  0  0  0  0  0  0  0  0  0
    3.2417   -1.1875    0.0000 C   0  0  0  0  0  0  0  0  0  0  0  0
    2.8500   -0.6333    0.0000 C   0  0  0  0  0  0  0  0  0  0  0  0
   -0.3125   -1.5667    0.0000 C   0  0  0  0  0  0  0  0  0  0  0  0
   -0.3250    0.5625    0.0000 O   0  0  0  0  0  0  0  0  0  0  0  0
    0.9042    0.5667    0.0000 O   0  0  0  0  0  0  0  0  0  0  0  0
    0.3042   -1.9250    0.0000 Cl  0  0  0  0  0  0  0  0  0  0  0  0
   -0.9250   -0.5083    0.0000 C   0  0  0  0  0  0  0  0  0  0  0  0
   -0.9250   -1.9292    0.0000 C   0  0  0  0  0  0  0  0  0  0  0  0
    1.5250    0.2167    0.0000 C   0  0  0  0  0  0  0  0  0  0  0  0
   -1.5458   -0.8583    0.0000 C   0  0  0  0  0  0  0  0  0  0  0  0
   -1.5458   -1.5708    0.0000 C   0  0  0  0  0  0  0  0  0  0  0  0
  2  6  1  0
  3  1  1  0
  4 10  1  0
  5  3  1  0
  6  1  1  0
  3  7  1  1
  8  4  1  0
  9  1  1  0
 10  9  1  0
 11 12  2  0
 12  2  1  0
 13  5  1  0
 14  7  2  0
 15  7  1  0
 16 13  1  0
 17  5  2  0
 18 13  2  0
 19 15  1  0
 20 17  1  0
 21 20  2  0
  4  2  2  0
 11  8  1  0
 21 18  1  0
M  END
> <chembl_id>
CHEMBL1771

> <chembl_pref_name>
CLOPIDOGREL
