
     RDKit          2D

 19 21  0  0  1  0  0  0  0  0999 V2000
    3.6500   -2.7042    0.0000 C   0  0  0  0  0  0  0  0  0  0  0  0
    2.8375   -2.5667    0.0000 C   0  0  0  0  0  0  0  0  0  0  0  0
    2.3167   -3.2000    0.0000 C   0  0  0  0  0  0  0  0  0  0  0  0
    3.9375   -3.4667    0.0000 C   0  0  0  0  0  0  0  0  0  0  0  0
    6.3667   -0.8542    0.0000 C   0  0  0  0  0  0  0  0  0  0  0  0
    1.5542   -2.9000    0.0000 O   0  0  0  0  0  0  0  0  0  0  0  0
    4.2875   -2.1917    0.0000 C   0  0  0  0  0  0  0  0  0  0  0  0
    6.3292   -0.0292    0.0000 O   0  0  0  0  0  0  0  0  0  0  0  0
    2.6000   -3.9667    0.0000 C   0  0  0  0  0  0  0  0  0  0  0  0
    3.4125   -4.1042    0.0000 C   0  0  0  0  0  0  0  0  0  0  0  0
    4.7500   -3.4292    0.0000 C   0  0  0  0  0  0  0  0  0  0  0  0
    4.9667   -2.6417    0.0000 C   0  0  0  0  0  0  0  0  0  0  0  0
    5.6750   -1.3042    0.0000 N   0  0  0  0  0  0  0  0  0  0  0  0
    1.6042   -2.0792    0.0000 C   0  0  0  0  0  0  0  0  0  0  0  0
    2.3917   -1.8750    0.0000 C   0  0  0  0  0  0  0  0  0  0  0  0
    4.9417   -0.9250    0.0000 C   0  0  0  0  0  0  0  0  0  0  0  0
    7.1042   -1.2375    0.0000 C   0  0  0  0  0  0  0  0  0  0  0  0
    4.2500   -1.3667    0.0000 C   0  0  0  0  0  0  0  0  0  0  0  0
    7.7917   -0.7917    0.0000 C   0  0  0  0  0  0  0  0  0  0  0  0
  2  1  1  0
  3  2  2  0
  4  1  2  0
  5 13  1  0
  6  3  1  0
  7  1  1  0
  8  5  2  0
  9 10  2  0
 10  4  1  0
 11  4  1  0
 12  7  1  0
 13 16  1  0
 14 15  1  0
 15  2  1  0
 16 18  1  0
 17  5  1  0
  7 18  1  6
 19 17  1  0
 12 11  1  0
  9  3  1  0
  6 14  1  0
M  END
> <chembl_id>
CHEMBL1218

> <chembl_pref_name>
RAMELTEON
