
     RDKit          2D

 40 41  0  0  0  0  0  0  0  0999 V2000
    7.4913   -2.8286    0.0000 C   0  0  0  0  0  0  0  0  0  0  0  0
    8.0746   -3.4119    0.0000 N   0  0  0  0  0  0  0  0  0  0  0  0
    8.6580   -2.8286    0.0000 C   0  0  0  0  0  0  0  0  0  0  0  0
    9.3725   -3.2411    0.0000 C   0  0  0  0  0  0  0  0  0  0  0  0
    9.9558   -2.6577    0.0000 O   0  0  0  0  0  0  0  0  0  0  0  0
    6.7768   -3.2411    0.0000 C   0  0  0  0  0  0  0  0  0  0  0  0
    6.1934   -2.6577    0.0000 O   0  0  0  0  0  0  0  0  0  0  0  0
    1.7143   -2.7942    0.0000 C   0  0  0  0  0  0  0  0  0  0  0  0
    1.7768   -3.6011    0.0000 C   0  0  0  0  0  0  0  0  0  0  0  0
    1.1927   -2.0782    0.0000 C   0  0  0  0  0  0  0  0  0  0  0  0
    0.5296   -2.5342    0.0000 H   0  0  0  0  0  0  0  0  0  0  0  0
    1.7432   -1.4565    0.0000 C   0  0  0  0  0  0  0  0  0  0  0  0
    2.5371   -1.6852    0.0000 C   0  0  0  0  0  0  0  0  0  0  0  0
    2.5089   -0.8826    0.0000 H   0  0  0  0  0  0  0  0  0  0  0  0
    3.9560   -1.6992    0.0000 C   0  0  0  0  0  0  0  0  0  0  0  0
    3.2142   -1.3080    0.0000 C   0  0  0  0  0  0  0  0  0  0  0  0
    4.6726   -1.2903    0.0000 C   0  0  0  0  0  0  0  0  0  0  0  0
    4.6523   -0.4791    0.0000 O   0  0  0  0  0  0  0  0  0  0  0  0
    5.3803   -1.7029    0.0000 C   0  0  0  0  0  0  0  0  0  0  0  0
    5.3801   -2.5297    0.0000 C   0  0  0  0  0  0  0  0  0  0  0  0
    4.6642   -2.9466    0.0000 C   0  0  0  0  0  0  0  0  0  0  0  0
    3.9534   -2.5375    0.0000 C   0  0  0  0  0  0  0  0  0  0  0  0
    3.2400   -2.9467    0.0000 C   0  0  0  0  0  0  0  0  0  0  0  0
    2.5259   -2.5373    0.0000 C   0  0  0  0  0  0  0  0  0  0  0  0
    2.5216   -3.3788    0.0000 H   0  0  0  0  0  0  0  0  0  0  0  0
    2.4537   -4.0332    0.0000 C   0  0  0  0  0  0  0  0  0  0  0  0
    2.4584   -4.8865    0.0000 C   0  0  0  0  0  0  0  0  0  0  0  0
    3.1629   -5.2637    0.0000 C   0  0  0  0  0  0  0  0  0  0  0  0
    3.9021   -4.8766    0.0000 C   0  0  0  0  0  0  0  0  0  0  0  0
    4.5858   -5.2651    0.0000 C   0  0  0  0  0  0  0  0  0  0  0  0
    5.2922   -4.8779    0.0000 C   0  0  0  0  0  0  0  0  0  0  0  0
    6.1841   -5.2826    0.0000 C   0  0  0  0  0  0  0  0  0  0  0  0
    2.0298   -5.5853    0.0000 H   0  0  0  0  0  0  0  0  0  0  0  0
    5.3815   -0.0528    0.0000 C   0  0  0  0  0  0  0  0  0  0  0  0
    6.3155    0.1157    0.0000 O   0  0  0  0  0  0  0  0  0  0  0  0
    5.9944   -0.7774    0.0000 O   0  0  0  0  0  0  0  0  0  0  0  0
    5.8971   -0.2382    0.0000 C   0  0  0  0  0  0  0  0  0  0  0  0
    1.4310   -4.8729    0.0000 O   0  0  0  0  0  0  0  0  0  0  0  0
    1.0212   -3.2150    0.0000 H   0  0  0  0  0  0  0  0  0  0  0  0
    0.3467   -1.7021    0.0000 O   0  0  0  0  0  0  0  0  0  0  0  0
  1  2  1  0
  2  3  1  0
  3  4  1  0
  4  5  1  0
  1  6  1  0
  6  7  1  0
  8  9  1  1
  8 24  1  0
  8 39  1  6
  9 26  1  0
 10 11  1  1
 10 12  1  0
 10  8  1  0
 10 40  1  6
 12 13  1  0
 13 14  1  1
 13 24  1  0
 15 16  1  0
 15 17  1  0
 16 13  1  0
 17 19  2  0
 18 17  1  0
 20 19  1  0
 21 20  2  0
 21 22  1  0
 22 15  2  0
 23 22  1  0
 23 24  1  0
 24 25  1  1
 26 27  1  0
 27 33  1  1
 27 38  1  6
 28 29  1  0
 28 27  1  0
 29 30  1  0
 31 32  1  0
 31 30  1  0
 34 37  1  0
 34 18  1  0
 37 36  2  0
 37 35  1  0
M  END
> <chembl_id>
CHEMBL2107815

> <chembl_pref_name>
TREPROSTINIL DIOLAMINE
