
     RDKit          2D

 35 36  0  0  0  0  0  0  0  0999 V2000
   -8.9277   -3.2411    0.0000 O   0  0  0  0  0  0  0  0  0  0  0  0
   -5.0089   -0.8598    0.0000 C   0  0  0  0  0  0  0  0  0  0  0  0
   -5.6764   -1.3448    0.0000 C   0  0  0  0  0  0  0  0  0  0  0  0
   -5.4214   -2.1293    0.0000 C   0  0  0  0  0  0  0  0  0  0  0  0
   -4.5964   -2.1293    0.0000 N   0  0  0  0  0  0  0  0  0  0  0  0
   -4.3415   -1.3448    0.0000 C   0  0  0  0  0  0  0  0  0  0  0  0
   -4.5964   -2.9543    0.0000 C   0  0  0  0  0  0  0  0  0  0  0  0
   -3.7714   -2.1293    0.0000 C   0  0  0  0  0  0  0  0  0  0  0  0
   -6.4610   -1.0898    0.0000 O   0  0  0  0  0  0  0  0  0  0  0  0
   -6.6745   -0.2929    0.0000 C   0  0  0  0  0  0  0  0  0  0  0  0
   -7.4714   -0.0794    0.0000 C   0  0  0  0  0  0  0  0  0  0  0  0
   -6.0911    0.2904    0.0000 O   0  0  0  0  0  0  0  0  0  0  0  0
   -7.6849    0.7175    0.0000 C   0  0  0  0  0  0  0  0  0  0  0  0
   -8.0548   -0.6628    0.0000 C   0  0  0  0  0  0  0  0  0  0  0  0
   -8.8696   -0.5337    0.0000 C   0  0  0  0  0  0  0  0  0  0  0  0
   -9.2441   -1.2688    0.0000 C   0  0  0  0  0  0  0  0  0  0  0  0
   -8.6608   -1.8521    0.0000 C   0  0  0  0  0  0  0  0  0  0  0  0
   -7.9257   -1.4776    0.0000 C   0  0  0  0  0  0  0  0  0  0  0  0
   -7.1015    1.3008    0.0000 C   0  0  0  0  0  0  0  0  0  0  0  0
   -7.3151    2.0977    0.0000 C   0  0  0  0  0  0  0  0  0  0  0  0
   -8.1120    2.3112    0.0000 C   0  0  0  0  0  0  0  0  0  0  0  0
   -8.6954    1.7279    0.0000 C   0  0  0  0  0  0  0  0  0  0  0  0
   -8.4818    0.9310    0.0000 C   0  0  0  0  0  0  0  0  0  0  0  0
   -8.2683    0.1341    0.0000 O   0  0  0  0  0  0  0  0  0  0  0  0
   -7.6607   -5.0384    0.0000 C   0  0  0  0  0  0  0  0  0  0  0  0
   -8.3752   -5.4509    0.0000 C   0  0  0  0  0  0  0  0  0  0  0  0
   -8.3752   -6.2759    0.0000 C   0  0  0  0  0  0  0  0  0  0  0  0
   -7.6607   -6.6884    0.0000 C   0  0  0  0  0  0  0  0  0  0  0  0
   -6.9462   -6.2759    0.0000 C   0  0  0  0  0  0  0  0  0  0  0  0
   -6.9462   -5.4509    0.0000 C   0  0  0  0  0  0  0  0  0  0  0  0
   -6.2317   -5.0384    0.0000 S   0  0  0  0  0  0  0  0  0  0  0  0
   -5.5173   -5.4509    0.0000 O   0  0  0  0  0  0  0  0  0  0  0  0
   -6.2318   -4.2134    0.0000 O   0  0  0  0  0  0  0  0  0  0  0  0
   -5.5173   -4.6259    0.0000 O   0  0  0  0  0  0  0  0  0  0  0  0
   -9.0897   -6.6884    0.0000 C   0  0  0  0  0  0  0  0  0  0  0  0
  2  3  1  0
  2  6  1  0
  3  4  1  0
  4  5  1  0
  5  6  1  0
  5  7  1  0
  5  8  1  0
  3  9  1  0
  9 10  1  0
 10 11  1  0
 10 12  2  0
 11 13  1  0
 11 14  1  0
 14 15  1  0
 14 18  1  0
 15 16  1  0
 16 17  1  0
 17 18  1  0
 13 19  1  0
 13 23  2  0
 19 20  2  0
 20 21  1  0
 21 22  2  0
 22 23  1  0
 11 24  1  0
 25 26  1  0
 25 30  2  0
 26 27  2  0
 27 28  1  0
 28 29  2  0
 29 30  1  0
 30 31  1  0
 31 32  2  0
 31 33  2  0
 31 34  1  0
 27 35  1  0
M  CHG  2   5   1  34  -1
M  END
> <chembl_id>
CHEMBL3707243

> <chembl_pref_name>
GLYCOPYRRONIUM TOSYLATE
