
     RDKit          2D

 74 78  0  0  0  0  0  0  0  0999 V2000
  -10.0473   -1.0902    0.0000 C   0  0  0  0  0  0  0  0  0  0  0  0
   -9.3329   -0.6777    0.0000 C   0  0  0  0  0  0  0  0  0  0  0  0
   -8.6184   -1.0902    0.0000 N   0  0  0  0  0  0  0  0  0  0  0  0
   -7.9039   -0.6777    0.0000 C   0  0  0  0  0  0  0  0  0  0  0  0
   -7.1894   -1.0902    0.0000 C   0  0  0  0  0  0  0  0  0  0  0  0
   -6.3644   -1.0902    0.0000 N   0  0  0  0  0  0  0  0  0  0  0  0
   -7.4030   -1.8871    0.0000 O   0  0  0  0  0  0  0  0  0  0  0  0
   -5.6500   -0.6777    0.0000 C   0  0  0  0  0  0  0  0  0  0  0  0
   -4.9355   -1.0902    0.0000 C   0  0  0  0  0  0  0  0  0  0  0  0
   -4.9355   -1.9152    0.0000 O   0  0  0  0  0  0  0  0  0  0  0  0
   -7.9039    0.1473    0.0000 C   0  0  0  0  0  0  0  0  0  0  0  0
   -8.6184    0.5598    0.0000 C   0  0  0  0  0  0  0  0  0  0  0  0
   -8.6184    1.3848    0.0000 C   0  0  0  0  0  0  0  0  0  0  0  0
   -9.3329    1.7973    0.0000 C   0  0  0  0  0  0  0  0  0  0  0  0
   -9.3329    0.1473    0.0000 O   0  0  0  0  0  0  0  0  0  0  0  0
   -4.2210   -0.6777    0.0000 N   0  0  0  0  0  0  0  0  0  0  0  0
   -3.5066   -1.0902    0.0000 C   0  0  0  0  0  0  0  0  0  0  0  0
   -3.5066   -1.9152    0.0000 C   0  0  0  0  0  0  0  0  0  0  0  0
   -2.7921   -2.3277    0.0000 C   0  0  0  0  0  0  0  0  0  0  0  0
   -2.7058   -3.1482    0.0000 C   0  0  0  0  0  0  0  0  0  0  0  0
   -1.8989   -3.3197    0.0000 N   0  0  0  0  0  0  0  0  0  0  0  0
   -1.4864   -2.6052    0.0000 C   0  0  0  0  0  0  0  0  0  0  0  0
   -2.0384   -1.9921    0.0000 N   0  0  0  0  0  0  0  0  0  0  0  0
   -2.7921   -0.6777    0.0000 C   0  0  0  0  0  0  0  0  0  0  0  0
   -2.0776   -1.0902    0.0000 N   0  0  0  0  0  0  0  0  0  0  0  0
   -2.7921    0.1473    0.0000 O   0  0  0  0  0  0  0  0  0  0  0  0
   -1.3631   -0.6777    0.0000 C   0  0  0  0  0  0  0  0  0  0  0  0
   -0.6487   -1.0902    0.0000 C   0  0  0  0  0  0  0  0  0  0  0  0
   -1.3631    0.1473    0.0000 C   0  0  0  0  0  0  0  0  0  0  0  0
   -0.6487    0.5598    0.0000 C   0  0  0  0  0  0  0  0  0  0  0  0
    0.0658    0.1473    0.0000 C   0  0  0  0  0  0  0  0  0  0  0  0
    0.7803    0.5598    0.0000 C   0  0  0  0  0  0  0  0  0  0  0  0
    0.7803    1.3848    0.0000 C   0  0  0  0  0  0  0  0  0  0  0  0
    0.0658    1.7973    0.0000 C   0  0  0  0  0  0  0  0  0  0  0  0
   -0.6487    1.3848    0.0000 C   0  0  0  0  0  0  0  0  0  0  0  0
    0.0658   -0.6777    0.0000 N   0  0  0  0  0  0  0  0  0  0  0  0
   -0.6487   -1.9152    0.0000 O   0  0  0  0  0  0  0  0  0  0  0  0
    0.7803   -1.0902    0.0000 C   0  0  0  0  0  0  0  0  0  0  0  0
    1.4947   -0.6777    0.0000 C   0  0  0  0  0  0  0  0  0  0  0  0
    0.7803   -1.9152    0.0000 C   0  0  0  0  0  0  0  0  0  0  0  0
    1.4947   -2.3277    0.0000 C   0  0  0  0  0  0  0  0  0  0  0  0
    1.4947   -3.1527    0.0000 C   0  0  0  0  0  0  0  0  0  0  0  0
    2.2092   -3.5652    0.0000 N   0  0  0  0  0  0  0  0  0  0  0  0
    2.2092   -4.3902    0.0000 C   0  0  0  0  0  0  0  0  0  0  0  0
    2.9237   -4.8027    0.0000 N   0  0  0  0  0  0  0  0  0  0  0  0
    1.4947   -4.8027    0.0000 N   0  0  0  0  0  0  0  0  0  0  0  0
    2.2092   -1.0902    0.0000 N   0  0  0  0  0  0  0  0  0  0  0  0
    1.4947    0.1473    0.0000 O   0  0  0  0  0  0  0  0  0  0  0  0
    2.9237   -0.6777    0.0000 C   0  0  0  0  0  0  0  0  0  0  0  0
    3.6382   -1.0902    0.0000 C   0  0  0  0  0  0  0  0  0  0  0  0
    2.7469    0.1473    0.0000 C   0  0  0  0  0  0  0  0  0  0  0  0
    3.1372    0.9442    0.0000 C   0  0  0  0  0  0  0  0  0  0  0  0
    3.9074    1.2399    0.0000 C   0  0  0  0  0  0  0  0  0  0  0  0
    3.8642    2.0637    0.0000 C   0  0  0  0  0  0  0  0  0  0  0  0
    3.0673    2.2772    0.0000 N   0  0  0  0  0  0  0  0  0  0  0  0
    2.6180    1.5854    0.0000 C   0  0  0  0  0  0  0  0  0  0  0  0
    4.5561    2.5131    0.0000 C   0  0  0  0  0  0  0  0  0  0  0  0
    5.2912    2.1386    0.0000 C   0  0  0  0  0  0  0  0  0  0  0  0
    5.3344    1.3147    0.0000 C   0  0  0  0  0  0  0  0  0  0  0  0
    4.6425    0.8654    0.0000 C   0  0  0  0  0  0  0  0  0  0  0  0
    3.6382   -1.9152    0.0000 O   0  0  0  0  0  0  0  0  0  0  0  0
    4.4632   -1.0902    0.0000 N   0  0  0  0  0  0  0  0  0  0  0  0
    5.1776   -0.6777    0.0000 C   0  0  0  0  0  0  0  0  0  0  0  0
    5.8921   -1.0902    0.0000 C   0  0  0  0  0  0  0  0  0  0  0  0
    6.6066   -0.6777    0.0000 O   0  0  0  0  0  0  0  0  0  0  0  0
    5.8921   -1.9152    0.0000 O   0  0  0  0  0  0  0  0  0  0  0  0
    5.7610   -0.0943    0.0000 C   0  0  0  0  0  0  0  0  0  0  0  0
    5.5475    0.7026    0.0000 C   0  0  0  0  0  0  0  0  0  0  0  0
    6.1308    1.2859    0.0000 C   0  0  0  0  0  0  0  0  0  0  0  0
    5.9173    2.0828    0.0000 C   0  0  0  0  0  0  0  0  0  0  0  0
    6.3298    2.7973    0.0000 N   0  0  0  0  0  0  0  0  0  0  0  0
   -5.9812    1.0607    0.0000 C   0  0  0  0  0  0  0  0  0  0  0  0
   -4.9500    3.0643    0.0000 C   0  0  0  0  0  0  0  0  0  0  0  0
   -5.3713    3.7736    0.0000 O   0  0  0  0  0  0  0  0  0  0  0  0
  1  2  1  0
  2  3  1  0
  3  4  1  0
  4  5  1  0
  5  6  1  0
  5  7  2  0
  6  8  1  0
  8  9  1  0
  9 10  2  0
  4 11  1  1
 11 12  1  0
 12 13  1  0
 13 14  1  0
  2 15  2  0
  9 16  1  0
 17 16  1  6
 17 18  1  0
 18 19  1  0
 19 20  2  0
 19 23  1  0
 20 21  1  0
 21 22  1  0
 22 23  2  0
 17 24  1  0
 24 25  1  0
 24 26  2  0
 27 25  1  6
 27 28  1  0
 27 29  1  0
 29 30  1  0
 30 31  2  0
 30 35  1  0
 31 32  1  0
 32 33  2  0
 33 34  1  0
 34 35  2  0
 28 36  1  0
 28 37  2  0
 38 36  1  6
 38 39  1  0
 38 40  1  0
 40 41  1  0
 41 42  1  0
 42 43  1  0
 43 44  1  0
 44 45  2  0
 44 46  1  0
 39 47  1  0
 39 48  2  0
 49 47  1  1
 49 50  1  0
 49 51  1  0
 51 52  1  0
 52 53  1  0
 52 56  2  0
 54 55  1  0
 55 56  1  0
 60 53  2  0
 53 54  1  0
 54 57  2  0
 57 58  1  0
 58 59  2  0
 59 60  1  0
 50 61  2  0
 50 62  1  0
 62 63  1  0
 63 64  1  0
 64 65  1  0
 64 66  2  0
 63 67  1  1
 67 68  1  0
 68 69  1  0
 69 70  1  0
 70 71  1  0
  8 72  1  1
 72 73  1  0
 73 71  1  0
 73 74  2  0
M  END
> <chembl_id>
CHEMBL2070241

> <chembl_pref_name>
BREMELANOTIDE
