
     RDKit          2D

 28 29  0  0  0  0  0  0  0  0999 V2000
    5.7125   -2.4000    0.0000 P   0  0  0  0  0  0  0  0  0  0  0  0
   -1.1208   -0.6292    0.0000 P   0  0  0  0  0  0  0  0  0  0  0  0
    1.9792   -1.7125    0.0000 C   0  0  0  0  0  0  0  0  0  0  0  0
    2.6292   -1.3417    0.0000 C   0  0  0  0  0  0  0  0  0  0  0  0
    1.3625   -1.3417    0.0000 C   0  0  0  0  0  0  0  0  0  0  0  0
    3.2292   -1.7000    0.0000 C   0  0  0  0  0  0  0  0  0  0  0  0
   -0.5083   -0.2792    0.0000 O   0  0  0  0  0  0  0  0  0  0  0  0
    5.0917   -2.7625    0.0000 O   0  0  0  0  0  0  0  0  0  0  0  0
    6.0625   -1.7792    0.0000 O   0  0  0  0  0  0  0  0  0  0  0  0
   -1.4833   -1.2417    0.0000 O   0  0  0  0  0  0  0  0  0  0  0  0
    6.3292   -2.7583    0.0000 O   0  0  0  0  0  0  0  0  0  0  0  0
   -1.7333   -0.2708    0.0000 O   0  0  0  0  0  0  0  0  0  0  0  0
   -0.7708   -1.2417    0.0000 O   0  0  0  0  0  0  0  0  0  0  0  0
    5.3542   -1.7792    0.0000 O   0  0  0  0  0  0  0  0  0  0  0  0
    3.2292   -2.4000    0.0000 C   0  0  0  0  0  0  0  0  0  0  0  0
    3.8625   -1.3375    0.0000 C   0  0  0  0  0  0  0  0  0  0  0  0
    0.7292   -1.7042    0.0000 C   0  0  0  0  0  0  0  0  0  0  0  0
    1.3500   -0.6417    0.0000 C   0  0  0  0  0  0  0  0  0  0  0  0
    0.1250   -0.6417    0.0000 C   0  0  0  0  0  0  0  0  0  0  0  0
    4.4667   -2.4000    0.0000 C   0  0  0  0  0  0  0  0  0  0  0  0
    0.1292   -1.3417    0.0000 C   0  0  0  0  0  0  0  0  0  0  0  0
    0.7500   -0.2792    0.0000 C   0  0  0  0  0  0  0  0  0  0  0  0
    3.8417   -2.7625    0.0000 C   0  0  0  0  0  0  0  0  0  0  0  0
    4.4625   -1.6917    0.0000 C   0  0  0  0  0  0  0  0  0  0  0  0
    1.9917   -2.4042    0.0000 C   0  0  0  0  0  0  0  0  0  0  0  0
    2.6250   -0.6417    0.0000 C   0  0  0  0  0  0  0  0  0  0  0  0
    1.4125   -2.7917    0.0000 C   0  0  0  0  0  0  0  0  0  0  0  0
    3.2542   -0.2792    0.0000 C   0  0  0  0  0  0  0  0  0  0  0  0
  2  7  1  0
  3  4  2  0
  4  6  1  0
  5  3  1  0
  6 15  2  0
  7 19  1  0
  8  1  1  0
  9  1  2  0
 10  2  2  0
 11  1  1  0
 12  2  1  0
 13  2  1  0
 14  1  1  0
 15 23  1  0
 16 24  2  0
 17  5  2  0
 18  5  1  0
 19 22  1  0
 20  8  1  0
 21 17  1  0
 22 18  2  0
 23 20  2  0
 24 20  1  0
 25  3  1  0
 26  4  1  0
 27 25  1  0
 28 26  1  0
  6 16  1  0
 19 21  2  0
M  END
> <chembl_id>
CHEMBL1200598

> <chembl_pref_name>
DIETHYLSTILBESTROL DIPHOSPHATE
