
     RDKit          2D

120123  0  0  0  0  0  0  0  0999 V2000
    2.4183  -11.9018    0.0000 O   0  0  0  0  0  0  0  0  0  0  0  0
    3.1459  -11.4894    0.0000 C   0  0  0  0  0  0  0  0  0  0  0  0
    3.8734  -11.9020    0.0000 C   0  0  0  0  0  0  0  0  0  0  0  0
    3.1460  -10.6644    0.0000 O   0  0  0  0  0  0  0  0  0  0  0  0
   14.1233   -5.6455    0.0000 N   0  0  0  0  0  0  0  0  0  0  0  0
   13.2779   -5.2325    0.0000 C   0  0  0  0  0  0  0  0  0  0  0  0
   15.5857   -5.2325    0.0000 C   0  0  0  0  0  0  0  0  0  0  0  0
    4.2463   -5.2082    0.0000 C   0  0  0  0  0  0  0  0  0  0  0  0
   14.9007   -5.6455    0.0000 C   0  0  0  0  0  0  0  0  0  0  0  0
    1.8997   -5.6455    0.0000 C   0  0  0  0  0  0  0  0  0  0  0  0
   11.0237   -5.6455    0.0000 C   0  0  0  0  0  0  0  0  0  0  0  0
   -0.4032   -5.2325    0.0000 C   0  0  0  0  0  0  0  0  0  0  0  0
    6.4763   -5.6455    0.0000 C   0  0  0  0  0  0  0  0  0  0  0  0
   -2.6527   -5.6455    0.0000 C   0  0  0  0  0  0  0  0  0  0  0  0
    8.6625   -5.2082    0.0000 C   0  0  0  0  0  0  0  0  0  0  0  0
    2.6430   -5.2082    0.0000 N   0  0  0  0  0  0  0  0  0  0  0  0
    3.4446   -5.6455    0.0000 C   0  0  0  0  0  0  0  0  0  0  0  0
    4.9555   -5.6455    0.0000 N   0  0  0  0  0  0  0  0  0  0  0  0
   -1.8753   -5.2325    0.0000 N   0  0  0  0  0  0  0  0  0  0  0  0
    0.3790   -5.6455    0.0000 N   0  0  0  0  0  0  0  0  0  0  0  0
    9.4738   -5.6455    0.0000 N   0  0  0  0  0  0  0  0  0  0  0  0
   11.7379   -5.2665    0.0000 N   0  0  0  0  0  0  0  0  0  0  0  0
   16.3290   -5.6455    0.0000 N   0  0  0  0  0  0  0  0  0  0  0  0
    7.1855   -5.2082    0.0000 N   0  0  0  0  0  0  0  0  0  0  0  0
   -1.0882   -5.6455    0.0000 C   0  0  0  0  0  0  0  0  0  0  0  0
    5.7038   -5.2082    0.0000 C   0  0  0  0  0  0  0  0  0  0  0  0
    1.1272   -5.2325    0.0000 C   0  0  0  0  0  0  0  0  0  0  0  0
   10.2512   -5.2082    0.0000 C   0  0  0  0  0  0  0  0  0  0  0  0
   12.4812   -5.6697    0.0000 C   0  0  0  0  0  0  0  0  0  0  0  0
   -3.4348   -5.2325    0.0000 C   0  0  0  0  0  0  0  0  0  0  0  0
    9.9889   -9.2018    0.0000 C   0  0  0  0  0  0  0  0  0  0  0  0
   15.2068   -8.0066    0.0000 C   0  0  0  0  0  0  0  0  0  0  0  0
   17.8983   -5.6455    0.0000 C   0  0  0  0  0  0  0  0  0  0  0  0
   -4.1636   -5.6455    0.0000 N   0  0  0  0  0  0  0  0  0  0  0  0
    7.9338   -5.6455    0.0000 C   0  0  0  0  0  0  0  0  0  0  0  0
   -4.9410   -5.2325    0.0000 C   0  0  0  0  0  0  0  0  0  0  0  0
   17.0870   -5.2325    0.0000 C   0  0  0  0  0  0  0  0  0  0  0  0
   15.9647   -7.6131    0.0000 N   0  0  0  0  0  0  0  0  0  0  0  0
    9.9889  -10.0472    0.0000 N   0  0  0  0  0  0  0  0  0  0  0  0
   13.2779   -4.4649    0.0000 O   0  0  0  0  0  0  0  0  0  0  0  0
   15.5857   -4.4649    0.0000 O   0  0  0  0  0  0  0  0  0  0  0  0
   -3.4348   -4.3871    0.0000 C   0  0  0  0  0  0  0  0  0  0  0  0
    4.2463   -4.3871    0.0000 O   0  0  0  0  0  0  0  0  0  0  0  0
    1.8997   -6.5297    0.0000 O   0  0  0  0  0  0  0  0  0  0  0  0
   -2.6527   -6.4763    0.0000 O   0  0  0  0  0  0  0  0  0  0  0  0
   -0.4032   -4.4795    0.0000 O   0  0  0  0  0  0  0  0  0  0  0  0
    6.4763   -6.4617    0.0000 O   0  0  0  0  0  0  0  0  0  0  0  0
   11.0237   -6.4617    0.0000 O   0  0  0  0  0  0  0  0  0  0  0  0
    8.6625   -4.3871    0.0000 O   0  0  0  0  0  0  0  0  0  0  0  0
   -2.0648   -2.6381    0.0000 C   0  0  0  0  0  0  0  0  0  0  0  0
    5.7038   -4.1151    0.0000 C   0  0  0  0  0  0  0  0  0  0  0  0
   -1.0882   -6.4763    0.0000 C   0  0  0  0  0  0  0  0  0  0  0  0
   -2.7790   -3.8965    0.0000 C   0  0  0  0  0  0  0  0  0  0  0  0
    1.1272   -4.3483    0.0000 C   0  0  0  0  0  0  0  0  0  0  0  0
   -2.7790   -3.0511    0.0000 C   0  0  0  0  0  0  0  0  0  0  0  0
   17.8983   -6.4131    0.0000 O   0  0  0  0  0  0  0  0  0  0  0  0
   10.2512   -4.3871    0.0000 C   0  0  0  0  0  0  0  0  0  0  0  0
    3.2940   -3.8965    0.0000 N   0  0  0  0  0  0  0  0  0  0  0  0
   -4.9410   -4.4212    0.0000 O   0  0  0  0  0  0  0  0  0  0  0  0
   15.2068   -8.8374    0.0000 N   0  0  0  0  0  0  0  0  0  0  0  0
   10.6690   -8.8666    0.0000 N   0  0  0  0  0  0  0  0  0  0  0  0
    9.2844   -8.8180    0.0000 N   0  0  0  0  0  0  0  0  0  0  0  0
   14.5509   -7.6131    0.0000 N   0  0  0  0  0  0  0  0  0  0  0  0
   -1.3214   -3.0511    0.0000 C   0  0  0  0  0  0  0  0  0  0  0  0
   -1.3214   -3.8965    0.0000 C   0  0  0  0  0  0  0  0  0  0  0  0
   18.6465   -5.2325    0.0000 N   0  0  0  0  0  0  0  0  0  0  0  0
   13.8367   -6.3597    0.0000 C   0  0  0  0  0  0  0  0  0  0  0  0
    6.3305   -3.6875    0.0000 C   0  0  0  0  0  0  0  0  0  0  0  0
   -0.4615   -6.9427    0.0000 C   0  0  0  0  0  0  0  0  0  0  0  0
   -2.0648   -4.3483    0.0000 C   0  0  0  0  0  0  0  0  0  0  0  0
    0.9911   -7.7589    0.0000 C   0  0  0  0  0  0  0  0  0  0  0  0
    7.6568   -2.9442    0.0000 C   0  0  0  0  0  0  0  0  0  0  0  0
    1.8705   -3.8965    0.0000 C   0  0  0  0  0  0  0  0  0  0  0  0
    1.6033   -8.2058    0.0000 Cl  0  0  0  0  0  0  0  0  0  0  0  0
    3.4446   -6.4617    0.0000 C   0  0  0  0  0  0  0  0  0  0  0  0
    0.2624   -6.5491    0.0000 C   0  0  0  0  0  0  0  0  0  0  0  0
   -0.4615   -7.7589    0.0000 C   0  0  0  0  0  0  0  0  0  0  0  0
    6.3305   -2.9442    0.0000 C   0  0  0  0  0  0  0  0  0  0  0  0
    7.0010   -4.1151    0.0000 C   0  0  0  0  0  0  0  0  0  0  0  0
    0.9911   -6.9427    0.0000 C   0  0  0  0  0  0  0  0  0  0  0  0
    0.2624   -8.2058    0.0000 C   0  0  0  0  0  0  0  0  0  0  0  0
    7.6568   -3.7507    0.0000 C   0  0  0  0  0  0  0  0  0  0  0  0
    7.0010   -2.5215    0.0000 C   0  0  0  0  0  0  0  0  0  0  0  0
   15.1047   -6.4617    0.0000 C   0  0  0  0  0  0  0  0  0  0  0  0
    8.3661   -2.5215    0.0000 O   0  0  0  0  0  0  0  0  0  0  0  0
    4.2463   -6.8261    0.0000 O   0  0  0  0  0  0  0  0  0  0  0  0
    2.5410   -4.2414    0.0000 C   0  0  0  0  0  0  0  0  0  0  0  0
   14.4634   -6.8261    0.0000 C   0  0  0  0  0  0  0  0  0  0  0  0
   12.4812   -6.4617    0.0000 C   0  0  0  0  0  0  0  0  0  0  0  0
   10.9362   -3.9985    0.0000 C   0  0  0  0  0  0  0  0  0  0  0  0
   10.6690  -10.3775    0.0000 C   0  0  0  0  0  0  0  0  0  0  0  0
   16.6351   -7.9629    0.0000 C   0  0  0  0  0  0  0  0  0  0  0  0
   -5.6794   -5.6455    0.0000 C   0  0  0  0  0  0  0  0  0  0  0  0
    3.2940   -3.0511    0.0000 C   0  0  0  0  0  0  0  0  0  0  0  0
    7.9338   -6.5783    0.0000 C   0  0  0  0  0  0  0  0  0  0  0  0
   17.0870   -4.3483    0.0000 C   0  0  0  0  0  0  0  0  0  0  0  0
   -2.0648   -1.7927    0.0000 C   0  0  0  0  0  0  0  0  0  0  0  0
   11.3589   -9.2018    0.0000 C   0  0  0  0  0  0  0  0  0  0  0  0
   15.8918   -9.2018    0.0000 C   0  0  0  0  0  0  0  0  0  0  0  0
    9.2844   -8.0746    0.0000 C   0  0  0  0  0  0  0  0  0  0  0  0
   13.8367   -8.0066    0.0000 C   0  0  0  0  0  0  0  0  0  0  0  0
   -0.6073   -2.6381    0.0000 C   0  0  0  0  0  0  0  0  0  0  0  0
    1.8705   -3.0511    0.0000 C   0  0  0  0  0  0  0  0  0  0  0  0
   13.1662   -6.8261    0.0000 C   0  0  0  0  0  0  0  0  0  0  0  0
    8.6042   -6.8261    0.0000 C   0  0  0  0  0  0  0  0  0  0  0  0
   13.1662   -7.6131    0.0000 C   0  0  0  0  0  0  0  0  0  0  0  0
    8.6042   -7.6423    0.0000 C   0  0  0  0  0  0  0  0  0  0  0  0
   10.9362   -3.1969    0.0000 C   0  0  0  0  0  0  0  0  0  0  0  0
   11.6455   -4.4212    0.0000 C   0  0  0  0  0  0  0  0  0  0  0  0
   11.3589  -10.0472    0.0000 C   0  0  0  0  0  0  0  0  0  0  0  0
   17.2910   -7.6131    0.0000 C   0  0  0  0  0  0  0  0  0  0  0  0
   16.6351   -8.8666    0.0000 C   0  0  0  0  0  0  0  0  0  0  0  0
   11.9857   -8.8666    0.0000 C   0  0  0  0  0  0  0  0  0  0  0  0
    2.5410   -2.6381    0.0000 C   0  0  0  0  0  0  0  0  0  0  0  0
   -1.3214   -1.3750    0.0000 C   0  0  0  0  0  0  0  0  0  0  0  0
   -0.6073   -1.7927    0.0000 C   0  0  0  0  0  0  0  0  0  0  0  0
   -1.9149  -11.8997    0.0000 O   0  0  0  0  0  0  0  0  0  0  0  0
   -1.1873  -11.4873    0.0000 C   0  0  0  0  0  0  0  0  0  0  0  0
   -0.4597  -11.8999    0.0000 C   0  0  0  0  0  0  0  0  0  0  0  0
   -1.1871  -10.6623    0.0000 O   0  0  0  0  0  0  0  0  0  0  0  0
  1  2  1  0
  2  3  1  0
  2  4  2  0
  6  5  1  0
  9  7  1  6
  8 18  1  0
  9  5  1  0
 10 16  1  0
 11 22  1  0
 12 20  1  0
 13 24  1  0
 14 19  1  0
 15 21  1  0
 16 17  1  0
 17  8  1  0
 18 26  1  0
 19 25  1  0
 20 27  1  0
 21 28  1  0
 22 29  1  0
 23  7  1  0
 24 35  1  0
 25 12  1  0
 26 13  1  0
 27 10  1  0
 28 11  1  0
 29  6  1  0
 30 14  1  0
 31 62  1  0
 32 63  1  0
 33 37  1  0
 34 30  1  0
 35 15  1  0
 36 34  1  0
 37 23  1  0
 38 32  2  0
 39 31  2  0
 40  6  2  0
 41  7  2  0
 30 42  1  6
 43  8  2  0
 44 10  2  0
 45 14  2  0
 46 12  2  0
 47 13  2  0
 48 11  2  0
 49 15  2  0
 50 55  2  0
 26 51  1  1
 25 52  1  1
 53 42  1  0
 27 54  1  6
 55 53  1  0
 56 33  2  0
 28 57  1  1
 58 87  1  0
 59 36  2  0
 60 32  1  0
 61 31  1  0
 62100  1  0
 63101  1  0
 64 65  2  0
 65 70  1  0
 66 33  1  0
 67  5  1  0
 68 51  1  0
 69 52  1  0
 70 53  2  0
 71 81  1  0
 72 82  2  0
 73 54  1  0
 74 71  1  0
 17 75  1  6
 76 69  2  0
 77 69  1  0
 78 68  1  0
 79 68  2  0
 80 76  1  0
 81 77  2  0
 82 79  1  0
 83 78  2  0
 84  9  1  0
 85 72  1  0
 86 75  1  0
 87 73  2  0
 88 67  1  0
 29 89  1  6
 90 57  1  0
 91 39  1  0
 92 38  1  0
 93 36  1  0
 94114  1  0
 35 95  1  1
 37 96  1  6
 97 50  1  0
 98 61  1  0
 99 60  1  0
100107  1  0
101106  1  0
102 64  1  0
103 73  1  0
104 89  1  0
105 95  1  0
106104  1  0
107105  1  0
108 90  1  0
109 90  1  0
110 91  1  0
111 92  1  0
112 99  1  0
113 98  1  0
114103  2  0
115 97  2  0
116102  2  0
 88 84  1  0
 72 83  1  0
 94 58  2  0
 71 80  2  0
 64 50  1  0
116115  1  0
117118  1  0
118119  1  0
118120  2  0
M  END
> <chembl_id>
CHEMBL5314377

> <chembl_pref_name>
GANIRELIX ACETATE
