
     RDKit          2D

 29 29  0  0  0  0  0  0  0  0999 V2000
    9.1042   -8.3375    0.0000 C   0  0  0  0  0  0  0  0  0  0  0  0
    9.1167   -6.9292    0.0000 C   0  0  0  0  0  0  0  0  0  0  0  0
    8.4917   -7.9792    0.0000 C   0  0  0  0  0  0  0  0  0  0  0  0
    8.4917   -7.2750    0.0000 C   0  0  0  0  0  0  0  0  0  0  0  0
    9.0917   -9.0542    0.0000 O   0  0  0  0  0  0  0  0  0  0  0  0
    9.1250   -6.2167    0.0000 O   0  0  0  0  0  0  0  0  0  0  0  0
    9.7250   -7.2875    0.0000 O   0  0  0  0  0  0  0  0  0  0  0  0
    9.7167   -7.9917    0.0000 O   0  0  0  0  0  0  0  0  0  0  0  0
    5.9917   -6.9917    0.0000 N   0  0  0  0  0  0  0  0  0  0  0  0
    6.6167   -6.6375    0.0000 C   0  0  0  0  0  0  0  0  0  0  0  0
    7.2292   -6.9917    0.0000 N   0  0  0  0  0  0  0  0  0  0  0  0
    5.3792   -6.6375    0.0000 C   0  0  0  0  0  0  0  0  0  0  0  0
    5.9917   -7.7042    0.0000 C   0  0  0  0  0  0  0  0  0  0  0  0
    4.7667   -6.9875    0.0000 C   0  0  0  0  0  0  0  0  0  0  0  0
    5.3792   -8.7667    0.0000 N   0  0  0  0  0  0  0  0  0  0  0  0
    5.3875   -8.0542    0.0000 C   0  0  0  0  0  0  0  0  0  0  0  0
    3.5292   -7.6917    0.0000 C   0  0  0  0  0  0  0  0  0  0  0  0
    4.7667   -7.7000    0.0000 C   0  0  0  0  0  0  0  0  0  0  0  0
    4.1542   -6.6417    0.0000 C   0  0  0  0  0  0  0  0  0  0  0  0
    3.5375   -6.9917    0.0000 C   0  0  0  0  0  0  0  0  0  0  0  0
    4.1542   -8.0542    0.0000 C   0  0  0  0  0  0  0  0  0  0  0  0
    2.9125   -8.0542    0.0000 O   0  0  0  0  0  0  0  0  0  0  0  0
    6.6167   -5.9375    0.0000 C   0  0  0  0  0  0  0  0  0  0  0  0
    7.8500   -6.6375    0.0000 C   0  0  0  0  0  0  0  0  0  0  0  0
    4.7667   -9.1250    0.0000 C   0  0  0  0  0  0  0  0  0  0  0  0
    6.0000   -9.1292    0.0000 C   0  0  0  0  0  0  0  0  0  0  0  0
    2.3000   -7.7042    0.0000 C   0  0  0  0  0  0  0  0  0  0  0  0
    7.2375   -5.5750    0.0000 C   0  0  0  0  0  0  0  0  0  0  0  0
    7.8500   -5.9250    0.0000 C   0  0  0  0  0  0  0  0  0  0  0  0
  2  4  1  0
  3  1  1  0
  4  3  2  0
  5  1  2  0
  6  2  2  0
  7  2  1  0
  8  1  1  0
 10  9  1  0
 11 10  2  0
 12  9  1  0
 13  9  1  0
 14 12  1  0
 15 16  1  0
 16 13  1  0
 17 20  2  0
 18 14  1  0
 19 14  2  0
 20 19  1  0
 21 18  2  0
 22 17  1  0
 23 10  1  0
 24 11  1  0
 25 15  1  0
 26 15  1  0
 27 22  1  0
 28 23  2  0
 29 24  2  0
 17 21  1  0
 28 29  1  0
M  END
> <chembl_id>
CHEMBL1201006

> <chembl_pref_name>
PYRILAMINE MALEATE
