
     RDKit          2D

 46 49  0  0  0  0  0  0  0  0999 V2000
    6.2417  -11.1875    0.0000 Na  0  0  0  0  0 15  0  0  0  0  0  0
    4.1708   -9.7375    0.0000 N   0  0  0  0  0  0  0  0  0  0  0  0
   -0.2250   -9.0292    0.0000 N   0  0  0  0  0  0  0  0  0  0  0  0
    3.4625   -9.7375    0.0000 C   0  0  0  0  0  0  0  0  0  0  0  0
    3.4625   -9.0292    0.0000 C   0  0  0  0  0  0  0  0  0  0  0  0
    4.1750   -9.0292    0.0000 C   0  0  0  0  0  0  0  0  0  0  0  0
   -0.2208   -9.7333    0.0000 C   0  0  0  0  0  0  0  0  0  0  0  0
    0.3917   -8.6750    0.0000 C   0  0  0  0  0  0  0  0  0  0  0  0
    7.2250  -10.1042    0.0000 C   0  0  0  0  0  0  0  0  0  0  0  0
    4.7750  -10.0875    0.0000 C   0  0  0  0  0  0  0  0  0  0  0  0
    7.8000   -9.6875    0.0000 N   0  0  0  0  0  0  0  0  0  0  0  0
    7.4417  -10.7792    0.0000 N   0  0  0  0  0  0  0  0  0  0  0  0
   -0.8375  -10.0833    0.0000 C   0  0  0  0  0  0  0  0  0  0  0  0
    8.1500  -10.7792    0.0000 N   0  0  0  0  0  0  0  0  0  0  0  0
    8.3708  -10.1042    0.0000 N   0  0  0  0  0  0  0  0  0  0  0  0
    2.8417   -8.6750    0.0000 N   0  0  0  0  0  0  0  0  0  0  0  0
    4.7833   -8.6792    0.0000 S   0  0  0  0  0  0  0  0  0  0  0  0
    5.3875   -9.7417    0.0000 C   0  0  0  0  0  0  0  0  0  0  0  0
    1.0042   -9.0292    0.0000 N   0  0  0  0  0  0  0  0  0  0  0  0
    2.2292   -9.0292    0.0000 C   0  0  0  0  0  0  0  0  0  0  0  0
   -1.4500   -9.7292    0.0000 N   0  0  0  0  0  0  0  0  0  0  0  0
    1.6167   -8.6750    0.0000 C   0  0  0  0  0  0  0  0  0  0  0  0
    4.7708  -10.7958    0.0000 C   0  0  0  0  0  0  0  0  0  0  0  0
   -0.8333   -8.6667    0.0000 C   0  0  0  0  0  0  0  0  0  0  0  0
    6.6125   -9.7500    0.0000 S   0  0  0  0  0  0  0  0  0  0  0  0
    5.3917   -9.0375    0.0000 C   0  0  0  0  0  0  0  0  0  0  0  0
    2.9667  -10.2417    0.0000 O   0  0  0  0  0  0  0  0  0  0  0  0
    5.9958  -10.1000    0.0000 C   0  0  0  0  0  0  0  0  0  0  0  0
    0.3958  -10.0875    0.0000 O   0  0  0  0  0  0  0  0  0  0  0  0
    0.3917   -7.9667    0.0000 O   0  0  0  0  0  0  0  0  0  0  0  0
   -1.4458   -9.0208    0.0000 C   0  0  0  0  0  0  0  0  0  0  0  0
   -0.8375  -10.7917    0.0000 O   0  0  0  0  0  0  0  0  0  0  0  0
    1.6167   -7.9667    0.0000 C   0  0  0  0  0  0  0  0  0  0  0  0
    2.2292   -9.7375    0.0000 O   0  0  0  0  0  0  0  0  0  0  0  0
    5.3792  -11.1542    0.0000 O   0  0  0  0  0  0  0  0  0  0  0  0
    4.1542  -11.1458    0.0000 O   0  0  0  0  0  0  0  0  0  0  0  0
    2.2333   -7.6125    0.0000 C   0  0  0  0  0  0  0  0  0  0  0  0
    1.0083   -7.6167    0.0000 C   0  0  0  0  0  0  0  0  0  0  0  0
    7.7958   -8.9792    0.0000 C   0  0  0  0  0  0  0  0  0  0  0  0
    1.6208   -6.5500    0.0000 C   0  0  0  0  0  0  0  0  0  0  0  0
    1.0042   -6.9083    0.0000 C   0  0  0  0  0  0  0  0  0  0  0  0
    2.2333   -6.9042    0.0000 C   0  0  0  0  0  0  0  0  0  0  0  0
   -2.0625  -10.0792    0.0000 C   0  0  0  0  0  0  0  0  0  0  0  0
    1.6167   -5.8417    0.0000 O   0  0  0  0  0  0  0  0  0  0  0  0
   -2.6750   -9.7250    0.0000 C   0  0  0  0  0  0  0  0  0  0  0  0
    4.1667   -8.3167    0.0000 H   0  0  0  0  0  0  0  0  0  0  0  0
  3  8  1  0
  4  2  1  0
  5  6  1  0
  6  2  1  0
  7  3  1  0
  8 19  1  0
  9 25  1  0
 10  2  1  0
 11  9  1  0
 12  9  2  0
 13  7  1  0
 14 12  1  0
 15 11  1  0
  5 16  1  1
 17  6  1  0
 18 10  2  0
 19 22  1  0
 20 16  1  0
 21 13  1  0
 22 20  1  0
 23 10  1  0
 24  3  1  0
 25 28  1  0
 26 17  1  0
 27  4  2  0
 28 18  1  0
 29  7  2  0
 30  8  2  0
 31 24  1  0
 32 13  2  0
 22 33  1  6
 34 20  2  0
 35 23  1  0
 36 23  2  0
 37 33  2  0
 38 33  1  0
 39 11  1  0
 40 41  1  0
 41 38  2  0
 42 37  1  0
 43 21  1  0
 44 40  1  0
 45 43  1  0
  6 46  1  6
  4  5  1  0
 26 18  1  0
 15 14  2  0
 40 42  2  0
 21 31  1  0
M  CHG  2   1   1  35  -1
M  END
> <chembl_id>
CHEMBL1200482

> <chembl_pref_name>
CEFOPERAZONE SODIUM
