
     RDKit          2D

 31 35  0  0  0  0  0  0  0  0999 V2000
    1.5990    1.0739    0.0000 S   0  0  0  0  0  0  0  0  0  0  0  0
    1.4274    0.2669    0.0000 C   0  0  0  0  0  0  0  0  0  0  0  0
    2.4194    1.1601    0.0000 C   0  0  0  0  0  0  0  0  0  0  0  0
    2.7550    0.4064    0.0000 C   0  0  0  0  0  0  0  0  0  0  0  0
    2.1419   -0.1456    0.0000 C   0  0  0  0  0  0  0  0  0  0  0  0
    2.1419   -0.9706    0.0000 C   0  0  0  0  0  0  0  0  0  0  0  0
    2.8564   -1.3831    0.0000 N   0  0  0  0  0  0  0  0  0  0  0  0
    0.7130   -0.1456    0.0000 C   0  0  0  0  0  0  0  0  0  0  0  0
    0.7130   -0.9706    0.0000 C   0  0  0  0  0  0  0  0  0  0  0  0
    1.4274   -1.3831    0.0000 C   0  0  0  0  0  0  0  0  0  0  0  0
    3.5708   -0.9706    0.0000 C   0  0  0  0  0  0  0  0  0  0  0  0
    4.2853   -1.3831    0.0000 C   0  0  0  0  0  0  0  0  0  0  0  0
    4.2853   -2.2081    0.0000 N   0  0  0  0  0  0  0  0  0  0  0  0
    8.5721   -1.3831    0.0000 C   0  0  0  0  0  0  0  0  0  0  0  0
    8.5721   -2.2081    0.0000 C   0  0  0  0  0  0  0  0  0  0  0  0
    7.8577   -2.6206    0.0000 O   0  0  0  0  0  0  0  0  0  0  0  0
    9.2866   -2.6206    0.0000 C   0  0  0  0  0  0  0  0  0  0  0  0
   10.0011   -2.2081    0.0000 C   0  0  0  0  0  0  0  0  0  0  0  0
   10.7156   -2.6206    0.0000 N   0  0  0  0  0  0  0  0  0  0  0  0
   10.0011   -1.3831    0.0000 C   0  0  0  0  0  0  0  0  0  0  0  0
   10.7156   -0.9706    0.0000 C   0  0  0  0  0  0  0  0  0  0  0  0
   11.4300   -1.3831    0.0000 C   0  0  0  0  0  0  0  0  0  0  0  0
   11.4300   -2.2081    0.0000 C   0  0  0  0  0  0  0  0  0  0  0  0
   12.1445   -2.6206    0.0000 O   0  0  0  0  0  0  0  0  0  0  0  0
    9.2866   -0.9706    0.0000 C   0  0  0  0  0  0  0  0  0  0  0  0
    3.5708   -2.6206    0.0000 C   0  0  0  0  0  0  0  0  0  0  0  0
    2.8564   -2.2081    0.0000 C   0  0  0  0  0  0  0  0  0  0  0  0
    4.9998   -2.6206    0.0000 C   0  0  0  0  0  0  0  0  0  0  0  0
    7.1432   -2.2081    0.0000 C   0  0  0  0  0  0  0  0  0  0  0  0
    6.4287   -2.6206    0.0000 C   0  0  0  0  0  0  0  0  0  0  0  0
    5.7143   -2.2081    0.0000 C   0  0  0  0  0  0  0  0  0  0  0  0
  1  2  1  0
  1  3  1  0
  2  5  2  0
  3  4  2  0
  5  4  1  0
  5  6  1  0
  6  7  1  0
  8  9  2  0
  8  2  1  0
  9 10  1  0
 10  6  2  0
 11 12  1  0
 11  7  1  0
 12 13  1  0
 13 26  1  0
 14 15  1  0
 14 25  2  0
 15 17  2  0
 16 15  1  0
 17 18  1  0
 18 20  2  0
 19 18  1  0
 19 23  1  0
 20 21  1  0
 21 22  2  0
 22 23  1  0
 23 24  2  0
 25 20  1  0
 26 27  1  0
 27  7  1  0
 28 13  1  0
 29 16  1  0
 29 30  1  0
 30 31  1  0
 31 28  1  0
M  END
> <chembl_id>
CHEMBL2105760

> <chembl_pref_name>
BREXPIPRAZOLE
