
     RDKit          2D

 16 15  0  0  0  0  0  0  0  0999 V2000
    3.6682    2.0625    0.0000 N   0  0  0  0  0  0  0  0  0  0  0  0
    4.3827    0.8250    0.0000 N   0  0  0  0  0  0  0  0  0  0  0  0
    2.9538    0.8250    0.0000 N   0  0  0  0  0  0  0  0  0  0  0  0
    2.9538    3.3000    0.0000 N   0  0  0  0  0  0  0  0  0  0  0  0
    2.2393    2.0625    0.0000 N   0  0  0  0  0  0  0  0  0  0  0  0
    3.6682    1.2375    0.0000 C   0  0  0  0  0  0  0  0  0  0  0  0
    5.0972   -1.2375    0.0000 C   0  0  0  0  0  0  0  0  0  0  0  0
    2.9538    2.4750    0.0000 C   0  0  0  0  0  0  0  0  0  0  0  0
    5.0972   -0.4125    0.0000 C   0  0  0  0  0  0  0  0  0  0  0  0
    4.3827    0.0000    0.0000 C   0  0  0  0  0  0  0  0  0  0  0  0
    5.8116   -1.6500    0.0000 C   0  0  0  0  0  0  0  0  0  0  0  0
    4.3827   -1.6500    0.0000 C   0  0  0  0  0  0  0  0  0  0  0  0
    5.8116   -2.4750    0.0000 C   0  0  0  0  0  0  0  0  0  0  0  0
    4.3827   -2.4750    0.0000 C   0  0  0  0  0  0  0  0  0  0  0  0
    5.0972   -2.8875    0.0000 C   0  0  0  0  0  0  0  0  0  0  0  0
    0.0000    0.0000    0.0000 Cl  0  0  0  0  0  0  0  0  0  0  0  0
  1  6  1  0
  1  8  1  0
  2  6  1  0
  2 10  1  0
  3  6  2  0
  4  8  2  0
  8  5  1  0
  7  9  1  0
  7 11  2  0
  7 12  1  0
  9 10  1  0
 11 13  1  0
 12 14  2  0
 13 15  2  0
 14 15  1  0
M  END
> <chembl_id>
CHEMBL1528839

> <chembl_pref_name>
PHENFORMIN HYDROCHLORIDE
