
     RDKit          2D

 35 39  0  0  0  0  0  0  0  0999 V2000
    8.1417   -8.5763    0.0000 C   0  0  0  0  0  0  0  0  0  0  0  0
    8.1447   -7.7392    0.0000 C   0  0  0  0  0  0  0  0  0  0  0  0
    8.1469   -6.0629    0.0000 C   0  0  0  0  0  0  0  0  0  0  0  0
    8.8725   -6.4836    0.0000 C   0  0  0  0  0  0  0  0  0  0  0  0
    8.8696   -7.3207    0.0000 O   0  0  0  0  0  0  0  0  0  0  0  0
    6.7545   -5.2703    0.0000 O   0  0  0  0  0  0  0  0  0  0  0  0
    7.4656   -4.8542    0.0000 C   0  0  0  0  0  0  0  0  0  0  0  0
    8.1467   -5.2373    0.0000 C   0  0  0  0  0  0  0  0  0  0  0  0
    6.7578   -6.1132    0.0000 C   0  0  0  0  0  0  0  0  0  0  0  0
    5.3155   -7.7591    0.0000 C   0  0  0  0  0  0  0  0  0  0  0  0
    6.0368   -7.3584    0.0000 C   0  0  0  0  0  0  0  0  0  0  0  0
    6.0502   -6.5380    0.0000 C   0  0  0  0  0  0  0  0  0  0  0  0
    5.3443   -6.1121    0.0000 C   0  0  0  0  0  0  0  0  0  0  0  0
    4.6231   -6.5128    0.0000 C   0  0  0  0  0  0  0  0  0  0  0  0
    4.6078   -7.3394    0.0000 C   0  0  0  0  0  0  0  0  0  0  0  0
    5.9766   -8.9808    0.0000 N   0  0  0  0  0  0  0  0  0  0  0  0
    5.3150   -8.5797    0.0000 C   0  0  0  0  0  0  0  0  0  0  0  0
    4.6389   -8.9521    0.0000 C   0  0  0  0  0  0  0  0  0  0  0  0
    4.6232   -9.7253    0.0000 C   0  0  0  0  0  0  0  0  0  0  0  0
    5.2892  -10.1247    0.0000 N   0  0  0  0  0  0  0  0  0  0  0  0
    5.9626   -9.7501    0.0000 C   0  0  0  0  0  0  0  0  0  0  0  0
    7.4152   -8.9889    0.0000 C   0  0  0  0  0  0  0  0  0  0  0  0
    7.4119   -9.8252    0.0000 C   0  0  0  0  0  0  0  0  0  0  0  0
    8.1359  -10.2473    0.0000 C   0  0  0  0  0  0  0  0  0  0  0  0
    8.8649   -9.8268    0.0000 C   0  0  0  0  0  0  0  0  0  0  0  0
    8.8647   -8.9919    0.0000 C   0  0  0  0  0  0  0  0  0  0  0  0
    6.6979  -10.2335    0.0000 N   0  0  0  0  0  0  0  0  0  0  0  0
    9.5765   -8.5798    0.0000 O   0  0  0  0  0  0  0  0  0  0  0  0
   10.2892   -8.9903    0.0000 C   0  0  0  0  0  0  0  0  0  0  0  0
   11.0010   -8.5782    0.0000 C   0  0  0  0  0  0  0  0  0  0  0  0
   11.7137   -8.9887    0.0000 N   0  0  0  0  0  0  0  0  0  0  0  0
   11.8044   -9.8017    0.0000 C   0  0  0  0  0  0  0  0  0  0  0  0
   12.6090   -9.9717    0.0000 C   0  0  0  0  0  0  0  0  0  0  0  0
   13.0195   -9.2589    0.0000 C   0  0  0  0  0  0  0  0  0  0  0  0
   12.4684   -8.6485    0.0000 C   0  0  0  0  0  0  0  0  0  0  0  0
  7  8  1  0
 17 18  2  0
 18 19  1  0
 12  9  1  0
 19 20  2  0
 10 11  2  0
 20 21  1  0
 21 16  1  0
 21 27  2  0
  1  2  1  0
  1 22  2  0
  3  4  1  0
 22 23  1  0
  4  5  1  0
 23 24  2  0
  5  2  1  0
 24 25  1  0
 10 17  1  0
 25 26  2  0
 26  1  1  0
  6  7  1  0
 23 27  1  0
 10 15  1  0
 26 28  1  0
 11 12  1  0
 28 29  1  0
 12 13  2  0
 29 30  1  0
 13 14  1  0
 30 31  1  0
 31 32  1  0
 14 15  2  0
  9  6  1  0
  3  8  2  0
 16 17  1  0
 32 33  1  0
 33 34  1  0
 34 35  1  0
 35 31  1  0
M  END
> <chembl_id>
CHEMBL2035187

> <chembl_pref_name>
PACRITINIB
