
     RDKit          2D

 43 46  0  0  0  0  0  0  0  0999 V2000
   -1.3326   -2.5013    0.0000 C   0  0  0  0  0  0  0  0  0  0  0  0
   -1.2895   -3.3251    0.0000 C   0  0  0  0  0  0  0  0  0  0  0  0
   -0.6407   -2.0519    0.0000 C   0  0  0  0  0  0  0  0  0  0  0  0
   -0.5544   -3.6997    0.0000 C   0  0  0  0  0  0  0  0  0  0  0  0
   -0.6839   -1.2281    0.0000 O   0  0  0  0  0  0  0  0  0  0  0  0
    0.0944   -2.4265    0.0000 O   0  0  0  0  0  0  0  0  0  0  0  0
    0.1375   -3.2503    0.0000 O   0  0  0  0  0  0  0  0  0  0  0  0
   -0.5112   -4.5235    0.0000 O   0  0  0  0  0  0  0  0  0  0  0  0
   -3.7067    0.3657    0.0000 C   0  0  0  0  0  0  0  0  0  0  0  0
   -4.4417   -0.0088    0.0000 C   0  0  0  0  0  0  0  0  0  0  0  0
   -5.1336    0.4405    0.0000 C   0  0  0  0  0  0  0  0  0  0  0  0
   -5.0905    1.2644    0.0000 C   0  0  0  0  0  0  0  0  0  0  0  0
   -4.3554    1.6389    0.0000 C   0  0  0  0  0  0  0  0  0  0  0  0
   -3.6635    1.1896    0.0000 C   0  0  0  0  0  0  0  0  0  0  0  0
   -2.2365    1.1148    0.0000 N   0  0  0  0  0  0  0  0  0  0  0  0
   -2.9284    1.5642    0.0000 C   0  0  0  0  0  0  0  0  0  0  0  0
   -2.8852    2.3880    0.0000 O   0  0  0  0  0  0  0  0  0  0  0  0
   -0.8095    1.0400    0.0000 C   0  0  0  0  0  0  0  0  0  0  0  0
   -1.5014    1.4894    0.0000 C   0  0  0  0  0  0  0  0  0  0  0  0
   -1.4582    2.3132    0.0000 N   0  0  0  0  0  0  0  0  0  0  0  0
   -0.0744    1.4146    0.0000 C   0  0  0  0  0  0  0  0  0  0  0  0
   -0.7232    2.6878    0.0000 C   0  0  0  0  0  0  0  0  0  0  0  0
   -0.0313    2.2385    0.0000 C   0  0  0  0  0  0  0  0  0  0  0  0
   -5.8687    0.0660    0.0000 C   0  0  0  0  0  0  0  0  0  0  0  0
   -6.6038    0.4405    0.0000 C   0  0  0  0  0  0  0  0  0  0  0  0
   -7.1872   -0.1428    0.0000 N   0  0  0  0  0  0  0  0  0  0  0  0
   -6.8126   -0.8779    0.0000 C   0  0  0  0  0  0  0  0  0  0  0  0
   -5.9978   -0.7489    0.0000 N   0  0  0  0  0  0  0  0  0  0  0  0
   -7.9841    0.0707    0.0000 C   0  0  0  0  0  0  0  0  0  0  0  0
   -8.1976    0.8676    0.0000 C   0  0  0  0  0  0  0  0  0  0  0  0
   -7.6142    1.4509    0.0000 N   0  0  0  0  0  0  0  0  0  0  0  0
   -6.8173    1.2374    0.0000 C   0  0  0  0  0  0  0  0  0  0  0  0
   -6.2340    1.8208    0.0000 N   0  0  0  0  0  0  0  0  0  0  0  0
   -7.1872   -1.6130    0.0000 C   0  0  0  0  0  0  0  0  0  0  0  0
   -6.8126   -2.3481    0.0000 N   0  0  0  0  0  0  0  0  0  0  0  0
   -7.3960   -2.9314    0.0000 C   0  0  0  0  0  0  0  0  0  0  0  0
   -8.1311   -2.5569    0.0000 C   0  0  0  0  0  0  0  0  0  0  0  0
   -8.0020   -1.7421    0.0000 C   0  0  0  0  0  0  0  0  0  0  0  0
   -5.9978   -2.4771    0.0000 C   0  0  0  0  0  0  0  0  0  0  0  0
   -5.7021   -3.2473    0.0000 O   0  0  0  0  0  0  0  0  0  0  0  0
   -5.4786   -1.8360    0.0000 C   0  0  0  0  0  0  0  0  0  0  0  0
   -4.9594   -1.1948    0.0000 C   0  0  0  0  0  0  0  0  0  0  0  0
   -4.4402   -0.5537    0.0000 C   0  0  0  0  0  0  0  0  0  0  0  0
  1  2  2  0
  1  3  1  0
  2  4  1  0
  3  5  2  0
  3  6  1  0
  4  7  2  0
  4  8  1  0
  9 10  2  0
 10 11  1  0
 11 12  2  0
 12 13  1  0
 13 14  2  0
  9 14  1  0
 15 16  1  0
 14 16  1  0
 18 19  2  0
 15 19  1  0
 16 17  2  0
 20 19  1  0
 22 23  1  0
 21 23  2  0
 21 18  1  0
 20 22  2  0
 11 24  1  0
 25 26  1  0
 26 27  1  0
 27 28  2  0
 28 24  1  0
 25 24  2  0
 29 30  2  0
 30 31  1  0
 31 32  2  0
 25 32  1  0
 26 29  1  0
 32 33  1  0
 34 27  1  1
 35 36  1  0
 36 37  1  0
 37 38  1  0
 34 35  1  0
 34 38  1  0
 35 39  1  0
 39 40  2  0
 39 41  1  0
 41 42  3  0
 42 43  1  0
M  END
> <chembl_id>
CHEMBL4594293

> <chembl_pref_name>
ACALABRUTINIB MALEATE
