
     RDKit          2D

 16 17  0  0  1  0  0  0  0  0999 V2000
   18.1807    0.6343    0.0000 C   0  0  0  0  0  0  0  0  0  0  0  0
   17.4710    1.0337    0.0000 C   0  0  0  0  0  0  0  0  0  0  0  0
   16.7552    0.6251    0.0000 C   0  0  0  0  0  0  0  0  0  0  0  0
   18.8719    1.0491    0.0000 C   0  0  0  0  0  0  0  0  0  0  0  0
   20.2760    1.0675    0.0000 N   0  0  0  0  0  0  0  0  0  0  0  0
   16.7552   -0.2044    0.0000 C   0  0  0  0  0  0  0  0  0  0  0  0
   18.1807   -0.2044    0.0000 C   0  0  0  0  0  0  0  0  0  0  0  0
   19.5755    0.6527    0.0000 C   0  0  0  0  0  0  0  0  0  0  0  0
   17.4710   -0.6161    0.0000 C   0  0  0  0  0  0  0  0  0  0  0  0
   16.0362    1.0337    0.0000 O   0  0  0  0  0  0  0  0  0  0  0  0
   18.8719    1.8602    0.0000 O   0  0  0  0  0  0  0  0  0  0  0  0
   16.0362   -0.6161    0.0000 O   0  0  0  0  0  0  0  0  0  0  0  0
   21.0195    0.6527    0.0000 C   0  0  0  0  0  0  0  0  0  0  0  0
   19.5755   -0.1860    0.0000 C   0  0  0  0  0  0  0  0  0  0  0  0
   21.0195   -0.1860    0.0000 C   0  0  0  0  0  0  0  0  0  0  0  0
   20.2852   -0.5915    0.0000 C   0  0  0  0  0  0  0  0  0  0  0  0
  2  1  1  0
  3  2  2  0
  4  1  1  0
  8  5  1  0
  6  9  2  0
  7  1  2  0
  8  4  1  0
  9  7  1  0
 10  3  1  0
  4 11  1  0
 12  6  1  0
 13  5  1  0
 14  8  1  0
 15 16  1  0
 16 14  1  0
  3  6  1  0
 13 15  1  0
M  END
> <chembl_id>
CHEMBL88055

> <chembl_pref_name>
RIMITEROL
