
     RDKit          2D

 43 43  0  0  0  0  0  0  0  0999 V2000
   11.7458   -8.7417    0.0000 C   0  0  0  0  0  0  0  0  0  0  0  0
   12.5708   -8.7417    0.0000 C   0  0  0  0  0  0  0  0  0  0  0  0
   12.9833   -8.0272    0.0000 C   0  0  0  0  0  0  0  0  0  0  0  0
   13.8085   -8.0241    0.0000 O   0  0  0  0  0  0  0  0  0  0  0  0
   12.5710   -7.3097    0.0000 O   0  0  0  0  0  0  0  0  0  0  0  0
   11.3333   -9.4561    0.0000 C   0  0  0  0  0  0  0  0  0  0  0  0
   10.5083   -9.4591    0.0000 O   0  0  0  0  0  0  0  0  0  0  0  0
   11.7458  -10.1736    0.0000 O   0  0  0  0  0  0  0  0  0  0  0  0
    0.9069   -3.8416    0.0000 N   0  0  0  0  0  0  0  0  0  0  0  0
    0.9057   -4.6690    0.0000 C   0  0  0  0  0  0  0  0  0  0  0  0
    1.6206   -5.0819    0.0000 N   0  0  0  0  0  0  0  0  0  0  0  0
    1.6188   -3.4289    0.0000 C   0  0  0  0  0  0  0  0  0  0  0  0
    2.3341   -3.8380    0.0000 C   0  0  0  0  0  0  0  0  0  0  0  0
    2.3390   -4.6644    0.0000 C   0  0  0  0  0  0  0  0  0  0  0  0
    3.1265   -4.9153    0.0000 N   0  0  0  0  0  0  0  0  0  0  0  0
    3.6084   -4.2438    0.0000 C   0  0  0  0  0  0  0  0  0  0  0  0
    3.1186   -3.5781    0.0000 N   0  0  0  0  0  0  0  0  0  0  0  0
    1.6163   -2.6039    0.0000 N   0  0  0  0  0  0  0  0  0  0  0  0
    3.3851   -5.6990    0.0000 C   0  0  0  0  0  0  0  0  0  0  0  0
    4.1089   -6.0950    0.0000 C   0  0  0  0  0  0  0  0  0  0  0  0
    4.1279   -6.9198    0.0000 C   0  0  0  0  0  0  0  0  0  0  0  0
    4.8137   -5.6662    0.0000 O   0  0  0  0  0  0  0  0  0  0  0  0
    5.5374   -6.0621    0.0000 C   0  0  0  0  0  0  0  0  0  0  0  0
    6.2422   -5.6333    0.0000 P   0  0  0  0  0  0  0  0  0  0  0  0
    6.9702   -5.2379    0.0000 O   0  0  0  0  0  0  0  0  0  0  0  0
    5.8308   -4.9182    0.0000 O   0  0  0  0  0  0  0  0  0  0  0  0
    6.6506   -6.3502    0.0000 O   0  0  0  0  0  0  0  0  0  0  0  0
    7.6737   -5.6688    0.0000 C   0  0  0  0  0  0  0  0  0  0  0  0
    8.3986   -5.2750    0.0000 O   0  0  0  0  0  0  0  0  0  0  0  0
    9.1021   -5.7059    0.0000 C   0  0  0  0  0  0  0  0  0  0  0  0
    9.8271   -5.3121    0.0000 O   0  0  0  0  0  0  0  0  0  0  0  0
    9.0807   -6.5306    0.0000 O   0  0  0  0  0  0  0  0  0  0  0  0
   10.5306   -5.7430    0.0000 C   0  0  0  0  0  0  0  0  0  0  0  0
   11.2556   -5.3492    0.0000 C   0  0  0  0  0  0  0  0  0  0  0  0
   10.5092   -6.5677    0.0000 C   0  0  0  0  0  0  0  0  0  0  0  0
    6.2339   -7.0622    0.0000 C   0  0  0  0  0  0  0  0  0  0  0  0
    6.6422   -7.7791    0.0000 O   0  0  0  0  0  0  0  0  0  0  0  0
    6.2256   -8.4911    0.0000 C   0  0  0  0  0  0  0  0  0  0  0  0
    6.6339   -9.2080    0.0000 O   0  0  0  0  0  0  0  0  0  0  0  0
    5.4006   -8.4863    0.0000 O   0  0  0  0  0  0  0  0  0  0  0  0
    6.2172   -9.9200    0.0000 C   0  0  0  0  0  0  0  0  0  0  0  0
    6.6256  -10.6369    0.0000 C   0  0  0  0  0  0  0  0  0  0  0  0
    5.3922   -9.9152    0.0000 C   0  0  0  0  0  0  0  0  0  0  0  0
  1  2  2  0
  2  3  1  0
  3  4  1  0
  3  5  2  0
  1  6  1  0
  6  7  1  0
  6  8  2  0
 17 13  1  0
 28 29  1  0
 13 12  2  0
 29 30  1  0
 12 18  1  0
 30 31  1  0
 12  9  1  0
 30 32  2  0
 15 19  1  0
 31 33  1  0
 13 14  1  0
 33 34  1  0
 19 20  1  0
 33 35  1  0
  9 10  2  0
 27 36  1  0
 20 21  1  6
 36 37  1  0
 37 38  1  0
 20 22  1  0
 38 39  1  0
 10 11  1  0
 38 40  2  0
 22 23  1  0
 39 41  1  0
 11 14  2  0
 41 42  1  0
 23 24  1  0
 41 43  1  0
 24 25  1  0
 14 15  1  0
 24 26  2  0
 15 16  1  0
 24 27  1  0
 16 17  2  0
 25 28  1  0
M  END
> <chembl_id>
CHEMBL1486

> <chembl_pref_name>
TENOFOVIR DISOPROXIL FUMARATE
