
     RDKit          2D

 45 52  0  0  0  0  0  0  0  0999 V2000
   17.7116   -7.1325    0.0000 C   0  0  0  0  0  0  0  0  0  0  0  0
   18.4401   -7.5231    0.0000 C   0  0  0  0  0  0  0  0  0  0  0  0
   18.4352   -8.3381    0.0000 C   0  0  0  0  0  0  0  0  0  0  0  0
   17.8100   -8.8751    0.0000 C   0  0  0  0  0  0  0  0  0  0  0  0
   17.9165   -9.6957    0.0000 C   0  0  0  0  0  0  0  0  0  0  0  0
   18.6949   -9.9677    0.0000 C   0  0  0  0  0  0  0  0  0  0  0  0
   19.3513   -9.4645    0.0000 C   0  0  0  0  0  0  0  0  0  0  0  0
   20.1479   -9.6003    0.0000 N   0  0  0  0  0  0  0  0  0  0  0  0
   20.5295   -8.8718    0.0000 C   0  0  0  0  0  0  0  0  0  0  0  0
   19.1972   -8.6552    0.0000 C   0  0  0  0  0  0  0  0  0  0  0  0
   19.9541   -8.2869    0.0000 C   0  0  0  0  0  0  0  0  0  0  0  0
   19.8775   -7.4614    0.0000 C   0  0  0  0  0  0  0  0  0  0  0  0
   19.1399   -7.0887    0.0000 C   0  0  0  0  0  0  0  0  0  0  0  0
   19.8383   -6.6442    0.0000 H   0  0  0  0  0  0  0  0  0  0  0  0
   19.1149   -6.2653    0.0000 N   0  0  0  0  0  0  0  0  0  0  0  0
   19.8145   -5.8309    0.0000 C   0  0  0  0  0  0  0  0  0  0  0  0
   18.3864   -5.8746    0.0000 C   0  0  0  0  0  0  0  0  0  0  0  0
   17.6866   -6.3091    0.0000 C   0  0  0  0  0  0  0  0  0  0  0  0
   16.9581   -5.9184    0.0000 C   0  0  0  0  0  0  0  0  0  0  0  0
   16.9761   -5.0922    0.0000 O   0  0  0  0  0  0  0  0  0  0  0  0
   16.2379   -6.3174    0.0000 N   0  0  0  0  0  0  0  0  0  0  0  0
   15.5320   -5.8883    0.0000 C   0  0  0  0  0  0  0  0  0  0  0  0
   15.8980   -5.1473    0.0000 C   0  0  0  0  0  0  0  0  0  0  0  0
   15.0408   -5.2269    0.0000 C   0  0  0  0  0  0  0  0  0  0  0  0
   15.2917   -4.4379    0.0000 O   0  0  0  0  0  0  0  0  0  0  0  0
   14.2594   -5.4828    0.0000 N   0  0  0  0  0  0  0  0  0  0  0  0
   13.5398   -5.0768    0.0000 C   0  0  0  0  0  0  0  0  0  0  0  0
   13.5377   -4.2497    0.0000 C   0  0  0  0  0  0  0  0  0  0  0  0
   12.8207   -3.8405    0.0000 C   0  0  0  0  0  0  0  0  0  0  0  0
   12.8161   -3.0167    0.0000 C   0  0  0  0  0  0  0  0  0  0  0  0
   12.0964   -2.6107    0.0000 C   0  0  0  0  0  0  0  0  0  0  0  0
   11.3842   -3.0255    0.0000 C   0  0  0  0  0  0  0  0  0  0  0  0
   11.3889   -3.8492    0.0000 C   0  0  0  0  0  0  0  0  0  0  0  0
   12.1058   -4.2585    0.0000 C   0  0  0  0  0  0  0  0  0  0  0  0
   12.8275   -5.4914    0.0000 C   0  0  0  0  0  0  0  0  0  0  0  0
   12.1105   -5.0823    0.0000 O   0  0  0  0  0  0  0  0  0  0  0  0
   12.8355   -6.3179    0.0000 N   0  0  0  0  0  0  0  0  0  0  0  0
   12.2224   -6.8717    0.0000 C   0  0  0  0  0  0  0  0  0  0  0  0
   12.5633   -7.6244    0.0000 C   0  0  0  0  0  0  0  0  0  0  0  0
   13.3815   -7.5337    0.0000 C   0  0  0  0  0  0  0  0  0  0  0  0
   13.5492   -6.7245    0.0000 C   0  0  0  0  0  0  0  0  0  0  0  0
   14.2615   -6.3098    0.0000 C   0  0  0  0  0  0  0  0  0  0  0  0
   14.3522   -7.1281    0.0000 O   0  0  0  0  0  0  0  0  0  0  0  0
   15.0473   -6.5582    0.0000 O   0  0  0  0  0  0  0  0  0  0  0  0
   13.6934   -5.9141    0.0000 H   0  0  0  0  0  0  0  0  0  0  0  0
  1  2  2  0
  2  3  1  0
  3  4  1  0
  4  5  2  0
  5  6  1  0
  6  7  2  0
  7  8  1  0
  8  9  1  0
  7 10  1  0
  3 10  2  0
 10 11  1  0
  9 11  2  0
 11 12  1  0
 12 13  1  0
 13 14  1  1
  2 13  1  0
 13 15  1  0
 15 16  1  0
 15 17  1  0
 17 18  1  0
  1 18  1  0
 18 19  1  1
 19 20  2  0
 19 21  1  0
 22 21  1  6
 22 23  1  0
 22 24  1  0
 24 25  2  0
 24 26  1  0
 26 27  1  0
 27 28  1  6
 28 29  1  0
 29 30  1  0
 30 31  2  0
 31 32  1  0
 32 33  2  0
 33 34  1  0
 29 34  2  0
 27 35  1  0
 35 36  2  0
 35 37  1  0
 37 38  1  0
 38 39  1  0
 39 40  1  0
 40 41  1  0
 37 41  1  0
 41 42  1  0
 42 43  1  6
 26 42  1  0
 42 44  1  0
 22 44  1  0
 41 45  1  1
M  END
> <chembl_id>
CHEMBL442

> <chembl_pref_name>
ERGOTAMINE
