
     RDKit          2D

 20 21  0  0  0  0  0  0  0  0999 V2000
    5.2542   -5.4417    0.0000 C   0  0  0  0  0  0  0  0  0  0  0  0
    6.3917   -5.4375    0.0000 C   0  0  0  0  0  0  0  0  0  0  0  0
    5.8292   -5.8500    0.0000 N   0  0  0  0  0  0  0  0  0  0  0  0
    5.4750   -4.7667    0.0000 C   0  0  0  0  0  0  0  0  0  0  0  0
    6.1792   -4.7667    0.0000 C   0  0  0  0  0  0  0  0  0  0  0  0
    4.5917   -5.6750    0.0000 C   0  0  0  0  0  0  0  0  0  0  0  0
    7.0542   -5.6500    0.0000 C   0  0  0  0  0  0  0  0  0  0  0  0
    7.2000   -6.3417    0.0000 C   0  0  0  0  0  0  0  0  0  0  0  0
    4.0625   -5.2000    0.0000 C   0  0  0  0  0  0  0  0  0  0  0  0
    4.4500   -6.3792    0.0000 O   0  0  0  0  0  0  0  0  0  0  0  0
    7.8667   -6.5042    0.0000 O   0  0  0  0  0  0  0  0  0  0  0  0
    6.6625   -6.8375    0.0000 O   0  0  0  0  0  0  0  0  0  0  0  0
    3.3792   -5.4250    0.0000 C   0  0  0  0  0  0  0  0  0  0  0  0
    4.2000   -4.4917    0.0000 C   0  0  0  0  0  0  0  0  0  0  0  0
    5.8292   -6.5500    0.0000 C   0  0  0  0  0  0  0  0  0  0  0  0
    2.9750   -4.2417    0.0000 C   0  0  0  0  0  0  0  0  0  0  0  0
    5.0542   -4.2042    0.0000 C   0  0  0  0  0  0  0  0  0  0  0  0
    2.8417   -4.9542    0.0000 C   0  0  0  0  0  0  0  0  0  0  0  0
    3.6542   -4.0250    0.0000 C   0  0  0  0  0  0  0  0  0  0  0  0
    2.4417   -3.7792    0.0000 Cl  0  0  0  0  0  0  0  0  0  0  0  0
  2  3  1  0
  3  1  1  0
  4  1  2  0
  5  4  1  0
  6  1  1  0
  7  2  1  0
  8  7  1  0
  9  6  1  0
 10  6  2  0
 11  8  1  0
 12  8  2  0
 13  9  1  0
 14  9  2  0
 15  3  1  0
 16 19  2  0
 17  4  1  0
 18 13  2  0
 19 14  1  0
 20 16  1  0
  2  5  2  0
 16 18  1  0
M  END
> <chembl_id>
CHEMBL19490

> <chembl_pref_name>
ZOMEPIRAC
