
     RDKit          2D

 27 29  0  0  1  0  0  0  0  0999 V2000
    1.9542    0.2458    0.0000 N   0  0  0  0  0  0  0  0  0  0  0  0
    1.9542   -0.6375    0.0000 C   0  0  0  0  0  0  0  0  0  0  0  0
    1.0667    0.2458    0.0000 C   0  0  0  0  0  0  0  0  0  0  0  0
    1.0667   -0.6375    0.0000 C   0  0  0  0  0  0  0  0  0  0  0  0
    2.7750    0.5208    0.0000 C   0  0  0  0  0  0  0  0  0  0  0  0
    2.7750   -0.8875    0.0000 S   0  0  0  0  0  0  0  0  0  0  0  0
    3.2792   -0.1792    0.0000 C   0  0  0  0  0  0  0  0  0  0  0  0
    0.2500   -0.4000    0.0000 N   0  0  0  0  0  0  0  0  0  0  0  0
   -0.3750   -1.0042    0.0000 C   0  0  0  0  0  0  0  0  0  0  0  0
    3.5000    1.0333    0.0000 C   0  0  0  0  0  0  0  0  0  0  0  0
    0.6667    0.9833    0.0000 O   0  0  0  0  0  0  0  0  0  0  0  0
   -1.2208   -0.7292    0.0000 C   0  0  0  0  0  0  0  0  0  0  0  0
   -1.8458   -1.3167    0.0000 O   0  0  0  0  0  0  0  0  0  0  0  0
   -0.1833   -1.8292    0.0000 O   0  0  0  0  0  0  0  0  0  0  0  0
    3.4000    1.8958    0.0000 O   0  0  0  0  0  0  0  0  0  0  0  0
    4.2792    0.6583    0.0000 O   0  0  0  0  0  0  0  0  0  0  0  0
    3.9917   -0.7125    0.0000 C   0  0  0  0  0  0  0  0  0  0  0  0
    4.0292    0.2458    0.0000 C   0  0  0  0  0  0  0  0  0  0  0  0
   -2.6625   -1.0792    0.0000 C   0  0  0  0  0  0  0  0  0  0  0  0
   -1.4125    0.0833    0.0000 C   0  0  0  0  0  0  0  0  0  0  0  0
   -2.8833   -0.2167    0.0000 C   0  0  0  0  0  0  0  0  0  0  0  0
   -3.3125   -1.6667    0.0000 C   0  0  0  0  0  0  0  0  0  0  0  0
   -0.7833    0.6958    0.0000 C   0  0  0  0  0  0  0  0  0  0  0  0
   -3.7000    0.0083    0.0000 C   0  0  0  0  0  0  0  0  0  0  0  0
   -4.1333   -1.4375    0.0000 C   0  0  0  0  0  0  0  0  0  0  0  0
   -4.3458   -0.5917    0.0000 C   0  0  0  0  0  0  0  0  0  0  0  0
    1.8069   -1.6266    0.0000 H   0  0  0  0  0  0  0  0  0  0  0  0
  2  1  1  0
  3  1  1  0
  4  3  1  0
  5  1  1  0
  6  2  1  0
  7  5  1  0
  4  8  1  6
  9  8  1  0
  5 10  1  1
 11  3  2  0
 12  9  1  0
 13 12  1  0
 14  9  2  0
 15 10  2  0
 16 10  1  0
 17  7  1  0
 18  7  1  0
 19 13  1  0
 20 12  1  0
 21 19  1  0
 22 19  2  0
 23 20  1  0
 24 21  2  0
 25 22  1  0
 26 25  2  0
  6  7  1  0
  2  4  1  0
 24 26  1  0
  2 27  1  1
M  END
> <chembl_id>
CHEMBL2105612

> <chembl_pref_name>
PROPICILLIN
