
     RDKit          2D

 18 18  0  0  1  0  0  0  0  0999 V2000
   -2.2083    1.0250    0.0000 C   0  0  0  0  0  0  0  0  0  0  0  0
   -2.2083   -1.2917    0.0000 C   0  0  0  0  0  0  0  0  0  0  0  0
   -2.8833   -0.1375    0.0000 C   0  0  0  0  0  0  0  0  0  0  0  0
   -0.2083   -0.1375    0.0000 C   0  0  0  0  0  0  0  0  0  0  0  0
   -0.8958   -1.2917    0.0000 C   0  0  0  0  0  0  0  0  0  0  0  0
   -0.8958    1.0250    0.0000 C   0  0  0  0  0  0  0  0  0  0  0  0
    1.0792   -0.1375    0.0000 N   0  0  0  0  0  0  0  0  0  0  0  0
   -3.3333    1.4750    0.0000 O   0  0  0  0  0  0  0  0  0  0  0  0
   -2.8458   -2.4417    0.0000 O   0  0  0  0  0  0  0  0  0  0  0  0
   -4.1833   -0.1375    0.0000 O   0  0  0  0  0  0  0  0  0  0  0  0
    2.2917   -0.1375    0.0000 C   0  0  0  0  0  0  0  0  0  0  0  0
   -0.2625   -2.4417    0.0000 O   0  0  0  0  0  0  0  0  0  0  0  0
   -2.0250    2.1833    0.0000 C   0  0  0  0  0  0  0  0  0  0  0  0
   -0.6000    2.5333    0.0000 O   0  0  0  0  0  0  0  0  0  0  0  0
    4.1292    0.8958    0.0000 O   0  0  0  0  0  0  0  0  0  0  0  0
    4.2500   -1.2792    0.0000 O   0  0  0  0  0  0  0  0  0  0  0  0
    2.7792    0.8958    0.0000 C   0  0  0  0  0  0  0  0  0  0  0  0
    2.8292   -1.2792    0.0000 C   0  0  0  0  0  0  0  0  0  0  0  0
  2  3  1  0
  3  1  1  0
  4  6  1  0
  5  4  1  0
  6  1  1  0
  4  7  1  6
  1  8  1  6
  2  9  1  1
  3 10  1  6
 11  7  1  0
  5 12  1  6
  1 13  1  1
 14 13  1  0
 15 17  1  0
 16 18  1  0
 17 11  1  0
 18 11  1  0
  2  5  1  0
M  END
> <chembl_id>
CHEMBL476960

> <chembl_pref_name>
VOGLIBOSE
