
     RDKit          2D

 28 29  0  0  0  0  0  0  0  0999 V2000
   -0.3458  -21.7792    0.0000 C   0  0  0  0  0  0  0  0  0  0  0  0
   -0.3458  -22.4917    0.0000 C   0  0  0  0  0  0  0  0  0  0  0  0
    0.8792  -20.3542    0.0000 N   0  0  0  0  0  0  0  0  0  0  0  0
    1.8042  -19.6792    0.0000 N   0  0  0  0  0  0  0  0  0  0  0  0
    0.2667  -21.4167    0.0000 C   0  0  0  0  0  0  0  0  0  0  0  0
    1.1000  -19.6792    0.0000 C   0  0  0  0  0  0  0  0  0  0  0  0
   -0.9583  -22.8417    0.0000 C   0  0  0  0  0  0  0  0  0  0  0  0
   -0.9583  -21.4250    0.0000 C   0  0  0  0  0  0  0  0  0  0  0  0
    0.8792  -21.7750    0.0000 S   0  0  0  0  0  0  0  0  0  0  0  0
    0.2667  -20.7125    0.0000 C   0  0  0  0  0  0  0  0  0  0  0  0
    2.0250  -20.3542    0.0000 C   0  0  0  0  0  0  0  0  0  0  0  0
    1.4542  -20.7750    0.0000 C   0  0  0  0  0  0  0  0  0  0  0  0
   -1.5708  -22.4917    0.0000 C   0  0  0  0  0  0  0  0  0  0  0  0
    0.2750  -22.8417    0.0000 Cl  0  0  0  0  0  0  0  0  0  0  0  0
    1.4917  -21.4167    0.0000 C   0  0  0  0  0  0  0  0  0  0  0  0
   -1.5708  -21.7792    0.0000 C   0  0  0  0  0  0  0  0  0  0  0  0
    3.3375  -22.4750    0.0000 C   0  0  0  0  0  0  0  0  0  0  0  0
    2.1125  -21.7667    0.0000 C   0  0  0  0  0  0  0  0  0  0  0  0
   -2.1833  -22.8417    0.0000 Cl  0  0  0  0  0  0  0  0  0  0  0  0
    3.9542  -22.8250    0.0000 Cl  0  0  0  0  0  0  0  0  0  0  0  0
    2.7250  -22.8292    0.0000 C   0  0  0  0  0  0  0  0  0  0  0  0
    3.3292  -21.7625    0.0000 C   0  0  0  0  0  0  0  0  0  0  0  0
    2.1125  -22.4792    0.0000 C   0  0  0  0  0  0  0  0  0  0  0  0
    2.7167  -21.4125    0.0000 C   0  0  0  0  0  0  0  0  0  0  0  0
    5.3500  -21.3417    0.0000 N   0  0  0  0  0  0  0  0  0  0  0  0
    4.7292  -21.0000    0.0000 O   0  0  0  0  0  0  0  0  0  0  0  0
    5.9500  -20.9750    0.0000 O   0  0  0  0  0  0  0  0  0  0  0  0
    5.3667  -22.0542    0.0000 O   0  0  0  0  0  0  0  0  0  0  0  0
  2  1  1  0
  3 10  1  0
  4  6  2  0
  5  1  1  0
  6  3  1  0
  7  2  2  0
  8  1  2  0
  9  5  1  0
 10  5  1  0
 11 12  2  0
 12  3  1  0
 13 16  2  0
 14  2  1  0
 15  9  1  0
 16  8  1  0
 17 22  1  0
 18 15  1  0
 19 13  1  0
 20 17  1  0
 21 23  1  0
 22 24  2  0
 23 18  2  0
 24 18  1  0
 13  7  1  0
 11  4  1  0
 17 21  2  0
 26 25  1  0
 27 25  2  0
 28 25  1  0
M  CHG  2  25   1  26  -1
M  END
> <chembl_id>
CHEMBL1200348

> <chembl_pref_name>
SULCONAZOLE NITRATE
