
     RDKit          2D

 23 25  0  0  1  0  0  0  0  0999 V2000
    0.4667   -1.1667    0.0000 N   0  0  0  0  0  0  0  0  0  0  0  0
    1.0917   -1.5292    0.0000 C   0  0  0  0  0  0  0  0  0  0  0  0
    0.4667   -2.5875    0.0000 S   0  0  0  0  0  0  0  0  0  0  0  0
   -0.1583   -1.5292    0.0000 C   0  0  0  0  0  0  0  0  0  0  0  0
    1.0917   -2.2292    0.0000 C   0  0  0  0  0  0  0  0  0  0  0  0
   -0.1583   -2.2292    0.0000 C   0  0  0  0  0  0  0  0  0  0  0  0
    0.4667   -0.4625    0.0000 C   0  0  0  0  0  0  0  0  0  0  0  0
    1.7167   -1.1667    0.0000 C   0  0  0  0  0  0  0  0  0  0  0  0
    1.0792   -0.1250    0.0000 C   0  0  0  0  0  0  0  0  0  0  0  0
    1.7167   -2.5875    0.0000 C   0  0  0  0  0  0  0  0  0  0  0  0
    2.3417   -1.5292    0.0000 C   0  0  0  0  0  0  0  0  0  0  0  0
    1.6792   -0.5000    0.0000 C   0  0  0  0  0  0  0  0  0  0  0  0
    2.2917   -0.1583    0.0000 N   0  0  0  0  0  0  0  0  0  0  0  0
    2.3417   -2.2292    0.0000 C   0  0  0  0  0  0  0  0  0  0  0  0
   -0.7833   -1.1667    0.0000 C   0  0  0  0  0  0  0  0  0  0  0  0
    2.9500   -1.1792    0.0000 O   0  0  0  0  0  0  0  0  0  0  0  0
   -0.7833   -2.5875    0.0000 C   0  0  0  0  0  0  0  0  0  0  0  0
    1.0958    0.5792    0.0000 C   0  0  0  0  0  0  0  0  0  0  0  0
    2.8792   -0.5250    0.0000 C   0  0  0  0  0  0  0  0  0  0  0  0
    2.2917    0.5250    0.0000 C   0  0  0  0  0  0  0  0  0  0  0  0
    3.5417   -1.5292    0.0000 C   0  0  0  0  0  0  0  0  0  0  0  0
   -1.4083   -1.5292    0.0000 C   0  0  0  0  0  0  0  0  0  0  0  0
   -1.4083   -2.2292    0.0000 C   0  0  0  0  0  0  0  0  0  0  0  0
  2  1  1  0
  3  6  1  0
  4  1  1  0
  5  2  2  0
  6  4  2  0
  7  1  1  0
  8  2  1  0
  9  7  1  0
 10  5  1  0
 11  8  2  0
 12  9  1  0
 13 12  1  0
 14 11  1  0
 15  4  1  0
 16 11  1  0
 17  6  1  0
  9 18  1  6
 19 13  1  0
 20 13  1  0
 21 16  1  0
 22 15  2  0
 23 22  1  0
  3  5  1  0
 23 17  2  0
 14 10  2  0
M  END
> <chembl_id>
CHEMBL1764

> <chembl_pref_name>
LEVOMEPROMAZINE
