
     RDKit          2D

 27 30  0  0  0  0  0  0  0  0999 V2000
    0.3667   -1.4042    0.0000 N   0  0  0  0  0  0  0  0  0  0  0  0
    0.0083   -0.3125    0.0000 N   0  0  0  0  0  0  0  0  0  0  0  0
   -0.2083   -0.9875    0.0000 N   0  0  0  0  0  0  0  0  0  0  0  0
    0.7208   -0.3125    0.0000 N   0  0  0  0  0  0  0  0  0  0  0  0
    0.9375   -0.9875    0.0000 C   0  0  0  0  0  0  0  0  0  0  0  0
    6.4625    0.0750    0.0000 N   0  0  0  0  0  0  0  0  0  0  0  0
    5.8500   -0.2792    0.0000 C   0  0  0  0  0  0  0  0  0  0  0  0
    7.0750   -0.2792    0.0000 C   0  0  0  0  0  0  0  0  0  0  0  0
    5.8500   -0.9875    0.0000 C   0  0  0  0  0  0  0  0  0  0  0  0
    0.3667   -2.1125    0.0000 C   0  0  0  0  0  0  0  0  0  0  0  0
    5.2333   -1.3417    0.0000 C   0  0  0  0  0  0  0  0  0  0  0  0
    7.6917    0.0750    0.0000 O   0  0  0  0  0  0  0  0  0  0  0  0
    5.2333    0.0750    0.0000 C   0  0  0  0  0  0  0  0  0  0  0  0
    6.4625   -1.3417    0.0000 C   0  0  0  0  0  0  0  0  0  0  0  0
    7.0750   -0.9875    0.0000 C   0  0  0  0  0  0  0  0  0  0  0  0
    4.6208   -0.9875    0.0000 C   0  0  0  0  0  0  0  0  0  0  0  0
    4.6208   -0.2792    0.0000 C   0  0  0  0  0  0  0  0  0  0  0  0
    1.5500   -1.3417    0.0000 C   0  0  0  0  0  0  0  0  0  0  0  0
    4.0083   -1.3417    0.0000 O   0  0  0  0  0  0  0  0  0  0  0  0
    0.9792   -2.4667    0.0000 C   0  0  0  0  0  0  0  0  0  0  0  0
   -0.2500   -2.4667    0.0000 C   0  0  0  0  0  0  0  0  0  0  0  0
    3.3917   -0.9875    0.0000 C   0  0  0  0  0  0  0  0  0  0  0  0
    2.1667   -0.9875    0.0000 C   0  0  0  0  0  0  0  0  0  0  0  0
    2.7792   -1.3417    0.0000 C   0  0  0  0  0  0  0  0  0  0  0  0
    0.9792   -3.1750    0.0000 C   0  0  0  0  0  0  0  0  0  0  0  0
   -0.2500   -3.1750    0.0000 C   0  0  0  0  0  0  0  0  0  0  0  0
    0.3667   -3.5292    0.0000 C   0  0  0  0  0  0  0  0  0  0  0  0
  2  3  2  0
  3  1  1  0
  4  5  2  0
  5  1  1  0
  6  7  1  0
  7 13  1  0
  8  6  1  0
  9 11  1  0
 10  1  1  0
 11 16  2  0
 12  8  2  0
 13 17  2  0
 14  9  1  0
 15 14  1  0
 16 19  1  0
 17 16  1  0
 18  5  1  0
 19 22  1  0
 20 10  1  0
 21 10  1  0
 22 24  1  0
 23 18  1  0
 24 23  1  0
 25 20  1  0
 26 21  1  0
 27 25  1  0
  4  2  1  0
 27 26  1  0
  7  9  2  0
  8 15  1  0
M  END
> <chembl_id>
CHEMBL799

> <chembl_pref_name>
CILOSTAZOL
