
     RDKit          2D

 17 18  0  0  0  0  0  0  0  0999 V2000
    9.2417    0.2500    0.0000 S   0  0  0  0  0  0  0  0  0  0  0  0
   10.4667    0.2500    0.0000 C   0  0  0  0  0  0  0  0  0  0  0  0
    9.8542    0.6083    0.0000 N   0  0  0  0  0  0  0  0  0  0  0  0
   11.0375    0.6708    0.0000 S   0  0  0  0  0  0  0  0  0  0  0  0
   10.6792   -0.4167    0.0000 N   0  0  0  0  0  0  0  0  0  0  0  0
   11.3917   -0.4167    0.0000 N   0  0  0  0  0  0  0  0  0  0  0  0
   11.6125    0.2500    0.0000 C   0  0  0  0  0  0  0  0  0  0  0  0
    8.6292    0.6083    0.0000 C   0  0  0  0  0  0  0  0  0  0  0  0
    9.5875   -0.3667    0.0000 O   0  0  0  0  0  0  0  0  0  0  0  0
    8.8792   -0.3667    0.0000 O   0  0  0  0  0  0  0  0  0  0  0  0
    8.6292    1.3208    0.0000 C   0  0  0  0  0  0  0  0  0  0  0  0
    8.0167    0.2583    0.0000 C   0  0  0  0  0  0  0  0  0  0  0  0
    7.4042    1.3208    0.0000 C   0  0  0  0  0  0  0  0  0  0  0  0
    6.7917    1.6750    0.0000 N   0  0  0  0  0  0  0  0  0  0  0  0
    7.4042    0.6083    0.0000 C   0  0  0  0  0  0  0  0  0  0  0  0
    8.0167    1.6750    0.0000 C   0  0  0  0  0  0  0  0  0  0  0  0
   12.2250    0.6083    0.0000 C   0  0  0  0  0  0  0  0  0  0  0  0
  2  3  1  0
  3  1  1  0
  4  2  1  0
  5  2  2  0
  6  5  1  0
  7  4  1  0
  8  1  1  0
  9  1  2  0
 10  1  2  0
 11  8  1  0
 12  8  2  0
 13 15  2  0
 14 13  1  0
 15 12  1  0
 16 11  2  0
 17  7  1  0
 16 13  1  0
  7  6  2  0
M  END
> <chembl_id>
CHEMBL1191

> <chembl_pref_name>
SULFAMETHIZOLE
