
     RDKit          2D

 28 33  0  0  1  0  0  0  0  0999 V2000
    3.4917   -6.9250    0.0000 C   0  0  0  0  0  0  0  0  0  0  0  0
    3.8417   -6.3167    0.0000 C   0  0  0  0  0  0  0  0  0  0  0  0
    2.7875   -6.9292    0.0000 C   0  0  0  0  0  0  0  0  0  0  0  0
    3.8375   -7.5375    0.0000 C   0  0  0  0  0  0  0  0  0  0  0  0
    2.4375   -7.5375    0.0000 C   0  0  0  0  0  0  0  0  0  0  0  0
    3.1042   -7.8917    0.0000 O   0  0  0  0  0  0  0  0  0  0  0  0
    3.4917   -5.7042    0.0000 C   0  0  0  0  0  0  0  0  0  0  0  0
    3.8500   -5.0917    0.0000 N   0  0  0  0  0  0  0  0  0  0  0  0
    2.4375   -6.3167    0.0000 C   0  0  0  0  0  0  0  0  0  0  0  0
    2.7875   -5.7042    0.0000 C   0  0  0  0  0  0  0  0  0  0  0  0
    3.1292   -6.3042    0.0000 C   0  0  0  0  0  0  0  0  0  0  0  0
    4.5500   -6.3167    0.0000 C   0  0  0  0  0  0  0  0  0  0  0  0
    1.7292   -7.5375    0.0000 C   0  0  0  0  0  0  0  0  0  0  0  0
    3.1417   -5.0917    0.0000 C   0  0  0  0  0  0  0  0  0  0  0  0
    4.4625   -4.7417    0.0000 C   0  0  0  0  0  0  0  0  0  0  0  0
    4.5417   -7.5417    0.0000 C   0  0  0  0  0  0  0  0  0  0  0  0
    1.7292   -6.3167    0.0000 C   0  0  0  0  0  0  0  0  0  0  0  0
    4.1917   -5.7000    0.0000 O   0  0  0  0  0  0  0  0  0  0  0  0
    4.8917   -6.9292    0.0000 C   0  0  0  0  0  0  0  0  0  0  0  0
    1.3792   -6.9292    0.0000 C   0  0  0  0  0  0  0  0  0  0  0  0
    1.3750   -8.1500    0.0000 O   0  0  0  0  0  0  0  0  0  0  0  0
    4.8917   -8.1542    0.0000 O   0  0  0  0  0  0  0  0  0  0  0  0
    5.0750   -5.0917    0.0000 C   0  0  0  0  0  0  0  0  0  0  0  0
    5.7792   -5.8042    0.0000 C   0  0  0  0  0  0  0  0  0  0  0  0
    5.7792   -5.0917    0.0000 C   0  0  0  0  0  0  0  0  0  0  0  0
    5.0750   -5.8042    0.0000 C   0  0  0  0  0  0  0  0  0  0  0  0
    2.9942   -4.8368    0.0000 H   0  0  0  0  0  0  0  0  0  0  0  0
    4.0577   -8.5130    0.0000 H   0  0  0  0  0  0  0  0  0  0  0  0
  2  1  1  0
  3  1  1  0
  4  1  1  0
  5  3  1  0
  4  6  1  0
  7  2  1  0
  8 14  1  0
  9  3  2  0
 10  9  1  0
  1 11  1  1
 12  2  1  0
 13  5  2  0
 14 11  1  0
 15  8  1  0
 16  4  1  0
 17  9  1  0
  2 18  1  1
 19 16  1  0
 20 17  2  0
 21 13  1  0
 16 22  1  6
 23 15  1  0
 24 25  1  0
 25 23  1  0
 26 23  1  0
  6  5  1  0
  7  8  1  0
 12 19  1  0
 10  7  1  0
 13 20  1  0
 24 26  1  0
  7 27  1  6
  4 28  1  1
M  END
> <chembl_id>
CHEMBL895

> <chembl_pref_name>
NALBUPHINE
