
     RDKit          2D

 62 70  0  0  0  0  0  0  0  0999 V2000
    4.3473   -3.3521    0.0000 C   0  0  0  0  0  0  0  0  0  0  0  0
    7.2580   -3.4021    0.0000 C   0  0  0  0  0  0  0  0  0  0  0  0
    8.5821   -3.9183    0.0000 C   0  0  0  0  0  0  0  0  0  0  0  0
    3.6435   -2.9315    0.0000 C   0  0  0  0  0  0  0  0  0  0  0  0
    7.7701   -4.0433    0.0000 C   0  0  0  0  0  0  0  0  0  0  0  0
    8.3698   -2.5192    0.0000 C   0  0  0  0  0  0  0  0  0  0  0  0
    7.3204   -4.7387    0.0000 N   0  0  0  0  0  0  0  0  0  0  0  0
    7.5578   -2.6317    0.0000 C   0  0  0  0  0  0  0  0  0  0  0  0
    6.5292   -4.5180    0.0000 C   0  0  0  0  0  0  0  0  0  0  0  0
    8.8902   -3.1563    0.0000 C   0  0  0  0  0  0  0  0  0  0  0  0
    6.4834   -3.6935    0.0000 C   0  0  0  0  0  0  0  0  0  0  0  0
    5.0593   -3.7559    0.0000 C   0  0  0  0  0  0  0  0  0  0  0  0
    3.6477   -2.1154    0.0000 C   0  0  0  0  0  0  0  0  0  0  0  0
    2.8565   -3.1938    0.0000 N   0  0  0  0  0  0  0  0  0  0  0  0
    5.8214   -4.9677    0.0000 C   0  0  0  0  0  0  0  0  0  0  0  0
    5.7547   -3.3187    0.0000 C   0  0  0  0  0  0  0  0  0  0  0  0
    7.0414   -1.9946    0.0000 N   0  0  0  0  0  0  0  0  0  0  0  0
    3.7559   -3.9183    0.0000 C   0  0  0  0  0  0  0  0  0  0  0  0
    2.8607   -1.8530    0.0000 C   0  0  0  0  0  0  0  0  0  0  0  0
    8.7195   -4.7387    0.0000 C   0  0  0  0  0  0  0  0  0  0  0  0
    5.0926   -4.5804    0.0000 C   0  0  0  0  0  0  0  0  0  0  0  0
    2.3735   -2.5276    0.0000 C   0  0  0  0  0  0  0  0  0  0  0  0
    4.3473   -0.8703    0.0000 N   0  0  0  0  0  0  0  0  0  0  0  0
    6.4293   -3.1563    0.0000 C   0  0  0  0  0  0  0  0  0  0  0  0
    5.0593   -2.9399    0.0000 C   0  0  0  0  0  0  0  0  0  0  0  0
    9.7022   -3.0314    0.0000 O   0  0  0  0  0  0  0  0  0  0  0  0
    8.6696   -1.7531    0.0000 C   0  0  0  0  0  0  0  0  0  0  0  0
    2.9232   -0.8786    0.0000 C   0  0  0  0  0  0  0  0  0  0  0  0
    5.7714   -0.8703    0.0000 C   0  0  0  0  0  0  0  0  0  0  0  0
    5.0593   -2.1070    0.0000 C   0  0  0  0  0  0  0  0  0  0  0  0
   10.2186   -3.6685    0.0000 C   0  0  0  0  0  0  0  0  0  0  0  0
    6.2836   -2.3443    0.0000 C   0  0  0  0  0  0  0  0  0  0  0  0
    9.3941   -3.7809    0.0000 O   0  0  0  0  0  0  0  0  0  0  0  0
    8.1574   -1.1035    0.0000 C   0  0  0  0  0  0  0  0  0  0  0  0
    5.0593   -0.4580    0.0000 C   0  0  0  0  0  0  0  0  0  0  0  0
    4.3473   -1.7031    0.0000 C   0  0  0  0  0  0  0  0  0  0  0  0
    8.0907   -5.2634    0.0000 O   0  0  0  0  0  0  0  0  0  0  0  0
    3.9558   -4.7178    0.0000 O   0  0  0  0  0  0  0  0  0  0  0  0
    3.6352   -0.4664    0.0000 C   0  0  0  0  0  0  0  0  0  0  0  0
    9.9188   -4.4389    0.0000 O   0  0  0  0  0  0  0  0  0  0  0  0
    5.7714   -1.7031    0.0000 C   0  0  0  0  0  0  0  0  0  0  0  0
    9.1651   -2.2944    0.0000 C   0  0  0  0  0  0  0  0  0  0  0  0
    7.6160   -5.5132    0.0000 C   0  0  0  0  0  0  0  0  0  0  0  0
    7.3454   -1.2200    0.0000 C   0  0  0  0  0  0  0  0  0  0  0  0
    2.9606   -3.6935    0.0000 O   0  0  0  0  0  0  0  0  0  0  0  0
    9.4941   -5.0261    0.0000 O   0  0  0  0  0  0  0  0  0  0  0  0
    4.3930   -5.0177    0.0000 O   0  0  0  0  0  0  0  0  0  0  0  0
    5.7672   -0.0458    0.0000 O   0  0  0  0  0  0  0  0  0  0  0  0
    2.5234   -1.0951    0.0000 C   0  0  0  0  0  0  0  0  0  0  0  0
    1.5490   -2.4402    0.0000 C   0  0  0  0  0  0  0  0  0  0  0  0
    6.4917   -1.2909    0.0000 C   0  0  0  0  0  0  0  0  0  0  0  0
   11.0306   -3.5436    0.0000 C   0  0  0  0  0  0  0  0  0  0  0  0
    9.6315   -5.8421    0.0000 C   0  0  0  0  0  0  0  0  0  0  0  0
    2.3693   -4.2681    0.0000 C   0  0  0  0  0  0  0  0  0  0  0  0
    4.4222   -5.8421    0.0000 C   0  0  0  0  0  0  0  0  0  0  0  0
    9.3691   -1.4949    0.0000 C   0  0  0  0  0  0  0  0  0  0  0  0
    7.2080   -0.8786    0.0000 C   0  0  0  0  0  0  0  0  0  0  0  0
    1.7072   -1.0077    0.0000 C   0  0  0  0  0  0  0  0  0  0  0  0
    1.2117   -1.6822    0.0000 C   0  0  0  0  0  0  0  0  0  0  0  0
    8.2656   -4.5679    0.0000 H   0  0  0  0  0  0  0  0  0  0  0  0
    5.7714   -2.5192    0.0000 H   0  0  0  0  0  0  0  0  0  0  0  0
    8.1407   -3.2188    0.0000 H   0  0  0  0  0  0  0  0  0  0  0  0
  2 11  1  0
  3  5  1  0
  4  1  1  0
  5  2  1  0
  6  8  1  0
  7  9  1  0
  8  2  1  0
  9 15  2  0
 10  6  1  0
 11 16  2  0
 12  1  1  0
 13  4  2  0
 14  4  1  0
 15 21  1  0
 16 12  1  0
 17  8  1  0
  1 18  1  1
 19 13  1  0
 20  3  1  0
 21 12  2  0
 22 14  1  0
 23 36  1  0
  2 24  1  1
 25  1  1  0
 10 26  1  1
 27  6  1  0
 28 13  1  0
 29 41  1  0
 30 25  1  0
 31 26  1  0
 32 24  1  0
  3 33  1  1
 34 44  1  0
 35 29  1  0
 36 30  1  0
 37 20  2  0
 38 18  2  0
 39 28  1  0
 40 31  2  0
 41 30  1  0
  6 42  1  6
 43  7  1  0
 44 17  1  0
 45 18  1  0
 46 20  1  0
 47 21  1  0
 48 29  1  0
 49 19  2  0
 50 22  2  0
 29 51  1  6
 52 31  1  0
 53 46  1  0
 54 45  1  0
 55 47  1  0
 56 42  1  0
 57 51  1  0
 58 49  1  0
 59 50  1  0
  5 60  1  1
 30 61  1  6
  8 62  1  6
 11  9  1  0
 19 22  1  0
 23 39  1  0
 23 35  1  0
  7  5  1  0
 58 59  2  0
 17 32  1  0
  3 10  1  0
 27 34  2  0
M  END
> <chembl_id>
CHEMBL159

> <chembl_pref_name>
VINBLASTINE
