
     RDKit          2D

 29 32  0  0  1  0  0  0  0  0999 V2000
    5.3542   -4.6042    0.0000 C   0  0  0  0  0  0  0  0  0  0  0  0
    5.3542   -5.3000    0.0000 C   0  0  0  0  0  0  0  0  0  0  0  0
    4.7292   -5.6625    0.0000 C   0  0  0  0  0  0  0  0  0  0  0  0
    4.1292   -5.3000    0.0000 C   0  0  0  0  0  0  0  0  0  0  0  0
    3.5250   -5.6625    0.0000 C   0  0  0  0  0  0  0  0  0  0  0  0
    6.0250   -4.3917    0.0000 C   0  0  0  0  0  0  0  0  0  0  0  0
    3.5250   -6.3750    0.0000 C   0  0  0  0  0  0  0  0  0  0  0  0
    4.7292   -4.2417    0.0000 C   0  0  0  0  0  0  0  0  0  0  0  0
    4.1292   -4.6042    0.0000 C   0  0  0  0  0  0  0  0  0  0  0  0
    6.0250   -5.5167    0.0000 C   0  0  0  0  0  0  0  0  0  0  0  0
    4.7292   -6.3750    0.0000 C   0  0  0  0  0  0  0  0  0  0  0  0
    6.0292   -3.6542    0.0000 O   0  0  0  0  0  0  0  0  0  0  0  0
    2.9042   -5.3000    0.0000 C   0  0  0  0  0  0  0  0  0  0  0  0
    6.6500   -3.3292    0.0000 C   0  0  0  0  0  0  0  0  0  0  0  0
    4.1292   -6.7292    0.0000 C   0  0  0  0  0  0  0  0  0  0  0  0
    6.4375   -4.9417    0.0000 C   0  0  0  0  0  0  0  0  0  0  0  0
    2.9042   -6.7292    0.0000 C   0  0  0  0  0  0  0  0  0  0  0  0
    6.6750   -2.6167    0.0000 O   0  0  0  0  0  0  0  0  0  0  0  0
    2.2875   -6.3750    0.0000 C   0  0  0  0  0  0  0  0  0  0  0  0
    2.2875   -5.6625    0.0000 C   0  0  0  0  0  0  0  0  0  0  0  0
    5.3542   -3.8917    0.0000 C   0  0  0  0  0  0  0  0  0  0  0  0
    1.6542   -6.7417    0.0000 O   0  0  0  0  0  0  0  0  0  0  0  0
    7.2542   -3.7000    0.0000 C   0  0  0  0  0  0  0  0  0  0  0  0
    7.8750   -3.3667    0.0000 C   0  0  0  0  0  0  0  0  0  0  0  0
    8.4625   -3.7542    0.0000 C   0  0  0  0  0  0  0  0  0  0  0  0
    9.0667   -3.4417    0.0000 C   0  0  0  0  0  0  0  0  0  0  0  0
    5.3542   -6.0042    0.0000 H   0  0  0  0  0  0  0  0  0  0  0  0
    4.7292   -4.9417    0.0000 H   0  0  0  0  0  0  0  0  0  0  0  0
    4.1292   -6.0167    0.0000 H   0  0  0  0  0  0  0  0  0  0  0  0
  2  1  1  0
  3  2  1  0
  4  9  1  0
  5  4  1  0
  6  1  1  0
  7  5  2  0
  8  1  1  0
  9  8  1  0
 10  2  1  0
 11  3  1  0
  6 12  1  1
 13  5  1  0
 14 12  1  0
 15 11  1  0
 16  6  1  0
 17  7  1  0
 18 14  2  0
 19 20  1  0
 20 13  2  0
  1 21  1  1
 22 19  1  0
 23 14  1  0
 24 23  1  0
 25 24  1  0
 26 25  1  0
  2 27  1  6
  3 28  1  1
  4 29  1  6
 16 10  1  0
  4  3  1  0
  7 15  1  0
 19 17  2  0
M  END
> <chembl_id>
CHEMBL1511

> <chembl_pref_name>
ESTRADIOL VALERATE
