
     RDKit          2D

 30 33  0  0  0  0  0  0  0  0999 V2000
    7.6591    0.5958    0.0000 C   0  0  0  0  0  0  0  0  0  0  0  0
    7.6591   -0.2292    0.0000 C   0  0  0  0  0  0  0  0  0  0  0  0
    6.9447   -0.6417    0.0000 C   0  0  0  0  0  0  0  0  0  0  0  0
    6.2302   -0.2292    0.0000 N   0  0  0  0  0  0  0  0  0  0  0  0
    6.2302    0.5958    0.0000 C   0  0  0  0  0  0  0  0  0  0  0  0
    6.9447    1.0083    0.0000 C   0  0  0  0  0  0  0  0  0  0  0  0
    6.9447   -1.4667    0.0000 N   0  0  0  0  0  0  0  0  0  0  0  0
    6.2302   -1.8792    0.0000 C   0  0  0  0  0  0  0  0  0  0  0  0
    6.2302   -2.7042    0.0000 C   0  0  0  0  0  0  0  0  0  0  0  0
    6.9447   -3.1167    0.0000 C   0  0  0  0  0  0  0  0  0  0  0  0
    7.6591   -2.7042    0.0000 C   0  0  0  0  0  0  0  0  0  0  0  0
    7.6591   -1.8792    0.0000 C   0  0  0  0  0  0  0  0  0  0  0  0
    5.5157   -1.4667    0.0000 C   0  0  0  0  0  0  0  0  0  0  0  0
    4.8013   -1.8792    0.0000 C   0  0  0  0  0  0  0  0  0  0  0  0
    4.8013   -2.7042    0.0000 C   0  0  0  0  0  0  0  0  0  0  0  0
    5.5157   -3.1167    0.0000 C   0  0  0  0  0  0  0  0  0  0  0  0
    6.9447    1.8333    0.0000 F   0  0  0  0  0  0  0  0  0  0  0  0
    5.5157    1.0083    0.0000 N   0  0  0  0  0  0  0  0  0  0  0  0
    8.3736   -0.6417    0.0000 F   0  0  0  0  0  0  0  0  0  0  0  0
    6.9447   -3.9417    0.0000 O   0  0  0  0  0  0  0  0  0  0  0  0
    5.5157   -0.6417    0.0000 Cl  0  0  0  0  0  0  0  0  0  0  0  0
    4.0868   -1.4667    0.0000 N   0  0  0  0  0  0  0  0  0  0  0  0
    4.0868   -3.1167    0.0000 F   0  0  0  0  0  0  0  0  0  0  0  0
    3.8733   -0.6698    0.0000 C   0  0  0  0  0  0  0  0  0  0  0  0
    3.0764   -0.8833    0.0000 C   0  0  0  0  0  0  0  0  0  0  0  0
    3.2899   -1.6802    0.0000 C   0  0  0  0  0  0  0  0  0  0  0  0
    2.3619   -0.4708    0.0000 O   0  0  0  0  0  0  0  0  0  0  0  0
    8.3736   -3.1167    0.0000 C   0  0  0  0  0  0  0  0  0  0  0  0
    8.3736   -3.9417    0.0000 O   0  0  0  0  0  0  0  0  0  0  0  0
    9.0880   -2.7041    0.0000 O   0  0  0  0  0  0  0  0  0  0  0  0
  3  4  2  0
  4  5  1  0
  5  6  2  0
  6  1  1  0
  3  7  1  0
  7  8  1  0
  8  9  2  0
  9 10  1  0
 10 11  1  0
 11 12  2  0
 12  7  1  0
  8 13  1  0
 13 14  2  0
 14 15  1  0
 15 16  2  0
 16  9  1  0
  6 17  1  0
  5 18  1  0
  2 19  1  0
 10 20  2  0
 13 21  1  0
 14 22  1  0
 15 23  1  0
 22 24  1  0
 24 25  1  0
 25 26  1  0
 26 22  1  0
 25 27  1  0
 11 28  1  0
  1  2  2  0
 28 29  1  0
  2  3  1  0
 28 30  2  0
M  END
> <chembl_id>
CHEMBL2105637

> <chembl_pref_name>
DELAFLOXACIN
