
     RDKit          2D

 33 35  0  0  1  0  0  0  0  0999 V2000
    2.7708   -5.8958    0.0000 N   0  0  0  0  0  0  0  0  0  0  0  0
    2.7667   -5.1875    0.0000 C   0  0  0  0  0  0  0  0  0  0  0  0
    2.0625   -5.9000    0.0000 C   0  0  0  0  0  0  0  0  0  0  0  0
    2.0625   -5.1875    0.0000 C   0  0  0  0  0  0  0  0  0  0  0  0
    3.4458   -6.1125    0.0000 C   0  0  0  0  0  0  0  0  0  0  0  0
    3.4417   -4.9667    0.0000 S   0  0  0  0  0  0  0  0  0  0  0  0
    3.8625   -5.5375    0.0000 C   0  0  0  0  0  0  0  0  0  0  0  0
    3.4417   -6.8167    0.0000 C   0  0  0  0  0  0  0  0  0  0  0  0
    1.4417   -4.8292    0.0000 N   0  0  0  0  0  0  0  0  0  0  0  0
    0.8250   -5.1875    0.0000 C   0  0  0  0  0  0  0  0  0  0  0  0
    4.0500   -7.1792    0.0000 O   0  0  0  0  0  0  0  0  0  0  0  0
    5.2750   -7.1917    0.0000 O   0  0  0  0  0  0  0  0  0  0  0  0
    5.8917   -6.8458    0.0000 C   0  0  0  0  0  0  0  0  0  0  0  0
    0.2125   -4.8333    0.0000 C   0  0  0  0  0  0  0  0  0  0  0  0
    4.6667   -6.8333    0.0000 C   0  0  0  0  0  0  0  0  0  0  0  0
    1.5583   -6.4000    0.0000 O   0  0  0  0  0  0  0  0  0  0  0  0
    2.8208   -7.1667    0.0000 O   0  0  0  0  0  0  0  0  0  0  0  0
    0.8250   -5.8958    0.0000 O   0  0  0  0  0  0  0  0  0  0  0  0
    5.9000   -6.1375    0.0000 O   0  0  0  0  0  0  0  0  0  0  0  0
   -0.4000   -5.1875    0.0000 C   0  0  0  0  0  0  0  0  0  0  0  0
    0.2125   -4.1250    0.0000 N   0  0  0  0  0  0  0  0  0  0  0  0
    6.5042   -7.2083    0.0000 O   0  0  0  0  0  0  0  0  0  0  0  0
    4.4750   -5.8917    0.0000 C   0  0  0  0  0  0  0  0  0  0  0  0
    4.4750   -5.1792    0.0000 C   0  0  0  0  0  0  0  0  0  0  0  0
    4.6750   -6.1250    0.0000 C   0  0  0  0  0  0  0  0  0  0  0  0
   -0.4000   -5.8875    0.0000 C   0  0  0  0  0  0  0  0  0  0  0  0
   -1.0125   -4.8292    0.0000 C   0  0  0  0  0  0  0  0  0  0  0  0
    7.1208   -6.8583    0.0000 C   0  0  0  0  0  0  0  0  0  0  0  0
    7.7292   -7.2208    0.0000 C   0  0  0  0  0  0  0  0  0  0  0  0
   -1.6250   -5.1833    0.0000 C   0  0  0  0  0  0  0  0  0  0  0  0
   -1.0083   -6.2458    0.0000 C   0  0  0  0  0  0  0  0  0  0  0  0
   -1.6250   -5.8917    0.0000 C   0  0  0  0  0  0  0  0  0  0  0  0
    2.7625   -4.4792    0.0000 H   0  0  0  0  0  0  0  0  0  0  0  0
  2  1  1  0
  3  1  1  0
  4  3  1  0
  5  1  1  0
  6  2  1  0
  7  5  1  0
  5  8  1  6
  4  9  1  1
 10  9  1  0
 11  8  1  0
 12 15  1  0
 13 12  1  0
 14 10  1  0
 15 11  1  0
 16  3  2  0
 17  8  2  0
 18 10  2  0
 19 13  2  0
 20 14  1  0
 14 21  1  1
 22 13  1  0
 23  7  1  0
 24  7  1  0
 25 15  1  0
 26 20  1  0
 27 20  2  0
 28 22  1  0
 29 28  1  0
 30 27  1  0
 31 26  2  0
 32 31  1  0
  2 33  1  6
  6  7  1  0
  4  2  1  0
 32 30  2  0
M  END
> <chembl_id>
CHEMBL1583

> <chembl_pref_name>
BACAMPICILLIN
