
     RDKit          2D

 19 18  0  0  0  0  0  0  0  0999 V2000
    2.8625    0.0958    0.0000 C   0  0  0  0  0  0  0  0  0  0  0  0
    3.4375   -0.6292    0.0000 P   0  0  0  0  0  0  0  0  0  0  0  0
    3.6417    0.7083    0.0000 P   0  0  0  0  0  0  0  0  0  0  0  0
    2.0042   -0.5000    0.0000 C   0  0  0  0  0  0  0  0  0  0  0  0
    2.6792   -1.3167    0.0000 O   0  0  0  0  0  0  0  0  0  0  0  0
    3.1167    1.4833    0.0000 O   0  0  0  0  0  0  0  0  0  0  0  0
    2.1667    0.9833    0.0000 O   0  0  0  0  0  0  0  0  0  0  0  0
    4.2375   -0.4292    0.0000 O   0  0  0  0  0  0  0  0  0  0  0  0
    4.1917    1.3250    0.0000 O   0  0  0  0  0  0  0  0  0  0  0  0
    4.2667    0.2333    0.0000 O   0  0  0  0  0  0  0  0  0  0  0  0
    4.0042   -1.4042    0.0000 O   0  0  0  0  0  0  0  0  0  0  0  0
    1.1000    0.0125    0.0000 C   0  0  0  0  0  0  0  0  0  0  0  0
    0.1875   -0.5000    0.0000 N   0  0  0  0  0  0  0  0  0  0  0  0
   -0.7208    0.0125    0.0000 C   0  0  0  0  0  0  0  0  0  0  0  0
    0.1875   -1.5667    0.0000 C   0  0  0  0  0  0  0  0  0  0  0  0
   -1.6250   -0.5000    0.0000 C   0  0  0  0  0  0  0  0  0  0  0  0
   -3.4458   -0.5000    0.0000 C   0  0  0  0  0  0  0  0  0  0  0  0
   -2.5333    0.0125    0.0000 C   0  0  0  0  0  0  0  0  0  0  0  0
   -4.3458    0.0125    0.0000 C   0  0  0  0  0  0  0  0  0  0  0  0
  2  1  1  0
  3  1  1  0
  4  1  1  0
  5  2  2  0
  6  3  2  0
  7  1  1  0
  8  2  1  0
  9  3  1  0
 10  3  1  0
 11  2  1  0
 12  4  1  0
 13 12  1  0
 14 13  1  0
 15 13  1  0
 16 14  1  0
 17 18  1  0
 18 16  1  0
 19 17  1  0
M  END
> <chembl_id>
CHEMBL997

> <chembl_pref_name>
IBANDRONIC ACID
