
     RDKit          2D

 31 34  0  0  0  0  0  0  0  0999 V2000
    4.3386   -8.0536    0.0000 C   0  0  0  0  0  0  0  0  0  0  0  0
    4.3386   -7.2286    0.0000 C   0  0  0  0  0  0  0  0  0  0  0  0
    5.0530   -6.8161    0.0000 N   0  0  0  0  0  0  0  0  0  0  0  0
    5.0530   -8.4661    0.0000 O   0  0  0  0  0  0  0  0  0  0  0  0
    5.7675   -7.2286    0.0000 C   0  0  0  0  0  0  0  0  0  0  0  0
    5.7675   -8.0536    0.0000 C   0  0  0  0  0  0  0  0  0  0  0  0
    5.0530   -5.9911    0.0000 C   0  0  0  0  0  0  0  0  0  0  0  0
    5.7675   -4.7536    0.0000 C   0  0  0  0  0  0  0  0  0  0  0  0
    5.0530   -4.3411    0.0000 C   0  0  0  0  0  0  0  0  0  0  0  0
    5.0530   -3.5161    0.0000 N   0  0  0  0  0  0  0  0  0  0  0  0
    4.3386   -4.7536    0.0000 C   0  0  0  0  0  0  0  0  0  0  0  0
    5.7675   -5.5786    0.0000 C   0  0  0  0  0  0  0  0  0  0  0  0
    4.3386   -5.5786    0.0000 C   0  0  0  0  0  0  0  0  0  0  0  0
    7.1964   -3.1036    0.0000 C   0  0  0  0  0  0  0  0  0  0  0  0
    6.4820   -3.5161    0.0000 N   0  0  0  0  0  0  0  0  0  0  0  0
    7.1964   -2.2786    0.0000 C   0  0  0  0  0  0  0  0  0  0  0  0
    6.4820   -1.8661    0.0000 C   0  0  0  0  0  0  0  0  0  0  0  0
    5.7675   -2.2786    0.0000 N   0  0  0  0  0  0  0  0  0  0  0  0
    6.4820   -1.0411    0.0000 C   0  0  0  0  0  0  0  0  0  0  0  0
    7.1964    0.1964    0.0000 C   0  0  0  0  0  0  0  0  0  0  0  0
    6.4820    0.6089    0.0000 C   0  0  0  0  0  0  0  0  0  0  0  0
    7.1964    1.8464    0.0000 O   0  0  0  0  0  0  0  0  0  0  0  0
    6.4820    1.4339    0.0000 C   0  0  0  0  0  0  0  0  0  0  0  0
    5.7675    1.8464    0.0000 N   0  0  0  0  0  0  0  0  0  0  0  0
    5.7675    0.1964    0.0000 C   0  0  0  0  0  0  0  0  0  0  0  0
    5.7675   -0.6286    0.0000 C   0  0  0  0  0  0  0  0  0  0  0  0
    7.1964   -0.6286    0.0000 C   0  0  0  0  0  0  0  0  0  0  0  0
    5.7675   -3.1036    0.0000 C   0  0  0  0  0  0  0  0  0  0  0  0
    5.7675    2.6714    0.0000 C   0  0  0  0  0  0  0  0  0  0  0  0
    4.3386    3.4964    0.0000 N   0  0  0  0  0  0  0  0  0  0  0  0
    5.0530    3.0839    0.0000 C   0  0  0  0  0  0  0  0  0  0  0  0
  1  2  1  0
  1  4  1  0
  2  3  1  0
  3  7  1  0
  5  3  1  0
  5  6  1  0
  6  4  1  0
  7 13  2  0
  8  9  1  0
  9 10  1  0
 11  9  2  0
 12  8  2  0
 12  7  1  0
 13 11  1  0
 14 15  1  0
 14 16  2  0
 15 28  2  0
 17 16  1  0
 17 19  1  0
 18 17  2  0
 19 26  2  0
 20 21  1  0
 21 23  1  0
 22 23  2  0
 23 24  1  0
 25 21  2  0
 26 25  1  0
 27 20  2  0
 27 19  1  0
 28 10  1  0
 28 18  1  0
 29 31  1  0
 29 24  1  0
 31 30  3  0
M  END
> <chembl_id>
CHEMBL1078178

> <chembl_pref_name>
MOMELOTINIB
