
     RDKit          2D

 36 39  0  0  1  0  0  0  0  0999 V2000
   -3.1583   -0.6167    0.0000 C   0  0  0  0  0  0  0  0  0  0  0  0
   -0.5083    0.9125    0.0000 C   0  0  0  0  0  0  0  0  0  0  0  0
   -3.1583   -1.6292    0.0000 C   0  0  0  0  0  0  0  0  0  0  0  0
   -2.2625   -0.0917    0.0000 C   0  0  0  0  0  0  0  0  0  0  0  0
   -0.5083   -0.0917    0.0000 C   0  0  0  0  0  0  0  0  0  0  0  0
   -1.3958   -0.6167    0.0000 C   0  0  0  0  0  0  0  0  0  0  0  0
    0.4667    1.2333    0.0000 C   0  0  0  0  0  0  0  0  0  0  0  0
   -4.0458   -2.1500    0.0000 C   0  0  0  0  0  0  0  0  0  0  0  0
   -1.3958    1.4333    0.0000 C   0  0  0  0  0  0  0  0  0  0  0  0
   -2.2625    0.9125    0.0000 C   0  0  0  0  0  0  0  0  0  0  0  0
   -4.0458   -0.0917    0.0000 C   0  0  0  0  0  0  0  0  0  0  0  0
   -1.3958   -1.6292    0.0000 C   0  0  0  0  0  0  0  0  0  0  0  0
    0.4667   -0.4167    0.0000 C   0  0  0  0  0  0  0  0  0  0  0  0
    0.7792    2.1958    0.0000 O   0  0  0  0  0  0  0  0  0  0  0  0
    1.7542    2.3958    0.0000 C   0  0  0  0  0  0  0  0  0  0  0  0
   -2.2625   -2.1500    0.0000 C   0  0  0  0  0  0  0  0  0  0  0  0
   -4.9208   -1.6292    0.0000 C   0  0  0  0  0  0  0  0  0  0  0  0
    1.0792    0.4208    0.0000 C   0  0  0  0  0  0  0  0  0  0  0  0
    2.0792    3.3458    0.0000 O   0  0  0  0  0  0  0  0  0  0  0  0
   -5.8083   -2.1500    0.0000 O   0  0  0  0  0  0  0  0  0  0  0  0
   -4.9208   -0.6167    0.0000 C   0  0  0  0  0  0  0  0  0  0  0  0
   -3.1583    0.4208    0.0000 C   0  0  0  0  0  0  0  0  0  0  0  0
   -0.3958    1.9333    0.0000 C   0  0  0  0  0  0  0  0  0  0  0  0
    2.4417    1.6250    0.0000 C   0  0  0  0  0  0  0  0  0  0  0  0
    2.1542    0.6500    0.0000 C   0  0  0  0  0  0  0  0  0  0  0  0
    5.5417    0.7083    0.0000 C   0  0  0  0  0  0  0  0  0  0  0  0
    5.2542   -0.2667    0.0000 C   0  0  0  0  0  0  0  0  0  0  0  0
    3.2042   -1.7542    0.0000 C   0  0  0  0  0  0  0  0  0  0  0  0
    4.1542   -1.4500    0.0000 C   0  0  0  0  0  0  0  0  0  0  0  0
    4.3500   -0.5375    0.0000 C   0  0  0  0  0  0  0  0  0  0  0  0
    2.8042   -0.0875    0.0000 C   0  0  0  0  0  0  0  0  0  0  0  0
    2.4792   -1.0292    0.0000 C   0  0  0  0  0  0  0  0  0  0  0  0
    6.4667    0.9708    0.0000 C   0  0  0  0  0  0  0  0  0  0  0  0
   -1.3958    0.4208    0.0000 H   0  0  0  0  0  0  0  0  0  0  0  0
   -2.2625   -1.1167    0.0000 H   0  0  0  0  0  0  0  0  0  0  0  0
   -0.3958   -1.1167    0.0000 H   0  0  0  0  0  0  0  0  0  0  0  0
  2  9  1  0
  3  1  1  0
  4  1  1  0
  5  6  1  0
  6  4  1  0
  7  2  1  0
  8  3  2  0
  9 10  1  0
 10  4  1  0
 11  1  1  0
 12  6  1  0
 13  5  1  0
  7 14  1  1
 15 14  1  0
 16  3  1  0
 17 21  1  0
 18 13  1  0
 19 15  2  0
 20 17  2  0
 21 11  1  0
  1 22  1  1
  2 23  1  1
 24 15  1  0
 25 24  1  0
 26 27  1  0
 27 30  1  0
 28 32  1  0
 29 28  1  0
 30 29  1  0
 31 25  1  0
 32 31  1  0
 33 26  1  0
  6 34  1  1
  4 35  1  6
  5 36  1  6
 16 12  1  0
  8 17  1  0
  5  2  1  0
  7 18  1  0
M  END
> <chembl_id>
CHEMBL2107067

> <chembl_pref_name>
TESTOSTERONE UNDECANOATE
