
     RDKit          2D

128140  0  0  1  0  0  0  0  0999 V2000
   -3.1458   -1.5625    0.0000 C   0  0  0  0  0  0  0  0  0  0  0  0
    2.8917   -1.5625    0.0000 C   0  0  0  0  0  0  0  0  0  0  0  0
   -2.6458   -1.8417    0.0000 N   0  0  0  0  0  0  0  0  0  0  0  0
    0.3750    2.4583    0.0000 C   0  0  0  0  0  0  0  0  0  0  0  0
    0.3792    1.8708    0.0000 C   0  0  0  0  0  0  0  0  0  0  0  0
   -4.0958   -2.7792    0.0000 N   0  0  0  0  0  0  0  0  0  0  0  0
   -4.0958   -2.0042    0.0000 C   0  0  0  0  0  0  0  0  0  0  0  0
   -1.1333   -1.5625    0.0000 N   0  0  0  0  0  0  0  0  0  0  0  0
    0.3792   -1.8500    0.0000 N   0  0  0  0  0  0  0  0  0  0  0  0
    2.3792   -1.8500    0.0000 C   0  0  0  0  0  0  0  0  0  0  0  0
   -3.0833   -4.2375    0.0000 C   0  0  0  0  0  0  0  0  0  0  0  0
   -2.1458   -1.5625    0.0000 C   0  0  0  0  0  0  0  0  0  0  0  0
   -3.5875   -3.9542    0.0000 C   0  0  0  0  0  0  0  0  0  0  0  0
   -0.6333   -1.8500    0.0000 C   0  0  0  0  0  0  0  0  0  0  0  0
   -2.1458   -3.7875    0.0000 C   0  0  0  0  0  0  0  0  0  0  0  0
   -0.1333    0.5833    0.0000 C   0  0  0  0  0  0  0  0  0  0  0  0
   -3.5875   -3.0667    0.0000 C   0  0  0  0  0  0  0  0  0  0  0  0
    0.8792    2.7458    0.0000 C   0  0  0  0  0  0  0  0  0  0  0  0
    1.8875   -1.5625    0.0000 N   0  0  0  0  0  0  0  0  0  0  0  0
   -0.1333   -1.5625    0.0000 C   0  0  0  0  0  0  0  0  0  0  0  0
    3.3917   -1.8542    0.0000 N   0  0  0  0  0  0  0  0  0  0  0  0
   -0.6333    0.2958    0.0000 C   0  0  0  0  0  0  0  0  0  0  0  0
    0.3750    0.3083    0.0000 C   0  0  0  0  0  0  0  0  0  0  0  0
    0.8792   -1.5625    0.0000 C   0  0  0  0  0  0  0  0  0  0  0  0
   -1.6458   -1.8500    0.0000 C   0  0  0  0  0  0  0  0  0  0  0  0
    0.8875    1.5833    0.0000 O   0  0  0  0  0  0  0  0  0  0  0  0
   -3.1458   -0.5792    0.0000 C   0  0  0  0  0  0  0  0  0  0  0  0
    0.3792    4.1542    0.0000 C   0  0  0  0  0  0  0  0  0  0  0  0
   -0.1458    1.5708    0.0000 O   0  0  0  0  0  0  0  0  0  0  0  0
   -4.1833    1.1625    0.0000 C   0  0  0  0  0  0  0  0  0  0  0  0
   -0.1333   -0.5667    0.0000 C   0  0  0  0  0  0  0  0  0  0  0  0
    1.3792    2.4583    0.0000 C   0  0  0  0  0  0  0  0  0  0  0  0
   -1.1458    0.5833    0.0000 O   0  0  0  0  0  0  0  0  0  0  0  0
    0.8667    0.5958    0.0000 O   0  0  0  0  0  0  0  0  0  0  0  0
    1.3792   -1.8500    0.0000 C   0  0  0  0  0  0  0  0  0  0  0  0
   -3.0833   -4.8167    0.0000 C   0  0  0  0  0  0  0  0  0  0  0  0
   -0.1333    3.3083    0.0000 C   0  0  0  0  0  0  0  0  0  0  0  0
    3.8917   -1.5625    0.0000 C   0  0  0  0  0  0  0  0  0  0  0  0
   -3.6750    0.3083    0.0000 C   0  0  0  0  0  0  0  0  0  0  0  0
    1.3875    1.8833    0.0000 C   0  0  0  0  0  0  0  0  0  0  0  0
    2.9167   -0.5542    0.0000 C   0  0  0  0  0  0  0  0  0  0  0  0
    0.3750    3.5958    0.0000 C   0  0  0  0  0  0  0  0  0  0  0  0
   -4.1833    0.6000    0.0000 C   0  0  0  0  0  0  0  0  0  0  0  0
   -2.1458   -3.2167    0.0000 C   0  0  0  0  0  0  0  0  0  0  0  0
   -0.6375    3.5958    0.0000 O   0  0  0  0  0  0  0  0  0  0  0  0
   -3.1708    0.5958    0.0000 O   0  0  0  0  0  0  0  0  0  0  0  0
   -1.6208   -2.9292    0.0000 C   0  0  0  0  0  0  0  0  0  0  0  0
   -0.1333    4.4500    0.0000 C   0  0  0  0  0  0  0  0  0  0  0  0
   -3.6708    1.4500    0.0000 C   0  0  0  0  0  0  0  0  0  0  0  0
   -2.6458   -0.2917    0.0000 C   0  0  0  0  0  0  0  0  0  0  0  0
    1.3792   -2.4167    0.0000 C   0  0  0  0  0  0  0  0  0  0  0  0
    2.3792   -0.2542    0.0000 C   0  0  0  0  0  0  0  0  0  0  0  0
   -0.1333    2.7333    0.0000 O   0  0  0  0  0  0  0  0  0  0  0  0
   -3.0625   -2.7792    0.0000 C   0  0  0  0  0  0  0  0  0  0  0  0
    0.3792   -0.2792    0.0000 C   0  0  0  0  0  0  0  0  0  0  0  0
   -0.6375   -0.2792    0.0000 C   0  0  0  0  0  0  0  0  0  0  0  0
   -1.6458    0.2875    0.0000 C   0  0  0  0  0  0  0  0  0  0  0  0
    1.3792    0.3125    0.0000 C   0  0  0  0  0  0  0  0  0  0  0  0
   -0.6333    4.1667    0.0000 C   0  0  0  0  0  0  0  0  0  0  0  0
   -3.1708    1.1625    0.0000 C   0  0  0  0  0  0  0  0  0  0  0  0
   -3.6750   -0.2667    0.0000 O   0  0  0  0  0  0  0  0  0  0  0  0
   -3.5958   -5.1000    0.0000 C   0  0  0  0  0  0  0  0  0  0  0  0
    0.9500    4.2417    0.0000 N   0  0  0  0  0  0  0  0  0  0  0  0
   -2.1458    0.5750    0.0000 C   0  0  0  0  0  0  0  0  0  0  0  0
    1.8750    0.6083    0.0000 C   0  0  0  0  0  0  0  0  0  0  0  0
    0.8792   -2.7042    0.0000 C   0  0  0  0  0  0  0  0  0  0  0  0
   -2.6458    0.2833    0.0000 C   0  0  0  0  0  0  0  0  0  0  0  0
    2.3792    0.3208    0.0000 C   0  0  0  0  0  0  0  0  0  0  0  0
   -1.6500   -4.0792    0.0000 C   0  0  0  0  0  0  0  0  0  0  0  0
   -4.0958   -4.2375    0.0000 C   0  0  0  0  0  0  0  0  0  0  0  0
    4.4000   -1.8417    0.0000 C   0  0  0  0  0  0  0  0  0  0  0  0
   -4.5958   -1.7167    0.0000 O   0  0  0  0  0  0  0  0  0  0  0  0
    2.3792   -2.4167    0.0000 O   0  0  0  0  0  0  0  0  0  0  0  0
   -0.6333   -2.4167    0.0000 O   0  0  0  0  0  0  0  0  0  0  0  0
   -2.1458   -0.9875    0.0000 O   0  0  0  0  0  0  0  0  0  0  0  0
   -4.0958   -4.8125    0.0000 C   0  0  0  0  0  0  0  0  0  0  0  0
    0.8792   -0.9875    0.0000 O   0  0  0  0  0  0  0  0  0  0  0  0
    3.0292    4.0417    0.0000 C   0  0  0  0  0  0  0  0  0  0  0  0
    3.6125    4.1250    0.0000 C   0  0  0  0  0  0  0  0  0  0  0  0
    3.8875   -0.9875    0.0000 O   0  0  0  0  0  0  0  0  0  0  0  0
   -2.1458   -0.5792    0.0000 C   0  0  0  0  0  0  0  0  0  0  0  0
   -1.1458   -3.2292    0.0000 C   0  0  0  0  0  0  0  0  0  0  0  0
    1.8792   -0.5500    0.0000 C   0  0  0  0  0  0  0  0  0  0  0  0
   -3.0500   -2.1792    0.0000 O   0  0  0  0  0  0  0  0  0  0  0  0
    1.3792   -0.2667    0.0000 C   0  0  0  0  0  0  0  0  0  0  0  0
   -1.6458   -0.2875    0.0000 C   0  0  0  0  0  0  0  0  0  0  0  0
    0.8792   -3.2792    0.0000 O   0  0  0  0  0  0  0  0  0  0  0  0
    4.9000   -1.5542    0.0000 C   0  0  0  0  0  0  0  0  0  0  0  0
   -4.7708    1.2125    0.0000 N   0  0  0  0  0  0  0  0  0  0  0  0
   -1.1458   -3.8042    0.0000 C   0  0  0  0  0  0  0  0  0  0  0  0
    0.8792    3.3208    0.0000 O   0  0  0  0  0  0  0  0  0  0  0  0
    2.8167    3.5208    0.0000 C   0  0  0  0  0  0  0  0  0  0  0  0
    2.6667    4.4917    0.0000 C   0  0  0  0  0  0  0  0  0  0  0  0
    3.9792    3.6833    0.0000 C   0  0  0  0  0  0  0  0  0  0  0  0
    3.8292    4.6542    0.0000 C   0  0  0  0  0  0  0  0  0  0  0  0
    1.8792    2.7458    0.0000 O   0  0  0  0  0  0  0  0  0  0  0  0
   -2.5833   -5.1000    0.0000 O   0  0  0  0  0  0  0  0  0  0  0  0
    4.4042   -2.4167    0.0000 N   0  0  0  0  0  0  0  0  0  0  0  0
    0.3792   -2.4167    0.0000 N   0  0  0  0  0  0  0  0  0  0  0  0
    1.3125    3.8000    0.0000 C   0  0  0  0  0  0  0  0  0  0  0  0
   -3.6625    2.0250    0.0000 O   0  0  0  0  0  0  0  0  0  0  0  0
   -0.1250    5.0250    0.0000 O   0  0  0  0  0  0  0  0  0  0  0  0
    1.8667    1.1833    0.0000 Cl  0  0  0  0  0  0  0  0  0  0  0  0
   -2.1458    1.1500    0.0000 Cl  0  0  0  0  0  0  0  0  0  0  0  0
    3.3917   -0.2542    0.0000 O   0  0  0  0  0  0  0  0  0  0  0  0
   -2.5458   -3.0875    0.0000 O   0  0  0  0  0  0  0  0  0  0  0  0
    4.7667    4.2917    0.0000 C   0  0  0  0  0  0  0  0  0  0  0  0
    1.8917    3.8833    0.0000 C   0  0  0  0  0  0  0  0  0  0  0  0
    4.4000    4.7417    0.0000 C   0  0  0  0  0  0  0  0  0  0  0  0
    4.5542    3.7708    0.0000 C   0  0  0  0  0  0  0  0  0  0  0  0
    2.1000    4.4042    0.0000 C   0  0  0  0  0  0  0  0  0  0  0  0
    2.2417    3.4333    0.0000 C   0  0  0  0  0  0  0  0  0  0  0  0
   -1.6583   -4.6542    0.0000 O   0  0  0  0  0  0  0  0  0  0  0  0
    1.8917    1.5958    0.0000 C   0  0  0  0  0  0  0  0  0  0  0  0
    5.3667    4.3792    0.0000 Cl  0  0  0  0  0  0  0  0  0  0  0  0
   -4.6083   -5.0917    0.0000 O   0  0  0  0  0  0  0  0  0  0  0  0
    0.6667    4.6542    0.0000 C   0  0  0  0  0  0  0  0  0  0  0  0
   -4.5500    1.6125    0.0000 C   0  0  0  0  0  0  0  0  0  0  0  0
    2.3917    1.8833    0.0000 O   0  0  0  0  0  0  0  0  0  0  0  0
   -1.1458    4.4542    0.0000 C   0  0  0  0  0  0  0  0  0  0  0  0
   -2.6708    1.4458    0.0000 C   0  0  0  0  0  0  0  0  0  0  0  0
    5.4000   -1.8417    0.0000 C   0  0  0  0  0  0  0  0  0  0  0  0
    3.9042   -2.7125    0.0000 C   0  0  0  0  0  0  0  0  0  0  0  0
    5.4042   -2.4167    0.0000 C   0  0  0  0  0  0  0  0  0  0  0  0
    5.9042   -1.5542    0.0000 C   0  0  0  0  0  0  0  0  0  0  0  0
   -0.7771   -2.3453    0.0000 H   0  0  0  0  0  0  0  0  0  0  0  0
   -0.1280   -2.5625    0.0000 H   0  0  0  0  0  0  0  0  0  0  0  0
   -3.9889   -1.0247    0.0000 H   0  0  0  0  0  0  0  0  0  0  0  0
  2 10  1  0
  1  3  1  0
  4  5  1  0
  5 29  1  1
  6  7  1  0
  7  1  1  0
  8 25  1  0
 20  9  1  0
 10 19  1  0
 11 13  2  0
 12  3  1  0
 13 17  1  0
 14  8  1  0
 15 11  1  0
 16 22  1  0
 17  6  1  0
 18  4  1  0
 19 35  1  0
 20 14  1  0
  2 21  1  1
 22 33  1  0
 23 16  2  0
 24  9  1  0
 25 12  1  0
 26  5  1  0
 27  1  1  0
 28 42  1  0
 29 16  1  0
 30 43  1  0
 31 20  1  0
 32 40  1  0
 33 57  1  0
 34 23  1  0
 35 24  1  0
 36 11  1  0
 37 53  1  6
 38 21  1  0
 39 61  1  1
 40 26  1  0
 41  2  1  0
 42 37  1  0
 43 39  1  0
 44 47  2  0
 45 37  1  0
 46 39  1  0
 47 25  1  0
 48 59  1  0
 49 60  1  0
 50 27  1  0
 35 51  1  1
 52 83  2  0
  4 53  1  6
 17 54  1  6
 55 31  2  0
 56 22  2  0
 57 86  1  0
 58 34  1  0
 59 45  1  0
 60 46  1  0
 27 61  1  6
 62 76  1  0
 28 63  1  0
 64 67  1  0
 65 58  1  0
 66 51  1  0
 67 50  2  0
 68 65  2  0
 69 15  2  0
 70 13  1  0
 71 38  1  0
 72  7  2  0
 73 10  2  0
 74 14  2  0
 75 12  2  0
 76 70  2  0
 77 24  2  0
 78 92  2  0
 79 78  1  0
 80 38  2  0
 81 50  1  0
 82 47  1  0
 83 85  1  0
 84 54  2  0
 85 58  2  0
 86 81  2  0
 87 66  2  0
 71 88  1  1
 30 89  1  6
 90 82  2  0
 18 91  1  1
 92112  1  0
 93111  2  0
 94 79  2  0
 95 79  1  0
 32 96  1  6
 97 36  1  0
 71 98  1  0
 99 66  1  0
100 63  1  0
 49101  1  1
 48102  1  6
103 65  1  0
104 64  1  0
 41105  1  1
106 54  1  0
107109  1  0
108100  1  0
109 95  2  0
110 94  1  0
111108  1  0
112108  2  0
113 69  1  0
 40114  1  1
115107  1  0
116 76  1  0
 28117  1  6
118 30  1  0
119114  1  0
 59120  1  1
 60121  1  6
122 88  1  0
123 98  1  0
124122  1  0
125122  1  0
 57 64  2  0
 44 15  1  0
 30 49  1  0
 90 69  1  0
 36 62  2  0
 31 56  1  0
 55 23  1  0
 18 32  1  0
 68 52  1  0
 41 52  1  0
 28 48  1  0
 93 78  1  0
110107  2  0
 25126  1  1
 20127  1  6
  1128  1  1
M  END
> <chembl_id>
CHEMBL1688530

> <chembl_pref_name>
ORITAVANCIN
