
     RDKit          2D

 22 24  0  0  0  0  0  0  0  0999 V2000
    5.5750   -5.4625    0.0000 N   0  0  0  0  0  0  0  0  0  0  0  0
    5.5750   -4.0417    0.0000 S   0  0  0  0  0  0  0  0  0  0  0  0
    6.1875   -5.1042    0.0000 C   0  0  0  0  0  0  0  0  0  0  0  0
    4.9667   -5.1042    0.0000 C   0  0  0  0  0  0  0  0  0  0  0  0
    5.5750   -6.1625    0.0000 C   0  0  0  0  0  0  0  0  0  0  0  0
    6.1875   -4.3917    0.0000 C   0  0  0  0  0  0  0  0  0  0  0  0
    4.9667   -4.3917    0.0000 C   0  0  0  0  0  0  0  0  0  0  0  0
    4.9542   -6.5167    0.0000 C   0  0  0  0  0  0  0  0  0  0  0  0
    4.9542   -7.2250    0.0000 N   0  0  0  0  0  0  0  0  0  0  0  0
    4.3542   -5.4625    0.0000 C   0  0  0  0  0  0  0  0  0  0  0  0
    6.8042   -5.4542    0.0000 C   0  0  0  0  0  0  0  0  0  0  0  0
    4.3500   -4.0375    0.0000 C   0  0  0  0  0  0  0  0  0  0  0  0
    6.8042   -4.0417    0.0000 C   0  0  0  0  0  0  0  0  0  0  0  0
    4.3417   -7.5792    0.0000 C   0  0  0  0  0  0  0  0  0  0  0  0
    5.5750   -7.5792    0.0000 C   0  0  0  0  0  0  0  0  0  0  0  0
    4.3542   -6.1667    0.0000 C   0  0  0  0  0  0  0  0  0  0  0  0
    4.3417   -8.2917    0.0000 C   0  0  0  0  0  0  0  0  0  0  0  0
    5.5750   -8.2875    0.0000 C   0  0  0  0  0  0  0  0  0  0  0  0
    7.4167   -5.1042    0.0000 C   0  0  0  0  0  0  0  0  0  0  0  0
    3.7375   -5.1000    0.0000 C   0  0  0  0  0  0  0  0  0  0  0  0
    7.4167   -4.3917    0.0000 C   0  0  0  0  0  0  0  0  0  0  0  0
    3.7375   -4.3917    0.0000 C   0  0  0  0  0  0  0  0  0  0  0  0
  2  7  1  0
  3  1  1  0
  4  1  1  0
  5  1  1  0
  6  3  2  0
  7  4  1  0
  8  5  1  0
  9  8  1  0
 10  4  2  0
 11  3  1  0
 12  7  2  0
 13  6  1  0
 14  9  1  0
 15  9  1  0
 16  8  1  0
 17 14  1  0
 18 15  1  0
 19 11  2  0
 20 10  1  0
 21 19  1  0
 22 20  2  0
  2  6  1  0
 22 12  1  0
 21 13  2  0
M  END
> <chembl_id>
CHEMBL1206

> <chembl_pref_name>
ETHOPROPAZINE
