
     RDKit          2D

 31 33  0  0  0  0  0  0  0  0999 V2000
   -1.3208    1.5833    0.0000 C   0  0  0  0  0  0  0  0  0  0  0  0
   -2.2083    1.0625    0.0000 C   0  0  0  0  0  0  0  0  0  0  0  0
   -1.3375    2.5958    0.0000 C   0  0  0  0  0  0  0  0  0  0  0  0
   -2.2083    0.0333    0.0000 O   0  0  0  0  0  0  0  0  0  0  0  0
   -3.1000    1.5833    0.0000 O   0  0  0  0  0  0  0  0  0  0  0  0
   -2.2125    3.1125    0.0000 O   0  0  0  0  0  0  0  0  0  0  0  0
   -0.4458    1.0625    0.0000 C   0  0  0  0  0  0  0  0  0  0  0  0
   -0.4458    3.1083    0.0000 C   0  0  0  0  0  0  0  0  0  0  0  0
    0.4292    1.5625    0.0000 C   0  0  0  0  0  0  0  0  0  0  0  0
    0.4375    2.5958    0.0000 C   0  0  0  0  0  0  0  0  0  0  0  0
    1.9375   -2.4000    0.0000 C   0  0  0  0  0  0  0  0  0  0  0  0
    1.9292   -0.7375    0.0000 N   0  0  0  0  0  0  0  0  0  0  0  0
    2.5375   -1.5667    0.0000 C   0  0  0  0  0  0  0  0  0  0  0  0
    0.9542   -2.0792    0.0000 C   0  0  0  0  0  0  0  0  0  0  0  0
    0.9542   -1.0542    0.0000 C   0  0  0  0  0  0  0  0  0  0  0  0
    3.5125   -1.8792    0.0000 N   0  0  0  0  0  0  0  0  0  0  0  0
    2.5417   -3.2292    0.0000 C   0  0  0  0  0  0  0  0  0  0  0  0
   -2.5708   -2.0542    0.0000 C   0  0  0  0  0  0  0  0  0  0  0  0
    0.0750   -0.5417    0.0000 C   0  0  0  0  0  0  0  0  0  0  0  0
    0.0792   -2.5917    0.0000 C   0  0  0  0  0  0  0  0  0  0  0  0
    3.5167   -2.9125    0.0000 C   0  0  0  0  0  0  0  0  0  0  0  0
   -1.6875   -2.5792    0.0000 O   0  0  0  0  0  0  0  0  0  0  0  0
   -0.7958   -2.0792    0.0000 C   0  0  0  0  0  0  0  0  0  0  0  0
   -2.5625   -1.0375    0.0000 O   0  0  0  0  0  0  0  0  0  0  0  0
   -3.4708   -2.5625    0.0000 N   0  0  0  0  0  0  0  0  0  0  0  0
    2.2542    0.2333    0.0000 C   0  0  0  0  0  0  0  0  0  0  0  0
    1.3292   -3.2292    0.0000 C   0  0  0  0  0  0  0  0  0  0  0  0
   -0.8000   -1.0500    0.0000 C   0  0  0  0  0  0  0  0  0  0  0  0
    4.3417   -1.2792    0.0000 C   0  0  0  0  0  0  0  0  0  0  0  0
   -4.3458   -2.0375    0.0000 C   0  0  0  0  0  0  0  0  0  0  0  0
    3.1375   -0.7375    0.0000 H   0  0  0  0  0  0  0  0  0  0  0  0
  2  1  1  0
  3  1  1  0
  4  2  2  0
  5  2  1  0
  6  3  1  0
  7  1  2  0
  8  3  2  0
  9  7  1  0
 10  9  2  0
  8 10  1  0
 12 13  1  0
 13 11  1  0
 14 11  1  0
 15 14  2  0
 16 13  1  0
 17 11  1  0
 18 22  1  0
 19 15  1  0
 20 14  1  0
 21 17  1  0
 22 23  1  0
 23 20  2  0
 24 18  2  0
 25 18  1  0
 26 12  1  0
 11 27  1  6
 28 19  2  0
 29 16  1  0
 30 25  1  0
 13 31  1  6
 16 21  1  0
 15 12  1  0
 23 28  1  0
M  END
> <chembl_id>
CHEMBL338975

> <chembl_pref_name>
PHYSOSTIGMINE SALICYLATE
