
     RDKit          2D

 13 13  0  0  0  0  0  0  0  0999 V2000
    6.7042  -10.3542    0.0000 C   0  0  0  0  0  0  0  0  0  0  0  0
    5.9917  -10.7667    0.0000 N   0  0  0  0  0  0  0  0  0  0  0  0
    5.2750  -10.3542    0.0000 N   0  0  0  0  0  0  0  0  0  0  0  0
    6.7042   -9.5250    0.0000 O   0  0  0  0  0  0  0  0  0  0  0  0
    8.8542  -11.5917    0.0000 N   0  0  0  0  0  0  0  0  0  0  0  0
    7.4250  -10.7667    0.0000 C   0  0  0  0  0  0  0  0  0  0  0  0
    4.5542  -10.7667    0.0000 C   0  0  0  0  0  0  0  0  0  0  0  0
    8.1375  -12.0042    0.0000 C   0  0  0  0  0  0  0  0  0  0  0  0
    8.8542  -10.7667    0.0000 C   0  0  0  0  0  0  0  0  0  0  0  0
    7.4250  -11.5917    0.0000 C   0  0  0  0  0  0  0  0  0  0  0  0
    8.1375  -10.3542    0.0000 C   0  0  0  0  0  0  0  0  0  0  0  0
    4.5542  -11.5917    0.0000 C   0  0  0  0  0  0  0  0  0  0  0  0
    3.8417  -10.3542    0.0000 C   0  0  0  0  0  0  0  0  0  0  0  0
  2  1  1  0
  3  2  1  0
  4  1  2  0
  5  9  1  0
  6  1  1  0
  7  3  1  0
  8 10  1  0
  9 11  2  0
 10  6  2  0
 11  6  1  0
 12  7  1  0
 13  7  1  0
  8  5  2  0
M  END
> <chembl_id>
CHEMBL92401

> <chembl_pref_name>
IPRONIAZID
