
     RDKit          2D

 35 38  0  0  1  0  0  0  0  0999 V2000
    4.6375   -4.4750    0.0000 C   0  0  0  0  0  0  0  0  0  0  0  0
    5.2792   -4.2542    0.0000 C   0  0  0  0  0  0  0  0  0  0  0  0
    2.7792   -5.5125    0.0000 C   0  0  0  0  0  0  0  0  0  0  0  0
    4.0375   -5.5167    0.0000 C   0  0  0  0  0  0  0  0  0  0  0  0
    4.6375   -5.1625    0.0000 C   0  0  0  0  0  0  0  0  0  0  0  0
    3.4167   -5.1792    0.0000 C   0  0  0  0  0  0  0  0  0  0  0  0
    2.7792   -6.2250    0.0000 C   0  0  0  0  0  0  0  0  0  0  0  0
    4.0375   -4.1167    0.0000 C   0  0  0  0  0  0  0  0  0  0  0  0
    3.4167   -4.4750    0.0000 C   0  0  0  0  0  0  0  0  0  0  0  0
    2.1667   -5.1417    0.0000 C   0  0  0  0  0  0  0  0  0  0  0  0
    5.2792   -3.4542    0.0000 C   0  0  0  0  0  0  0  0  0  0  0  0
    2.1542   -6.5667    0.0000 C   0  0  0  0  0  0  0  0  0  0  0  0
    5.9375   -3.9542    0.0000 O   0  0  0  0  0  0  0  0  0  0  0  0
    6.5417   -4.3167    0.0000 C   0  0  0  0  0  0  0  0  0  0  0  0
    5.6750   -4.8292    0.0000 C   0  0  0  0  0  0  0  0  0  0  0  0
    5.3042   -5.3667    0.0000 C   0  0  0  0  0  0  0  0  0  0  0  0
    4.0375   -6.2292    0.0000 C   0  0  0  0  0  0  0  0  0  0  0  0
    1.5292   -5.5125    0.0000 C   0  0  0  0  0  0  0  0  0  0  0  0
    1.5292   -6.1875    0.0000 C   0  0  0  0  0  0  0  0  0  0  0  0
    3.4042   -6.5917    0.0000 C   0  0  0  0  0  0  0  0  0  0  0  0
    5.8917   -3.0917    0.0000 O   0  0  0  0  0  0  0  0  0  0  0  0
    6.5417   -5.0167    0.0000 O   0  0  0  0  0  0  0  0  0  0  0  0
    4.6792   -3.0917    0.0000 O   0  0  0  0  0  0  0  0  0  0  0  0
    0.9125   -6.5167    0.0000 O   0  0  0  0  0  0  0  0  0  0  0  0
    4.6375   -3.7667    0.0000 C   0  0  0  0  0  0  0  0  0  0  0  0
    6.5042   -3.4542    0.0000 C   0  0  0  0  0  0  0  0  0  0  0  0
    2.8000   -4.1167    0.0000 O   0  0  0  0  0  0  0  0  0  0  0  0
    7.1417   -3.9542    0.0000 O   0  0  0  0  0  0  0  0  0  0  0  0
    2.7792   -4.8375    0.0000 C   0  0  0  0  0  0  0  0  0  0  0  0
    7.0792   -3.0917    0.0000 Cl  0  0  0  0  0  0  0  0  0  0  0  0
    7.7875   -4.3167    0.0000 C   0  0  0  0  0  0  0  0  0  0  0  0
    8.3875   -3.9542    0.0000 C   0  0  0  0  0  0  0  0  0  0  0  0
    4.6375   -5.9375    0.0000 H   0  0  0  0  0  0  0  0  0  0  0  0
    4.0375   -4.7542    0.0000 H   0  0  0  0  0  0  0  0  0  0  0  0
    3.4292   -5.8875    0.0000 H   0  0  0  0  0  0  0  0  0  0  0  0
  2  1  1  0
  3  6  1  0
  4  5  1  0
  5  1  1  0
  6  9  1  0
  7  3  1  0
  8  1  1  0
  9  8  1  0
 10  3  1  0
 11  2  1  0
 12  7  2  0
  2 13  1  6
 14 13  1  0
 15  2  1  0
 16  5  1  0
 17  4  1  0
 18 10  2  0
 19 18  1  0
 20 17  1  0
 21 11  1  0
 22 14  2  0
 23 11  2  0
 24 19  2  0
  1 25  1  1
 26 21  1  0
  9 27  1  1
 28 14  1  0
  3 29  1  1
 30 26  1  0
 31 28  1  0
 32 31  1  0
  5 33  1  6
  4 34  1  1
  6 35  1  6
 16 15  1  0
  6  4  1  0
  7 20  1  0
 19 12  1  0
M  END
> <chembl_id>
CHEMBL1200865

> <chembl_pref_name>
LOTEPREDNOL ETABONATE
