
     RDKit          2D

 31 31  0  0  0  0  0  0  0  0999 V2000
   -0.3830   -2.4750    0.0000 O   0  0  0  0  0  0  0  0  0  0  0  0
   -0.4878    0.4153    0.0000 C   0  0  0  0  0  0  0  0  0  0  0  0
   -0.4878    1.2316    0.0000 N   0  0  0  0  0  0  0  0  0  0  0  0
   -1.9077    1.2316    0.0000 C   0  0  0  0  0  0  0  0  0  0  0  0
   -1.1977    1.6518    0.0000 C   0  0  0  0  0  0  0  0  0  0  0  0
   -1.1977    0.0096    0.0000 N   0  0  0  0  0  0  0  0  0  0  0  0
   -1.9077    0.4153    0.0000 C   0  0  0  0  0  0  0  0  0  0  0  0
    0.2222   -0.0145    0.0000 N   0  0  0  0  0  0  0  0  0  0  0  0
    2.3376   -1.2944    0.0000 C   0  0  0  0  0  0  0  0  0  0  0  0
    1.6518   -0.8452    0.0000 N   0  0  0  0  0  0  0  0  0  0  0  0
   -2.6322    1.6518    0.0000 C   0  0  0  0  0  0  0  0  0  0  0  0
   -2.6322    0.0096    0.0000 C   0  0  0  0  0  0  0  0  0  0  0  0
   -3.3422    1.2316    0.0000 C   0  0  0  0  0  0  0  0  0  0  0  0
   -3.3422    0.4153    0.0000 C   0  0  0  0  0  0  0  0  0  0  0  0
    3.1007   -0.8887    0.0000 C   0  0  0  0  0  0  0  0  0  0  0  0
    0.2222   -0.8259    0.0000 C   0  0  0  0  0  0  0  0  0  0  0  0
    0.9322    0.4008    0.0000 C   0  0  0  0  0  0  0  0  0  0  0  0
    0.9322   -1.2654    0.0000 C   0  0  0  0  0  0  0  0  0  0  0  0
    1.6518   -0.0145    0.0000 C   0  0  0  0  0  0  0  0  0  0  0  0
    2.3376   -2.0913    0.0000 O   0  0  0  0  0  0  0  0  0  0  0  0
    3.7817   -1.3814    0.0000 O   0  0  0  0  0  0  0  0  0  0  0  0
   -1.1977    2.4728    0.0000 N   0  0  0  0  0  0  0  0  0  0  0  0
   -4.0521    1.6373    0.0000 O   0  0  0  0  0  0  0  0  0  0  0  0
   -4.0521   -0.0049    0.0000 O   0  0  0  0  0  0  0  0  0  0  0  0
    4.4386   -0.8887    0.0000 C   0  0  0  0  0  0  0  0  0  0  0  0
    3.3809   -0.1063    0.0000 C   0  0  0  0  0  0  0  0  0  0  0  0
   -4.7621    1.2316    0.0000 C   0  0  0  0  0  0  0  0  0  0  0  0
   -4.7621    0.4008    0.0000 C   0  0  0  0  0  0  0  0  0  0  0  0
    4.1488   -0.1063    0.0000 C   0  0  0  0  0  0  0  0  0  0  0  0
   -2.5597   -2.5115    0.0000 Cl  0  0  0  0  0  0  0  0  0  0  0  0
   -1.5020   -2.5115    0.0000 O   0  0  0  0  0  0  0  0  0  0  0  0
  3  2  1  0
  4  7  2  0
  5  3  2  0
  6  2  2  0
  7  6  1  0
  8  2  1  0
  9 10  1  0
 10 19  1  0
 11  4  1  0
 12  7  1  0
 13 14  1  0
 14 12  2  0
 15  9  1  0
 16  8  1  0
 17  8  1  0
 18 16  1  0
 19 17  1  0
 20  9  2  0
 21 15  1  0
 22  5  1  0
 23 13  1  0
 24 14  1  0
 25 21  1  0
 26 15  1  0
 27 23  1  0
 28 24  1  0
 29 26  1  0
  5  4  1  0
 18 10  1  0
 13 11  2  0
 29 25  1  0
M  END
> <chembl_id>
CHEMBL3989562

> <chembl_pref_name>
TERAZOSIN HYDROCHLORIDE
