
     RDKit          2D

 32 35  0  0  0  0  0  0  0  0999 V2000
    3.2292    0.4208    0.0000 N   0  0  0  0  0  0  0  0  0  0  0  0
    2.6125    0.7750    0.0000 C   0  0  0  0  0  0  0  0  0  0  0  0
    3.8042    0.8208    0.0000 C   0  0  0  0  0  0  0  0  0  0  0  0
    4.4875    0.6208    0.0000 C   0  0  0  0  0  0  0  0  0  0  0  0
   -0.4458   -0.2917    0.0000 C   0  0  0  0  0  0  0  0  0  0  0  0
    2.0000    0.4208    0.0000 C   0  0  0  0  0  0  0  0  0  0  0  0
    0.1667   -0.6500    0.0000 N   0  0  0  0  0  0  0  0  0  0  0  0
    2.0042   -0.2917    0.0000 C   0  0  0  0  0  0  0  0  0  0  0  0
   -1.0583   -0.6542    0.0000 C   0  0  0  0  0  0  0  0  0  0  0  0
    3.6375    1.5083    0.0000 C   0  0  0  0  0  0  0  0  0  0  0  0
    1.3792    0.7708    0.0000 C   0  0  0  0  0  0  0  0  0  0  0  0
    5.0042    1.1083    0.0000 C   0  0  0  0  0  0  0  0  0  0  0  0
    2.6042    1.4833    0.0000 O   0  0  0  0  0  0  0  0  0  0  0  0
    0.7792   -0.2917    0.0000 C   0  0  0  0  0  0  0  0  0  0  0  0
    1.3917   -0.6417    0.0000 C   0  0  0  0  0  0  0  0  0  0  0  0
   -0.4500    0.4125    0.0000 O   0  0  0  0  0  0  0  0  0  0  0  0
    4.7542   -0.0417    0.0000 C   0  0  0  0  0  0  0  0  0  0  0  0
   -1.6708   -0.3000    0.0000 C   0  0  0  0  0  0  0  0  0  0  0  0
    3.1792   -0.2875    0.0000 C   0  0  0  0  0  0  0  0  0  0  0  0
    4.8375    1.7958    0.0000 C   0  0  0  0  0  0  0  0  0  0  0  0
    0.7667    0.4125    0.0000 C   0  0  0  0  0  0  0  0  0  0  0  0
    4.1500    2.0000    0.0000 C   0  0  0  0  0  0  0  0  0  0  0  0
    5.3500    2.2875    0.0000 Cl  0  0  0  0  0  0  0  0  0  0  0  0
    5.4542   -0.0875    0.0000 O   0  0  0  0  0  0  0  0  0  0  0  0
    2.6167   -0.6417    0.0000 C   0  0  0  0  0  0  0  0  0  0  0  0
    3.7000   -0.7667    0.0000 C   0  0  0  0  0  0  0  0  0  0  0  0
   -1.0583   -1.3667    0.0000 C   0  0  0  0  0  0  0  0  0  0  0  0
    4.4000   -0.6542    0.0000 C   0  0  0  0  0  0  0  0  0  0  0  0
   -1.6708    0.4083    0.0000 C   0  0  0  0  0  0  0  0  0  0  0  0
   -2.2833   -0.6542    0.0000 C   0  0  0  0  0  0  0  0  0  0  0  0
   -1.6708   -1.7167    0.0000 C   0  0  0  0  0  0  0  0  0  0  0  0
   -2.2833   -1.3667    0.0000 C   0  0  0  0  0  0  0  0  0  0  0  0
  2  1  1  0
  3  1  1  0
  4  3  2  0
  5  7  1  0
  6  2  1  0
  7 14  1  0
  8  6  2  0
  9  5  1  0
 10  3  1  0
 11  6  1  0
 12  4  1  0
 13  2  2  0
 14 21  1  0
 15  8  1  0
 16  5  2  0
 17  4  1  0
 18  9  2  0
 19  1  1  0
 20 22  1  0
 21 11  2  0
 22 10  2  0
 23 20  1  0
 24 17  1  0
 25  8  1  0
 26 19  1  0
 27  9  1  0
 28 26  1  0
 29 18  1  0
 30 18  1  0
 31 27  2  0
 32 31  1  0
 17 28  1  0
 12 20  2  0
 14 15  2  0
 30 32  2  0
M  END
> <chembl_id>
CHEMBL344159

> <chembl_pref_name>
TOLVAPTAN
