
     RDKit          2D

 18 18  0  0  0  0  0  0  0  0999 V2000
    1.0167   -0.5875    0.0000 C   0  0  0  0  0  0  0  0  0  0  0  0
    1.0167   -1.2917    0.0000 N   0  0  0  0  0  0  0  0  0  0  0  0
    1.6000   -1.6292    0.0000 C   0  0  0  0  0  0  0  0  0  0  0  0
    1.6167   -0.2375    0.0000 N   0  0  0  0  0  0  0  0  0  0  0  0
    2.1792   -1.9667    0.0000 N   0  0  0  0  0  0  0  0  0  0  0  0
    0.4000   -0.2417    0.0000 N   0  0  0  0  0  0  0  0  0  0  0  0
    2.2167   -0.5667    0.0000 C   0  0  0  0  0  0  0  0  0  0  0  0
    2.8250   -0.2167    0.0000 C   0  0  0  0  0  0  0  0  0  0  0  0
   -1.4250   -1.3042    0.0000 N   0  0  0  0  0  0  0  0  0  0  0  0
   -0.2083   -0.6000    0.0000 C   0  0  0  0  0  0  0  0  0  0  0  0
   -0.2083   -1.3042    0.0000 C   0  0  0  0  0  0  0  0  0  0  0  0
   -0.8208   -0.2417    0.0000 C   0  0  0  0  0  0  0  0  0  0  0  0
   -1.4250   -0.6000    0.0000 C   0  0  0  0  0  0  0  0  0  0  0  0
   -0.8208   -1.6542    0.0000 C   0  0  0  0  0  0  0  0  0  0  0  0
    3.1750    0.4000    0.0000 C   0  0  0  0  0  0  0  0  0  0  0  0
    2.4667    0.4000    0.0000 C   0  0  0  0  0  0  0  0  0  0  0  0
    3.4417   -0.5542    0.0000 C   0  0  0  0  0  0  0  0  0  0  0  0
    2.2167   -1.2667    0.0000 C   0  0  0  0  0  0  0  0  0  0  0  0
  2  1  2  0
  3  2  1  0
  4  1  1  0
  5  3  3  0
  6  1  1  0
  7  4  1  0
  8  7  1  0
  9 13  1  0
 10  6  1  0
 11 10  2  0
 12 10  1  0
 13 12  2  0
 14 11  1  0
 15  8  1  0
 16  8  1  0
 17  8  1  0
 18  7  1  0
  9 14  2  0
M  END
> <chembl_id>
CHEMBL1159

> <chembl_pref_name>
PINACIDIL ANHYDROUS
