
     RDKit          2D

  5  3  0  0  0  0  0  0  0  0999 V2000
    0.5417   -0.4042    0.0000 Na  0  0  0  0  0 15  0  0  0  0  0  0
   -0.7833   -0.0333    0.0000 C   0  0  0  0  0  0  0  0  0  0  0  0
   -0.1958   -0.4667    0.0000 O   0  0  0  0  0  0  0  0  0  0  0  0
   -0.7833    0.6500    0.0000 O   0  0  0  0  0  0  0  0  0  0  0  0
   -1.3708   -0.4375    0.0000 C   0  0  0  0  0  0  0  0  0  0  0  0
  3  2  1  0
  4  2  2  0
  5  2  1  0
M  CHG  2   1   1   3  -1
M  END
> <chembl_id>
CHEMBL1354

> <chembl_pref_name>
SODIUM ACETATE
