
     RDKit          2D

 39 43  0  0  0  0  0  0  0  0999 V2000
   -5.0836    1.9876    0.0000 N   0  0  0  0  0  0  0  0  0  0  0  0
   -5.7981    1.5751    0.0000 C   0  0  0  0  0  0  0  0  0  0  0  0
   -5.7981    0.7501    0.0000 C   0  0  0  0  0  0  0  0  0  0  0  0
   -4.3691    0.7501    0.0000 C   0  0  0  0  0  0  0  0  0  0  0  0
   -4.3691    1.5751    0.0000 C   0  0  0  0  0  0  0  0  0  0  0  0
   -3.6546    0.3376    0.0000 C   0  0  0  0  0  0  0  0  0  0  0  0
   -2.9402    0.7501    0.0000 N   0  0  0  0  0  0  0  0  0  0  0  0
   -2.9402    1.5751    0.0000 C   0  0  0  0  0  0  0  0  0  0  0  0
   -3.6546    1.9876    0.0000 N   0  0  0  0  0  0  0  0  0  0  0  0
   -1.5112    1.5750    0.0000 C   0  0  0  0  0  0  0  0  0  0  0  0
   -2.2257    1.9876    0.0000 C   0  0  0  0  0  0  0  0  0  0  0  0
   -2.2257    2.8126    0.0000 C   0  0  0  0  0  0  0  0  0  0  0  0
   -1.5112    3.2251    0.0000 C   0  0  0  0  0  0  0  0  0  0  0  0
   -0.7967    2.8126    0.0000 C   0  0  0  0  0  0  0  0  0  0  0  0
   -0.7967    1.9875    0.0000 C   0  0  0  0  0  0  0  0  0  0  0  0
    0.0263    2.7550    0.0000 C   0  0  0  0  0  0  0  0  0  0  0  0
    0.4876    3.4390    0.0000 O   0  0  0  0  0  0  0  0  0  0  0  0
    0.3879    2.0135    0.0000 N   0  0  0  0  0  0  0  0  0  0  0  0
    1.2109    1.9559    0.0000 C   0  0  0  0  0  0  0  0  0  0  0  0
    1.6722    2.6399    0.0000 C   0  0  0  0  0  0  0  0  0  0  0  0
    1.5725    1.2144    0.0000 C   0  0  0  0  0  0  0  0  0  0  0  0
    2.3955    1.1569    0.0000 C   0  0  0  0  0  0  0  0  0  0  0  0
    1.1112    0.5305    0.0000 C   0  0  0  0  0  0  0  0  0  0  0  0
    1.4728   -0.2111    0.0000 N   0  0  0  0  0  0  0  0  0  0  0  0
    2.2958   -0.2686    0.0000 C   0  0  0  0  0  0  0  0  0  0  0  0
    2.7571    0.4154    0.0000 C   0  0  0  0  0  0  0  0  0  0  0  0
    2.1961   -1.6941    0.0000 C   0  0  0  0  0  0  0  0  0  0  0  0
    2.6574   -1.0101    0.0000 N   0  0  0  0  0  0  0  0  0  0  0  0
    2.7039   -2.3442    0.0000 C   0  0  0  0  0  0  0  0  0  0  0  0
    3.4792   -2.0620    0.0000 C   0  0  0  0  0  0  0  0  0  0  0  0
    3.4504   -1.2376    0.0000 N   0  0  0  0  0  0  0  0  0  0  0  0
   -6.5826    0.4952    0.0000 C   0  0  0  0  0  0  0  0  0  0  0  0
   -7.0676    1.1626    0.0000 N   0  0  0  0  0  0  0  0  0  0  0  0
   -6.5827    1.8300    0.0000 N   0  0  0  0  0  0  0  0  0  0  0  0
   -6.8376   -0.2894    0.0000 C   0  0  0  0  0  0  0  0  0  0  0  0
   -3.6546   -0.4874    0.0000 C   0  0  0  0  0  0  0  0  0  0  0  0
   -0.4351    3.5541    0.0000 O   0  0  0  0  0  0  0  0  0  0  0  0
   -0.9316    4.2129    0.0000 C   0  0  0  0  0  0  0  0  0  0  0  0
    2.4765   -3.1372    0.0000 F   0  0  0  0  0  0  0  0  0  0  0  0
  1  2  1  0
  2  3  1  0
  4  5  2  0
  1  5  1  0
  6  7  2  0
  7  8  1  0
  8  9  2  0
  4  6  1  0
  5  9  1  0
 10 11  1  0
 11  8  1  6
 12 13  1  0
 13 14  1  0
 14 15  1  0
 10 15  1  0
 11 12  1  0
 16 17  2  0
 14 16  1  0
 18 19  1  0
 19 20  1  1
 16 18  1  0
 21 22  2  0
 19 21  1  0
 23 24  2  0
 24 25  1  0
 25 26  2  0
 21 23  1  0
 22 26  1  0
 27 28  1  0
 25 28  1  0
 29 30  1  0
 30 31  2  0
 27 29  2  0
 28 31  1  0
 32 33  1  0
 33 34  1  0
  2 34  2  0
  3 32  2  0
 32 35  1  0
  6 36  1  0
 14 37  1  6
 37 38  1  0
 29 39  1  0
M  END
> <chembl_id>
CHEMBL4582651

> <chembl_pref_name>
PRALSETINIB
