
     RDKit          2D

 56 61  0  0  0  0  0  0  0  0999 V2000
    4.8911   -5.3036    0.0000 Na  0  0  0  0  0 15  0  0  0  0  0  0
   -0.4125    1.4143    0.0000 S   0  0  0  0  0  0  0  0  0  0  0  0
   -0.9959    1.9976    0.0000 O   0  0  0  0  0  0  0  0  0  0  0  0
   -1.2375    1.4143    0.0000 O   0  0  0  0  0  0  0  0  0  0  0  0
    0.3020    1.8268    0.0000 C   0  0  0  0  0  0  0  0  0  0  0  0
    0.5155    2.6237    0.0000 C   0  0  0  0  0  0  0  0  0  0  0  0
    0.9280    1.9092    0.0000 C   0  0  0  0  0  0  0  0  0  0  0  0
   -0.4125    0.5893    0.0000 N   0  0  0  0  0  0  0  0  0  0  0  0
   -1.1270    0.1768    0.0000 C   0  0  0  0  0  0  0  0  0  0  0  0
   -1.8414    0.5893    0.0000 O   0  0  0  0  0  0  0  0  0  0  0  0
   -1.1270   -0.6482    0.0000 C   0  0  0  0  0  0  0  0  0  0  0  0
   -1.7103   -1.2316    0.0000 C   0  0  0  0  0  0  0  0  0  0  0  0
   -1.9239   -0.4347    0.0000 C   0  0  0  0  0  0  0  0  0  0  0  0
   -2.2937   -1.8149    0.0000 C   0  0  0  0  0  0  0  0  0  0  0  0
   -2.2937   -2.6399    0.0000 C   0  0  0  0  0  0  0  0  0  0  0  0
   -1.5792   -3.0524    0.0000 C   0  0  0  0  0  0  0  0  0  0  0  0
   -1.5792   -3.8774    0.0000 C   0  0  0  0  0  0  0  0  0  0  0  0
   -0.8648   -4.2899    0.0000 C   0  0  0  0  0  0  0  0  0  0  0  0
   -0.1503   -3.8774    0.0000 C   0  0  0  0  0  0  0  0  0  0  0  0
    0.5642   -4.2899    0.0000 N   0  0  0  0  0  0  0  0  0  0  0  0
    1.2787   -3.8774    0.0000 C   0  0  0  0  0  0  0  0  0  0  0  0
    1.9931   -4.2899    0.0000 O   0  0  0  0  0  0  0  0  0  0  0  0
    1.2787   -2.2274    0.0000 C   0  0  0  0  0  0  0  0  0  0  0  0
    2.0057   -1.1079    0.0000 C   0  0  0  0  0  0  0  0  0  0  0  0
    1.2355   -1.4036    0.0000 C   0  0  0  0  0  0  0  0  0  0  0  0
    2.0756   -2.4410    0.0000 C   0  0  0  0  0  0  0  0  0  0  0  0
    2.5249   -1.7491    0.0000 C   0  0  0  0  0  0  0  0  0  0  0  0
    0.5210   -0.9911    0.0000 C   0  0  0  0  0  0  0  0  0  0  0  0
   -0.3040   -0.9911    0.0000 N   0  0  0  0  0  0  0  0  0  0  0  0
    0.7345   -0.1942    0.0000 O   0  0  0  0  0  0  0  0  0  0  0  0
    3.3217   -1.9626    0.0000 O   0  0  0  0  0  0  0  0  0  0  0  0
    4.1186   -1.7491    0.0000 C   0  0  0  0  0  0  0  0  0  0  0  0
    3.7488   -0.3688    0.0000 C   0  0  0  0  0  0  0  0  0  0  0  0
    3.5353   -1.1657    0.0000 C   0  0  0  0  0  0  0  0  0  0  0  0
    4.9155   -1.5356    0.0000 C   0  0  0  0  0  0  0  0  0  0  0  0
    5.1290   -0.7386    0.0000 N   0  0  0  0  0  0  0  0  0  0  0  0
    4.5457   -0.1553    0.0000 C   0  0  0  0  0  0  0  0  0  0  0  0
    4.7592    0.6416    0.0000 C   0  0  0  0  0  0  0  0  0  0  0  0
    4.1758    1.2250    0.0000 C   0  0  0  0  0  0  0  0  0  0  0  0
    3.3789    1.0115    0.0000 C   0  0  0  0  0  0  0  0  0  0  0  0
    3.1654    0.2145    0.0000 C   0  0  0  0  0  0  0  0  0  0  0  0
    4.3894    2.0219    0.0000 O   0  0  0  0  0  0  0  0  0  0  0  0
    5.4737    1.0541    0.0000 C   0  0  0  0  0  0  0  0  0  0  0  0
    5.6300   -1.9481    0.0000 C   0  0  0  0  0  0  0  0  0  0  0  0
    6.4002   -1.6524    0.0000 N   0  0  0  0  0  0  0  0  0  0  0  0
    5.6732   -2.7719    0.0000 S   0  0  0  0  0  0  0  0  0  0  0  0
    6.4701   -2.9854    0.0000 C   0  0  0  0  0  0  0  0  0  0  0  0
    6.9194   -2.2936    0.0000 C   0  0  0  0  0  0  0  0  0  0  0  0
    7.7444   -2.2936    0.0000 C   0  0  0  0  0  0  0  0  0  0  0  0
    8.1569   -1.5791    0.0000 C   0  0  0  0  0  0  0  0  0  0  0  0
    8.3277   -2.8769    0.0000 C   0  0  0  0  0  0  0  0  0  0  0  0
    0.5642   -5.1149    0.0000 C   0  0  0  0  0  0  0  0  0  0  0  0
    3.8061    2.6053    0.0000 C   0  0  0  0  0  0  0  0  0  0  0  0
    1.3139   -0.4067    0.0000 H   0  0  0  0  0  0  0  0  0  0  0  0
    1.8874   -3.0208    0.0000 H   0  0  0  0  0  0  0  0  0  0  0  0
   -2.6762   -0.9728    0.0000 H   0  0  0  0  0  0  0  0  0  0  0  0
  2  3  2  0
  2  4  2  0
  2  5  1  0
  5  6  1  0
  6  7  1  0
  5  7  1  0
  2  8  1  0
  8  9  1  0
  9 10  2  0
 11 12  1  0
 12 13  1  0
 13 11  1  0
 14 15  2  0
 15 16  1  0
 16 17  1  0
 17 18  1  0
 18 19  1  0
 19 20  1  0
 20 21  1  0
 21 22  2  0
 25 23  1  0
 23 26  1  0
 24 25  1  0
 24 27  1  0
 26 27  1  0
 25 28  1  0
 28 29  1  0
 28 30  2  0
 34 32  2  0
 32 35  1  0
 33 34  1  0
 33 37  2  0
 33 41  1  0
 35 36  2  0
 36 37  1  0
 37 38  1  0
 38 39  2  0
 39 40  1  0
 40 41  2  0
 39 42  1  0
 38 43  1  0
 35 44  1  0
 45 44  2  0
 44 46  1  0
 45 48  1  0
 46 47  1  0
 47 48  2  0
 48 49  1  0
 49 50  1  0
 49 51  1  0
 11  9  1  6
 12 14  1  0
 27 31  1  1
 20 52  1  0
 23 21  1  0
 11 29  1  0
 34 31  1  0
 42 53  1  0
 25 54  1  1
 23 55  1  6
 12 56  1  1
M  CHG  2   1   1   8  -1
M  END
> <chembl_id>
CHEMBL3137358

> <chembl_pref_name>
SIMEPREVIR SODIUM
