
     RDKit          2D

 46 49  0  0  0  0  0  0  0  0999 V2000
    8.6487   -0.1191    0.0000 S   0  0  0  0  0  0  0  0  0  0  0  0
    9.0612   -0.8335    0.0000 O   0  0  0  0  0  0  0  0  0  0  0  0
    9.3632    0.2934    0.0000 O   0  0  0  0  0  0  0  0  0  0  0  0
    7.9342   -0.5316    0.0000 O   0  0  0  0  0  0  0  0  0  0  0  0
    8.2362    0.5954    0.0000 C   0  0  0  0  0  0  0  0  0  0  0  0
    7.4112    0.5954    0.0000 C   0  0  0  0  0  0  0  0  0  0  0  0
   -1.2667   -2.2003    0.0000 N   0  0  0  0  0  0  0  0  0  0  0  0
   -2.0737   -2.3718    0.0000 C   0  0  0  0  0  0  0  0  0  0  0  0
   -2.3286   -3.1564    0.0000 C   0  0  0  0  0  0  0  0  0  0  0  0
   -3.1356   -3.3280    0.0000 N   0  0  0  0  0  0  0  0  0  0  0  0
   -2.6257   -1.7587    0.0000 O   0  0  0  0  0  0  0  0  0  0  0  0
   -3.6876   -2.7149    0.0000 C   0  0  0  0  0  0  0  0  0  0  0  0
   -4.7495   -3.6710    0.0000 N   0  0  0  0  0  0  0  0  0  0  0  0
   -4.4946   -2.8864    0.0000 C   0  0  0  0  0  0  0  0  0  0  0  0
   -4.1975   -4.2841    0.0000 C   0  0  0  0  0  0  0  0  0  0  0  0
   -3.3905   -4.1126    0.0000 C   0  0  0  0  0  0  0  0  0  0  0  0
   -0.2048   -1.2441    0.0000 C   0  0  0  0  0  0  0  0  0  0  0  0
   -1.0118   -1.4157    0.0000 C   0  0  0  0  0  0  0  0  0  0  0  0
    0.0501   -0.4595    0.0000 C   0  0  0  0  0  0  0  0  0  0  0  0
   -0.5019    0.1536    0.0000 C   0  0  0  0  0  0  0  0  0  0  0  0
   -0.2470    0.9382    0.0000 N   0  0  0  0  0  0  0  0  0  0  0  0
   -1.3089   -0.0180    0.0000 C   0  0  0  0  0  0  0  0  0  0  0  0
   -1.5638   -0.8026    0.0000 C   0  0  0  0  0  0  0  0  0  0  0  0
    2.4711    0.0551    0.0000 C   0  0  0  0  0  0  0  0  0  0  0  0
    2.2161   -0.7296    0.0000 C   0  0  0  0  0  0  0  0  0  0  0  0
    1.9190    0.6682    0.0000 C   0  0  0  0  0  0  0  0  0  0  0  0
    1.5996    2.1493    0.0000 C   0  0  0  0  0  0  0  0  0  0  0  0
    0.8150    1.8943    0.0000 C   0  0  0  0  0  0  0  0  0  0  0  0
    2.3141    1.7368    0.0000 C   0  0  0  0  0  0  0  0  0  0  0  0
    3.0285    2.1493    0.0000 C   0  0  0  0  0  0  0  0  0  0  0  0
    3.0285    2.9743    0.0000 C   0  0  0  0  0  0  0  0  0  0  0  0
    3.7430    3.3868    0.0000 C   0  0  0  0  0  0  0  0  0  0  0  0
    4.4575    2.9743    0.0000 O   0  0  0  0  0  0  0  0  0  0  0  0
    3.7430    4.2118    0.0000 O   0  0  0  0  0  0  0  0  0  0  0  0
    1.5996    2.9743    0.0000 C   0  0  0  0  0  0  0  0  0  0  0  0
    0.8150    3.2292    0.0000 N   0  0  0  0  0  0  0  0  0  0  0  0
    0.3300    2.5618    0.0000 C   0  0  0  0  0  0  0  0  0  0  0  0
   -0.4950    2.5618    0.0000 O   0  0  0  0  0  0  0  0  0  0  0  0
    0.5600    1.1097    0.0000 C   0  0  0  0  0  0  0  0  0  0  0  0
    1.1121    0.4966    0.0000 C   0  0  0  0  0  0  0  0  0  0  0  0
    1.4091   -0.9011    0.0000 C   0  0  0  0  0  0  0  0  0  0  0  0
    0.8571   -0.2880    0.0000 C   0  0  0  0  0  0  0  0  0  0  0  0
    2.3141    3.3868    0.0000 C   0  0  0  0  0  0  0  0  0  0  0  0
   -0.7147   -2.8134    0.0000 C   0  0  0  0  0  0  0  0  0  0  0  0
   -5.5565   -3.8426    0.0000 C   0  0  0  0  0  0  0  0  0  0  0  0
    5.1719    3.3868    0.0000 C   0  0  0  0  0  0  0  0  0  0  0  0
  1  2  2  0
  1  3  2  0
  1  4  1  0
  1  5  1  0
  5  6  1  0
  7  8  1  0
  7 44  1  0
  8 11  2  0
  9 10  1  0
  9  8  1  0
 10 16  1  0
 12 10  1  0
 13 14  1  0
 13 15  1  0
 13 45  1  0
 14 12  1  0
 15 16  1  0
 17 18  2  0
 17 19  1  0
 18  7  1  0
 19 20  2  0
 20 21  1  0
 20 22  1  0
 22 23  2  0
 23 18  1  0
 24 25  2  0
 24 26  1  0
 25 41  1  0
 26 40  2  0
 27 28  1  0
 27 35  2  0
 28 39  2  0
 29 27  1  0
 30 29  2  0
 30 31  1  0
 31 43  2  0
 32 31  1  0
 32 33  1  0
 34 32  2  0
 35 36  1  0
 36 37  1  0
 37 28  1  0
 37 38  2  0
 39 21  1  0
 40 39  1  0
 40 42  1  0
 41 42  2  0
 43 35  1  0
 46 33  1  0
M  END
> <chembl_id>
CHEMBL3039504

> <chembl_pref_name>
NINTEDANIB ESYLATE
