
     RDKit          2D

 23 24  0  0  0  0  0  0  0  0999 V2000
    5.8917   -5.8125    0.0000 Cl  0  0  0  0  0  0  0  0  0  0  0  0
    4.1042   -3.9542    0.0000 N   0  0  0  0  0  0  0  0  0  0  0  0
    3.4625   -3.6417    0.0000 C   0  0  0  0  0  0  0  0  0  0  0  0
    4.7417   -3.6542    0.0000 C   0  0  0  0  0  0  0  0  0  0  0  0
    2.9292   -4.1250    0.0000 C   0  0  0  0  0  0  0  0  0  0  0  0
    3.3125   -2.9500    0.0000 C   0  0  0  0  0  0  0  0  0  0  0  0
    4.9167   -2.9625    0.0000 C   0  0  0  0  0  0  0  0  0  0  0  0
    3.7500   -2.3917    0.0000 C   0  0  0  0  0  0  0  0  0  0  0  0
    4.4625   -2.3917    0.0000 C   0  0  0  0  0  0  0  0  0  0  0  0
    4.0917   -4.6542    0.0000 C   0  0  0  0  0  0  0  0  0  0  0  0
    2.6292   -2.7292    0.0000 C   0  0  0  0  0  0  0  0  0  0  0  0
    2.2542   -3.9125    0.0000 C   0  0  0  0  0  0  0  0  0  0  0  0
    3.4792   -5.0042    0.0000 C   0  0  0  0  0  0  0  0  0  0  0  0
    4.0917   -6.0542    0.0000 N   0  0  0  0  0  0  0  0  0  0  0  0
    2.1000   -3.2167    0.0000 C   0  0  0  0  0  0  0  0  0  0  0  0
    1.7417   -4.3792    0.0000 Cl  0  0  0  0  0  0  0  0  0  0  0  0
    5.2542   -4.1417    0.0000 C   0  0  0  0  0  0  0  0  0  0  0  0
    3.4792   -5.7042    0.0000 C   0  0  0  0  0  0  0  0  0  0  0  0
    5.6042   -2.7542    0.0000 C   0  0  0  0  0  0  0  0  0  0  0  0
    4.0917   -6.7542    0.0000 C   0  0  0  0  0  0  0  0  0  0  0  0
    4.7000   -5.7042    0.0000 C   0  0  0  0  0  0  0  0  0  0  0  0
    5.9375   -3.9542    0.0000 C   0  0  0  0  0  0  0  0  0  0  0  0
    6.1125   -3.2667    0.0000 C   0  0  0  0  0  0  0  0  0  0  0  0
  3  2  1  0
  4  2  1  0
  5  3  1  0
  6  3  2  0
  7  4  2  0
  8  6  1  0
  9  7  1  0
 10  2  1  0
 11  6  1  0
 12  5  2  0
 13 10  1  0
 14 18  1  0
 15 11  2  0
 16 12  1  0
 17  4  1  0
 18 13  1  0
 19  7  1  0
 20 14  1  0
 21 14  1  0
 22 17  2  0
 23 22  1  0
  9  8  1  0
 23 19  2  0
 15 12  1  0
M  END
> <chembl_id>
CHEMBL1200710

> <chembl_pref_name>
CLOMIPRAMINE HYDROCHLORIDE
