
     RDKit          2D

 18 19  0  0  0  0  0  0  0  0999 V2000
   -3.1833    1.1625    0.0000 C   0  0  0  0  0  0  0  0  0  0  0  0
   -2.1250    1.1625    0.0000 C   0  0  0  0  0  0  0  0  0  0  0  0
   -2.6458    2.0875    0.0000 C   0  0  0  0  0  0  0  0  0  0  0  0
    2.4292   -0.3250    0.0000 C   0  0  0  0  0  0  0  0  0  0  0  0
    3.3500   -0.8375    0.0000 C   0  0  0  0  0  0  0  0  0  0  0  0
   -1.2208    0.6500    0.0000 C   0  0  0  0  0  0  0  0  0  0  0  0
    1.5292   -0.8917    0.0000 O   0  0  0  0  0  0  0  0  0  0  0  0
   -3.8625    0.3583    0.0000 Cl  0  0  0  0  0  0  0  0  0  0  0  0
   -4.2208    0.9958    0.0000 Cl  0  0  0  0  0  0  0  0  0  0  0  0
    3.3417   -1.8917    0.0000 O   0  0  0  0  0  0  0  0  0  0  0  0
   -0.3333    1.1625    0.0000 C   0  0  0  0  0  0  0  0  0  0  0  0
   -1.2208   -0.3917    0.0000 C   0  0  0  0  0  0  0  0  0  0  0  0
    0.5917   -0.3917    0.0000 C   0  0  0  0  0  0  0  0  0  0  0  0
    4.2667   -0.3000    0.0000 O   0  0  0  0  0  0  0  0  0  0  0  0
    0.5917    0.6500    0.0000 C   0  0  0  0  0  0  0  0  0  0  0  0
   -0.3333   -0.9125    0.0000 C   0  0  0  0  0  0  0  0  0  0  0  0
    1.9875    0.6458    0.0000 C   0  0  0  0  0  0  0  0  0  0  0  0
    2.7000    0.7000    0.0000 C   0  0  0  0  0  0  0  0  0  0  0  0
  2  1  1  0
  3  1  1  0
  4  7  1  0
  5  4  1  0
  6  2  1  0
  7 13  1  0
  8  1  1  0
  9  1  1  0
 10  5  2  0
 11  6  1  0
 12  6  2  0
 13 16  2  0
 14  5  1  0
 15 11  2  0
 16 12  1  0
 17  4  1  0
 18  4  1  0
  2  3  1  0
 15 13  1  0
M  END
> <chembl_id>
CHEMBL557555

> <chembl_pref_name>
CIPROFIBRATE
