
     RDKit          2D

 51 57  0  0  1  0  0  0  0  0999 V2000
    4.3375    0.8583    0.0000 C   0  0  0  0  0  0  0  0  0  0  0  0
    3.9917    0.3833    0.0000 N   0  0  0  0  0  0  0  0  0  0  0  0
    4.8917    0.6833    0.0000 N   0  0  0  0  0  0  0  0  0  0  0  0
    4.9000    0.0958    0.0000 N   0  0  0  0  0  0  0  0  0  0  0  0
   -3.6458   -0.4542    0.0000 C   0  0  0  0  0  0  0  0  0  0  0  0
    4.3375   -0.0917    0.0000 C   0  0  0  0  0  0  0  0  0  0  0  0
   -4.2083   -0.6167    0.0000 C   0  0  0  0  0  0  0  0  0  0  0  0
   -3.0333   -2.1500    0.0000 N   0  0  0  0  0  0  0  0  0  0  0  0
    5.3667    1.0208    0.0000 C   0  0  0  0  0  0  0  0  0  0  0  0
   -3.7000   -1.4750    0.0000 N   0  0  0  0  0  0  0  0  0  0  0  0
    0.4792    0.3625    0.0000 N   0  0  0  0  0  0  0  0  0  0  0  0
    1.6542    0.3708    0.0000 N   0  0  0  0  0  0  0  0  0  0  0  0
   -3.6458    0.1333    0.0000 O   0  0  0  0  0  0  0  0  0  0  0  0
   -3.9708   -1.9917    0.0000 N   0  0  0  0  0  0  0  0  0  0  0  0
   -3.9625   -0.9417    0.0000 C   0  0  0  0  0  0  0  0  0  0  0  0
   -4.6333   -0.2042    0.0000 C   0  0  0  0  0  0  0  0  0  0  0  0
    3.4042    0.3750    0.0000 C   0  0  0  0  0  0  0  0  0  0  0  0
   -3.5583   -2.4042    0.0000 C   0  0  0  0  0  0  0  0  0  0  0  0
   -3.1208   -1.5750    0.0000 C   0  0  0  0  0  0  0  0  0  0  0  0
    4.1500    1.4125    0.0000 O   0  0  0  0  0  0  0  0  0  0  0  0
   -5.1958   -0.3667    0.0000 C   0  0  0  0  0  0  0  0  0  0  0  0
   -4.3500   -1.1792    0.0000 C   0  0  0  0  0  0  0  0  0  0  0  0
   -3.0833   -0.6292    0.0000 C   0  0  0  0  0  0  0  0  0  0  0  0
    2.2375    0.3708    0.0000 C   0  0  0  0  0  0  0  0  0  0  0  0
   -0.1000    0.3625    0.0000 C   0  0  0  0  0  0  0  0  0  0  0  0
    1.3542   -0.1417    0.0000 C   0  0  0  0  0  0  0  0  0  0  0  0
    1.3542    0.8750    0.0000 C   0  0  0  0  0  0  0  0  0  0  0  0
    0.7750   -0.1417    0.0000 C   0  0  0  0  0  0  0  0  0  0  0  0
    0.7667    0.8708    0.0000 C   0  0  0  0  0  0  0  0  0  0  0  0
   -2.7458   -0.1542    0.0000 C   0  0  0  0  0  0  0  0  0  0  0  0
    3.1167   -0.1375    0.0000 C   0  0  0  0  0  0  0  0  0  0  0  0
    3.1125    0.8833    0.0000 C   0  0  0  0  0  0  0  0  0  0  0  0
    2.5292   -0.1375    0.0000 C   0  0  0  0  0  0  0  0  0  0  0  0
    2.5250    0.8833    0.0000 C   0  0  0  0  0  0  0  0  0  0  0  0
    5.9000    0.7875    0.0000 C   0  0  0  0  0  0  0  0  0  0  0  0
   -0.3958   -0.1417    0.0000 C   0  0  0  0  0  0  0  0  0  0  0  0
   -0.4000    0.8708    0.0000 C   0  0  0  0  0  0  0  0  0  0  0  0
   -3.0833    0.3208    0.0000 C   0  0  0  0  0  0  0  0  0  0  0  0
   -5.3458   -0.9375    0.0000 C   0  0  0  0  0  0  0  0  0  0  0  0
   -4.4958    0.3625    0.0000 F   0  0  0  0  0  0  0  0  0  0  0  0
   -1.8625    0.3583    0.0000 O   0  0  0  0  0  0  0  0  0  0  0  0
   -4.9208   -1.3417    0.0000 C   0  0  0  0  0  0  0  0  0  0  0  0
   -1.2750    0.3583    0.0000 C   0  0  0  0  0  0  0  0  0  0  0  0
   -2.1583   -0.1542    0.0000 C   0  0  0  0  0  0  0  0  0  0  0  0
   -0.9833   -0.1500    0.0000 C   0  0  0  0  0  0  0  0  0  0  0  0
   -0.9833    0.8708    0.0000 C   0  0  0  0  0  0  0  0  0  0  0  0
   -5.9083   -1.1000    0.0000 F   0  0  0  0  0  0  0  0  0  0  0  0
    6.3750    1.1375    0.0000 O   0  0  0  0  0  0  0  0  0  0  0  0
    5.3000    1.6083    0.0000 C   0  0  0  0  0  0  0  0  0  0  0  0
    5.9667    0.2083    0.0000 C   0  0  0  0  0  0  0  0  0  0  0  0
    5.7750    1.9583    0.0000 C   0  0  0  0  0  0  0  0  0  0  0  0
  2  1  1  0
  3  1  1  0
  4  3  1  0
  5 23  1  0
  6  2  1  0
  7  5  1  0
  8 19  2  0
  9  3  1  0
 10 15  1  0
 11 29  1  0
 12 24  1  0
 13 38  1  0
 14 10  1  0
  5 15  1  1
 16  7  2  0
 17  2  1  0
 18 14  2  0
 19 10  1  0
 20  1  2  0
 21 16  1  0
 22  7  1  0
 23 30  1  0
 24 34  1  0
 25 11  1  0
 26 12  1  0
 27 12  1  0
 28 26  1  0
 29 27  1  0
 30 44  1  1
 31 17  2  0
 32 17  1  0
 33 31  1  0
 34 32  2  0
 35  9  1  0
 36 25  1  0
 37 25  2  0
 38 30  1  0
 39 42  1  0
 40 16  1  0
 41 43  1  0
 42 22  2  0
 43 46  2  0
 44 41  1  0
 45 36  2  0
 46 37  1  0
 47 39  1  0
 35 48  1  1
  9 49  1  1
 50 35  1  0
 51 49  1  0
  6  4  2  0
 24 33  2  0
 11 28  1  0
 45 43  1  0
  5 13  1  0
  8 18  1  0
 21 39  2  0
M  END
> <chembl_id>
CHEMBL1397

> <chembl_pref_name>
POSACONAZOLE
