
     RDKit          2D

 19 20  0  0  0  0  0  0  0  0999 V2000
    0.9625  -10.0500    0.0000 S   0  0  0  0  0  0  0  0  0  0  0  0
    1.5750   -9.6917    0.0000 N   0  0  0  0  0  0  0  0  0  0  0  0
    2.1875  -10.0542    0.0000 C   0  0  0  0  0  0  0  0  0  0  0  0
    0.3500   -9.6917    0.0000 C   0  0  0  0  0  0  0  0  0  0  0  0
    2.8000   -9.7000    0.0000 N   0  0  0  0  0  0  0  0  0  0  0  0
    2.1875  -10.7667    0.0000 N   0  0  0  0  0  0  0  0  0  0  0  0
    0.6125  -10.6625    0.0000 O   0  0  0  0  0  0  0  0  0  0  0  0
    1.3250  -10.6625    0.0000 O   0  0  0  0  0  0  0  0  0  0  0  0
    3.4125  -10.7667    0.0000 C   0  0  0  0  0  0  0  0  0  0  0  0
   -0.2625  -10.0417    0.0000 C   0  0  0  0  0  0  0  0  0  0  0  0
    0.3542   -8.9875    0.0000 C   0  0  0  0  0  0  0  0  0  0  0  0
    3.4125  -10.0542    0.0000 C   0  0  0  0  0  0  0  0  0  0  0  0
    2.8000  -11.1167    0.0000 C   0  0  0  0  0  0  0  0  0  0  0  0
   -0.8708   -8.9792    0.0000 C   0  0  0  0  0  0  0  0  0  0  0  0
   -1.4833   -8.6250    0.0000 N   0  0  0  0  0  0  0  0  0  0  0  0
   -0.8750   -9.6917    0.0000 C   0  0  0  0  0  0  0  0  0  0  0  0
   -0.2583   -8.6292    0.0000 C   0  0  0  0  0  0  0  0  0  0  0  0
    4.0250  -11.1167    0.0000 O   0  0  0  0  0  0  0  0  0  0  0  0
    4.6417  -10.7667    0.0000 C   0  0  0  0  0  0  0  0  0  0  0  0
  2  1  1  0
  3  2  1  0
  4  1  1  0
  5  3  2  0
  6  3  1  0
  7  1  2  0
  8  1  2  0
  9 13  1  0
 10  4  2  0
 11  4  1  0
 12  5  1  0
 13  6  2  0
 14 17  1  0
 15 14  1  0
 16 10  1  0
 17 11  2  0
 18  9  1  0
 19 18  1  0
 14 16  2  0
  9 12  2  0
M  END
> <chembl_id>
CHEMBL1200359

> <chembl_pref_name>
SULFAMETER
