
     RDKit          2D

 25 27  0  0  0  0  0  0  0  0999 V2000
    3.0417   -2.1670    0.0000 N   0  0  0  0  0  0  0  0  0  0  0  0
    3.7561   -3.4045    0.0000 O   0  0  0  0  0  0  0  0  0  0  0  0
    4.4706   -2.9920    0.0000 C   0  0  0  0  0  0  0  0  0  0  0  0
    4.4706   -2.1670    0.0000 C   0  0  0  0  0  0  0  0  0  0  0  0
    3.7561   -1.7545    0.0000 C   0  0  0  0  0  0  0  0  0  0  0  0
    8.0430   -0.9295    0.0000 C   0  0  0  0  0  0  0  0  0  0  0  0
    8.7574   -0.5170    0.0000 O   0  0  0  0  0  0  0  0  0  0  0  0
    8.0430   -1.7545    0.0000 C   0  0  0  0  0  0  0  0  0  0  0  0
    7.3285   -2.1670    0.0000 C   0  0  0  0  0  0  0  0  0  0  0  0
    5.8995   -2.1670    0.0000 C   0  0  0  0  0  0  0  0  0  0  0  0
    6.6140   -1.7545    0.0000 C   0  0  0  0  0  0  0  0  0  0  0  0
    6.6140   -0.9295    0.0000 C   0  0  0  0  0  0  0  0  0  0  0  0
    8.7574    1.1330    0.0000 F   0  0  0  0  0  0  0  0  0  0  0  0
    9.5824    0.3080    0.0000 F   0  0  0  0  0  0  0  0  0  0  0  0
    7.9324    0.3080    0.0000 F   0  0  0  0  0  0  0  0  0  0  0  0
    8.7574    0.3080    0.0000 C   0  0  0  0  0  0  0  0  0  0  0  0
    7.3285   -0.5170    0.0000 C   0  0  0  0  0  0  0  0  0  0  0  0
    5.1851   -1.7545    0.0000 O   0  0  0  0  0  0  0  0  0  0  0  0
    2.2570   -1.9121    0.0000 C   0  0  0  0  0  0  0  0  0  0  0  0
    3.0417   -2.9920    0.0000 C   0  0  0  0  0  0  0  0  0  0  0  0
    2.2570   -3.2470    0.0000 N   0  0  0  0  0  0  0  0  0  0  0  0
    1.7721   -2.5795    0.0000 C   0  0  0  0  0  0  0  0  0  0  0  0
    0.9471   -2.5795    0.0000 N   0  0  0  0  0  0  0  0  0  0  0  0
    0.5346   -3.2940    0.0000 O   0  0  0  0  0  0  0  0  0  0  0  0
    0.5346   -1.8651    0.0000 O   0  0  0  0  0  0  0  0  0  0  0  0
  2 20  1  0
  2  3  1  0
  3  4  1  0
  4  5  1  0
  5  1  1  0
  7  6  1  0
  9  8  1  0
 10 11  1  0
 11  9  2  0
 12 11  1  0
 16 15  1  0
 16 14  1  0
 16 13  1  0
 16  7  1  0
  8  6  2  0
  6 17  1  0
 17 12  2  0
 10 18  1  0
 19  1  1  0
 20 21  2  0
 21 22  1  0
 19 22  2  0
  1 20  1  0
 22 23  1  0
 23 24  1  0
  4 18  1  6
 23 25  2  0
M  CHG  2  23   1  24  -1
M  END
> <chembl_id>
CHEMBL227875

> <chembl_pref_name>
PRETOMANID
