
     RDKit          2D

 78 80  0  0  0  0  0  0  0  0999 V2000
    4.9167  -12.4875    0.0000 C   0  0  0  0  0  0  0  0  0  0  0  0
    4.9167  -11.7792    0.0000 O   0  0  0  0  0  0  0  0  0  0  0  0
    5.5292  -12.8417    0.0000 O   0  0  0  0  0  0  0  0  0  0  0  0
    4.3042  -12.8417    0.0000 C   0  0  0  0  0  0  0  0  0  0  0  0
    2.3667   -6.8292    0.0000 N   0  0  0  0  0  0  0  0  0  0  0  0
    2.3750   -7.5375    0.0000 C   0  0  0  0  0  0  0  0  0  0  0  0
    1.7667   -7.9000    0.0000 C   0  0  0  0  0  0  0  0  0  0  0  0
    1.7750   -8.6042    0.0000 N   0  0  0  0  0  0  0  0  0  0  0  0
    1.7875  -10.0125    0.0000 N   0  0  0  0  0  0  0  0  0  0  0  0
   -0.6542  -10.0333    0.0000 N   0  0  0  0  0  0  0  0  0  0  0  0
    0.5750  -10.7292    0.0000 N   0  0  0  0  0  0  0  0  0  0  0  0
    2.3875   -8.9500    0.0000 C   0  0  0  0  0  0  0  0  0  0  0  0
   -0.0292  -11.0875    0.0000 C   0  0  0  0  0  0  0  0  0  0  0  0
   -1.2667   -9.6875    0.0000 C   0  0  0  0  0  0  0  0  0  0  0  0
    3.5417   -6.7625    0.0000 C   0  0  0  0  0  0  0  0  0  0  0  0
    1.7958  -10.7167    0.0000 C   0  0  0  0  0  0  0  0  0  0  0  0
    2.3958   -9.6583    0.0000 C   0  0  0  0  0  0  0  0  0  0  0  0
    2.9333   -6.4083    0.0000 C   0  0  0  0  0  0  0  0  0  0  0  0
   -0.6667   -8.6292    0.0000 N   0  0  0  0  0  0  0  0  0  0  0  0
   -0.6458  -10.7417    0.0000 C   0  0  0  0  0  0  0  0  0  0  0  0
   -1.2750   -8.9833    0.0000 C   0  0  0  0  0  0  0  0  0  0  0  0
    4.1583   -6.4042    0.0000 N   0  0  0  0  0  0  0  0  0  0  0  0
    3.0125  -10.0042    0.0000 C   0  0  0  0  0  0  0  0  0  0  0  0
    1.1875  -11.0750    0.0000 C   0  0  0  0  0  0  0  0  0  0  0  0
   -0.6750   -7.9208    0.0000 C   0  0  0  0  0  0  0  0  0  0  0  0
    5.3833   -6.4042    0.0000 C   0  0  0  0  0  0  0  0  0  0  0  0
    5.9958   -9.5917    0.0000 C   0  0  0  0  0  0  0  0  0  0  0  0
    3.6250   -9.6458    0.0000 C   0  0  0  0  0  0  0  0  0  0  0  0
    6.0000   -6.7625    0.0000 N   0  0  0  0  0  0  0  0  0  0  0  0
    1.1458   -6.8500    0.0000 S   0  0  0  0  0  0  0  0  0  0  0  0
    4.7708   -6.7583    0.0000 C   0  0  0  0  0  0  0  0  0  0  0  0
    0.5333   -6.5042    0.0000 S   0  0  0  0  0  0  0  0  0  0  0  0
    7.2250   -6.7625    0.0000 C   0  0  0  0  0  0  0  0  0  0  0  0
    0.5833  -12.8500    0.0000 C   0  0  0  0  0  0  0  0  0  0  0  0
    5.3833   -9.9458    0.0000 N   0  0  0  0  0  0  0  0  0  0  0  0
    2.9917   -7.8875    0.0000 O   0  0  0  0  0  0  0  0  0  0  0  0
    3.5458   -7.4667    0.0000 O   0  0  0  0  0  0  0  0  0  0  0  0
   -1.8750  -10.0500    0.0000 O   0  0  0  0  0  0  0  0  0  0  0  0
    2.9958   -8.5917    0.0000 O   0  0  0  0  0  0  0  0  0  0  0  0
   -0.0250  -11.7958    0.0000 O   0  0  0  0  0  0  0  0  0  0  0  0
    2.4125  -11.0667    0.0000 O   0  0  0  0  0  0  0  0  0  0  0  0
    1.1542   -7.5542    0.0000 C   0  0  0  0  0  0  0  0  0  0  0  0
   -1.8917   -8.6375    0.0000 C   0  0  0  0  0  0  0  0  0  0  0  0
   -1.2583  -11.0958    0.0000 C   0  0  0  0  0  0  0  0  0  0  0  0
   -0.0667   -7.5667    0.0000 C   0  0  0  0  0  0  0  0  0  0  0  0
    5.3833   -5.6958    0.0000 O   0  0  0  0  0  0  0  0  0  0  0  0
   -1.2917   -7.5750    0.0000 O   0  0  0  0  0  0  0  0  0  0  0  0
    3.6167   -8.9375    0.0000 O   0  0  0  0  0  0  0  0  0  0  0  0
    7.2250   -7.4708    0.0000 O   0  0  0  0  0  0  0  0  0  0  0  0
    1.2000  -13.2000    0.0000 O   0  0  0  0  0  0  0  0  0  0  0  0
    1.1917  -11.7833    0.0000 C   0  0  0  0  0  0  0  0  0  0  0  0
    5.9958   -8.8833    0.0000 N   0  0  0  0  0  0  0  0  0  0  0  0
    6.6125   -6.4083    0.0000 C   0  0  0  0  0  0  0  0  0  0  0  0
    6.6083   -9.9458    0.0000 N   0  0  0  0  0  0  0  0  0  0  0  0
    1.7875   -6.4208    0.0000 C   0  0  0  0  0  0  0  0  0  0  0  0
    4.2417   -9.9917    0.0000 N   0  0  0  0  0  0  0  0  0  0  0  0
    0.5792  -12.1417    0.0000 C   0  0  0  0  0  0  0  0  0  0  0  0
   -2.5000   -8.9958    0.0000 C   0  0  0  0  0  0  0  0  0  0  0  0
    7.8375   -6.4083    0.0000 N   0  0  0  0  0  0  0  0  0  0  0  0
   -0.0292  -13.2083    0.0000 N   0  0  0  0  0  0  0  0  0  0  0  0
   -3.7167   -9.7125    0.0000 C   0  0  0  0  0  0  0  0  0  0  0  0
   -1.2542  -11.8042    0.0000 C   0  0  0  0  0  0  0  0  0  0  0  0
   -0.0750   -6.8625    0.0000 C   0  0  0  0  0  0  0  0  0  0  0  0
   -3.1167   -8.6458    0.0000 C   0  0  0  0  0  0  0  0  0  0  0  0
   -2.4917   -9.7000    0.0000 C   0  0  0  0  0  0  0  0  0  0  0  0
   -3.0958  -10.0625    0.0000 C   0  0  0  0  0  0  0  0  0  0  0  0
   -3.7250   -9.0042    0.0000 C   0  0  0  0  0  0  0  0  0  0  0  0
    2.7042   -5.7375    0.0000 C   0  0  0  0  0  0  0  0  0  0  0  0
   -4.3292  -10.0750    0.0000 O   0  0  0  0  0  0  0  0  0  0  0  0
    1.9958   -5.7458    0.0000 C   0  0  0  0  0  0  0  0  0  0  0  0
    4.7708   -7.4667    0.0000 C   0  0  0  0  0  0  0  0  0  0  0  0
    5.3833   -8.5292    0.0000 C   0  0  0  0  0  0  0  0  0  0  0  0
   -1.8667  -12.1542    0.0000 C   0  0  0  0  0  0  0  0  0  0  0  0
   -0.6375  -12.1500    0.0000 C   0  0  0  0  0  0  0  0  0  0  0  0
    5.3833   -7.8208    0.0000 C   0  0  0  0  0  0  0  0  0  0  0  0
   -0.6333  -12.8583    0.0000 C   0  0  0  0  0  0  0  0  0  0  0  0
   -1.8625  -12.8625    0.0000 C   0  0  0  0  0  0  0  0  0  0  0  0
   -1.2417  -13.2125    0.0000 C   0  0  0  0  0  0  0  0  0  0  0  0
  2  1  2  0
  3  1  1  0
  4  1  1  0
  6  5  1  0
  7  6  1  1
  8  7  1  0
  9 17  1  0
 10 20  1  0
 11 24  1  0
 12  8  1  0
 13 11  1  0
 14 21  1  0
 18 15  1  1
 16  9  1  0
 17 12  1  0
 18  5  1  0
 19 25  1  0
 20 13  1  0
 21 19  1  0
 22 15  1  0
 17 23  1  6
 24 16  1  0
 25 45  1  0
 26 31  1  0
 27 52  1  0
 28 23  1  0
 29 26  1  0
 30 42  1  0
 31 22  1  1
 32 30  1  0
 33 53  1  0
 34 57  1  0
 35 27  2  0
 36  6  2  0
 37 15  2  0
 38 14  2  0
 39 12  2  0
 40 13  2  0
 41 16  2  0
  7 42  1  0
 21 43  1  6
 20 44  1  6
 45 63  1  0
 46 26  2  0
 47 25  2  0
 48 28  2  0
 49 33  2  0
 50 34  2  0
 24 51  1  6
 52 72  1  0
 53 29  1  0
 54 27  1  0
 55  5  1  0
 56 28  1  0
 57 51  1  0
 58 43  1  0
 59 33  1  0
 60 34  1  0
 61 66  1  0
 62 44  1  0
 63 32  1  0
 64 58  2  0
 65 58  1  0
 66 65  2  0
 67 64  1  0
 68 18  1  0
 69 61  1  0
 70 55  1  0
 31 71  1  0
 72 75  1  0
 73 62  1  0
 74 62  2  0
 75 71  1  0
 76 74  1  0
 77 73  2  0
 78 77  1  0
 70 68  1  0
 10 14  1  0
 61 67  2  0
 78 76  2  0
M  END
> <chembl_id>
CHEMBL1200556

> <chembl_pref_name>
DESMOPRESSIN ACETATE
