
     RDKit          2D

 17 18  0  0  0  0  0  0  0  0999 V2000
    6.0792   -7.8167    0.0000 C   0  0  0  0  0  0  0  0  0  0  0  0
    6.6917   -7.4542    0.0000 C   0  0  0  0  0  0  0  0  0  0  0  0
    5.4667   -7.4625    0.0000 C   0  0  0  0  0  0  0  0  0  0  0  0
    6.0792   -8.5250    0.0000 O   0  0  0  0  0  0  0  0  0  0  0  0
    7.3042   -7.8125    0.0000 C   0  0  0  0  0  0  0  0  0  0  0  0
    4.8542   -6.3917    0.0000 N   0  0  0  0  0  0  0  0  0  0  0  0
    7.9250   -8.8667    0.0000 N   0  0  0  0  0  0  0  0  0  0  0  0
    5.4667   -6.7500    0.0000 C   0  0  0  0  0  0  0  0  0  0  0  0
    7.0500   -6.8375    0.0000 C   0  0  0  0  0  0  0  0  0  0  0  0
    6.3375   -6.8417    0.0000 C   0  0  0  0  0  0  0  0  0  0  0  0
    7.3042   -8.5167    0.0000 C   0  0  0  0  0  0  0  0  0  0  0  0
    4.8542   -7.8167    0.0000 C   0  0  0  0  0  0  0  0  0  0  0  0
    4.2417   -6.7500    0.0000 C   0  0  0  0  0  0  0  0  0  0  0  0
    8.5375   -8.5167    0.0000 C   0  0  0  0  0  0  0  0  0  0  0  0
    7.9167   -7.4542    0.0000 C   0  0  0  0  0  0  0  0  0  0  0  0
    4.2417   -7.4625    0.0000 C   0  0  0  0  0  0  0  0  0  0  0  0
    8.5292   -7.8042    0.0000 C   0  0  0  0  0  0  0  0  0  0  0  0
  2  1  1  0
  3  1  1  0
  4  1  2  0
  5  2  1  0
  6  8  2  0
  7 11  1  0
  8  3  1  0
  9  2  1  0
 10  2  1  0
 11  5  2  0
 12  3  2  0
 13 16  2  0
 14 17  1  0
 15  5  1  0
 16 12  1  0
 17 15  2  0
 13  6  1  0
 14  7  2  0
M  END
> <chembl_id>
CHEMBL934

> <chembl_pref_name>
METYRAPONE
