
     RDKit          2D

 21 23  0  0  1  0  0  0  0  0999 V2000
    1.4167   -0.7292    0.0000 C   0  0  0  0  0  0  0  0  0  0  0  0
    2.1792    0.9208    0.0000 N   0  0  0  0  0  0  0  0  0  0  0  0
    2.4125   -0.1667    0.0000 C   0  0  0  0  0  0  0  0  0  0  0  0
    0.5917    0.0208    0.0000 C   0  0  0  0  0  0  0  0  0  0  0  0
    1.0625    1.0458    0.0000 C   0  0  0  0  0  0  0  0  0  0  0  0
    3.2375   -0.9375    0.0000 N   0  0  0  0  0  0  0  0  0  0  0  0
    1.6500   -1.8292    0.0000 C   0  0  0  0  0  0  0  0  0  0  0  0
   -2.7500   -0.2750    0.0000 C   0  0  0  0  0  0  0  0  0  0  0  0
    0.4125    1.9708    0.0000 C   0  0  0  0  0  0  0  0  0  0  0  0
   -0.5083   -0.0667    0.0000 C   0  0  0  0  0  0  0  0  0  0  0  0
    2.7667   -1.9625    0.0000 C   0  0  0  0  0  0  0  0  0  0  0  0
   -2.2833    0.7333    0.0000 O   0  0  0  0  0  0  0  0  0  0  0  0
   -1.1625    0.8333    0.0000 C   0  0  0  0  0  0  0  0  0  0  0  0
   -2.1083   -1.1917    0.0000 O   0  0  0  0  0  0  0  0  0  0  0  0
   -3.8833   -0.3792    0.0000 N   0  0  0  0  0  0  0  0  0  0  0  0
    2.9500    1.7458    0.0000 C   0  0  0  0  0  0  0  0  0  0  0  0
    0.4417   -1.2792    0.0000 C   0  0  0  0  0  0  0  0  0  0  0  0
   -0.6875    1.8583    0.0000 C   0  0  0  0  0  0  0  0  0  0  0  0
    4.3417   -0.7125    0.0000 C   0  0  0  0  0  0  0  0  0  0  0  0
   -4.3458   -1.4042    0.0000 C   0  0  0  0  0  0  0  0  0  0  0  0
    3.3917    0.3833    0.0000 H   0  0  0  0  0  0  0  0  0  0  0  0
  2  3  1  0
  3  1  1  0
  4  1  1  0
  5  4  2  0
  6  3  1  0
  7  1  1  0
  8 12  1  0
  9  5  1  0
 10  4  1  0
 11  7  1  0
 12 13  1  0
 13 10  2  0
 14  8  2  0
 15  8  1  0
 16  2  1  0
  1 17  1  6
 18 13  1  0
 19  6  1  0
 20 15  1  0
  3 21  1  6
  6 11  1  0
  5  2  1  0
  9 18  2  0
M  END
> <chembl_id>
CHEMBL94

> <chembl_pref_name>
PHYSOSTIGMINE
