
     RDKit          2D

 13 13  0  0  1  0  0  0  0  0999 V2000
    4.7042   -4.4750    0.0000 C   0  0  0  0  0  0  0  0  0  0  0  0
    4.6917   -5.1792    0.0000 C   0  0  0  0  0  0  0  0  0  0  0  0
    4.0625   -5.5292    0.0000 C   0  0  0  0  0  0  0  0  0  0  0  0
    5.3250   -4.1333    0.0000 C   0  0  0  0  0  0  0  0  0  0  0  0
    3.4542   -5.1625    0.0000 C   0  0  0  0  0  0  0  0  0  0  0  0
    4.1000   -4.1042    0.0000 C   0  0  0  0  0  0  0  0  0  0  0  0
    3.4667   -4.4458    0.0000 C   0  0  0  0  0  0  0  0  0  0  0  0
    5.9250   -4.5000    0.0000 C   0  0  0  0  0  0  0  0  0  0  0  0
    4.0417   -6.2417    0.0000 O   0  0  0  0  0  0  0  0  0  0  0  0
    5.9042   -5.2042    0.0000 N   0  0  0  0  0  0  0  0  0  0  0  0
    5.3375   -3.4250    0.0000 O   0  0  0  0  0  0  0  0  0  0  0  0
    2.8375   -5.5000    0.0000 O   0  0  0  0  0  0  0  0  0  0  0  0
    6.5417   -4.1625    0.0000 C   0  0  0  0  0  0  0  0  0  0  0  0
  2  1  2  0
  3  2  1  0
  4  1  1  0
  5  7  1  0
  6  1  1  0
  7  6  2  0
  8  4  1  0
  9  3  1  0
  8 10  1  6
  4 11  1  1
 12  5  1  0
 13  8  1  0
  5  3  2  0
M  END
> <chembl_id>
CHEMBL677

> <chembl_pref_name>
LEVONORDEFRIN
