
     RDKit          2D

 33 33  0  0  0  0  0  0  0  0999 V2000
    4.4292   -9.3417    0.0000 C   0  0  0  0  0  0  0  0  0  0  0  0
    5.0458   -8.9875    0.0000 N   0  0  0  0  0  0  0  0  0  0  0  0
    3.8167   -8.9875    0.0000 C   0  0  0  0  0  0  0  0  0  0  0  0
    4.7792   -9.9542    0.0000 C   0  0  0  0  0  0  0  0  0  0  0  0
    4.0750   -9.9542    0.0000 C   0  0  0  0  0  0  0  0  0  0  0  0
    0.9458   -8.7833    0.0000 N   0  0  0  0  0  0  0  0  0  0  0  0
    1.3667   -9.3542    0.0000 C   0  0  0  0  0  0  0  0  0  0  0  0
    0.9417   -8.0750    0.0000 C   0  0  0  0  0  0  0  0  0  0  0  0
    0.2708   -9.0042    0.0000 C   0  0  0  0  0  0  0  0  0  0  0  0
    0.9500   -9.9292    0.0000 C   0  0  0  0  0  0  0  0  0  0  0  0
    2.0750   -9.3500    0.0000 C   0  0  0  0  0  0  0  0  0  0  0  0
    1.5458   -7.0042    0.0000 N   0  0  0  0  0  0  0  0  0  0  0  0
    0.2750   -9.7167    0.0000 C   0  0  0  0  0  0  0  0  0  0  0  0
    1.5500   -7.7125    0.0000 C   0  0  0  0  0  0  0  0  0  0  0  0
    2.7708   -6.9958    0.0000 C   0  0  0  0  0  0  0  0  0  0  0  0
    2.1542   -6.6458    0.0000 C   0  0  0  0  0  0  0  0  0  0  0  0
    0.3250   -7.7250    0.0000 O   0  0  0  0  0  0  0  0  0  0  0  0
    2.4250   -8.7375    0.0000 O   0  0  0  0  0  0  0  0  0  0  0  0
    2.7750   -7.7042    0.0000 O   0  0  0  0  0  0  0  0  0  0  0  0
    2.4292   -9.9625    0.0000 O   0  0  0  0  0  0  0  0  0  0  0  0
    3.3833   -6.6375    0.0000 O   0  0  0  0  0  0  0  0  0  0  0  0
   -0.3417   -8.6542    0.0000 C   0  0  0  0  0  0  0  0  0  0  0  0
   -0.3417  -10.0667    0.0000 C   0  0  0  0  0  0  0  0  0  0  0  0
    2.1667   -8.0625    0.0000 C   0  0  0  0  0  0  0  0  0  0  0  0
    2.1500   -5.9375    0.0000 C   0  0  0  0  0  0  0  0  0  0  0  0
    4.0000   -6.9875    0.0000 C   0  0  0  0  0  0  0  0  0  0  0  0
    2.7583   -5.5792    0.0000 C   0  0  0  0  0  0  0  0  0  0  0  0
   -0.9500   -9.0042    0.0000 C   0  0  0  0  0  0  0  0  0  0  0  0
   -0.9500   -9.7167    0.0000 C   0  0  0  0  0  0  0  0  0  0  0  0
    4.6083   -6.6250    0.0000 C   0  0  0  0  0  0  0  0  0  0  0  0
    3.3750   -5.9292    0.0000 C   0  0  0  0  0  0  0  0  0  0  0  0
    0.2667  -10.4250    0.0000 H   0  0  0  0  0  0  0  0  0  0  0  0
    0.2667   -8.3000    0.0000 H   0  0  0  0  0  0  0  0  0  0  0  0
  2  1  1  0
  3  1  1  0
  4  1  1  0
  5  1  1  0
  7  6  1  0
  8  6  1  0
  9  6  1  0
 10  7  1  0
  7 11  1  6
 12 14  1  0
 13  9  1  0
 14  8  1  0
 15 16  1  0
 16 12  1  0
 17  8  2  0
 18 11  2  0
 19 15  2  0
 20 11  1  0
 21 15  1  0
 22  9  1  0
 23 13  1  0
 14 24  1  1
 16 25  1  1
 26 21  1  0
 27 25  1  0
 28 22  1  0
 29 23  1  0
 30 26  1  0
 31 27  1  0
 13 32  1  1
  9 33  1  1
 10 13  1  0
 29 28  1  0
M  END
> <chembl_id>
CHEMBL1200343

> <chembl_pref_name>
PERINDOPRIL ERBUMINE
