
     RDKit          2D

 25 26  0  0  0  0  0  0  0  0999 V2000
    0.7417   -1.8750    0.0000 Cl  0  0  0  0  0  0  0  0  0  0  0  0
    3.5667   -0.8167    0.0000 C   0  0  0  0  0  0  0  0  0  0  0  0
   -1.9708   -1.2000    0.0000 C   0  0  0  0  0  0  0  0  0  0  0  0
   -2.5750   -0.8625    0.0000 C   0  0  0  0  0  0  0  0  0  0  0  0
   -1.3625   -0.8292    0.0000 C   0  0  0  0  0  0  0  0  0  0  0  0
    3.5667   -0.1042    0.0000 C   0  0  0  0  0  0  0  0  0  0  0  0
    4.2375   -1.0375    0.0000 O   0  0  0  0  0  0  0  0  0  0  0  0
    4.2417    0.0875    0.0000 O   0  0  0  0  0  0  0  0  0  0  0  0
    4.6542   -0.4792    0.0000 C   0  0  0  0  0  0  0  0  0  0  0  0
   -2.5958   -0.1417    0.0000 C   0  0  0  0  0  0  0  0  0  0  0  0
    2.9542   -1.1667    0.0000 C   0  0  0  0  0  0  0  0  0  0  0  0
    2.3375   -0.8125    0.0000 C   0  0  0  0  0  0  0  0  0  0  0  0
    0.5000   -1.1625    0.0000 N   0  0  0  0  0  0  0  0  0  0  0  0
   -1.3750   -0.1042    0.0000 C   0  0  0  0  0  0  0  0  0  0  0  0
   -2.0000    0.2333    0.0000 C   0  0  0  0  0  0  0  0  0  0  0  0
   -0.1333   -0.8042    0.0000 C   0  0  0  0  0  0  0  0  0  0  0  0
   -0.7375   -1.1625    0.0000 C   0  0  0  0  0  0  0  0  0  0  0  0
    2.9625    0.2458    0.0000 C   0  0  0  0  0  0  0  0  0  0  0  0
    1.7167   -1.1625    0.0000 C   0  0  0  0  0  0  0  0  0  0  0  0
    2.3417   -0.1042    0.0000 C   0  0  0  0  0  0  0  0  0  0  0  0
   -3.1833   -1.2375    0.0000 O   0  0  0  0  0  0  0  0  0  0  0  0
   -3.2250    0.2125    0.0000 O   0  0  0  0  0  0  0  0  0  0  0  0
   -0.7208   -1.8750    0.0000 O   0  0  0  0  0  0  0  0  0  0  0  0
    1.1125   -0.8125    0.0000 C   0  0  0  0  0  0  0  0  0  0  0  0
    1.1125   -0.0958    0.0000 C   0  0  0  0  0  0  0  0  0  0  0  0
  3  5  1  0
  4  3  2  0
  5 17  1  0
  6  2  1  0
  7  2  1  0
  8  6  1  0
  9  7  1  0
 10 15  2  0
 11  2  2  0
 12 11  1  0
 13 24  1  0
 14  5  2  0
 15 14  1  0
 16 13  1  0
 17 16  1  0
 18  6  2  0
 19 12  1  0
 20 12  2  0
 21  4  1  0
 22 10  1  0
 23 17  1  0
 24 19  1  0
 25 24  1  0
  9  8  1  0
 20 18  1  0
 10  4  1  0
M  END
> <chembl_id>
CHEMBL1200893

> <chembl_pref_name>
PROTOKYLOL HYDROCHLORIDE
