
     RDKit          2D

476502  0  0  0  0  0  0  0  0999 V2000
   -4.4687  -16.5938    0.0000 Na  0  0  0  0  0 15  0  0  0  0  0  0
   43.6130   -6.5132    0.0000 Na  0  0  0  0  0 15  0  0  0  0  0  0
   43.7194  -11.7025    0.0000 Na  0  0  0  0  0 15  0  0  0  0  0  0
   22.1250  -21.5542    0.0000 Na  0  0  0  0  0 15  0  0  0  0  0  0
   43.3965  -16.7662    0.0000 Na  0  0  0  0  0 15  0  0  0  0  0  0
   43.6256  -13.9179    0.0000 Na  0  0  0  0  0 15  0  0  0  0  0  0
   20.1607  -21.4484    0.0000 Na  0  0  0  0  0 15  0  0  0  0  0  0
   17.9874  -21.3181    0.0000 Na  0  0  0  0  0 15  0  0  0  0  0  0
   15.4040  -21.0637    0.0000 Na  0  0  0  0  0 15  0  0  0  0  0  0
    7.0017  -18.9068    0.0000 Na  0  0  0  0  0 15  0  0  0  0  0  0
    4.5752  -18.8729    0.0000 Na  0  0  0  0  0 15  0  0  0  0  0  0
    2.1922  -18.7723    0.0000 Na  0  0  0  0  0 15  0  0  0  0  0  0
  -10.7918  -16.4697    0.0000 Na  0  0  0  0  0 15  0  0  0  0  0  0
   -6.7941  -16.5290    0.0000 Na  0  0  0  0  0 15  0  0  0  0  0  0
   30.3849    2.6831    0.0000 O   0  0  0  0  0  0  0  0  0  0  0  0
   29.6655    3.0939    0.0000 C   0  0  0  0  0  0  0  0  0  0  0  0
   29.6657    3.9216    0.0000 C   0  0  0  0  0  0  0  0  0  0  0  0
   29.0004    4.4059    0.0000 C   0  0  0  0  0  0  0  0  0  0  0  0
   28.2186    4.1457    0.0000 O   0  0  0  0  0  0  0  0  0  0  0  0
   29.2547    5.1879    0.0000 C   0  0  0  0  0  0  0  0  0  0  0  0
   28.7705    5.8593    0.0000 O   0  0  0  0  0  0  0  0  0  0  0  0
   30.0824    5.1879    0.0000 C   0  0  0  0  0  0  0  0  0  0  0  0
   30.3368    4.4059    0.0000 O   0  0  0  0  0  0  0  0  0  0  0  0
   30.5667    5.8593    0.0000 N   0  0  0  0  0  0  0  0  0  0  0  0
   30.2331    6.6211    0.0000 C   0  0  0  0  0  0  0  0  0  0  0  0
   29.4093    6.7023    0.0000 O   0  0  0  0  0  0  0  0  0  0  0  0
   30.7175    7.2779    0.0000 N   0  0  0  0  0  0  0  0  0  0  0  0
   31.5353    7.1966    0.0000 C   0  0  0  0  0  0  0  0  0  0  0  0
   32.0196    7.8653    0.0000 N   0  0  0  0  0  0  0  0  0  0  0  0
   31.8689    6.4468    0.0000 C   0  0  0  0  0  0  0  0  0  0  0  0
   31.3905    5.7721    0.0000 C   0  0  0  0  0  0  0  0  0  0  0  0
   32.6927    6.3536    0.0000 C   0  0  0  0  0  0  0  0  0  0  0  0
   27.9525    5.7721    0.0000 C   0  0  0  0  0  0  0  0  0  0  0  0
   27.6130    5.0169    0.0000 C   0  0  0  0  0  0  0  0  0  0  0  0
   26.7951    4.9254    0.0000 O   0  0  0  0  0  0  0  0  0  0  0  0
   26.4556    4.1747    0.0000 C   0  0  0  0  0  0  0  0  0  0  0  0
   33.4727    0.4119    0.0000 O   0  0  0  0  0  0  0  0  0  0  0  0
   32.8883    0.9962    0.0000 C   0  0  0  0  0  0  0  0  0  0  0  0
   33.1006    1.7928    0.0000 C   0  0  0  0  0  0  0  0  0  0  0  0
   32.5778    2.4367    0.0000 C   0  0  0  0  0  0  0  0  0  0  0  0
   31.5092    2.3805    0.0000 S   0  0  0  0  0  0  0  0  0  0  0  0
   33.0327    3.1309    0.0000 C   0  0  0  0  0  0  0  0  0  0  0  0
   32.7319    3.8995    0.0000 O   0  0  0  0  0  0  0  0  0  0  0  0
   33.8292    2.9127    0.0000 C   0  0  0  0  0  0  0  0  0  0  0  0
   33.8691    2.0876    0.0000 O   0  0  0  0  0  0  0  0  0  0  0  0
   34.4672    3.4355    0.0000 N   0  0  0  0  0  0  0  0  0  0  0  0
   34.3426    4.2472    0.0000 C   0  0  0  0  0  0  0  0  0  0  0  0
   33.5680    4.5420    0.0000 O   0  0  0  0  0  0  0  0  0  0  0  0
   34.9805    4.7639    0.0000 N   0  0  0  0  0  0  0  0  0  0  0  0
   35.7492    4.4691    0.0000 C   0  0  0  0  0  0  0  0  0  0  0  0
   36.3931    4.9919    0.0000 N   0  0  0  0  0  0  0  0  0  0  0  0
   35.8797    3.6575    0.0000 C   0  0  0  0  0  0  0  0  0  0  0  0
   35.2417    3.1348    0.0000 C   0  0  0  0  0  0  0  0  0  0  0  0
   31.0983    3.0939    0.0000 P   0  0  0  0  0  0  0  0  0  0  0  0
   30.6874    3.8073    0.0000 O   0  0  0  0  0  0  0  0  0  0  0  0
   31.8117    3.5048    0.0000 O   0  0  0  0  0  0  0  0  0  0  0  0
   36.6482    3.3627    0.0000 C   0  0  0  0  0  0  0  0  0  0  0  0
   33.2546    4.5374    0.0000 C   0  0  0  0  0  0  0  0  0  0  0  0
   32.9598    5.3060    0.0000 C   0  0  0  0  0  0  0  0  0  0  0  0
   32.1422    5.4366    0.0000 O   0  0  0  0  0  0  0  0  0  0  0  0
   31.6255    4.7987    0.0000 C   0  0  0  0  0  0  0  0  0  0  0  0
   35.3395   -2.6836    0.0000 O   0  0  0  0  0  0  0  0  0  0  0  0
   35.0059   -1.9271    0.0000 C   0  0  0  0  0  0  0  0  0  0  0  0
   35.4902   -1.2620    0.0000 C   0  0  0  0  0  0  0  0  0  0  0  0
   35.2360   -0.4740    0.0000 C   0  0  0  0  0  0  0  0  0  0  0  0
   34.4480   -0.2198    0.0000 S   0  0  0  0  0  0  0  0  0  0  0  0
   35.9011    0.0103    0.0000 C   0  0  0  0  0  0  0  0  0  0  0  0
   35.9011    0.8320    0.0000 O   0  0  0  0  0  0  0  0  0  0  0  0
   36.5662   -0.4740    0.0000 C   0  0  0  0  0  0  0  0  0  0  0  0
   36.3120   -1.2620    0.0000 O   0  0  0  0  0  0  0  0  0  0  0  0
   37.3542   -0.2198    0.0000 N   0  0  0  0  0  0  0  0  0  0  0  0
   37.6084    0.5622    0.0000 C   0  0  0  0  0  0  0  0  0  0  0  0
   38.4301    0.5622    0.0000 N   0  0  0  0  0  0  0  0  0  0  0  0
   38.6903   -0.2198    0.0000 C   0  0  0  0  0  0  0  0  0  0  0  0
   39.4410   -0.5593    0.0000 C   0  0  0  0  0  0  0  0  0  0  0  0
   40.1061   -0.0750    0.0000 N   0  0  0  0  0  0  0  0  0  0  0  0
   39.5265   -1.3772    0.0000 N   0  0  0  0  0  0  0  0  0  0  0  0
   38.8614   -1.8615    0.0000 C   0  0  0  0  0  0  0  0  0  0  0  0
   38.1047   -1.5280    0.0000 N   0  0  0  0  0  0  0  0  0  0  0  0
   38.0193   -0.7041    0.0000 C   0  0  0  0  0  0  0  0  0  0  0  0
   34.2791    0.5868    0.0000 P   0  0  0  0  0  0  0  0  0  0  0  0
   34.1042    1.3932    0.0000 O   0  0  0  0  0  0  0  0  0  0  0  0
   35.0857    0.7557    0.0000 O   0  0  0  0  0  0  0  0  0  0  0  0
   36.6145    1.2487    0.0000 C   0  0  0  0  0  0  0  0  0  0  0  0
   36.6145    2.0704    0.0000 C   0  0  0  0  0  0  0  0  0  0  0  0
   37.3339    2.4813    0.0000 O   0  0  0  0  0  0  0  0  0  0  0  0
   37.3339    3.3090    0.0000 C   0  0  0  0  0  0  0  0  0  0  0  0
   35.4442   -6.1280    0.0000 O   0  0  0  0  0  0  0  0  0  0  0  0
   35.6986   -5.3460    0.0000 C   0  0  0  0  0  0  0  0  0  0  0  0
   35.1464   -4.7331    0.0000 C   0  0  0  0  0  0  0  0  0  0  0  0
   35.3212   -3.9206    0.0000 C   0  0  0  0  0  0  0  0  0  0  0  0
   36.0719   -3.5871    0.0000 S   0  0  0  0  0  0  0  0  0  0  0  0
   34.6019   -3.5098    0.0000 C   0  0  0  0  0  0  0  0  0  0  0  0
   34.5223   -2.6919    0.0000 O   0  0  0  0  0  0  0  0  0  0  0  0
   33.9889   -4.0620    0.0000 C   0  0  0  0  0  0  0  0  0  0  0  0
   34.3284   -4.8185    0.0000 O   0  0  0  0  0  0  0  0  0  0  0  0
   33.1884   -3.8931    0.0000 N   0  0  0  0  0  0  0  0  0  0  0  0
   32.6363   -4.5060    0.0000 C   0  0  0  0  0  0  0  0  0  0  0  0
   32.8905   -5.2880    0.0000 O   0  0  0  0  0  0  0  0  0  0  0  0
   31.8237   -4.3311    0.0000 N   0  0  0  0  0  0  0  0  0  0  0  0
   31.5755   -3.5492    0.0000 C   0  0  0  0  0  0  0  0  0  0  0  0
   30.7629   -3.3802    0.0000 N   0  0  0  0  0  0  0  0  0  0  0  0
   32.1217   -2.9362    0.0000 C   0  0  0  0  0  0  0  0  0  0  0  0
   32.9282   -3.1052    0.0000 C   0  0  0  0  0  0  0  0  0  0  0  0
   36.1573   -2.7691    0.0000 P   0  0  0  0  0  0  0  0  0  0  0  0
   36.2488   -1.9454    0.0000 O   0  0  0  0  0  0  0  0  0  0  0  0
   36.9812   -2.8547    0.0000 O   0  0  0  0  0  0  0  0  0  0  0  0
   31.8674   -2.1543    0.0000 C   0  0  0  0  0  0  0  0  0  0  0  0
   33.7478   -2.3971    0.0000 C   0  0  0  0  0  0  0  0  0  0  0  0
   33.6232   -1.5795    0.0000 C   0  0  0  0  0  0  0  0  0  0  0  0
   32.8488   -1.2847    0.0000 O   0  0  0  0  0  0  0  0  0  0  0  0
   32.7241   -0.4672    0.0000 C   0  0  0  0  0  0  0  0  0  0  0  0
   35.7409   -9.5509    0.0000 O   0  0  0  0  0  0  0  0  0  0  0  0
   35.3646   -8.8166    0.0000 C   0  0  0  0  0  0  0  0  0  0  0  0
   35.8489   -8.1455    0.0000 C   0  0  0  0  0  0  0  0  0  0  0  0
   35.5946   -7.3637    0.0000 C   0  0  0  0  0  0  0  0  0  0  0  0
   34.8127   -7.1093    0.0000 S   0  0  0  0  0  0  0  0  0  0  0  0
   36.2598   -6.8734    0.0000 C   0  0  0  0  0  0  0  0  0  0  0  0
   36.2598   -6.0517    0.0000 O   0  0  0  0  0  0  0  0  0  0  0  0
   36.9309   -7.3637    0.0000 C   0  0  0  0  0  0  0  0  0  0  0  0
   36.6765   -8.1455    0.0000 O   0  0  0  0  0  0  0  0  0  0  0  0
   37.7127   -7.1093    0.0000 N   0  0  0  0  0  0  0  0  0  0  0  0
   37.9671   -6.3215    0.0000 C   0  0  0  0  0  0  0  0  0  0  0  0
   38.7947   -6.3215    0.0000 N   0  0  0  0  0  0  0  0  0  0  0  0
   39.0490   -7.1093    0.0000 C   0  0  0  0  0  0  0  0  0  0  0  0
   39.7996   -7.4430    0.0000 C   0  0  0  0  0  0  0  0  0  0  0  0
   40.4707   -6.9587    0.0000 O   0  0  0  0  0  0  0  0  0  0  0  0
   39.8852   -8.2608    0.0000 N   0  0  0  0  0  0  0  0  0  0  0  0
   39.2200   -8.7452    0.0000 C   0  0  0  0  0  0  0  0  0  0  0  0
   39.3054   -9.5690    0.0000 N   0  0  0  0  0  0  0  0  0  0  0  0
   38.4694   -8.4115    0.0000 N   0  0  0  0  0  0  0  0  0  0  0  0
   38.3780   -7.5936    0.0000 C   0  0  0  0  0  0  0  0  0  0  0  0
   34.6378   -6.2969    0.0000 P   0  0  0  0  0  0  0  0  0  0  0  0
   34.4689   -5.4905    0.0000 O   0  0  0  0  0  0  0  0  0  0  0  0
   33.8312   -6.4718    0.0000 O   0  0  0  0  0  0  0  0  0  0  0  0
   36.9732   -5.6408    0.0000 C   0  0  0  0  0  0  0  0  0  0  0  0
   36.9732   -4.8131    0.0000 C   0  0  0  0  0  0  0  0  0  0  0  0
   37.6866   -4.4022    0.0000 O   0  0  0  0  0  0  0  0  0  0  0  0
   37.6866   -3.5747    0.0000 C   0  0  0  0  0  0  0  0  0  0  0  0
   32.2481   -8.6391    0.0000 O   0  0  0  0  0  0  0  0  0  0  0  0
   32.9987   -8.9787    0.0000 C   0  0  0  0  0  0  0  0  0  0  0  0
   33.1293   -9.7902    0.0000 C   0  0  0  0  0  0  0  0  0  0  0  0
   33.8635  -10.1665    0.0000 C   0  0  0  0  0  0  0  0  0  0  0  0
   34.5976   -9.7902    0.0000 S   0  0  0  0  0  0  0  0  0  0  0  0
   33.7329  -10.9782    0.0000 C   0  0  0  0  0  0  0  0  0  0  0  0
   32.9212  -11.1088    0.0000 C   0  0  0  0  0  0  0  0  0  0  0  0
   32.5449  -10.3746    0.0000 O   0  0  0  0  0  0  0  0  0  0  0  0
   32.5449  -11.8429    0.0000 N   0  0  0  0  0  0  0  0  0  0  0  0
   32.9938  -12.5373    0.0000 C   0  0  0  0  0  0  0  0  0  0  0  0
   33.8191  -12.4915    0.0000 O   0  0  0  0  0  0  0  0  0  0  0  0
   32.6175  -13.2714    0.0000 N   0  0  0  0  0  0  0  0  0  0  0  0
   31.7924  -13.3173    0.0000 C   0  0  0  0  0  0  0  0  0  0  0  0
   31.4220  -14.0516    0.0000 N   0  0  0  0  0  0  0  0  0  0  0  0
   31.3494  -12.6231    0.0000 C   0  0  0  0  0  0  0  0  0  0  0  0
   31.7198  -11.8888    0.0000 C   0  0  0  0  0  0  0  0  0  0  0  0
   35.2860  -10.2392    0.0000 P   0  0  0  0  0  0  0  0  0  0  0  0
   35.9803  -10.6941    0.0000 O   0  0  0  0  0  0  0  0  0  0  0  0
   34.8430  -10.9335    0.0000 O   0  0  0  0  0  0  0  0  0  0  0  0
   30.5242  -12.6689    0.0000 C   0  0  0  0  0  0  0  0  0  0  0  0
   29.7072  -10.6790    0.0000 O   0  0  0  0  0  0  0  0  0  0  0  0
   30.1976  -10.0137    0.0000 C   0  0  0  0  0  0  0  0  0  0  0  0
   29.8580   -9.2572    0.0000 C   0  0  0  0  0  0  0  0  0  0  0  0
   30.2747   -8.5438    0.0000 C   0  0  0  0  0  0  0  0  0  0  0  0
   31.0927   -8.4583    0.0000 S   0  0  0  0  0  0  0  0  0  0  0  0
   29.7225   -7.9309    0.0000 C   0  0  0  0  0  0  0  0  0  0  0  0
   28.9660   -8.2703    0.0000 C   0  0  0  0  0  0  0  0  0  0  0  0
   29.0575   -9.0883    0.0000 O   0  0  0  0  0  0  0  0  0  0  0  0
   28.2526   -7.8536    0.0000 N   0  0  0  0  0  0  0  0  0  0  0  0
   27.5392   -8.2703    0.0000 C   0  0  0  0  0  0  0  0  0  0  0  0
   27.5392   -9.0920    0.0000 O   0  0  0  0  0  0  0  0  0  0  0  0
   26.8198   -7.8536    0.0000 N   0  0  0  0  0  0  0  0  0  0  0  0
   26.8198   -7.0319    0.0000 C   0  0  0  0  0  0  0  0  0  0  0  0
   26.1064   -6.6210    0.0000 O   0  0  0  0  0  0  0  0  0  0  0  0
   27.5392   -6.6210    0.0000 C   0  0  0  0  0  0  0  0  0  0  0  0
   27.5392   -5.7933    0.0000 C   0  0  0  0  0  0  0  0  0  0  0  0
   28.2526   -7.0319    0.0000 C   0  0  0  0  0  0  0  0  0  0  0  0
   31.5770   -9.1234    0.0000 P   0  0  0  0  0  0  0  0  0  0  0  0
   30.9118   -9.6077    0.0000 O   0  0  0  0  0  0  0  0  0  0  0  0
   32.0613   -9.7945    0.0000 O   0  0  0  0  0  0  0  0  0  0  0  0
   26.5057  -10.0530    0.0000 O   0  0  0  0  0  0  0  0  0  0  0  0
   27.2623  -10.3866    0.0000 C   0  0  0  0  0  0  0  0  0  0  0  0
   27.3021  -11.2117    0.0000 C   0  0  0  0  0  0  0  0  0  0  0  0
   27.9965  -11.6607    0.0000 C   0  0  0  0  0  0  0  0  0  0  0  0
   28.7651  -11.3659    0.0000 S   0  0  0  0  0  0  0  0  0  0  0  0
   27.7842  -12.4573    0.0000 C   0  0  0  0  0  0  0  0  0  0  0  0
   26.9590  -12.5032    0.0000 C   0  0  0  0  0  0  0  0  0  0  0  0
   26.6642  -11.7346    0.0000 O   0  0  0  0  0  0  0  0  0  0  0  0
   26.5101  -13.1914    0.0000 N   0  0  0  0  0  0  0  0  0  0  0  0
   26.8864  -13.9317    0.0000 C   0  0  0  0  0  0  0  0  0  0  0  0
   27.7116  -13.9715    0.0000 O   0  0  0  0  0  0  0  0  0  0  0  0
   26.4374  -14.6199    0.0000 N   0  0  0  0  0  0  0  0  0  0  0  0
   25.6123  -14.5742    0.0000 C   0  0  0  0  0  0  0  0  0  0  0  0
   25.1634  -15.2684    0.0000 O   0  0  0  0  0  0  0  0  0  0  0  0
   25.2360  -13.8399    0.0000 C   0  0  0  0  0  0  0  0  0  0  0  0
   24.4107  -13.8000    0.0000 C   0  0  0  0  0  0  0  0  0  0  0  0
   25.6849  -13.1515    0.0000 C   0  0  0  0  0  0  0  0  0  0  0  0
   28.8955  -10.5484    0.0000 P   0  0  0  0  0  0  0  0  0  0  0  0
   28.0780  -10.4237    0.0000 O   0  0  0  0  0  0  0  0  0  0  0  0
   29.0262   -9.7366    0.0000 O   0  0  0  0  0  0  0  0  0  0  0  0
   23.9767  -12.0927    0.0000 O   0  0  0  0  0  0  0  0  0  0  0  0
   24.4552  -11.4217    0.0000 C   0  0  0  0  0  0  0  0  0  0  0  0
   24.1215  -10.6711    0.0000 C   0  0  0  0  0  0  0  0  0  0  0  0
   24.5323   -9.9577    0.0000 C   0  0  0  0  0  0  0  0  0  0  0  0
   25.3562   -9.8721    0.0000 S   0  0  0  0  0  0  0  0  0  0  0  0
   23.9801   -9.3447    0.0000 C   0  0  0  0  0  0  0  0  0  0  0  0
   23.2296   -9.6783    0.0000 C   0  0  0  0  0  0  0  0  0  0  0  0
   23.3150  -10.5021    0.0000 O   0  0  0  0  0  0  0  0  0  0  0  0
   22.5162   -9.2673    0.0000 N   0  0  0  0  0  0  0  0  0  0  0  0
   22.5162   -8.4398    0.0000 C   0  0  0  0  0  0  0  0  0  0  0  0
   23.2296   -8.0289    0.0000 O   0  0  0  0  0  0  0  0  0  0  0  0
   21.8028   -8.0289    0.0000 N   0  0  0  0  0  0  0  0  0  0  0  0
   21.0894   -8.4398    0.0000 C   0  0  0  0  0  0  0  0  0  0  0  0
   20.3760   -8.0289    0.0000 N   0  0  0  0  0  0  0  0  0  0  0  0
   21.0894   -9.2673    0.0000 C   0  0  0  0  0  0  0  0  0  0  0  0
   21.8028   -9.6783    0.0000 C   0  0  0  0  0  0  0  0  0  0  0  0
   25.8405  -10.5373    0.0000 P   0  0  0  0  0  0  0  0  0  0  0  0
   25.1694  -11.0217    0.0000 O   0  0  0  0  0  0  0  0  0  0  0  0
   26.3248  -11.2024    0.0000 O   0  0  0  0  0  0  0  0  0  0  0  0
   20.3760   -9.6782    0.0000 C   0  0  0  0  0  0  0  0  0  0  0  0
   20.7693  -11.4668    0.0000 O   0  0  0  0  0  0  0  0  0  0  0  0
   21.5259  -11.8005    0.0000 C   0  0  0  0  0  0  0  0  0  0  0  0
   21.5717  -12.6256    0.0000 C   0  0  0  0  0  0  0  0  0  0  0  0
   22.2600  -13.0747    0.0000 C   0  0  0  0  0  0  0  0  0  0  0  0
   23.0287  -12.7738    0.0000 S   0  0  0  0  0  0  0  0  0  0  0  0
   22.0477  -13.8712    0.0000 C   0  0  0  0  0  0  0  0  0  0  0  0
   21.2226  -13.9111    0.0000 C   0  0  0  0  0  0  0  0  0  0  0  0
   20.9278  -13.1425    0.0000 O   0  0  0  0  0  0  0  0  0  0  0  0
   20.7736  -14.6053    0.0000 N   0  0  0  0  0  0  0  0  0  0  0  0
   19.9485  -14.6452    0.0000 C   0  0  0  0  0  0  0  0  0  0  0  0
   19.7362  -15.4418    0.0000 N   0  0  0  0  0  0  0  0  0  0  0  0
   20.4245  -15.8966    0.0000 C   0  0  0  0  0  0  0  0  0  0  0  0
   20.5551  -16.7083    0.0000 C   0  0  0  0  0  0  0  0  0  0  0  0
   19.9172  -17.2311    0.0000 O   0  0  0  0  0  0  0  0  0  0  0  0
   21.3236  -17.0032    0.0000 N   0  0  0  0  0  0  0  0  0  0  0  0
   21.9676  -16.4863    0.0000 C   0  0  0  0  0  0  0  0  0  0  0  0
   22.7361  -16.7811    0.0000 N   0  0  0  0  0  0  0  0  0  0  0  0
   21.8370  -15.6687    0.0000 N   0  0  0  0  0  0  0  0  0  0  0  0
   21.0684  -15.3739    0.0000 C   0  0  0  0  0  0  0  0  0  0  0  0
   23.1591  -11.9623    0.0000 P   0  0  0  0  0  0  0  0  0  0  0  0
   22.3416  -11.8317    0.0000 O   0  0  0  0  0  0  0  0  0  0  0  0
   23.2897  -11.1506    0.0000 O   0  0  0  0  0  0  0  0  0  0  0  0
   18.2344  -13.5007    0.0000 O   0  0  0  0  0  0  0  0  0  0  0  0
   18.7246  -12.8356    0.0000 C   0  0  0  0  0  0  0  0  0  0  0  0
   18.3851  -12.0849    0.0000 C   0  0  0  0  0  0  0  0  0  0  0  0
   18.7959  -11.3715    0.0000 C   0  0  0  0  0  0  0  0  0  0  0  0
   19.6198  -11.2800    0.0000 S   0  0  0  0  0  0  0  0  0  0  0  0
   18.2497  -10.7586    0.0000 C   0  0  0  0  0  0  0  0  0  0  0  0
   17.4932  -11.0921    0.0000 C   0  0  0  0  0  0  0  0  0  0  0  0
   17.5786  -11.9100    0.0000 O   0  0  0  0  0  0  0  0  0  0  0  0
   16.7798  -10.6813    0.0000 N   0  0  0  0  0  0  0  0  0  0  0  0
   16.0604  -11.0921    0.0000 C   0  0  0  0  0  0  0  0  0  0  0  0
   16.0604  -11.9138    0.0000 O   0  0  0  0  0  0  0  0  0  0  0  0
   15.3470  -10.6813    0.0000 N   0  0  0  0  0  0  0  0  0  0  0  0
   15.3470   -9.8537    0.0000 C   0  0  0  0  0  0  0  0  0  0  0  0
   14.6336   -9.4428    0.0000 O   0  0  0  0  0  0  0  0  0  0  0  0
   16.0604   -9.4428    0.0000 C   0  0  0  0  0  0  0  0  0  0  0  0
   16.0604   -8.6151    0.0000 C   0  0  0  0  0  0  0  0  0  0  0  0
   16.7798   -9.8537    0.0000 C   0  0  0  0  0  0  0  0  0  0  0  0
   20.1041  -11.9453    0.0000 P   0  0  0  0  0  0  0  0  0  0  0  0
   19.4390  -12.4354    0.0000 O   0  0  0  0  0  0  0  0  0  0  0  0
   20.5884  -12.6164    0.0000 O   0  0  0  0  0  0  0  0  0  0  0  0
   15.0328  -12.8749    0.0000 O   0  0  0  0  0  0  0  0  0  0  0  0
   15.7894  -13.2084    0.0000 C   0  0  0  0  0  0  0  0  0  0  0  0
   15.8293  -14.0396    0.0000 C   0  0  0  0  0  0  0  0  0  0  0  0
   16.5236  -14.4826    0.0000 C   0  0  0  0  0  0  0  0  0  0  0  0
   17.2921  -14.1878    0.0000 S   0  0  0  0  0  0  0  0  0  0  0  0
   16.3113  -15.2791    0.0000 C   0  0  0  0  0  0  0  0  0  0  0  0
   15.4861  -15.3250    0.0000 C   0  0  0  0  0  0  0  0  0  0  0  0
   15.1914  -14.5563    0.0000 O   0  0  0  0  0  0  0  0  0  0  0  0
   15.0372  -16.0132    0.0000 N   0  0  0  0  0  0  0  0  0  0  0  0
   15.4135  -16.7535    0.0000 C   0  0  0  0  0  0  0  0  0  0  0  0
   16.2327  -16.7934    0.0000 O   0  0  0  0  0  0  0  0  0  0  0  0
   14.9586  -17.4417    0.0000 N   0  0  0  0  0  0  0  0  0  0  0  0
   14.1394  -17.4019    0.0000 C   0  0  0  0  0  0  0  0  0  0  0  0
   13.6846  -18.0902    0.0000 N   0  0  0  0  0  0  0  0  0  0  0  0
   13.7630  -16.6617    0.0000 C   0  0  0  0  0  0  0  0  0  0  0  0
   14.2120  -15.9734    0.0000 C   0  0  0  0  0  0  0  0  0  0  0  0
   17.4227  -13.3760    0.0000 P   0  0  0  0  0  0  0  0  0  0  0  0
   16.6052  -13.2456    0.0000 O   0  0  0  0  0  0  0  0  0  0  0  0
   17.5533  -12.5585    0.0000 O   0  0  0  0  0  0  0  0  0  0  0  0
   12.9379  -16.6219    0.0000 C   0  0  0  0  0  0  0  0  0  0  0  0
   12.0693  -10.8077    0.0000 O   0  0  0  0  0  0  0  0  0  0  0  0
   12.6822  -11.3601    0.0000 C   0  0  0  0  0  0  0  0  0  0  0  0
   12.5073  -12.1665    0.0000 C   0  0  0  0  0  0  0  0  0  0  0  0
   13.0595  -12.7794    0.0000 C   0  0  0  0  0  0  0  0  0  0  0  0
   13.8834  -12.6940    0.0000 S   0  0  0  0  0  0  0  0  0  0  0  0
   12.6486  -13.4928    0.0000 C   0  0  0  0  0  0  0  0  0  0  0  0
   11.8422  -13.3239    0.0000 C   0  0  0  0  0  0  0  0  0  0  0  0
   11.7566  -12.5000    0.0000 O   0  0  0  0  0  0  0  0  0  0  0  0
   11.2292  -13.8761    0.0000 N   0  0  0  0  0  0  0  0  0  0  0  0
   11.3982  -14.6826    0.0000 C   0  0  0  0  0  0  0  0  0  0  0  0
   12.1861  -14.9369    0.0000 O   0  0  0  0  0  0  0  0  0  0  0  0
   10.7851  -15.2348    0.0000 N   0  0  0  0  0  0  0  0  0  0  0  0
   10.0033  -14.9806    0.0000 C   0  0  0  0  0  0  0  0  0  0  0  0
    9.3902  -15.5328    0.0000 O   0  0  0  0  0  0  0  0  0  0  0  0
    9.8342  -14.1740    0.0000 C   0  0  0  0  0  0  0  0  0  0  0  0
    9.0464  -13.9198    0.0000 C   0  0  0  0  0  0  0  0  0  0  0  0
   10.4473  -13.6218    0.0000 C   0  0  0  0  0  0  0  0  0  0  0  0
   14.3677  -13.3592    0.0000 P   0  0  0  0  0  0  0  0  0  0  0  0
   13.6966  -13.8493    0.0000 O   0  0  0  0  0  0  0  0  0  0  0  0
   14.8520  -14.0303    0.0000 O   0  0  0  0  0  0  0  0  0  0  0  0
    9.4394  -10.6301    0.0000 O   0  0  0  0  0  0  0  0  0  0  0  0
    9.3276   -9.5652    0.0000 C   0  0  0  0  0  0  0  0  0  0  0  0
   10.3954   -8.7902    0.0000 C   0  0  0  0  0  0  0  0  0  0  0  0
   11.1774   -9.0445    0.0000 C   0  0  0  0  0  0  0  0  0  0  0  0
   11.4317   -9.8264    0.0000 S   0  0  0  0  0  0  0  0  0  0  0  0
   11.6617   -8.3793    0.0000 C   0  0  0  0  0  0  0  0  0  0  0  0
   11.1774   -7.7082    0.0000 C   0  0  0  0  0  0  0  0  0  0  0  0
   10.3954   -7.9626    0.0000 O   0  0  0  0  0  0  0  0  0  0  0  0
   11.5080   -6.6906    0.0000 N   0  0  0  0  0  0  0  0  0  0  0  0
   12.2958   -6.4362    0.0000 C   0  0  0  0  0  0  0  0  0  0  0  0
   12.2958   -5.6145    0.0000 N   0  0  0  0  0  0  0  0  0  0  0  0
   11.5080   -5.3543    0.0000 C   0  0  0  0  0  0  0  0  0  0  0  0
   11.1744   -4.6037    0.0000 C   0  0  0  0  0  0  0  0  0  0  0  0
   11.6587   -3.9326    0.0000 O   0  0  0  0  0  0  0  0  0  0  0  0
   10.3506   -4.5181    0.0000 N   0  0  0  0  0  0  0  0  0  0  0  0
    9.8723   -5.1834    0.0000 C   0  0  0  0  0  0  0  0  0  0  0  0
    9.0484   -5.0979    0.0000 N   0  0  0  0  0  0  0  0  0  0  0  0
   10.2058   -5.9399    0.0000 N   0  0  0  0  0  0  0  0  0  0  0  0
   11.0237   -6.0254    0.0000 C   0  0  0  0  0  0  0  0  0  0  0  0
   12.2382  -10.0013    0.0000 P   0  0  0  0  0  0  0  0  0  0  0  0
   12.4131   -9.1947    0.0000 O   0  0  0  0  0  0  0  0  0  0  0  0
   13.0446  -10.1702    0.0000 O   0  0  0  0  0  0  0  0  0  0  0  0
    7.6964  -10.0879    0.0000 O   0  0  0  0  0  0  0  0  0  0  0  0
    8.3093  -10.6401    0.0000 C   0  0  0  0  0  0  0  0  0  0  0  0
    8.1344  -11.4467    0.0000 C   0  0  0  0  0  0  0  0  0  0  0  0
    8.6867  -12.0596    0.0000 C   0  0  0  0  0  0  0  0  0  0  0  0
    9.7577  -11.9478    0.0000 S   0  0  0  0  0  0  0  0  0  0  0  0
    8.2759  -12.7730    0.0000 C   0  0  0  0  0  0  0  0  0  0  0  0
    7.4693  -12.6041    0.0000 C   0  0  0  0  0  0  0  0  0  0  0  0
    7.3838  -11.7802    0.0000 O   0  0  0  0  0  0  0  0  0  0  0  0
    6.8564  -13.1563    0.0000 N   0  0  0  0  0  0  0  0  0  0  0  0
    6.9418  -13.9741    0.0000 C   0  0  0  0  0  0  0  0  0  0  0  0
    6.1911  -14.3137    0.0000 N   0  0  0  0  0  0  0  0  0  0  0  0
    5.6331  -13.7007    0.0000 C   0  0  0  0  0  0  0  0  0  0  0  0
    4.8114  -13.7007    0.0000 C   0  0  0  0  0  0  0  0  0  0  0  0
    4.4005  -14.4141    0.0000 N   0  0  0  0  0  0  0  0  0  0  0  0
    4.4005  -12.9813    0.0000 N   0  0  0  0  0  0  0  0  0  0  0  0
    4.8114  -12.2679    0.0000 C   0  0  0  0  0  0  0  0  0  0  0  0
    5.6331  -12.2679    0.0000 N   0  0  0  0  0  0  0  0  0  0  0  0
    6.0498  -12.9813    0.0000 C   0  0  0  0  0  0  0  0  0  0  0  0
   10.1901  -10.9696    0.0000 P   0  0  0  0  0  0  0  0  0  0  0  0
   10.9466  -11.3032    0.0000 O   0  0  0  0  0  0  0  0  0  0  0  0
   10.5236  -10.2131    0.0000 O   0  0  0  0  0  0  0  0  0  0  0  0
    3.9631   -8.1067    0.0000 O   0  0  0  0  0  0  0  0  0  0  0  0
    4.7352   -8.3978    0.0000 C   0  0  0  0  0  0  0  0  0  0  0  0
    5.3727   -7.8729    0.0000 C   0  0  0  0  0  0  0  0  0  0  0  0
    6.1718   -8.0809    0.0000 C   0  0  0  0  0  0  0  0  0  0  0  0
    6.5583   -9.0830    0.0000 S   0  0  0  0  0  0  0  0  0  0  0  0
    6.6180   -7.3870    0.0000 C   0  0  0  0  0  0  0  0  0  0  0  0
    7.6859   -7.3294    0.0000 O   0  0  0  0  0  0  0  0  0  0  0  0
    6.0931   -6.7496    0.0000 C   0  0  0  0  0  0  0  0  0  0  0  0
    5.3283   -7.0541    0.0000 O   0  0  0  0  0  0  0  0  0  0  0  0
    6.3036   -5.9541    0.0000 N   0  0  0  0  0  0  0  0  0  0  0  0
    7.0989   -5.7304    0.0000 C   0  0  0  0  0  0  0  0  0  0  0  0
    7.6831   -6.3147    0.0000 O   0  0  0  0  0  0  0  0  0  0  0  0
    7.3057   -4.9386    0.0000 N   0  0  0  0  0  0  0  0  0  0  0  0
    6.7213   -4.3542    0.0000 C   0  0  0  0  0  0  0  0  0  0  0  0
    6.9258   -3.5587    0.0000 N   0  0  0  0  0  0  0  0  0  0  0  0
    5.9200   -4.5779    0.0000 C   0  0  0  0  0  0  0  0  0  0  0  0
    5.7193   -5.3697    0.0000 C   0  0  0  0  0  0  0  0  0  0  0  0
    7.8653   -9.2815    0.0000 P   0  0  0  0  0  0  0  0  0  0  0  0
    8.1334   -8.5001    0.0000 O   0  0  0  0  0  0  0  0  0  0  0  0
    8.6591   -9.4977    0.0000 O   0  0  0  0  0  0  0  0  0  0  0  0
    5.3358   -3.9935    0.0000 C   0  0  0  0  0  0  0  0  0  0  0  0
    8.1435   -8.0181    0.0000 C   0  0  0  0  0  0  0  0  0  0  0  0
    8.9622   -7.9677    0.0000 C   0  0  0  0  0  0  0  0  0  0  0  0
    9.3352   -7.2288    0.0000 O   0  0  0  0  0  0  0  0  0  0  0  0
   10.1598   -7.1845    0.0000 C   0  0  0  0  0  0  0  0  0  0  0  0
    0.4027   -7.4910    0.0000 O   0  0  0  0  0  0  0  0  0  0  0  0
    1.2226   -7.5266    0.0000 C   0  0  0  0  0  0  0  0  0  0  0  0
    1.6686   -6.8385    0.0000 C   0  0  0  0  0  0  0  0  0  0  0  0
    2.4933   -6.7882    0.0000 C   0  0  0  0  0  0  0  0  0  0  0  0
    3.0182   -7.4256    0.0000 S   0  0  0  0  0  0  0  0  0  0  0  0
    2.7015   -5.9891    0.0000 C   0  0  0  0  0  0  0  0  0  0  0  0
    3.4662   -5.6905    0.0000 O   0  0  0  0  0  0  0  0  0  0  0  0
    2.0074   -5.5429    0.0000 C   0  0  0  0  0  0  0  0  0  0  0  0
    1.3700   -6.0678    0.0000 O   0  0  0  0  0  0  0  0  0  0  0  0
    1.9572   -4.7182    0.0000 N   0  0  0  0  0  0  0  0  0  0  0  0
    1.2243   -4.3512    0.0000 C   0  0  0  0  0  0  0  0  0  0  0  0
    0.5356   -4.8028    0.0000 O   0  0  0  0  0  0  0  0  0  0  0  0
    1.1740   -3.5265    0.0000 N   0  0  0  0  0  0  0  0  0  0  0  0
    1.8626   -3.0749    0.0000 C   0  0  0  0  0  0  0  0  0  0  0  0
    1.8123   -2.2502    0.0000 O   0  0  0  0  0  0  0  0  0  0  0  0
    2.6015   -3.4419    0.0000 C   0  0  0  0  0  0  0  0  0  0  0  0
    2.6458   -4.2666    0.0000 C   0  0  0  0  0  0  0  0  0  0  0  0
    3.8282   -7.2908    0.0000 P   0  0  0  0  0  0  0  0  0  0  0  0
    3.6933   -6.4808    0.0000 O   0  0  0  0  0  0  0  0  0  0  0  0
    4.6440   -7.1618    0.0000 O   0  0  0  0  0  0  0  0  0  0  0  0
    3.2901   -2.9903    0.0000 C   0  0  0  0  0  0  0  0  0  0  0  0
    3.5925   -4.8713    0.0000 C   0  0  0  0  0  0  0  0  0  0  0  0
    4.3632   -4.5727    0.0000 C   0  0  0  0  0  0  0  0  0  0  0  0
    4.4895   -3.7596    0.0000 O   0  0  0  0  0  0  0  0  0  0  0  0
    5.2544   -3.4550    0.0000 C   0  0  0  0  0  0  0  0  0  0  0  0
   -1.2178  -10.3101    0.0000 O   0  0  0  0  0  0  0  0  0  0  0  0
   -1.0111   -9.5183    0.0000 C   0  0  0  0  0  0  0  0  0  0  0  0
   -1.5954   -8.9339    0.0000 C   0  0  0  0  0  0  0  0  0  0  0  0
   -1.4728   -8.1185    0.0000 C   0  0  0  0  0  0  0  0  0  0  0  0
   -0.7434   -7.7390    0.0000 S   0  0  0  0  0  0  0  0  0  0  0  0
   -2.2080   -7.7492    0.0000 C   0  0  0  0  0  0  0  0  0  0  0  0
   -2.3407   -6.9355    0.0000 O   0  0  0  0  0  0  0  0  0  0  0  0
   -2.7922   -8.3334    0.0000 C   0  0  0  0  0  0  0  0  0  0  0  0
   -2.4090   -9.0726    0.0000 O   0  0  0  0  0  0  0  0  0  0  0  0
   -3.6078   -8.2108    0.0000 N   0  0  0  0  0  0  0  0  0  0  0  0
   -3.9063   -7.4461    0.0000 C   0  0  0  0  0  0  0  0  0  0  0  0
   -3.3917   -6.8016    0.0000 O   0  0  0  0  0  0  0  0  0  0  0  0
   -4.7196   -7.3198    0.0000 N   0  0  0  0  0  0  0  0  0  0  0  0
   -5.2342   -7.9643    0.0000 C   0  0  0  0  0  0  0  0  0  0  0  0
   -6.0534   -7.8380    0.0000 N   0  0  0  0  0  0  0  0  0  0  0  0
   -4.9357   -8.7350    0.0000 C   0  0  0  0  0  0  0  0  0  0  0  0
   -4.1224   -8.8553    0.0000 C   0  0  0  0  0  0  0  0  0  0  0  0
   -0.0434   -8.1851    0.0000 P   0  0  0  0  0  0  0  0  0  0  0  0
    0.6505   -8.6311    0.0000 O   0  0  0  0  0  0  0  0  0  0  0  0
   -0.4896   -8.8791    0.0000 O   0  0  0  0  0  0  0  0  0  0  0  0
   -5.4505   -9.3737    0.0000 C   0  0  0  0  0  0  0  0  0  0  0  0
   -1.7033   -6.4106    0.0000 C   0  0  0  0  0  0  0  0  0  0  0  0
   -0.9310   -6.7017    0.0000 C   0  0  0  0  0  0  0  0  0  0  0  0
   -0.2937   -6.1828    0.0000 O   0  0  0  0  0  0  0  0  0  0  0  0
    0.4786   -6.4738    0.0000 C   0  0  0  0  0  0  0  0  0  0  0  0
   -3.3749  -12.7660    0.0000 O   0  0  0  0  0  0  0  0  0  0  0  0
   -2.6901  -12.2954    0.0000 C   0  0  0  0  0  0  0  0  0  0  0  0
   -1.9311  -12.6727    0.0000 C   0  0  0  0  0  0  0  0  0  0  0  0
   -1.2296  -12.2697    0.0000 C   0  0  0  0  0  0  0  0  0  0  0  0
   -1.2296  -11.4489    0.0000 S   0  0  0  0  0  0  0  0  0  0  0  0
   -0.6412  -12.8580    0.0000 C   0  0  0  0  0  0  0  0  0  0  0  0
    0.1905  -12.7001    0.0000 O   0  0  0  0  0  0  0  0  0  0  0  0
   -0.9976  -13.5890    0.0000 C   0  0  0  0  0  0  0  0  0  0  0  0
   -1.7985  -13.4681    0.0000 O   0  0  0  0  0  0  0  0  0  0  0  0
   -0.5868  -14.3082    0.0000 N   0  0  0  0  0  0  0  0  0  0  0  0
    0.2392  -14.3482    0.0000 C   0  0  0  0  0  0  0  0  0  0  0  0
    0.6501  -13.6348    0.0000 O   0  0  0  0  0  0  0  0  0  0  0  0
    0.6016  -15.0598    0.0000 N   0  0  0  0  0  0  0  0  0  0  0  0
    0.1908  -15.7790    0.0000 C   0  0  0  0  0  0  0  0  0  0  0  0
    0.5621  -16.4947    0.0000 N   0  0  0  0  0  0  0  0  0  0  0  0
   -0.6447  -15.7790    0.0000 C   0  0  0  0  0  0  0  0  0  0  0  0
   -1.0053  -15.0335    0.0000 C   0  0  0  0  0  0  0  0  0  0  0  0
   -0.6335  -10.8945    0.0000 P   0  0  0  0  0  0  0  0  0  0  0  0
    0.0156  -11.4011    0.0000 O   0  0  0  0  0  0  0  0  0  0  0  0
   -0.0873  -10.2760    0.0000 O   0  0  0  0  0  0  0  0  0  0  0  0
   -1.0851  -16.4415    0.0000 C   0  0  0  0  0  0  0  0  0  0  0  0
    0.4739  -11.9265    0.0000 C   0  0  0  0  0  0  0  0  0  0  0  0
    1.2804  -11.7831    0.0000 C   0  0  0  0  0  0  0  0  0  0  0  0
    1.8153  -12.4131    0.0000 O   0  0  0  0  0  0  0  0  0  0  0  0
    1.5318  -13.1867    0.0000 C   0  0  0  0  0  0  0  0  0  0  0  0
   -6.1573  -11.0640    0.0000 O   0  0  0  0  0  0  0  0  0  0  0  0
   -5.5789  -11.6483    0.0000 C   0  0  0  0  0  0  0  0  0  0  0  0
   -5.8164  -12.4344    0.0000 C   0  0  0  0  0  0  0  0  0  0  0  0
   -5.3130  -13.0701    0.0000 C   0  0  0  0  0  0  0  0  0  0  0  0
   -4.5068  -13.0701    0.0000 S   0  0  0  0  0  0  0  0  0  0  0  0
   -5.7897  -13.7702    0.0000 C   0  0  0  0  0  0  0  0  0  0  0  0
   -5.5238  -14.5482    0.0000 O   0  0  0  0  0  0  0  0  0  0  0  0
   -6.5847  -13.5278    0.0000 C   0  0  0  0  0  0  0  0  0  0  0  0
   -6.5847  -12.7064    0.0000 O   0  0  0  0  0  0  0  0  0  0  0  0
   -7.2299  -14.0253    0.0000 N   0  0  0  0  0  0  0  0  0  0  0  0
   -7.2299  -14.8467    0.0000 C   0  0  0  0  0  0  0  0  0  0  0  0
   -8.0042  -15.1126    0.0000 N   0  0  0  0  0  0  0  0  0  0  0  0
   -8.5016  -14.4601    0.0000 C   0  0  0  0  0  0  0  0  0  0  0  0
   -9.3266  -14.3878    0.0000 C   0  0  0  0  0  0  0  0  0  0  0  0
   -9.7967  -15.0592    0.0000 O   0  0  0  0  0  0  0  0  0  0  0  0
   -9.6733  -13.6381    0.0000 N   0  0  0  0  0  0  0  0  0  0  0  0
   -9.2033  -12.9609    0.0000 C   0  0  0  0  0  0  0  0  0  0  0  0
   -9.5560  -12.2172    0.0000 N   0  0  0  0  0  0  0  0  0  0  0  0
   -8.3749  -13.0332    0.0000 N   0  0  0  0  0  0  0  0  0  0  0  0
   -8.0249  -13.7828    0.0000 C   0  0  0  0  0  0  0  0  0  0  0  0
   -4.0883  -12.3493    0.0000 P   0  0  0  0  0  0  0  0  0  0  0  0
   -4.8018  -11.9383    0.0000 O   0  0  0  0  0  0  0  0  0  0  0  0
   -3.6793  -11.6433    0.0000 O   0  0  0  0  0  0  0  0  0  0  0  0
   -4.7016  -14.6598    0.0000 C   0  0  0  0  0  0  0  0  0  0  0  0
   -4.1973  -14.0144    0.0000 C   0  0  0  0  0  0  0  0  0  0  0  0
   -3.3810  -14.1260    0.0000 O   0  0  0  0  0  0  0  0  0  0  0  0
   -2.8707  -13.4805    0.0000 C   0  0  0  0  0  0  0  0  0  0  0  0
   -8.6563  -16.5312    0.0000 Na  0  0  0  0  0 15  0  0  0  0  0  0
   24.0313  -21.5312    0.0000 Na  0  0  0  0  0 15  0  0  0  0  0  0
   26.0313  -21.6250    0.0000 Na  0  0  0  0  0 15  0  0  0  0  0  0
   28.0937  -21.6250    0.0000 Na  0  0  0  0  0 15  0  0  0  0  0  0
    0.1875  -18.6563    0.0000 Na  0  0  0  0  0 15  0  0  0  0  0  0
 15 16  1  0
 17 16  1  1
 17 18  1  0
 18 19  1  6
 18 20  1  0
 20 21  1  6
 20 22  1  0
 22 23  1  0
 17 23  1  0
 22 24  1  1
 24 25  1  0
 25 26  2  0
 25 27  1  0
 27 28  2  0
 28 29  1  0
 28 30  1  0
 30 31  2  0
 24 31  1  0
 30 32  1  0
 33 34  1  0
 35 36  1  0
 34 35  1  0
 21 33  1  0
 37 38  1  0
 39 38  1  1
 39 40  1  0
 40 41  1  6
 40 42  1  0
 42 43  1  6
 42 44  1  0
 44 45  1  0
 39 45  1  0
 44 46  1  1
 46 47  1  0
 47 48  2  0
 47 49  1  0
 49 50  2  0
 50 51  1  0
 50 52  1  0
 52 53  2  0
 46 53  1  0
 41 54  1  0
 54 55  2  0
 54 56  1  0
 52 57  1  0
 58 59  1  0
 60 61  1  0
 59 60  1  0
 43 58  1  0
 62 63  1  0
 64 63  1  1
 64 65  1  0
 65 66  1  6
 65 67  1  0
 67 68  1  6
 67 69  1  0
 69 70  1  0
 64 70  1  0
 69 71  1  1
 71 72  1  0
 72 73  2  0
 73 74  1  0
 74 75  1  0
 75 76  1  0
 75 77  2  0
 77 78  1  0
 78 79  2  0
 79 80  1  0
 74 80  2  0
 71 80  1  0
 66 81  1  0
 81 82  2  0
 81 83  1  0
 84 85  1  0
 86 87  1  0
 85 86  1  0
 68 84  1  0
 88 89  1  0
 90 89  1  6
 90 91  1  0
 91 92  1  1
 91 93  1  0
 93 94  1  1
 93 95  1  0
 95 96  1  0
 90 96  1  0
 95 97  1  6
 97 98  1  0
 98 99  2  0
 98100  1  0
100101  2  0
101102  1  0
101103  1  0
103104  2  0
 97104  1  0
 92105  1  0
105106  2  0
105107  1  0
103108  1  0
109110  1  0
111112  1  0
110111  1  0
 94109  1  0
113114  1  0
115114  1  6
115116  1  0
116117  1  1
116118  1  0
118119  1  1
118120  1  0
120121  1  0
115121  1  0
120122  1  6
122123  1  0
123124  2  0
124125  1  0
125126  1  0
126127  2  0
126128  1  0
128129  1  0
129130  1  0
129131  2  0
131132  1  0
125132  2  0
122132  1  0
117133  1  0
133134  2  0
133135  1  0
136137  1  0
138139  1  0
137138  1  0
119136  1  0
140141  1  0
142141  1  6
142143  1  0
143144  1  1
143145  1  0
145146  1  0
146147  1  0
142147  1  0
146148  1  6
148149  1  0
149150  2  0
149151  1  0
151152  2  0
152153  1  0
152154  1  0
154155  2  0
148155  1  0
144156  1  0
156157  2  0
156158  1  0
154159  1  0
160161  1  0
162161  1  1
162163  1  0
163164  1  6
163165  1  0
165166  1  0
166167  1  0
162167  1  0
166168  1  1
168169  1  0
169170  2  0
169171  1  0
171172  1  0
172173  2  0
172174  1  0
174175  1  0
174176  2  0
168176  1  0
164177  1  0
177178  2  0
177179  1  0
180181  1  0
182181  1  6
182183  1  0
183184  1  1
183185  1  0
185186  1  0
186187  1  0
182187  1  0
186188  1  6
188189  1  0
189190  2  0
189191  1  0
191192  1  0
192193  2  0
192194  1  0
194195  1  0
194196  2  0
188196  1  0
184197  1  0
197198  2  0
197199  1  0
200201  1  0
202201  1  1
202203  1  0
203204  1  6
203205  1  0
205206  1  0
206207  1  0
202207  1  0
206208  1  1
208209  1  0
209210  2  0
209211  1  0
211212  2  0
212213  1  0
212214  1  0
214215  2  0
208215  1  0
204216  1  0
216217  2  0
216218  1  0
214219  1  0
220221  1  0
222221  1  6
222223  1  0
223224  1  1
223225  1  0
225226  1  0
226227  1  0
222227  1  0
226228  1  6
228229  1  0
229230  2  0
230231  1  0
231232  1  0
232233  2  0
232234  1  0
234235  1  0
235236  1  0
235237  2  0
237238  1  0
231238  2  0
228238  1  0
224239  1  0
239240  2  0
239241  1  0
242243  1  0
244243  1  1
244245  1  0
245246  1  6
245247  1  0
247248  1  0
248249  1  0
244249  1  0
248250  1  1
250251  1  0
251252  2  0
251253  1  0
253254  1  0
254255  2  0
254256  1  0
256257  1  0
256258  2  0
250258  1  0
246259  1  0
259260  2  0
259261  1  0
262263  1  0
264263  1  6
264265  1  0
265266  1  1
265267  1  0
267268  1  0
268269  1  0
264269  1  0
268270  1  6
270271  1  0
271272  2  0
271273  1  0
273274  2  0
274275  1  0
274276  1  0
276277  2  0
270277  1  0
266278  1  0
278279  2  0
278280  1  0
276281  1  0
282283  1  0
284283  1  6
284285  1  0
285286  1  1
285287  1  0
287288  1  0
288289  1  0
284289  1  0
288290  1  6
290291  1  0
291292  2  0
291293  1  0
293294  1  0
294295  2  0
294296  1  0
296297  1  0
296298  2  0
290298  1  0
286299  1  0
299300  2  0
299301  1  0
302303  1  0
304303  1  1
304305  1  0
305306  1  6
305307  1  0
307308  1  0
308309  1  0
304309  1  0
308310  1  1
310311  1  0
311312  2  0
312313  1  0
313314  1  0
314315  2  0
314316  1  0
316317  1  0
317318  1  0
317319  2  0
319320  1  0
313320  2  0
310320  1  0
306321  1  0
321322  2  0
321323  1  0
324325  1  0
326325  1  6
326327  1  0
327328  1  1
327329  1  0
329330  1  0
330331  1  0
326331  1  0
330332  1  6
332333  1  0
333334  2  0
334335  1  0
335336  1  0
336337  1  0
336338  2  0
338339  1  0
339340  2  0
340341  1  0
335341  2  0
332341  1  0
328342  1  0
342343  2  0
342344  1  0
345346  1  0
347346  1  1
347348  1  0
348349  1  6
348350  1  0
350351  1  6
350352  1  0
352353  1  0
347353  1  0
352354  1  1
354355  1  0
355356  2  0
355357  1  0
357358  2  0
358359  1  0
358360  1  0
360361  2  0
354361  1  0
349362  1  0
362363  2  0
362364  1  0
360365  1  0
366367  1  0
368369  1  0
367368  1  0
351366  1  0
370371  1  0
372371  1  1
372373  1  0
373374  1  6
373375  1  0
375376  1  6
375377  1  0
377378  1  0
372378  1  0
377379  1  1
379380  1  0
380381  2  0
380382  1  0
382383  1  0
383384  2  0
383385  1  0
385386  2  0
379386  1  0
374387  1  0
387388  2  0
387389  1  0
385390  1  0
391392  1  0
393394  1  0
392393  1  0
376391  1  0
395396  1  0
397396  1  1
397398  1  0
398399  1  6
398400  1  0
400401  1  6
400402  1  0
402403  1  0
397403  1  0
402404  1  1
404405  1  0
405406  2  0
405407  1  0
407408  2  0
408409  1  0
408410  1  0
410411  2  0
404411  1  0
399412  1  0
412413  2  0
412414  1  0
410415  1  0
416417  1  0
418419  1  0
417418  1  0
401416  1  0
420421  1  0
422421  1  6
422423  1  0
423424  1  1
423425  1  0
425426  1  1
425427  1  0
427428  1  0
422428  1  0
427429  1  6
429430  1  0
430431  2  0
430432  1  0
432433  2  0
433434  1  0
433435  1  0
435436  2  0
429436  1  0
424437  1  0
437438  2  0
437439  1  0
435440  1  0
441442  1  0
443444  1  0
442443  1  0
426441  1  0
445446  1  0
447446  1  6
447448  1  0
448449  1  1
448450  1  0
450451  1  1
450452  1  0
452453  1  0
447453  1  0
452454  1  6
454455  1  0
455456  2  0
456457  1  0
457458  1  0
458459  2  0
458460  1  0
460461  1  0
461462  1  0
461463  2  0
463464  1  0
457464  2  0
454464  1  0
449465  1  0
465466  2  0
465467  1  0
468469  1  0
470471  1  0
469470  1  0
451468  1  0
420465  1  0
395437  1  0
370412  1  0
345387  1  0
324362  1  0
302342  1  0
282321  1  0
262299  1  0
242278  1  0
220259  1  0
200239  1  0
180216  1  0
160197  1  0
140177  1  0
113156  1  0
 88133  1  0
 62105  1  0
 37 81  1  0
 15 54  1  0
M  CHG  8   1   1   2   1   3   1   4   1   5   1   6   1   7   1   8   1
M  CHG  8   9   1  10   1  11   1  12   1  13   1  14   1  56  -1  83  -1
M  CHG  8 107  -1 135  -1 158  -1 179  -1 199  -1 218  -1 241  -1 261  -1
M  CHG  8 280  -1 301  -1 323  -1 344  -1 364  -1 389  -1 414  -1 439  -1
M  CHG  6 467  -1 472   1 473   1 474   1 475   1 476   1
M  END
> <chembl_id>
CHEMBL502097

> <chembl_pref_name>
MIPOMERSEN SODIUM
