
     RDKit          2D

 32 37  0  0  1  0  0  0  0  0999 V2000
    1.0292    1.2875    0.0000 N   0  0  0  0  0  0  0  0  0  0  0  0
   -0.5583    1.1333    0.0000 C   0  0  0  0  0  0  0  0  0  0  0  0
   -0.0958    0.4958    0.0000 C   0  0  0  0  0  0  0  0  0  0  0  0
   -0.5583   -0.1542    0.0000 N   0  0  0  0  0  0  0  0  0  0  0  0
    0.5625    1.9458    0.0000 C   0  0  0  0  0  0  0  0  0  0  0  0
    0.6917    0.5625    0.0000 C   0  0  0  0  0  0  0  0  0  0  0  0
    0.8917    2.6500    0.0000 C   0  0  0  0  0  0  0  0  0  0  0  0
    1.8167    1.3625    0.0000 C   0  0  0  0  0  0  0  0  0  0  0  0
   -0.8625    1.8833    0.0000 C   0  0  0  0  0  0  0  0  0  0  0  0
    1.9292   -0.0167    0.0000 C   0  0  0  0  0  0  0  0  0  0  0  0
   -1.3333    0.8958    0.0000 C   0  0  0  0  0  0  0  0  0  0  0  0
   -1.3333    0.0958    0.0000 C   0  0  0  0  0  0  0  0  0  0  0  0
   -0.2458    1.8625    0.0000 C   0  0  0  0  0  0  0  0  0  0  0  0
    2.2667    0.7083    0.0000 C   0  0  0  0  0  0  0  0  0  0  0  0
    1.1375   -0.0750    0.0000 C   0  0  0  0  0  0  0  0  0  0  0  0
    1.2542    2.1583    0.0000 C   0  0  0  0  0  0  0  0  0  0  0  0
    2.2500    2.0208    0.0000 O   0  0  0  0  0  0  0  0  0  0  0  0
   -1.6458    1.9708    0.0000 O   0  0  0  0  0  0  0  0  0  0  0  0
   -0.3000   -0.8917    0.0000 C   0  0  0  0  0  0  0  0  0  0  0  0
   -2.0583    1.2875    0.0000 C   0  0  0  0  0  0  0  0  0  0  0  0
   -2.0583   -0.3000    0.0000 C   0  0  0  0  0  0  0  0  0  0  0  0
    3.0542    0.7708    0.0000 C   0  0  0  0  0  0  0  0  0  0  0  0
    2.1042    2.3750    0.0000 C   0  0  0  0  0  0  0  0  0  0  0  0
    3.4917    0.1250    0.0000 C   0  0  0  0  0  0  0  0  0  0  0  0
   -2.7375    0.8958    0.0000 C   0  0  0  0  0  0  0  0  0  0  0  0
   -2.7375    0.0958    0.0000 C   0  0  0  0  0  0  0  0  0  0  0  0
    2.3292    3.2500    0.0000 C   0  0  0  0  0  0  0  0  0  0  0  0
    0.1000   -0.1667    0.0000 H   0  0  0  0  0  0  0  0  0  0  0  0
    0.6000   -0.2125    0.0000 H   0  0  0  0  0  0  0  0  0  0  0  0
    0.3542    1.2250    0.0000 H   0  0  0  0  0  0  0  0  0  0  0  0
    1.1042    3.4958    0.0000 H   0  0  0  0  0  0  0  0  0  0  0  0
    2.3667   -0.6792    0.0000 H   0  0  0  0  0  0  0  0  0  0  0  0
  2  3  1  0
  3  6  1  0
  4  3  1  0
  5  1  1  0
  6  1  1  0
  7  5  1  0
  8  1  1  0
  9  7  1  0
 10 14  1  0
 11  2  1  0
 12  4  1  0
 13  5  1  0
 14  8  1  0
 15  6  1  0
 16  1  1  0
  8 17  1  6
  9 18  1  6
 19  4  1  0
 20 11  1  0
 21 12  1  0
 14 22  1  1
 23 16  1  0
 24 22  1  0
 25 20  2  0
 26 21  2  0
 27 23  1  0
  3 28  1  1
  6 29  1  6
  5 30  1  6
  7 31  1  1
 10 32  1  1
 15 10  1  0
  2 13  1  6
  7 10  1  0
  2  9  1  0
 11 12  2  0
 25 26  1  0
M  CHG  1   1   1
M  END
> <chembl_id>
CHEMBL3833382

> <chembl_pref_name>
PRAJMALIUM
