
     RDKit          2D

 21 24  0  0  1  0  0  0  0  0999 V2000
    6.0109  -10.9653    0.0000 C   0  0  0  0  0  0  0  0  0  0  0  0
    5.2118  -10.9679    0.0000 C   0  0  0  0  0  0  0  0  0  0  0  0
    6.0148   -9.5717    0.0000 C   0  0  0  0  0  0  0  0  0  0  0  0
    6.4124  -10.2720    0.0000 C   0  0  0  0  0  0  0  0  0  0  0  0
    6.4163   -8.8688    0.0000 N   0  0  0  0  0  0  0  0  0  0  0  0
    4.8094  -10.2676    0.0000 C   0  0  0  0  0  0  0  0  0  0  0  0
    5.2014   -9.5694    0.0000 C   0  0  0  0  0  0  0  0  0  0  0  0
    5.6085  -10.2555    0.0000 C   0  0  0  0  0  0  0  0  0  0  0  0
    5.6029   -8.8666    0.0000 C   0  0  0  0  0  0  0  0  0  0  0  0
    4.8055  -11.6660    0.0000 C   0  0  0  0  0  0  0  0  0  0  0  0
    4.0008  -10.2653    0.0000 C   0  0  0  0  0  0  0  0  0  0  0  0
    3.9969  -11.6637    0.0000 C   0  0  0  0  0  0  0  0  0  0  0  0
    6.4085  -11.6562    0.0000 C   0  0  0  0  0  0  0  0  0  0  0  0
    3.5993  -10.9634    0.0000 C   0  0  0  0  0  0  0  0  0  0  0  0
    7.1118   -8.4618    0.0000 C   0  0  0  0  0  0  0  0  0  0  0  0
    7.2115  -10.2695    0.0000 C   0  0  0  0  0  0  0  0  0  0  0  0
    3.5906  -12.3618    0.0000 O   0  0  0  0  0  0  0  0  0  0  0  0
    7.2076  -11.6584    0.0000 C   0  0  0  0  0  0  0  0  0  0  0  0
    7.6091  -10.9603    0.0000 C   0  0  0  0  0  0  0  0  0  0  0  0
    6.9141   -9.4070    0.0000 H   0  0  0  0  0  0  0  0  0  0  0  0
    5.5140   -8.7061    0.0000 H   0  0  0  0  0  0  0  0  0  0  0  0
  2  1  1  0
  3  4  1  0
  4  1  1  0
  5  9  1  0
  6  2  2  0
  7  3  1  0
  1  8  1  1
  9  8  1  0
 10  2  1  0
 11  6  1  0
 12 10  2  0
 13  1  1  0
 14 11  2  0
 15  5  1  0
 16  4  1  0
 17 12  1  0
 18 13  1  0
 19 16  1  0
  3  5  1  0
  7  6  1  0
 18 19  1  0
 12 14  1  0
  4 20  1  1
  3 21  1  6
M  END
> <chembl_id>
CHEMBL592

> <chembl_pref_name>
LEVORPHANOL
