
     RDKit          2D

 32 34  0  0  1  0  0  0  0  0999 V2000
    3.6875   -5.9667    0.0000 N   0  0  0  0  0  0  0  0  0  0  0  0
    6.7917   -7.3500    0.0000 C   0  0  0  0  0  0  0  0  0  0  0  0
    6.4250   -6.2667    0.0000 N   0  0  0  0  0  0  0  0  0  0  0  0
    6.1917   -6.9417    0.0000 N   0  0  0  0  0  0  0  0  0  0  0  0
    7.1042   -6.2667    0.0000 N   0  0  0  0  0  0  0  0  0  0  0  0
    7.3250   -6.9292    0.0000 N   0  0  0  0  0  0  0  0  0  0  0  0
    6.7917   -8.0000    0.0000 C   0  0  0  0  0  0  0  0  0  0  0  0
    3.0917   -5.6125    0.0000 C   0  0  0  0  0  0  0  0  0  0  0  0
    4.2875   -5.6125    0.0000 C   0  0  0  0  0  0  0  0  0  0  0  0
    6.1750   -8.3667    0.0000 C   0  0  0  0  0  0  0  0  0  0  0  0
    2.4875   -5.9667    0.0000 C   0  0  0  0  0  0  0  0  0  0  0  0
    3.6875   -6.9375    0.0000 C   0  0  0  0  0  0  0  0  0  0  0  0
    5.5417   -8.0167    0.0000 C   0  0  0  0  0  0  0  0  0  0  0  0
    4.2875   -4.9667    0.0000 O   0  0  0  0  0  0  0  0  0  0  0  0
    2.4875   -6.6542    0.0000 O   0  0  0  0  0  0  0  0  0  0  0  0
    5.5417   -7.3042    0.0000 C   0  0  0  0  0  0  0  0  0  0  0  0
    4.9125   -8.3792    0.0000 C   0  0  0  0  0  0  0  0  0  0  0  0
    4.3000   -7.3042    0.0000 C   0  0  0  0  0  0  0  0  0  0  0  0
    3.0917   -4.9000    0.0000 C   0  0  0  0  0  0  0  0  0  0  0  0
    1.9000   -5.5917    0.0000 O   0  0  0  0  0  0  0  0  0  0  0  0
    4.3000   -8.0167    0.0000 C   0  0  0  0  0  0  0  0  0  0  0  0
    4.9125   -6.9292    0.0000 C   0  0  0  0  0  0  0  0  0  0  0  0
    7.3917   -8.3542    0.0000 C   0  0  0  0  0  0  0  0  0  0  0  0
    4.8917   -5.9667    0.0000 C   0  0  0  0  0  0  0  0  0  0  0  0
    6.1750   -9.0625    0.0000 C   0  0  0  0  0  0  0  0  0  0  0  0
    2.4875   -4.5542    0.0000 C   0  0  0  0  0  0  0  0  0  0  0  0
    3.6875   -4.5375    0.0000 C   0  0  0  0  0  0  0  0  0  0  0  0
    5.4917   -5.5917    0.0000 C   0  0  0  0  0  0  0  0  0  0  0  0
    6.0792   -5.9667    0.0000 C   0  0  0  0  0  0  0  0  0  0  0  0
    7.3917   -9.0625    0.0000 C   0  0  0  0  0  0  0  0  0  0  0  0
    6.7917   -9.4250    0.0000 C   0  0  0  0  0  0  0  0  0  0  0  0
    6.6667   -5.6250    0.0000 C   0  0  0  0  0  0  0  0  0  0  0  0
  2  7  1  0
  3  4  1  0
  4  2  2  0
  5  6  1  0
  6  2  1  0
  7 10  2  0
  8  1  1  0
  9  1  1  0
 10 13  1  0
 11  8  1  0
 12  1  1  0
 13 16  2  0
 14  9  2  0
 15 11  2  0
 16 22  1  0
 17 21  2  0
 18 12  1  0
  8 19  1  6
 20 11  1  0
 21 18  1  0
 22 18  2  0
 23  7  1  0
 24  9  1  0
 25 10  1  0
 26 19  1  0
 27 19  1  0
 28 24  1  0
 29 28  1  0
 30 31  1  0
 31 25  2  0
 32 29  1  0
 17 13  1  0
 30 23  2  0
  3  5  2  0
M  END
> <chembl_id>
CHEMBL1069

> <chembl_pref_name>
VALSARTAN
