
     RDKit          2D

 27 28  0  0  0  0  0  0  0  0999 V2000
    3.7240  -11.0993    0.0000 C   0  0  0  0  0  0  0  0  0  0  0  0
    5.8841  -10.7077    0.0000 C   0  0  0  0  0  0  0  0  0  0  0  0
    3.0136  -10.7030    0.0000 C   0  0  0  0  0  0  0  0  0  0  0  0
    4.4296  -10.7029    0.0000 C   0  0  0  0  0  0  0  0  0  0  0  0
    5.1592  -11.0992    0.0000 N   0  0  0  0  0  0  0  0  0  0  0  0
    6.1547   -9.8959    0.0000 N   0  0  0  0  0  0  0  0  0  0  0  0
    6.5654  -11.1328    0.0000 N   0  0  0  0  0  0  0  0  0  0  0  0
    2.2985  -11.0994    0.0000 N   0  0  0  0  0  0  0  0  0  0  0  0
    3.0136   -9.8622    0.0000 C   0  0  0  0  0  0  0  0  0  0  0  0
    2.2984   -9.4563    0.0000 N   0  0  0  0  0  0  0  0  0  0  0  0
    4.4295   -9.8621    0.0000 C   0  0  0  0  0  0  0  0  0  0  0  0
    3.7239   -9.4562    0.0000 C   0  0  0  0  0  0  0  0  0  0  0  0
    3.7241  -11.9352    0.0000 Br  0  0  0  0  0  0  0  0  0  0  0  0
    6.9520   -9.8958    0.0000 C   0  0  0  0  0  0  0  0  0  0  0  0
    7.2178  -10.7076    0.0000 C   0  0  0  0  0  0  0  0  0  0  0  0
    1.5639  -10.7031    0.0000 C   0  0  0  0  0  0  0  0  0  0  0  0
    1.5639   -9.8623    0.0000 C   0  0  0  0  0  0  0  0  0  0  0  0
   11.8725  -10.7073    0.0000 O   0  0  0  0  0  0  0  0  0  0  0  0
   11.1562   -9.4703    0.0000 O   0  0  0  0  0  0  0  0  0  0  0  0
    8.2959  -10.2968    0.0000 O   0  0  0  0  0  0  0  0  0  0  0  0
    9.0122  -11.5338    0.0000 O   0  0  0  0  0  0  0  0  0  0  0  0
   10.4400  -11.5338    0.0000 O   0  0  0  0  0  0  0  0  0  0  0  0
    9.7284   -9.4703    0.0000 O   0  0  0  0  0  0  0  0  0  0  0  0
    9.0125  -10.7083    0.0000 C   0  0  0  0  0  0  0  0  0  0  0  0
    9.7270  -10.2958    0.0000 C   0  0  0  0  0  0  0  0  0  0  0  0
   10.4414  -10.7083    0.0000 C   0  0  0  0  0  0  0  0  0  0  0  0
   11.1559  -10.2958    0.0000 C   0  0  0  0  0  0  0  0  0  0  0  0
  2  5  1  0
  3  1  1  0
  4  1  2  0
  5  4  1  0
  6  2  2  0
  7  2  1  0
  8  3  1  0
  9  3  2  0
 10  9  1  0
 11  4  1  0
 12 11  2  0
 13  1  1  0
 14  6  1  0
 15  7  1  0
 16  8  2  0
 17 10  2  0
 12  9  1  0
 17 16  1  0
 14 15  1  0
 24 21  2  0
 25 23  1  0
 26 22  1  0
 24 20  1  0
 26 27  1  0
 25 26  1  0
 27 18  1  0
 24 25  1  0
 27 19  2  0
M  END
> <chembl_id>
CHEMBL2062257

> <chembl_pref_name>
BRIMONIDINE TARTRATE
