
     RDKit          2D

 35 38  0  0  0  0  0  0  0  0999 V2000
   -2.3866    2.1509    0.0000 C   0  0  0  0  0  0  0  0  0  0  0  0
   -3.1011    1.7384    0.0000 C   0  0  0  0  0  0  0  0  0  0  0  0
   -3.1011    0.9134    0.0000 C   0  0  0  0  0  0  0  0  0  0  0  0
   -2.3866    0.5009    0.0000 C   0  0  0  0  0  0  0  0  0  0  0  0
   -1.6721    0.9134    0.0000 C   0  0  0  0  0  0  0  0  0  0  0  0
   -1.6721    1.7384    0.0000 C   0  0  0  0  0  0  0  0  0  0  0  0
   -0.9576    0.5009    0.0000 C   0  0  0  0  0  0  0  0  0  0  0  0
   -0.9577   -0.3241    0.0000 C   0  0  0  0  0  0  0  0  0  0  0  0
   -0.2432   -0.7366    0.0000 C   0  0  0  0  0  0  0  0  0  0  0  0
    0.4713   -0.3241    0.0000 C   0  0  0  0  0  0  0  0  0  0  0  0
    0.4713    0.5009    0.0000 C   0  0  0  0  0  0  0  0  0  0  0  0
   -0.2432    0.9134    0.0000 C   0  0  0  0  0  0  0  0  0  0  0  0
    1.1858    0.9134    0.0000 C   0  0  0  0  0  0  0  0  0  0  0  0
   -0.2432    1.7384    0.0000 C   0  0  0  0  0  0  0  0  0  0  0  0
   -3.8156    2.1509    0.0000 O   0  0  0  0  0  0  0  0  0  0  0  0
   -4.5300    1.7384    0.0000 C   0  0  0  0  0  0  0  0  0  0  0  0
   -5.2445    2.1509    0.0000 F   0  0  0  0  0  0  0  0  0  0  0  0
   -4.5300    0.9134    0.0000 F   0  0  0  0  0  0  0  0  0  0  0  0
   -5.2445    1.3259    0.0000 F   0  0  0  0  0  0  0  0  0  0  0  0
    1.1858    1.7384    0.0000 O   0  0  0  0  0  0  0  0  0  0  0  0
    1.9003    0.5009    0.0000 N   0  0  0  0  0  0  0  0  0  0  0  0
    2.6147    0.9134    0.0000 C   0  0  0  0  0  0  0  0  0  0  0  0
    3.3292    0.5008    0.0000 C   0  0  0  0  0  0  0  0  0  0  0  0
    4.0437    0.9133    0.0000 N   0  0  0  0  0  0  0  0  0  0  0  0
    4.0437    1.7383    0.0000 C   0  0  0  0  0  0  0  0  0  0  0  0
    3.3292    2.1509    0.0000 C   0  0  0  0  0  0  0  0  0  0  0  0
    2.6147    1.7384    0.0000 C   0  0  0  0  0  0  0  0  0  0  0  0
    4.7582    2.1508    0.0000 N   0  0  0  0  0  0  0  0  0  0  0  0
    5.4726    1.7383    0.0000 C   0  0  0  0  0  0  0  0  0  0  0  0
    6.1871    2.1508    0.0000 C   0  0  0  0  0  0  0  0  0  0  0  0
    6.1872    2.9758    0.0000 O   0  0  0  0  0  0  0  0  0  0  0  0
    5.4727    3.3883    0.0000 C   0  0  0  0  0  0  0  0  0  0  0  0
    4.7582    2.9758    0.0000 C   0  0  0  0  0  0  0  0  0  0  0  0
    5.4727    4.2133    0.0000 C   0  0  0  0  0  0  0  0  0  0  0  0
    6.9016    1.7383    0.0000 C   0  0  0  0  0  0  0  0  0  0  0  0
  1  2  1  0
  1  6  2  0
  2  3  2  0
  3  4  1  0
  4  5  2  0
  5  6  1  0
  5  7  1  0
  7  8  1  0
  7 12  2  0
  8  9  2  0
  9 10  1  0
 10 11  2  0
 11 12  1  0
 11 13  1  0
 12 14  1  0
  2 15  1  0
 15 16  1  0
 16 17  1  0
 16 18  1  0
 16 19  1  0
 13 20  2  0
 13 21  1  0
 21 22  1  0
 22 23  1  0
 22 27  2  0
 23 24  2  0
 24 25  1  0
 25 26  2  0
 26 27  1  0
 25 28  1  0
 28 29  1  0
 33 28  1  0
 29 30  1  0
 30 31  1  0
 31 32  1  0
 32 33  1  0
 32 34  1  6
 30 35  1  6
M  END
> <chembl_id>
CHEMBL2105737

> <chembl_pref_name>
SONIDEGIB
