
     RDKit          2D

 15 16  0  0  0  0  0  0  0  0999 V2000
   -0.6419    2.0403    0.0000 N   0  0  0  0  0  0  0  0  0  0  0  0
   -0.6419    1.2153    0.0000 C   0  0  0  0  0  0  0  0  0  0  0  0
    0.0726    0.8028    0.0000 C   0  0  0  0  0  0  0  0  0  0  0  0
   -1.3564    0.8028    0.0000 N   0  0  0  0  0  0  0  0  0  0  0  0
   -2.0709    1.2153    0.0000 O   0  0  0  0  0  0  0  0  0  0  0  0
   -1.3564   -0.0222    0.0000 C   0  0  0  0  0  0  0  0  0  0  0  0
   -2.0709   -0.4347    0.0000 N   0  0  0  0  0  0  0  0  0  0  0  0
   -0.6419   -0.4347    0.0000 N   0  0  0  0  0  0  0  0  0  0  0  0
    0.0726   -0.0222    0.0000 C   0  0  0  0  0  0  0  0  0  0  0  0
    0.7870   -0.4347    0.0000 N   0  0  0  0  0  0  0  0  0  0  0  0
    0.7870   -1.2597    0.0000 C   0  0  0  0  0  0  0  0  0  0  0  0
    1.5015   -0.0222    0.0000 C   0  0  0  0  0  0  0  0  0  0  0  0
    2.2160   -0.4347    0.0000 C   0  0  0  0  0  0  0  0  0  0  0  0
    2.2160   -1.2597    0.0000 C   0  0  0  0  0  0  0  0  0  0  0  0
    1.5015   -1.6722    0.0000 C   0  0  0  0  0  0  0  0  0  0  0  0
  2  1  1  0
  2  3  2  0
  2  4  1  0
  9  3  1  0
  4  5  1  0
  6  4  2  0
  6  7  1  0
  6  8  1  0
  9  8  2  0
  9 10  1  0
 11 10  1  0
 12 10  1  0
 11 15  1  0
 12 13  1  0
 14 13  1  0
 15 14  1  0
M  CHG  2   4   1   5  -1
M  END
> <chembl_id>
CHEMBL802

> <chembl_pref_name>
MINOXIDIL
