
     RDKit          2D

 35 39  0  0  0  0  0  0  0  0999 V2000
    0.3482   -5.3625    0.0000 C   0  0  0  0  0  0  0  0  0  0  0  0
   -0.3663   -5.7750    0.0000 C   0  0  0  0  0  0  0  0  0  0  0  0
   -0.3663   -6.6000    0.0000 C   0  0  0  0  0  0  0  0  0  0  0  0
    0.3482   -7.0125    0.0000 C   0  0  0  0  0  0  0  0  0  0  0  0
    1.0627   -6.6000    0.0000 C   0  0  0  0  0  0  0  0  0  0  0  0
    1.0627   -5.7750    0.0000 C   0  0  0  0  0  0  0  0  0  0  0  0
    1.7772   -7.0125    0.0000 O   0  0  0  0  0  0  0  0  0  0  0  0
    2.4917   -6.6000    0.0000 C   0  0  0  0  0  0  0  0  0  0  0  0
    3.2061   -7.0125    0.0000 N   0  0  0  0  0  0  0  0  0  0  0  0
    3.9206   -6.6000    0.0000 C   0  0  0  0  0  0  0  0  0  0  0  0
    3.9206   -5.7750    0.0000 N   0  0  0  0  0  0  0  0  0  0  0  0
    3.2061   -5.3625    0.0000 C   0  0  0  0  0  0  0  0  0  0  0  0
    2.4916   -5.7750    0.0000 C   0  0  0  0  0  0  0  0  0  0  0  0
    4.6351   -7.0125    0.0000 N   0  0  0  0  0  0  0  0  0  0  0  0
    5.3496   -6.6000    0.0000 C   0  0  0  0  0  0  0  0  0  0  0  0
    6.0640   -7.0125    0.0000 C   0  0  0  0  0  0  0  0  0  0  0  0
    6.7785   -6.6000    0.0000 C   0  0  0  0  0  0  0  0  0  0  0  0
    6.7785   -5.7750    0.0000 C   0  0  0  0  0  0  0  0  0  0  0  0
    6.0640   -5.3625    0.0000 C   0  0  0  0  0  0  0  0  0  0  0  0
    5.3495   -5.7750    0.0000 C   0  0  0  0  0  0  0  0  0  0  0  0
    7.4930   -5.3625    0.0000 N   0  0  0  0  0  0  0  0  0  0  0  0
    8.2074   -5.7750    0.0000 C   0  0  0  0  0  0  0  0  0  0  0  0
    8.9219   -5.3625    0.0000 C   0  0  0  0  0  0  0  0  0  0  0  0
    8.9219   -4.5375    0.0000 N   0  0  0  0  0  0  0  0  0  0  0  0
    8.2074   -4.1250    0.0000 C   0  0  0  0  0  0  0  0  0  0  0  0
    7.4930   -4.5375    0.0000 C   0  0  0  0  0  0  0  0  0  0  0  0
    9.6364   -4.1250    0.0000 C   0  0  0  0  0  0  0  0  0  0  0  0
    1.8786   -5.2230    0.0000 S   0  0  0  0  0  0  0  0  0  0  0  0
    2.2141   -4.4693    0.0000 C   0  0  0  0  0  0  0  0  0  0  0  0
    3.0345   -4.5555    0.0000 C   0  0  0  0  0  0  0  0  0  0  0  0
    0.3482   -4.5375    0.0000 N   0  0  0  0  0  0  0  0  0  0  0  0
   -0.3663   -4.1250    0.0000 C   0  0  0  0  0  0  0  0  0  0  0  0
   -0.3663   -3.3000    0.0000 O   0  0  0  0  0  0  0  0  0  0  0  0
   -1.0807   -4.5375    0.0000 C   0  0  0  0  0  0  0  0  0  0  0  0
   -1.7952   -4.1250    0.0000 C   0  0  0  0  0  0  0  0  0  0  0  0
  1  2  2  0
  1  6  1  0
  2  3  1  0
  3  4  2  0
  4  5  1  0
  5  6  2  0
  5  7  1  0
  7  8  1  0
  8  9  2  0
  8 13  1  0
  9 10  1  0
 10 11  2  0
 11 12  1  0
 10 14  1  0
 14 15  1  0
 15 16  2  0
 15 20  1  0
 16 17  1  0
 17 18  2  0
 18 19  1  0
 19 20  2  0
 18 21  1  0
 21 22  1  0
 26 21  1  0
 22 23  1  0
 23 24  1  0
 24 25  1  0
 25 26  1  0
 24 27  1  0
 12 30  1  0
 12 13  2  0
 13 28  1  0
 28 29  1  0
 29 30  2  0
  1 31  1  0
 31 32  1  0
 32 33  2  0
 32 34  1  0
 34 35  2  0
M  END
> <chembl_id>
CHEMBL3786343

> <chembl_pref_name>
OLMUTINIB
