
     RDKit          2D

 71 76  0  0  0  0  0  0  0  0999 V2000
    5.3390  -12.3823    0.0000 C   0  0  0  0  0  0  0  0  0  0  0  0
    3.9238  -12.3534    0.0000 C   0  0  0  0  0  0  0  0  0  0  0  0
    5.3438  -11.5709    0.0000 C   0  0  0  0  0  0  0  0  0  0  0  0
    6.7735  -12.4113    0.0000 C   0  0  0  0  0  0  0  0  0  0  0  0
    4.6338  -12.7736    0.0000 C   0  0  0  0  0  0  0  0  0  0  0  0
    3.9383  -11.5420    0.0000 C   0  0  0  0  0  0  0  0  0  0  0  0
    6.0393  -12.8025    0.0000 C   0  0  0  0  0  0  0  0  0  0  0  0
    6.7879  -11.5999    0.0000 C   0  0  0  0  0  0  0  0  0  0  0  0
    3.1946  -12.7446    0.0000 C   0  0  0  0  0  0  0  0  0  0  0  0
    3.2283  -11.1218    0.0000 C   0  0  0  0  0  0  0  0  0  0  0  0
    6.0780  -11.1797    0.0000 C   0  0  0  0  0  0  0  0  0  0  0  0
    4.6628  -11.1507    0.0000 C   0  0  0  0  0  0  0  0  0  0  0  0
    2.4846  -12.3244    0.0000 C   0  0  0  0  0  0  0  0  0  0  0  0
    2.5039  -11.5130    0.0000 C   0  0  0  0  0  0  0  0  0  0  0  0
    7.4834  -12.8315    0.0000 C   0  0  0  0  0  0  0  0  0  0  0  0
    7.5124  -11.1942    0.0000 O   0  0  0  0  0  0  0  0  0  0  0  0
    6.0972  -10.3393    0.0000 N   0  0  0  0  0  0  0  0  0  0  0  0
    6.0248  -13.6284    0.0000 O   0  0  0  0  0  0  0  0  0  0  0  0
    3.1801  -13.5850    0.0000 O   0  0  0  0  0  0  0  0  0  0  0  0
    1.7649  -12.7156    0.0000 C   0  0  0  0  0  0  0  0  0  0  0  0
    5.3148  -13.2082    0.0000 O   0  0  0  0  0  0  0  0  0  0  0  0
    7.4737  -13.6574    0.0000 O   0  0  0  0  0  0  0  0  0  0  0  0
    4.6193  -13.5994    0.0000 O   0  0  0  0  0  0  0  0  0  0  0  0
    2.8179  -10.4069    0.0000 O   0  0  0  0  0  0  0  0  0  0  0  0
    4.6628  -10.3104    0.0000 O   0  0  0  0  0  0  0  0  0  0  0  0
    8.1982  -12.4258    0.0000 N   0  0  0  0  0  0  0  0  0  0  0  0
    3.6340  -10.4069    0.0000 C   0  0  0  0  0  0  0  0  0  0  0  0
    1.7939  -11.0928    0.0000 C   0  0  0  0  0  0  0  0  0  0  0  0
    1.7649  -13.5270    0.0000 O   0  0  0  0  0  0  0  0  0  0  0  0
    1.0647  -11.4840    0.0000 C   0  0  0  0  0  0  0  0  0  0  0  0
    1.0357  -12.2954    0.0000 C   0  0  0  0  0  0  0  0  0  0  0  0
    5.3825   -9.9047    0.0000 C   0  0  0  0  0  0  0  0  0  0  0  0
    6.8169   -9.9336    0.0000 C   0  0  0  0  0  0  0  0  0  0  0  0
    5.3825  -10.7450    0.0000 H   0  0  0  0  0  0  0  0  0  0  0  0
    3.9191  -10.8320    0.0000 H   0  0  0  0  0  0  0  0  0  0  0  0
    5.1920   -7.9401    0.0000 C   0  0  0  0  0  0  0  0  0  0  0  0
    3.7768   -7.9112    0.0000 C   0  0  0  0  0  0  0  0  0  0  0  0
    5.1968   -7.1287    0.0000 C   0  0  0  0  0  0  0  0  0  0  0  0
    6.6265   -7.9691    0.0000 C   0  0  0  0  0  0  0  0  0  0  0  0
    4.4868   -8.3313    0.0000 C   0  0  0  0  0  0  0  0  0  0  0  0
    3.7913   -7.0998    0.0000 C   0  0  0  0  0  0  0  0  0  0  0  0
    5.8923   -8.3603    0.0000 C   0  0  0  0  0  0  0  0  0  0  0  0
    6.6410   -7.1577    0.0000 C   0  0  0  0  0  0  0  0  0  0  0  0
    3.0476   -8.3024    0.0000 C   0  0  0  0  0  0  0  0  0  0  0  0
    3.0814   -6.6796    0.0000 C   0  0  0  0  0  0  0  0  0  0  0  0
    5.9310   -6.7375    0.0000 C   0  0  0  0  0  0  0  0  0  0  0  0
    4.5158   -6.7085    0.0000 C   0  0  0  0  0  0  0  0  0  0  0  0
    2.3376   -7.8822    0.0000 C   0  0  0  0  0  0  0  0  0  0  0  0
    2.3569   -7.0708    0.0000 C   0  0  0  0  0  0  0  0  0  0  0  0
    7.3365   -8.3893    0.0000 C   0  0  0  0  0  0  0  0  0  0  0  0
    7.3654   -6.7520    0.0000 O   0  0  0  0  0  0  0  0  0  0  0  0
    5.9502   -5.8971    0.0000 N   0  0  0  0  0  0  0  0  0  0  0  0
    5.8778   -9.1862    0.0000 O   0  0  0  0  0  0  0  0  0  0  0  0
    3.0331   -9.1427    0.0000 O   0  0  0  0  0  0  0  0  0  0  0  0
    1.6179   -8.2734    0.0000 C   0  0  0  0  0  0  0  0  0  0  0  0
    5.1678   -8.7660    0.0000 O   0  0  0  0  0  0  0  0  0  0  0  0
    7.3267   -9.2152    0.0000 O   0  0  0  0  0  0  0  0  0  0  0  0
    4.4723   -9.1572    0.0000 O   0  0  0  0  0  0  0  0  0  0  0  0
    2.6709   -5.9647    0.0000 O   0  0  0  0  0  0  0  0  0  0  0  0
    4.5158   -5.8682    0.0000 O   0  0  0  0  0  0  0  0  0  0  0  0
    8.0512   -7.9836    0.0000 N   0  0  0  0  0  0  0  0  0  0  0  0
    3.4871   -5.9647    0.0000 C   0  0  0  0  0  0  0  0  0  0  0  0
    1.6469   -6.6506    0.0000 C   0  0  0  0  0  0  0  0  0  0  0  0
    1.6179   -9.0848    0.0000 O   0  0  0  0  0  0  0  0  0  0  0  0
    0.9177   -7.0418    0.0000 C   0  0  0  0  0  0  0  0  0  0  0  0
    0.8887   -7.8532    0.0000 C   0  0  0  0  0  0  0  0  0  0  0  0
    5.2355   -5.4625    0.0000 C   0  0  0  0  0  0  0  0  0  0  0  0
    6.6699   -5.4914    0.0000 C   0  0  0  0  0  0  0  0  0  0  0  0
    5.2355   -6.3028    0.0000 H   0  0  0  0  0  0  0  0  0  0  0  0
    3.7721   -6.3898    0.0000 H   0  0  0  0  0  0  0  0  0  0  0  0
    8.9205   -6.9838    0.0000 Ca  0  0  0  0  0 15  0  0  0  0  0  0
  2  5  2  0
  3  1  1  0
  4  7  1  0
  5  1  1  0
  6  2  1  0
  7  1  1  0
  8  4  2  0
  9  2  1  0
 10  6  1  0
 11  3  1  0
 12  3  1  0
 13  9  1  0
 14 13  1  0
 15  4  1  0
 16  8  1  0
 11 17  1  6
 18  7  2  0
 19  9  2  0
 20 13  2  0
  1 21  1  6
 22 15  2  0
 23  5  1  0
 10 24  1  1
 12 25  1  6
 26 15  1  0
 27 10  1  0
 28 14  2  0
 29 20  1  0
 30 31  2  0
 31 20  1  0
 32 17  1  0
 33 17  1  0
  3 34  1  6
  6 35  1  6
 12  6  1  0
 11  8  1  0
 10 14  1  0
 30 28  1  0
 37 40  2  0
 38 36  1  0
 39 42  1  0
 40 36  1  0
 41 37  1  0
 42 36  1  0
 43 39  2  0
 44 37  1  0
 45 41  1  0
 46 38  1  0
 47 38  1  0
 48 44  1  0
 49 48  1  0
 50 39  1  0
 51 43  1  0
 46 52  1  6
 53 42  2  0
 54 44  2  0
 55 48  2  0
 36 56  1  6
 57 50  2  0
 58 40  1  0
 45 59  1  1
 47 60  1  6
 61 50  1  0
 62 45  1  0
 63 49  2  0
 64 55  1  0
 65 66  2  0
 66 55  1  0
 67 52  1  0
 68 52  1  0
 38 69  1  6
 41 70  1  6
 47 41  1  0
 46 43  1  0
 45 49  1  0
 65 63  1  0
M  CHG  3  16  -1  51  -1  71   2
M  END
> <chembl_id>
CHEMBL3989568

> <chembl_pref_name>
OXYTETRACYCLINE CALCIUM
