
     RDKit          2D

 16 17  0  0  0  0  0  0  0  0999 V2000
   -0.6833    0.6083    0.0000 N   0  0  0  0  0  0  0  0  0  0  0  0
   -0.0958   -0.2000    0.0000 C   0  0  0  0  0  0  0  0  0  0  0  0
   -0.6875   -1.0167    0.0000 S   0  0  0  0  0  0  0  0  0  0  0  0
   -1.6375    0.2875    0.0000 C   0  0  0  0  0  0  0  0  0  0  0  0
   -2.4958    0.8750    0.0000 C   0  0  0  0  0  0  0  0  0  0  0  0
   -1.6375   -0.7292    0.0000 C   0  0  0  0  0  0  0  0  0  0  0  0
   -3.4208    0.4625    0.0000 C   0  0  0  0  0  0  0  0  0  0  0  0
    0.9042   -0.2000    0.0000 C   0  0  0  0  0  0  0  0  0  0  0  0
   -3.5375   -0.5667    0.0000 O   0  0  0  0  0  0  0  0  0  0  0  0
    1.3750    0.6708    0.0000 C   0  0  0  0  0  0  0  0  0  0  0  0
    1.4167   -1.0917    0.0000 C   0  0  0  0  0  0  0  0  0  0  0  0
    2.9167   -0.1750    0.0000 C   0  0  0  0  0  0  0  0  0  0  0  0
   -4.1583    1.1208    0.0000 O   0  0  0  0  0  0  0  0  0  0  0  0
    2.4167    0.6625    0.0000 C   0  0  0  0  0  0  0  0  0  0  0  0
    2.4292   -1.0792    0.0000 C   0  0  0  0  0  0  0  0  0  0  0  0
    3.9292   -0.1667    0.0000 Cl  0  0  0  0  0  0  0  0  0  0  0  0
  2  1  2  0
  3  2  1  0
  4  1  1  0
  5  4  1  0
  6  4  2  0
  7  5  1  0
  8  2  1  0
  9  7  2  0
 10  8  1  0
 11  8  2  0
 12 15  2  0
 13  7  1  0
 14 10  2  0
 15 11  1  0
 16 12  1  0
  3  6  1  0
 14 12  1  0
M  END
> <chembl_id>
CHEMBL1909282

> <chembl_pref_name>
FENCLOZIC ACID
