
     RDKit          2D

 40 42  0  0  1  0  0  0  0  0999 V2000
    1.6125    5.4309    0.0000 C   0  0  0  0  0  0  0  0  0  0  0  0
    2.3191    5.0216    0.0000 C   0  0  0  0  0  0  0  0  0  0  0  0
    3.0305    6.2739    0.0000 C   0  0  0  0  0  0  0  0  0  0  0  0
   -2.6512    5.4309    0.0000 C   0  0  0  0  0  0  0  0  0  0  0  0
    0.1994    5.4309    0.0000 C   0  0  0  0  0  0  0  0  0  0  0  0
    3.0305    5.4309    0.0000 C   0  0  0  0  0  0  0  0  0  0  0  0
   -3.3675    5.0216    0.0000 C   0  0  0  0  0  0  0  0  0  0  0  0
    1.6125    6.2739    0.0000 C   0  0  0  0  0  0  0  0  0  0  0  0
    2.3191    6.6686    0.0000 C   0  0  0  0  0  0  0  0  0  0  0  0
   -1.2332    5.4309    0.0000 C   0  0  0  0  0  0  0  0  0  0  0  0
   -4.0740    5.4309    0.0000 C   0  0  0  0  0  0  0  0  0  0  0  0
    0.9011    5.0216    0.0000 O   0  0  0  0  0  0  0  0  0  0  0  0
   -2.6512    6.2739    0.0000 O   0  0  0  0  0  0  0  0  0  0  0  0
   -1.2332    6.2739    0.0000 C   0  0  0  0  0  0  0  0  0  0  0  0
    0.1994    6.2739    0.0000 O   0  0  0  0  0  0  0  0  0  0  0  0
   -1.9495    5.0216    0.0000 O   0  0  0  0  0  0  0  0  0  0  0  0
   -4.0740    6.2739    0.0000 C   0  0  0  0  0  0  0  0  0  0  0  0
   -3.3675    6.6686    0.0000 C   0  0  0  0  0  0  0  0  0  0  0  0
    2.3191    4.1981    0.0000 N   0  0  0  0  0  0  0  0  0  0  0  0
    3.7468    6.6589    0.0000 N   0  0  0  0  0  0  0  0  0  0  0  0
   -0.5218    6.6686    0.0000 C   0  0  0  0  0  0  0  0  0  0  0  0
    3.0305    3.7741    0.0000 C   0  0  0  0  0  0  0  0  0  0  0  0
    4.4534    6.2349    0.0000 C   0  0  0  0  0  0  0  0  0  0  0  0
    3.0305    2.9409    0.0000 N   0  0  0  0  0  0  0  0  0  0  0  0
    4.4680    5.3725    0.0000 N   0  0  0  0  0  0  0  0  0  0  0  0
   -3.3675    4.1884    0.0000 N   0  0  0  0  0  0  0  0  0  0  0  0
    3.7517    5.0216    0.0000 O   0  0  0  0  0  0  0  0  0  0  0  0
    0.9011    6.6686    0.0000 O   0  0  0  0  0  0  0  0  0  0  0  0
    2.3191    7.5165    0.0000 O   0  0  0  0  0  0  0  0  0  0  0  0
   -4.8001    5.0070    0.0000 O   0  0  0  0  0  0  0  0  0  0  0  0
    5.1989    6.6247    0.0000 N   0  0  0  0  0  0  0  0  0  0  0  0
    3.7517    4.1981    0.0000 N   0  0  0  0  0  0  0  0  0  0  0  0
   -4.8001    6.6832    0.0000 O   0  0  0  0  0  0  0  0  0  0  0  0
   -1.9495    6.6686    0.0000 C   0  0  0  0  0  0  0  0  0  0  0  0
   -3.3675    7.5165    0.0000 C   0  0  0  0  0  0  0  0  0  0  0  0
   -1.9495    7.5165    0.0000 O   0  0  0  0  0  0  0  0  0  0  0  0
   -4.0838    7.9258    0.0000 O   0  0  0  0  0  0  0  0  0  0  0  0
   -0.5218    7.5165    0.0000 C   0  0  0  0  0  0  0  0  0  0  0  0
   -2.6414    3.7644    0.0000 C   0  0  0  0  0  0  0  0  0  0  0  0
   -1.9476    5.8614    0.0000 O   0  0  0  0  0  0  0  0  0  0  0  0
  2  1  1  0
  3  9  1  0
  4 16  1  1
  5 12  1  1
  6  2  1  0
  7  4  1  0
  8  1  1  0
  9  8  1  0
 10  5  1  0
 11  7  1  0
  1 12  1  1
 13  4  1  0
 14 10  1  0
 15  5  1  0
 10 16  1  6
 17 18  1  0
 18 13  1  0
  2 19  1  6
  3 20  1  6
 21 15  1  0
 22 19  1  0
 23 20  1  0
 24 22  1  0
 25 23  1  0
  7 26  1  1
  6 27  1  1
  8 28  1  6
  9 29  1  1
 11 30  1  6
 31 23  2  0
 32 22  2  0
 17 33  1  1
 14 34  1  1
 18 35  1  6
 36 34  1  0
 37 35  1  0
 21 38  1  6
 39 26  1  0
  6  3  1  0
 14 21  1  0
 11 17  1  0
 14 40  1  0
M  END
> <chembl_id>
CHEMBL1950576

> <chembl_pref_name>
DIHYDROSTREPTOMYCIN
