
     RDKit          2D

 25 26  0  0  0  0  0  0  0  0999 V2000
    3.0750   -2.4000    0.0000 N   0  0  0  0  0  0  0  0  0  0  0  0
    4.3167   -2.4042    0.0000 C   0  0  0  0  0  0  0  0  0  0  0  0
    4.5167   -1.7292    0.0000 N   0  0  0  0  0  0  0  0  0  0  0  0
    3.6917   -2.7542    0.0000 C   0  0  0  0  0  0  0  0  0  0  0  0
    4.8917   -2.8042    0.0000 N   0  0  0  0  0  0  0  0  0  0  0  0
    3.0792   -1.6917    0.0000 C   0  0  0  0  0  0  0  0  0  0  0  0
    2.4542   -2.7542    0.0000 C   0  0  0  0  0  0  0  0  0  0  0  0
    2.4625   -1.3417    0.0000 C   0  0  0  0  0  0  0  0  0  0  0  0
    5.2375   -1.7292    0.0000 C   0  0  0  0  0  0  0  0  0  0  0  0
    5.4667   -2.3917    0.0000 C   0  0  0  0  0  0  0  0  0  0  0  0
    1.8542   -2.4000    0.0000 C   0  0  0  0  0  0  0  0  0  0  0  0
    2.4542   -3.4667    0.0000 C   0  0  0  0  0  0  0  0  0  0  0  0
    2.4667   -0.6250    0.0000 C   0  0  0  0  0  0  0  0  0  0  0  0
    1.8542   -1.6917    0.0000 C   0  0  0  0  0  0  0  0  0  0  0  0
    1.2375   -2.7542    0.0000 C   0  0  0  0  0  0  0  0  0  0  0  0
    1.8542   -3.8167    0.0000 C   0  0  0  0  0  0  0  0  0  0  0  0
    1.8625   -0.2667    0.0000 C   0  0  0  0  0  0  0  0  0  0  0  0
    1.2375   -1.3375    0.0000 C   0  0  0  0  0  0  0  0  0  0  0  0
    1.2292   -3.4625    0.0000 C   0  0  0  0  0  0  0  0  0  0  0  0
    1.2417   -0.6292    0.0000 C   0  0  0  0  0  0  0  0  0  0  0  0
    3.4917   -4.4125    0.0000 P   0  0  0  0  0  0  0  0  0  0  0  0
    3.1292   -3.7917    0.0000 O   0  0  0  0  0  0  0  0  0  0  0  0
    4.1042   -4.7667    0.0000 O   0  0  0  0  0  0  0  0  0  0  0  0
    3.8417   -3.7917    0.0000 O   0  0  0  0  0  0  0  0  0  0  0  0
    2.8792   -4.7667    0.0000 O   0  0  0  0  0  0  0  0  0  0  0  0
  2  4  1  0
  3  2  2  0
  4  1  1  0
  5  2  1  0
  6  1  1  0
  7  1  1  0
  8  6  1  0
  9  3  1  0
 10  5  1  0
 11  7  2  0
 12  7  1  0
 13  8  2  0
 14  8  1  0
 15 11  1  0
 16 12  2  0
 17 13  1  0
 18 14  2  0
 19 15  2  0
 20 17  2  0
 16 19  1  0
 10  9  1  0
 18 20  1  0
 22 21  2  0
 23 21  1  0
 24 21  1  0
 25 21  1  0
M  END
> <chembl_id>
CHEMBL1200550

> <chembl_pref_name>
ANTAZOLINE PHOSPHATE
