
     RDKit          2D

 22 22  0  0  0  0  0  0  0  0999 V2000
    2.3667   -3.4667    0.0000 Cl  0  0  0  0  0  0  0  0  0  0  0  0
    0.4042   -1.3417    0.0000 C   0  0  0  0  0  0  0  0  0  0  0  0
    1.0042   -1.7125    0.0000 N   0  0  0  0  0  0  0  0  0  0  0  0
    1.6250   -1.3750    0.0000 C   0  0  0  0  0  0  0  0  0  0  0  0
   -0.2208   -2.4250    0.0000 N   0  0  0  0  0  0  0  0  0  0  0  0
   -0.2125   -1.7042    0.0000 C   0  0  0  0  0  0  0  0  0  0  0  0
    0.4042   -0.6375    0.0000 O   0  0  0  0  0  0  0  0  0  0  0  0
    2.2292   -1.7417    0.0000 C   0  0  0  0  0  0  0  0  0  0  0  0
    1.6375   -0.6667    0.0000 C   0  0  0  0  0  0  0  0  0  0  0  0
    0.4000   -2.7792    0.0000 C   0  0  0  0  0  0  0  0  0  0  0  0
   -0.8375   -2.7792    0.0000 C   0  0  0  0  0  0  0  0  0  0  0  0
    2.8667   -0.6917    0.0000 C   0  0  0  0  0  0  0  0  0  0  0  0
   -0.8458   -1.3417    0.0000 C   0  0  0  0  0  0  0  0  0  0  0  0
    2.8625   -1.3917    0.0000 C   0  0  0  0  0  0  0  0  0  0  0  0
    2.2417   -0.3250    0.0000 C   0  0  0  0  0  0  0  0  0  0  0  0
    2.1917   -2.4500    0.0000 C   0  0  0  0  0  0  0  0  0  0  0  0
    1.0375   -0.2917    0.0000 C   0  0  0  0  0  0  0  0  0  0  0  0
    0.4042   -3.4792    0.0000 C   0  0  0  0  0  0  0  0  0  0  0  0
    1.0167   -3.8375    0.0000 C   0  0  0  0  0  0  0  0  0  0  0  0
   -1.4625   -2.4167    0.0000 C   0  0  0  0  0  0  0  0  0  0  0  0
   -1.4625   -1.7042    0.0000 C   0  0  0  0  0  0  0  0  0  0  0  0
    1.6083   -3.5000    0.0000 C   0  0  0  0  0  0  0  0  0  0  0  0
  3  2  1  0
  4  3  1  0
  5  6  1  0
  6  2  1  0
  7  2  2  0
  8  4  2  0
  9  4  1  0
 10  5  1  0
 11  5  1  0
 12 15  1  0
 13  6  1  0
 14  8  1  0
 15  9  2  0
 16  8  1  0
 17  9  1  0
 18 10  1  0
 19 18  1  0
 20 21  1  0
 21 13  1  0
 22 19  1  0
 11 20  1  0
 14 12  2  0
M  END
> <chembl_id>
CHEMBL1200396

> <chembl_pref_name>
BUPIVACAINE HYDROCHLORIDE
