
     RDKit          2D

 30 33  0  0  0  0  0  0  0  0999 V2000
    1.3500   -3.7917    0.0000 N   0  0  0  0  0  0  0  0  0  0  0  0
    1.9625   -2.7292    0.0000 C   0  0  0  0  0  0  0  0  0  0  0  0
    1.9625   -3.4375    0.0000 N   0  0  0  0  0  0  0  0  0  0  0  0
    0.7375   -2.7292    0.0000 C   0  0  0  0  0  0  0  0  0  0  0  0
    0.7375   -3.4375    0.0000 C   0  0  0  0  0  0  0  0  0  0  0  0
    2.5750   -2.3750    0.0000 C   0  0  0  0  0  0  0  0  0  0  0  0
    1.3500   -4.5000    0.0000 C   0  0  0  0  0  0  0  0  0  0  0  0
    3.1875   -2.7292    0.0000 N   0  0  0  0  0  0  0  0  0  0  0  0
    1.9667   -4.8542    0.0000 C   0  0  0  0  0  0  0  0  0  0  0  0
    3.8000   -2.3750    0.0000 N   0  0  0  0  0  0  0  0  0  0  0  0
    0.1250   -3.7917    0.0000 C   0  0  0  0  0  0  0  0  0  0  0  0
    0.7375   -4.8542    0.0000 C   0  0  0  0  0  0  0  0  0  0  0  0
    1.9625   -5.5625    0.0000 C   0  0  0  0  0  0  0  0  0  0  0  0
    2.5750   -1.6667    0.0000 O   0  0  0  0  0  0  0  0  0  0  0  0
   -0.4875   -3.4375    0.0000 C   0  0  0  0  0  0  0  0  0  0  0  0
    0.1250   -4.5000    0.0000 C   0  0  0  0  0  0  0  0  0  0  0  0
    1.3500   -5.9167    0.0000 C   0  0  0  0  0  0  0  0  0  0  0  0
    0.1250   -2.3750    0.0000 C   0  0  0  0  0  0  0  0  0  0  0  0
    2.5750   -4.5000    0.0000 Cl  0  0  0  0  0  0  0  0  0  0  0  0
    0.7375   -5.5625    0.0000 C   0  0  0  0  0  0  0  0  0  0  0  0
   -1.1000   -4.5000    0.0000 C   0  0  0  0  0  0  0  0  0  0  0  0
   -0.4875   -4.8542    0.0000 C   0  0  0  0  0  0  0  0  0  0  0  0
   -1.1000   -3.7917    0.0000 C   0  0  0  0  0  0  0  0  0  0  0  0
    1.3500   -6.6250    0.0000 Cl  0  0  0  0  0  0  0  0  0  0  0  0
   -1.7125   -4.8542    0.0000 Cl  0  0  0  0  0  0  0  0  0  0  0  0
    4.4125   -2.7292    0.0000 C   0  0  0  0  0  0  0  0  0  0  0  0
    3.8000   -1.6667    0.0000 C   0  0  0  0  0  0  0  0  0  0  0  0
    4.4125   -1.3125    0.0000 C   0  0  0  0  0  0  0  0  0  0  0  0
    5.0250   -2.3750    0.0000 C   0  0  0  0  0  0  0  0  0  0  0  0
    5.0250   -1.6667    0.0000 C   0  0  0  0  0  0  0  0  0  0  0  0
  2  3  2  0
  3  1  1  0
  4  5  2  0
  5  1  1  0
  6  2  1  0
  7  1  1  0
  8  6  1  0
  9  7  1  0
 10  8  1  0
 11  5  1  0
 12  7  2  0
 13  9  2  0
 14  6  2  0
 15 11  1  0
 16 11  2  0
 17 20  2  0
 18  4  1  0
 19  9  1  0
 20 12  1  0
 21 22  2  0
 22 16  1  0
 23 15  2  0
 24 17  1  0
 25 21  1  0
 26 10  1  0
 27 10  1  0
 28 27  1  0
 29 26  1  0
 30 28  1  0
  4  2  1  0
 17 13  1  0
 21 23  1  0
 30 29  1  0
M  END
> <chembl_id>
CHEMBL111

> <chembl_pref_name>
RIMONABANT
