
     RDKit          2D

 21 22  0  0  0  0  0  0  0  0999 V2000
    2.6083   -5.2417    0.0000 S   0  0  0  0  0  0  0  0  0  0  0  0
    2.0000   -4.8792    0.0000 N   0  0  0  0  0  0  0  0  0  0  0  0
    1.3792   -5.2292    0.0000 C   0  0  0  0  0  0  0  0  0  0  0  0
    3.2250   -4.8917    0.0000 C   0  0  0  0  0  0  0  0  0  0  0  0
    0.7667   -4.8792    0.0000 N   0  0  0  0  0  0  0  0  0  0  0  0
    0.1667   -5.2292    0.0000 N   0  0  0  0  0  0  0  0  0  0  0  0
    2.9542   -5.8542    0.0000 O   0  0  0  0  0  0  0  0  0  0  0  0
    2.2500   -5.8542    0.0000 O   0  0  0  0  0  0  0  0  0  0  0  0
    1.3917   -5.9375    0.0000 O   0  0  0  0  0  0  0  0  0  0  0  0
    3.8333   -5.2542    0.0000 C   0  0  0  0  0  0  0  0  0  0  0  0
    3.2250   -4.1875    0.0000 C   0  0  0  0  0  0  0  0  0  0  0  0
    3.8417   -3.8375    0.0000 C   0  0  0  0  0  0  0  0  0  0  0  0
    4.4500   -4.9042    0.0000 C   0  0  0  0  0  0  0  0  0  0  0  0
    4.4542   -4.1958    0.0000 C   0  0  0  0  0  0  0  0  0  0  0  0
    0.3292   -5.9042    0.0000 C   0  0  0  0  0  0  0  0  0  0  0  0
   -0.4708   -4.9375    0.0000 C   0  0  0  0  0  0  0  0  0  0  0  0
    5.0708   -3.8458    0.0000 C   0  0  0  0  0  0  0  0  0  0  0  0
   -1.1083   -5.2542    0.0000 C   0  0  0  0  0  0  0  0  0  0  0  0
   -0.1125   -6.4667    0.0000 C   0  0  0  0  0  0  0  0  0  0  0  0
   -1.2458   -5.9500    0.0000 C   0  0  0  0  0  0  0  0  0  0  0  0
   -0.8083   -6.4875    0.0000 C   0  0  0  0  0  0  0  0  0  0  0  0
  2  1  1  0
  3  2  1  0
  4  1  1  0
  5  3  1  0
  6  5  1  0
  7  1  2  0
  8  1  2  0
  9  3  2  0
 10  4  2  0
 11  4  1  0
 12 11  2  0
 13 10  1  0
 14 12  1  0
 15  6  1  0
 16  6  1  0
 17 14  1  0
 18 16  1  0
 19 15  1  0
 20 18  1  0
 21 19  1  0
 14 13  2  0
 20 21  1  0
M  END
> <chembl_id>
CHEMBL817

> <chembl_pref_name>
TOLAZAMIDE
