
     RDKit          2D

 25 26  0  0  0  0  0  0  0  0999 V2000
   -1.4583    0.3208    0.0000 C   0  0  0  0  0  0  0  0  0  0  0  0
   -1.4583   -1.9042    0.0000 N   0  0  0  0  0  0  0  0  0  0  0  0
   -1.4583    1.4375    0.0000 C   0  0  0  0  0  0  0  0  0  0  0  0
   -2.4208   -0.2292    0.0000 C   0  0  0  0  0  0  0  0  0  0  0  0
   -2.4208   -1.3417    0.0000 C   0  0  0  0  0  0  0  0  0  0  0  0
   -0.4958   -1.3417    0.0000 C   0  0  0  0  0  0  0  0  0  0  0  0
   -0.4958   -0.2292    0.0000 C   0  0  0  0  0  0  0  0  0  0  0  0
   -2.4208    1.9958    0.0000 O   0  0  0  0  0  0  0  0  0  0  0  0
   -0.4958    1.9958    0.0000 N   0  0  0  0  0  0  0  0  0  0  0  0
    2.4042    1.4375    0.0000 N   0  0  0  0  0  0  0  0  0  0  0  0
    0.4792   -1.9167    0.0000 O   0  0  0  0  0  0  0  0  0  0  0  0
    0.4750    1.4375    0.0000 C   0  0  0  0  0  0  0  0  0  0  0  0
   -3.3833    0.3208    0.0000 C   0  0  0  0  0  0  0  0  0  0  0  0
   -3.3833   -1.9042    0.0000 C   0  0  0  0  0  0  0  0  0  0  0  0
    1.4375    1.9958    0.0000 C   0  0  0  0  0  0  0  0  0  0  0  0
    2.4042    0.3208    0.0000 C   0  0  0  0  0  0  0  0  0  0  0  0
    3.3667    1.9958    0.0000 C   0  0  0  0  0  0  0  0  0  0  0  0
    1.4542   -1.3542    0.0000 C   0  0  0  0  0  0  0  0  0  0  0  0
    2.4125   -1.9167    0.0000 C   0  0  0  0  0  0  0  0  0  0  0  0
    3.3792   -1.3750    0.0000 C   0  0  0  0  0  0  0  0  0  0  0  0
    1.4417   -0.2417    0.0000 C   0  0  0  0  0  0  0  0  0  0  0  0
    4.3375    1.4333    0.0000 C   0  0  0  0  0  0  0  0  0  0  0  0
   -4.3458   -0.2292    0.0000 C   0  0  0  0  0  0  0  0  0  0  0  0
   -4.3458   -1.3417    0.0000 C   0  0  0  0  0  0  0  0  0  0  0  0
    4.3417   -1.9375    0.0000 C   0  0  0  0  0  0  0  0  0  0  0  0
  2  6  1  0
  3  1  1  0
  4  1  2  0
  5  4  1  0
  6  7  2  0
  7  1  1  0
  8  3  2  0
  9  3  1  0
 10 15  1  0
 11  6  1  0
 12  9  1  0
 13  4  1  0
 14  5  1  0
 15 12  1  0
 16 10  1  0
 17 10  1  0
 18 11  1  0
 19 18  1  0
 20 19  1  0
 21 16  1  0
 22 17  1  0
 23 13  2  0
 24 23  1  0
 25 20  1  0
  5  2  2  0
 14 24  2  0
M  END
> <chembl_id>
CHEMBL1086

> <chembl_pref_name>
DIBUCAINE
