
     RDKit          2D

 22 24  0  0  0  0  0  0  0  0999 V2000
   -0.1389    1.0200    0.0000 N   0  0  0  0  0  0  0  0  0  0  0  0
   -1.5980    1.0327    0.0000 C   0  0  0  0  0  0  0  0  0  0  0  0
   -0.8684    1.3706    0.0000 C   0  0  0  0  0  0  0  0  0  0  0  0
    0.0568    0.2147    0.0000 C   0  0  0  0  0  0  0  0  0  0  0  0
   -1.7780    0.2147    0.0000 N   0  0  0  0  0  0  0  0  0  0  0  0
   -0.4326   -0.4200    0.0000 C   0  0  0  0  0  0  0  0  0  0  0  0
   -1.2664   -0.4200    0.0000 C   0  0  0  0  0  0  0  0  0  0  0  0
   -0.8684    2.2327    0.0000 C   0  0  0  0  0  0  0  0  0  0  0  0
   -0.0631   -1.1274    0.0000 C   0  0  0  0  0  0  0  0  0  0  0  0
    0.8716    0.0853    0.0000 C   0  0  0  0  0  0  0  0  0  0  0  0
   -1.5727    2.6306    0.0000 O   0  0  0  0  0  0  0  0  0  0  0  0
   -1.6959   -1.1274    0.0000 C   0  0  0  0  0  0  0  0  0  0  0  0
   -0.4548   -1.8475    0.0000 C   0  0  0  0  0  0  0  0  0  0  0  0
   -0.1579    2.6243    0.0000 O   0  0  0  0  0  0  0  0  0  0  0  0
   -1.2758   -1.8475    0.0000 C   0  0  0  0  0  0  0  0  0  0  0  0
   -0.0347   -2.5707    0.0000 Cl  0  0  0  0  0  0  0  0  0  0  0  0
    1.1780   -0.6664    0.0000 C   0  0  0  0  0  0  0  0  0  0  0  0
    1.3864    0.7358    0.0000 C   0  0  0  0  0  0  0  0  0  0  0  0
    2.0085   -0.7990    0.0000 C   0  0  0  0  0  0  0  0  0  0  0  0
    2.2201    0.6126    0.0000 C   0  0  0  0  0  0  0  0  0  0  0  0
    2.5107   -0.1421    0.0000 C   0  0  0  0  0  0  0  0  0  0  0  0
   -2.3124    1.4452    0.0000 O   0  0  0  0  0  0  0  0  0  0  0  0
  2  3  1  0
  3  1  1  0
  4  1  2  0
  5  2  1  0
  6  4  1  0
  7  6  2  0
  8  3  1  0
  9  6  1  0
 10  4  1  0
 11  8  2  0
 12  7  1  0
 13  9  2  0
 14  8  1  0
 15 13  1  0
 16 13  1  0
 17 10  2  0
 18 10  1  0
 19 17  1  0
 20 18  2  0
 21 20  1  0
  7  5  1  0
 19 21  2  0
 12 15  2  0
  2 22  2  0
M  END
> <chembl_id>
CHEMBL1213252

> <chembl_pref_name>
CLORAZEPIC ACID
