
     RDKit          2D

 21 22  0  0  0  0  0  0  0  0999 V2000
    7.4125   -5.7542    0.0000 Cl  0  0  0  0  0  0  0  0  0  0  0  0
    3.9417   -5.7417    0.0000 C   0  0  0  0  0  0  0  0  0  0  0  0
    4.5542   -6.0917    0.0000 C   0  0  0  0  0  0  0  0  0  0  0  0
    4.5542   -6.7792    0.0000 C   0  0  0  0  0  0  0  0  0  0  0  0
    3.9417   -5.0375    0.0000 C   0  0  0  0  0  0  0  0  0  0  0  0
    5.1667   -7.1417    0.0000 C   0  0  0  0  0  0  0  0  0  0  0  0
    5.1667   -7.8375    0.0000 C   0  0  0  0  0  0  0  0  0  0  0  0
    5.1750   -5.7417    0.0000 C   0  0  0  0  0  0  0  0  0  0  0  0
    4.5542   -4.6917    0.0000 C   0  0  0  0  0  0  0  0  0  0  0  0
    4.5417   -8.1917    0.0000 C   0  0  0  0  0  0  0  0  0  0  0  0
    3.9750   -7.1250    0.0000 C   0  0  0  0  0  0  0  0  0  0  0  0
    5.1750   -5.0375    0.0000 C   0  0  0  0  0  0  0  0  0  0  0  0
    3.9750   -7.8125    0.0000 C   0  0  0  0  0  0  0  0  0  0  0  0
    4.5542   -3.9167    0.0000 N   0  0  0  0  0  0  0  0  0  0  0  0
    5.7500   -8.1917    0.0000 Cl  0  0  0  0  0  0  0  0  0  0  0  0
    4.5417   -8.9417    0.0000 Cl  0  0  0  0  0  0  0  0  0  0  0  0
    3.3167   -6.0917    0.0000 C   0  0  0  0  0  0  0  0  0  0  0  0
    3.3167   -4.6917    0.0000 C   0  0  0  0  0  0  0  0  0  0  0  0
    5.1750   -3.5500    0.0000 C   0  0  0  0  0  0  0  0  0  0  0  0
    2.7042   -5.7417    0.0000 C   0  0  0  0  0  0  0  0  0  0  0  0
    2.7042   -5.0375    0.0000 C   0  0  0  0  0  0  0  0  0  0  0  0
  3  2  1  0
  3  4  1  1
  5  2  2  0
  6  4  1  0
  7  6  2  0
  8  3  1  0
  9  5  1  0
 10 13  2  0
 11  4  2  0
 12  9  1  0
 13 11  1  0
  9 14  1  1
 15  7  1  0
 16 10  1  0
 17  2  1  0
 18  5  1  0
 19 14  1  0
 20 17  2  0
 21 20  1  0
 21 18  2  0
 12  8  1  0
 10  7  1  0
M  END
> <chembl_id>
CHEMBL1709

> <chembl_pref_name>
SERTRALINE HYDROCHLORIDE
