
     RDKit          2D

 33 34  0  0  0  0  0  0  0  0999 V2000
   -3.9939    1.0185    0.0000 C   0  0  0  0  0  0  0  0  0  0  0  0
   -4.4064    0.3040    0.0000 C   0  0  0  0  0  0  0  0  0  0  0  0
   -3.9939   -0.4105    0.0000 C   0  0  0  0  0  0  0  0  0  0  0  0
   -3.1689   -0.4105    0.0000 C   0  0  0  0  0  0  0  0  0  0  0  0
   -2.7564    0.3040    0.0000 C   0  0  0  0  0  0  0  0  0  0  0  0
   -3.1689    1.0185    0.0000 C   0  0  0  0  0  0  0  0  0  0  0  0
   -5.2314    0.3040    0.0000 N   0  0  0  0  0  0  0  0  0  0  0  0
   -5.6439   -0.4105    0.0000 C   0  0  0  0  0  0  0  0  0  0  0  0
   -6.4689   -0.4105    0.0000 C   0  0  0  0  0  0  0  0  0  0  0  0
   -6.8814   -1.1250    0.0000 Cl  0  0  0  0  0  0  0  0  0  0  0  0
   -5.6439    1.0185    0.0000 C   0  0  0  0  0  0  0  0  0  0  0  0
   -5.2314    1.7329    0.0000 C   0  0  0  0  0  0  0  0  0  0  0  0
   -5.6439    2.4474    0.0000 Cl  0  0  0  0  0  0  0  0  0  0  0  0
   -1.9314    0.3040    0.0000 C   0  0  0  0  0  0  0  0  0  0  0  0
   -1.5189   -0.4104    0.0000 C   0  0  0  0  0  0  0  0  0  0  0  0
   -1.9314   -1.1249    0.0000 N   0  0  0  0  0  0  0  0  0  0  0  0
   -0.6939   -0.4104    0.0000 C   0  0  0  0  0  0  0  0  0  0  0  0
   -0.2814    0.3041    0.0000 O   0  0  0  0  0  0  0  0  0  0  0  0
   -0.2814   -1.1249    0.0000 N   0  0  0  0  0  0  0  0  0  0  0  0
    0.5436   -1.1249    0.0000 C   0  0  0  0  0  0  0  0  0  0  0  0
    0.9561   -0.4104    0.0000 C   0  0  0  0  0  0  0  0  0  0  0  0
    1.7811   -0.4104    0.0000 O   0  0  0  0  0  0  0  0  0  0  0  0
    0.5436    0.3041    0.0000 O   0  0  0  0  0  0  0  0  0  0  0  0
    0.9561    1.0185    0.0000 C   0  0  0  0  0  0  0  0  0  0  0  0
    0.5436    1.7330    0.0000 C   0  0  0  0  0  0  0  0  0  0  0  0
    0.9561   -1.8393    0.0000 C   0  0  0  0  0  0  0  0  0  0  0  0
    1.7811   -1.8393    0.0000 C   0  0  0  0  0  0  0  0  0  0  0  0
    2.1936   -2.5538    0.0000 C   0  0  0  0  0  0  0  0  0  0  0  0
    3.0186   -2.5538    0.0000 C   0  0  0  0  0  0  0  0  0  0  0  0
    3.4311   -1.8393    0.0000 C   0  0  0  0  0  0  0  0  0  0  0  0
    3.0186   -1.1248    0.0000 C   0  0  0  0  0  0  0  0  0  0  0  0
    2.1936   -1.1249    0.0000 C   0  0  0  0  0  0  0  0  0  0  0  0
    4.2561   -1.8393    0.0000 F   0  0  0  0  0  0  0  0  0  0  0  0
  1  2  1  0
  2  3  2  0
  3  4  1  0
  4  5  2  0
  5  6  1  0
  1  6  2  0
  2  7  1  0
  7  8  1  0
  8  9  1  0
  9 10  1  0
  7 11  1  0
 11 12  1  0
 12 13  1  0
  5 14  1  0
 14 15  1  0
 15 16  1  1
 15 17  1  0
 17 18  2  0
 17 19  1  0
 19 20  1  0
 20 21  1  0
 21 22  2  0
 21 23  1  0
 23 24  1  0
 24 25  1  0
 20 26  1  6
 26 27  1  0
 28 29  2  0
 29 30  1  0
 30 31  2  0
 31 32  1  0
 27 28  1  0
 27 32  2  0
 30 33  1  0
M  END
> <chembl_id>
CHEMBL4303060

> <chembl_pref_name>
MELPHALAN FLUFENAMIDE
