
     RDKit          2D

 44 45  0  0  0  0  0  0  0  0999 V2000
  -11.9625   -5.3036    0.0000 C   0  0  0  0  0  0  0  0  0  0  0  0
  -11.1375   -5.3036    0.0000 S   0  0  0  0  0  0  0  0  0  0  0  0
  -11.1375   -4.4786    0.0000 O   0  0  0  0  0  0  0  0  0  0  0  0
  -11.1375   -6.1286    0.0000 O   0  0  0  0  0  0  0  0  0  0  0  0
  -10.3125   -5.3036    0.0000 O   0  0  0  0  0  0  0  0  0  0  0  0
  -10.4009   -2.8875    0.0000 C   0  0  0  0  0  0  0  0  0  0  0  0
   -9.5759   -2.8875    0.0000 S   0  0  0  0  0  0  0  0  0  0  0  0
   -9.5759   -2.0625    0.0000 O   0  0  0  0  0  0  0  0  0  0  0  0
   -9.5759   -3.7125    0.0000 O   0  0  0  0  0  0  0  0  0  0  0  0
   -8.7509   -2.8875    0.0000 O   0  0  0  0  0  0  0  0  0  0  0  0
  -23.0116   -2.2982    0.0000 C   0  0  0  0  0  0  0  0  0  0  0  0
  -23.7261   -2.7107    0.0000 C   0  0  0  0  0  0  0  0  0  0  0  0
  -23.7261   -3.5357    0.0000 C   0  0  0  0  0  0  0  0  0  0  0  0
  -23.0116   -3.9482    0.0000 C   0  0  0  0  0  0  0  0  0  0  0  0
  -22.2971   -3.5357    0.0000 C   0  0  0  0  0  0  0  0  0  0  0  0
  -22.2971   -2.7107    0.0000 C   0  0  0  0  0  0  0  0  0  0  0  0
  -24.4406   -3.9482    0.0000 C   0  0  0  0  0  0  0  0  0  0  0  0
  -21.5826   -3.9482    0.0000 C   0  0  0  0  0  0  0  0  0  0  0  0
  -21.5826   -2.2982    0.0000 C   0  0  0  0  0  0  0  0  0  0  0  0
  -20.8682   -2.7107    0.0000 O   0  0  0  0  0  0  0  0  0  0  0  0
  -21.5826   -1.4732    0.0000 O   0  0  0  0  0  0  0  0  0  0  0  0
  -20.1537   -2.2982    0.0000 C   0  0  0  0  0  0  0  0  0  0  0  0
  -19.4392   -2.7107    0.0000 C   0  0  0  0  0  0  0  0  0  0  0  0
  -19.4392   -3.5357    0.0000 C   0  0  0  0  0  0  0  0  0  0  0  0
  -18.7248   -3.9482    0.0000 C   0  0  0  0  0  0  0  0  0  0  0  0
  -18.0103   -3.5357    0.0000 C   0  0  0  0  0  0  0  0  0  0  0  0
  -18.0103   -2.7107    0.0000 C   0  0  0  0  0  0  0  0  0  0  0  0
  -18.7247   -2.2982    0.0000 C   0  0  0  0  0  0  0  0  0  0  0  0
  -17.2958   -3.9482    0.0000 C   0  0  0  0  0  0  0  0  0  0  0  0
  -16.5813   -3.5357    0.0000 C   0  0  0  0  0  0  0  0  0  0  0  0
  -15.8669   -3.9482    0.0000 N   0  0  0  0  0  0  0  0  0  0  0  0
  -16.5813   -2.7107    0.0000 O   0  0  0  0  0  0  0  0  0  0  0  0
  -17.2958   -4.7732    0.0000 C   0  0  0  0  0  0  0  0  0  0  0  0
  -16.5813   -5.1857    0.0000 N   0  0  0  0  0  0  0  0  0  0  0  0
  -15.1524   -3.5357    0.0000 C   0  0  0  0  0  0  0  0  0  0  0  0
  -14.4379   -3.9482    0.0000 C   0  0  0  0  0  0  0  0  0  0  0  0
  -13.7234   -3.5357    0.0000 C   0  0  0  0  0  0  0  0  0  0  0  0
  -13.7235   -2.7106    0.0000 C   0  0  0  0  0  0  0  0  0  0  0  0
  -14.4379   -2.2981    0.0000 C   0  0  0  0  0  0  0  0  0  0  0  0
  -15.1524   -2.7106    0.0000 C   0  0  0  0  0  0  0  0  0  0  0  0
  -13.0089   -3.9481    0.0000 C   0  0  0  0  0  0  0  0  0  0  0  0
  -12.2945   -3.5356    0.0000 C   0  0  0  0  0  0  0  0  0  0  0  0
  -12.2945   -2.7106    0.0000 N   0  0  0  0  0  0  0  0  0  0  0  0
  -13.0090   -2.2981    0.0000 C   0  0  0  0  0  0  0  0  0  0  0  0
  1  2  1  0
  2  3  2  0
  2  4  2  0
  2  5  1  0
  6  7  1  0
  7  8  2  0
  7  9  2  0
  7 10  1  0
 11 12  2  0
 11 16  1  0
 12 13  1  0
 13 14  2  0
 14 15  1  0
 15 16  2  0
 13 17  1  0
 15 18  1  0
 16 19  1  0
 19 20  1  0
 19 21  2  0
 20 22  1  0
 22 23  1  0
 23 24  1  0
 23 28  2  0
 24 25  2  0
 25 26  1  0
 26 27  2  0
 27 28  1  0
 26 29  1  0
 29 30  1  0
 30 31  1  0
 30 32  2  0
 29 33  1  6
 33 34  1  0
 31 35  1  0
 35 36  1  0
 35 40  2  0
 36 37  2  0
 38 39  2  0
 39 40  1  0
 37 41  1  0
 37 38  1  0
 38 44  1  0
 41 42  2  0
 42 43  1  0
 43 44  2  0
M  END
> <chembl_id>
CHEMBL4594251

> <chembl_pref_name>
NETARSUDIL DIMESYLATE
