
     RDKit          2D

 23 24  0  0  0  0  0  0  0  0999 V2000
    3.1792   -1.2042    0.0000 S   0  0  0  0  0  0  0  0  0  0  0  0
    0.5292   -0.2917    0.0000 C   0  0  0  0  0  0  0  0  0  0  0  0
   -0.0208    0.6583    0.0000 C   0  0  0  0  0  0  0  0  0  0  0  0
    2.1042   -1.2042    0.0000 C   0  0  0  0  0  0  0  0  0  0  0  0
    1.5792   -0.2917    0.0000 C   0  0  0  0  0  0  0  0  0  0  0  0
   -3.2000    0.6875    0.0000 N   0  0  0  0  0  0  0  0  0  0  0  0
   -1.0458    0.6458    0.0000 N   0  0  0  0  0  0  0  0  0  0  0  0
    3.1792   -2.2917    0.0000 O   0  0  0  0  0  0  0  0  0  0  0  0
    3.1792   -0.1292    0.0000 O   0  0  0  0  0  0  0  0  0  0  0  0
    0.0042   -1.2042    0.0000 C   0  0  0  0  0  0  0  0  0  0  0  0
    4.2667   -1.2042    0.0000 N   0  0  0  0  0  0  0  0  0  0  0  0
   -2.6833   -0.2292    0.0000 C   0  0  0  0  0  0  0  0  0  0  0  0
    0.5000    1.5708    0.0000 O   0  0  0  0  0  0  0  0  0  0  0  0
   -1.5958   -0.2292    0.0000 C   0  0  0  0  0  0  0  0  0  0  0  0
    1.5792   -2.1292    0.0000 C   0  0  0  0  0  0  0  0  0  0  0  0
    0.5292   -2.1292    0.0000 C   0  0  0  0  0  0  0  0  0  0  0  0
   -4.2500    0.4625    0.0000 C   0  0  0  0  0  0  0  0  0  0  0  0
   -1.0708   -1.2042    0.0000 O   0  0  0  0  0  0  0  0  0  0  0  0
   -2.7458    1.6458    0.0000 C   0  0  0  0  0  0  0  0  0  0  0  0
   -4.3458   -0.5875    0.0000 C   0  0  0  0  0  0  0  0  0  0  0  0
   -3.4000   -1.0167    0.0000 C   0  0  0  0  0  0  0  0  0  0  0  0
   -1.5958   -2.1292    0.0000 C   0  0  0  0  0  0  0  0  0  0  0  0
   -3.3708    2.4875    0.0000 C   0  0  0  0  0  0  0  0  0  0  0  0
  2  5  2  0
  3  2  1  0
  4  1  1  0
  5  4  1  0
  6 12  1  0
  7  3  1  0
  8  1  2  0
  9  1  2  0
 10 16  2  0
 11  1  1  0
 12 14  1  0
 13  3  2  0
 14  7  1  0
 15  4  2  0
 16 15  1  0
 17  6  1  0
 18 10  1  0
 19  6  1  0
 20 21  1  0
 21 12  1  0
 22 18  1  0
 23 19  1  0
  2 10  1  0
 17 20  1  0
M  END
> <chembl_id>
CHEMBL26

> <chembl_pref_name>
SULPIRIDE
