
     RDKit          2D

 17 17  0  0  0  0  0  0  0  0999 V2000
    3.2625   -4.5542    0.0000 N   0  0  0  0  0  0  0  0  0  0  0  0
    2.6500   -4.9125    0.0000 C   0  0  0  0  0  0  0  0  0  0  0  0
    3.8750   -4.9083    0.0000 C   0  0  0  0  0  0  0  0  0  0  0  0
    4.4875   -4.5500    0.0000 C   0  0  0  0  0  0  0  0  0  0  0  0
    2.6500   -5.6208    0.0000 C   0  0  0  0  0  0  0  0  0  0  0  0
    5.7125   -4.5458    0.0000 N   0  0  0  0  0  0  0  0  0  0  0  0
    5.1000   -4.9042    0.0000 C   0  0  0  0  0  0  0  0  0  0  0  0
    3.8750   -5.6208    0.0000 C   0  0  0  0  0  0  0  0  0  0  0  0
    6.3292   -4.9000    0.0000 C   0  0  0  0  0  0  0  0  0  0  0  0
    3.2625   -5.9750    0.0000 C   0  0  0  0  0  0  0  0  0  0  0  0
    4.4833   -3.8417    0.0000 O   0  0  0  0  0  0  0  0  0  0  0  0
    2.0375   -5.9750    0.0000 O   0  0  0  0  0  0  0  0  0  0  0  0
    2.0375   -4.5542    0.0000 C   0  0  0  0  0  0  0  0  0  0  0  0
    1.4250   -4.9083    0.0000 O   0  0  0  0  0  0  0  0  0  0  0  0
    5.9667   -5.5125    0.0000 C   0  0  0  0  0  0  0  0  0  0  0  0
    6.6792   -5.5125    0.0000 C   0  0  0  0  0  0  0  0  0  0  0  0
    6.9417   -4.5417    0.0000 C   0  0  0  0  0  0  0  0  0  0  0  0
  2  1  1  0
  3  1  2  0
  4  3  1  0
  5  2  2  0
  6  7  1  0
  7  4  1  0
  8  3  1  0
  9  6  1  0
 10  5  1  0
 11  4  1  0
 12  5  1  0
 13  2  1  0
 14 13  1  0
 15  9  1  0
 16  9  1  0
 17  9  1  0
  8 10  2  0
M  END
> <chembl_id>
CHEMBL1094966

> <chembl_pref_name>
PIRBUTEROL
