
     RDKit          2D

 34 36  0  0  0  0  0  0  0  0999 V2000
    6.7559   -6.2924    0.0000 N   0  0  0  0  0  0  0  0  0  0  0  0
    6.1522   -6.6790    0.0000 O   0  0  0  0  0  0  0  0  0  0  0  0
    7.3658   -6.6487    0.0000 O   0  0  0  0  0  0  0  0  0  0  0  0
    6.7559   -5.5839    0.0000 O   0  0  0  0  0  0  0  0  0  0  0  0
    2.5398   -4.8754    0.0000 C   0  0  0  0  0  0  0  0  0  0  0  0
    2.5529   -4.1738    0.0000 C   0  0  0  0  0  0  0  0  0  0  0  0
    3.1428   -5.2414    0.0000 C   0  0  0  0  0  0  0  0  0  0  0  0
    1.9195   -5.2172    0.0000 C   0  0  0  0  0  0  0  0  0  0  0  0
    1.9395   -3.8072    0.0000 C   0  0  0  0  0  0  0  0  0  0  0  0
    3.1773   -3.8245    0.0000 O   0  0  0  0  0  0  0  0  0  0  0  0
    3.1297   -5.9464    0.0000 C   0  0  0  0  0  0  0  0  0  0  0  0
    3.7190   -4.9292    0.0000 Cl  0  0  0  0  0  0  0  0  0  0  0  0
    1.8988   -5.9230    0.0000 C   0  0  0  0  0  0  0  0  0  0  0  0
    1.3227   -4.1332    0.0000 N   0  0  0  0  0  0  0  0  0  0  0  0
    3.7837   -4.1801    0.0000 C   0  0  0  0  0  0  0  0  0  0  0  0
    2.5095   -6.2924    0.0000 C   0  0  0  0  0  0  0  0  0  0  0  0
    0.7059   -3.7094    0.0000 C   0  0  0  0  0  0  0  0  0  0  0  0
    1.0926   -4.8451    0.0000 C   0  0  0  0  0  0  0  0  0  0  0  0
    4.4074   -3.8176    0.0000 C   0  0  0  0  0  0  0  0  0  0  0  0
    2.4819   -6.9767    0.0000 Cl  0  0  0  0  0  0  0  0  0  0  0  0
    0.1125   -4.1773    0.0000 C   0  0  0  0  0  0  0  0  0  0  0  0
    0.3703   -4.8451    0.0000 N   0  0  0  0  0  0  0  0  0  0  0  0
    5.0208   -4.1600    0.0000 C   0  0  0  0  0  0  0  0  0  0  0  0
    4.4074   -3.0953    0.0000 C   0  0  0  0  0  0  0  0  0  0  0  0
    5.6411   -3.8072    0.0000 C   0  0  0  0  0  0  0  0  0  0  0  0
    5.0208   -2.7431    0.0000 C   0  0  0  0  0  0  0  0  0  0  0  0
    5.6411   -3.0926    0.0000 C   0  0  0  0  0  0  0  0  0  0  0  0
    6.2586   -2.7362    0.0000 S   0  0  0  0  0  0  0  0  0  0  0  0
    6.8754   -3.0822    0.0000 C   0  0  0  0  0  0  0  0  0  0  0  0
    7.4888   -2.7259    0.0000 C   0  0  0  0  0  0  0  0  0  0  0  0
    6.8754   -3.8003    0.0000 C   0  0  0  0  0  0  0  0  0  0  0  0
    8.1091   -3.0753    0.0000 C   0  0  0  0  0  0  0  0  0  0  0  0
    7.4888   -4.1428    0.0000 C   0  0  0  0  0  0  0  0  0  0  0  0
    8.1091   -3.7941    0.0000 C   0  0  0  0  0  0  0  0  0  0  0  0
  1  2  1  0
  1  3  2  0
  1  4  1  0
 11 16  2  0
 14 17  1  0
 14 18  1  0
 15 19  1  0
 16 20  1  0
 17 21  2  0
 18 22  2  0
 19 23  1  0
 19 24  2  0
 23 25  2  0
 24 26  1  0
 25 27  1  0
 27 28  1  0
 28 29  1  0
 29 30  1  0
 29 31  2  0
 30 32  2  0
 31 33  1  0
 32 34  1  0
 13 16  1  0
 21 22  1  0
 26 27  2  0
 33 34  2  0
  5  6  1  0
  5  7  2  0
  5  8  1  0
  6  9  1  0
  6 10  1  0
  7 11  1  0
  7 12  1  0
  8 13  2  0
  9 14  1  0
 10 15  1  0
M  CHG  2   1   1   4  -1
M  END
> <chembl_id>
CHEMBL2107703

> <chembl_pref_name>
FENTICONAZOLE NITRATE
