
     RDKit          2D

 25 27  0  0  0  0  0  0  0  0999 V2000
    1.0417   -0.0667    0.0000 C   0  0  0  0  0  0  0  0  0  0  0  0
    0.1375    0.0833    0.0000 C   0  0  0  0  0  0  0  0  0  0  0  0
    1.3500   -0.9292    0.0000 C   0  0  0  0  0  0  0  0  0  0  0  0
    1.6375    0.6125    0.0000 C   0  0  0  0  0  0  0  0  0  0  0  0
    2.2500   -1.1000    0.0000 C   0  0  0  0  0  0  0  0  0  0  0  0
    2.8417   -0.4042    0.0000 C   0  0  0  0  0  0  0  0  0  0  0  0
    2.5375    0.4458    0.0000 C   0  0  0  0  0  0  0  0  0  0  0  0
   -0.1458    0.9458    0.0000 N   0  0  0  0  0  0  0  0  0  0  0  0
   -2.8333   -0.9542    0.0000 C   0  0  0  0  0  0  0  0  0  0  0  0
   -0.4458   -0.5917    0.0000 C   0  0  0  0  0  0  0  0  0  0  0  0
   -3.1458   -0.0917    0.0000 C   0  0  0  0  0  0  0  0  0  0  0  0
   -1.9375   -1.1167    0.0000 C   0  0  0  0  0  0  0  0  0  0  0  0
   -1.3375   -0.4292    0.0000 C   0  0  0  0  0  0  0  0  0  0  0  0
   -2.5458    0.5875    0.0000 C   0  0  0  0  0  0  0  0  0  0  0  0
   -1.6458    0.4208    0.0000 C   0  0  0  0  0  0  0  0  0  0  0  0
    0.4375    1.6458    0.0000 C   0  0  0  0  0  0  0  0  0  0  0  0
    2.5542   -1.9625    0.0000 O   0  0  0  0  0  0  0  0  0  0  0  0
    3.7375   -0.5750    0.0000 O   0  0  0  0  0  0  0  0  0  0  0  0
   -3.4375   -1.6500    0.0000 O   0  0  0  0  0  0  0  0  0  0  0  0
   -4.0375    0.0625    0.0000 O   0  0  0  0  0  0  0  0  0  0  0  0
    1.3292    1.4750    0.0000 C   0  0  0  0  0  0  0  0  0  0  0  0
    1.9542   -2.6542    0.0000 C   0  0  0  0  0  0  0  0  0  0  0  0
   -3.1250   -2.5125    0.0000 C   0  0  0  0  0  0  0  0  0  0  0  0
    4.3417    0.1083    0.0000 C   0  0  0  0  0  0  0  0  0  0  0  0
   -4.3458    0.9250    0.0000 C   0  0  0  0  0  0  0  0  0  0  0  0
  2  1  2  0
  3  1  1  0
  4  1  1  0
  5  3  2  0
  6  7  2  0
  7  4  1  0
  8  2  1  0
  9 12  2  0
 10  2  1  0
 11 14  2  0
 12 13  1  0
 13 10  1  0
 14 15  1  0
 15 13  2  0
 16 21  1  0
 17  5  1  0
 18  6  1  0
 19  9  1  0
 20 11  1  0
 21  4  2  0
 22 17  1  0
 23 19  1  0
 24 18  1  0
 25 20  1  0
  8 16  2  0
  5  6  1  0
  9 11  1  0
M  END
> <chembl_id>
CHEMBL19224

> <chembl_pref_name>
PAPAVERINE
