
     RDKit          2D

 40 42  0  0  1  0  0  0  0  0999 V2000
   -1.0750   -0.5542    0.0000 C   0  0  0  0  0  0  0  0  0  0  0  0
    2.2750    0.6083    0.0000 C   0  0  0  0  0  0  0  0  0  0  0  0
   -0.4083    0.6125    0.0000 C   0  0  0  0  0  0  0  0  0  0  0  0
    0.9375    0.6125    0.0000 C   0  0  0  0  0  0  0  0  0  0  0  0
   -1.7375   -0.9500    0.0000 C   0  0  0  0  0  0  0  0  0  0  0  0
    2.9417    0.2208    0.0000 C   0  0  0  0  0  0  0  0  0  0  0  0
    0.2625    0.2208    0.0000 C   0  0  0  0  0  0  0  0  0  0  0  0
   -1.7250   -1.7167    0.0000 C   0  0  0  0  0  0  0  0  0  0  0  0
    3.6167    0.6083    0.0000 C   0  0  0  0  0  0  0  0  0  0  0  0
   -0.4083    1.3833    0.0000 C   0  0  0  0  0  0  0  0  0  0  0  0
   -0.3958   -0.9292    0.0000 O   0  0  0  0  0  0  0  0  0  0  0  0
    2.2750    1.3833    0.0000 O   0  0  0  0  0  0  0  0  0  0  0  0
   -1.0833    0.2208    0.0000 O   0  0  0  0  0  0  0  0  0  0  0  0
    1.6042    0.2208    0.0000 O   0  0  0  0  0  0  0  0  0  0  0  0
   -1.0458   -2.1000    0.0000 C   0  0  0  0  0  0  0  0  0  0  0  0
    3.6167    1.3833    0.0000 C   0  0  0  0  0  0  0  0  0  0  0  0
    2.9417    1.7625    0.0000 C   0  0  0  0  0  0  0  0  0  0  0  0
   -0.3875   -1.7042    0.0000 C   0  0  0  0  0  0  0  0  0  0  0  0
   -1.0833    1.7708    0.0000 N   0  0  0  0  0  0  0  0  0  0  0  0
   -1.7208    1.3375    0.0000 C   0  0  0  0  0  0  0  0  0  0  0  0
    0.9375    1.3833    0.0000 C   0  0  0  0  0  0  0  0  0  0  0  0
    0.2625    1.7708    0.0000 C   0  0  0  0  0  0  0  0  0  0  0  0
   -1.7458    0.5625    0.0000 O   0  0  0  0  0  0  0  0  0  0  0  0
   -2.3875   -2.1167    0.0000 N   0  0  0  0  0  0  0  0  0  0  0  0
   -2.3208    1.7958    0.0000 C   0  0  0  0  0  0  0  0  0  0  0  0
    2.9417   -0.5542    0.0000 O   0  0  0  0  0  0  0  0  0  0  0  0
   -2.4083   -0.5667    0.0000 O   0  0  0  0  0  0  0  0  0  0  0  0
    0.2625   -0.5417    0.0000 O   0  0  0  0  0  0  0  0  0  0  0  0
    4.2792    0.2208    0.0000 O   0  0  0  0  0  0  0  0  0  0  0  0
    1.6042    1.7708    0.0000 N   0  0  0  0  0  0  0  0  0  0  0  0
   -1.0458   -2.8667    0.0000 O   0  0  0  0  0  0  0  0  0  0  0  0
    4.2875    1.7625    0.0000 O   0  0  0  0  0  0  0  0  0  0  0  0
    2.9417    2.5458    0.0000 C   0  0  0  0  0  0  0  0  0  0  0  0
    0.2917   -2.0792    0.0000 C   0  0  0  0  0  0  0  0  0  0  0  0
   -2.9833    1.3500    0.0000 C   0  0  0  0  0  0  0  0  0  0  0  0
    3.6167    2.9250    0.0000 N   0  0  0  0  0  0  0  0  0  0  0  0
   -4.2458    1.3583    0.0000 N   0  0  0  0  0  0  0  0  0  0  0  0
   -2.3125    2.5625    0.0000 O   0  0  0  0  0  0  0  0  0  0  0  0
    0.9542   -1.6750    0.0000 O   0  0  0  0  0  0  0  0  0  0  0  0
   -3.6208    1.8000    0.0000 C   0  0  0  0  0  0  0  0  0  0  0  0
  2 14  1  1
  3 13  1  1
  4  7  1  0
  5  1  1  0
  6  2  1  0
  7  3  1  0
  8  5  1  0
  9  6  1  0
 10  3  1  0
 11  1  1  0
 12  2  1  0
  1 13  1  1
  4 14  1  1
 15 18  1  0
 16 17  1  0
 17 12  1  0
 18 11  1  0
 10 19  1  6
 20 19  1  0
 21 22  1  0
 22 10  1  0
 23 20  2  0
  8 24  1  6
 25 20  1  0
  6 26  1  1
  5 27  1  1
  7 28  1  6
  9 29  1  6
 21 30  1  6
 15 31  1  1
 16 32  1  1
 17 33  1  6
 18 34  1  6
 35 25  1  0
 36 33  1  0
 37 40  1  0
 25 38  1  6
 39 34  1  0
 40 35  1  0
  8 15  1  0
  4 21  1  0
  9 16  1  0
M  END
> <chembl_id>
CHEMBL177

> <chembl_pref_name>
AMIKACIN
