
     RDKit          2D

 27 29  0  0  1  0  0  0  0  0999 V2000
    5.5610   -6.9379    0.0000 N   0  0  0  0  0  0  0  0  0  0  0  0
    5.5610   -7.8978    0.0000 C   0  0  0  0  0  0  0  0  0  0  0  0
    4.7756   -6.6810    0.0000 C   0  0  0  0  0  0  0  0  0  0  0  0
    4.7756   -5.8519    0.0000 C   0  0  0  0  0  0  0  0  0  0  0  0
    5.5561   -5.5998    0.0000 N   0  0  0  0  0  0  0  0  0  0  0  0
    5.3089   -8.6833    0.0000 C   0  0  0  0  0  0  0  0  0  0  0  0
    4.9016   -7.4082    0.0000 O   0  0  0  0  0  0  0  0  0  0  0  0
    6.0410   -6.2688    0.0000 C   0  0  0  0  0  0  0  0  0  0  0  0
    4.2325   -7.8978    0.0000 C   0  0  0  0  0  0  0  0  0  0  0  0
    4.4847   -8.6833    0.0000 C   0  0  0  0  0  0  0  0  0  0  0  0
    4.0580   -5.4447    0.0000 C   0  0  0  0  0  0  0  0  0  0  0  0
    4.0580   -7.0882    0.0000 N   0  0  0  0  0  0  0  0  0  0  0  0
    3.3357   -5.8519    0.0000 N   0  0  0  0  0  0  0  0  0  0  0  0
   -0.0582   -7.8882    0.0000 C   0  0  0  0  0  0  0  0  0  0  0  0
    2.7975   -7.8882    0.0000 S   0  0  0  0  0  0  0  0  0  0  0  0
    3.5102   -7.4809    0.0000 C   0  0  0  0  0  0  0  0  0  0  0  0
    3.3357   -6.6810    0.0000 C   0  0  0  0  0  0  0  0  0  0  0  0
    1.3721   -7.8882    0.0000 C   0  0  0  0  0  0  0  0  0  0  0  0
   -0.7709   -7.4809    0.0000 O   0  0  0  0  0  0  0  0  0  0  0  0
    0.6594   -7.4809    0.0000 C   0  0  0  0  0  0  0  0  0  0  0  0
   -0.0582   -8.7172    0.0000 O   0  0  0  0  0  0  0  0  0  0  0  0
    5.7937   -9.3427    0.0000 O   0  0  0  0  0  0  0  0  0  0  0  0
    2.0848   -7.4809    0.0000 C   0  0  0  0  0  0  0  0  0  0  0  0
    4.0580   -4.6107    0.0000 N   0  0  0  0  0  0  0  0  0  0  0  0
    4.0047   -9.3427    0.0000 O   0  0  0  0  0  0  0  0  0  0  0  0
    0.6594   -6.6519    0.0000 N   0  0  0  0  0  0  0  0  0  0  0  0
    2.7975   -8.7172    0.0000 C   0  0  0  0  0  0  0  0  0  0  0  0
  2  1  1  1
  3  1  1  0
  4  3  2  0
  5  8  2  0
  6  2  1  0
  7  2  1  0
  8  1  1  0
  9  7  1  0
 10  6  1  0
 11  4  1  0
 12  3  1  0
 13 17  1  0
 14 20  1  0
 15 16  1  0
  9 16  1  1
 17 12  2  0
 18 23  1  0
 19 14  1  0
 20 18  1  0
 21 14  2  0
  6 22  1  6
 23 15  1  0
 24 11  1  0
 10 25  1  6
 20 26  1  1
 27 15  1  0
  4  5  1  0
 10  9  1  0
 13 11  2  0
M  CHG  2  15   1  19  -1
M  END
> <chembl_id>
CHEMBL1088977

> <chembl_pref_name>
ADEMETIONINE
