
     RDKit          2D

 37 40  0  0  0  0  0  0  0  0999 V2000
   11.4360    0.7165    0.0000 O   0  0  0  0  0  0  0  0  0  0  0  0
   11.8485    0.0020    0.0000 S   0  0  0  0  0  0  0  0  0  0  0  0
   12.5630    0.4145    0.0000 N   0  0  0  0  0  0  0  0  0  0  0  0
   13.2775    0.0020    0.0000 C   0  0  0  0  0  0  0  0  0  0  0  0
   13.9920   -0.4105    0.0000 C   0  0  0  0  0  0  0  0  0  0  0  0
   12.8650   -0.7124    0.0000 C   0  0  0  0  0  0  0  0  0  0  0  0
    3.9894   -1.2355    0.0000 C   0  0  0  0  0  0  0  0  0  0  0  0
    3.9894   -0.4105    0.0000 C   0  0  0  0  0  0  0  0  0  0  0  0
    3.2749   -1.6480    0.0000 O   0  0  0  0  0  0  0  0  0  0  0  0
    4.7038   -1.6480    0.0000 C   0  0  0  0  0  0  0  0  0  0  0  0
    5.4183   -1.2355    0.0000 C   0  0  0  0  0  0  0  0  0  0  0  0
    6.1328    0.0020    0.0000 N   0  0  0  0  0  0  0  0  0  0  0  0
    5.4183   -0.4105    0.0000 C   0  0  0  0  0  0  0  0  0  0  0  0
    4.7038    0.0020    0.0000 C   0  0  0  0  0  0  0  0  0  0  0  0
    8.9907    0.0020    0.0000 N   0  0  0  0  0  0  0  0  0  0  0  0
    9.7051   -0.4105    0.0000 C   0  0  0  0  0  0  0  0  0  0  0  0
    9.7051   -1.2355    0.0000 C   0  0  0  0  0  0  0  0  0  0  0  0
   10.4196   -1.6480    0.0000 C   0  0  0  0  0  0  0  0  0  0  0  0
   11.1341   -1.2355    0.0000 C   0  0  0  0  0  0  0  0  0  0  0  0
   11.1341   -0.4105    0.0000 C   0  0  0  0  0  0  0  0  0  0  0  0
   10.4196    0.0020    0.0000 C   0  0  0  0  0  0  0  0  0  0  0  0
    6.8473   -1.2355    0.0000 N   0  0  0  0  0  0  0  0  0  0  0  0
    6.8473   -0.4105    0.0000 C   0  0  0  0  0  0  0  0  0  0  0  0
    7.5617    0.0020    0.0000 N   0  0  0  0  0  0  0  0  0  0  0  0
    8.2762   -0.4105    0.0000 C   0  0  0  0  0  0  0  0  0  0  0  0
    8.2762   -1.2355    0.0000 C   0  0  0  0  0  0  0  0  0  0  0  0
    7.5617   -1.6480    0.0000 C   0  0  0  0  0  0  0  0  0  0  0  0
    8.9907   -1.6480    0.0000 C   0  0  0  0  0  0  0  0  0  0  0  0
    1.8930   -4.1954    0.0000 C   0  0  0  0  0  0  0  0  0  0  0  0
    2.5604   -3.7105    0.0000 N   0  0  0  0  0  0  0  0  0  0  0  0
    2.1479   -4.9800    0.0000 C   0  0  0  0  0  0  0  0  0  0  0  0
    3.2279   -4.1954    0.0000 C   0  0  0  0  0  0  0  0  0  0  0  0
    2.9729   -4.9800    0.0000 C   0  0  0  0  0  0  0  0  0  0  0  0
    2.5604   -2.8855    0.0000 C   0  0  0  0  0  0  0  0  0  0  0  0
    3.2749   -2.4730    0.0000 C   0  0  0  0  0  0  0  0  0  0  0  0
   12.2610   -0.7124    0.0000 O   0  0  0  0  0  0  0  0  0  0  0  0
   13.6900    0.7165    0.0000 C   0  0  0  0  0  0  0  0  0  0  0  0
  1  2  2  0
  2 36  2  0
  3  4  1  0
  3  2  1  0
  4  5  1  0
  4 37  1  0
  6  4  1  0
  7  8  1  0
  7 10  2  0
  8 14  2  0
  9  7  1  0
 11 10  1  0
 12 13  1  0
 13 11  2  0
 14 13  1  0
 15 16  1  0
 16 21  2  0
 17 16  1  0
 17 18  2  0
 18 19  1  0
 19 20  2  0
 20  2  1  0
 21 20  1  0
 22 23  2  0
 22 27  1  0
 23 24  1  0
 23 12  1  0
 24 25  2  0
 25 26  1  0
 25 15  1  0
 26 28  1  0
 27 26  2  0
 29 30  1  0
 29 31  1  0
 30 34  1  0
 32 30  1  0
 32 33  1  0
 33 31  1  0
 34 35  1  0
 35  9  1  0
M  END
> <chembl_id>
CHEMBL1287853

> <chembl_pref_name>
FEDRATINIB
