
     RDKit          2D

 15 14  0  0  1  0  0  0  0  0999 V2000
    5.6727  -11.0903    0.0000 C   0  0  0  0  0  0  0  0  0  0  0  0
    4.2401  -11.1000    0.0000 C   0  0  0  0  0  0  0  0  0  0  0  0
    4.9564  -10.6810    0.0000 C   0  0  0  0  0  0  0  0  0  0  0  0
    8.5379  -11.0854    0.0000 C   0  0  0  0  0  0  0  0  0  0  0  0
    7.8216  -10.6761    0.0000 C   0  0  0  0  0  0  0  0  0  0  0  0
    5.6727  -11.9235    0.0000 O   0  0  0  0  0  0  0  0  0  0  0  0
    8.5379  -11.9089    0.0000 O   0  0  0  0  0  0  0  0  0  0  0  0
    6.3890  -10.6810    0.0000 N   0  0  0  0  0  0  0  0  0  0  0  0
    7.1053  -11.0903    0.0000 C   0  0  0  0  0  0  0  0  0  0  0  0
    9.2542  -10.6663    0.0000 O   0  0  0  0  0  0  0  0  0  0  0  0
    4.9564   -9.8574    0.0000 O   0  0  0  0  0  0  0  0  0  0  0  0
    3.5238  -10.6907    0.0000 C   0  0  0  0  0  0  0  0  0  0  0  0
    3.8259  -11.8066    0.0000 C   0  0  0  0  0  0  0  0  0  0  0  0
    4.6494  -11.8163    0.0000 C   0  0  0  0  0  0  0  0  0  0  0  0
    2.8075  -11.1049    0.0000 O   0  0  0  0  0  0  0  0  0  0  0  0
  2  3  1  0
  3  1  1  0
  4  5  1  0
  5  9  1  0
  6  1  2  0
  7  4  2  0
  8  1  1  0
  9  8  1  0
 10  4  1  0
  3 11  1  1
 12  2  1  0
 13  2  1  0
 14  2  1  0
 15 12  1  0
M  END
> <chembl_id>
CHEMBL1594

> <chembl_pref_name>
PANTOTHENIC ACID
