
     RDKit          2D

 67 72  0  0  0  0  0  0  0  0999 V2000
    2.6767    0.4709    0.0000 Na  0  0  0  0  0 15  0  0  0  0  0  0
   -1.4724    3.9379    0.0000 C   0  0  0  0  0  0  0  0  0  0  0  0
   -0.7373    3.5634    0.0000 C   0  0  0  0  0  0  0  0  0  0  0  0
   -0.6941    2.7395    0.0000 C   0  0  0  0  0  0  0  0  0  0  0  0
   -1.3860    2.2902    0.0000 C   0  0  0  0  0  0  0  0  0  0  0  0
   -2.1211    2.6647    0.0000 C   0  0  0  0  0  0  0  0  0  0  0  0
   -2.1643    3.4886    0.0000 C   0  0  0  0  0  0  0  0  0  0  0  0
    0.1292    1.4164    0.0000 C   0  0  0  0  0  0  0  0  0  0  0  0
   -0.5924    1.0164    0.0000 C   0  0  0  0  0  0  0  0  0  0  0  0
   -0.6068    0.1916    0.0000 C   0  0  0  0  0  0  0  0  0  0  0  0
    0.1003   -0.2334    0.0000 C   0  0  0  0  0  0  0  0  0  0  0  0
    0.8219    0.1666    0.0000 C   0  0  0  0  0  0  0  0  0  0  0  0
    0.8363    0.9914    0.0000 C   0  0  0  0  0  0  0  0  0  0  0  0
   -2.0356    0.2165    0.0000 C   0  0  0  0  0  0  0  0  0  0  0  0
   -2.7571   -0.1834    0.0000 N   0  0  0  0  0  0  0  0  0  0  0  0
   -2.7715   -1.0083    0.0000 C   0  0  0  0  0  0  0  0  0  0  0  0
   -2.0644   -1.4332    0.0000 C   0  0  0  0  0  0  0  0  0  0  0  0
   -1.3428   -1.0333    0.0000 C   0  0  0  0  0  0  0  0  0  0  0  0
   -1.3284   -0.2084    0.0000 C   0  0  0  0  0  0  0  0  0  0  0  0
   -1.3428    1.4663    0.0000 C   0  0  0  0  0  0  0  0  0  0  0  0
   -2.0500    1.0414    0.0000 C   0  0  0  0  0  0  0  0  0  0  0  0
   -0.0454    4.0128    0.0000 F   0  0  0  0  0  0  0  0  0  0  0  0
   -2.8994    3.8631    0.0000 F   0  0  0  0  0  0  0  0  0  0  0  0
    1.5579    1.3914    0.0000 Cl  0  0  0  0  0  0  0  0  0  0  0  0
    0.2577   -1.0432    0.0000 N   0  0  0  0  0  0  0  0  0  0  0  0
    1.0766   -1.1437    0.0000 N   0  0  0  0  0  0  0  0  0  0  0  0
    1.4253   -0.3961    0.0000 C   0  0  0  0  0  0  0  0  0  0  0  0
   -0.3049   -1.6466    0.0000 C   0  0  0  0  0  0  0  0  0  0  0  0
   -0.0638   -2.4355    0.0000 C   0  0  0  0  0  0  0  0  0  0  0  0
    0.7252   -2.1943    0.0000 F   0  0  0  0  0  0  0  0  0  0  0  0
   -0.8527   -2.6767    0.0000 F   0  0  0  0  0  0  0  0  0  0  0  0
    0.1774   -3.2245    0.0000 F   0  0  0  0  0  0  0  0  0  0  0  0
    2.2351   -0.2387    0.0000 N   0  0  0  0  0  0  0  0  0  0  0  0
    2.7763   -0.8613    0.0000 S   0  0  0  0  0  0  0  0  0  0  0  0
    3.3176   -1.4840    0.0000 O   0  0  0  0  0  0  0  0  0  0  0  0
    2.1537   -1.4026    0.0000 C   0  0  0  0  0  0  0  0  0  0  0  0
    3.3990   -0.3201    0.0000 O   0  0  0  0  0  0  0  0  0  0  0  0
   -3.4931   -1.4082    0.0000 C   0  0  0  0  0  0  0  0  0  0  0  0
   -4.2147   -1.8082    0.0000 C   0  0  0  0  0  0  0  0  0  0  0  0
   -4.9362   -2.2082    0.0000 C   0  0  0  0  0  0  0  0  0  0  0  0
   -4.5363   -2.9297    0.0000 C   0  0  0  0  0  0  0  0  0  0  0  0
   -5.3362   -1.4866    0.0000 C   0  0  0  0  0  0  0  0  0  0  0  0
   -5.6578   -2.6081    0.0000 S   0  0  0  0  0  0  0  0  0  0  0  0
   -5.2579   -3.3297    0.0000 C   0  0  0  0  0  0  0  0  0  0  0  0
   -6.0578   -1.8865    0.0000 O   0  0  0  0  0  0  0  0  0  0  0  0
   -6.3794   -3.0080    0.0000 O   0  0  0  0  0  0  0  0  0  0  0  0
   -2.7715    1.4413    0.0000 N   0  0  0  0  0  0  0  0  0  0  0  0
   -3.4931    1.0414    0.0000 C   0  0  0  0  0  0  0  0  0  0  0  0
   -3.5075    0.2165    0.0000 O   0  0  0  0  0  0  0  0  0  0  0  0
   -4.2003    1.4663    0.0000 C   0  0  0  0  0  0  0  0  0  0  0  0
   -5.1767    0.2386    0.0000 N   0  0  0  0  0  0  0  0  0  0  0  0
   -5.0477    1.0534    0.0000 N   0  0  0  0  0  0  0  0  0  0  0  0
   -5.7828    1.4279    0.0000 C   0  0  0  0  0  0  0  0  0  0  0  0
   -6.3661    0.8446    0.0000 C   0  0  0  0  0  0  0  0  0  0  0  0
   -5.9916    0.1095    0.0000 C   0  0  0  0  0  0  0  0  0  0  0  0
   -6.3661   -0.6256    0.0000 C   0  0  0  0  0  0  0  0  0  0  0  0
   -6.7406   -1.3607    0.0000 F   0  0  0  0  0  0  0  0  0  0  0  0
   -5.6310   -1.0001    0.0000 F   0  0  0  0  0  0  0  0  0  0  0  0
   -7.1012   -0.2510    0.0000 F   0  0  0  0  0  0  0  0  0  0  0  0
   -7.1012    1.2191    0.0000 C   0  0  0  0  0  0  0  0  0  0  0  0
   -6.9722    2.0339    0.0000 C   0  0  0  0  0  0  0  0  0  0  0  0
   -6.1573    2.1631    0.0000 C   0  0  0  0  0  0  0  0  0  0  0  0
   -6.1919    2.9873    0.0000 F   0  0  0  0  0  0  0  0  0  0  0  0
   -5.4702    2.6196    0.0000 F   0  0  0  0  0  0  0  0  0  0  0  0
   -7.7424    1.7383    0.0000 C   0  0  0  0  0  0  0  0  0  0  0  0
   -7.5505    0.5272    0.0000 H   0  0  0  0  0  0  0  0  0  0  0  0
   -7.1857    2.8308    0.0000 H   0  0  0  0  0  0  0  0  0  0  0  0
  2  3  2  0
  3  4  1  0
  4  5  2  0
  5  6  1  0
  6  7  2  0
  2  7  1  0
  8  9  2  0
  9 10  1  0
 10 11  2  0
 11 12  1  0
 12 13  2  0
  8 13  1  0
 14 15  2  0
 15 16  1  0
 16 17  2  0
 17 18  1  0
 18 19  2  0
 14 19  1  0
 19 10  1  0
  5 20  1  0
 21 20  1  0
  3 22  1  0
  7 23  1  0
 13 24  1  0
 25 26  1  0
 26 27  2  0
 11 25  1  0
 12 27  1  0
 25 28  1  0
 28 29  1  0
 29 30  1  0
 29 31  1  0
 29 32  1  0
 27 33  1  0
 33 34  1  0
 34 35  2  0
 34 36  1  0
 34 37  2  0
 16 38  1  0
 38 39  3  0
 39 40  1  0
 40 41  1  0
 40 42  1  0
 40 43  1  0
 43 44  1  0
 43 45  2  0
 43 46  2  0
 21 47  1  1
 47 48  1  0
 48 49  2  0
 48 50  1  0
 52 53  1  0
 53 54  2  0
 54 55  1  0
 55 51  2  0
 52 51  1  0
 55 56  1  0
 56 57  1  0
 56 58  1  0
 56 59  1  0
 60 61  1  0
 61 62  1  0
 53 62  1  0
 54 60  1  0
 62 63  1  0
 62 64  1  0
 61 65  1  0
 65 60  1  0
 60 66  1  6
 61 67  1  6
 21 14  1  0
 50 52  1  0
M  CHG  2   1   1  33  -1
M  END
> <chembl_id>
CHEMBL4802249

> <chembl_pref_name>
LENACAPAVIR SODIUM
