
     RDKit          2D

  8  7  0  0  0  0  0  0  0  0999 V2000
    5.1167   -5.6292    0.0000 N   0  0  0  0  0  0  0  0  0  0  0  0
    6.9542   -5.2792    0.0000 Cl  0  0  0  0  0  0  0  0  0  0  0  0
    3.2667   -5.2792    0.0000 Cl  0  0  0  0  0  0  0  0  0  0  0  0
    5.7167   -5.2792    0.0000 C   0  0  0  0  0  0  0  0  0  0  0  0
    4.5000   -5.2792    0.0000 C   0  0  0  0  0  0  0  0  0  0  0  0
    5.1167   -6.3417    0.0000 C   0  0  0  0  0  0  0  0  0  0  0  0
    6.3417   -5.6292    0.0000 C   0  0  0  0  0  0  0  0  0  0  0  0
    3.8792   -5.6292    0.0000 C   0  0  0  0  0  0  0  0  0  0  0  0
  2  7  1  0
  3  8  1  0
  4  1  1  0
  5  1  1  0
  6  1  1  0
  7  4  1  0
  8  5  1  0
M  END
> <chembl_id>
CHEMBL427

> <chembl_pref_name>
MECHLORETHAMINE
