
     RDKit          2D

 16 17  0  0  1  0  0  0  0  0999 V2000
    0.5792   -0.1917    0.0000 C   0  0  0  0  0  0  0  0  0  0  0  0
   -0.7333   -0.1917    0.0000 C   0  0  0  0  0  0  0  0  0  0  0  0
   -0.0750   -2.2250    0.0000 N   0  0  0  0  0  0  0  0  0  0  0  0
    0.9917   -1.4500    0.0000 C   0  0  0  0  0  0  0  0  0  0  0  0
    3.5542    1.4458    0.0000 C   0  0  0  0  0  0  0  0  0  0  0  0
    1.3542    0.8708    0.0000 C   0  0  0  0  0  0  0  0  0  0  0  0
   -1.1458   -1.4500    0.0000 C   0  0  0  0  0  0  0  0  0  0  0  0
    2.6500    0.4875    0.0000 C   0  0  0  0  0  0  0  0  0  0  0  0
   -1.6208    0.7833    0.0000 C   0  0  0  0  0  0  0  0  0  0  0  0
    4.8917    1.1500    0.0000 O   0  0  0  0  0  0  0  0  0  0  0  0
   -2.4333   -1.7167    0.0000 C   0  0  0  0  0  0  0  0  0  0  0  0
   -2.9083    0.5083    0.0000 C   0  0  0  0  0  0  0  0  0  0  0  0
    3.0917   -0.7542    0.0000 N   0  0  0  0  0  0  0  0  0  0  0  0
    3.2125    2.6750    0.0000 O   0  0  0  0  0  0  0  0  0  0  0  0
   -3.3125   -0.7417    0.0000 C   0  0  0  0  0  0  0  0  0  0  0  0
   -3.7875    1.4875    0.0000 O   0  0  0  0  0  0  0  0  0  0  0  0
  2  1  1  0
  3  4  1  0
  4  1  2  0
  5  8  1  0
  6  1  1  0
  7  2  2  0
  8  6  1  0
  9  2  1  0
 10  5  2  0
 11  7  1  0
 12  9  2  0
  8 13  1  1
 14  5  1  0
 15 12  1  0
 16 12  1  0
  7  3  1  0
 11 15  2  0
M  END
> <chembl_id>
CHEMBL350221

> <chembl_pref_name>
OXITRIPTAN
