
     RDKit          2D

 27 30  0  0  0  0  0  0  0  0999 V2000
   -2.2833   -1.9167    0.0000 S   0  0  0  0  0  0  0  0  0  0  0  0
   -2.8750   -1.2667    0.0000 C   0  0  0  0  0  0  0  0  0  0  0  0
   -1.5708   -0.6417    0.0000 C   0  0  0  0  0  0  0  0  0  0  0  0
    1.5042   -0.0125    0.0000 C   0  0  0  0  0  0  0  0  0  0  0  0
   -2.4333   -0.4667    0.0000 C   0  0  0  0  0  0  0  0  0  0  0  0
   -1.4583   -1.4792    0.0000 C   0  0  0  0  0  0  0  0  0  0  0  0
    1.6750   -0.8792    0.0000 C   0  0  0  0  0  0  0  0  0  0  0  0
   -0.3750    1.4208    0.0000 N   0  0  0  0  0  0  0  0  0  0  0  0
   -1.6333    2.1333    0.0000 N   0  0  0  0  0  0  0  0  0  0  0  0
    0.6542    0.2500    0.0000 C   0  0  0  0  0  0  0  0  0  0  0  0
   -0.7583    2.2333    0.0000 C   0  0  0  0  0  0  0  0  0  0  0  0
    2.5375   -1.1792    0.0000 C   0  0  0  0  0  0  0  0  0  0  0  0
    2.1667    0.5958    0.0000 C   0  0  0  0  0  0  0  0  0  0  0  0
    0.4667    1.1458    0.0000 C   0  0  0  0  0  0  0  0  0  0  0  0
   -0.0083   -0.3375    0.0000 O   0  0  0  0  0  0  0  0  0  0  0  0
   -0.8833   -0.0292    0.0000 C   0  0  0  0  0  0  0  0  0  0  0  0
   -1.8000    1.2833    0.0000 C   0  0  0  0  0  0  0  0  0  0  0  0
   -3.8000   -1.2792    0.0000 C   0  0  0  0  0  0  0  0  0  0  0  0
   -1.0208    0.8333    0.0000 C   0  0  0  0  0  0  0  0  0  0  0  0
    3.2167   -0.5667    0.0000 C   0  0  0  0  0  0  0  0  0  0  0  0
    0.9792   -1.4917    0.0000 Cl  0  0  0  0  0  0  0  0  0  0  0  0
    3.0375    0.3208    0.0000 C   0  0  0  0  0  0  0  0  0  0  0  0
   -4.2333   -2.0625    0.0000 Cl  0  0  0  0  0  0  0  0  0  0  0  0
    4.1000   -0.8750    0.0000 Cl  0  0  0  0  0  0  0  0  0  0  0  0
   -2.9208    0.2958    0.0000 C   0  0  0  0  0  0  0  0  0  0  0  0
   -3.8208    0.2958    0.0000 C   0  0  0  0  0  0  0  0  0  0  0  0
   -4.2708   -0.5042    0.0000 C   0  0  0  0  0  0  0  0  0  0  0  0
  2  1  1  0
  3  6  2  0
  4 10  1  0
  5  2  2  0
  6  1  1  0
  7  4  2  0
  8 14  1  0
  9 11  2  0
 10 15  1  0
 11  8  1  0
 12  7  1  0
 13  4  1  0
 14 10  1  0
 15 16  1  0
 16  3  1  0
 17 19  2  0
 18  2  1  0
 19  8  1  0
 20 22  1  0
 21  7  1  0
 22 13  2  0
 23 18  1  0
 24 20  1  0
 25  5  1  0
 26 27  1  0
 27 18  2  0
  5  3  1  0
 25 26  2  0
 17  9  1  0
 12 20  2  0
M  END
> <chembl_id>
CHEMBL1201196

> <chembl_pref_name>
SERTACONAZOLE
