
     RDKit          2D

 32 35  0  0  1  0  0  0  0  0999 V2000
    4.0417   -6.3625    0.0000 C   0  0  0  0  0  0  0  0  0  0  0  0
    2.1917   -7.4125    0.0000 C   0  0  0  0  0  0  0  0  0  0  0  0
    4.7167   -6.1500    0.0000 C   0  0  0  0  0  0  0  0  0  0  0  0
    3.4167   -7.4167    0.0000 C   0  0  0  0  0  0  0  0  0  0  0  0
    4.0292   -7.0667    0.0000 C   0  0  0  0  0  0  0  0  0  0  0  0
    2.8042   -7.0542    0.0000 C   0  0  0  0  0  0  0  0  0  0  0  0
    2.1917   -8.1167    0.0000 C   0  0  0  0  0  0  0  0  0  0  0  0
    3.4292   -6.0000    0.0000 C   0  0  0  0  0  0  0  0  0  0  0  0
    2.8125   -6.3500    0.0000 C   0  0  0  0  0  0  0  0  0  0  0  0
    1.5792   -7.0542    0.0000 C   0  0  0  0  0  0  0  0  0  0  0  0
    4.7125   -5.4417    0.0000 C   0  0  0  0  0  0  0  0  0  0  0  0
    1.5792   -8.4750    0.0000 C   0  0  0  0  0  0  0  0  0  0  0  0
    5.1250   -6.7250    0.0000 C   0  0  0  0  0  0  0  0  0  0  0  0
    4.7042   -7.2917    0.0000 C   0  0  0  0  0  0  0  0  0  0  0  0
    3.4167   -8.1250    0.0000 C   0  0  0  0  0  0  0  0  0  0  0  0
    0.9750   -7.4125    0.0000 C   0  0  0  0  0  0  0  0  0  0  0  0
    0.9750   -8.1167    0.0000 C   0  0  0  0  0  0  0  0  0  0  0  0
    2.8042   -8.4750    0.0000 C   0  0  0  0  0  0  0  0  0  0  0  0
    6.5500   -5.0667    0.0000 C   0  0  0  0  0  0  0  0  0  0  0  0
    5.3167   -5.0792    0.0000 C   0  0  0  0  0  0  0  0  0  0  0  0
    4.0917   -5.0917    0.0000 O   0  0  0  0  0  0  0  0  0  0  0  0
    5.9375   -5.4292    0.0000 O   0  0  0  0  0  0  0  0  0  0  0  0
    6.5417   -4.3625    0.0000 O   0  0  0  0  0  0  0  0  0  0  0  0
    0.3542   -8.4667    0.0000 O   0  0  0  0  0  0  0  0  0  0  0  0
    5.3292   -5.7917    0.0000 O   0  0  0  0  0  0  0  0  0  0  0  0
    4.0375   -5.6542    0.0000 C   0  0  0  0  0  0  0  0  0  0  0  0
    2.1958   -5.9917    0.0000 O   0  0  0  0  0  0  0  0  0  0  0  0
    2.1917   -6.7042    0.0000 C   0  0  0  0  0  0  0  0  0  0  0  0
    7.1625   -5.4167    0.0000 C   0  0  0  0  0  0  0  0  0  0  0  0
    2.8042   -7.7667    0.0000 H   0  0  0  0  0  0  0  0  0  0  0  0
    4.0292   -7.7750    0.0000 H   0  0  0  0  0  0  0  0  0  0  0  0
    3.4167   -6.7042    0.0000 H   0  0  0  0  0  0  0  0  0  0  0  0
  2  6  1  0
  3  1  1  0
  4  5  1  0
  5  1  1  0
  6  9  1  0
  7  2  1  0
  8  1  1  0
  9  8  1  0
 10  2  1  0
 11  3  1  0
 12  7  2  0
 13  3  1  0
 14  5  1  0
 15  4  1  0
 16 10  2  0
 17 16  1  0
 18 15  1  0
 19 22  1  0
 20 11  1  0
 21 11  2  0
 22 20  1  0
 23 19  2  0
 24 17  2  0
  3 25  1  6
  1 26  1  1
  9 27  1  1
  2 28  1  1
 29 19  1  0
  6 30  1  6
  5 31  1  6
  4 32  1  1
 13 14  1  0
  6  4  1  0
 18  7  1  0
 17 12  1  0
M  END
> <chembl_id>
CHEMBL1152

> <chembl_pref_name>
PREDNISOLONE ACETATE
