
     RDKit          2D

 27 30  0  0  0  0  0  0  0  0999 V2000
   -3.9740    1.3900    0.0000 N   0  0  0  0  0  0  0  0  0  0  0  0
   -4.6885    0.9774    0.0000 C   0  0  0  0  0  0  0  0  0  0  0  0
   -3.9740   -0.2601    0.0000 C   0  0  0  0  0  0  0  0  0  0  0  0
   -3.2596    0.1524    0.0000 C   0  0  0  0  0  0  0  0  0  0  0  0
   -3.2596    0.9774    0.0000 C   0  0  0  0  0  0  0  0  0  0  0  0
   -2.5451   -0.2601    0.0000 C   0  0  0  0  0  0  0  0  0  0  0  0
   -1.8306    0.1524    0.0000 C   0  0  0  0  0  0  0  0  0  0  0  0
   -1.8306    0.9774    0.0000 C   0  0  0  0  0  0  0  0  0  0  0  0
   -2.5451    1.3899    0.0000 N   0  0  0  0  0  0  0  0  0  0  0  0
   -1.1161   -0.2601    0.0000 C   0  0  0  0  0  0  0  0  0  0  0  0
   -0.4016    0.1524    0.0000 C   0  0  0  0  0  0  0  0  0  0  0  0
   -0.4016    0.9774    0.0000 C   0  0  0  0  0  0  0  0  0  0  0  0
    0.3128   -0.2602    0.0000 C   0  0  0  0  0  0  0  0  0  0  0  0
    1.0273    0.1523    0.0000 N   0  0  0  0  0  0  0  0  0  0  0  0
    1.0273    0.9773    0.0000 C   0  0  0  0  0  0  0  0  0  0  0  0
   -1.1161   -1.0851    0.0000 C   0  0  0  0  0  0  0  0  0  0  0  0
   -0.4017   -1.4977    0.0000 C   0  0  0  0  0  0  0  0  0  0  0  0
    0.3128   -1.0851    0.0000 C   0  0  0  0  0  0  0  0  0  0  0  0
    1.0273   -1.4977    0.0000 C   0  0  0  0  0  0  0  0  0  0  0  0
    1.7418   -1.0852    0.0000 C   0  0  0  0  0  0  0  0  0  0  0  0
    1.7418   -0.2602    0.0000 C   0  0  0  0  0  0  0  0  0  0  0  0
    1.0273   -2.3227    0.0000 O   0  0  0  0  0  0  0  0  0  0  0  0
    2.4563   -2.3227    0.0000 O   0  0  0  0  0  0  0  0  0  0  0  0
    2.4563   -1.4977    0.0000 C   0  0  0  0  0  0  0  0  0  0  0  0
    2.9754   -0.8566    0.0000 O   0  0  0  0  0  0  0  0  0  0  0  0
    1.4398    1.6918    0.0000 C   0  0  0  0  0  0  0  0  0  0  0  0
    0.5780    1.6692    0.0000 C   0  0  0  0  0  0  0  0  0  0  0  0
  1  2  1  0
  3  4  1  0
  4  5  2  0
  1  5  1  0
  6  7  2  0
  7  8  1  0
  8  9  2  0
  4  6  1  0
  5  9  1  0
 10 11  2  0
 11 12  1  0
  7 10  1  0
 13 14  1  0
 14 15  1  0
 11 13  1  0
 16 17  2  0
 17 18  1  0
 10 16  1  0
 18 13  2  0
 19 20  1  0
 20 21  2  0
 14 21  1  0
 18 19  1  0
 23 24  1  0
 19 22  2  0
 20 24  1  0
 24 25  2  0
 15 26  1  0
 15 27  1  0
 27 26  1  0
M  END
> <chembl_id>
CHEMBL3990047

> <chembl_pref_name>
OZENOXACIN
