
     RDKit          2D

 36 36  0  0  0  0  0  0  0  0999 V2000
    1.9741   -6.3938    0.0000 O   0  0  0  0  0  0  0  0  0  0  0  0
   -0.3184   -4.1733    0.0000 C   0  0  0  0  0  0  0  0  0  0  0  0
   -0.9793   -3.6957    0.0000 N   0  0  0  0  0  0  0  0  0  0  0  0
   -0.5741   -4.9307    0.0000 C   0  0  0  0  0  0  0  0  0  0  0  0
    0.3763   -3.7632    0.0000 N   0  0  0  0  0  0  0  0  0  0  0  0
    6.1996   -1.4667    0.0000 N   0  0  0  0  0  0  0  0  0  0  0  0
   -1.6211   -4.1733    0.0000 S   0  0  0  0  0  0  0  0  0  0  0  0
    5.3891   -1.7224    0.0000 C   0  0  0  0  0  0  0  0  0  0  0  0
    6.6483   -2.1325    0.0000 C   0  0  0  0  0  0  0  0  0  0  0  0
    5.3891   -2.5474    0.0000 C   0  0  0  0  0  0  0  0  0  0  0  0
    4.7039   -1.2930    0.0000 C   0  0  0  0  0  0  0  0  0  0  0  0
   -1.3846   -4.9307    0.0000 C   0  0  0  0  0  0  0  0  0  0  0  0
    3.9707   -1.7224    0.0000 C   0  0  0  0  0  0  0  0  0  0  0  0
    3.9707   -2.5233    0.0000 C   0  0  0  0  0  0  0  0  0  0  0  0
    1.8141   -2.9285    0.0000 N   0  0  0  0  0  0  0  0  0  0  0  0
    4.7039   -2.9430    0.0000 C   0  0  0  0  0  0  0  0  0  0  0  0
    6.1996   -2.7838    0.0000 C   0  0  0  0  0  0  0  0  0  0  0  0
    0.3763   -2.9382    0.0000 C   0  0  0  0  0  0  0  0  0  0  0  0
    1.0759   -4.1733    0.0000 C   0  0  0  0  0  0  0  0  0  0  0  0
    7.4588   -2.1325    0.0000 O   0  0  0  0  0  0  0  0  0  0  0  0
    3.2276   -2.9285    0.0000 C   0  0  0  0  0  0  0  0  0  0  0  0
    2.5329   -2.5329    0.0000 C   0  0  0  0  0  0  0  0  0  0  0  0
    1.8141   -3.7391    0.0000 C   0  0  0  0  0  0  0  0  0  0  0  0
    1.0855   -2.5474    0.0000 C   0  0  0  0  0  0  0  0  0  0  0  0
    3.2566   -1.3316    0.0000 Cl  0  0  0  0  0  0  0  0  0  0  0  0
   -0.1109   -5.6641    0.0000 C   0  0  0  0  0  0  0  0  0  0  0  0
   -1.7899   -5.6641    0.0000 C   0  0  0  0  0  0  0  0  0  0  0  0
   -0.5500   -6.3829    0.0000 C   0  0  0  0  0  0  0  0  0  0  0  0
   -1.3846   -6.3829    0.0000 C   0  0  0  0  0  0  0  0  0  0  0  0
    4.8970   -5.5193    0.0000 S   0  0  0  0  0  0  0  0  0  0  0  0
    5.3022   -4.8053    0.0000 O   0  0  0  0  0  0  0  0  0  0  0  0
    4.4772   -4.8053    0.0000 O   0  0  0  0  0  0  0  0  0  0  0  0
    5.6062   -5.9342    0.0000 O   0  0  0  0  0  0  0  0  0  0  0  0
    4.1878   -5.9342    0.0000 C   0  0  0  0  0  0  0  0  0  0  0  0
    1.4732   -5.3625    0.0000 O   0  0  0  0  0  0  0  0  0  0  0  0
    2.6518   -5.4214    0.0000 O   0  0  0  0  0  0  0  0  0  0  0  0
  3  2  2  0
  4  2  1  0
  5  2  1  0
  6  8  1  0
  7  3  1  0
  8 10  2  0
  9 17  1  0
 10 16  1  0
 11 13  2  0
 12  4  1  0
 13 14  1  0
 14 21  1  0
 15 24  1  0
 16 14  2  0
 17 10  1  0
 18  5  1  0
 19  5  1  0
 20  9  2  0
 21 22  1  0
 22 15  1  0
 23 19  1  0
 24 18  1  0
 25 13  1  0
 26  4  2  0
 27 12  2  0
 28 26  1  0
 29 28  2  0
 12  7  1  0
 23 15  1  0
 27 29  1  0
 11  8  1  0
  6  9  1  0
 31 30  2  0
 32 30  2  0
 33 30  1  0
 34 30  1  0
M  END
> <chembl_id>
CHEMBL3989833

> <chembl_pref_name>
ZIPRASIDONE MESYLATE
