
     RDKit          2D

 23 23  0  0  0  0  0  0  0  0999 V2000
    0.0375    1.5208    0.0000 Cl  0  0  0  0  0  0  0  0  0  0  0  0
    0.1125   -0.3042    0.0000 N   0  0  0  0  0  0  0  0  0  0  0  0
   -0.6250   -0.5667    0.0000 C   0  0  0  0  0  0  0  0  0  0  0  0
   -1.2333   -0.0417    0.0000 C   0  0  0  0  0  0  0  0  0  0  0  0
   -1.9833   -0.3167    0.0000 C   0  0  0  0  0  0  0  0  0  0  0  0
   -2.5958    0.1958    0.0000 C   0  0  0  0  0  0  0  0  0  0  0  0
   -2.1333   -1.1000    0.0000 C   0  0  0  0  0  0  0  0  0  0  0  0
    2.0792   -1.0792    0.0000 O   0  0  0  0  0  0  0  0  0  0  0  0
   -3.4958   -0.8500    0.0000 C   0  0  0  0  0  0  0  0  0  0  0  0
   -1.0875    0.7208    0.0000 O   0  0  0  0  0  0  0  0  0  0  0  0
   -2.8833   -1.3667    0.0000 C   0  0  0  0  0  0  0  0  0  0  0  0
   -3.3458   -0.0625    0.0000 C   0  0  0  0  0  0  0  0  0  0  0  0
    1.4667   -0.5500    0.0000 C   0  0  0  0  0  0  0  0  0  0  0  0
    2.8292   -0.8042    0.0000 C   0  0  0  0  0  0  0  0  0  0  0  0
    0.7167   -0.8167    0.0000 C   0  0  0  0  0  0  0  0  0  0  0  0
   -4.2458   -1.1167    0.0000 O   0  0  0  0  0  0  0  0  0  0  0  0
   -0.7708   -1.3542    0.0000 C   0  0  0  0  0  0  0  0  0  0  0  0
    3.4375   -1.3292    0.0000 C   0  0  0  0  0  0  0  0  0  0  0  0
    2.9792   -0.0167    0.0000 C   0  0  0  0  0  0  0  0  0  0  0  0
    0.5667   -1.6125    0.0000 C   0  0  0  0  0  0  0  0  0  0  0  0
    4.1917   -1.0542    0.0000 C   0  0  0  0  0  0  0  0  0  0  0  0
    3.7292    0.2333    0.0000 C   0  0  0  0  0  0  0  0  0  0  0  0
    4.3417   -0.2667    0.0000 C   0  0  0  0  0  0  0  0  0  0  0  0
  3  2  1  0
  4  3  1  0
  5  4  1  0
  6  5  1  0
  7  5  2  0
  8 13  1  0
  9 11  2  0
 10  4  1  0
 11  7  1  0
 12  6  2  0
 13 15  1  0
 14  8  1  0
 15  2  1  0
 16  9  1  0
 17  3  1  0
 18 14  2  0
 19 14  1  0
 20 15  1  0
 21 18  1  0
 22 19  2  0
 23 21  2  0
 12  9  1  0
 22 23  1  0
M  END
> <chembl_id>
CHEMBL559180

> <chembl_pref_name>
ISOXSUPRINE HYDROCHLORIDE
