
     RDKit          2D

 21 22  0  0  0  0  0  0  0  0999 V2000
    0.3917    0.3625    0.0000 C   0  0  0  0  0  0  0  0  0  0  0  0
   -0.4833   -0.1917    0.0000 C   0  0  0  0  0  0  0  0  0  0  0  0
    0.1417    1.3625    0.0000 C   0  0  0  0  0  0  0  0  0  0  0  0
   -0.8833    1.4458    0.0000 N   0  0  0  0  0  0  0  0  0  0  0  0
   -1.2875    0.4750    0.0000 N   0  0  0  0  0  0  0  0  0  0  0  0
    3.1667    0.2000    0.0000 S   0  0  0  0  0  0  0  0  0  0  0  0
    1.3625   -0.0292    0.0000 N   0  0  0  0  0  0  0  0  0  0  0  0
    2.1917    0.5875    0.0000 C   0  0  0  0  0  0  0  0  0  0  0  0
   -0.5625   -1.2292    0.0000 O   0  0  0  0  0  0  0  0  0  0  0  0
    4.0542   -0.3542    0.0000 O   0  0  0  0  0  0  0  0  0  0  0  0
   -2.3083    0.2333    0.0000 C   0  0  0  0  0  0  0  0  0  0  0  0
    3.8000    1.0250    0.0000 O   0  0  0  0  0  0  0  0  0  0  0  0
    2.6875   -0.7292    0.0000 O   0  0  0  0  0  0  0  0  0  0  0  0
   -1.4458    2.3458    0.0000 C   0  0  0  0  0  0  0  0  0  0  0  0
    0.8167    2.1625    0.0000 C   0  0  0  0  0  0  0  0  0  0  0  0
    1.5042   -1.0792    0.0000 C   0  0  0  0  0  0  0  0  0  0  0  0
   -2.6000   -0.7750    0.0000 C   0  0  0  0  0  0  0  0  0  0  0  0
   -3.0333    0.9833    0.0000 C   0  0  0  0  0  0  0  0  0  0  0  0
   -3.6125   -1.0167    0.0000 C   0  0  0  0  0  0  0  0  0  0  0  0
   -4.0625    0.7333    0.0000 C   0  0  0  0  0  0  0  0  0  0  0  0
   -4.3458   -0.2417    0.0000 C   0  0  0  0  0  0  0  0  0  0  0  0
  2  1  1  0
  3  1  2  0
  4  3  1  0
  5  2  1  0
  6  8  1  0
  7  1  1  0
  8  7  1  0
  9  2  2  0
 10  6  1  0
 11  5  1  0
 12  6  2  0
 13  6  2  0
 14  4  1  0
 15  3  1  0
 16  7  1  0
 17 11  1  0
 18 11  2  0
 19 17  2  0
 20 18  1  0
 21 19  1  0
  5  4  1  0
 20 21  2  0
M  END
> <chembl_id>
CHEMBL461522

> <chembl_pref_name>
METAMIZOLE
