
     RDKit          2D

 42 46  0  0  0  0  0  0  0  0999 V2000
   -6.2918    2.1472    0.0000 C   0  0  0  0  0  0  0  0  0  0  0  0
   -7.0063    1.7347    0.0000 C   0  0  0  0  0  0  0  0  0  0  0  0
   -7.0063    0.9097    0.0000 O   0  0  0  0  0  0  0  0  0  0  0  0
   -6.2918    0.4972    0.0000 C   0  0  0  0  0  0  0  0  0  0  0  0
   -5.5773    0.9097    0.0000 C   0  0  0  0  0  0  0  0  0  0  0  0
   -5.5773    1.7347    0.0000 N   0  0  0  0  0  0  0  0  0  0  0  0
   -4.8629    2.1472    0.0000 C   0  0  0  0  0  0  0  0  0  0  0  0
   -4.1484    0.9097    0.0000 C   0  0  0  0  0  0  0  0  0  0  0  0
   -4.1484    1.7347    0.0000 C   0  0  0  0  0  0  0  0  0  0  0  0
   -3.4339    2.1472    0.0000 C   0  0  0  0  0  0  0  0  0  0  0  0
   -3.4339    0.4972    0.0000 C   0  0  0  0  0  0  0  0  0  0  0  0
   -2.7195    0.9097    0.0000 C   0  0  0  0  0  0  0  0  0  0  0  0
   -2.7195    1.7347    0.0000 C   0  0  0  0  0  0  0  0  0  0  0  0
   -2.0050    0.4972    0.0000 C   0  0  0  0  0  0  0  0  0  0  0  0
   -1.2905    0.9097    0.0000 C   0  0  0  0  0  0  0  0  0  0  0  0
   -0.5761    0.4972    0.0000 C   0  0  0  0  0  0  0  0  0  0  0  0
    0.1384    0.9097    0.0000 C   0  0  0  0  0  0  0  0  0  0  0  0
    0.1384    1.7347    0.0000 O   0  0  0  0  0  0  0  0  0  0  0  0
   -2.0050   -0.3278    0.0000 C   0  0  0  0  0  0  0  0  0  0  0  0
   -1.2905   -0.7404    0.0000 C   0  0  0  0  0  0  0  0  0  0  0  0
   -0.5761   -0.3278    0.0000 C   0  0  0  0  0  0  0  0  0  0  0  0
   -1.2905   -1.5654    0.0000 N   0  0  0  0  0  0  0  0  0  0  0  0
   -0.5761   -1.9779    0.0000 C   0  0  0  0  0  0  0  0  0  0  0  0
    0.1384   -1.5654    0.0000 C   0  0  0  0  0  0  0  0  0  0  0  0
    0.1384   -0.7404    0.0000 C   0  0  0  0  0  0  0  0  0  0  0  0
   -2.0050   -1.9779    0.0000 C   0  0  0  0  0  0  0  0  0  0  0  0
   -0.5761   -2.8029    0.0000 C   0  0  0  0  0  0  0  0  0  0  0  0
    0.1384   -3.2154    0.0000 C   0  0  0  0  0  0  0  0  0  0  0  0
    0.8529   -2.8029    0.0000 O   0  0  0  0  0  0  0  0  0  0  0  0
    0.8529   -1.9779    0.0000 C   0  0  0  0  0  0  0  0  0  0  0  0
   -2.7195   -1.5654    0.0000 C   0  0  0  0  0  0  0  0  0  0  0  0
    0.8529    0.4972    0.0000 N   0  0  0  0  0  0  0  0  0  0  0  0
    1.5673    0.9097    0.0000 C   0  0  0  0  0  0  0  0  0  0  0  0
    2.2818    0.4972    0.0000 C   0  0  0  0  0  0  0  0  0  0  0  0
    2.9963    0.9097    0.0000 C   0  0  0  0  0  0  0  0  0  0  0  0
    2.9963    1.7347    0.0000 C   0  0  0  0  0  0  0  0  0  0  0  0
    3.7107    0.4972    0.0000 C   0  0  0  0  0  0  0  0  0  0  0  0
    2.2818   -0.3278    0.0000 C   0  0  0  0  0  0  0  0  0  0  0  0
    2.9963   -0.7404    0.0000 N   0  0  0  0  0  0  0  0  0  0  0  0
    3.7107   -0.3278    0.0000 C   0  0  0  0  0  0  0  0  0  0  0  0
    1.5467   -0.7024    0.0000 O   0  0  0  0  0  0  0  0  0  0  0  0
    4.4026   -0.7772    0.0000 C   0  0  0  0  0  0  0  0  0  0  0  0
  1  2  1  0
  2  3  1  0
  3  4  1  0
  4  5  1  0
  5  6  1  0
  1  6  1  0
  8  9  2  0
  7  9  1  0
  7  6  1  0
 11 12  2  0
 12 13  1  0
 10 13  2  0
  8 11  1  0
 10  9  1  0
 14 15  2  0
 12 14  1  0
 16 17  1  0
 17 18  2  0
 15 16  1  0
 19 20  2  0
 20 21  1  0
 14 19  1  0
 21 16  2  0
 22 23  1  0
 23 24  1  0
 20 22  1  0
 21 25  1  0
 22 26  1  0
 27 23  1  0
 28 29  1  0
 29 30  1  0
 24 30  1  0
 27 28  1  0
 31 26  1  0
 32 33  1  0
 17 32  1  0
 34 35  2  0
 35 36  1  0
 33 34  1  0
 35 37  1  0
 38 39  1  0
 39 40  1  0
 34 38  1  0
 40 37  2  0
 38 41  2  0
 40 42  1  0
M  END
> <chembl_id>
CHEMBL3414621

> <chembl_pref_name>
TAZEMETOSTAT
