
     RDKit          2D

 13 15  0  0  0  0  0  0  0  0999 V2000
    1.4250    0.0000    0.0000 C   0  0  0  0  0  0  0  0  0  0  0  0
   -1.0083    0.2750    0.0000 C   0  0  0  0  0  0  0  0  0  0  0  0
   -1.1708   -1.1042    0.0000 C   0  0  0  0  0  0  0  0  0  0  0  0
   -2.1583    1.1083    0.0000 C   0  0  0  0  0  0  0  0  0  0  0  0
    0.2625    0.8500    0.0000 N   0  0  0  0  0  0  0  0  0  0  0  0
    1.4250   -1.4167    0.0000 N   0  0  0  0  0  0  0  0  0  0  0  0
   -0.5250   -2.3792    0.0000 C   0  0  0  0  0  0  0  0  0  0  0  0
   -1.9833   -2.2917    0.0000 C   0  0  0  0  0  0  0  0  0  0  0  0
   -2.8000    2.3833    0.0000 C   0  0  0  0  0  0  0  0  0  0  0  0
   -3.6500    1.2333    0.0000 C   0  0  0  0  0  0  0  0  0  0  0  0
    2.8250    0.4250    0.0000 O   0  0  0  0  0  0  0  0  0  0  0  0
    2.8000   -1.8667    0.0000 C   0  0  0  0  0  0  0  0  0  0  0  0
    3.6417   -0.7167    0.0000 C   0  0  0  0  0  0  0  0  0  0  0  0
  2  5  1  0
  3  2  1  0
  4  2  1  0
  5  1  1  0
  6  1  2  0
  7  3  1  0
  8  3  1  0
  9  4  1  0
 10  4  1  0
 11  1  1  0
 12  6  1  0
 13 11  1  0
 12 13  1  0
  9 10  1  0
  7  8  1  0
M  END
> <chembl_id>
CHEMBL289480

> <chembl_pref_name>
RILMENIDINE
