
     RDKit          2D

 20 20  0  0  0  0  0  0  0  0999 V2000
    4.0292   -0.2292    0.0000 Na  0  0  0  0  0 15  0  0  0  0  0  0
    0.3167   -0.5542    0.0000 C   0  0  0  0  0  0  0  0  0  0  0  0
    0.8917   -0.1292    0.0000 N   0  0  0  0  0  0  0  0  0  0  0  0
    1.4667   -0.5542    0.0000 C   0  0  0  0  0  0  0  0  0  0  0  0
    0.5375   -1.2292    0.0000 C   0  0  0  0  0  0  0  0  0  0  0  0
   -0.3000   -0.1917    0.0000 C   0  0  0  0  0  0  0  0  0  0  0  0
    2.0708   -0.1917    0.0000 C   0  0  0  0  0  0  0  0  0  0  0  0
    1.2417   -1.2292    0.0000 C   0  0  0  0  0  0  0  0  0  0  0  0
    2.6917   -0.5417    0.0000 C   0  0  0  0  0  0  0  0  0  0  0  0
   -0.9125   -0.5500    0.0000 C   0  0  0  0  0  0  0  0  0  0  0  0
   -0.2958    0.5083    0.0000 O   0  0  0  0  0  0  0  0  0  0  0  0
    3.3042   -0.1792    0.0000 O   0  0  0  0  0  0  0  0  0  0  0  0
    2.7042   -1.2500    0.0000 O   0  0  0  0  0  0  0  0  0  0  0  0
   -1.5208   -0.1917    0.0000 C   0  0  0  0  0  0  0  0  0  0  0  0
   -0.9083   -1.2542    0.0000 C   0  0  0  0  0  0  0  0  0  0  0  0
    0.8917    0.5708    0.0000 C   0  0  0  0  0  0  0  0  0  0  0  0
   -1.5208   -1.6125    0.0000 C   0  0  0  0  0  0  0  0  0  0  0  0
   -2.1375   -0.5500    0.0000 C   0  0  0  0  0  0  0  0  0  0  0  0
   -2.1375   -1.2542    0.0000 C   0  0  0  0  0  0  0  0  0  0  0  0
   -2.7500   -1.6125    0.0000 C   0  0  0  0  0  0  0  0  0  0  0  0
  3  2  1  0
  4  3  1  0
  5  2  2  0
  6  2  1  0
  7  4  1  0
  8  5  1  0
  9  7  1  0
 10  6  1  0
 11  6  2  0
 12  9  1  0
 13  9  2  0
 14 10  2  0
 15 10  1  0
 16  3  1  0
 17 15  2  0
 18 14  1  0
 19 17  1  0
 20 19  1  0
  8  4  2  0
 18 19  2  0
M  CHG  2   1   1  12  -1
M  END
> <chembl_id>
CHEMBL1200613

> <chembl_pref_name>
TOLMETIN SODIUM
