
     RDKit          2D

 26 27  0  0  0  0  0  0  0  0999 V2000
   -0.4833    2.0000    0.0000 S   0  0  0  0  0  0  0  0  0  0  0  0
   -0.8708   -1.0625    0.0000 C   0  0  0  0  0  0  0  0  0  0  0  0
   -1.0500    0.8833    0.0000 C   0  0  0  0  0  0  0  0  0  0  0  0
   -2.0333   -1.0792    0.0000 C   0  0  0  0  0  0  0  0  0  0  0  0
   -0.3708   -0.0042    0.0000 C   0  0  0  0  0  0  0  0  0  0  0  0
   -0.2625   -1.9875    0.0000 C   0  0  0  0  0  0  0  0  0  0  0  0
   -2.1708    0.8833    0.0000 C   0  0  0  0  0  0  0  0  0  0  0  0
   -2.6833   -0.1542    0.0000 C   0  0  0  0  0  0  0  0  0  0  0  0
    3.3750   -0.2792    0.0000 N   0  0  0  0  0  0  0  0  0  0  0  0
    0.8917   -1.9875    0.0000 N   0  0  0  0  0  0  0  0  0  0  0  0
   -1.5208    2.5208    0.0000 O   0  0  0  0  0  0  0  0  0  0  0  0
    0.5292    1.4833    0.0000 O   0  0  0  0  0  0  0  0  0  0  0  0
    0.0500    3.0875    0.0000 N   0  0  0  0  0  0  0  0  0  0  0  0
    2.5292   -1.0625    0.0000 C   0  0  0  0  0  0  0  0  0  0  0  0
   -0.7458   -2.9792    0.0000 O   0  0  0  0  0  0  0  0  0  0  0  0
    1.5542   -1.0625    0.0000 C   0  0  0  0  0  0  0  0  0  0  0  0
    2.1500    1.2625    0.0000 C   0  0  0  0  0  0  0  0  0  0  0  0
    1.2542    0.5083    0.0000 C   0  0  0  0  0  0  0  0  0  0  0  0
   -2.5458   -2.1167    0.0000 O   0  0  0  0  0  0  0  0  0  0  0  0
   -3.8458   -0.1750    0.0000 O   0  0  0  0  0  0  0  0  0  0  0  0
    3.1792    0.8083    0.0000 C   0  0  0  0  0  0  0  0  0  0  0  0
    4.3417   -0.7917    0.0000 C   0  0  0  0  0  0  0  0  0  0  0  0
    4.2167   -1.8792    0.0000 C   0  0  0  0  0  0  0  0  0  0  0  0
    3.1000   -2.0917    0.0000 C   0  0  0  0  0  0  0  0  0  0  0  0
   -3.7083   -2.1792    0.0000 C   0  0  0  0  0  0  0  0  0  0  0  0
   -4.3458   -1.2167    0.0000 C   0  0  0  0  0  0  0  0  0  0  0  0
  2  5  1  0
  3  1  1  0
  4  8  1  0
  5  3  2  0
  6  2  1  0
  7  3  1  0
  8  7  2  0
  9 14  1  0
 10  6  1  0
 11  1  2  0
 12  1  2  0
 13  1  1  0
 14 16  1  0
 15  6  2  0
 16 10  1  0
 17 21  1  0
 18 17  2  0
 19  4  1  0
 20  8  1  0
 21  9  1  0
 22  9  1  0
 23 24  1  0
 24 14  1  0
 25 19  1  0
 26 20  1  0
  2  4  2  0
 22 23  1  0
M  END
> <chembl_id>
CHEMBL2105581

> <chembl_pref_name>
VERALIPRIDE
