
     RDKit          2D

 22 25  0  0  0  0  0  0  0  0999 V2000
    7.0457    0.0291    0.0000 C   0  0  0  0  0  0  0  0  0  0  0  0
    7.6839    0.7135    0.0000 C   0  0  0  0  0  0  0  0  0  0  0  0
    7.8504    0.2531    0.0000 C   0  0  0  0  0  0  0  0  0  0  0  0
    8.3959    0.4480    0.0000 C   0  0  0  0  0  0  0  0  0  0  0  0
    8.5994   -0.0483    0.0000 C   0  0  0  0  0  0  0  0  0  0  0  0
    9.1442    0.6326    0.0000 C   0  0  0  0  0  0  0  0  0  0  0  0
    7.8478    1.1014    0.0000 C   0  0  0  0  0  0  0  0  0  0  0  0
    8.4016    1.7644    0.0000 C   0  0  0  0  0  0  0  0  0  0  0  0
    7.6794    1.5051    0.0000 C   0  0  0  0  0  0  0  0  0  0  0  0
    9.1500    1.4517    0.0000 C   0  0  0  0  0  0  0  0  0  0  0  0
    8.3964    2.5915    0.0000 O   0  0  0  0  0  0  0  0  0  0  0  0
    9.9687    0.6650    0.0000 N   0  0  0  0  0  0  0  0  0  0  0  0
   10.4111   -0.0292    0.0000 C   0  0  0  0  0  0  0  0  0  0  0  0
   11.2356    0.0033    0.0000 C   0  0  0  0  0  0  0  0  0  0  0  0
   11.6739   -0.6951    0.0000 N   0  0  0  0  0  0  0  0  0  0  0  0
   11.6177    0.7341    0.0000 O   0  0  0  0  0  0  0  0  0  0  0  0
   11.3733   -1.4609    0.0000 C   0  0  0  0  0  0  0  0  0  0  0  0
   12.0088   -1.9899    0.0000 C   0  0  0  0  0  0  0  0  0  0  0  0
   12.7030   -1.5474    0.0000 C   0  0  0  0  0  0  0  0  0  0  0  0
   12.5006   -0.7476    0.0000 C   0  0  0  0  0  0  0  0  0  0  0  0
   10.5738   -1.6647    0.0000 C   0  0  0  0  0  0  0  0  0  0  0  0
    9.7755   -1.8743    0.0000 N   0  0  0  0  0  0  0  0  0  0  0  0
  8  9  1  0
  8 11  1  0
  1  2  1  0
  6 12  1  0
  1  3  1  0
 12 13  1  0
  2  4  1  0
 13 14  1  0
  3  5  1  0
 14 15  1  0
  4  6  1  0
 14 16  2  0
 15 17  1  0
  5  6  1  0
  7  8  1  0
  3  7  1  0
  2  9  1  0
 17 18  1  0
 18 19  1  0
 19 20  1  0
 20 15  1  0
  6 10  1  0
 17 21  1  1
 10  8  1  0
 21 22  3  0
M  END
> <chembl_id>
CHEMBL142703

> <chembl_pref_name>
VILDAGLIPTIN
