
     RDKit          2D

 30 33  0  0  0  0  0  0  0  0999 V2000
  -21.2923    5.8671    0.0000 C   0  0  0  0  0  0  0  0  0  0  0  0
  -22.0068    5.4546    0.0000 C   0  0  0  0  0  0  0  0  0  0  0  0
  -22.0068    4.6296    0.0000 C   0  0  0  0  0  0  0  0  0  0  0  0
  -21.2923    4.2171    0.0000 N   0  0  0  0  0  0  0  0  0  0  0  0
  -20.5778    4.6296    0.0000 C   0  0  0  0  0  0  0  0  0  0  0  0
  -20.5778    5.4546    0.0000 C   0  0  0  0  0  0  0  0  0  0  0  0
  -19.8633    5.8671    0.0000 C   0  0  0  0  0  0  0  0  0  0  0  0
  -19.1096    5.5316    0.0000 C   0  0  0  0  0  0  0  0  0  0  0  0
  -18.5576    6.1446    0.0000 N   0  0  0  0  0  0  0  0  0  0  0  0
  -18.9701    6.8591    0.0000 N   0  0  0  0  0  0  0  0  0  0  0  0
  -19.7771    6.6876    0.0000 C   0  0  0  0  0  0  0  0  0  0  0  0
  -22.7212    5.8671    0.0000 O   0  0  0  0  0  0  0  0  0  0  0  0
  -22.7212    6.6921    0.0000 C   0  0  0  0  0  0  0  0  0  0  0  0
  -23.4357    7.1046    0.0000 C   0  0  0  0  0  0  0  0  0  0  0  0
  -23.4357    7.9296    0.0000 C   0  0  0  0  0  0  0  0  0  0  0  0
  -24.1502    8.3421    0.0000 C   0  0  0  0  0  0  0  0  0  0  0  0
  -24.8647    7.9296    0.0000 C   0  0  0  0  0  0  0  0  0  0  0  0
  -24.8647    7.1046    0.0000 C   0  0  0  0  0  0  0  0  0  0  0  0
  -24.1502    6.6921    0.0000 C   0  0  0  0  0  0  0  0  0  0  0  0
  -22.7212    8.3421    0.0000 C   0  0  0  0  0  0  0  0  0  0  0  0
  -22.7212    9.1671    0.0000 O   0  0  0  0  0  0  0  0  0  0  0  0
  -21.3834    7.8365    0.0000 N   0  0  0  0  0  0  0  0  0  0  0  0
  -21.0493    7.0468    0.0000 C   0  0  0  0  0  0  0  0  0  0  0  0
  -17.7371    6.0584    0.0000 C   0  0  0  0  0  0  0  0  0  0  0  0
  -18.9381    4.7246    0.0000 C   0  0  0  0  0  0  0  0  0  0  0  0
  -18.7666    3.9176    0.0000 N   0  0  0  0  0  0  0  0  0  0  0  0
  -22.7212    4.2171    0.0000 N   0  0  0  0  0  0  0  0  0  0  0  0
  -22.0068    7.1046    0.0000 C   0  0  0  0  0  0  0  0  0  0  0  0
  -25.5791    6.6921    0.0000 F   0  0  0  0  0  0  0  0  0  0  0  0
  -20.8115    8.4311    0.0000 C   0  0  0  0  0  0  0  0  0  0  0  0
  1  2  1  0
  1  6  2  0
  2  3  2  0
  3  4  1  0
  4  5  2  0
  5  6  1  0
  6  7  1  0
  7  8  2  0
  7 11  1  0
  8  9  1  0
  9 10  1  0
 10 11  2  0
  2 12  1  0
 12 13  1  0
 13 14  1  0
 14 15  1  0
 14 19  2  0
 15 16  2  0
 16 17  1  0
 17 18  2  0
 18 19  1  0
 15 20  1  0
 20 21  2  0
 20 22  1  0
 22 23  1  0
 23 11  1  0
  9 24  1  0
  8 25  1  0
 25 26  3  0
  3 27  1  0
 13 28  1  1
 18 29  1  0
 22 30  1  0
M  END
> <chembl_id>
CHEMBL3286830

> <chembl_pref_name>
LORLATINIB
