
     RDKit          2D

 17 17  0  0  0  0  0  0  0  0999 V2000
    4.8167   -4.8542    0.0000 C   0  0  0  0  0  0  0  0  0  0  0  0
    4.1917   -5.1917    0.0000 C   0  0  0  0  0  0  0  0  0  0  0  0
    3.5792   -4.8250    0.0000 C   0  0  0  0  0  0  0  0  0  0  0  0
    4.8250   -4.1417    0.0000 C   0  0  0  0  0  0  0  0  0  0  0  0
    3.5917   -4.1250    0.0000 C   0  0  0  0  0  0  0  0  0  0  0  0
    5.4125   -5.2167    0.0000 C   0  0  0  0  0  0  0  0  0  0  0  0
    4.2167   -3.7750    0.0000 C   0  0  0  0  0  0  0  0  0  0  0  0
    6.6417   -5.2292    0.0000 C   0  0  0  0  0  0  0  0  0  0  0  0
    6.0375   -4.8792    0.0000 C   0  0  0  0  0  0  0  0  0  0  0  0
    6.6667   -5.9417    0.0000 O   0  0  0  0  0  0  0  0  0  0  0  0
    2.9542   -5.1667    0.0000 N   0  0  0  0  0  0  0  0  0  0  0  0
    4.1792   -5.9000    0.0000 I   0  0  0  0  0  0  0  0  0  0  0  0
    5.4417   -3.7917    0.0000 I   0  0  0  0  0  0  0  0  0  0  0  0
    2.9792   -3.7542    0.0000 I   0  0  0  0  0  0  0  0  0  0  0  0
    7.2542   -4.8667    0.0000 O   0  0  0  0  0  0  0  0  0  0  0  0
    6.0500   -4.1667    0.0000 C   0  0  0  0  0  0  0  0  0  0  0  0
    6.6750   -3.8250    0.0000 C   0  0  0  0  0  0  0  0  0  0  0  0
  2  1  1  0
  3  2  2  0
  4  1  2  0
  5  7  2  0
  6  1  1  0
  7  4  1  0
  8  9  1  0
  9  6  1  0
 10  8  2  0
 11  3  1  0
 12  2  1  0
 13  4  1  0
 14  5  1  0
 15  8  1  0
 16  9  1  0
 17 16  1  0
  5  3  1  0
M  END
> <chembl_id>
CHEMBL867

> <chembl_pref_name>
IOPANOIC ACID
