
     RDKit          2D

 23 27  0  0  0  0  0  0  0  0999 V2000
   -2.1705   -5.8338    0.0000 N   0  0  0  0  0  0  0  0  0  0  0  0
   -2.1705   -4.1838    0.0000 S   0  0  0  0  0  0  0  0  0  0  0  0
   -1.4561   -5.4213    0.0000 C   0  0  0  0  0  0  0  0  0  0  0  0
   -2.8850   -5.4213    0.0000 C   0  0  0  0  0  0  0  0  0  0  0  0
   -1.4561   -4.5963    0.0000 C   0  0  0  0  0  0  0  0  0  0  0  0
   -2.8850   -4.5963    0.0000 C   0  0  0  0  0  0  0  0  0  0  0  0
   -2.1705   -6.6588    0.0000 C   0  0  0  0  0  0  0  0  0  0  0  0
   -4.3139   -7.8963    0.0000 C   0  0  0  0  0  0  0  0  0  0  0  0
   -2.8850   -7.0713    0.0000 C   0  0  0  0  0  0  0  0  0  0  0  0
   -4.3139   -7.0713    0.0000 N   0  0  0  0  0  0  0  0  0  0  0  0
   -3.5995   -8.3088    0.0000 C   0  0  0  0  0  0  0  0  0  0  0  0
   -3.5995   -6.6588    0.0000 C   0  0  0  0  0  0  0  0  0  0  0  0
   -2.8850   -7.8963    0.0000 C   0  0  0  0  0  0  0  0  0  0  0  0
   -0.7416   -5.8338    0.0000 C   0  0  0  0  0  0  0  0  0  0  0  0
   -3.5995   -5.8338    0.0000 C   0  0  0  0  0  0  0  0  0  0  0  0
   -0.7416   -4.1838    0.0000 C   0  0  0  0  0  0  0  0  0  0  0  0
   -3.5995   -4.1838    0.0000 C   0  0  0  0  0  0  0  0  0  0  0  0
   -0.0271   -5.4213    0.0000 C   0  0  0  0  0  0  0  0  0  0  0  0
   -4.3139   -5.4213    0.0000 C   0  0  0  0  0  0  0  0  0  0  0  0
   -4.3139   -4.5963    0.0000 C   0  0  0  0  0  0  0  0  0  0  0  0
   -0.0271   -4.5963    0.0000 C   0  0  0  0  0  0  0  0  0  0  0  0
   -3.5521   -7.2122    0.0000 C   0  0  0  0  0  0  0  0  0  0  0  0
   -3.5869   -7.9280    0.0000 C   0  0  0  0  0  0  0  0  0  0  0  0
  2  6  1  0
  3  1  1  0
  4  1  1  0
  5  3  2  0
  6  4  2  0
  7  1  1  0
  8 11  1  0
  9  7  1  0
 10 12  1  0
 11 13  1  0
 12  9  1  0
 13  9  1  0
 14  3  1  0
 15  4  1  0
 16  5  1  0
 17  6  1  0
 18 14  2  0
 19 15  2  0
 20 19  1  0
 21 18  1  0
  5  2  1  0
 10  8  1  0
 17 20  2  0
 16 21  2  0
 10 22  1  0
 22 23  1  0
 23 13  1  0
M  END
> <chembl_id>
CHEMBL73451

> <chembl_pref_name>
MEQUITAZINE
