
     RDKit          2D

 35 36  0  0  0  0  0  0  0  0999 V2000
    0.9625   -7.2042    0.0000 C   0  0  0  0  0  0  0  0  0  0  0  0
    5.8667   -7.1917    0.0000 C   0  0  0  0  0  0  0  0  0  0  0  0
    1.5750   -7.5625    0.0000 C   0  0  0  0  0  0  0  0  0  0  0  0
    5.2542   -7.5417    0.0000 C   0  0  0  0  0  0  0  0  0  0  0  0
    0.9625   -6.5000    0.0000 C   0  0  0  0  0  0  0  0  0  0  0  0
    5.8625   -6.4792    0.0000 C   0  0  0  0  0  0  0  0  0  0  0  0
    3.4125   -6.4917    0.0000 C   0  0  0  0  0  0  0  0  0  0  0  0
    4.6417   -6.4875    0.0000 C   0  0  0  0  0  0  0  0  0  0  0  0
    2.1875   -6.4917    0.0000 C   0  0  0  0  0  0  0  0  0  0  0  0
    2.8000   -6.1375    0.0000 S   0  0  0  0  0  0  0  0  0  0  0  0
    4.0250   -6.1292    0.0000 S   0  0  0  0  0  0  0  0  0  0  0  0
    1.5792   -8.2667    0.0000 C   0  0  0  0  0  0  0  0  0  0  0  0
    0.3500   -6.1417    0.0000 C   0  0  0  0  0  0  0  0  0  0  0  0
    6.4750   -6.1167    0.0000 C   0  0  0  0  0  0  0  0  0  0  0  0
    5.2542   -8.2542    0.0000 C   0  0  0  0  0  0  0  0  0  0  0  0
    4.6417   -7.1917    0.0000 C   0  0  0  0  0  0  0  0  0  0  0  0
    5.2417   -6.1292    0.0000 C   0  0  0  0  0  0  0  0  0  0  0  0
    2.1875   -7.2042    0.0000 C   0  0  0  0  0  0  0  0  0  0  0  0
    1.5750   -6.1417    0.0000 C   0  0  0  0  0  0  0  0  0  0  0  0
    0.3500   -7.5625    0.0000 O   0  0  0  0  0  0  0  0  0  0  0  0
    6.4792   -7.5417    0.0000 O   0  0  0  0  0  0  0  0  0  0  0  0
    3.0542   -7.1042    0.0000 C   0  0  0  0  0  0  0  0  0  0  0  0
    3.7625   -7.1042    0.0000 C   0  0  0  0  0  0  0  0  0  0  0  0
    1.9292   -8.8792    0.0000 C   0  0  0  0  0  0  0  0  0  0  0  0
    2.2875   -8.2667    0.0000 C   0  0  0  0  0  0  0  0  0  0  0  0
    0.7000   -5.5250    0.0000 C   0  0  0  0  0  0  0  0  0  0  0  0
   -0.0083   -5.5250    0.0000 C   0  0  0  0  0  0  0  0  0  0  0  0
   -0.2625   -6.4917    0.0000 C   0  0  0  0  0  0  0  0  0  0  0  0
    7.0875   -6.4667    0.0000 C   0  0  0  0  0  0  0  0  0  0  0  0
    0.9667   -8.6250    0.0000 C   0  0  0  0  0  0  0  0  0  0  0  0
    5.8667   -8.6042    0.0000 C   0  0  0  0  0  0  0  0  0  0  0  0
    4.8917   -8.8667    0.0000 C   0  0  0  0  0  0  0  0  0  0  0  0
    4.5417   -8.2542    0.0000 C   0  0  0  0  0  0  0  0  0  0  0  0
    6.8250   -5.5042    0.0000 C   0  0  0  0  0  0  0  0  0  0  0  0
    6.1167   -5.5042    0.0000 C   0  0  0  0  0  0  0  0  0  0  0  0
  2  6  1  0
  3  1  1  0
  4 16  1  0
  5  1  2  0
  6 17  2  0
  7 10  1  0
  8 11  1  0
  9 19  2  0
 10  9  1  0
 11  7  1  0
 12  3  1  0
 13  5  1  0
 14  6  1  0
 15  4  1  0
 16  8  2  0
 17  8  1  0
 18  3  2  0
 19  5  1  0
 20  1  1  0
 21  2  1  0
 22  7  1  0
 23  7  1  0
 24 12  1  0
 25 12  1  0
 26 13  1  0
 27 13  1  0
 28 13  1  0
 29 14  1  0
 30 12  1  0
 31 15  1  0
 32 15  1  0
 33 15  1  0
 34 14  1  0
 35 14  1  0
  9 18  1  0
  2  4  2  0
M  END
> <chembl_id>
CHEMBL608

> <chembl_pref_name>
PROBUCOL
