
     RDKit          2D

 30 33  0  0  0  0  0  0  0  0999 V2000
    3.2917   -4.0667    0.0000 N   0  0  0  0  0  0  0  0  0  0  0  0
    2.7000   -3.6875    0.0000 C   0  0  0  0  0  0  0  0  0  0  0  0
    3.6417   -3.0000    0.0000 N   0  0  0  0  0  0  0  0  0  0  0  0
    2.9375   -3.0000    0.0000 C   0  0  0  0  0  0  0  0  0  0  0  0
    3.8792   -3.6875    0.0000 C   0  0  0  0  0  0  0  0  0  0  0  0
    6.3667   -5.1542    0.0000 C   0  0  0  0  0  0  0  0  0  0  0  0
    6.7292   -4.1042    0.0000 N   0  0  0  0  0  0  0  0  0  0  0  0
    6.9375   -4.7792    0.0000 N   0  0  0  0  0  0  0  0  0  0  0  0
    6.0125   -4.1042    0.0000 N   0  0  0  0  0  0  0  0  0  0  0  0
    5.8042   -4.7792    0.0000 N   0  0  0  0  0  0  0  0  0  0  0  0
    6.3667   -5.8417    0.0000 C   0  0  0  0  0  0  0  0  0  0  0  0
    5.7625   -6.2167    0.0000 C   0  0  0  0  0  0  0  0  0  0  0  0
    3.3042   -4.7917    0.0000 C   0  0  0  0  0  0  0  0  0  0  0  0
    5.1417   -5.8792    0.0000 C   0  0  0  0  0  0  0  0  0  0  0  0
    2.5167   -2.4042    0.0000 Cl  0  0  0  0  0  0  0  0  0  0  0  0
    2.0875   -4.0167    0.0000 C   0  0  0  0  0  0  0  0  0  0  0  0
    4.5292   -6.2375    0.0000 C   0  0  0  0  0  0  0  0  0  0  0  0
    5.1417   -5.1542    0.0000 C   0  0  0  0  0  0  0  0  0  0  0  0
    3.9125   -5.1542    0.0000 C   0  0  0  0  0  0  0  0  0  0  0  0
    4.4792   -4.0667    0.0000 C   0  0  0  0  0  0  0  0  0  0  0  0
    3.9125   -5.8792    0.0000 C   0  0  0  0  0  0  0  0  0  0  0  0
    4.5292   -4.7792    0.0000 C   0  0  0  0  0  0  0  0  0  0  0  0
    6.9875   -6.2167    0.0000 C   0  0  0  0  0  0  0  0  0  0  0  0
    1.4542   -3.6875    0.0000 O   0  0  0  0  0  0  0  0  0  0  0  0
    5.7625   -6.9250    0.0000 C   0  0  0  0  0  0  0  0  0  0  0  0
    5.0917   -3.7292    0.0000 C   0  0  0  0  0  0  0  0  0  0  0  0
    5.0875   -3.0292    0.0000 C   0  0  0  0  0  0  0  0  0  0  0  0
    6.9875   -6.9250    0.0000 C   0  0  0  0  0  0  0  0  0  0  0  0
    6.3667   -7.2792    0.0000 C   0  0  0  0  0  0  0  0  0  0  0  0
    5.7375   -2.6375    0.0000 C   0  0  0  0  0  0  0  0  0  0  0  0
  2  1  1  0
  3  5  2  0
  4  2  2  0
  5  1  1  0
  6 11  1  0
  7  8  1  0
  8  6  1  0
  9 10  1  0
 10  6  2  0
 11 12  2  0
 12 14  1  0
 13  1  1  0
 14 18  2  0
 15  4  1  0
 16  2  1  0
 17 21  2  0
 18 22  1  0
 19 13  1  0
 20  5  1  0
 21 19  1  0
 22 19  2  0
 23 11  1  0
 24 16  1  0
 25 12  1  0
 26 20  1  0
 27 26  1  0
 28 29  1  0
 29 25  2  0
 30 27  1  0
  4  3  1  0
 14 17  1  0
 28 23  2  0
  7  9  2  0
M  END
> <chembl_id>
CHEMBL191

> <chembl_pref_name>
LOSARTAN
