
     RDKit          2D

 19 20  0  0  0  0  0  0  0  0999 V2000
    3.2375   -1.9750    0.0000 C   0  0  0  0  0  0  0  0  0  0  0  0
    3.8542   -2.3292    0.0000 O   0  0  0  0  0  0  0  0  0  0  0  0
    3.2292   -1.2792    0.0000 O   0  0  0  0  0  0  0  0  0  0  0  0
    2.6250   -2.3417    0.0000 C   0  0  0  0  0  0  0  0  0  0  0  0
    5.7000   -1.9417    0.0000 N   0  0  0  0  0  0  0  0  0  0  0  0
    5.0875   -2.3167    0.0000 C   0  0  0  0  0  0  0  0  0  0  0  0
    4.4667   -1.9625    0.0000 C   0  0  0  0  0  0  0  0  0  0  0  0
    6.3042   -2.3125    0.0000 C   0  0  0  0  0  0  0  0  0  0  0  0
    2.0042   -1.9917    0.0000 C   0  0  0  0  0  0  0  0  0  0  0  0
    2.6292   -3.0417    0.0000 C   0  0  0  0  0  0  0  0  0  0  0  0
    6.9167   -1.9542    0.0000 C   0  0  0  0  0  0  0  0  0  0  0  0
    6.3000   -3.0292    0.0000 C   0  0  0  0  0  0  0  0  0  0  0  0
    4.4542   -1.2625    0.0000 C   0  0  0  0  0  0  0  0  0  0  0  0
    1.3917   -2.3542    0.0000 C   0  0  0  0  0  0  0  0  0  0  0  0
    2.0250   -3.4125    0.0000 C   0  0  0  0  0  0  0  0  0  0  0  0
    6.9042   -3.3917    0.0000 C   0  0  0  0  0  0  0  0  0  0  0  0
    7.5250   -2.3250    0.0000 C   0  0  0  0  0  0  0  0  0  0  0  0
    1.4042   -3.0542    0.0000 C   0  0  0  0  0  0  0  0  0  0  0  0
    7.5167   -3.0417    0.0000 C   0  0  0  0  0  0  0  0  0  0  0  0
  2  1  1  0
  3  1  2  0
  4  1  1  0
  5  6  1  0
  6  7  1  0
  7  2  1  0
  8  5  1  0
  9  4  2  0
 10  4  1  0
 11  8  1  0
 12  8  1  0
 13  7  1  0
 14  9  1  0
 15 10  2  0
 16 12  1  0
 17 11  1  0
 18 14  2  0
 19 17  1  0
 18 15  1  0
 19 16  1  0
M  END
> <chembl_id>
CHEMBL1197

> <chembl_pref_name>
HEXYLCAINE
