
     RDKit          2D

 22 22  0  0  0  0  0  0  0  0999 V2000
    3.9667   -6.9667    0.0000 Cl  0  0  0  0  0  0  0  0  0  0  0  0
    5.6792   -4.9875    0.0000 C   0  0  0  0  0  0  0  0  0  0  0  0
    4.9542   -4.9875    0.0000 C   0  0  0  0  0  0  0  0  0  0  0  0
    5.6792   -4.2542    0.0000 C   0  0  0  0  0  0  0  0  0  0  0  0
    4.6125   -4.3542    0.0000 C   0  0  0  0  0  0  0  0  0  0  0  0
    4.6125   -5.5917    0.0000 C   0  0  0  0  0  0  0  0  0  0  0  0
    5.6792   -5.6875    0.0000 O   0  0  0  0  0  0  0  0  0  0  0  0
    3.5250   -4.9875    0.0000 C   0  0  0  0  0  0  0  0  0  0  0  0
    6.8917   -7.1167    0.0000 N   0  0  0  0  0  0  0  0  0  0  0  0
    3.8875   -4.3542    0.0000 C   0  0  0  0  0  0  0  0  0  0  0  0
    3.8875   -5.5917    0.0000 C   0  0  0  0  0  0  0  0  0  0  0  0
    2.8250   -4.9875    0.0000 Cl  0  0  0  0  0  0  0  0  0  0  0  0
    6.2792   -6.0500    0.0000 C   0  0  0  0  0  0  0  0  0  0  0  0
    6.3792   -4.9875    0.0000 C   0  0  0  0  0  0  0  0  0  0  0  0
    6.2792   -6.7542    0.0000 C   0  0  0  0  0  0  0  0  0  0  0  0
    5.0667   -3.9042    0.0000 C   0  0  0  0  0  0  0  0  0  0  0  0
    6.2792   -3.9042    0.0000 C   0  0  0  0  0  0  0  0  0  0  0  0
    7.5000   -6.7542    0.0000 C   0  0  0  0  0  0  0  0  0  0  0  0
    6.8917   -7.8167    0.0000 C   0  0  0  0  0  0  0  0  0  0  0  0
    6.2792   -3.2000    0.0000 C   0  0  0  0  0  0  0  0  0  0  0  0
    5.0667   -3.2000    0.0000 C   0  0  0  0  0  0  0  0  0  0  0  0
    5.6792   -2.8375    0.0000 C   0  0  0  0  0  0  0  0  0  0  0  0
  3  2  1  0
  4  2  1  0
  5  3  2  0
  6  3  1  0
  7  2  1  0
  8 11  1  0
  9 15  1  0
 10  5  1  0
 11  6  2  0
 12  8  1  0
 13  7  1  0
 14  2  1  0
 15 13  1  0
 16  4  1  0
 17  4  2  0
 18  9  1  0
 19  9  1  0
 20 17  1  0
 21 16  2  0
 22 21  1  0
 10  8  2  0
 20 22  2  0
M  END
> <chembl_id>
CHEMBL2105980

> <chembl_pref_name>
CHLORPHENOXAMINE HYDROCHLORIDE
