
     RDKit          2D

 28 31  0  0  1  0  0  0  0  0999 V2000
    4.5625   -6.7625    0.0000 C   0  0  0  0  0  0  0  0  0  0  0  0
    4.5542   -7.4667    0.0000 C   0  0  0  0  0  0  0  0  0  0  0  0
    2.7167   -8.5167    0.0000 C   0  0  0  0  0  0  0  0  0  0  0  0
    3.9417   -7.8167    0.0000 C   0  0  0  0  0  0  0  0  0  0  0  0
    3.3292   -7.4583    0.0000 C   0  0  0  0  0  0  0  0  0  0  0  0
    2.7167   -7.8125    0.0000 C   0  0  0  0  0  0  0  0  0  0  0  0
    5.2375   -6.5500    0.0000 C   0  0  0  0  0  0  0  0  0  0  0  0
    2.1042   -8.8750    0.0000 C   0  0  0  0  0  0  0  0  0  0  0  0
    5.8500   -6.1917    0.0000 C   0  0  0  0  0  0  0  0  0  0  0  0
    3.9500   -6.4000    0.0000 C   0  0  0  0  0  0  0  0  0  0  0  0
    3.3333   -6.7500    0.0000 C   0  0  0  0  0  0  0  0  0  0  0  0
    3.9375   -8.5250    0.0000 C   0  0  0  0  0  0  0  0  0  0  0  0
    5.2250   -7.6958    0.0000 C   0  0  0  0  0  0  0  0  0  0  0  0
    6.4625   -5.8292    0.0000 C   0  0  0  0  0  0  0  0  0  0  0  0
    2.1042   -7.4542    0.0000 C   0  0  0  0  0  0  0  0  0  0  0  0
    3.3250   -8.8750    0.0000 C   0  0  0  0  0  0  0  0  0  0  0  0
    1.4917   -8.5167    0.0000 C   0  0  0  0  0  0  0  0  0  0  0  0
    5.6458   -7.1250    0.0000 C   0  0  0  0  0  0  0  0  0  0  0  0
    0.8792   -8.8708    0.0000 N   0  0  0  0  0  0  0  0  0  0  0  0
    1.4917   -7.8125    0.0000 C   0  0  0  0  0  0  0  0  0  0  0  0
    5.2292   -5.8417    0.0000 O   0  0  0  0  0  0  0  0  0  0  0  0
    4.5542   -6.0542    0.0000 C   0  0  0  0  0  0  0  0  0  0  0  0
    0.2667   -8.5167    0.0000 O   0  0  0  0  0  0  0  0  0  0  0  0
    3.9417   -5.7042    0.0000 C   0  0  0  0  0  0  0  0  0  0  0  0
    3.9375   -7.1042    0.0000 H   0  0  0  0  0  0  0  0  0  0  0  0
    2.7125   -7.1042    0.0000 H   0  0  0  0  0  0  0  0  0  0  0  0
    3.3250   -8.1667    0.0000 H   0  0  0  0  0  0  0  0  0  0  0  0
    4.5500   -8.1750    0.0000 H   0  0  0  0  0  0  0  0  0  0  0  0
  2  1  1  0
  3  6  1  0
  4  2  1  0
  5 11  1  0
  6  5  1  0
  7  1  1  0
  8  3  2  0
  7  9  1  6
 10  1  1  0
 11 10  1  0
 12  4  1  0
 13  2  1  0
 14  9  3  0
 15  6  1  0
 16 12  1  0
 17  8  1  0
 18  7  1  0
 19 17  2  0
 20 15  1  0
  7 21  1  1
  1 22  1  1
 23 19  1  0
 24 22  1  0
  4 25  1  1
  6 26  1  1
  5 27  1  6
  2 28  1  6
 18 13  1  0
  4  5  1  0
 16  3  1  0
 17 20  1  0
M  END
> <chembl_id>
CHEMBL1200807

> <chembl_pref_name>
NORELGESTROMIN
