
     RDKit          2D

 95101  0  0  0  0  0  0  0  0999 V2000
    0.6662  -13.5318    0.0000 C   0  0  0  0  0  0  0  0  0  0  0  0
    0.0212  -13.0174    0.0000 C   0  0  0  0  0  0  0  0  0  0  0  0
    0.1442  -12.2016    0.0000 C   0  0  0  0  0  0  0  0  0  0  0  0
   -0.5008  -11.6872    0.0000 C   0  0  0  0  0  0  0  0  0  0  0  0
   -0.3778  -10.8715    0.0000 C   0  0  0  0  0  0  0  0  0  0  0  0
   -1.0228  -10.3571    0.0000 O   0  0  0  0  0  0  0  0  0  0  0  0
   -0.8998   -9.5413    0.0000 C   0  0  0  0  0  0  0  0  0  0  0  0
   -1.4219   -8.2111    0.0000 C   0  0  0  0  0  0  0  0  0  0  0  0
   -1.5449   -9.0269    0.0000 C   0  0  0  0  0  0  0  0  0  0  0  0
   -0.1319   -9.2399    0.0000 C   0  0  0  0  0  0  0  0  0  0  0  0
   -0.0089   -8.4241    0.0000 C   0  0  0  0  0  0  0  0  0  0  0  0
   -0.6539   -7.9097    0.0000 C   0  0  0  0  0  0  0  0  0  0  0  0
    0.3599   -5.9768    0.0000 C   0  0  0  0  0  0  0  0  0  0  0  0
    0.2369   -6.7925    0.0000 C   0  0  0  0  0  0  0  0  0  0  0  0
   -0.5310   -7.0939    0.0000 C   0  0  0  0  0  0  0  0  0  0  0  0
   -1.1760   -6.5796    0.0000 C   0  0  0  0  0  0  0  0  0  0  0  0
   -1.0530   -5.7638    0.0000 C   0  0  0  0  0  0  0  0  0  0  0  0
   -0.2850   -5.4624    0.0000 C   0  0  0  0  0  0  0  0  0  0  0  0
    0.7287   -3.5294    0.0000 C   0  0  0  0  0  0  0  0  0  0  0  0
    0.6058   -4.3452    0.0000 C   0  0  0  0  0  0  0  0  0  0  0  0
   -0.1621   -4.6466    0.0000 C   0  0  0  0  0  0  0  0  0  0  0  0
   -0.8071   -4.1322    0.0000 C   0  0  0  0  0  0  0  0  0  0  0  0
   -0.6841   -3.3164    0.0000 C   0  0  0  0  0  0  0  0  0  0  0  0
    0.0837   -3.0150    0.0000 C   0  0  0  0  0  0  0  0  0  0  0  0
    0.2067   -2.1992    0.0000 C   0  0  0  0  0  0  0  0  0  0  0  0
    0.9747   -1.8978    0.0000 O   0  0  0  0  0  0  0  0  0  0  0  0
   -0.4382   -1.6849    0.0000 N   0  0  0  0  0  0  0  0  0  0  0  0
   -0.3153   -0.8691    0.0000 C   0  0  0  0  0  0  0  0  0  0  0  0
   -1.1036   -0.6259    0.0000 C   0  0  0  0  0  0  0  0  0  0  0  0
   -1.7853   -0.1612    0.0000 N   0  0  0  0  0  0  0  0  0  0  0  0
   -1.4616   -1.3692    0.0000 O   0  0  0  0  0  0  0  0  0  0  0  0
   -2.2996    0.4838    0.0000 C   0  0  0  0  0  0  0  0  0  0  0  0
    0.5096   -0.8691    0.0000 C   0  0  0  0  0  0  0  0  0  0  0  0
    1.2980   -0.6259    0.0000 C   0  0  0  0  0  0  0  0  0  0  0  0
    1.9796   -0.1612    0.0000 C   0  0  0  0  0  0  0  0  0  0  0  0
    1.6559   -1.3692    0.0000 O   0  0  0  0  0  0  0  0  0  0  0  0
    2.5408   -0.7659    0.0000 O   0  0  0  0  0  0  0  0  0  0  0  0
    3.3451   -0.5823    0.0000 C   0  0  0  0  0  0  0  0  0  0  0  0
    3.9062   -1.1871    0.0000 C   0  0  0  0  0  0  0  0  0  0  0  0
    3.6631   -1.9755    0.0000 N   0  0  0  0  0  0  0  0  0  0  0  0
    3.0306   -2.3037    0.0000 C   0  0  0  0  0  0  0  0  0  0  0  0
    4.0618   -2.6602    0.0000 C   0  0  0  0  0  0  0  0  0  0  0  0
    3.4199   -2.7638    0.0000 C   0  0  0  0  0  0  0  0  0  0  0  0
    2.4940    0.4838    0.0000 N   0  0  0  0  0  0  0  0  0  0  0  0
    2.7954    1.2517    0.0000 C   0  0  0  0  0  0  0  0  0  0  0  0
    3.5997    1.0681    0.0000 O   0  0  0  0  0  0  0  0  0  0  0  0
    2.8571    2.0744    0.0000 C   0  0  0  0  0  0  0  0  0  0  0  0
    3.6788    2.0005    0.0000 C   0  0  0  0  0  0  0  0  0  0  0  0
    4.0030    2.7591    0.0000 C   0  0  0  0  0  0  0  0  0  0  0  0
    3.3817    3.3019    0.0000 C   0  0  0  0  0  0  0  0  0  0  0  0
    2.6735    2.8787    0.0000 N   0  0  0  0  0  0  0  0  0  0  0  0
    4.8073    2.9427    0.0000 C   0  0  0  0  0  0  0  0  0  0  0  0
    4.2837    1.5000    0.0000 O   0  0  0  0  0  0  0  0  0  0  0  0
    2.2610    3.5932    0.0000 C   0  0  0  0  0  0  0  0  0  0  0  0
    2.9060    4.1076    0.0000 O   0  0  0  0  0  0  0  0  0  0  0  0
    1.6562    4.1544    0.0000 C   0  0  0  0  0  0  0  0  0  0  0  0
    2.1210    4.8360    0.0000 C   0  0  0  0  0  0  0  0  0  0  0  0
    2.3344    5.6572    0.0000 C   0  0  0  0  0  0  0  0  0  0  0  0
    2.8917    5.1380    0.0000 O   0  0  0  0  0  0  0  0  0  0  0  0
    0.9129    4.5123    0.0000 N   0  0  0  0  0  0  0  0  0  0  0  0
    0.0971    4.6353    0.0000 C   0  0  0  0  0  0  0  0  0  0  0  0
    0.0971    5.4603    0.0000 O   0  0  0  0  0  0  0  0  0  0  0  0
   -0.7185    4.5123    0.0000 C   0  0  0  0  0  0  0  0  0  0  0  0
   -0.9617    5.3007    0.0000 C   0  0  0  0  0  0  0  0  0  0  0  0
   -1.4618    4.1544    0.0000 N   0  0  0  0  0  0  0  0  0  0  0  0
   -1.7660    5.4842    0.0000 C   0  0  0  0  0  0  0  0  0  0  0  0
   -0.4006    5.9054    0.0000 O   0  0  0  0  0  0  0  0  0  0  0  0
   -2.3272    4.8795    0.0000 O   0  0  0  0  0  0  0  0  0  0  0  0
   -2.0092    6.2726    0.0000 C   0  0  0  0  0  0  0  0  0  0  0  0
   -2.8135    6.4562    0.0000 C   0  0  0  0  0  0  0  0  0  0  0  0
   -1.4481    6.8773    0.0000 C   0  0  0  0  0  0  0  0  0  0  0  0
   -1.6912    7.6657    0.0000 C   0  0  0  0  0  0  0  0  0  0  0  0
   -2.4956    7.8493    0.0000 C   0  0  0  0  0  0  0  0  0  0  0  0
   -3.0567    7.2445    0.0000 C   0  0  0  0  0  0  0  0  0  0  0  0
   -2.7387    8.6376    0.0000 O   0  0  0  0  0  0  0  0  0  0  0  0
   -2.0666    3.5932    0.0000 C   0  0  0  0  0  0  0  0  0  0  0  0
   -2.7116    4.1076    0.0000 O   0  0  0  0  0  0  0  0  0  0  0  0
   -2.4791    2.8787    0.0000 C   0  0  0  0  0  0  0  0  0  0  0  0
   -3.1873    3.3019    0.0000 C   0  0  0  0  0  0  0  0  0  0  0  0
   -2.6627    2.0744    0.0000 N   0  0  0  0  0  0  0  0  0  0  0  0
   -3.4844    2.0005    0.0000 C   0  0  0  0  0  0  0  0  0  0  0  0
   -3.8086    2.7591    0.0000 C   0  0  0  0  0  0  0  0  0  0  0  0
   -4.6129    2.9427    0.0000 O   0  0  0  0  0  0  0  0  0  0  0  0
   -2.6010    1.2517    0.0000 C   0  0  0  0  0  0  0  0  0  0  0  0
   -3.4054    1.0681    0.0000 O   0  0  0  0  0  0  0  0  0  0  0  0
   -3.0141    0.0713    0.0000 C   0  0  0  0  0  0  0  0  0  0  0  0
   -3.7286    0.4838    0.0000 C   0  0  0  0  0  0  0  0  0  0  0  0
   -3.2479   -0.7277    0.0000 O   0  0  0  0  0  0  0  0  0  0  0  0
   -2.4423   -0.4283    0.0000 H   0  0  0  0  0  0  0  0  0  0  0  0
   -2.8280    3.5643    0.0000 H   0  0  0  0  0  0  0  0  0  0  0  0
   -0.9514    6.1504    0.0000 H   0  0  0  0  0  0  0  0  0  0  0  0
    1.7139    5.4951    0.0000 H   0  0  0  0  0  0  0  0  0  0  0  0
    3.4370    1.5712    0.0000 H   0  0  0  0  0  0  0  0  0  0  0  0
    2.3839    4.3860    0.0000 H   0  0  0  0  0  0  0  0  0  0  0  0
   -0.3440    5.2474    0.0000 H   0  0  0  0  0  0  0  0  0  0  0  0
  1  2  1  0
  2  3  1  0
  3  4  1  0
  4  5  1  0
  5  6  1  0
  6  7  1  0
  8  9  1  0
 10 11  2  0
 11 12  1  0
  8 12  2  0
  9  7  2  0
  7 10  1  0
 13 14  1  0
 14 15  2  0
 15 16  1  0
 16 17  2  0
 17 18  1  0
 13 18  2  0
 19 20  1  0
 20 21  2  0
 21 22  1  0
 22 23  2  0
 23 24  1  0
 19 24  2  0
 12 15  1  0
 18 21  1  0
 24 25  1  0
 25 26  2  0
 25 27  1  0
 28 27  1  6
 28 29  1  0
 29 30  1  0
 29 31  2  0
 32 30  1  0
 28 33  1  0
 34 33  1  0
 35 34  1  0
 34 36  1  6
 35 37  1  6
 37 38  1  0
 38 39  1  0
 39 40  1  0
 40 41  1  0
 40 42  1  0
 40 43  1  0
 35 44  1  0
 44 45  1  0
 45 46  2  0
 45 47  1  0
 47 48  1  0
 48 49  1  0
 49 50  1  0
 50 51  1  0
 47 51  1  0
 49 52  1  6
 48 53  1  6
 51 54  1  0
 54 55  2  0
 56 54  1  0
 56 57  1  0
 57 58  1  0
 57 59  1  0
 56 60  1  0
 60 61  1  0
 61 62  2  0
 61 63  1  0
 63 64  1  0
 63 65  1  0
 64 66  1  0
 64 67  1  0
 66 68  1  1
 66 69  1  0
 71 72  2  0
 72 73  1  0
 73 74  2  0
 70 74  1  0
 70 69  2  0
 69 71  1  0
 73 75  1  0
 65 76  1  0
 76 77  2  0
 76 78  1  0
 80 81  1  0
 81 82  1  0
 79 82  1  0
 79 78  1  0
 78 80  1  0
 82 83  1  6
 80 84  1  0
 84 85  2  0
 84 32  1  0
 32 86  1  0
 86 87  1  0
 86 88  1  6
 32 89  1  6
 78 90  1  6
 64 91  1  6
 57 92  1  6
 47 93  1  6
 56 94  1  6
 63 95  1  6
M  CHG  1  40   1
M  END
> <chembl_id>
CHEMBL3989945

> <chembl_pref_name>
REZAFUNGIN
