
     RDKit          2D

 32 34  0  0  0  0  0  0  0  0999 V2000
   15.4366   -1.8191    0.0000 C   0  0  0  0  0  0  0  0  0  0  0  0
   15.4417   -0.9941    0.0000 N   0  0  0  0  0  0  0  0  0  0  0  0
   16.1559   -0.5859    0.0000 C   0  0  0  0  0  0  0  0  0  0  0  0
   16.8692   -1.0028    0.0000 C   0  0  0  0  0  0  0  0  0  0  0  0
   16.8642   -1.8278    0.0000 C   0  0  0  0  0  0  0  0  0  0  0  0
   17.5775   -2.2404    0.0000 C   0  0  0  0  0  0  0  0  0  0  0  0
   17.5767   -3.0654    0.0000 C   0  0  0  0  0  0  0  0  0  0  0  0
   16.8583   -3.4777    0.0000 C   0  0  0  0  0  0  0  0  0  0  0  0
   16.1450   -3.0609    0.0000 C   0  0  0  0  0  0  0  0  0  0  0  0
   16.1500   -2.2359    0.0000 C   0  0  0  0  0  0  0  0  0  0  0  0
   16.1609    0.2391    0.0000 C   0  0  0  0  0  0  0  0  0  0  0  0
   16.8751    0.6472    0.0000 O   0  0  0  0  0  0  0  0  0  0  0  0
   15.4475    0.6559    0.0000 O   0  0  0  0  0  0  0  0  0  0  0  0
   14.7283   -0.5814    0.0000 C   0  0  0  0  0  0  0  0  0  0  0  0
   14.0099   -0.9895    0.0000 C   0  0  0  0  0  0  0  0  0  0  0  0
   13.2966   -0.5727    0.0000 C   0  0  0  0  0  0  0  0  0  0  0  0
   14.7292    0.2436    0.0000 O   0  0  0  0  0  0  0  0  0  0  0  0
   14.0091   -1.8145    0.0000 N   0  0  0  0  0  0  0  0  0  0  0  0
   12.5774   -1.8100    0.0000 C   0  0  0  0  0  0  0  0  0  0  0  0
   13.2907   -2.2227    0.0000 C   0  0  0  0  0  0  0  0  0  0  0  0
   13.2899   -3.0477    0.0000 C   0  0  0  0  0  0  0  0  0  0  0  0
   12.5715   -3.4600    0.0000 C   0  0  0  0  0  0  0  0  0  0  0  0
   12.5706   -4.2850    0.0000 C   0  0  0  0  0  0  0  0  0  0  0  0
   13.2798   -4.6976    0.0000 C   0  0  0  0  0  0  0  0  0  0  0  0
   13.2790   -5.5226    0.0000 C   0  0  0  0  0  0  0  0  0  0  0  0
   12.5606   -5.9349    0.0000 C   0  0  0  0  0  0  0  0  0  0  0  0
   11.8514   -5.5181    0.0000 C   0  0  0  0  0  0  0  0  0  0  0  0
   11.8523   -4.6931    0.0000 C   0  0  0  0  0  0  0  0  0  0  0  0
   12.5824   -0.9850    0.0000 O   0  0  0  0  0  0  0  0  0  0  0  0
   11.8632   -2.2181    0.0000 O   0  0  0  0  0  0  0  0  0  0  0  0
   11.1498   -1.8013    0.0000 C   0  0  0  0  0  0  0  0  0  0  0  0
   10.4356   -2.2136    0.0000 C   0  0  0  0  0  0  0  0  0  0  0  0
  1  2  1  0
  2  3  1  0
  3  4  1  0
  4  5  1  0
  5  6  1  0
  6  7  2  0
  7  8  1  0
  8  9  2  0
  9 10  1  0
  1 10  1  0
  5 10  2  0
 11 12  2  0
 11 13  1  0
  3 11  1  6
 14 15  1  0
 15 16  1  1
 14 17  2  0
 19 20  1  0
 20 21  1  0
 21 22  1  0
 23 24  1  0
 24 25  2  0
 25 26  1  0
 26 27  2  0
 27 28  1  0
 23 28  2  0
 22 23  1  0
 19 29  2  0
 31 32  1  0
 30 31  1  0
 19 30  1  0
 20 18  1  1
 15 18  1  0
  2 14  1  0
M  END
> <chembl_id>
CHEMBL1592

> <chembl_pref_name>
QUINAPRIL
