
     RDKit          2D

 21 22  0  0  0  0  0  0  0  0999 V2000
   19.2708  -14.4208    0.0000 C   0  0  0  0  0  0  0  0  0  0  0  0
   19.9853  -14.0083    0.0000 C   0  0  0  0  0  0  0  0  0  0  0  0
   20.6998  -14.4208    0.0000 C   0  0  0  0  0  0  0  0  0  0  0  0
   18.5564  -14.0083    0.0000 C   0  0  0  0  0  0  0  0  0  0  0  0
   20.6972  -15.2469    0.0000 C   0  0  0  0  0  0  0  0  0  0  0  0
   21.4108  -15.6593    0.0000 C   0  0  0  0  0  0  0  0  0  0  0  0
   22.1263  -15.2468    0.0000 C   0  0  0  0  0  0  0  0  0  0  0  0
   22.1237  -14.4175    0.0000 C   0  0  0  0  0  0  0  0  0  0  0  0
   21.4094  -14.0088    0.0000 C   0  0  0  0  0  0  0  0  0  0  0  0
   18.5613  -13.1823    0.0000 C   0  0  0  0  0  0  0  0  0  0  0  0
   17.8477  -12.7698    0.0000 C   0  0  0  0  0  0  0  0  0  0  0  0
   17.1322  -13.1824    0.0000 C   0  0  0  0  0  0  0  0  0  0  0  0
   17.1349  -14.0117    0.0000 C   0  0  0  0  0  0  0  0  0  0  0  0
   17.8491  -14.4203    0.0000 C   0  0  0  0  0  0  0  0  0  0  0  0
   19.2771  -12.7721    0.0000 O   0  0  0  0  0  0  0  0  0  0  0  0
   16.4172  -12.7708    0.0000 C   0  0  0  0  0  0  0  0  0  0  0  0
   16.4161  -11.9458    0.0000 N   0  0  0  0  0  0  0  0  0  0  0  0
   15.7033  -13.1843    0.0000 N   0  0  0  0  0  0  0  0  0  0  0  0
   22.8413  -15.6583    0.0000 C   0  0  0  0  0  0  0  0  0  0  0  0
   22.8424  -16.4833    0.0000 N   0  0  0  0  0  0  0  0  0  0  0  0
   23.5552  -15.2449    0.0000 N   0  0  0  0  0  0  0  0  0  0  0  0
 12 16  1  0
  2  3  1  0
 16 17  2  0
  7  8  1  0
 16 18  1  0
  7 19  1  0
  8  9  2  0
 19 20  2  0
  9  3  1  0
 19 21  1  0
  1  4  1  0
  4 10  2  0
 10 11  1  0
  3  5  2  0
 11 12  2  0
  1  2  2  0
 12 13  1  0
  5  6  1  0
 13 14  2  0
 14  4  1  0
 10 15  1  0
  6  7  2  0
M  END
> <chembl_id>
CHEMBL1301

> <chembl_pref_name>
HYDROXYSTILBAMIDINE
