
     RDKit          2D

 27 27  0  0  0  0  0  0  0  0999 V2000
    1.7283   -0.0125    0.0000 C   0  0  0  0  0  0  0  0  0  0  0  0
    2.4405   -0.4290    0.0000 C   0  0  0  0  0  0  0  0  0  0  0  0
    1.7283    0.8121    0.0000 C   0  0  0  0  0  0  0  0  0  0  0  0
    2.4405   -1.2661    0.0000 N   0  0  0  0  0  0  0  0  0  0  0  0
    1.0037    1.2327    0.0000 C   0  0  0  0  0  0  0  0  0  0  0  0
    1.0037   -0.4290    0.0000 C   0  0  0  0  0  0  0  0  0  0  0  0
    2.4405    1.2327    0.0000 N   0  0  0  0  0  0  0  0  0  0  0  0
    0.2916    0.8121    0.0000 C   0  0  0  0  0  0  0  0  0  0  0  0
    3.1609   -0.0125    0.0000 C   0  0  0  0  0  0  0  0  0  0  0  0
    0.2916   -0.0125    0.0000 C   0  0  0  0  0  0  0  0  0  0  0  0
    3.1609    0.8121    0.0000 C   0  0  0  0  0  0  0  0  0  0  0  0
    6.0220   -1.6534    0.0000 N   0  0  0  0  0  0  0  0  0  0  0  0
   -0.4206    1.2452    0.0000 Cl  0  0  0  0  0  0  0  0  0  0  0  0
    3.1609   -1.6784    0.0000 C   0  0  0  0  0  0  0  0  0  0  0  0
    4.5894   -1.6534    0.0000 C   0  0  0  0  0  0  0  0  0  0  0  0
    5.3016   -1.2411    0.0000 C   0  0  0  0  0  0  0  0  0  0  0  0
    6.7384   -1.2119    0.0000 C   0  0  0  0  0  0  0  0  0  0  0  0
    6.0220   -2.4655    0.0000 C   0  0  0  0  0  0  0  0  0  0  0  0
    3.8648   -1.2411    0.0000 C   0  0  0  0  0  0  0  0  0  0  0  0
    3.1609   -2.4863    0.0000 C   0  0  0  0  0  0  0  0  0  0  0  0
    7.4505   -1.6159    0.0000 C   0  0  0  0  0  0  0  0  0  0  0  0
    5.3016   -2.8903    0.0000 C   0  0  0  0  0  0  0  0  0  0  0  0
    9.7077   -2.4030    0.0000 S   0  0  0  0  0  0  0  0  0  0  0  0
   10.5323   -2.4030    0.0000 O   0  0  0  0  0  0  0  0  0  0  0  0
    8.8748   -2.4030    0.0000 O   0  0  0  0  0  0  0  0  0  0  0  0
    9.6994   -3.2276    0.0000 O   0  0  0  0  0  0  0  0  0  0  0  0
    9.6994   -1.5784    0.0000 O   0  0  0  0  0  0  0  0  0  0  0  0
  2  1  2  0
  3  1  1  0
  4  2  1  0
  5  3  1  0
  6  1  1  0
  7  3  2  0
  8 10  1  0
  9  2  1  0
 10  6  2  0
 11  7  1  0
 12 16  1  0
 13  8  1  0
 14  4  1  0
 15 19  1  0
 16 15  1  0
 17 12  1  0
 18 12  1  0
 19 14  1  0
 20 14  1  0
 21 17  1  0
 22 18  1  0
  5  8  2  0
  9 11  2  0
 24 23  2  0
 25 23  1  0
 26 23  1  0
 27 23  2  0
M  END
> <chembl_id>
CHEMBL2095223

> <chembl_pref_name>
CHLOROQUINE SULPHATE
