
     RDKit          2D

 12 12  0  0  1  0  0  0  0  0999 V2000
    0.8000   -0.9667    0.0000 C   0  0  0  0  0  0  0  0  0  0  0  0
   -0.5708   -0.9625    0.0000 C   0  0  0  0  0  0  0  0  0  0  0  0
    1.4917    0.2333    0.0000 C   0  0  0  0  0  0  0  0  0  0  0  0
    0.8042    1.4250    0.0000 O   0  0  0  0  0  0  0  0  0  0  0  0
   -1.2625    0.2333    0.0000 C   0  0  0  0  0  0  0  0  0  0  0  0
   -0.5833    1.4250    0.0000 C   0  0  0  0  0  0  0  0  0  0  0  0
    1.8417   -2.5250    0.0000 F   0  0  0  0  0  0  0  0  0  0  0  0
   -1.2625   -2.1542    0.0000 O   0  0  0  0  0  0  0  0  0  0  0  0
   -2.6458    0.2333    0.0000 O   0  0  0  0  0  0  0  0  0  0  0  0
    2.8750    0.2333    0.0000 O   0  0  0  0  0  0  0  0  0  0  0  0
   -1.2750    2.6208    0.0000 C   0  0  0  0  0  0  0  0  0  0  0  0
   -2.7958    2.6208    0.0000 O   0  0  0  0  0  0  0  0  0  0  0  0
  2  1  1  0
  3  1  1  0
  4  3  1  0
  5  2  1  0
  6  4  1  0
  1  7  1  6
  2  8  1  1
  5  9  1  6
  3 10  1  6
  6 11  1  1
 12 11  1  0
  6  5  1  0
M  END
> <chembl_id>
CHEMBL1086863

> <chembl_pref_name>
FLUDEOXYGLUCOSE
