
     RDKit          2D

 31 34  0  0  0  0  0  0  0  0999 V2000
   -3.6236   -0.9900    0.0000 C   0  0  0  0  0  0  0  0  0  0  0  0
   -4.3381   -0.5775    0.0000 C   0  0  0  0  0  0  0  0  0  0  0  0
   -5.0526   -0.9901    0.0000 C   0  0  0  0  0  0  0  0  0  0  0  0
   -5.0526   -1.8151    0.0000 C   0  0  0  0  0  0  0  0  0  0  0  0
   -4.3381   -2.2275    0.0000 C   0  0  0  0  0  0  0  0  0  0  0  0
   -3.6236   -1.8150    0.0000 C   0  0  0  0  0  0  0  0  0  0  0  0
   -2.9091   -0.5775    0.0000 C   0  0  0  0  0  0  0  0  0  0  0  0
   -2.1946   -0.9900    0.0000 C   0  0  0  0  0  0  0  0  0  0  0  0
   -2.1947   -1.8150    0.0000 C   0  0  0  0  0  0  0  0  0  0  0  0
   -2.9091   -2.2275    0.0000 C   0  0  0  0  0  0  0  0  0  0  0  0
   -2.9091    0.2475    0.0000 C   0  0  0  0  0  0  0  0  0  0  0  0
   -2.1947    0.6600    0.0000 C   0  0  0  0  0  0  0  0  0  0  0  0
   -1.4802    0.2475    0.0000 C   0  0  0  0  0  0  0  0  0  0  0  0
   -1.4802   -0.5775    0.0000 C   0  0  0  0  0  0  0  0  0  0  0  0
   -0.6956   -0.8324    0.0000 C   0  0  0  0  0  0  0  0  0  0  0  0
   -0.2107   -0.1649    0.0000 C   0  0  0  0  0  0  0  0  0  0  0  0
   -0.6956    0.5025    0.0000 C   0  0  0  0  0  0  0  0  0  0  0  0
   -0.9091    1.2993    0.0000 O   0  0  0  0  0  0  0  0  0  0  0  0
   -0.1122    1.0858    0.0000 C   0  0  0  0  0  0  0  0  0  0  0  0
   -0.3257    1.8827    0.0000 O   0  0  0  0  0  0  0  0  0  0  0  0
    0.6847    0.8723    0.0000 C   0  0  0  0  0  0  0  0  0  0  0  0
    0.6143   -0.1649    0.0000 C   0  0  0  0  0  0  0  0  0  0  0  0
   -1.4802    1.0725    0.0000 C   0  0  0  0  0  0  0  0  0  0  0  0
   -1.3939   -1.3980    0.0000 H   0  0  0  0  0  0  0  0  0  0  0  0
   -2.1946   -0.1650    0.0000 H   0  0  0  0  0  0  0  0  0  0  0  0
   -2.9091   -1.4025    0.0000 H   0  0  0  0  0  0  0  0  0  0  0  0
   -3.6236   -0.1650    0.0000 H   0  0  0  0  0  0  0  0  0  0  0  0
   -5.7671   -2.2276    0.0000 O   0  0  0  0  0  0  0  0  0  0  0  0
   -1.7060    1.5129    0.0000 C   0  0  0  0  0  0  0  0  0  0  0  0
   -1.9195    2.3098    0.0000 C   0  0  0  0  0  0  0  0  0  0  0  0
   -2.2894    0.9295    0.0000 O   0  0  0  0  0  0  0  0  0  0  0  0
  1  2  1  0
  2  3  1  0
  3  4  1  0
  4  5  1  0
  5  6  2  0
 10  6  1  0
  6  1  1  0
  1  7  1  0
  8  9  1  0
  9 10  1  0
 14  8  1  0
  8  7  1  0
  7 11  1  0
 11 12  1  0
 12 13  1  0
 13 17  1  0
 13 14  1  0
 14 15  1  0
 15 16  1  0
 16 17  1  0
 17 18  1  0
 17 19  1  1
 19 20  2  0
 19 21  1  0
 16 22  2  0
 13 23  1  1
 14 24  1  6
  8 25  1  1
  7 26  1  6
  1 27  1  1
  4 28  2  0
 18 29  1  0
 29 30  1  0
 29 31  2  0
M  END
> <chembl_id>
CHEMBL3707377

> <chembl_pref_name>
SEGESTERONE ACETATE
