
     RDKit          2D

 17 18  0  0  0  0  0  0  0  0999 V2000
   -1.1250   -7.1417    0.0000 S   0  0  0  0  0  0  0  0  0  0  0  0
    1.3208   -7.1417    0.0000 S   0  0  0  0  0  0  0  0  0  0  0  0
   -0.5083   -7.5000    0.0000 C   0  0  0  0  0  0  0  0  0  0  0  0
    0.7125   -7.5000    0.0000 C   0  0  0  0  0  0  0  0  0  0  0  0
   -1.7458   -7.5000    0.0000 N   0  0  0  0  0  0  0  0  0  0  0  0
    0.1000   -7.1417    0.0000 C   0  0  0  0  0  0  0  0  0  0  0  0
   -0.5083   -8.2042    0.0000 C   0  0  0  0  0  0  0  0  0  0  0  0
    0.7167   -8.2000    0.0000 C   0  0  0  0  0  0  0  0  0  0  0  0
    0.1000   -8.5625    0.0000 C   0  0  0  0  0  0  0  0  0  0  0  0
   -1.4833   -6.5292    0.0000 O   0  0  0  0  0  0  0  0  0  0  0  0
   -0.7750   -6.5292    0.0000 O   0  0  0  0  0  0  0  0  0  0  0  0
   -1.1250   -8.5625    0.0000 N   0  0  0  0  0  0  0  0  0  0  0  0
   -1.7458   -8.2000    0.0000 C   0  0  0  0  0  0  0  0  0  0  0  0
    1.6667   -6.5250    0.0000 O   0  0  0  0  0  0  0  0  0  0  0  0
    0.9625   -6.5250    0.0000 O   0  0  0  0  0  0  0  0  0  0  0  0
    1.9375   -7.4917    0.0000 N   0  0  0  0  0  0  0  0  0  0  0  0
    1.3375   -8.5625    0.0000 Cl  0  0  0  0  0  0  0  0  0  0  0  0
  2  4  1  0
  3  1  1  0
  4  6  2  0
  5  1  1  0
  6  3  1  0
  7  3  2  0
  8  9  2  0
  9  7  1  0
 10  1  2  0
 11  1  2  0
 12 13  1  0
 13  5  1  0
 14  2  2  0
 15  2  2  0
 16  2  1  0
 17  8  1  0
  7 12  1  0
  4  8  1  0
M  END
> <chembl_id>
CHEMBL435

> <chembl_pref_name>
HYDROCHLOROTHIAZIDE
