
     RDKit          2D

 26 26  0  0  0  0  0  0  0  0999 V2000
    2.2917   -5.1875    0.0000 C   0  0  0  0  0  0  0  0  0  0  0  0
    2.2917   -4.4667    0.0000 C   0  0  0  0  0  0  0  0  0  0  0  0
    2.9125   -5.5375    0.0000 C   0  0  0  0  0  0  0  0  0  0  0  0
    1.6750   -4.1167    0.0000 C   0  0  0  0  0  0  0  0  0  0  0  0
    1.0625   -4.4667    0.0000 C   0  0  0  0  0  0  0  0  0  0  0  0
    1.6750   -5.5417    0.0000 C   0  0  0  0  0  0  0  0  0  0  0  0
    1.0625   -5.1875    0.0000 C   0  0  0  0  0  0  0  0  0  0  0  0
    3.5292   -5.1792    0.0000 C   0  0  0  0  0  0  0  0  0  0  0  0
    7.2375   -5.1792    0.0000 C   0  0  0  0  0  0  0  0  0  0  0  0
    7.8500   -5.5375    0.0000 C   0  0  0  0  0  0  0  0  0  0  0  0
    5.3792   -5.5375    0.0000 C   0  0  0  0  0  0  0  0  0  0  0  0
    6.6167   -5.5375    0.0000 C   0  0  0  0  0  0  0  0  0  0  0  0
    4.1417   -5.5375    0.0000 C   0  0  0  0  0  0  0  0  0  0  0  0
    6.0000   -5.1792    0.0000 C   0  0  0  0  0  0  0  0  0  0  0  0
    4.7667   -5.1792    0.0000 C   0  0  0  0  0  0  0  0  0  0  0  0
    7.8500   -6.2417    0.0000 O   0  0  0  0  0  0  0  0  0  0  0  0
    0.4417   -4.1167    0.0000 O   0  0  0  0  0  0  0  0  0  0  0  0
    8.4667   -5.1750    0.0000 O   0  0  0  0  0  0  0  0  0  0  0  0
    2.9042   -4.1125    0.0000 C   0  0  0  0  0  0  0  0  0  0  0  0
    1.6667   -3.4042    0.0000 C   0  0  0  0  0  0  0  0  0  0  0  0
    1.6750   -6.2542    0.0000 C   0  0  0  0  0  0  0  0  0  0  0  0
    6.6167   -6.2417    0.0000 C   0  0  0  0  0  0  0  0  0  0  0  0
    4.1417   -6.2500    0.0000 C   0  0  0  0  0  0  0  0  0  0  0  0
    9.0875   -5.5292    0.0000 C   0  0  0  0  0  0  0  0  0  0  0  0
    0.4417   -3.4042    0.0000 C   0  0  0  0  0  0  0  0  0  0  0  0
    9.7000   -5.1750    0.0000 C   0  0  0  0  0  0  0  0  0  0  0  0
  2  1  1  0
  3  1  1  0
  4  2  2  0
  5  7  2  0
  6  1  2  0
  7  6  1  0
  8  3  2  0
  9 12  2  0
 10  9  1  0
 11 15  1  0
 12 14  1  0
 13  8  1  0
 14 11  2  0
 15 13  2  0
 16 10  2  0
 17  5  1  0
 18 10  1  0
 19  2  1  0
 20  4  1  0
 21  6  1  0
 22 12  1  0
 23 13  1  0
 24 18  1  0
 25 17  1  0
 26 24  1  0
  5  4  1  0
M  END
> <chembl_id>
CHEMBL464

> <chembl_pref_name>
ETRETINATE
