
     RDKit          2D

 16 17  0  0  0  0  0  0  0  0999 V2000
    3.5292   -5.2500    0.0000 C   0  0  0  0  0  0  0  0  0  0  0  0
    2.9167   -4.8917    0.0000 N   0  0  0  0  0  0  0  0  0  0  0  0
    3.5292   -5.9542    0.0000 C   0  0  0  0  0  0  0  0  0  0  0  0
    2.3042   -5.2500    0.0000 C   0  0  0  0  0  0  0  0  0  0  0  0
    2.9167   -6.3125    0.0000 C   0  0  0  0  0  0  0  0  0  0  0  0
    4.1458   -4.8958    0.0000 O   0  0  0  0  0  0  0  0  0  0  0  0
    3.8792   -6.5667    0.0000 C   0  0  0  0  0  0  0  0  0  0  0  0
    1.6917   -4.8958    0.0000 O   0  0  0  0  0  0  0  0  0  0  0  0
    2.3042   -5.9542    0.0000 C   0  0  0  0  0  0  0  0  0  0  0  0
    4.2375   -5.9542    0.0000 C   0  0  0  0  0  0  0  0  0  0  0  0
    4.5750   -6.5708    0.0000 C   0  0  0  0  0  0  0  0  0  0  0  0
    3.5167   -7.1750    0.0000 C   0  0  0  0  0  0  0  0  0  0  0  0
    4.5917   -5.3417    0.0000 C   0  0  0  0  0  0  0  0  0  0  0  0
    4.9250   -7.1833    0.0000 C   0  0  0  0  0  0  0  0  0  0  0  0
    3.8625   -7.7875    0.0000 C   0  0  0  0  0  0  0  0  0  0  0  0
    4.5667   -7.7917    0.0000 C   0  0  0  0  0  0  0  0  0  0  0  0
  2  1  1  0
  3  1  1  0
  4  2  1  0
  5  3  1  0
  6  1  2  0
  7  3  1  0
  8  4  2  0
  9  4  1  0
 10  3  1  0
 11  7  1  0
 12  7  2  0
 13 10  1  0
 14 11  2  0
 15 12  1  0
 16 14  1  0
  5  9  1  0
 16 15  2  0
M  END
> <chembl_id>
CHEMBL1102

> <chembl_pref_name>
GLUTETHIMIDE
