
     RDKit          2D

 31 33  0  0  0  0  0  0  0  0999 V2000
    0.4500   -0.4375    0.0000 N   0  0  0  0  0  0  0  0  0  0  0  0
    1.1667    0.8000    0.0000 C   0  0  0  0  0  0  0  0  0  0  0  0
   -0.2625   -0.0250    0.0000 C   0  0  0  0  0  0  0  0  0  0  0  0
   -0.2625    0.8000    0.0000 C   0  0  0  0  0  0  0  0  0  0  0  0
    1.1667   -0.0250    0.0000 C   0  0  0  0  0  0  0  0  0  0  0  0
    0.4500    1.2125    0.0000 C   0  0  0  0  0  0  0  0  0  0  0  0
   -0.9750   -0.4375    0.0000 C   0  0  0  0  0  0  0  0  0  0  0  0
   -0.9750    1.2125    0.0000 C   0  0  0  0  0  0  0  0  0  0  0  0
    1.8792    1.2125    0.0000 C   0  0  0  0  0  0  0  0  0  0  0  0
   -1.6917    0.8000    0.0000 C   0  0  0  0  0  0  0  0  0  0  0  0
    0.4500   -1.2625    0.0000 C   0  0  0  0  0  0  0  0  0  0  0  0
   -1.6917   -0.0250    0.0000 C   0  0  0  0  0  0  0  0  0  0  0  0
   -2.4042    2.0375    0.0000 C   0  0  0  0  0  0  0  0  0  0  0  0
   -1.6917    2.4500    0.0000 C   0  0  0  0  0  0  0  0  0  0  0  0
   -2.4042    1.2125    0.0000 C   0  0  0  0  0  0  0  0  0  0  0  0
    0.4500    2.0375    0.0000 O   0  0  0  0  0  0  0  0  0  0  0  0
    1.8792    2.0375    0.0000 O   0  0  0  0  0  0  0  0  0  0  0  0
   -1.6917    3.2750    0.0000 C   0  0  0  0  0  0  0  0  0  0  0  0
    1.1667   -1.6750    0.0000 C   0  0  0  0  0  0  0  0  0  0  0  0
   -0.9750    2.0375    0.0000 F   0  0  0  0  0  0  0  0  0  0  0  0
    2.5958    0.8000    0.0000 O   0  0  0  0  0  0  0  0  0  0  0  0
   -0.9750    3.6875    0.0000 Cl  0  0  0  0  0  0  0  0  0  0  0  0
   -2.4042   -0.4375    0.0000 O   0  0  0  0  0  0  0  0  0  0  0  0
   -0.2625   -1.6750    0.0000 C   0  0  0  0  0  0  0  0  0  0  0  0
   -3.1208    2.4500    0.0000 C   0  0  0  0  0  0  0  0  0  0  0  0
   -0.2625   -2.5000    0.0000 O   0  0  0  0  0  0  0  0  0  0  0  0
   -3.1208    3.2750    0.0000 C   0  0  0  0  0  0  0  0  0  0  0  0
   -2.4042    3.6875    0.0000 C   0  0  0  0  0  0  0  0  0  0  0  0
    1.1667   -2.5000    0.0000 C   0  0  0  0  0  0  0  0  0  0  0  0
    1.8792   -1.2625    0.0000 C   0  0  0  0  0  0  0  0  0  0  0  0
   -3.1208   -0.0250    0.0000 C   0  0  0  0  0  0  0  0  0  0  0  0
  2  5  2  0
  3  1  1  0
  4  3  2  0
  5  1  1  0
  6  2  1  0
  7  3  1  0
  8  4  1  0
  9  2  1  0
 10  8  2  0
 11  1  1  0
 12  7  2  0
 13 15  1  0
 14 13  2  0
 15 10  1  0
 16  6  2  0
 17  9  2  0
 18 14  1  0
 19 11  1  0
 20 14  1  0
 21  9  1  0
 22 18  1  0
 23 12  1  0
 11 24  1  1
 25 13  1  0
 26 24  1  0
 27 25  2  0
 28 18  2  0
 29 19  1  0
 30 19  1  0
 31 23  1  0
  6  4  1  0
 12 10  1  0
 28 27  1  0
M  END
> <chembl_id>
CHEMBL204656

> <chembl_pref_name>
ELVITEGRAVIR
