
     RDKit          2D

  7  5  0  0  0  0  0  0  0  0999 V2000
    2.9125   -2.5417    0.0000 N   0  0  0  0  0  0  0  0  0  0  0  0
    1.3917   -2.2125    0.0000 C   0  0  0  0  0  0  0  0  0  0  0  0
    1.9542   -2.5917    0.0000 O   0  0  0  0  0  0  0  0  0  0  0  0
    1.3875   -1.4667    0.0000 O   0  0  0  0  0  0  0  0  0  0  0  0
    0.7875   -2.5792    0.0000 C   0  0  0  0  0  0  0  0  0  0  0  0
    0.1625   -2.2375    0.0000 O   0  0  0  0  0  0  0  0  0  0  0  0
    0.8000   -3.2792    0.0000 C   0  0  0  0  0  0  0  0  0  0  0  0
  3  2  1  0
  4  2  2  0
  5  2  1  0
  6  5  1  0
  7  5  1  0
M  END
> <chembl_id>
CHEMBL1200747

> <chembl_pref_name>
AMMONIUM LACTATE
