
     RDKit          2D

 33 37  0  0  0  0  0  0  0  0999 V2000
   -1.9261   -0.5158    0.0000 O   0  0  0  0  0  0  0  0  0  0  0  0
   -2.4110   -1.1833    0.0000 C   0  0  0  0  0  0  0  0  0  0  0  0
   -1.9261   -1.8507    0.0000 O   0  0  0  0  0  0  0  0  0  0  0  0
   -1.1414   -1.5958    0.0000 C   0  0  0  0  0  0  0  0  0  0  0  0
   -1.1414   -0.7708    0.0000 C   0  0  0  0  0  0  0  0  0  0  0  0
   -3.1297   -0.7783    0.0000 F   0  0  0  0  0  0  0  0  0  0  0  0
   -3.1297   -1.5883    0.0000 F   0  0  0  0  0  0  0  0  0  0  0  0
   -0.4270   -0.3583    0.0000 C   0  0  0  0  0  0  0  0  0  0  0  0
   -0.4270   -2.0083    0.0000 C   0  0  0  0  0  0  0  0  0  0  0  0
    0.2875   -1.5958    0.0000 C   0  0  0  0  0  0  0  0  0  0  0  0
    0.2875   -0.7708    0.0000 C   0  0  0  0  0  0  0  0  0  0  0  0
    1.0020   -0.3583    0.0000 C   0  0  0  0  0  0  0  0  0  0  0  0
    1.8144   -0.2150    0.0000 C   0  0  0  0  0  0  0  0  0  0  0  0
    1.5323   -0.9903    0.0000 C   0  0  0  0  0  0  0  0  0  0  0  0
    0.7198    0.4170    0.0000 C   0  0  0  0  0  0  0  0  0  0  0  0
   -0.0927    0.5602    0.0000 O   0  0  0  0  0  0  0  0  0  0  0  0
    1.2501    1.0490    0.0000 N   0  0  0  0  0  0  0  0  0  0  0  0
    0.9679    1.8242    0.0000 C   0  0  0  0  0  0  0  0  0  0  0  0
    1.4982    2.4562    0.0000 N   0  0  0  0  0  0  0  0  0  0  0  0
    0.1555    1.9675    0.0000 C   0  0  0  0  0  0  0  0  0  0  0  0
   -0.1267    2.7427    0.0000 C   0  0  0  0  0  0  0  0  0  0  0  0
    0.4036    3.3747    0.0000 C   0  0  0  0  0  0  0  0  0  0  0  0
    1.2161    3.2314    0.0000 C   0  0  0  0  0  0  0  0  0  0  0  0
    0.1214    4.1499    0.0000 C   0  0  0  0  0  0  0  0  0  0  0  0
    1.7464    3.8634    0.0000 C   0  0  0  0  0  0  0  0  0  0  0  0
    3.0891    4.3522    0.0000 C   0  0  0  0  0  0  0  0  0  0  0  0
    2.5588    3.7202    0.0000 C   0  0  0  0  0  0  0  0  0  0  0  0
    1.4642    4.6387    0.0000 C   0  0  0  0  0  0  0  0  0  0  0  0
    1.9945    5.2707    0.0000 C   0  0  0  0  0  0  0  0  0  0  0  0
    2.8070    5.1274    0.0000 C   0  0  0  0  0  0  0  0  0  0  0  0
    1.7123    6.0459    0.0000 C   0  0  0  0  0  0  0  0  0  0  0  0
    0.8999    6.1892    0.0000 O   0  0  0  0  0  0  0  0  0  0  0  0
    2.2426    6.6779    0.0000 O   0  0  0  0  0  0  0  0  0  0  0  0
  1  2  1  0
  1  5  1  0
  2  3  1  0
  3  4  1  0
  2  6  1  0
  2  7  1  0
  8  5  2  0
  5  4  1  0
  4  9  2  0
  8 11  1  0
  9 10  1  0
 10 11  2  0
 11 12  1  0
 12 13  1  0
 13 14  1  0
 14 12  1  0
 12 15  1  0
 15 16  2  0
 15 17  1  0
 17 18  1  0
 19 18  2  0
 18 20  1  0
 19 23  1  0
 20 21  2  0
 21 22  1  0
 22 23  2  0
 22 24  1  0
 23 25  1  0
 27 25  2  0
 25 28  1  0
 26 27  1  0
 26 30  2  0
 28 29  2  0
 29 30  1  0
 29 31  1  0
 31 32  1  0
 31 33  2  0
M  END
> <chembl_id>
CHEMBL2103870

> <chembl_pref_name>
LUMACAFTOR
