
     RDKit          2D

 17 18  0  0  0  0  0  0  0  0999 V2000
    2.2417   -4.0667    0.0000 S   0  0  0  0  0  0  0  0  0  0  0  0
    2.8500   -3.0042    0.0000 N   0  0  0  0  0  0  0  0  0  0  0  0
    2.8500   -3.7167    0.0000 C   0  0  0  0  0  0  0  0  0  0  0  0
    2.2417   -2.6542    0.0000 C   0  0  0  0  0  0  0  0  0  0  0  0
    1.6292   -3.0042    0.0000 C   0  0  0  0  0  0  0  0  0  0  0  0
    1.6292   -3.7167    0.0000 C   0  0  0  0  0  0  0  0  0  0  0  0
    2.5917   -4.6792    0.0000 O   0  0  0  0  0  0  0  0  0  0  0  0
    1.8875   -4.6792    0.0000 O   0  0  0  0  0  0  0  0  0  0  0  0
    3.4625   -4.0667    0.0000 C   0  0  0  0  0  0  0  0  0  0  0  0
    2.2417   -1.9417    0.0000 O   0  0  0  0  0  0  0  0  0  0  0  0
    4.0750   -3.7250    0.0000 C   0  0  0  0  0  0  0  0  0  0  0  0
    3.4750   -4.7750    0.0000 C   0  0  0  0  0  0  0  0  0  0  0  0
    3.4625   -2.6542    0.0000 C   0  0  0  0  0  0  0  0  0  0  0  0
    4.7000   -4.7667    0.0000 C   0  0  0  0  0  0  0  0  0  0  0  0
    4.0792   -5.1250    0.0000 C   0  0  0  0  0  0  0  0  0  0  0  0
    4.6792   -4.0667    0.0000 C   0  0  0  0  0  0  0  0  0  0  0  0
    5.3250   -5.1042    0.0000 Cl  0  0  0  0  0  0  0  0  0  0  0  0
  2  3  1  0
  3  1  1  0
  4  5  1  0
  5  6  1  0
  6  1  1  0
  7  1  2  0
  8  1  2  0
  9  3  1  0
 10  4  2  0
 11  9  1  0
 12  9  2  0
 13  2  1  0
 14 15  2  0
 15 12  1  0
 16 11  2  0
 17 14  1  0
  2  4  1  0
 16 14  1  0
M  END
> <chembl_id>
CHEMBL1200714

> <chembl_pref_name>
CHLORMEZANONE
