
     RDKit          2D

 22 19  0  0  0  0  0  0  0  0999 V2000
   -1.5958  -22.0917    0.0000 Cl  0  0  0  0  0  0  0  0  0  0  0  0
    0.9917  -21.1917    0.0000 C   0  0  0  0  0  0  0  0  0  0  0  0
    2.8292  -21.5417    0.0000 C   0  0  0  0  0  0  0  0  0  0  0  0
   -1.4583  -21.2042    0.0000 N   0  0  0  0  0  0  0  0  0  0  0  0
    5.2792  -21.5292    0.0000 N   0  0  0  0  0  0  0  0  0  0  0  0
    0.9917  -20.4875    0.0000 O   0  0  0  0  0  0  0  0  0  0  0  0
    2.8292  -22.2500    0.0000 O   0  0  0  0  0  0  0  0  0  0  0  0
    1.6042  -21.5417    0.0000 C   0  0  0  0  0  0  0  0  0  0  0  0
    2.2167  -21.1917    0.0000 C   0  0  0  0  0  0  0  0  0  0  0  0
    3.4417  -21.1875    0.0000 O   0  0  0  0  0  0  0  0  0  0  0  0
    0.3792  -21.5500    0.0000 O   0  0  0  0  0  0  0  0  0  0  0  0
    4.0542  -21.5375    0.0000 C   0  0  0  0  0  0  0  0  0  0  0  0
   -0.2333  -21.2000    0.0000 C   0  0  0  0  0  0  0  0  0  0  0  0
    4.6667  -21.1792    0.0000 C   0  0  0  0  0  0  0  0  0  0  0  0
   -0.8458  -21.5542    0.0000 C   0  0  0  0  0  0  0  0  0  0  0  0
   -1.1083  -20.5875    0.0000 C   0  0  0  0  0  0  0  0  0  0  0  0
    5.8917  -21.1750    0.0000 C   0  0  0  0  0  0  0  0  0  0  0  0
    5.6292  -22.1417    0.0000 C   0  0  0  0  0  0  0  0  0  0  0  0
    4.9250  -22.1417    0.0000 C   0  0  0  0  0  0  0  0  0  0  0  0
   -1.8125  -20.5875    0.0000 C   0  0  0  0  0  0  0  0  0  0  0  0
   -2.0708  -21.5542    0.0000 C   0  0  0  0  0  0  0  0  0  0  0  0
    5.2125  -20.8125    0.0000 Cl  0  0  0  0  0  0  0  0  0  0  0  0
  3  9  1  0
  4 15  1  0
  5 14  1  0
  6  2  2  0
  7  3  2  0
  8  2  1  0
  9  8  1  0
 10  3  1  0
 11  2  1  0
 12 10  1  0
 13 11  1  0
 14 12  1  0
 15 13  1  0
 16  4  1  0
 17  5  1  0
 18  5  1  0
 19  5  1  0
 20  4  1  0
 21  4  1  0
M  CHG  4   1  -1   4   1   5   1  22  -1
M  END
> <chembl_id>
CHEMBL983

> <chembl_pref_name>
SUCCINYLCHOLINE CHLORIDE
