
     RDKit          2D

  5  3  0  0  0  0  0  0  0  0999 V2000
    4.7125   -5.5625    0.0000 K   0  0  0  0  0 15  0  0  0  0  0  0
    6.0917   -5.8625    0.0000 C   0  0  0  0  0  0  0  0  0  0  0  0
    5.4792   -5.5042    0.0000 O   0  0  0  0  0  0  0  0  0  0  0  0
    6.0750   -6.5750    0.0000 O   0  0  0  0  0  0  0  0  0  0  0  0
    6.7042   -5.5167    0.0000 C   0  0  0  0  0  0  0  0  0  0  0  0
  3  2  1  0
  4  2  2  0
  5  2  1  0
M  CHG  2   1   1   3  -1
M  END
> <chembl_id>
CHEMBL1201058

> <chembl_pref_name>
POTASSIUM ACETATE
