
     RDKit          2D

 11 11  0  0  0  0  0  0  0  0999 V2000
    5.3500   -4.9167    0.0000 C   0  0  0  0  0  0  0  0  0  0  0  0
    5.9667   -5.2792    0.0000 C   0  0  0  0  0  0  0  0  0  0  0  0
    5.3500   -4.2167    0.0000 C   0  0  0  0  0  0  0  0  0  0  0  0
    4.7375   -5.2792    0.0000 C   0  0  0  0  0  0  0  0  0  0  0  0
    5.9667   -5.9917    0.0000 O   0  0  0  0  0  0  0  0  0  0  0  0
    4.7375   -3.8542    0.0000 C   0  0  0  0  0  0  0  0  0  0  0  0
    4.1167   -4.9250    0.0000 C   0  0  0  0  0  0  0  0  0  0  0  0
    6.5792   -4.9292    0.0000 O   0  0  0  0  0  0  0  0  0  0  0  0
    3.5042   -5.2792    0.0000 N   0  0  0  0  0  0  0  0  0  0  0  0
    4.1167   -4.2250    0.0000 C   0  0  0  0  0  0  0  0  0  0  0  0
    5.9667   -3.8625    0.0000 O   0  0  0  0  0  0  0  0  0  0  0  0
  2  1  1  0
  3  1  2  0
  4  1  1  0
  5  2  2  0
  6  3  1  0
  7  4  2  0
  8  2  1  0
  9  7  1  0
 10  7  1  0
 11  3  1  0
 10  6  2  0
M  END
> <chembl_id>
CHEMBL704

> <chembl_pref_name>
MESALAMINE
