
     RDKit          2D

 67 74  0  0  0  0  0  0  0  0999 V2000
   12.6503   -0.9588    0.0000 S   0  0  0  0  0  0  0  0  0  0  0  0
   13.4753   -0.9588    0.0000 O   0  0  0  0  0  0  0  0  0  0  0  0
   12.2378   -0.2444    0.0000 O   0  0  0  0  0  0  0  0  0  0  0  0
   11.9358   -1.3713    0.0000 O   0  0  0  0  0  0  0  0  0  0  0  0
   12.8638   -1.7557    0.0000 O   0  0  0  0  0  0  0  0  0  0  0  0
    4.3473   -3.3521    0.0000 C   0  0  0  0  0  0  0  0  0  0  0  0
    7.2580   -3.4021    0.0000 C   0  0  0  0  0  0  0  0  0  0  0  0
    8.5821   -3.9183    0.0000 C   0  0  0  0  0  0  0  0  0  0  0  0
    3.6435   -2.9315    0.0000 C   0  0  0  0  0  0  0  0  0  0  0  0
    7.7701   -4.0433    0.0000 C   0  0  0  0  0  0  0  0  0  0  0  0
    8.3698   -2.5192    0.0000 C   0  0  0  0  0  0  0  0  0  0  0  0
    7.3204   -4.7387    0.0000 N   0  0  0  0  0  0  0  0  0  0  0  0
    7.5578   -2.6317    0.0000 C   0  0  0  0  0  0  0  0  0  0  0  0
    6.5292   -4.5180    0.0000 C   0  0  0  0  0  0  0  0  0  0  0  0
    8.8902   -3.1563    0.0000 C   0  0  0  0  0  0  0  0  0  0  0  0
    6.4834   -3.6935    0.0000 C   0  0  0  0  0  0  0  0  0  0  0  0
    5.0593   -3.7559    0.0000 C   0  0  0  0  0  0  0  0  0  0  0  0
    3.6477   -2.1154    0.0000 C   0  0  0  0  0  0  0  0  0  0  0  0
    2.8565   -3.1938    0.0000 N   0  0  0  0  0  0  0  0  0  0  0  0
    5.8214   -4.9677    0.0000 C   0  0  0  0  0  0  0  0  0  0  0  0
    5.7547   -3.3187    0.0000 C   0  0  0  0  0  0  0  0  0  0  0  0
    7.0414   -1.9946    0.0000 N   0  0  0  0  0  0  0  0  0  0  0  0
    3.7559   -3.9183    0.0000 C   0  0  0  0  0  0  0  0  0  0  0  0
    2.8607   -1.8530    0.0000 C   0  0  0  0  0  0  0  0  0  0  0  0
    8.7195   -4.7387    0.0000 C   0  0  0  0  0  0  0  0  0  0  0  0
    5.0926   -4.5804    0.0000 C   0  0  0  0  0  0  0  0  0  0  0  0
    2.3735   -2.5276    0.0000 C   0  0  0  0  0  0  0  0  0  0  0  0
    4.3473   -0.8703    0.0000 N   0  0  0  0  0  0  0  0  0  0  0  0
    6.4293   -3.1563    0.0000 C   0  0  0  0  0  0  0  0  0  0  0  0
    5.0593   -2.9399    0.0000 C   0  0  0  0  0  0  0  0  0  0  0  0
    9.7022   -3.0314    0.0000 O   0  0  0  0  0  0  0  0  0  0  0  0
    8.6696   -1.7531    0.0000 C   0  0  0  0  0  0  0  0  0  0  0  0
    2.9232   -0.8786    0.0000 C   0  0  0  0  0  0  0  0  0  0  0  0
    5.7714   -0.8703    0.0000 C   0  0  0  0  0  0  0  0  0  0  0  0
    5.0593   -2.1070    0.0000 C   0  0  0  0  0  0  0  0  0  0  0  0
   10.2186   -3.6685    0.0000 C   0  0  0  0  0  0  0  0  0  0  0  0
    6.2836   -2.3443    0.0000 C   0  0  0  0  0  0  0  0  0  0  0  0
    9.3941   -3.7809    0.0000 O   0  0  0  0  0  0  0  0  0  0  0  0
    8.1574   -1.1035    0.0000 C   0  0  0  0  0  0  0  0  0  0  0  0
    5.0593   -0.4580    0.0000 C   0  0  0  0  0  0  0  0  0  0  0  0
    4.3473   -1.7031    0.0000 C   0  0  0  0  0  0  0  0  0  0  0  0
    8.0907   -5.2634    0.0000 O   0  0  0  0  0  0  0  0  0  0  0  0
    3.9558   -4.7178    0.0000 O   0  0  0  0  0  0  0  0  0  0  0  0
    3.6352   -0.4664    0.0000 C   0  0  0  0  0  0  0  0  0  0  0  0
    9.9188   -4.4389    0.0000 O   0  0  0  0  0  0  0  0  0  0  0  0
    5.7714   -1.7031    0.0000 C   0  0  0  0  0  0  0  0  0  0  0  0
    9.1651   -2.2944    0.0000 C   0  0  0  0  0  0  0  0  0  0  0  0
    7.6160   -5.5132    0.0000 C   0  0  0  0  0  0  0  0  0  0  0  0
    7.3454   -1.2200    0.0000 C   0  0  0  0  0  0  0  0  0  0  0  0
    2.9606   -3.6935    0.0000 O   0  0  0  0  0  0  0  0  0  0  0  0
    9.4941   -5.0261    0.0000 O   0  0  0  0  0  0  0  0  0  0  0  0
    4.3930   -5.0177    0.0000 O   0  0  0  0  0  0  0  0  0  0  0  0
    5.7672   -0.0458    0.0000 O   0  0  0  0  0  0  0  0  0  0  0  0
    2.5234   -1.0951    0.0000 C   0  0  0  0  0  0  0  0  0  0  0  0
    1.5490   -2.4402    0.0000 C   0  0  0  0  0  0  0  0  0  0  0  0
    6.4917   -1.2909    0.0000 C   0  0  0  0  0  0  0  0  0  0  0  0
   11.0306   -3.5436    0.0000 C   0  0  0  0  0  0  0  0  0  0  0  0
    9.6315   -5.8421    0.0000 C   0  0  0  0  0  0  0  0  0  0  0  0
    2.3693   -4.2681    0.0000 C   0  0  0  0  0  0  0  0  0  0  0  0
    4.4222   -5.8421    0.0000 C   0  0  0  0  0  0  0  0  0  0  0  0
    9.3691   -1.4949    0.0000 C   0  0  0  0  0  0  0  0  0  0  0  0
    7.2080   -0.8786    0.0000 C   0  0  0  0  0  0  0  0  0  0  0  0
    1.7072   -1.0077    0.0000 C   0  0  0  0  0  0  0  0  0  0  0  0
    1.2117   -1.6822    0.0000 C   0  0  0  0  0  0  0  0  0  0  0  0
    8.2656   -4.5679    0.0000 H   0  0  0  0  0  0  0  0  0  0  0  0
    5.7714   -2.5192    0.0000 H   0  0  0  0  0  0  0  0  0  0  0  0
    8.1407   -3.2188    0.0000 H   0  0  0  0  0  0  0  0  0  0  0  0
  1  2  1  0
  1  3  2  0
  1  4  2  0
  1  5  1  0
  7 16  1  0
  8 10  1  0
  9  6  1  0
 10  7  1  0
 11 13  1  0
 12 14  1  0
 13  7  1  0
 14 20  2  0
 15 11  1  0
 16 21  2  0
 17  6  1  0
 18  9  2  0
 19  9  1  0
 20 26  1  0
 21 17  1  0
 22 13  1  0
  6 23  1  1
 24 18  1  0
 25  8  1  0
 26 17  2  0
 27 19  1  0
 28 41  1  0
  7 29  1  1
 30  6  1  0
 15 31  1  1
 32 11  1  0
 33 18  1  0
 34 46  1  0
 35 30  1  0
 36 31  1  0
 37 29  1  0
  8 38  1  1
 39 49  1  0
 40 34  1  0
 41 35  1  0
 42 25  2  0
 43 23  2  0
 44 33  1  0
 45 36  2  0
 46 35  1  0
 11 47  1  6
 48 12  1  0
 49 22  1  0
 50 23  1  0
 51 25  1  0
 52 26  1  0
 53 34  1  0
 54 24  2  0
 55 27  2  0
 34 56  1  6
 57 36  1  0
 58 51  1  0
 59 50  1  0
 60 52  1  0
 61 47  1  0
 62 56  1  0
 63 54  1  0
 64 55  1  0
 10 65  1  1
 35 66  1  6
 13 67  1  6
 16 14  1  0
 24 27  1  0
 28 44  1  0
 28 40  1  0
 12 10  1  0
 63 64  2  0
 22 37  1  0
  8 15  1  0
 32 39  2  0
M  END
> <chembl_id>
CHEMBL378544

> <chembl_pref_name>
VINBLASTINE SULFATE
