
     RDKit          2D

 23 25  0  0  0  0  0  0  0  0999 V2000
    6.8667   -5.2500    0.0000 Br  0  0  0  0  0  0  0  0  0  0  0  0
    5.3458   -3.6458    0.0000 C   0  0  0  0  0  0  0  0  0  0  0  0
    4.3167   -3.1583    0.0000 C   0  0  0  0  0  0  0  0  0  0  0  0
    4.8000   -2.6417    0.0000 O   0  0  0  0  0  0  0  0  0  0  0  0
    4.6500   -3.7750    0.0000 C   0  0  0  0  0  0  0  0  0  0  0  0
    5.4375   -2.9417    0.0000 C   0  0  0  0  0  0  0  0  0  0  0  0
    4.2917   -4.3708    0.0000 C   0  0  0  0  0  0  0  0  0  0  0  0
    5.9083   -4.0792    0.0000 C   0  0  0  0  0  0  0  0  0  0  0  0
    5.2333   -5.3667    0.0000 N   0  0  0  0  0  0  0  0  0  0  0  0
    5.7292   -4.3833    0.0000 C   0  0  0  0  0  0  0  0  0  0  0  0
    6.0958   -2.6750    0.0000 C   0  0  0  0  0  0  0  0  0  0  0  0
    4.6333   -4.9958    0.0000 C   0  0  0  0  0  0  0  0  0  0  0  0
    3.6125   -3.1375    0.0000 C   0  0  0  0  0  0  0  0  0  0  0  0
    6.5625   -3.8083    0.0000 C   0  0  0  0  0  0  0  0  0  0  0  0
    3.5833   -4.3583    0.0000 C   0  0  0  0  0  0  0  0  0  0  0  0
    3.2458   -3.7375    0.0000 C   0  0  0  0  0  0  0  0  0  0  0  0
    5.8500   -5.0250    0.0000 C   0  0  0  0  0  0  0  0  0  0  0  0
    6.6542   -3.1083    0.0000 C   0  0  0  0  0  0  0  0  0  0  0  0
    3.2750   -2.5167    0.0000 O   0  0  0  0  0  0  0  0  0  0  0  0
    7.3125   -2.8375    0.0000 O   0  0  0  0  0  0  0  0  0  0  0  0
    5.2125   -6.0750    0.0000 C   0  0  0  0  0  0  0  0  0  0  0  0
    2.5667   -2.4958    0.0000 C   0  0  0  0  0  0  0  0  0  0  0  0
    5.6333   -2.2583    0.0000 H   0  0  0  0  0  0  0  0  0  0  0  0
  3  5  2  0
  4  6  1  0
  5  2  1  0
  6  2  1  0
  7  5  1  0
  8  2  1  0
  9 17  1  0
  2 10  1  6
 11  6  1  0
 12  7  1  0
 13  3  1  0
 14  8  2  0
 15  7  2  0
 16 13  2  0
 17 10  1  0
 18 14  1  0
 19 13  1  0
 18 20  1  1
 21  9  1  0
 22 19  1  0
  6 23  1  6
  3  4  1  0
 11 18  1  0
  9 12  1  0
 15 16  1  0
M  END
> <chembl_id>
CHEMBL1555

> <chembl_pref_name>
GALANTAMINE HYDROBROMIDE
