
     RDKit          2D

 16 15  0  0  0  0  0  0  0  0999 V2000
    1.2917   -1.0542    0.0000 Cl  0  0  0  0  0  0  0  0  0  0  0  0
   -0.7708    0.1000    0.0000 C   0  0  0  0  0  0  0  0  0  0  0  0
   -1.3833   -0.2542    0.0000 C   0  0  0  0  0  0  0  0  0  0  0  0
   -0.1583   -0.2417    0.0000 C   0  0  0  0  0  0  0  0  0  0  0  0
   -1.3833   -0.9625    0.0000 C   0  0  0  0  0  0  0  0  0  0  0  0
   -0.1500   -0.9542    0.0000 C   0  0  0  0  0  0  0  0  0  0  0  0
    1.6875    0.1125    0.0000 N   0  0  0  0  0  0  0  0  0  0  0  0
   -0.7708   -1.3167    0.0000 C   0  0  0  0  0  0  0  0  0  0  0  0
    1.0667   -0.2417    0.0000 C   0  0  0  0  0  0  0  0  0  0  0  0
    0.4542    0.1083    0.0000 C   0  0  0  0  0  0  0  0  0  0  0  0
   -2.0000    0.0958    0.0000 O   0  0  0  0  0  0  0  0  0  0  0  0
   -1.9958   -1.3167    0.0000 O   0  0  0  0  0  0  0  0  0  0  0  0
    0.4417    0.8208    0.0000 O   0  0  0  0  0  0  0  0  0  0  0  0
    2.3000   -0.2375    0.0000 C   0  0  0  0  0  0  0  0  0  0  0  0
    2.9167    0.1208    0.0000 C   0  0  0  0  0  0  0  0  0  0  0  0
    2.3042   -0.9500    0.0000 C   0  0  0  0  0  0  0  0  0  0  0  0
  3  2  2  0
  4  2  1  0
  5  3  1  0
  6  4  2  0
  7  9  1  0
  8  6  1  0
  9 10  1  0
 10  4  1  0
 11  3  1  0
 12  5  1  0
 13 10  1  0
 14  7  1  0
 15 14  1  0
 16 14  1  0
  8  5  2  0
M  END
> <chembl_id>
CHEMBL1711

> <chembl_pref_name>
ISOPROTERENOL HYDROCHLORIDE
