
     RDKit          2D

 20 20  0  0  1  0  0  0  0  0999 V2000
    8.1167   -5.0167    0.0000 N   0  0  0  0  0  0  0  0  0  0  0  0
   12.4083   -3.9292    0.0000 C   0  0  0  0  0  0  0  0  0  0  0  0
   11.7875   -3.5875    0.0000 N   0  0  0  0  0  0  0  0  0  0  0  0
   11.2042   -3.9500    0.0000 C   0  0  0  0  0  0  0  0  0  0  0  0
    8.7417   -4.6792    0.0000 C   0  0  0  0  0  0  0  0  0  0  0  0
   13.0208   -3.5625    0.0000 C   0  0  0  0  0  0  0  0  0  0  0  0
    7.5042   -4.6917    0.0000 O   0  0  0  0  0  0  0  0  0  0  0  0
   10.5833   -3.6042    0.0000 C   0  0  0  0  0  0  0  0  0  0  0  0
    8.1292   -5.7417    0.0000 O   0  0  0  0  0  0  0  0  0  0  0  0
    9.9667   -3.9542    0.0000 C   0  0  0  0  0  0  0  0  0  0  0  0
   12.4125   -4.6458    0.0000 O   0  0  0  0  0  0  0  0  0  0  0  0
    9.3542   -5.0042    0.0000 C   0  0  0  0  0  0  0  0  0  0  0  0
    8.7292   -3.9667    0.0000 C   0  0  0  0  0  0  0  0  0  0  0  0
    9.3542   -3.6125    0.0000 C   0  0  0  0  0  0  0  0  0  0  0  0
    9.9667   -4.6417    0.0000 C   0  0  0  0  0  0  0  0  0  0  0  0
   13.6458   -3.9125    0.0000 Cl  0  0  0  0  0  0  0  0  0  0  0  0
   13.0083   -2.8542    0.0000 Cl  0  0  0  0  0  0  0  0  0  0  0  0
   10.5792   -2.8917    0.0000 O   0  0  0  0  0  0  0  0  0  0  0  0
   11.2208   -4.6542    0.0000 C   0  0  0  0  0  0  0  0  0  0  0  0
   10.6167   -5.0292    0.0000 O   0  0  0  0  0  0  0  0  0  0  0  0
  2  3  1  0
  3  4  1  0
  4  8  1  0
  5  1  1  0
  6  2  1  0
  7  1  1  0
  8 10  1  0
  9  1  2  0
 10 14  1  0
 11  2  2  0
 12  5  2  0
 13  5  1  0
 14 13  2  0
 15 12  1  0
 16  6  1  0
 17  6  1  0
  8 18  1  1
  4 19  1  6
 20 19  1  0
 10 15  2  0
M  CHG  2   1   1   7  -1
M  END
> <chembl_id>
CHEMBL130

> <chembl_pref_name>
CHLORAMPHENICOL
