
     RDKit          2D

 50 53  0  0  1  0  0  0  0  0999 V2000
    1.9292   -8.8625    0.0000 C   0  0  0  0  0  0  0  0  0  0  0  0
    4.9458   -9.2375    0.0000 O   0  0  0  0  0  0  0  0  0  0  0  0
   -1.1292   -7.8167    0.0000 C   0  0  0  0  0  0  0  0  0  0  0  0
   -1.4833   -8.4292    0.0000 C   0  0  0  0  0  0  0  0  0  0  0  0
    4.3375   -8.8750    0.0000 C   0  0  0  0  0  0  0  0  0  0  0  0
   -2.1875   -8.4292    0.0000 C   0  0  0  0  0  0  0  0  0  0  0  0
    0.7125   -9.5708    0.0000 C   0  0  0  0  0  0  0  0  0  0  0  0
    4.9542   -8.5292    0.0000 C   0  0  0  0  0  0  0  0  0  0  0  0
    0.7083   -8.8667    0.0000 C   0  0  0  0  0  0  0  0  0  0  0  0
   -1.4833   -7.2042    0.0000 O   0  0  0  0  0  0  0  0  0  0  0  0
    1.3167   -8.5125    0.0000 O   0  0  0  0  0  0  0  0  0  0  0  0
   -2.5458   -7.8167    0.0000 C   0  0  0  0  0  0  0  0  0  0  0  0
    1.3250   -9.9208    0.0000 C   0  0  0  0  0  0  0  0  0  0  0  0
    1.9333   -9.5625    0.0000 C   0  0  0  0  0  0  0  0  0  0  0  0
   -2.1875   -7.2042    0.0000 C   0  0  0  0  0  0  0  0  0  0  0  0
    0.1000   -9.9250    0.0000 C   0  0  0  0  0  0  0  0  0  0  0  0
    2.5375   -8.5042    0.0000 C   0  0  0  0  0  0  0  0  0  0  0  0
    4.9625   -7.8250    0.0000 C   0  0  0  0  0  0  0  0  0  0  0  0
    5.5833   -6.7750    0.0000 C   0  0  0  0  0  0  0  0  0  0  0  0
    3.7583   -8.5000    0.0000 C   0  0  0  0  0  0  0  0  0  0  0  0
   -0.5208   -7.4542    0.0000 O   0  0  0  0  0  0  0  0  0  0  0  0
    0.0958   -8.5167    0.0000 C   0  0  0  0  0  0  0  0  0  0  0  0
    4.9750   -6.4167    0.0000 O   0  0  0  0  0  0  0  0  0  0  0  0
    5.5792   -7.4792    0.0000 C   0  0  0  0  0  0  0  0  0  0  0  0
    0.0958   -7.8125    0.0000 C   0  0  0  0  0  0  0  0  0  0  0  0
    3.1500   -8.8542    0.0000 C   0  0  0  0  0  0  0  0  0  0  0  0
    0.1000  -10.6333    0.0000 O   0  0  0  0  0  0  0  0  0  0  0  0
    6.2000   -6.4250    0.0000 O   0  0  0  0  0  0  0  0  0  0  0  0
   -2.5417   -9.0417    0.0000 N   0  0  0  0  0  0  0  0  0  0  0  0
    1.9292   -5.3542    0.0000 C   0  0  0  0  0  0  0  0  0  0  0  0
    1.3167   -5.7042    0.0000 C   0  0  0  0  0  0  0  0  0  0  0  0
    1.3167   -6.4083    0.0000 C   0  0  0  0  0  0  0  0  0  0  0  0
    2.5375   -5.7042    0.0000 C   0  0  0  0  0  0  0  0  0  0  0  0
    0.7042   -6.7583    0.0000 C   0  0  0  0  0  0  0  0  0  0  0  0
    3.1500   -5.3542    0.0000 C   0  0  0  0  0  0  0  0  0  0  0  0
    0.7083   -7.4625    0.0000 C   0  0  0  0  0  0  0  0  0  0  0  0
    1.9333   -8.1542    0.0000 O   0  0  0  0  0  0  0  0  0  0  0  0
   -1.1250   -9.0417    0.0000 O   0  0  0  0  0  0  0  0  0  0  0  0
    3.7583   -5.7083    0.0000 C   0  0  0  0  0  0  0  0  0  0  0  0
   -3.2542   -7.8167    0.0000 O   0  0  0  0  0  0  0  0  0  0  0  0
    1.3250  -10.6292    0.0000 O   0  0  0  0  0  0  0  0  0  0  0  0
   -0.5167   -9.5750    0.0000 O   0  0  0  0  0  0  0  0  0  0  0  0
    4.9792   -5.7125    0.0000 C   0  0  0  0  0  0  0  0  0  0  0  0
    3.1500   -9.5625    0.0000 O   0  0  0  0  0  0  0  0  0  0  0  0
   -2.5417   -6.5875    0.0000 C   0  0  0  0  0  0  0  0  0  0  0  0
    4.3708   -5.3583    0.0000 C   0  0  0  0  0  0  0  0  0  0  0  0
    5.5958   -5.3625    0.0000 C   0  0  0  0  0  0  0  0  0  0  0  0
   -0.1551   -9.3712    0.0000 H   0  0  0  0  0  0  0  0  0  0  0  0
    3.9543   -8.5174    0.0000 H   0  0  0  0  0  0  0  0  0  0  0  0
    4.8653   -8.0256    0.0000 H   0  0  0  0  0  0  0  0  0  0  0  0
  2  5  1  0
  3 21  1  1
  4  3  1  0
  5 20  1  0
  6  4  1  0
  7 13  1  0
  8  5  1  0
  9 11  1  0
 10  3  1  0
 11  1  1  0
 12 15  1  0
 13 14  1  0
 14  1  1  0
 15 10  1  0
  7 16  1  1
 17  1  1  0
 18  8  1  0
 19 24  1  0
 20 26  1  0
 25 21  1  1
 22  9  1  0
 23 19  1  0
 24 18  2  0
 25 22  1  0
 26 17  1  0
 27 16  2  0
 28 19  2  0
  6 29  1  1
 30 31  1  0
 31 32  2  0
 32 34  1  0
 33 30  2  0
 34 36  2  0
 35 33  1  0
 36 25  1  0
  1 37  1  1
  4 38  1  1
 39 35  2  0
 12 40  1  6
 13 41  1  6
 42 16  1  0
 43 23  1  0
 26 44  1  6
 15 45  1  1
 46 43  1  0
 43 47  1  1
  9 48  1  1
  7  9  1  0
  2  8  1  0
 12  6  1  0
 39 46  1  0
  8 49  1  6
  5 50  1  1
M  END
> <chembl_id>
CHEMBL1200656

> <chembl_pref_name>
NATAMYCIN
