
     RDKit          2D

 63 69  0  0  1  0  0  0  0  0999 V2000
    7.8542   -4.9542    0.0000 C   0  0  0  0  0  0  0  0  0  0  0  0
    8.5667   -6.1875    0.0000 C   0  0  0  0  0  0  0  0  0  0  0  0
    6.2875   -6.4000    0.0000 C   0  0  0  0  0  0  0  0  0  0  0  0
    7.8542   -5.7792    0.0000 C   0  0  0  0  0  0  0  0  0  0  0  0
    6.2292   -4.9750    0.0000 C   0  0  0  0  0  0  0  0  0  0  0  0
    6.6667   -5.6667    0.0000 C   0  0  0  0  0  0  0  0  0  0  0  0
    7.4417   -4.2417    0.0000 C   0  0  0  0  0  0  0  0  0  0  0  0
    6.7250   -7.0917    0.0000 C   0  0  0  0  0  0  0  0  0  0  0  0
    6.6167   -4.2417    0.0000 C   0  0  0  0  0  0  0  0  0  0  0  0
    5.4042   -5.0042    0.0000 C   0  0  0  0  0  0  0  0  0  0  0  0
    5.4625   -6.4292    0.0000 C   0  0  0  0  0  0  0  0  0  0  0  0
    5.0167   -5.7292    0.0000 C   0  0  0  0  0  0  0  0  0  0  0  0
    3.4792   -5.3500    0.0000 C   0  0  0  0  0  0  0  0  0  0  0  0
    8.5667   -4.5417    0.0000 C   0  0  0  0  0  0  0  0  0  0  0  0
    2.7625   -5.7542    0.0000 C   0  0  0  0  0  0  0  0  0  0  0  0
    9.2792   -5.7792    0.0000 C   0  0  0  0  0  0  0  0  0  0  0  0
    2.0500   -4.5167    0.0000 N   0  0  0  0  0  0  0  0  0  0  0  0
    6.6625   -7.9167    0.0000 O   0  0  0  0  0  0  0  0  0  0  0  0
    2.0500   -5.3417    0.0000 C   0  0  0  0  0  0  0  0  0  0  0  0
    1.3292   -4.1042    0.0000 C   0  0  0  0  0  0  0  0  0  0  0  0
    5.9167   -8.2792    0.0000 C   0  0  0  0  0  0  0  0  0  0  0  0
    4.1917   -5.7625    0.0000 O   0  0  0  0  0  0  0  0  0  0  0  0
    8.9750   -6.9000    0.0000 C   0  0  0  0  0  0  0  0  0  0  0  0
    9.2792   -4.9542    0.0000 C   0  0  0  0  0  0  0  0  0  0  0  0
    8.3500   -6.9792    0.0000 O   0  0  0  0  0  0  0  0  0  0  0  0
    9.6875   -6.4917    0.0000 O   0  0  0  0  0  0  0  0  0  0  0  0
    6.2000   -3.5292    0.0000 O   0  0  0  0  0  0  0  0  0  0  0  0
    8.9292   -7.5667    0.0000 C   0  0  0  0  0  0  0  0  0  0  0  0
    6.6125   -2.8125    0.0000 C   0  0  0  0  0  0  0  0  0  0  0  0
    7.8542   -3.5292    0.0000 O   0  0  0  0  0  0  0  0  0  0  0  0
    3.4792   -4.5250    0.0000 O   0  0  0  0  0  0  0  0  0  0  0  0
    0.6167   -4.5167    0.0000 O   0  0  0  0  0  0  0  0  0  0  0  0
    5.2375   -7.8125    0.0000 O   0  0  0  0  0  0  0  0  0  0  0  0
    5.8667   -7.1125    0.0000 O   0  0  0  0  0  0  0  0  0  0  0  0
    1.3375   -3.2792    0.0000 C   0  0  0  0  0  0  0  0  0  0  0  0
    5.8542   -9.1000    0.0000 C   0  0  0  0  0  0  0  0  0  0  0  0
    1.3292   -5.7542    0.0000 C   0  0  0  0  0  0  0  0  0  0  0  0
    9.7292   -7.3542    0.0000 O   0  0  0  0  0  0  0  0  0  0  0  0
    7.4375   -2.8042    0.0000 O   0  0  0  0  0  0  0  0  0  0  0  0
    7.8500   -4.1292    0.0000 C   0  0  0  0  0  0  0  0  0  0  0  0
    2.7625   -6.5792    0.0000 O   0  0  0  0  0  0  0  0  0  0  0  0
    8.5667   -3.7167    0.0000 O   0  0  0  0  0  0  0  0  0  0  0  0
    7.0750   -4.9542    0.0000 C   0  0  0  0  0  0  0  0  0  0  0  0
    7.4625   -5.8792    0.0000 C   0  0  0  0  0  0  0  0  0  0  0  0
    4.9750   -4.3042    0.0000 C   0  0  0  0  0  0  0  0  0  0  0  0
    6.1917   -2.1000    0.0000 C   0  0  0  0  0  0  0  0  0  0  0  0
    8.7125   -8.3625    0.0000 C   0  0  0  0  0  0  0  0  0  0  0  0
    0.6250   -2.8750    0.0000 C   0  0  0  0  0  0  0  0  0  0  0  0
    6.5417   -9.5625    0.0000 C   0  0  0  0  0  0  0  0  0  0  0  0
    5.1167   -9.4542    0.0000 C   0  0  0  0  0  0  0  0  0  0  0  0
    2.0500   -2.8750    0.0000 C   0  0  0  0  0  0  0  0  0  0  0  0
    0.6167   -5.3417    0.0000 C   0  0  0  0  0  0  0  0  0  0  0  0
    1.3375   -6.5792    0.0000 C   0  0  0  0  0  0  0  0  0  0  0  0
    2.0542   -2.0500    0.0000 C   0  0  0  0  0  0  0  0  0  0  0  0
    0.6167   -2.0542    0.0000 C   0  0  0  0  0  0  0  0  0  0  0  0
    0.6250   -6.9917    0.0000 C   0  0  0  0  0  0  0  0  0  0  0  0
    5.0542  -10.2792    0.0000 C   0  0  0  0  0  0  0  0  0  0  0  0
    6.4792  -10.3792    0.0000 C   0  0  0  0  0  0  0  0  0  0  0  0
   -0.0958   -5.7542    0.0000 C   0  0  0  0  0  0  0  0  0  0  0  0
    1.3375   -1.6375    0.0000 C   0  0  0  0  0  0  0  0  0  0  0  0
   -0.0958   -6.5792    0.0000 C   0  0  0  0  0  0  0  0  0  0  0  0
    5.7375  -10.7417    0.0000 C   0  0  0  0  0  0  0  0  0  0  0  0
    7.8500   -6.6042    0.0000 H   0  0  0  0  0  0  0  0  0  0  0  0
  2  4  1  0
  3  8  1  0
  4  1  1  0
  5  9  1  0
  6  5  1  0
  7  1  1  0
  8  4  1  0
  9  7  1  0
 10  5  2  0
 11  3  1  0
 12 10  1  0
 13 22  1  0
 14  1  1  0
 15 13  1  0
 16 24  1  0
 19 17  1  6
  8 18  1  6
 19 15  1  0
 20 17  1  0
 21 18  1  0
 12 22  1  6
  2 23  1  1
 24 14  1  0
  2 25  1  6
 16 26  1  1
  9 27  1  1
 28 25  1  0
 29 27  1  0
 30  7  2  0
 31 13  2  0
 32 20  2  0
 33 21  2  0
  3 34  1  1
 35 20  1  0
 36 21  1  0
 37 19  1  0
 38 28  2  0
 39 29  2  0
  1 40  1  1
 15 41  1  6
 14 42  1  1
  6 43  1  0
  6 44  1  0
 45 10  1  0
 46 29  1  0
 47 28  1  0
 48 35  1  0
 49 36  1  0
 50 36  2  0
 51 35  2  0
 52 37  2  0
 53 37  1  0
 54 51  1  0
 55 48  2  0
 56 53  2  0
 57 50  1  0
 58 49  2  0
 59 52  1  0
 60 54  2  0
 61 56  1  0
 62 57  2  0
  4 63  1  6
 16  2  1  0
 23 26  1  0
  3  6  1  0
 11 12  1  0
 58 62  1  0
 59 61  2  0
 55 60  1  0
M  END
> <chembl_id>
CHEMBL428647

> <chembl_pref_name>
PACLITAXEL
