
     RDKit          2D

 14 14  0  0  0  0  0  0  0  0999 V2000
    5.3292   -4.8542    0.0000 O   0  0  0  0  0  0  0  0  0  0  0  0
    5.9500   -4.5083    0.0000 C   0  0  0  0  0  0  0  0  0  0  0  0
    6.5667   -4.8542    0.0000 C   0  0  0  0  0  0  0  0  0  0  0  0
    4.7250   -4.5083    0.0000 C   0  0  0  0  0  0  0  0  0  0  0  0
    4.1042   -4.8750    0.0000 C   0  0  0  0  0  0  0  0  0  0  0  0
    6.5667   -5.5667    0.0000 O   0  0  0  0  0  0  0  0  0  0  0  0
    4.1042   -5.5667    0.0000 O   0  0  0  0  0  0  0  0  0  0  0  0
    2.8750   -4.8667    0.0000 O   0  0  0  0  0  0  0  0  0  0  0  0
    3.4875   -4.5083    0.0000 C   0  0  0  0  0  0  0  0  0  0  0  0
    5.9542   -3.8000    0.0000 C   0  0  0  0  0  0  0  0  0  0  0  0
    7.1792   -4.5083    0.0000 C   0  0  0  0  0  0  0  0  0  0  0  0
    7.1792   -5.9250    0.0000 C   0  0  0  0  0  0  0  0  0  0  0  0
    7.1792   -3.8042    0.0000 C   0  0  0  0  0  0  0  0  0  0  0  0
    6.5667   -3.4417    0.0000 C   0  0  0  0  0  0  0  0  0  0  0  0
  2  1  1  0
  3  2  2  0
  4  1  1  0
  5  4  1  0
  6  3  1  0
  7  5  1  0
  8  9  1  0
  9  5  1  0
 10  2  1  0
 11  3  1  0
 12  6  1  0
 13 14  1  0
 14 10  2  0
 13 11  2  0
M  END
> <chembl_id>
CHEMBL980

> <chembl_pref_name>
GUAIFENESIN
