
     RDKit          2D

 33 35  0  0  0  0  0  0  0  0999 V2000
   -0.8458   -0.8000    0.0000 N   0  0  0  0  0  0  0  0  0  0  0  0
   -1.3458    0.0708    0.0000 C   0  0  0  0  0  0  0  0  0  0  0  0
   -2.3458    0.0708    0.0000 C   0  0  0  0  0  0  0  0  0  0  0  0
    1.3167    0.0208    0.0000 O   0  0  0  0  0  0  0  0  0  0  0  0
    1.3167    0.8333    0.0000 C   0  0  0  0  0  0  0  0  0  0  0  0
   -0.1083   -0.1542    0.0000 C   0  0  0  0  0  0  0  0  0  0  0  0
    0.6625   -0.4917    0.0000 C   0  0  0  0  0  0  0  0  0  0  0  0
   -1.7208   -1.3042    0.0000 C   0  0  0  0  0  0  0  0  0  0  0  0
   -0.3458   -1.6625    0.0000 C   0  0  0  0  0  0  0  0  0  0  0  0
   -2.8458    0.9375    0.0000 C   0  0  0  0  0  0  0  0  0  0  0  0
   -2.8458   -0.8000    0.0000 C   0  0  0  0  0  0  0  0  0  0  0  0
    2.1542    1.3125    0.0000 C   0  0  0  0  0  0  0  0  0  0  0  0
    0.5000    1.3125    0.0000 C   0  0  0  0  0  0  0  0  0  0  0  0
   -3.8583   -0.8000    0.0000 C   0  0  0  0  0  0  0  0  0  0  0  0
   -3.8583    0.9375    0.0000 C   0  0  0  0  0  0  0  0  0  0  0  0
    2.1542    2.2708    0.0000 C   0  0  0  0  0  0  0  0  0  0  0  0
    0.5000    2.2708    0.0000 C   0  0  0  0  0  0  0  0  0  0  0  0
   -4.3458    0.0708    0.0000 C   0  0  0  0  0  0  0  0  0  0  0  0
    1.3417    2.7583    0.0000 C   0  0  0  0  0  0  0  0  0  0  0  0
    1.9792   -1.7250    0.0000 C   0  0  0  0  0  0  0  0  0  0  0  0
    1.2292   -1.2875    0.0000 C   0  0  0  0  0  0  0  0  0  0  0  0
    2.5750   -1.3875    0.0000 C   0  0  0  0  0  0  0  0  0  0  0  0
    1.9792   -2.3917    0.0000 C   0  0  0  0  0  0  0  0  0  0  0  0
    2.5750   -2.7500    0.0000 C   0  0  0  0  0  0  0  0  0  0  0  0
    3.1625   -1.7250    0.0000 C   0  0  0  0  0  0  0  0  0  0  0  0
    3.1625   -2.3917    0.0000 C   0  0  0  0  0  0  0  0  0  0  0  0
    1.2292   -0.4750    0.0000 O   0  0  0  0  0  0  0  0  0  0  0  0
    0.4542   -1.7042    0.0000 O   0  0  0  0  0  0  0  0  0  0  0  0
    1.3417   -2.5375    0.0000 O   0  0  0  0  0  0  0  0  0  0  0  0
    3.7542   -1.3667    0.0000 C   0  0  0  0  0  0  0  0  0  0  0  0
    3.7542   -2.7500    0.0000 C   0  0  0  0  0  0  0  0  0  0  0  0
    4.3417   -1.7250    0.0000 C   0  0  0  0  0  0  0  0  0  0  0  0
    4.3417   -2.3917    0.0000 C   0  0  0  0  0  0  0  0  0  0  0  0
  2  1  1  0
  3  2  1  0
  4  7  1  0
  5  4  1  0
  6  1  1  0
  7  6  1  0
  8  1  1  0
  9  1  1  0
 10  3  2  0
 11  3  1  0
 12  5  2  0
 13  5  1  0
 14 11  2  0
 15 10  1  0
 16 12  1  0
 17 13  2  0
 18 14  1  0
 19 17  1  0
 15 18  2  0
 16 19  2  0
 21 20  1  0
 22 20  1  0
 23 20  2  0
 24 23  1  0
 25 22  2  0
 26 24  2  0
 27 21  1  0
 28 21  2  0
 29 23  1  0
 30 25  1  0
 31 26  1  0
 32 30  2  0
 33 31  2  0
 25 26  1  0
 32 33  1  0
M  CHG  2   1   1  27  -1
M  END
> <chembl_id>
CHEMBL1673148

> <chembl_pref_name>
BEPHENIUM HYDROXYNAPHTHOATE
