
     RDKit          2D

 13 12  0  0  0  0  0  0  0  0999 V2000
    7.5792   -5.3417    0.0000 Cl  0  0  0  0  0  0  0  0  0  0  0  0
    6.0667   -5.6208    0.0000 C   0  0  0  0  0  0  0  0  0  0  0  0
    5.4542   -5.2667    0.0000 C   0  0  0  0  0  0  0  0  0  0  0  0
    6.6792   -5.2625    0.0000 N   0  0  0  0  0  0  0  0  0  0  0  0
    4.8417   -5.6250    0.0000 C   0  0  0  0  0  0  0  0  0  0  0  0
    3.6167   -6.3375    0.0000 C   0  0  0  0  0  0  0  0  0  0  0  0
    3.0042   -6.6917    0.0000 Cl  0  0  0  0  0  0  0  0  0  0  0  0
    4.2292   -6.6917    0.0000 C   0  0  0  0  0  0  0  0  0  0  0  0
    3.6167   -5.6250    0.0000 C   0  0  0  0  0  0  0  0  0  0  0  0
    4.8417   -6.3375    0.0000 C   0  0  0  0  0  0  0  0  0  0  0  0
    4.2292   -5.2708    0.0000 C   0  0  0  0  0  0  0  0  0  0  0  0
    6.4167   -6.2292    0.0000 C   0  0  0  0  0  0  0  0  0  0  0  0
    5.7042   -6.2292    0.0000 C   0  0  0  0  0  0  0  0  0  0  0  0
  3  2  1  0
  4  2  1  0
  5  3  1  0
  6  8  1  0
  7  6  1  0
  8 10  2  0
  9 11  1  0
 10  5  1  0
 11  5  2  0
 12  2  1  0
 13  2  1  0
  6  9  2  0
M  END
> <chembl_id>
CHEMBL1200595

> <chembl_pref_name>
CHLORPHENTERMINE HYDROCHLORIDE
