
     RDKit          2D

 22 24  0  0  0  0  0  0  0  0999 V2000
   -2.2833   -0.6542    0.0000 C   0  0  0  0  0  0  0  0  0  0  0  0
    0.5167    0.9583    0.0000 N   0  0  0  0  0  0  0  0  0  0  0  0
   -0.4208    0.4250    0.0000 C   0  0  0  0  0  0  0  0  0  0  0  0
   -0.4208   -0.6542    0.0000 C   0  0  0  0  0  0  0  0  0  0  0  0
   -1.3500   -1.1875    0.0000 C   0  0  0  0  0  0  0  0  0  0  0  0
    1.4542    0.4250    0.0000 C   0  0  0  0  0  0  0  0  0  0  0  0
   -1.3500    0.9583    0.0000 N   0  0  0  0  0  0  0  0  0  0  0  0
   -2.2833    0.4250    0.0000 C   0  0  0  0  0  0  0  0  0  0  0  0
    1.4542   -0.6542    0.0000 N   0  0  0  0  0  0  0  0  0  0  0  0
   -3.2208   -1.2167    0.0000 C   0  0  0  0  0  0  0  0  0  0  0  0
    2.3667    0.9750    0.0000 N   0  0  0  0  0  0  0  0  0  0  0  0
    0.5167   -1.1875    0.0000 C   0  0  0  0  0  0  0  0  0  0  0  0
   -1.3500   -2.2625    0.0000 O   0  0  0  0  0  0  0  0  0  0  0  0
    4.2250    2.0625    0.0000 N   0  0  0  0  0  0  0  0  0  0  0  0
   -3.2000   -2.3125    0.0000 O   0  0  0  0  0  0  0  0  0  0  0  0
   -4.1458   -0.6917    0.0000 O   0  0  0  0  0  0  0  0  0  0  0  0
   -1.3500    2.0333    0.0000 C   0  0  0  0  0  0  0  0  0  0  0  0
    3.3042    0.4458    0.0000 C   0  0  0  0  0  0  0  0  0  0  0  0
    2.3667    2.0458    0.0000 C   0  0  0  0  0  0  0  0  0  0  0  0
    4.2375    0.9875    0.0000 C   0  0  0  0  0  0  0  0  0  0  0  0
    3.2917    2.5833    0.0000 C   0  0  0  0  0  0  0  0  0  0  0  0
   -2.2708    2.5833    0.0000 C   0  0  0  0  0  0  0  0  0  0  0  0
  2  3  1  0
  3  7  1  0
  4  5  1  0
  5  1  1  0
  6  2  2  0
  7  8  1  0
  8  1  2  0
  9 12  2  0
 10  1  1  0
 11  6  1  0
 12  4  1  0
 13  5  2  0
 14 21  1  0
 15 10  2  0
 16 10  1  0
 17  7  1  0
 18 11  1  0
 19 11  1  0
 20 18  1  0
 21 19  1  0
 22 17  1  0
  3  4  2  0
  6  9  1  0
 20 14  1  0
M  END
> <chembl_id>
CHEMBL30116

> <chembl_pref_name>
PIPEMIDIC ACID
