
     RDKit          2D

 21 20  0  0  0  0  0  0  0  0999 V2000
    6.4510   -8.1302    0.0000 Cl  0  0  0  0  0  0  0  0  0  0  0  0
    8.0625   -6.3784    0.0000 N   0  0  0  0  0  0  0  0  0  0  0  0
    7.3511   -5.9864    0.0000 C   0  0  0  0  0  0  0  0  0  0  0  0
    8.7594   -5.9864    0.0000 C   0  0  0  0  0  0  0  0  0  0  0  0
    6.6543   -7.1430    0.0000 N   0  0  0  0  0  0  0  0  0  0  0  0
    6.6543   -6.3784    0.0000 C   0  0  0  0  0  0  0  0  0  0  0  0
    7.3511   -5.1589    0.0000 O   0  0  0  0  0  0  0  0  0  0  0  0
    9.4998   -6.4026    0.0000 C   0  0  0  0  0  0  0  0  0  0  0  0
    8.7594   -5.1589    0.0000 C   0  0  0  0  0  0  0  0  0  0  0  0
    7.3511   -7.6221    0.0000 C   0  0  0  0  0  0  0  0  0  0  0  0
    5.9235   -7.6125    0.0000 C   0  0  0  0  0  0  0  0  0  0  0  0
   10.2258   -5.1589    0.0000 C   0  0  0  0  0  0  0  0  0  0  0  0
    5.9574   -5.9815    0.0000 C   0  0  0  0  0  0  0  0  0  0  0  0
    9.4998   -4.7378    0.0000 C   0  0  0  0  0  0  0  0  0  0  0  0
   10.2258   -5.9864    0.0000 C   0  0  0  0  0  0  0  0  0  0  0  0
    8.0480   -4.7669    0.0000 C   0  0  0  0  0  0  0  0  0  0  0  0
    9.4998   -7.2301    0.0000 C   0  0  0  0  0  0  0  0  0  0  0  0
    5.2169   -7.1914    0.0000 C   0  0  0  0  0  0  0  0  0  0  0  0
    8.0625   -7.2205    0.0000 C   0  0  0  0  0  0  0  0  0  0  0  0
    5.2315   -6.3639    0.0000 C   0  0  0  0  0  0  0  0  0  0  0  0
    4.5056   -7.5979    0.0000 C   0  0  0  0  0  0  0  0  0  0  0  0
  3  2  1  0
  4  2  1  0
  5  6  1  0
  6  3  1  0
  7  3  2  0
  8  4  1  0
  9  4  2  0
 10  5  1  0
 11  5  1  0
 12 14  2  0
 13  6  1  0
 14  9  1  0
 15  8  2  0
 16  9  1  0
 17  8  1  0
 18 11  1  0
 19 10  1  0
 20 13  1  0
 21 18  1  0
 12 15  1  0
M  END
> <chembl_id>
CHEMBL1200597

> <chembl_pref_name>
ETIDOCAINE HYDROCHLORIDE
