
     RDKit          2D

 14 13  0  0  0  0  0  0  0  0999 V2000
    0.4625   -5.8750    0.0000 Br  0  0  0  0  0  0  0  0  0  0  0  0
    1.4917   -4.5083    0.0000 C   0  0  0  0  0  0  0  0  0  0  0  0
   -0.3458   -5.5917    0.0000 N   0  0  0  0  0  0  0  0  0  0  0  0
    0.8917   -4.1625    0.0000 O   0  0  0  0  0  0  0  0  0  0  0  0
    2.1167   -4.1667    0.0000 N   0  0  0  0  0  0  0  0  0  0  0  0
    1.5000   -5.2042    0.0000 O   0  0  0  0  0  0  0  0  0  0  0  0
    0.2750   -5.2292    0.0000 C   0  0  0  0  0  0  0  0  0  0  0  0
    0.2750   -4.5167    0.0000 C   0  0  0  0  0  0  0  0  0  0  0  0
   -0.9583   -5.2292    0.0000 C   0  0  0  0  0  0  0  0  0  0  0  0
   -0.3458   -6.3000    0.0000 C   0  0  0  0  0  0  0  0  0  0  0  0
   -0.9583   -4.5167    0.0000 C   0  0  0  0  0  0  0  0  0  0  0  0
    2.7167   -4.5417    0.0000 C   0  0  0  0  0  0  0  0  0  0  0  0
    2.1292   -3.4625    0.0000 C   0  0  0  0  0  0  0  0  0  0  0  0
   -0.3458   -4.1625    0.0000 C   0  0  0  0  0  0  0  0  0  0  0  0
  3  7  1  0
  4  2  1  0
  5  2  1  0
  6  2  2  0
  7  8  2  0
  8  4  1  0
  9 11  1  0
 10  3  1  0
 11 14  2  0
 12  5  1  0
 13  5  1  0
 14  8  1  0
  9  3  2  0
M  CHG  2   1  -1   3   1
M  END
> <chembl_id>
CHEMBL812

> <chembl_pref_name>
PYRIDOSTIGMINE BROMIDE
