
     RDKit          2D

 71 78  0  0  0  0  0  0  0  0999 V2000
    3.1735  -16.9266    0.0000 N   0  0  0  0  0  0  0  0  0  0  0  0
    3.9354  -16.5772    0.0000 C   0  0  0  0  0  0  0  0  0  0  0  0
    2.4311  -16.5626    0.0000 C   0  0  0  0  0  0  0  0  0  0  0  0
    4.1101  -15.7669    0.0000 C   0  0  0  0  0  0  0  0  0  0  0  0
    2.2613  -15.7669    0.0000 C   0  0  0  0  0  0  0  0  0  0  0  0
    3.6297  -15.1069    0.0000 C   0  0  0  0  0  0  0  0  0  0  0  0
    2.8145  -15.1069    0.0000 C   0  0  0  0  0  0  0  0  0  0  0  0
    3.1735  -17.7514    0.0000 C   0  0  0  0  0  0  0  0  0  0  0  0
    3.8626  -18.1688    0.0000 C   0  0  0  0  0  0  0  0  0  0  0  0
    5.2989  -18.1882    0.0000 N   0  0  0  0  0  0  0  0  0  0  0  0
    1.8100  -17.0916    0.0000 C   0  0  0  0  0  0  0  0  0  0  0  0
    4.5565  -17.1353    0.0000 C   0  0  0  0  0  0  0  0  0  0  0  0
    4.5856  -17.7612    0.0000 C   0  0  0  0  0  0  0  0  0  0  0  0
    1.4897  -15.4854    0.0000 C   0  0  0  0  0  0  0  0  0  0  0  0
    4.8816  -15.4999    0.0000 C   0  0  0  0  0  0  0  0  0  0  0  0
    6.0122  -17.7855    0.0000 C   0  0  0  0  0  0  0  0  0  0  0  0
    5.2989  -18.9937    0.0000 C   0  0  0  0  0  0  0  0  0  0  0  0
    5.3620  -16.8587    0.0000 C   0  0  0  0  0  0  0  0  0  0  0  0
    1.0239  -16.8296    0.0000 C   0  0  0  0  0  0  0  0  0  0  0  0
    5.5318  -16.0580    0.0000 C   0  0  0  0  0  0  0  0  0  0  0  0
    0.8638  -16.0289    0.0000 C   0  0  0  0  0  0  0  0  0  0  0  0
   -0.6163  -10.9472    0.0000 C   0  0  0  0  0  0  0  0  0  0  0  0
   -1.7566  -15.1543    0.0000 C   0  0  0  0  0  0  0  0  0  0  0  0
   -1.7420  -13.7326    0.0000 C   0  0  0  0  0  0  0  0  0  0  0  0
   -1.3247  -12.1943    0.0000 C   0  0  0  0  0  0  0  0  0  0  0  0
   -0.6114  -11.7770    0.0000 C   0  0  0  0  0  0  0  0  0  0  0  0
   -1.3393  -14.4459    0.0000 C   0  0  0  0  0  0  0  0  0  0  0  0
   -1.3247  -13.0193    0.0000 C   0  0  0  0  0  0  0  0  0  0  0  0
   -1.3344  -10.5396    0.0000 C   0  0  0  0  0  0  0  0  0  0  0  0
   -2.5863  -15.1494    0.0000 C   0  0  0  0  0  0  0  0  0  0  0  0
    0.0970  -10.5299    0.0000 C   0  0  0  0  0  0  0  0  0  0  0  0
   -1.3442  -15.8725    0.0000 C   0  0  0  0  0  0  0  0  0  0  0  0
   -2.5718  -13.7228    0.0000 C   0  0  0  0  0  0  0  0  0  0  0  0
   -2.0429  -11.7819    0.0000 C   0  0  0  0  0  0  0  0  0  0  0  0
   -2.0429  -10.9569    0.0000 C   0  0  0  0  0  0  0  0  0  0  0  0
   -2.9892  -14.4313    0.0000 C   0  0  0  0  0  0  0  0  0  0  0  0
    0.0873   -9.7049    0.0000 O   0  0  0  0  0  0  0  0  0  0  0  0
   -1.7615  -16.5858    0.0000 O   0  0  0  0  0  0  0  0  0  0  0  0
    0.1068  -12.1895    0.0000 O   0  0  0  0  0  0  0  0  0  0  0  0
   -0.5144  -14.4507    0.0000 O   0  0  0  0  0  0  0  0  0  0  0  0
    0.8103  -10.9375    0.0000 O   0  0  0  0  0  0  0  0  0  0  0  0
   -0.5192  -15.8773    0.0000 O   0  0  0  0  0  0  0  0  0  0  0  0
   -2.7563  -12.1991    0.0000 C   0  0  0  0  0  0  0  0  0  0  0  0
   -2.9746  -13.0047    0.0000 C   0  0  0  0  0  0  0  0  0  0  0  0
   -2.7563  -10.5445    0.0000 C   0  0  0  0  0  0  0  0  0  0  0  0
   -3.8092  -14.4264    0.0000 C   0  0  0  0  0  0  0  0  0  0  0  0
   -3.7995  -12.9949    0.0000 C   0  0  0  0  0  0  0  0  0  0  0  0
   -3.4696  -11.7866    0.0000 C   0  0  0  0  0  0  0  0  0  0  0  0
   -4.2168  -13.7131    0.0000 C   0  0  0  0  0  0  0  0  0  0  0  0
   -3.4696  -10.9618    0.0000 C   0  0  0  0  0  0  0  0  0  0  0  0
    4.1052  -13.3929    0.0000 N   0  0  0  0  0  0  0  0  0  0  0  0
    4.8671  -13.0435    0.0000 C   0  0  0  0  0  0  0  0  0  0  0  0
    3.3628  -13.0289    0.0000 C   0  0  0  0  0  0  0  0  0  0  0  0
    5.0418  -12.2332    0.0000 C   0  0  0  0  0  0  0  0  0  0  0  0
    3.1930  -12.2332    0.0000 C   0  0  0  0  0  0  0  0  0  0  0  0
    4.5614  -11.5732    0.0000 C   0  0  0  0  0  0  0  0  0  0  0  0
    3.7462  -11.5732    0.0000 C   0  0  0  0  0  0  0  0  0  0  0  0
    4.1052  -14.2177    0.0000 C   0  0  0  0  0  0  0  0  0  0  0  0
    4.7943  -14.6351    0.0000 C   0  0  0  0  0  0  0  0  0  0  0  0
    6.2306  -14.6545    0.0000 N   0  0  0  0  0  0  0  0  0  0  0  0
    2.7417  -13.5579    0.0000 C   0  0  0  0  0  0  0  0  0  0  0  0
    5.4882  -13.6016    0.0000 C   0  0  0  0  0  0  0  0  0  0  0  0
    5.5173  -14.2275    0.0000 C   0  0  0  0  0  0  0  0  0  0  0  0
    2.4214  -11.9517    0.0000 C   0  0  0  0  0  0  0  0  0  0  0  0
    5.8133  -11.9662    0.0000 C   0  0  0  0  0  0  0  0  0  0  0  0
    6.9439  -14.2517    0.0000 C   0  0  0  0  0  0  0  0  0  0  0  0
    6.2306  -15.4600    0.0000 C   0  0  0  0  0  0  0  0  0  0  0  0
    6.2937  -13.3250    0.0000 C   0  0  0  0  0  0  0  0  0  0  0  0
    1.9556  -13.2958    0.0000 C   0  0  0  0  0  0  0  0  0  0  0  0
    6.4635  -12.5243    0.0000 C   0  0  0  0  0  0  0  0  0  0  0  0
    1.7955  -12.4952    0.0000 C   0  0  0  0  0  0  0  0  0  0  0  0
  2  1  1  0
  3  1  1  0
  4  2  1  0
  5  3  1  0
  6  4  1  0
  7  5  1  0
  8  1  1  0
  9  8  1  0
 10 13  1  0
 11  3  2  0
 12  2  2  0
 13  9  1  0
 14  5  2  0
 15  4  2  0
 16 10  1  0
 17 10  1  0
 18 12  1  0
 19 11  1  0
 20 15  1  0
 21 14  1  0
  6  7  1  0
 18 20  2  0
 19 21  2  0
 23 27  2  0
 24 28  1  0
 25 26  2  0
 26 22  1  0
 27 24  1  0
 28 25  1  0
 29 22  2  0
 30 23  1  0
 31 22  1  0
 32 23  1  0
 33 24  2  0
 34 35  1  0
 35 29  1  0
 36 33  1  0
 37 31  2  0
 38 32  2  0
 39 26  1  0
 40 27  1  0
 41 31  1  0
 42 32  1  0
 43 34  2  0
 44 33  1  0
 45 35  2  0
 46 36  1  0
 47 44  2  0
 48 43  1  0
 49 47  1  0
 50 45  1  0
 25 34  1  0
 48 50  2  0
 30 36  2  0
 46 49  2  0
 52 51  1  0
 53 51  1  0
 54 52  1  0
 55 53  1  0
 56 54  1  0
 57 55  1  0
 58 51  1  0
 59 58  1  0
 60 63  1  0
 61 53  2  0
 62 52  2  0
 63 59  1  0
 64 55  2  0
 65 54  2  0
 66 60  1  0
 67 60  1  0
 68 62  1  0
 69 61  1  0
 70 65  1  0
 71 64  1  0
 56 57  1  0
 68 70  2  0
 69 71  2  0
M  END
> <chembl_id>
CHEMBL3989845

> <chembl_pref_name>
IMIPRAMINE PAMOATE
