
     RDKit          2D

 63 68  0  0  1  0  0  0  0  0999 V2000
   -0.3708   -5.7542    0.0000 C   0  0  0  0  0  0  0  0  0  0  0  0
    1.4667   -4.6875    0.0000 C   0  0  0  0  0  0  0  0  0  0  0  0
    1.4667   -5.4000    0.0000 C   0  0  0  0  0  0  0  0  0  0  0  0
   -0.9792   -5.4042    0.0000 C   0  0  0  0  0  0  0  0  0  0  0  0
    0.2417   -4.6917    0.0000 C   0  0  0  0  0  0  0  0  0  0  0  0
    0.2417   -5.4000    0.0000 C   0  0  0  0  0  0  0  0  0  0  0  0
   -1.2083   -6.5208    0.0000 C   0  0  0  0  0  0  0  0  0  0  0  0
    2.0792   -4.3292    0.0000 N   0  0  0  0  0  0  0  0  0  0  0  0
   -1.5000   -5.8792    0.0000 O   0  0  0  0  0  0  0  0  0  0  0  0
    0.8542   -4.3333    0.0000 C   0  0  0  0  0  0  0  0  0  0  0  0
    0.8625   -5.7542    0.0000 C   0  0  0  0  0  0  0  0  0  0  0  0
   -0.3708   -4.3375    0.0000 C   0  0  0  0  0  0  0  0  0  0  0  0
   -0.5125   -6.4417    0.0000 C   0  0  0  0  0  0  0  0  0  0  0  0
   -0.9875   -4.6958    0.0000 C   0  0  0  0  0  0  0  0  0  0  0  0
   -2.0083   -3.8750    0.0000 C   0  0  0  0  0  0  0  0  0  0  0  0
    2.0750   -3.6208    0.0000 C   0  0  0  0  0  0  0  0  0  0  0  0
   -1.3958   -3.5167    0.0000 C   0  0  0  0  0  0  0  0  0  0  0  0
   -0.3833   -2.2125    0.0000 C   0  0  0  0  0  0  0  0  0  0  0  0
   -1.4000   -2.8083    0.0000 C   0  0  0  0  0  0  0  0  0  0  0  0
    2.0833   -5.7500    0.0000 C   0  0  0  0  0  0  0  0  0  0  0  0
   -2.0042   -4.5833    0.0000 C   0  0  0  0  0  0  0  0  0  0  0  0
    3.9250   -7.5167    0.0000 N   0  0  0  0  0  0  0  0  0  0  0  0
    2.7000   -6.8125    0.0000 N   0  0  0  0  0  0  0  0  0  0  0  0
    0.2333   -2.5667    0.0000 C   0  0  0  0  0  0  0  0  0  0  0  0
    2.0875   -6.4583    0.0000 N   0  0  0  0  0  0  0  0  0  0  0  0
    2.6875   -3.2667    0.0000 C   0  0  0  0  0  0  0  0  0  0  0  0
   -1.8250   -6.8667    0.0000 O   0  0  0  0  0  0  0  0  0  0  0  0
   -2.6250   -3.5208    0.0000 O   0  0  0  0  0  0  0  0  0  0  0  0
   -2.4375   -6.5083    0.0000 C   0  0  0  0  0  0  0  0  0  0  0  0
   -3.2333   -3.8792    0.0000 C   0  0  0  0  0  0  0  0  0  0  0  0
   -2.1958   -5.8000    0.0000 C   0  0  0  0  0  0  0  0  0  0  0  0
   -2.5042   -5.2000    0.0000 C   0  0  0  0  0  0  0  0  0  0  0  0
    2.0708   -2.2042    0.0000 C   0  0  0  0  0  0  0  0  0  0  0  0
   -0.0333   -6.9667    0.0000 O   0  0  0  0  0  0  0  0  0  0  0  0
    2.6833   -2.5583    0.0000 C   0  0  0  0  0  0  0  0  0  0  0  0
    1.4625   -3.2708    0.0000 O   0  0  0  0  0  0  0  0  0  0  0  0
    3.3125   -7.8708    0.0000 C   0  0  0  0  0  0  0  0  0  0  0  0
    3.9250   -6.8083    0.0000 C   0  0  0  0  0  0  0  0  0  0  0  0
    2.7000   -7.5208    0.0000 C   0  0  0  0  0  0  0  0  0  0  0  0
    3.3083   -6.4542    0.0000 C   0  0  0  0  0  0  0  0  0  0  0  0
    0.8458   -2.2083    0.0000 C   0  0  0  0  0  0  0  0  0  0  0  0
    1.4583   -2.5625    0.0000 C   0  0  0  0  0  0  0  0  0  0  0  0
    4.5375   -7.8708    0.0000 C   0  0  0  0  0  0  0  0  0  0  0  0
   -3.2333   -4.5875    0.0000 O   0  0  0  0  0  0  0  0  0  0  0  0
    0.8500   -3.6250    0.0000 O   0  0  0  0  0  0  0  0  0  0  0  0
    0.8625   -6.4625    0.0000 O   0  0  0  0  0  0  0  0  0  0  0  0
   -0.3667   -3.6292    0.0000 O   0  0  0  0  0  0  0  0  0  0  0  0
   -2.0167   -2.4542    0.0000 O   0  0  0  0  0  0  0  0  0  0  0  0
    0.2333   -3.2750    0.0000 O   0  0  0  0  0  0  0  0  0  0  0  0
   -1.2125   -7.2292    0.0000 C   0  0  0  0  0  0  0  0  0  0  0  0
   -1.6042   -4.3417    0.0000 C   0  0  0  0  0  0  0  0  0  0  0  0
   -0.7833   -3.8708    0.0000 C   0  0  0  0  0  0  0  0  0  0  0  0
   -0.3833   -1.5042    0.0000 C   0  0  0  0  0  0  0  0  0  0  0  0
   -3.2125   -5.2000    0.0000 O   0  0  0  0  0  0  0  0  0  0  0  0
   -1.3917   -4.9333    0.0000 C   0  0  0  0  0  0  0  0  0  0  0  0
    3.3042   -3.6167    0.0000 C   0  0  0  0  0  0  0  0  0  0  0  0
   -3.8500   -3.5250    0.0000 C   0  0  0  0  0  0  0  0  0  0  0  0
    0.8417   -1.5000    0.0000 C   0  0  0  0  0  0  0  0  0  0  0  0
    4.7583   -8.5417    0.0000 C   0  0  0  0  0  0  0  0  0  0  0  0
    5.1125   -7.4500    0.0000 C   0  0  0  0  0  0  0  0  0  0  0  0
   -3.5708   -5.8083    0.0000 C   0  0  0  0  0  0  0  0  0  0  0  0
    5.4667   -8.5417    0.0000 C   0  0  0  0  0  0  0  0  0  0  0  0
    5.6875   -7.8708    0.0000 C   0  0  0  0  0  0  0  0  0  0  0  0
  2  3  1  0
  3 11  2  0
  4  1  2  0
  5  6  2  0
  6  1  1  0
  7 13  1  0
  8  2  1  0
  9  4  1  0
 10  5  1  0
 11  6  1  0
 12  5  1  0
 13  1  1  0
 14  4  1  0
 15 21  1  0
 16  8  1  0
 17 15  1  0
 18 19  1  0
 19 17  1  0
 20  3  1  0
 21 32  1  0
 22 38  1  0
 23 25  1  0
 24 18  1  0
 25 20  2  0
 26 16  1  0
 27  7  1  0
 15 28  1  1
 29 27  1  0
 30 28  1  0
 31 29  2  0
 32 31  1  0
 33 35  1  0
 34 13  2  0
 35 26  2  0
 36 16  2  0
 37 39  1  0
 38 40  1  0
 39 23  1  0
 40 23  1  0
 41 42  1  0
 42 33  2  0
 43 22  1  0
 44 30  2  0
 45 10  1  0
 46 11  1  0
 47 12  1  0
 19 48  1  6
 24 49  1  6
  7 50  1  6
 51 14  1  0
 17 52  1  1
 18 53  1  6
 32 54  1  6
 21 55  1  6
 56 26  1  0
 57 30  1  0
 41 58  1  1
 59 43  1  0
 60 43  1  0
 61 54  1  0
 62 59  1  0
 63 60  1  0
  7  9  1  0
 14 12  2  0
 10  2  2  0
 22 37  1  0
 24 41  1  0
 63 62  1  0
M  END
> <chembl_id>
CHEMBL1660

> <chembl_pref_name>
RIFAPENTINE
