
     RDKit          2D

 10 10  0  0  0  0  0  0  0  0999 V2000
    5.3292   -4.4292    0.0000 C   0  0  0  0  0  0  0  0  0  0  0  0
    4.6542   -4.7792    0.0000 C   0  0  0  0  0  0  0  0  0  0  0  0
    5.3292   -3.7667    0.0000 O   0  0  0  0  0  0  0  0  0  0  0  0
    4.0542   -5.8292    0.0000 N   0  0  0  0  0  0  0  0  0  0  0  0
    5.9917   -4.7792    0.0000 O   0  0  0  0  0  0  0  0  0  0  0  0
    4.6542   -5.4792    0.0000 C   0  0  0  0  0  0  0  0  0  0  0  0
    4.0542   -4.4292    0.0000 C   0  0  0  0  0  0  0  0  0  0  0  0
    3.4750   -5.4792    0.0000 C   0  0  0  0  0  0  0  0  0  0  0  0
    6.6750   -4.3792    0.0000 C   0  0  0  0  0  0  0  0  0  0  0  0
    3.4750   -4.7792    0.0000 C   0  0  0  0  0  0  0  0  0  0  0  0
  2  1  1  0
  3  1  2  0
  4  6  1  0
  5  1  1  0
  6  2  2  0
  7  2  1  0
  8 10  1  0
  9  5  1  0
 10  7  2  0
  8  4  2  0
M  END
> <chembl_id>
CHEMBL379845

> <chembl_pref_name>
METHYL NICOTINATE
