
     RDKit          2D

 24 25  0  0  0  0  0  0  0  0999 V2000
    0.4042   -2.0875    0.0000 C   0  0  0  0  0  0  0  0  0  0  0  0
   -0.1875   -2.4750    0.0000 C   0  0  0  0  0  0  0  0  0  0  0  0
    1.0417   -2.4042    0.0000 C   0  0  0  0  0  0  0  0  0  0  0  0
   -0.1458   -3.1792    0.0000 C   0  0  0  0  0  0  0  0  0  0  0  0
    1.0875   -3.1125    0.0000 C   0  0  0  0  0  0  0  0  0  0  0  0
    0.4917   -3.4792    0.0000 C   0  0  0  0  0  0  0  0  0  0  0  0
    0.2167   -1.4000    0.0000 O   0  0  0  0  0  0  0  0  0  0  0  0
   -0.7458   -2.0250    0.0000 O   0  0  0  0  0  0  0  0  0  0  0  0
   -0.4833   -1.3542    0.0000 C   0  0  0  0  0  0  0  0  0  0  0  0
    1.7250   -3.4125    0.0000 C   0  0  0  0  0  0  0  0  0  0  0  0
    2.3167   -3.0417    0.0000 O   0  0  0  0  0  0  0  0  0  0  0  0
    0.5292   -4.1917    0.0000 C   0  0  0  0  0  0  0  0  0  0  0  0
    4.1667   -3.2792    0.0000 O   0  0  0  0  0  0  0  0  0  0  0  0
    5.9917   -2.8292    0.0000 O   0  0  0  0  0  0  0  0  0  0  0  0
    2.9542   -3.3417    0.0000 C   0  0  0  0  0  0  0  0  0  0  0  0
    4.7667   -2.9000    0.0000 C   0  0  0  0  0  0  0  0  0  0  0  0
    5.3917   -3.2167    0.0000 C   0  0  0  0  0  0  0  0  0  0  0  0
    3.5417   -2.9667    0.0000 C   0  0  0  0  0  0  0  0  0  0  0  0
    6.6292   -3.1417    0.0000 C   0  0  0  0  0  0  0  0  0  0  0  0
   -0.0958   -4.5417    0.0000 C   0  0  0  0  0  0  0  0  0  0  0  0
    7.2167   -2.7542    0.0000 C   0  0  0  0  0  0  0  0  0  0  0  0
    7.8542   -3.0792    0.0000 C   0  0  0  0  0  0  0  0  0  0  0  0
   -0.1000   -5.2500    0.0000 C   0  0  0  0  0  0  0  0  0  0  0  0
    8.4542   -2.6792    0.0000 C   0  0  0  0  0  0  0  0  0  0  0  0
  2  1  2  0
  3  1  1  0
  4  2  1  0
  5  3  2  0
  6  5  1  0
  7  1  1  0
  8  2  1  0
  9  7  1  0
 10  5  1  0
 11 10  1  0
 12  6  1  0
 13 18  1  0
 14 17  1  0
 15 11  1  0
 16 13  1  0
 17 16  1  0
 18 15  1  0
 19 14  1  0
 20 12  1  0
 21 19  1  0
 22 21  1  0
 23 20  1  0
 24 22  1  0
  9  8  1  0
  6  4  2  0
M  END
> <chembl_id>
CHEMBL1201131

> <chembl_pref_name>
PIPERONYL BUTOXIDE
