
     RDKit          2D

 57 61  0  0  0  0  0  0  0  0999 V2000
   22.1809  -14.6581    0.0000 O   0  0  0  0  0  0  0  0  0  0  0  0
   17.3075   -9.5099    0.0000 C   0  0  0  0  0  0  0  0  0  0  0  0
   16.4799   -9.5199    0.0000 C   0  0  0  0  0  0  0  0  0  0  0  0
   17.7189   -8.8027    0.0000 C   0  0  0  0  0  0  0  0  0  0  0  0
   16.0685  -10.2272    0.0000 C   0  0  0  0  0  0  0  0  0  0  0  0
   17.7038  -10.2272    0.0000 C   0  0  0  0  0  0  0  0  0  0  0  0
   16.8561  -10.6485    0.0000 O   0  0  0  0  0  0  0  0  0  0  0  0
   17.3126   -8.0954    0.0000 C   0  0  0  0  0  0  0  0  0  0  0  0
   16.0685   -8.8027    0.0000 C   0  0  0  0  0  0  0  0  0  0  0  0
   18.5364   -8.8077    0.0000 C   0  0  0  0  0  0  0  0  0  0  0  0
   16.4799   -8.0903    0.0000 C   0  0  0  0  0  0  0  0  0  0  0  0
   17.7189   -7.3781    0.0000 N   0  0  0  0  0  0  0  0  0  0  0  0
   16.8862   -8.9281    0.0000 C   0  0  0  0  0  0  0  0  0  0  0  0
   18.9478   -9.5250    0.0000 C   0  0  0  0  0  0  0  0  0  0  0  0
   18.5313  -10.2372    0.0000 C   0  0  0  0  0  0  0  0  0  0  0  0
   15.2459  -10.2272    0.0000 C   0  0  0  0  0  0  0  0  0  0  0  0
   16.8962   -7.3731    0.0000 C   0  0  0  0  0  0  0  0  0  0  0  0
   15.2459   -8.8027    0.0000 C   0  0  0  0  0  0  0  0  0  0  0  0
   14.8346   -9.5199    0.0000 C   0  0  0  0  0  0  0  0  0  0  0  0
   18.9427  -10.9596    0.0000 O   0  0  0  0  0  0  0  0  0  0  0  0
   14.8246  -10.9446    0.0000 O   0  0  0  0  0  0  0  0  0  0  0  0
   18.4461   -6.9617    0.0000 C   0  0  0  0  0  0  0  0  0  0  0  0
   14.0019  -10.9446    0.0000 C   0  0  0  0  0  0  0  0  0  0  0  0
   18.3251   -7.7627    0.0000 H   0  0  0  0  0  0  0  0  0  0  0  0
   16.7096   -7.0535    0.0000 H   0  0  0  0  0  0  0  0  0  0  0  0
   17.9719  -11.4008    0.0000 H   0  0  0  0  0  0  0  0  0  0  0  0
   21.7639  -10.4057    0.0000 S   0  0  0  0  0  0  0  0  0  0  0  0
   21.7639   -9.5529    0.0000 O   0  0  0  0  0  0  0  0  0  0  0  0
   21.7639  -11.2685    0.0000 O   0  0  0  0  0  0  0  0  0  0  0  0
   20.9011  -10.4057    0.0000 O   0  0  0  0  0  0  0  0  0  0  0  0
   22.6115  -10.4057    0.0000 O   0  0  0  0  0  0  0  0  0  0  0  0
   17.4616  -14.5725    0.0000 C   0  0  0  0  0  0  0  0  0  0  0  0
   16.6340  -14.5825    0.0000 C   0  0  0  0  0  0  0  0  0  0  0  0
   17.8730  -13.8652    0.0000 C   0  0  0  0  0  0  0  0  0  0  0  0
   16.2226  -15.2898    0.0000 C   0  0  0  0  0  0  0  0  0  0  0  0
   17.8579  -15.2898    0.0000 C   0  0  0  0  0  0  0  0  0  0  0  0
   17.0102  -15.7111    0.0000 O   0  0  0  0  0  0  0  0  0  0  0  0
   17.4667  -13.1580    0.0000 C   0  0  0  0  0  0  0  0  0  0  0  0
   16.2226  -13.8652    0.0000 C   0  0  0  0  0  0  0  0  0  0  0  0
   18.6905  -13.8703    0.0000 C   0  0  0  0  0  0  0  0  0  0  0  0
   16.6340  -13.1529    0.0000 C   0  0  0  0  0  0  0  0  0  0  0  0
   17.8730  -12.4407    0.0000 N   0  0  0  0  0  0  0  0  0  0  0  0
   17.0403  -13.9907    0.0000 C   0  0  0  0  0  0  0  0  0  0  0  0
   19.1019  -14.5875    0.0000 C   0  0  0  0  0  0  0  0  0  0  0  0
   18.6855  -15.2997    0.0000 C   0  0  0  0  0  0  0  0  0  0  0  0
   15.4000  -15.2898    0.0000 C   0  0  0  0  0  0  0  0  0  0  0  0
   17.0503  -12.4357    0.0000 C   0  0  0  0  0  0  0  0  0  0  0  0
   15.4000  -13.8652    0.0000 C   0  0  0  0  0  0  0  0  0  0  0  0
   14.9887  -14.5825    0.0000 C   0  0  0  0  0  0  0  0  0  0  0  0
   19.0968  -16.0222    0.0000 O   0  0  0  0  0  0  0  0  0  0  0  0
   14.9787  -16.0071    0.0000 O   0  0  0  0  0  0  0  0  0  0  0  0
   18.6002  -12.0243    0.0000 C   0  0  0  0  0  0  0  0  0  0  0  0
   14.1560  -16.0071    0.0000 C   0  0  0  0  0  0  0  0  0  0  0  0
   18.4792  -12.8252    0.0000 H   0  0  0  0  0  0  0  0  0  0  0  0
   16.8637  -12.1160    0.0000 H   0  0  0  0  0  0  0  0  0  0  0  0
   22.1353  -13.0395    0.0000 O   0  0  0  0  0  0  0  0  0  0  0  0
   22.1672  -13.9240    0.0000 O   0  0  0  0  0  0  0  0  0  0  0  0
  6  2  1  0
  6  7  1  0
  8  4  1  0
  9  3  2  0
 10  4  1  0
 11  8  1  0
  8 12  1  0
  2 13  1  1
 14 15  1  0
 15  6  1  0
 16  5  2  0
 17 13  1  0
 18  9  1  0
 19 16  1  0
 15 20  1  6
 21 16  1  0
 22 12  1  0
 23 21  1  0
  4 24  1  1
  7  5  1  0
 17 12  1  0
 10 14  2  0
 11  9  1  0
 18 19  2  0
  3  2  1  0
  4  2  1  0
  5  3  1  0
  8 25  1  6
  6 26  1  1
 28 27  2  0
 29 27  1  0
 30 27  1  0
 31 27  2  0
 36 32  1  0
 36 37  1  6
 34 38  1  0
 39 33  2  0
 34 40  1  0
 38 41  1  0
 38 42  1  0
 32 43  1  0
 45 44  1  0
 36 45  1  0
 46 35  2  0
 47 43  1  0
 48 39  1  0
 49 46  1  0
 45 50  1  6
 51 46  1  0
 52 42  1  0
 53 51  1  0
 34 54  1  1
 37 35  1  0
 47 42  1  0
 40 44  2  0
 41 39  1  0
 48 49  2  0
 32 33  1  6
 32 34  1  0
 35 33  1  0
 38 55  1  6
M  END
> <chembl_id>
CHEMBL4297091

> <chembl_pref_name>
CODEINE SULFATE
