
     RDKit          2D

 32 35  0  0  0  0  0  0  0  0999 V2000
    0.6167    1.5708    0.0000 C   0  0  0  0  0  0  0  0  0  0  0  0
   -0.2458   -1.8417    0.0000 C   0  0  0  0  0  0  0  0  0  0  0  0
    0.1000    2.0875    0.0000 C   0  0  0  0  0  0  0  0  0  0  0  0
   -0.2500   -2.6417    0.0000 C   0  0  0  0  0  0  0  0  0  0  0  0
   -0.2583   -3.4500    0.0000 N   0  0  0  0  0  0  0  0  0  0  0  0
    0.5042    0.0833    0.0000 N   0  0  0  0  0  0  0  0  0  0  0  0
   -0.0458    1.2458    0.0000 C   0  0  0  0  0  0  0  0  0  0  0  0
    1.2417    1.2083    0.0000 C   0  0  0  0  0  0  0  0  0  0  0  0
   -0.2458   -1.0375    0.0000 C   0  0  0  0  0  0  0  0  0  0  0  0
    1.1667    2.3625    0.0000 C   0  0  0  0  0  0  0  0  0  0  0  0
    0.0542    2.9833    0.0000 O   0  0  0  0  0  0  0  0  0  0  0  0
    0.4500   -2.2417    0.0000 C   0  0  0  0  0  0  0  0  0  0  0  0
   -0.9458   -2.2417    0.0000 C   0  0  0  0  0  0  0  0  0  0  0  0
    0.4917   -0.7000    0.0000 C   0  0  0  0  0  0  0  0  0  0  0  0
   -0.0500    0.4750    0.0000 C   0  0  0  0  0  0  0  0  0  0  0  0
    1.2375    0.4458    0.0000 C   0  0  0  0  0  0  0  0  0  0  0  0
   -0.5208    1.7625    0.0000 O   0  0  0  0  0  0  0  0  0  0  0  0
    1.8917    2.2708    0.0000 C   0  0  0  0  0  0  0  0  0  0  0  0
    0.8750    3.0208    0.0000 C   0  0  0  0  0  0  0  0  0  0  0  0
   -1.6375   -1.8375    0.0000 C   0  0  0  0  0  0  0  0  0  0  0  0
   -0.9458   -3.0375    0.0000 C   0  0  0  0  0  0  0  0  0  0  0  0
    0.4417   -3.0417    0.0000 C   0  0  0  0  0  0  0  0  0  0  0  0
    1.1417   -1.8417    0.0000 C   0  0  0  0  0  0  0  0  0  0  0  0
    1.1375   -3.4417    0.0000 C   0  0  0  0  0  0  0  0  0  0  0  0
    1.8292   -2.2417    0.0000 C   0  0  0  0  0  0  0  0  0  0  0  0
   -2.3333   -2.2375    0.0000 C   0  0  0  0  0  0  0  0  0  0  0  0
   -1.6375   -3.4417    0.0000 C   0  0  0  0  0  0  0  0  0  0  0  0
    2.3292    2.8333    0.0000 C   0  0  0  0  0  0  0  0  0  0  0  0
    1.3500    3.5958    0.0000 C   0  0  0  0  0  0  0  0  0  0  0  0
   -2.3375   -3.0375    0.0000 C   0  0  0  0  0  0  0  0  0  0  0  0
    1.8292   -3.0500    0.0000 C   0  0  0  0  0  0  0  0  0  0  0  0
    2.0167    3.5083    0.0000 C   0  0  0  0  0  0  0  0  0  0  0  0
  2  9  1  0
  3  1  1  0
  4  2  1  0
  5  4  3  0
  6 16  1  0
  7  1  1  0
  8  1  1  0
  9 14  1  0
 10  1  1  0
 11  3  2  0
 12  2  1  0
 13  2  1  0
 14  6  1  0
 15  7  1  0
 16  8  1  0
 17  3  1  0
 18 10  2  0
 19 10  1  0
 20 13  2  0
 21 13  1  0
 22 12  2  0
 23 12  1  0
 24 22  1  0
 25 23  2  0
 26 20  1  0
 27 21  2  0
 28 18  1  0
 29 19  2  0
 30 27  1  0
 31 25  1  0
 32 29  1  0
  6 15  1  0
 28 32  2  0
 26 30  2  0
 24 31  2  0
M  END
> <chembl_id>
CHEMBL1201321

> <chembl_pref_name>
DIFENOXIN
