
     RDKit          2D

  9  9  0  0  0  0  0  0  0  0999 V2000
    0.8737   -0.5042    0.0000 N   0  0  0  0  0  0  0  0  0  0  0  0
    0.1592   -0.9167    0.0000 C   0  0  0  0  0  0  0  0  0  0  0  0
   -0.5553   -0.5042    0.0000 N   0  0  0  0  0  0  0  0  0  0  0  0
   -0.5553    0.3208    0.0000 C   0  0  0  0  0  0  0  0  0  0  0  0
    0.1592    0.7333    0.0000 C   0  0  0  0  0  0  0  0  0  0  0  0
    0.8737    0.3208    0.0000 C   0  0  0  0  0  0  0  0  0  0  0  0
    0.1592   -1.7417    0.0000 O   0  0  0  0  0  0  0  0  0  0  0  0
   -1.2698    0.7333    0.0000 O   0  0  0  0  0  0  0  0  0  0  0  0
    0.1592    1.5583    0.0000 F   0  0  0  0  0  0  0  0  0  0  0  0
  2  1  1  0
  6  1  1  0
  2  3  1  0
  2  7  2  0
  4  3  1  0
  4  5  1  0
  4  8  2  0
  5  6  2  0
  5  9  1  0
M  END
> <chembl_id>
CHEMBL185

> <chembl_pref_name>
FLUOROURACIL
