
     RDKit          2D

 14 15  0  0  0  0  0  0  0  0999 V2000
    1.1792   -0.9875    0.0000 C   0  0  0  0  0  0  0  0  0  0  0  0
    0.3667    0.2125    0.0000 N   0  0  0  0  0  0  0  0  0  0  0  0
    1.2542    1.3000    0.0000 N   0  0  0  0  0  0  0  0  0  0  0  0
    2.5417   -0.6000    0.0000 C   0  0  0  0  0  0  0  0  0  0  0  0
    2.5625    0.8208    0.0000 C   0  0  0  0  0  0  0  0  0  0  0  0
    0.7167   -2.3500    0.0000 O   0  0  0  0  0  0  0  0  0  0  0  0
   -1.0333    0.2125    0.0000 C   0  0  0  0  0  0  0  0  0  0  0  0
    0.9125    2.7083    0.0000 C   0  0  0  0  0  0  0  0  0  0  0  0
    3.9042    1.5375    0.0000 C   0  0  0  0  0  0  0  0  0  0  0  0
   -1.7708   -1.0250    0.0000 C   0  0  0  0  0  0  0  0  0  0  0  0
   -1.7708    1.4583    0.0000 C   0  0  0  0  0  0  0  0  0  0  0  0
   -3.1708   -1.0250    0.0000 C   0  0  0  0  0  0  0  0  0  0  0  0
   -3.1708    1.4583    0.0000 C   0  0  0  0  0  0  0  0  0  0  0  0
   -3.9083    0.2125    0.0000 C   0  0  0  0  0  0  0  0  0  0  0  0
  2  1  1  0
  3  2  1  0
  4  1  1  0
  5  4  2  0
  6  1  2  0
  7  2  1  0
  8  3  1  0
  9  5  1  0
 10  7  1  0
 11  7  2  0
 12 10  2  0
 13 11  1  0
 14 13  2  0
  3  5  1  0
 12 14  1  0
M  END
> <chembl_id>
CHEMBL277474

> <chembl_pref_name>
ANTIPYRINE
