
     RDKit          2D

 26 25  0  0  0  0  0  0  0  0999 V2000
    5.3917  -15.8750    0.0000 Cl  0  0  0  0  0  0  0  0  0  0  0  0
    1.7167  -14.1792    0.0000 C   0  0  0  0  0  0  0  0  0  0  0  0
    1.1042  -15.9542    0.0000 C   0  0  0  0  0  0  0  0  0  0  0  0
    2.3417  -15.2500    0.0000 C   0  0  0  0  0  0  0  0  0  0  0  0
    1.7167  -14.8875    0.0000 O   0  0  0  0  0  0  0  0  0  0  0  0
    1.7167  -16.3167    0.0000 O   0  0  0  0  0  0  0  0  0  0  0  0
    2.3417  -15.9625    0.0000 C   0  0  0  0  0  0  0  0  0  0  0  0
    2.9542  -14.8917    0.0000 C   0  0  0  0  0  0  0  0  0  0  0  0
    3.5750  -15.2417    0.0000 C   0  0  0  0  0  0  0  0  0  0  0  0
    1.1000  -13.8167    0.0000 C   0  0  0  0  0  0  0  0  0  0  0  0
    0.4875  -16.3125    0.0000 C   0  0  0  0  0  0  0  0  0  0  0  0
    2.3292  -13.8167    0.0000 O   0  0  0  0  0  0  0  0  0  0  0  0
    1.1000  -15.2417    0.0000 O   0  0  0  0  0  0  0  0  0  0  0  0
    2.9542  -16.3167    0.0000 C   0  0  0  0  0  0  0  0  0  0  0  0
    3.5750  -15.9625    0.0000 C   0  0  0  0  0  0  0  0  0  0  0  0
    4.1875  -14.8875    0.0000 C   0  0  0  0  0  0  0  0  0  0  0  0
    5.4167  -14.8875    0.0000 N   0  0  0  0  0  0  0  0  0  0  0  0
    4.1875  -14.1792    0.0000 O   0  0  0  0  0  0  0  0  0  0  0  0
   -0.1333  -15.9542    0.0000 C   0  0  0  0  0  0  0  0  0  0  0  0
    1.4500  -13.2000    0.0000 C   0  0  0  0  0  0  0  0  0  0  0  0
    0.7417  -13.2000    0.0000 C   0  0  0  0  0  0  0  0  0  0  0  0
    0.8375  -16.9250    0.0000 C   0  0  0  0  0  0  0  0  0  0  0  0
    0.1292  -16.9250    0.0000 C   0  0  0  0  0  0  0  0  0  0  0  0
    0.4792  -14.1750    0.0000 C   0  0  0  0  0  0  0  0  0  0  0  0
    4.8042  -15.2417    0.0000 C   0  0  0  0  0  0  0  0  0  0  0  0
    6.0292  -15.2375    0.0000 C   0  0  0  0  0  0  0  0  0  0  0  0
  3  6  1  0
  4  5  1  0
  5  2  1  0
  6  7  1  0
  7  4  2  0
  8  4  1  0
  9  8  2  0
 10  2  1  0
 11  3  1  0
 12  2  2  0
 13  3  2  0
 14  7  1  0
 15  9  1  0
 16  9  1  0
 17 25  1  0
 18 16  1  0
 19 11  1  0
 20 10  1  0
 21 10  1  0
 22 11  1  0
 23 11  1  0
 24 10  1  0
 25 16  1  0
 26 17  1  0
 14 15  2  0
M  END
> <chembl_id>
CHEMBL1200833

> <chembl_pref_name>
DIPIVEFRIN HYDROCHLORIDE
