
     RDKit          2D

 51 53  0  0  0  0  0  0  0  0999 V2000
    8.8292    0.7875    0.0000 C   0  0  0  0  0  0  0  0  0  0  0  0
    9.5436    1.2000    0.0000 S   0  0  0  0  0  0  0  0  0  0  0  0
   10.2581    0.7875    0.0000 O   0  0  0  0  0  0  0  0  0  0  0  0
    9.5436    2.0250    0.0000 O   0  0  0  0  0  0  0  0  0  0  0  0
    9.7572    0.4031    0.0000 O   0  0  0  0  0  0  0  0  0  0  0  0
    0.3948   -1.4918    0.0000 C   0  0  0  0  0  0  0  0  0  0  0  0
    0.8073   -2.2063    0.0000 C   0  0  0  0  0  0  0  0  0  0  0  0
    1.6323   -2.2063    0.0000 C   0  0  0  0  0  0  0  0  0  0  0  0
    2.0448   -1.4918    0.0000 C   0  0  0  0  0  0  0  0  0  0  0  0
   -0.4302   -1.4918    0.0000 C   0  0  0  0  0  0  0  0  0  0  0  0
   -0.8427   -2.2063    0.0000 N   0  0  0  0  0  0  0  0  0  0  0  0
    2.8698   -1.4918    0.0000 N   0  0  0  0  0  0  0  0  0  0  0  0
    3.2823   -2.2063    0.0000 C   0  0  0  0  0  0  0  0  0  0  0  0
    4.1073   -2.2063    0.0000 C   0  0  0  0  0  0  0  0  0  0  0  0
    4.5923   -2.8737    0.0000 N   0  0  0  0  0  0  0  0  0  0  0  0
    5.3769   -2.6187    0.0000 C   0  0  0  0  0  0  0  0  0  0  0  0
    5.3769   -1.7937    0.0000 C   0  0  0  0  0  0  0  0  0  0  0  0
    4.5923   -1.5388    0.0000 N   0  0  0  0  0  0  0  0  0  0  0  0
    6.0914   -3.0313    0.0000 C   0  0  0  0  0  0  0  0  0  0  0  0
    6.8058   -2.6187    0.0000 C   0  0  0  0  0  0  0  0  0  0  0  0
    6.8058   -1.7937    0.0000 C   0  0  0  0  0  0  0  0  0  0  0  0
    6.0914   -1.3812    0.0000 C   0  0  0  0  0  0  0  0  0  0  0  0
    4.3373   -3.6583    0.0000 C   0  0  0  0  0  0  0  0  0  0  0  0
    7.5203   -1.3812    0.0000 C   0  0  0  0  0  0  0  0  0  0  0  0
    8.2348   -1.7937    0.0000 N   0  0  0  0  0  0  0  0  0  0  0  0
    7.5203   -0.5562    0.0000 O   0  0  0  0  0  0  0  0  0  0  0  0
    8.9492   -1.3812    0.0000 C   0  0  0  0  0  0  0  0  0  0  0  0
    8.2348   -2.6187    0.0000 C   0  0  0  0  0  0  0  0  0  0  0  0
    7.5203   -3.0313    0.0000 N   0  0  0  0  0  0  0  0  0  0  0  0
    7.5203   -3.8563    0.0000 C   0  0  0  0  0  0  0  0  0  0  0  0
    8.2348   -4.2688    0.0000 C   0  0  0  0  0  0  0  0  0  0  0  0
    8.9492   -3.8563    0.0000 C   0  0  0  0  0  0  0  0  0  0  0  0
    8.9492   -3.0313    0.0000 C   0  0  0  0  0  0  0  0  0  0  0  0
    9.6637   -1.7937    0.0000 C   0  0  0  0  0  0  0  0  0  0  0  0
   10.3782   -1.3812    0.0000 C   0  0  0  0  0  0  0  0  0  0  0  0
   11.0926   -1.7937    0.0000 O   0  0  0  0  0  0  0  0  0  0  0  0
   10.3781   -0.5562    0.0000 O   0  0  0  0  0  0  0  0  0  0  0  0
   11.8071   -1.3812    0.0000 C   0  0  0  0  0  0  0  0  0  0  0  0
   12.5216   -1.7936    0.0000 C   0  0  0  0  0  0  0  0  0  0  0  0
    0.8073   -0.7773    0.0000 C   0  0  0  0  0  0  0  0  0  0  0  0
    1.6323   -0.7773    0.0000 C   0  0  0  0  0  0  0  0  0  0  0  0
   -0.8427   -0.7773    0.0000 N   0  0  0  0  0  0  0  0  0  0  0  0
   -0.4302   -0.0628    0.0000 C   0  0  0  0  0  0  0  0  0  0  0  0
    0.3948   -0.0629    0.0000 O   0  0  0  0  0  0  0  0  0  0  0  0
   -0.8427    0.6516    0.0000 O   0  0  0  0  0  0  0  0  0  0  0  0
    0.8073    0.6516    0.0000 C   0  0  0  0  0  0  0  0  0  0  0  0
    1.6323    0.6516    0.0000 C   0  0  0  0  0  0  0  0  0  0  0  0
    2.0448   -0.0629    0.0000 C   0  0  0  0  0  0  0  0  0  0  0  0
    2.8698   -0.0629    0.0000 C   0  0  0  0  0  0  0  0  0  0  0  0
    3.2823    0.6516    0.0000 C   0  0  0  0  0  0  0  0  0  0  0  0
    4.1073    0.6516    0.0000 C   0  0  0  0  0  0  0  0  0  0  0  0
  1  2  1  0
  2  3  2  0
  2  4  2  0
  2  5  1  0
 24 26  2  0
 25 27  1  0
 25 28  1  0
 28 29  2  0
 29 30  1  0
 30 31  2  0
 31 32  1  0
 32 33  2  0
 33 28  1  0
 27 34  1  0
 34 35  1  0
  6  7  2  0
 35 36  1  0
  7  8  1  0
 35 37  2  0
  8  9  2  0
 36 38  1  0
  9 41  1  0
 38 39  1  0
 41 40  2  0
 40  6  1  0
  6 10  1  0
 10 42  1  0
 10 11  2  0
 42 43  1  0
  9 12  1  0
 43 44  1  0
 12 13  1  0
 43 45  2  0
 13 14  1  0
 44 46  1  0
 14 15  1  0
 46 47  1  0
 15 16  1  0
 47 48  1  0
 16 17  2  0
 48 49  1  0
 17 18  1  0
 49 50  1  0
 18 14  2  0
 50 51  1  0
 16 19  1  0
 19 20  2  0
 20 21  1  0
 21 22  2  0
 22 17  1  0
 15 23  1  0
 21 24  1  0
 24 25  1  0
M  END
> <chembl_id>
CHEMBL1615369

> <chembl_pref_name>
DABIGATRAN ETEXILATE MESYLATE
