
     RDKit          2D

 32 34  0  0  0  0  0  0  0  0999 V2000
    2.3480    3.5606    0.0000 C   0  0  0  0  0  0  0  0  0  0  0  0
    1.6336    3.1481    0.0000 C   0  0  0  0  0  0  0  0  0  0  0  0
    1.6336    2.3231    0.0000 C   0  0  0  0  0  0  0  0  0  0  0  0
    2.3480    1.9105    0.0000 C   0  0  0  0  0  0  0  0  0  0  0  0
    3.0625    2.3231    0.0000 C   0  0  0  0  0  0  0  0  0  0  0  0
    3.0625    3.1481    0.0000 C   0  0  0  0  0  0  0  0  0  0  0  0
    2.3480    4.3856    0.0000 C   0  0  0  0  0  0  0  0  0  0  0  0
    2.3480    1.0855    0.0000 S   0  0  0  0  0  0  0  0  0  0  0  0
    3.0625    0.6730    0.0000 O   0  0  0  0  0  0  0  0  0  0  0  0
    1.6336    0.6730    0.0000 O   0  0  0  0  0  0  0  0  0  0  0  0
    2.3480    0.2605    0.0000 O   0  0  0  0  0  0  0  0  0  0  0  0
   -5.9043    2.4208    0.0000 C   0  0  0  0  0  0  0  0  0  0  0  0
   -6.6187    2.0083    0.0000 C   0  0  0  0  0  0  0  0  0  0  0  0
   -5.1898    1.1832    0.0000 O   0  0  0  0  0  0  0  0  0  0  0  0
   -5.1898    2.0083    0.0000 C   0  0  0  0  0  0  0  0  0  0  0  0
   -3.7608    2.0082    0.0000 C   0  0  0  0  0  0  0  0  0  0  0  0
   -4.4753    2.4207    0.0000 N   0  0  0  0  0  0  0  0  0  0  0  0
   -3.0464    2.4207    0.0000 C   0  0  0  0  0  0  0  0  0  0  0  0
   -3.0464    0.7707    0.0000 N   0  0  0  0  0  0  0  0  0  0  0  0
   -2.3319    1.1832    0.0000 C   0  0  0  0  0  0  0  0  0  0  0  0
   -2.3319    2.0082    0.0000 N   0  0  0  0  0  0  0  0  0  0  0  0
   -3.7608    3.6583    0.0000 C   0  0  0  0  0  0  0  0  0  0  0  0
   -4.4753    3.2457    0.0000 C   0  0  0  0  0  0  0  0  0  0  0  0
   -3.0464    3.2457    0.0000 C   0  0  0  0  0  0  0  0  0  0  0  0
   -5.1898    3.6582    0.0000 C   0  0  0  0  0  0  0  0  0  0  0  0
   -3.0464   -0.0543    0.0000 C   0  0  0  0  0  0  0  0  0  0  0  0
   -2.3319   -0.4668    0.0000 N   0  0  0  0  0  0  0  0  0  0  0  0
   -1.6174   -0.0543    0.0000 C   0  0  0  0  0  0  0  0  0  0  0  0
   -1.6174    0.7707    0.0000 C   0  0  0  0  0  0  0  0  0  0  0  0
   -0.8329   -0.3093    0.0000 N   0  0  0  0  0  0  0  0  0  0  0  0
   -0.3479    0.3582    0.0000 C   0  0  0  0  0  0  0  0  0  0  0  0
   -0.8328    1.0256    0.0000 C   0  0  0  0  0  0  0  0  0  0  0  0
  1  2  2  0
  2  3  1  0
  3  4  2  0
  4  5  1  0
  5  6  2  0
  1  6  1  0
  1  7  1  0
  4  8  1  0
  8  9  2  0
  8 10  2  0
  8 11  1  0
 12 13  2  0
 14 15  2  0
 12 15  1  0
 16 17  1  0
 15 17  1  0
 19 20  1  0
 20 21  1  0
 18 21  1  1
 18 16  1  0
 22 23  1  0
 22 24  1  0
 18 24  1  0
 23 17  1  0
 23 25  1  1
 26 27  1  0
 27 28  2  0
 28 29  1  0
 19 26  2  0
 20 29  2  0
 30 31  1  0
 31 32  2  0
 28 30  1  0
 29 32  1  0
M  END
> <chembl_id>
CHEMBL5314649

> <chembl_pref_name>
RITLECITINIB TOSYLATE
