
     RDKit          2D

  2  0  0  0  0  0  0  0  0  0999 V2000
   -0.8208   -0.0542    0.0000 Na  0  0  0  0  0 15  0  0  0  0  0  0
    0.6125   -0.0542    0.0000 I   0  0  0  0  0  0  0  0  0  0  0  0
M  CHG  2   1   1   2  -1
M  END
> <chembl_id>
CHEMBL1644695

> <chembl_pref_name>
SODIUM IODIDE
