
     RDKit          2D

 43 47  0  0  0  0  0  0  0  0999 V2000
    4.4038   -2.4223    0.0000 C   0  0  0  0  0  0  0  0  0  0  0  0
    5.1174   -2.7991    0.0000 C   0  0  0  0  0  0  0  0  0  0  0  0
    4.3877   -1.5725    0.0000 C   0  0  0  0  0  0  0  0  0  0  0  0
    3.6707   -1.1346    0.0000 N   0  0  0  0  0  0  0  0  0  0  0  0
    5.1098   -1.1735    0.0000 C   0  0  0  0  0  0  0  0  0  0  0  0
    5.0367   -0.5105    0.0000 O   0  0  0  0  0  0  0  0  0  0  0  0
    6.4988   -1.1833    0.0000 C   0  0  0  0  0  0  0  0  0  0  0  0
    6.5405   -0.3337    0.0000 O   0  0  0  0  0  0  0  0  0  0  0  0
    7.9750   -1.1974    0.0000 C   0  0  0  0  0  0  0  0  0  0  0  0
    7.9949   -0.3926    0.0000 O   0  0  0  0  0  0  0  0  0  0  0  0
    8.7107   -1.5736    0.0000 C   0  0  0  0  0  0  0  0  0  0  0  0
    9.3695   -1.1836    0.0000 C   0  0  0  0  0  0  0  0  0  0  0  0
   10.7940   -1.1907    0.0000 C   0  0  0  0  0  0  0  0  0  0  0  0
   10.8118   -0.3337    0.0000 O   0  0  0  0  0  0  0  0  0  0  0  0
   11.7128   -1.5684    0.0000 N   0  0  0  0  0  0  0  0  0  0  0  0
   10.1034   -1.5760    0.0000 C   0  0  0  0  0  0  0  0  0  0  0  0
   10.1040   -2.4027    0.0000 C   0  0  0  0  0  0  0  0  0  0  0  0
   10.9953   -2.8030    0.0000 O   0  0  0  0  0  0  0  0  0  0  0  0
    8.6428   -3.2369    0.0000 H   0  0  0  0  0  0  0  0  0  0  0  0
    8.6830   -2.4184    0.0000 C   0  0  0  0  0  0  0  0  0  0  0  0
    7.9697   -2.7893    0.0000 C   0  0  0  0  0  0  0  0  0  0  0  0
    7.2512   -2.4139    0.0000 C   0  0  0  0  0  0  0  0  0  0  0  0
    6.5402   -2.8322    0.0000 C   0  0  0  0  0  0  0  0  0  0  0  0
    5.8391   -2.4223    0.0000 C   0  0  0  0  0  0  0  0  0  0  0  0
    5.1056   -3.6373    0.0000 F   0  0  0  0  0  0  0  0  0  0  0  0
    5.8270   -1.5759    0.0000 C   0  0  0  0  0  0  0  0  0  0  0  0
    7.2452   -1.5778    0.0000 C   0  0  0  0  0  0  0  0  0  0  0  0
    9.3744   -2.8481    0.0000 C   0  0  0  0  0  0  0  0  0  0  0  0
    0.1873   -1.8643    0.0000 C   0  0  0  0  0  0  0  0  0  0  0  0
    0.7524   -1.2204    0.0000 C   0  0  0  0  0  0  0  0  0  0  0  0
    1.5016   -1.5684    0.0000 N   0  0  0  0  0  0  0  0  0  0  0  0
    1.4308   -2.3996    0.0000 C   0  0  0  0  0  0  0  0  0  0  0  0
    0.6430   -2.5859    0.0000 C   0  0  0  0  0  0  0  0  0  0  0  0
    2.2413   -1.1450    0.0000 C   0  0  0  0  0  0  0  0  0  0  0  0
    3.0700   -1.5356    0.0000 C   0  0  0  0  0  0  0  0  0  0  0  0
    3.1133   -2.4026    0.0000 O   0  0  0  0  0  0  0  0  0  0  0  0
    9.8107   -3.6373    0.0000 N   0  0  0  0  0  0  0  0  0  0  0  0
    9.5519   -4.4265    0.0000 C   0  0  0  0  0  0  0  0  0  0  0  0
   10.5594   -4.1971    0.0000 C   0  0  0  0  0  0  0  0  0  0  0  0
    8.9431   -3.6373    0.0000 H   0  0  0  0  0  0  0  0  0  0  0  0
    7.2512   -3.2389    0.0000 H   0  0  0  0  0  0  0  0  0  0  0  0
    8.7107   -0.7486    0.0000 O   0  0  0  0  0  0  0  0  0  0  0  0
    9.3516   -0.3588    0.0000 O   0  0  0  0  0  0  0  0  0  0  0  0
  1  2  2  0
  1  3  1  0
  2 25  1  0
  3  5  2  0
  4  3  1  0
  5  6  1  0
  5 26  1  0
  7  8  2  0
  7 27  1  0
  7 26  1  0
  9 10  1  0
  9 11  1  0
 11 20  1  0
 12 16  1  0
 12 11  1  0
 13 14  2  0
 13 16  1  0
 15 13  1  0
 16 17  2  0
 17 18  1  0
 17 28  1  0
 20 21  1  0
 20 28  1  0
 22 23  1  0
 22 27  1  0
 22 21  1  0
 24 23  1  0
 24  2  1  0
 26 24  2  0
 27  9  2  0
 28 40  1  6
 29 30  1  0
 30 31  1  0
 31 32  1  0
 31 34  1  0
 32 33  1  0
 33 29  1  0
 35 34  1  0
 35  4  1  0
 36 35  2  0
 37 38  1  0
 37 39  1  0
 22 41  1  1
 11 42  1  1
 20 19  1  1
 28 37  1  1
 12 43  2  0
M  END
> <chembl_id>
CHEMBL1951095

> <chembl_pref_name>
ERAVACYCLINE
