
     RDKit          2D

 35 39  0  0  1  0  0  0  0  0999 V2000
    5.4875   -6.7042    0.0000 C   0  0  0  0  0  0  0  0  0  0  0  0
    4.8125   -6.9167    0.0000 C   0  0  0  0  0  0  0  0  0  0  0  0
    2.9667   -7.9667    0.0000 C   0  0  0  0  0  0  0  0  0  0  0  0
    2.9667   -8.6750    0.0000 C   0  0  0  0  0  0  0  0  0  0  0  0
    4.8042   -7.6208    0.0000 C   0  0  0  0  0  0  0  0  0  0  0  0
    4.1917   -7.9708    0.0000 C   0  0  0  0  0  0  0  0  0  0  0  0
    3.5792   -7.6125    0.0000 C   0  0  0  0  0  0  0  0  0  0  0  0
    5.8958   -7.2750    0.0000 C   0  0  0  0  0  0  0  0  0  0  0  0
    5.9042   -6.1375    0.0000 O   0  0  0  0  0  0  0  0  0  0  0  0
    2.3542   -7.6125    0.0000 C   0  0  0  0  0  0  0  0  0  0  0  0
    4.2000   -6.5542    0.0000 C   0  0  0  0  0  0  0  0  0  0  0  0
    6.5708   -6.3583    0.0000 C   0  0  0  0  0  0  0  0  0  0  0  0
    3.5833   -6.9042    0.0000 C   0  0  0  0  0  0  0  0  0  0  0  0
    6.5667   -7.0625    0.0000 O   0  0  0  0  0  0  0  0  0  0  0  0
    5.4750   -7.8500    0.0000 C   0  0  0  0  0  0  0  0  0  0  0  0
    4.1875   -8.6792    0.0000 C   0  0  0  0  0  0  0  0  0  0  0  0
    3.5750   -9.0292    0.0000 C   0  0  0  0  0  0  0  0  0  0  0  0
    2.3542   -9.0292    0.0000 C   0  0  0  0  0  0  0  0  0  0  0  0
    5.4792   -5.9917    0.0000 C   0  0  0  0  0  0  0  0  0  0  0  0
    1.7417   -7.9667    0.0000 C   0  0  0  0  0  0  0  0  0  0  0  0
    1.7417   -8.6750    0.0000 C   0  0  0  0  0  0  0  0  0  0  0  0
    4.8667   -5.6458    0.0000 O   0  0  0  0  0  0  0  0  0  0  0  0
    1.1292   -9.0250    0.0000 O   0  0  0  0  0  0  0  0  0  0  0  0
    4.8042   -6.2042    0.0000 C   0  0  0  0  0  0  0  0  0  0  0  0
    2.9625   -7.2542    0.0000 C   0  0  0  0  0  0  0  0  0  0  0  0
    3.5708   -9.7375    0.0000 F   0  0  0  0  0  0  0  0  0  0  0  0
    2.9708   -6.5458    0.0000 O   0  0  0  0  0  0  0  0  0  0  0  0
    6.0917   -5.6333    0.0000 C   0  0  0  0  0  0  0  0  0  0  0  0
    6.9167   -5.7417    0.0000 C   0  0  0  0  0  0  0  0  0  0  0  0
    7.2792   -6.3542    0.0000 C   0  0  0  0  0  0  0  0  0  0  0  0
    6.0875   -4.9250    0.0000 O   0  0  0  0  0  0  0  0  0  0  0  0
    6.4792   -8.0872    0.0000 H   0  0  0  0  0  0  0  0  0  0  0  0
    2.7144   -7.1103    0.0000 H   0  0  0  0  0  0  0  0  0  0  0  0
    5.0551   -8.4753    0.0000 H   0  0  0  0  0  0  0  0  0  0  0  0
    4.8990   -8.6163    0.0000 H   0  0  0  0  0  0  0  0  0  0  0  0
  2  1  1  0
  3  7  1  0
  4  3  1  0
  5  2  1  0
  6  5  1  0
  7  6  1  0
  8  1  1  0
  1  9  1  0
 10  3  1  0
 11  2  1  0
 12  9  1  0
 13 11  1  0
  8 14  1  0
 15  8  1  0
 16  6  1  0
 17 16  1  0
 18  4  2  0
  1 19  1  1
 20 10  2  0
 21 18  1  0
 22 19  2  0
 23 21  2  0
  2 24  1  1
  3 25  1  1
 17 26  1  6
 13 27  1  1
 28 19  1  0
 29 12  1  0
 30 12  1  0
 31 28  1  0
 12 14  1  0
 15  5  1  0
 13  7  1  0
 17  4  1  0
 21 20  1  0
  8 32  1  1
  7 33  1  6
  6 34  1  1
  5 35  1  6
M  END
> <chembl_id>
CHEMBL1512

> <chembl_pref_name>
FLUNISOLIDE
