
     RDKit          2D

 18 18  0  0  0  0  0  0  0  0999 V2000
   12.9365  -17.9156    0.0000 N   0  0  0  0  0  0  0  0  0  0  0  0
   13.6491  -18.3267    0.0000 C   0  0  0  0  0  0  0  0  0  0  0  0
   14.3617  -17.9156    0.0000 N   0  0  0  0  0  0  0  0  0  0  0  0
   17.9293  -18.3267    0.0000 P   0  0  0  0  0  0  0  0  0  0  0  0
   12.9365  -17.0933    0.0000 C   0  0  0  0  0  0  0  0  0  0  0  0
   13.6491  -16.6685    0.0000 C   0  0  0  0  0  0  0  0  0  0  0  0
   14.3617  -17.0933    0.0000 C   0  0  0  0  0  0  0  0  0  0  0  0
   17.2167  -17.9110    0.0000 C   0  0  0  0  0  0  0  0  0  0  0  0
   15.0743  -18.3267    0.0000 C   0  0  0  0  0  0  0  0  0  0  0  0
   13.6491  -19.1489    0.0000 O   0  0  0  0  0  0  0  0  0  0  0  0
   18.3358  -19.0393    0.0000 O   0  0  0  0  0  0  0  0  0  0  0  0
   16.5041  -18.3267    0.0000 O   0  0  0  0  0  0  0  0  0  0  0  0
   17.5136  -19.0393    0.0000 O   0  0  0  0  0  0  0  0  0  0  0  0
   18.6419  -17.9156    0.0000 O   0  0  0  0  0  0  0  0  0  0  0  0
   15.7915  -17.9156    0.0000 C   0  0  0  0  0  0  0  0  0  0  0  0
   12.2239  -16.6822    0.0000 N   0  0  0  0  0  0  0  0  0  0  0  0
   16.5041  -16.6776    0.0000 O   0  0  0  0  0  0  0  0  0  0  0  0
   15.7915  -17.0933    0.0000 C   0  0  0  0  0  0  0  0  0  0  0  0
  2  1  1  0
  3  2  1  0
  4  8  1  0
  5  1  2  0
  6  5  1  0
  7  6  2  0
  8 12  1  0
  9  3  1  0
 10  2  2  0
 11  4  2  0
 12 15  1  0
 13  4  1  0
 14  4  1  0
 15  9  1  0
 16  5  1  0
 17 18  1  0
 15 18  1  1
  3  7  1  0
M  END
> <chembl_id>
CHEMBL152

> <chembl_pref_name>
CIDOFOVIR ANHYDROUS
