
     RDKit          2D

 19 20  0  0  0  0  0  0  0  0999 V2000
    0.8292    1.1708    0.0000 C   0  0  0  0  0  0  0  0  0  0  0  0
    3.4125    0.6625    0.0000 C   0  0  0  0  0  0  0  0  0  0  0  0
   -0.0333    0.6833    0.0000 C   0  0  0  0  0  0  0  0  0  0  0  0
   -1.7625   -0.3000    0.0000 C   0  0  0  0  0  0  0  0  0  0  0  0
    3.4042   -0.3292    0.0000 O   0  0  0  0  0  0  0  0  0  0  0  0
    0.8375    2.1708    0.0000 O   0  0  0  0  0  0  0  0  0  0  0  0
   -0.8875    1.1875    0.0000 C   0  0  0  0  0  0  0  0  0  0  0  0
   -0.0375   -0.3167    0.0000 C   0  0  0  0  0  0  0  0  0  0  0  0
   -1.7583    0.6958    0.0000 C   0  0  0  0  0  0  0  0  0  0  0  0
   -0.9000   -0.8000    0.0000 C   0  0  0  0  0  0  0  0  0  0  0  0
    1.6792    0.6708    0.0000 C   0  0  0  0  0  0  0  0  0  0  0  0
   -2.6208   -0.7917    0.0000 C   0  0  0  0  0  0  0  0  0  0  0  0
    2.5542    1.1625    0.0000 C   0  0  0  0  0  0  0  0  0  0  0  0
    4.2667    1.1458    0.0000 O   0  0  0  0  0  0  0  0  0  0  0  0
   -2.6250   -1.7875    0.0000 C   0  0  0  0  0  0  0  0  0  0  0  0
   -3.4750   -0.2875    0.0000 C   0  0  0  0  0  0  0  0  0  0  0  0
   -3.4833   -2.2792    0.0000 C   0  0  0  0  0  0  0  0  0  0  0  0
   -4.3458   -0.7792    0.0000 C   0  0  0  0  0  0  0  0  0  0  0  0
   -4.3458   -1.7792    0.0000 C   0  0  0  0  0  0  0  0  0  0  0  0
  2 13  1  0
  3  1  1  0
  4 10  2  0
  5  2  2  0
  6  1  2  0
  7  3  1  0
  8  3  2  0
  9  7  2  0
 10  8  1  0
 11  1  1  0
 12  4  1  0
 13 11  1  0
 14  2  1  0
 15 12  2  0
 16 12  1  0
 17 15  1  0
 18 16  2  0
 19 18  1  0
  9  4  1  0
 17 19  2  0
M  END
> <chembl_id>
CHEMBL277522

> <chembl_pref_name>
FENBUFEN
