
     RDKit          2D

 32 35  0  0  0  0  0  0  0  0999 V2000
   -3.5208    0.2125    0.0000 C   0  0  0  0  0  0  0  0  0  0  0  0
   -2.6250   -0.3375    0.0000 C   0  0  0  0  0  0  0  0  0  0  0  0
    0.9417    0.0375    0.0000 C   0  0  0  0  0  0  0  0  0  0  0  0
    2.5042   -1.3792    0.0000 N   0  0  0  0  0  0  0  0  0  0  0  0
   -4.3458   -0.3000    0.0000 C   0  0  0  0  0  0  0  0  0  0  0  0
   -3.4833   -0.7375    0.0000 C   0  0  0  0  0  0  0  0  0  0  0  0
    0.9000    1.5000    0.0000 C   0  0  0  0  0  0  0  0  0  0  0  0
    1.3375    0.7625    0.0000 C   0  0  0  0  0  0  0  0  0  0  0  0
    0.1750    0.0375    0.0000 C   0  0  0  0  0  0  0  0  0  0  0  0
    1.3875   -0.6875    0.0000 C   0  0  0  0  0  0  0  0  0  0  0  0
    0.1167    1.5000    0.0000 C   0  0  0  0  0  0  0  0  0  0  0  0
   -0.2958    0.7625    0.0000 C   0  0  0  0  0  0  0  0  0  0  0  0
   -2.6250   -1.3250    0.0000 C   0  0  0  0  0  0  0  0  0  0  0  0
   -4.3458   -1.3042    0.0000 C   0  0  0  0  0  0  0  0  0  0  0  0
   -3.4875   -1.8125    0.0000 C   0  0  0  0  0  0  0  0  0  0  0  0
    4.2417   -0.3917    0.0000 O   0  0  0  0  0  0  0  0  0  0  0  0
    2.2375    0.7625    0.0000 Br  0  0  0  0  0  0  0  0  0  0  0  0
   -0.2000    1.9958    0.0000 O   0  0  0  0  0  0  0  0  0  0  0  0
   -0.9208    0.7625    0.0000 O   0  0  0  0  0  0  0  0  0  0  0  0
    1.6500   -1.8667    0.0000 C   0  0  0  0  0  0  0  0  0  0  0  0
   -3.0125    0.7083    0.0000 C   0  0  0  0  0  0  0  0  0  0  0  0
   -4.0833    0.6958    0.0000 C   0  0  0  0  0  0  0  0  0  0  0  0
    3.3667   -1.8792    0.0000 C   0  0  0  0  0  0  0  0  0  0  0  0
    2.5000   -0.3917    0.0000 C   0  0  0  0  0  0  0  0  0  0  0  0
   -0.0583   -1.8375    0.0000 O   0  0  0  0  0  0  0  0  0  0  0  0
    3.3792    0.1083    0.0000 C   0  0  0  0  0  0  0  0  0  0  0  0
    4.2417   -1.4000    0.0000 C   0  0  0  0  0  0  0  0  0  0  0  0
   -1.7708   -1.8292    0.0000 C   0  0  0  0  0  0  0  0  0  0  0  0
    0.8000   -1.3542    0.0000 C   0  0  0  0  0  0  0  0  0  0  0  0
   -0.9083   -1.3375    0.0000 C   0  0  0  0  0  0  0  0  0  0  0  0
   -1.3750    1.5458    0.0000 C   0  0  0  0  0  0  0  0  0  0  0  0
    0.3042    2.7708    0.0000 C   0  0  0  0  0  0  0  0  0  0  0  0
  2  1  1  0
  3 10  1  0
  4 20  1  0
  5  1  1  0
  6  5  1  0
  7  8  1  0
  8  3  2  0
  9  3  1  0
 10  4  1  0
 11 12  1  0
 12  9  2  0
 13  2  1  0
 14  5  1  0
 15 14  1  0
 16 27  1  0
 17  8  1  0
 18 11  1  0
 19 12  1  0
 20 29  1  0
 21  1  1  0
 22  1  1  0
 23  4  1  0
 24  4  1  0
 25 30  1  0
 26 24  1  0
 27 23  1  0
 28 13  1  0
 29 25  1  0
 30 28  1  0
 31 19  1  0
 32 18  1  0
  2  6  1  0
 13 15  1  0
 26 16  1  0
  7 11  2  0
M  CHG  1   4   1
M  END
> <chembl_id>
CHEMBL1909324

> <chembl_pref_name>
PINAVERIUM
