
     RDKit          2D

  3  2  0  0  0  0  0  0  0  0999 V2000
    0.7145   -0.1375    0.0000 C   0  0  0  0  0  0  0  0  0  0  0  0
    0.0000    0.2750    0.0000 C   0  0  0  0  0  0  0  0  0  0  0  0
   -0.7145   -0.1375    0.0000 Cl  0  0  0  0  0  0  0  0  0  0  0  0
  2  1  2  0
  3  2  1  0
M  END
> <chembl_id>
CHEMBL2311071

> <chembl_pref_name>
VINYL CHLORIDE
