
     RDKit          2D

 22 23  0  0  0  0  0  0  0  0999 V2000
   -1.9552   -7.8284    0.0000 C   0  0  0  0  0  0  0  0  0  0  0  0
   -2.6697   -7.4159    0.0000 C   0  0  0  0  0  0  0  0  0  0  0  0
   -3.3841   -7.8284    0.0000 C   0  0  0  0  0  0  0  0  0  0  0  0
   -3.3841   -8.6534    0.0000 C   0  0  0  0  0  0  0  0  0  0  0  0
   -1.9552   -8.6534    0.0000 C   0  0  0  0  0  0  0  0  0  0  0  0
   -2.6697   -6.5909    0.0000 O   0  0  0  0  0  0  0  0  0  0  0  0
   -4.0986   -7.4159    0.0000 O   0  0  0  0  0  0  0  0  0  0  0  0
   -1.2407   -9.0659    0.0000 C   0  0  0  0  0  0  0  0  0  0  0  0
   -0.5262   -8.6534    0.0000 C   0  0  0  0  0  0  0  0  0  0  0  0
   -0.5262   -7.8284    0.0000 C   0  0  0  0  0  0  0  0  0  0  0  0
    0.1882   -9.0659    0.0000 C   0  0  0  0  0  0  0  0  0  0  0  0
    0.9027   -8.6534    0.0000 C   0  0  0  0  0  0  0  0  0  0  0  0
    0.1882   -9.8909    0.0000 C   0  0  0  0  0  0  0  0  0  0  0  0
   -2.6697   -9.0659    0.0000 C   0  0  0  0  0  0  0  0  0  0  0  0
    1.6172   -9.0659    0.0000 C   0  0  0  0  0  0  0  0  0  0  0  0
    2.3316   -8.6534    0.0000 C   0  0  0  0  0  0  0  0  0  0  0  0
    3.0461   -9.0659    0.0000 C   0  0  0  0  0  0  0  0  0  0  0  0
    3.0461   -9.8909    0.0000 C   0  0  0  0  0  0  0  0  0  0  0  0
    2.3316  -10.3034    0.0000 C   0  0  0  0  0  0  0  0  0  0  0  0
    1.6172   -9.8909    0.0000 C   0  0  0  0  0  0  0  0  0  0  0  0
    2.3316  -11.1284    0.0000 O   0  0  0  0  0  0  0  0  0  0  0  0
    3.7606  -10.3034    0.0000 O   0  0  0  0  0  0  0  0  0  0  0  0
 14  5  2  0
  9 11  1  0
  5  1  1  0
 11 12  1  0
  2  3  1  0
 11 13  1  6
  2  6  1  0
  1  2  2  0
 12 15  1  0
  3  7  1  0
 15 16  2  0
  3  4  2  0
 16 17  1  0
  5  8  1  0
 17 18  2  0
  4 14  1  0
 18 19  1  0
  8  9  1  0
 19 20  2  0
 20 15  1  0
 19 21  1  0
  9 10  1  1
 18 22  1  0
M  END
> <chembl_id>
CHEMBL313972

> <chembl_pref_name>
MASOPROCOL
