
     RDKit          2D

 22 24  0  0  0  0  0  0  0  0999 V2000
   -0.3333    1.3583    0.0000 S   0  0  0  0  0  0  0  0  0  0  0  0
    2.3542   -0.7542    0.0000 C   0  0  0  0  0  0  0  0  0  0  0  0
    2.1625   -0.0667    0.0000 C   0  0  0  0  0  0  0  0  0  0  0  0
    3.0792   -0.7542    0.0000 C   0  0  0  0  0  0  0  0  0  0  0  0
    3.2917   -0.0667    0.0000 O   0  0  0  0  0  0  0  0  0  0  0  0
    2.7250    0.3208    0.0000 C   0  0  0  0  0  0  0  0  0  0  0  0
    0.2917    0.9833    0.0000 C   0  0  0  0  0  0  0  0  0  0  0  0
    1.5250    0.2708    0.0000 C   0  0  0  0  0  0  0  0  0  0  0  0
    0.0167    1.9750    0.0000 O   0  0  0  0  0  0  0  0  0  0  0  0
   -0.6958    1.9750    0.0000 O   0  0  0  0  0  0  0  0  0  0  0  0
    1.7542   -1.1167    0.0000 C   0  0  0  0  0  0  0  0  0  0  0  0
    3.4917   -1.3167    0.0000 O   0  0  0  0  0  0  0  0  0  0  0  0
    0.9167    1.3458    0.0000 C   0  0  0  0  0  0  0  0  0  0  0  0
    0.2917    0.2708    0.0000 C   0  0  0  0  0  0  0  0  0  0  0  0
    1.5250    0.9833    0.0000 C   0  0  0  0  0  0  0  0  0  0  0  0
    0.9167   -0.0667    0.0000 C   0  0  0  0  0  0  0  0  0  0  0  0
   -0.9458    0.9958    0.0000 C   0  0  0  0  0  0  0  0  0  0  0  0
    1.7542   -1.8292    0.0000 C   0  0  0  0  0  0  0  0  0  0  0  0
    1.1417   -0.7542    0.0000 C   0  0  0  0  0  0  0  0  0  0  0  0
    0.5125   -1.1167    0.0000 C   0  0  0  0  0  0  0  0  0  0  0  0
    1.1417   -2.1750    0.0000 C   0  0  0  0  0  0  0  0  0  0  0  0
    0.5125   -1.8292    0.0000 C   0  0  0  0  0  0  0  0  0  0  0  0
  2  3  2  0
  3  8  1  0
  4  2  1  0
  5  6  1  0
  6  3  1  0
  7  1  1  0
  8 16  1  0
  9  1  2  0
 10  1  2  0
 11  2  1  0
 12  4  2  0
 13  7  2  0
 14  7  1  0
 15 13  1  0
 16 14  2  0
 17  1  1  0
 18 11  2  0
 19 11  1  0
 20 19  2  0
 21 18  1  0
 22 20  1  0
 15  8  2  0
  5  4  1  0
 22 21  2  0
M  END
> <chembl_id>
CHEMBL122

> <chembl_pref_name>
ROFECOXIB
