
     RDKit          2D

 17 18  0  0  0  0  0  0  0  0999 V2000
    4.2125   -4.1292    0.0000 C   0  0  0  0  0  0  0  0  0  0  0  0
    5.4375   -4.1167    0.0000 C   0  0  0  0  0  0  0  0  0  0  0  0
    5.4417   -4.8292    0.0000 C   0  0  0  0  0  0  0  0  0  0  0  0
    4.8250   -3.7667    0.0000 C   0  0  0  0  0  0  0  0  0  0  0  0
    4.8292   -5.1875    0.0000 N   0  0  0  0  0  0  0  0  0  0  0  0
    4.2167   -4.8292    0.0000 C   0  0  0  0  0  0  0  0  0  0  0  0
    6.0625   -5.1792    0.0000 N   0  0  0  0  0  0  0  0  0  0  0  0
    3.5917   -3.7667    0.0000 C   0  0  0  0  0  0  0  0  0  0  0  0
    6.0542   -3.7667    0.0000 C   0  0  0  0  0  0  0  0  0  0  0  0
    4.8250   -3.0542    0.0000 O   0  0  0  0  0  0  0  0  0  0  0  0
    3.6042   -3.0542    0.0000 O   0  0  0  0  0  0  0  0  0  0  0  0
    6.6750   -4.8375    0.0000 C   0  0  0  0  0  0  0  0  0  0  0  0
    2.9625   -4.1042    0.0000 O   0  0  0  0  0  0  0  0  0  0  0  0
    6.6667   -4.1167    0.0000 C   0  0  0  0  0  0  0  0  0  0  0  0
    4.8250   -5.9042    0.0000 C   0  0  0  0  0  0  0  0  0  0  0  0
    7.2917   -5.1875    0.0000 C   0  0  0  0  0  0  0  0  0  0  0  0
    4.2167   -6.2542    0.0000 C   0  0  0  0  0  0  0  0  0  0  0  0
  2  4  1  0
  3  5  1  0
  4  1  1  0
  5  6  1  0
  6  1  2  0
  7  3  1  0
  8  1  1  0
  9  2  1  0
 10  4  2  0
 11  8  2  0
 12  7  2  0
 13  8  1  0
 14  9  2  0
 15  5  1  0
 16 12  1  0
 17 15  1  0
  2  3  2  0
 14 12  1  0
M  END
> <chembl_id>
CHEMBL5

> <chembl_pref_name>
NALIDIXIC ACID
