
     RDKit          2D

 18 20  0  0  1  0  0  0  0  0999 V2000
   -0.6000   -0.2542    0.0000 C   0  0  0  0  0  0  0  0  0  0  0  0
   -0.9375   -1.3000    0.0000 C   0  0  0  0  0  0  0  0  0  0  0  0
    0.5042   -0.2542    0.0000 C   0  0  0  0  0  0  0  0  0  0  0  0
   -0.0583   -1.9667    0.0000 N   0  0  0  0  0  0  0  0  0  0  0  0
    0.8542   -1.3042    0.0000 C   0  0  0  0  0  0  0  0  0  0  0  0
    1.2417    0.5833    0.0000 C   0  0  0  0  0  0  0  0  0  0  0  0
    3.3167    0.9208    0.0000 C   0  0  0  0  0  0  0  0  0  0  0  0
    2.3667    0.3583    0.0000 C   0  0  0  0  0  0  0  0  0  0  0  0
   -1.3583    0.5625    0.0000 C   0  0  0  0  0  0  0  0  0  0  0  0
   -2.0375   -1.5667    0.0000 C   0  0  0  0  0  0  0  0  0  0  0  0
    1.9542   -1.5542    0.0000 C   0  0  0  0  0  0  0  0  0  0  0  0
    3.3167    2.0458    0.0000 O   0  0  0  0  0  0  0  0  0  0  0  0
    2.7167   -0.7417    0.0000 C   0  0  0  0  0  0  0  0  0  0  0  0
    4.2625    0.3583    0.0000 N   0  0  0  0  0  0  0  0  0  0  0  0
   -2.4458    0.3208    0.0000 C   0  0  0  0  0  0  0  0  0  0  0  0
   -3.4000    0.8708    0.0000 N   0  0  0  0  0  0  0  0  0  0  0  0
   -2.7750   -0.7417    0.0000 C   0  0  0  0  0  0  0  0  0  0  0  0
   -4.3458    0.3208    0.0000 C   0  0  0  0  0  0  0  0  0  0  0  0
  2  1  2  0
  3  1  1  0
  4  2  1  0
  5  3  2  0
  6  3  1  0
  7  8  1  0
  8  6  2  0
  9  1  1  0
 10  2  1  0
 11  5  1  0
 12  7  2  0
 13  8  1  0
 14  7  1  0
 15  9  1  0
 15 16  1  1
 17 15  1  0
 18 16  1  0
  5  4  1  0
 10 17  1  0
 11 13  2  0
M  END
> <chembl_id>
CHEMBL1279

> <chembl_pref_name>
FROVATRIPTAN
