
     RDKit          2D

 15 15  0  0  0  0  0  0  0  0999 V2000
    1.4542   -0.6125    0.0000 C   0  0  0  0  0  0  0  0  0  0  0  0
    1.4417   -1.3292    0.0000 C   0  0  0  0  0  0  0  0  0  0  0  0
    0.8500   -0.2500    0.0000 C   0  0  0  0  0  0  0  0  0  0  0  0
    0.8292   -1.6750    0.0000 C   0  0  0  0  0  0  0  0  0  0  0  0
    0.2167   -0.5917    0.0000 C   0  0  0  0  0  0  0  0  0  0  0  0
    0.2167   -1.3042    0.0000 C   0  0  0  0  0  0  0  0  0  0  0  0
    3.3125   -0.2875    0.0000 N   0  0  0  0  0  0  0  0  0  0  0  0
    2.0667   -0.2667    0.0000 C   0  0  0  0  0  0  0  0  0  0  0  0
    2.6875   -0.6292    0.0000 C   0  0  0  0  0  0  0  0  0  0  0  0
   -0.3833   -0.2208    0.0000 O   0  0  0  0  0  0  0  0  0  0  0  0
    0.8167   -2.3792    0.0000 O   0  0  0  0  0  0  0  0  0  0  0  0
    2.0917    0.4458    0.0000 O   0  0  0  0  0  0  0  0  0  0  0  0
    3.9167   -0.6500    0.0000 C   0  0  0  0  0  0  0  0  0  0  0  0
    3.9125   -1.3667    0.0000 C   0  0  0  0  0  0  0  0  0  0  0  0
    4.5417   -0.3042    0.0000 C   0  0  0  0  0  0  0  0  0  0  0  0
  2  1  1  0
  3  1  2  0
  4  2  2  0
  5  3  1  0
  6  4  1  0
  7  9  1  0
  8  1  1  0
  9  8  1  0
 10  5  1  0
 11  4  1  0
 12  8  1  0
 13  7  1  0
 14 13  1  0
 15 13  1  0
  6  5  2  0
M  END
> <chembl_id>
CHEMBL776

> <chembl_pref_name>
METAPROTERENOL
