
     RDKit          2D

  6  5  0  0  0  0  0  0  0  0999 V2000
   -0.6750    0.0375    0.0000 C   0  0  0  0  0  0  0  0  0  0  0  0
   -1.3958    1.2958    0.0000 O   0  0  0  0  0  0  0  0  0  0  0  0
    0.7500    0.0375    0.0000 C   0  0  0  0  0  0  0  0  0  0  0  0
   -1.3958   -1.1917    0.0000 O   0  0  0  0  0  0  0  0  0  0  0  0
    1.4667    1.2958    0.0000 O   0  0  0  0  0  0  0  0  0  0  0  0
    1.4667   -1.1917    0.0000 C   0  0  0  0  0  0  0  0  0  0  0  0
  2  1  2  0
  3  1  1  0
  4  1  1  0
  5  3  1  0
  6  3  1  0
M  END
> <chembl_id>
CHEMBL1200559

> <chembl_pref_name>
LACTIC ACID
