
     RDKit          2D

 56 53  0  0  0  0  0  0  0  0999 V2000
   -3.3472    2.9666    0.0000 O   0  0  0  0  0  0  0  0  0  0  0  0
   -4.0617    4.2041    0.0000 O   0  0  0  0  0  0  0  0  0  0  0  0
   -1.9183    2.1416    0.0000 O   0  0  0  0  0  0  0  0  0  0  0  0
   -0.4894    2.9666    0.0000 O   0  0  0  0  0  0  0  0  0  0  0  0
   -4.0617    3.3791    0.0000 C   0  0  0  0  0  0  0  0  0  0  0  0
   -1.9183    2.9666    0.0000 C   0  0  0  0  0  0  0  0  0  0  0  0
   -2.6328    3.3791    0.0000 C   0  0  0  0  0  0  0  0  0  0  0  0
   -4.7762    2.9666    0.0000 C   0  0  0  0  0  0  0  0  0  0  0  0
   -5.4907    3.3791    0.0000 C   0  0  0  0  0  0  0  0  0  0  0  0
   -1.2038    3.3791    0.0000 C   0  0  0  0  0  0  0  0  0  0  0  0
   -6.2051    2.9666    0.0000 C   0  0  0  0  0  0  0  0  0  0  0  0
   -6.9196    3.3791    0.0000 C   0  0  0  0  0  0  0  0  0  0  0  0
   -7.6341    2.9666    0.0000 C   0  0  0  0  0  0  0  0  0  0  0  0
   -8.3485    3.3791    0.0000 C   0  0  0  0  0  0  0  0  0  0  0  0
   -9.0630    2.9666    0.0000 C   0  0  0  0  0  0  0  0  0  0  0  0
   -9.7775    3.3791    0.0000 C   0  0  0  0  0  0  0  0  0  0  0  0
  -10.4920    2.9666    0.0000 C   0  0  0  0  0  0  0  0  0  0  0  0
    9.2528    1.9192    0.0000 C   0  0  0  0  0  0  0  0  0  0  0  0
    7.0984    3.9401    0.0000 C   0  0  0  0  0  0  0  0  0  0  0  0
    9.2486    2.7001    0.0000 O   0  0  0  0  0  0  0  0  0  0  0  0
    9.9793    1.5226    0.0000 O   0  0  0  0  0  0  0  0  0  0  0  0
    7.0984    4.7668    0.0000 O   0  0  0  0  0  0  0  0  0  0  0  0
    7.8207    3.5268    0.0000 O   0  0  0  0  0  0  0  0  0  0  0  0
    9.2486    3.5268    0.0000 C   0  0  0  0  0  0  0  0  0  0  0  0
    8.5347    3.9401    0.0000 C   0  0  0  0  0  0  0  0  0  0  0  0
   10.6808    3.5268    0.0000 O   0  0  0  0  0  0  0  0  0  0  0  0
    8.5514    1.4934    0.0000 C   0  0  0  0  0  0  0  0  0  0  0  0
    6.3844    3.5268    0.0000 C   0  0  0  0  0  0  0  0  0  0  0  0
    9.9668    3.9401    0.0000 C   0  0  0  0  0  0  0  0  0  0  0  0
    8.5639    0.6666    0.0000 C   0  0  0  0  0  0  0  0  0  0  0  0
    5.6704    3.9401    0.0000 C   0  0  0  0  0  0  0  0  0  0  0  0
    7.1861   -1.8385    0.0000 C   0  0  0  0  0  0  0  0  0  0  0  0
    2.8020    3.9401    0.0000 C   0  0  0  0  0  0  0  0  0  0  0  0
    3.5243    3.5268    0.0000 C   0  0  0  0  0  0  0  0  0  0  0  0
    7.1735   -1.0118    0.0000 C   0  0  0  0  0  0  0  0  0  0  0  0
    4.9565    3.5268    0.0000 C   0  0  0  0  0  0  0  0  0  0  0  0
    4.2383    3.9401    0.0000 C   0  0  0  0  0  0  0  0  0  0  0  0
    7.8625    0.2408    0.0000 C   0  0  0  0  0  0  0  0  0  0  0  0
    7.8750   -0.5859    0.0000 C   0  0  0  0  0  0  0  0  0  0  0  0
    6.4804   -2.2727    0.0000 C   0  0  0  0  0  0  0  0  0  0  0  0
    2.0880    3.5268    0.0000 C   0  0  0  0  0  0  0  0  0  0  0  0
   -3.1753   -3.9425    0.0000 O   0  0  0  0  0  0  0  0  0  0  0  0
   -3.8898   -2.7050    0.0000 O   0  0  0  0  0  0  0  0  0  0  0  0
   -1.7464   -4.7675    0.0000 O   0  0  0  0  0  0  0  0  0  0  0  0
   -0.3174   -3.9425    0.0000 O   0  0  0  0  0  0  0  0  0  0  0  0
   -3.8898   -3.5300    0.0000 C   0  0  0  0  0  0  0  0  0  0  0  0
   -1.7464   -3.9425    0.0000 C   0  0  0  0  0  0  0  0  0  0  0  0
   -2.4609   -3.5300    0.0000 C   0  0  0  0  0  0  0  0  0  0  0  0
   -4.6043   -3.9425    0.0000 C   0  0  0  0  0  0  0  0  0  0  0  0
   -1.0319   -3.5300    0.0000 C   0  0  0  0  0  0  0  0  0  0  0  0
   -5.3187   -3.5300    0.0000 C   0  0  0  0  0  0  0  0  0  0  0  0
   -6.0332   -3.9425    0.0000 C   0  0  0  0  0  0  0  0  0  0  0  0
   -6.7477   -3.5300    0.0000 C   0  0  0  0  0  0  0  0  0  0  0  0
   -7.4622   -3.9425    0.0000 C   0  0  0  0  0  0  0  0  0  0  0  0
   -8.1766   -3.5300    0.0000 C   0  0  0  0  0  0  0  0  0  0  0  0
   -8.8911   -3.9425    0.0000 C   0  0  0  0  0  0  0  0  0  0  0  0
  1  5  1  0
  1  7  1  0
  2  5  2  0
  3  6  1  0
  4 10  1  0
  5  8  1  0
  6  7  1  0
  6 10  1  0
  8  9  1  0
  9 11  1  0
 11 12  1  0
 12 13  1  0
 13 14  1  0
 14 15  1  0
 15 16  1  0
 16 17  1  0
 19 23  1  0
 20 18  1  0
 21 18  2  0
 22 19  2  0
 23 25  1  0
 24 20  1  0
 25 24  1  0
 26 29  1  0
 27 18  1  0
 28 19  1  0
 29 24  1  0
 30 27  1  0
 31 28  1  0
 32 35  1  0
 33 34  1  0
 34 37  1  0
 35 39  1  0
 36 31  1  0
 37 36  1  0
 38 30  1  0
 39 38  1  0
 40 32  1  0
 41 33  1  0
 42 46  1  0
 42 48  1  0
 43 46  2  0
 44 47  1  0
 45 50  1  0
 46 49  1  0
 47 48  1  0
 47 50  1  0
 49 51  1  0
 51 52  1  0
 52 53  1  0
 53 54  1  0
 54 55  1  0
 55 56  1  0
M  END
> <chembl_id>
CHEMBL3304484

> <chembl_pref_name>
MONOCTANOIN
