
     RDKit          2D

 30 34  0  0  0  0  0  0  0  0999 V2000
    5.0342   -3.4021    0.0000 C   0  0  0  0  0  0  0  0  0  0  0  0
    5.7486   -2.9896    0.0000 C   0  0  0  0  0  0  0  0  0  0  0  0
    4.3197   -2.9896    0.0000 N   0  0  0  0  0  0  0  0  0  0  0  0
    5.0342   -4.2271    0.0000 C   0  0  0  0  0  0  0  0  0  0  0  0
    5.7486   -4.6396    0.0000 C   0  0  0  0  0  0  0  0  0  0  0  0
    6.4631   -4.2271    0.0000 C   0  0  0  0  0  0  0  0  0  0  0  0
    6.4631   -3.4021    0.0000 C   0  0  0  0  0  0  0  0  0  0  0  0
    2.8907   -0.5146    0.0000 C   0  0  0  0  0  0  0  0  0  0  0  0
    3.6052   -0.9271    0.0000 C   0  0  0  0  0  0  0  0  0  0  0  0
    2.1763   -0.9271    0.0000 C   0  0  0  0  0  0  0  0  0  0  0  0
    2.1763   -1.7521    0.0000 C   0  0  0  0  0  0  0  0  0  0  0  0
    2.8907   -2.1646    0.0000 C   0  0  0  0  0  0  0  0  0  0  0  0
    2.8907   -2.9896    0.0000 C   0  0  0  0  0  0  0  0  0  0  0  0
    3.6052   -3.4021    0.0000 C   0  0  0  0  0  0  0  0  0  0  0  0
    3.6052   -4.2271    0.0000 C   0  0  0  0  0  0  0  0  0  0  0  0
    2.8907   -4.6396    0.0000 N   0  0  0  0  0  0  0  0  0  0  0  0
    3.6052   -1.7521    0.0000 C   0  0  0  0  0  0  0  0  0  0  0  0
    4.3197   -2.1646    0.0000 C   0  0  0  0  0  0  0  0  0  0  0  0
    5.0342   -1.7521    0.0000 O   0  0  0  0  0  0  0  0  0  0  0  0
    4.3197   -0.5146    0.0000 Cl  0  0  0  0  0  0  0  0  0  0  0  0
    2.1763   -5.8771    0.0000 C   0  0  0  0  0  0  0  0  0  0  0  0
    2.8907   -5.4646    0.0000 C   0  0  0  0  0  0  0  0  0  0  0  0
    1.3916   -5.6221    0.0000 N   0  0  0  0  0  0  0  0  0  0  0  0
    1.3916   -6.9570    0.0000 N   0  0  0  0  0  0  0  0  0  0  0  0
    2.1763   -6.7021    0.0000 C   0  0  0  0  0  0  0  0  0  0  0  0
    2.8907   -7.1146    0.0000 N   0  0  0  0  0  0  0  0  0  0  0  0
    3.6052   -5.8771    0.0000 N   0  0  0  0  0  0  0  0  0  0  0  0
    3.6052   -6.7021    0.0000 C   0  0  0  0  0  0  0  0  0  0  0  0
    0.9067   -6.2896    0.0000 C   0  0  0  0  0  0  0  0  0  0  0  0
    4.3197   -4.6396    0.0000 C   0  0  0  0  0  0  0  0  0  0  0  0
  1  2  1  0
  1  4  2  0
  2  7  2  0
  3  1  1  0
  4  5  1  0
  5  6  2  0
  7  6  1  0
  8  9  2  0
  8 10  1  0
  9 20  1  0
 10 11  2  0
 11 12  1  0
 12 17  2  0
 13 12  1  0
 13 14  2  0
 14 15  1  0
 14  3  1  0
 15 16  1  0
 16 22  1  0
 17  9  1  0
 18 17  1  0
 18  3  1  0
 19 18  2  0
 21 22  1  0
 21 25  2  0
 22 27  2  0
 23 21  1  0
 23 29  1  0
 24 25  1  0
 25 26  1  0
 26 28  2  0
 28 27  1  0
 29 24  2  0
 15 30  1  6
M  END
> <chembl_id>
CHEMBL3039502

> <chembl_pref_name>
DUVELISIB
