
     RDKit          2D

 13 13  0  0  0  0  0  0  0  0999 V2000
   -2.2833   -0.2292    0.0000 N   0  0  0  0  0  0  0  0  0  0  0  0
    0.0250   -1.5542    0.0000 N   0  0  0  0  0  0  0  0  0  0  0  0
    0.0250    1.1125    0.0000 C   0  0  0  0  0  0  0  0  0  0  0  0
   -1.5083    1.1125    0.0000 C   0  0  0  0  0  0  0  0  0  0  0  0
    0.8000   -0.2292    0.0000 C   0  0  0  0  0  0  0  0  0  0  0  0
   -1.5083   -1.5542    0.0000 C   0  0  0  0  0  0  0  0  0  0  0  0
    2.3042   -0.2042    0.0000 O   0  0  0  0  0  0  0  0  0  0  0  0
   -2.0958    1.9958    0.0000 O   0  0  0  0  0  0  0  0  0  0  0  0
   -2.2833   -2.9000    0.0000 O   0  0  0  0  0  0  0  0  0  0  0  0
   -0.1625    2.3958    0.0000 C   0  0  0  0  0  0  0  0  0  0  0  0
    1.7542    1.3833    0.0000 C   0  0  0  0  0  0  0  0  0  0  0  0
    0.6292    3.2583    0.0000 C   0  0  0  0  0  0  0  0  0  0  0  0
    2.5542    2.0375    0.0000 C   0  0  0  0  0  0  0  0  0  0  0  0
  2  6  1  0
  3  4  1  0
  4  1  1  0
  5  2  1  0
  6  1  1  0
  7  5  2  0
  8  4  2  0
  9  6  2  0
 10  3  1  0
 11  3  1  0
 12 10  1  0
 13 11  1  0
  3  5  1  0
M  END
> <chembl_id>
CHEMBL444

> <chembl_pref_name>
BARBITAL
