
     RDKit          2D

 23 23  0  0  0  0  0  0  0  0999 V2000
   -5.3920   -4.7732    0.0000 C   0  0  0  0  0  0  0  0  0  0  0  0
   -4.6775   -4.3607    0.0000 C   0  0  0  0  0  0  0  0  0  0  0  0
   -4.6775   -3.5357    0.0000 C   0  0  0  0  0  0  0  0  0  0  0  0
   -5.3920   -3.1232    0.0000 C   0  0  0  0  0  0  0  0  0  0  0  0
   -6.1064   -3.5357    0.0000 C   0  0  0  0  0  0  0  0  0  0  0  0
   -6.1064   -4.3607    0.0000 C   0  0  0  0  0  0  0  0  0  0  0  0
   -5.9753   -2.5398    0.0000 C   0  0  0  0  0  0  0  0  0  0  0  0
   -4.8086   -2.5398    0.0000 C   0  0  0  0  0  0  0  0  0  0  0  0
   -4.0117   -2.7534    0.0000 N   0  0  0  0  0  0  0  0  0  0  0  0
   -3.4283   -2.1700    0.0000 C   0  0  0  0  0  0  0  0  0  0  0  0
   -2.6315   -2.3835    0.0000 O   0  0  0  0  0  0  0  0  0  0  0  0
   -3.6419   -1.3731    0.0000 O   0  0  0  0  0  0  0  0  0  0  0  0
   -2.2190   -1.6691    0.0000 C   0  0  0  0  0  0  0  0  0  0  0  0
   -1.3940   -1.6691    0.0000 O   0  0  0  0  0  0  0  0  0  0  0  0
   -2.6315   -0.9546    0.0000 C   0  0  0  0  0  0  0  0  0  0  0  0
   -0.9815   -0.9546    0.0000 C   0  0  0  0  0  0  0  0  0  0  0  0
   -0.1565   -0.9546    0.0000 C   0  0  0  0  0  0  0  0  0  0  0  0
   -1.3940   -0.2401    0.0000 O   0  0  0  0  0  0  0  0  0  0  0  0
    0.2560   -0.2401    0.0000 C   0  0  0  0  0  0  0  0  0  0  0  0
    0.2560   -1.6691    0.0000 C   0  0  0  0  0  0  0  0  0  0  0  0
   -6.8003   -2.5398    0.0000 C   0  0  0  0  0  0  0  0  0  0  0  0
   -7.2128   -1.8254    0.0000 O   0  0  0  0  0  0  0  0  0  0  0  0
   -7.2128   -3.2543    0.0000 O   0  0  0  0  0  0  0  0  0  0  0  0
  1  2  1  0
  2  3  1  0
  3  4  1  0
  4  5  1  0
  5  6  1  0
  6  1  1  0
  4  7  1  0
  4  8  1  0
  8  9  1  0
  9 10  1  0
 10 11  1  0
 10 12  2  0
 11 13  1  0
 13 14  1  0
 13 15  1  0
 14 16  1  0
 16 17  1  0
 16 18  2  0
 17 19  1  0
 17 20  1  0
  7 21  1  0
 21 22  1  0
 21 23  2  0
M  END
> <chembl_id>
CHEMBL1628502

> <chembl_pref_name>
GABAPENTIN ENACARBIL
