
     RDKit          2D

 30 31  0  0  0  0  0  0  0  0999 V2000
    3.8625   -6.0792    0.0000 C   0  0  0  0  0  0  0  0  0  0  0  0
    5.0792   -6.0792    0.0000 C   0  0  0  0  0  0  0  0  0  0  0  0
    4.4667   -5.7167    0.0000 C   0  0  0  0  0  0  0  0  0  0  0  0
    3.8625   -6.7875    0.0000 C   0  0  0  0  0  0  0  0  0  0  0  0
    5.0792   -6.7875    0.0000 C   0  0  0  0  0  0  0  0  0  0  0  0
    3.2417   -5.7292    0.0000 C   0  0  0  0  0  0  0  0  0  0  0  0
    4.4667   -7.1375    0.0000 N   0  0  0  0  0  0  0  0  0  0  0  0
    5.7250   -3.6000    0.0000 N   0  0  0  0  0  0  0  0  0  0  0  0
    4.4667   -5.0042    0.0000 C   0  0  0  0  0  0  0  0  0  0  0  0
    5.6875   -5.7417    0.0000 C   0  0  0  0  0  0  0  0  0  0  0  0
    5.0917   -3.9667    0.0000 C   0  0  0  0  0  0  0  0  0  0  0  0
    5.0917   -4.6542    0.0000 C   0  0  0  0  0  0  0  0  0  0  0  0
    2.6292   -6.0917    0.0000 O   0  0  0  0  0  0  0  0  0  0  0  0
    6.3417   -4.0042    0.0000 O   0  0  0  0  0  0  0  0  0  0  0  0
    5.7250   -2.8917    0.0000 O   0  0  0  0  0  0  0  0  0  0  0  0
    3.2417   -5.0167    0.0000 O   0  0  0  0  0  0  0  0  0  0  0  0
    5.6875   -5.0542    0.0000 O   0  0  0  0  0  0  0  0  0  0  0  0
    6.3042   -6.1125    0.0000 O   0  0  0  0  0  0  0  0  0  0  0  0
    3.2250   -7.1167    0.0000 C   0  0  0  0  0  0  0  0  0  0  0  0
    5.7000   -7.1375    0.0000 C   0  0  0  0  0  0  0  0  0  0  0  0
    3.8542   -4.6542    0.0000 C   0  0  0  0  0  0  0  0  0  0  0  0
    2.0042   -5.7292    0.0000 C   0  0  0  0  0  0  0  0  0  0  0  0
    4.4667   -3.5917    0.0000 C   0  0  0  0  0  0  0  0  0  0  0  0
    3.8542   -3.9500    0.0000 C   0  0  0  0  0  0  0  0  0  0  0  0
    8.1375   -5.7500    0.0000 O   0  0  0  0  0  0  0  0  0  0  0  0
    6.9125   -5.7500    0.0000 C   0  0  0  0  0  0  0  0  0  0  0  0
    7.5292   -6.1125    0.0000 C   0  0  0  0  0  0  0  0  0  0  0  0
    8.7417   -6.0917    0.0000 C   0  0  0  0  0  0  0  0  0  0  0  0
    1.4000   -6.0792    0.0000 C   0  0  0  0  0  0  0  0  0  0  0  0
    2.0042   -5.0167    0.0000 C   0  0  0  0  0  0  0  0  0  0  0  0
  2  3  1  0
  3  1  1  0
  4  1  2  0
  5  7  1  0
  6  1  1  0
  7  4  1  0
  8 11  1  0
  9  3  1  0
 10  2  1  0
 11 12  1  0
 12  9  2  0
 13  6  1  0
 14  8  1  0
 15  8  2  0
 16  6  2  0
 17 10  2  0
 18 10  1  0
 19  4  1  0
 20  5  1  0
 21  9  1  0
 22 13  1  0
 23 24  1  0
 24 21  2  0
 25 27  1  0
 26 18  1  0
 27 26  1  0
 28 25  1  0
 29 22  1  0
 30 22  1  0
  5  2  2  0
 23 11  2  0
M  CHG  2   8   1  14  -1
M  END
> <chembl_id>
CHEMBL1428

> <chembl_pref_name>
NIMODIPINE
