
     RDKit          2D

 29 31  0  0  0  0  0  0  0  0999 V2000
   -0.8500    0.2625    0.0000 N   0  0  0  0  0  0  0  0  0  0  0  0
   -0.3958    0.8875    0.0000 C   0  0  0  0  0  0  0  0  0  0  0  0
   -0.8500    1.5458    0.0000 C   0  0  0  0  0  0  0  0  0  0  0  0
   -1.6000    0.5000    0.0000 C   0  0  0  0  0  0  0  0  0  0  0  0
   -1.6000    1.3000    0.0000 C   0  0  0  0  0  0  0  0  0  0  0  0
   -0.8500   -0.7917    0.0000 C   0  0  0  0  0  0  0  0  0  0  0  0
   -0.7875    2.3125    0.0000 C   0  0  0  0  0  0  0  0  0  0  0  0
   -2.2958    0.0958    0.0000 C   0  0  0  0  0  0  0  0  0  0  0  0
   -1.3333   -1.5167    0.0000 C   0  0  0  0  0  0  0  0  0  0  0  0
    0.1542    2.4833    0.0000 C   0  0  0  0  0  0  0  0  0  0  0  0
   -2.2958    1.6833    0.0000 C   0  0  0  0  0  0  0  0  0  0  0  0
    2.9167    1.5208    0.0000 C   0  0  0  0  0  0  0  0  0  0  0  0
    0.5000   -0.7917    0.0000 O   0  0  0  0  0  0  0  0  0  0  0  0
    0.8417    3.2750    0.0000 O   0  0  0  0  0  0  0  0  0  0  0  0
    4.2417    1.5208    0.0000 O   0  0  0  0  0  0  0  0  0  0  0  0
    1.1917    1.7958    0.0000 O   0  0  0  0  0  0  0  0  0  0  0  0
   -2.1208   -1.3500    0.0000 C   0  0  0  0  0  0  0  0  0  0  0  0
   -1.0958   -2.2542    0.0000 C   0  0  0  0  0  0  0  0  0  0  0  0
    0.5792    0.9000    0.0000 C   0  0  0  0  0  0  0  0  0  0  0  0
   -2.9708    1.3000    0.0000 C   0  0  0  0  0  0  0  0  0  0  0  0
    2.1917    2.3625    0.0000 C   0  0  0  0  0  0  0  0  0  0  0  0
   -2.9708    0.5000    0.0000 C   0  0  0  0  0  0  0  0  0  0  0  0
   -2.3833   -2.6500    0.0000 C   0  0  0  0  0  0  0  0  0  0  0  0
    2.9167    0.6625    0.0000 O   0  0  0  0  0  0  0  0  0  0  0  0
   -1.6208   -2.8292    0.0000 C   0  0  0  0  0  0  0  0  0  0  0  0
   -2.6208   -1.9167    0.0000 C   0  0  0  0  0  0  0  0  0  0  0  0
   -2.9208   -3.1917    0.0000 Cl  0  0  0  0  0  0  0  0  0  0  0  0
   -3.6458    1.7083    0.0000 O   0  0  0  0  0  0  0  0  0  0  0  0
   -4.3458    1.3208    0.0000 C   0  0  0  0  0  0  0  0  0  0  0  0
  2  1  1  0
  3  2  2  0
  4  1  1  0
  5  4  2  0
  6  1  1  0
  7  3  1  0
  8  4  1  0
  9  6  1  0
 10  7  1  0
 11  5  1  0
 12 21  1  0
 13  6  2  0
 14 10  2  0
 15 12  2  0
 16 10  1  0
 17  9  2  0
 18  9  1  0
 19  2  1  0
 20 22  1  0
 21 16  1  0
 22  8  2  0
 23 25  1  0
 24 12  1  0
 25 18  2  0
 26 17  1  0
 27 23  1  0
 28 20  1  0
 29 28  1  0
  5  3  1  0
 26 23  2  0
 11 20  2  0
M  END
> <chembl_id>
CHEMBL189171

> <chembl_pref_name>
ACEMETACIN
