
     RDKit          2D

 31 26  0  0  0  0  0  0  0  0999 V2000
    2.5375    0.1723    0.0000 Na  0  0  0  0  0 15  0  0  0  0  0  0
    6.6257   -1.6499    0.0000 C   0  0  0  0  0  0  0  0  0  0  0  0
    7.3358   -2.8769    0.0000 C   0  0  0  0  0  0  0  0  0  0  0  0
    2.3391   -1.6499    0.0000 C   0  0  0  0  0  0  0  0  0  0  0  0
    1.6237   -2.8717    0.0000 C   0  0  0  0  0  0  0  0  0  0  0  0
    5.1899   -0.8041    0.0000 C   0  0  0  0  0  0  0  0  0  0  0  0
    3.0544   -2.8874    0.0000 N   0  0  0  0  0  0  0  0  0  0  0  0
    5.9104   -2.8874    0.0000 N   0  0  0  0  0  0  0  0  0  0  0  0
    8.0511   -3.2893    0.0000 O   0  0  0  0  0  0  0  0  0  0  0  0
    5.9104   -1.2375    0.0000 O   0  0  0  0  0  0  0  0  0  0  0  0
    3.0544   -1.2375    0.0000 O   0  0  0  0  0  0  0  0  0  0  0  0
    4.4641   -0.3969    0.0000 O   0  0  0  0  0  0  0  0  0  0  0  0
    0.9032   -3.2789    0.0000 O   0  0  0  0  0  0  0  0  0  0  0  0
    1.6290   -1.2375    0.0000 O   0  0  0  0  0  0  0  0  0  0  0  0
    5.8947   -0.3812    0.0000 O   0  0  0  0  0  0  0  0  0  0  0  0
    7.3306   -2.0520    0.0000 O   0  0  0  0  0  0  0  0  0  0  0  0
    7.3410   -1.2375    0.0000 O   0  0  0  0  0  0  0  0  0  0  0  0
    1.6343   -2.0467    0.0000 O   0  0  0  0  0  0  0  0  0  0  0  0
    2.3338   -3.2946    0.0000 C   0  0  0  0  0  0  0  0  0  0  0  0
    6.6257   -3.2946    0.0000 C   0  0  0  0  0  0  0  0  0  0  0  0
    6.6257   -2.4748    0.0000 C   0  0  0  0  0  0  0  0  0  0  0  0
    2.3391   -2.4748    0.0000 C   0  0  0  0  0  0  0  0  0  0  0  0
    4.4851   -3.7123    0.0000 N   0  0  0  0  0  0  0  0  0  0  0  0
    5.2003   -3.2893    0.0000 C   0  0  0  0  0  0  0  0  0  0  0  0
    3.0544   -3.7123    0.0000 C   0  0  0  0  0  0  0  0  0  0  0  0
    5.9104   -3.7123    0.0000 C   0  0  0  0  0  0  0  0  0  0  0  0
    3.7645   -4.1248    0.0000 C   0  0  0  0  0  0  0  0  0  0  0  0
    5.2003   -4.1248    0.0000 C   0  0  0  0  0  0  0  0  0  0  0  0
    4.1561   -2.4748    0.0000 Zn  0  0  0  0  0 15  0  0  0  0  0  0
   -0.6056   -3.4146    0.0000 Na  0  0  0  0  0 15  0  0  0  0  0  0
    9.2938   -3.4146    0.0000 Na  0  0  0  0  0 15  0  0  0  0  0  0
  3 20  1  0
  4 22  1  0
  5 19  1  0
  6 24  1  0
  7 25  1  0
  8 21  1  0
  9  3  1  0
 10  2  1  0
 11  4  1  0
 12  6  1  0
 13  5  1  0
 14  4  2  0
 15  6  2  0
 16  3  2  0
 17  2  2  0
 18  5  2  0
 19  7  1  0
 20  8  1  0
 21  2  1  0
 22  7  1  0
 23 28  1  0
 24 23  1  0
 25 27  1  0
 26  8  1  0
 27 23  1  0
 28 26  1  0
M  CHG  8   1   1   9  -1  10  -1  11  -1  12  -1  13  -1  29   2  30   1
M  CHG  1  31   1
M  END
> <chembl_id>
CHEMBL1200424

> <chembl_pref_name>
PENTETATE ZINC TRISODIUM
