
     RDKit          2D

 46 48  0  0  0  0  0  0  0  0999 V2000
   10.8542   -1.3458    0.0000 Na  0  0  0  0  0 15  0  0  0  0  0  0
    1.8809    1.4468    0.0000 C   0  0  0  0  0  0  0  0  0  0  0  0
    1.8809    0.6218    0.0000 C   0  0  0  0  0  0  0  0  0  0  0  0
    2.5954    0.2093    0.0000 C   0  0  0  0  0  0  0  0  0  0  0  0
    3.3099    0.6218    0.0000 C   0  0  0  0  0  0  0  0  0  0  0  0
    3.3099    1.4468    0.0000 C   0  0  0  0  0  0  0  0  0  0  0  0
    2.5954    1.8593    0.0000 C   0  0  0  0  0  0  0  0  0  0  0  0
    4.0244    0.2093    0.0000 C   0  0  0  0  0  0  0  0  0  0  0  0
    2.5954   -0.6157    0.0000 F   0  0  0  0  0  0  0  0  0  0  0  0
    4.0244   -0.6157    0.0000 C   0  0  0  0  0  0  0  0  0  0  0  0
    4.7388   -1.0282    0.0000 N   0  0  0  0  0  0  0  0  0  0  0  0
    5.4533   -0.6157    0.0000 C   0  0  0  0  0  0  0  0  0  0  0  0
    5.4533    0.2093    0.0000 N   0  0  0  0  0  0  0  0  0  0  0  0
    4.7388    0.6218    0.0000 C   0  0  0  0  0  0  0  0  0  0  0  0
    4.7388    1.4468    0.0000 O   0  0  0  0  0  0  0  0  0  0  0  0
    3.3099   -1.0282    0.0000 C   0  0  0  0  0  0  0  0  0  0  0  0
    4.7388   -1.8532    0.0000 C   0  0  0  0  0  0  0  0  0  0  0  0
    6.1678   -1.0282    0.0000 O   0  0  0  0  0  0  0  0  0  0  0  0
    6.1678    0.6218    0.0000 C   0  0  0  0  0  0  0  0  0  0  0  0
    6.8822    0.2093    0.0000 C   0  0  0  0  0  0  0  0  0  0  0  0
    7.5967    0.6218    0.0000 N   0  0  0  0  0  0  0  0  0  0  0  0
    8.3112    0.2093    0.0000 C   0  0  0  0  0  0  0  0  0  0  0  0
    9.0256    0.6218    0.0000 C   0  0  0  0  0  0  0  0  0  0  0  0
    9.7401    0.2093    0.0000 C   0  0  0  0  0  0  0  0  0  0  0  0
    7.2947   -0.5052    0.0000 C   0  0  0  0  0  0  0  0  0  0  0  0
    6.8822   -1.2197    0.0000 C   0  0  0  0  0  0  0  0  0  0  0  0
    7.2947   -1.9341    0.0000 C   0  0  0  0  0  0  0  0  0  0  0  0
    8.1197   -1.9341    0.0000 C   0  0  0  0  0  0  0  0  0  0  0  0
    8.5322   -1.2197    0.0000 C   0  0  0  0  0  0  0  0  0  0  0  0
    8.1197   -0.5052    0.0000 C   0  0  0  0  0  0  0  0  0  0  0  0
    1.1664    0.2093    0.0000 O   0  0  0  0  0  0  0  0  0  0  0  0
    0.4520    0.6218    0.0000 C   0  0  0  0  0  0  0  0  0  0  0  0
   10.4546    0.6218    0.0000 C   0  0  0  0  0  0  0  0  0  0  0  0
   11.1690    0.2094    0.0000 O   0  0  0  0  0  0  0  0  0  0  0  0
   10.4545    1.4468    0.0000 O   0  0  0  0  0  0  0  0  0  0  0  0
    5.1458   -2.5625    0.0000 C   0  0  0  0  0  0  0  0  0  0  0  0
    4.7321   -3.2692    0.0000 C   0  0  0  0  0  0  0  0  0  0  0  0
    5.1385   -3.9781    0.0000 C   0  0  0  0  0  0  0  0  0  0  0  0
    5.9572   -3.9807    0.0000 C   0  0  0  0  0  0  0  0  0  0  0  0
    6.3678   -3.2685    0.0000 C   0  0  0  0  0  0  0  0  0  0  0  0
    5.9591   -2.5626    0.0000 C   0  0  0  0  0  0  0  0  0  0  0  0
    6.3712   -1.8479    0.0000 F   0  0  0  0  0  0  0  0  0  0  0  0
    3.9071   -3.2655    0.0000 C   0  0  0  0  0  0  0  0  0  0  0  0
    3.4979   -2.5491    0.0000 F   0  0  0  0  0  0  0  0  0  0  0  0
    3.4914   -3.9780    0.0000 F   0  0  0  0  0  0  0  0  0  0  0  0
    4.1243   -2.4695    0.0000 F   0  0  0  0  0  0  0  0  0  0  0  0
 10 16  1  0
 11 17  1  0
 12 18  2  0
 13 19  1  0
 20 19  1  6
 20 21  1  0
 21 22  1  0
 22 23  1  0
 23 24  1  0
 20 25  1  0
 25 26  1  0
 26 27  2  0
 27 28  1  0
 28 29  2  0
 29 30  1  0
 30 25  2  0
  3 31  1  0
 31 32  1  0
  2  3  2  0
 24 33  1  0
  3  4  1  0
 33 34  1  0
  4  5  2  0
 33 35  2  0
  5  6  1  0
 17 36  1  0
  6  7  2  0
 36 37  1  0
  7  2  1  0
 37 38  2  0
  5  8  1  0
 38 39  1  0
  4  9  1  0
 39 40  2  0
  8 10  2  0
 40 41  1  0
 41 36  2  0
 10 11  1  0
 41 42  1  0
 11 12  1  0
 37 43  1  0
 12 13  1  0
 43 44  1  0
 13 14  1  0
 43 45  1  0
 14  8  1  0
 43 46  1  0
 14 15  2  0
M  CHG  2   1   1  34  -1
M  END
> <chembl_id>
CHEMBL502182

> <chembl_pref_name>
ELAGOLIX SODIUM
