
     RDKit          2D

 22 24  0  0  0  0  0  0  0  0999 V2000
    1.2417   -0.4792    0.0000 N   0  0  0  0  0  0  0  0  0  0  0  0
    0.1542    0.1250    0.0000 N   0  0  0  0  0  0  0  0  0  0  0  0
    1.2417   -1.7125    0.0000 C   0  0  0  0  0  0  0  0  0  0  0  0
    2.1500    0.3458    0.0000 C   0  0  0  0  0  0  0  0  0  0  0  0
    0.4125    1.3208    0.0000 C   0  0  0  0  0  0  0  0  0  0  0  0
    0.1542   -2.3292    0.0000 N   0  0  0  0  0  0  0  0  0  0  0  0
   -0.8833   -0.4792    0.0000 C   0  0  0  0  0  0  0  0  0  0  0  0
    1.6000    1.4250    0.0000 C   0  0  0  0  0  0  0  0  0  0  0  0
   -0.8833   -1.7125    0.0000 C   0  0  0  0  0  0  0  0  0  0  0  0
    2.3292   -2.3292    0.0000 N   0  0  0  0  0  0  0  0  0  0  0  0
    3.3792    0.1250    0.0000 O   0  0  0  0  0  0  0  0  0  0  0  0
   -0.3833    2.2708    0.0000 O   0  0  0  0  0  0  0  0  0  0  0  0
   -1.9375    0.1250    0.0000 C   0  0  0  0  0  0  0  0  0  0  0  0
   -1.9375   -2.3292    0.0000 C   0  0  0  0  0  0  0  0  0  0  0  0
    2.2167    2.5208    0.0000 C   0  0  0  0  0  0  0  0  0  0  0  0
   -2.9833   -0.4792    0.0000 C   0  0  0  0  0  0  0  0  0  0  0  0
   -2.9833   -1.7125    0.0000 C   0  0  0  0  0  0  0  0  0  0  0  0
    2.3292   -3.5917    0.0000 C   0  0  0  0  0  0  0  0  0  0  0  0
    3.3792   -1.7125    0.0000 C   0  0  0  0  0  0  0  0  0  0  0  0
   -4.0625    0.1250    0.0000 C   0  0  0  0  0  0  0  0  0  0  0  0
    3.4500    2.5500    0.0000 C   0  0  0  0  0  0  0  0  0  0  0  0
    4.0542    3.5958    0.0000 C   0  0  0  0  0  0  0  0  0  0  0  0
  2  1  1  0
  3  1  1  0
  4  1  1  0
  5  2  1  0
  6  3  2  0
  7  2  1  0
  8  4  1  0
  9  6  1  0
 10  3  1  0
 11  4  2  0
 12  5  2  0
 13  7  1  0
 14  9  1  0
 15  8  1  0
 16 13  2  0
 17 14  2  0
 18 10  1  0
 19 10  1  0
 20 16  1  0
 21 15  1  0
 22 21  1  0
  5  8  1  0
  7  9  2  0
 16 17  1  0
M  END
> <chembl_id>
CHEMBL1565476

> <chembl_pref_name>
APAZONE
