
     RDKit          2D

 27 31  0  0  1  0  0  0  0  0999 V2000
    4.2167   -6.0292    0.0000 N   0  0  0  0  0  0  0  0  0  0  0  0
    4.8375   -5.6625    0.0000 C   0  0  0  0  0  0  0  0  0  0  0  0
    3.5917   -5.6750    0.0000 C   0  0  0  0  0  0  0  0  0  0  0  0
    5.4625   -6.0250    0.0000 O   0  0  0  0  0  0  0  0  0  0  0  0
    2.9750   -6.0292    0.0000 C   0  0  0  0  0  0  0  0  0  0  0  0
    6.0792   -5.6542    0.0000 C   0  0  0  0  0  0  0  0  0  0  0  0
    4.2167   -6.7417    0.0000 C   0  0  0  0  0  0  0  0  0  0  0  0
    7.3125   -5.6500    0.0000 N   0  0  0  0  0  0  0  0  0  0  0  0
    6.7042   -6.0167    0.0000 C   0  0  0  0  0  0  0  0  0  0  0  0
    4.8375   -4.9417    0.0000 O   0  0  0  0  0  0  0  0  0  0  0  0
    2.9750   -6.7417    0.0000 C   0  0  0  0  0  0  0  0  0  0  0  0
    6.0667   -4.9292    0.0000 C   0  0  0  0  0  0  0  0  0  0  0  0
    3.5917   -4.9542    0.0000 C   0  0  0  0  0  0  0  0  0  0  0  0
    3.5917   -7.1000    0.0000 C   0  0  0  0  0  0  0  0  0  0  0  0
    6.7792   -5.0000    0.0000 C   0  0  0  0  0  0  0  0  0  0  0  0
    6.6917   -4.5792    0.0000 C   0  0  0  0  0  0  0  0  0  0  0  0
    7.3167   -4.9292    0.0000 C   0  0  0  0  0  0  0  0  0  0  0  0
    6.6042   -5.5750    0.0000 C   0  0  0  0  0  0  0  0  0  0  0  0
    2.3542   -5.6750    0.0000 C   0  0  0  0  0  0  0  0  0  0  0  0
    2.3542   -7.1000    0.0000 C   0  0  0  0  0  0  0  0  0  0  0  0
    2.9750   -4.5917    0.0000 C   0  0  0  0  0  0  0  0  0  0  0  0
    4.2042   -4.5917    0.0000 C   0  0  0  0  0  0  0  0  0  0  0  0
    1.7417   -6.0292    0.0000 C   0  0  0  0  0  0  0  0  0  0  0  0
    1.7417   -6.7417    0.0000 C   0  0  0  0  0  0  0  0  0  0  0  0
    4.2042   -3.8792    0.0000 C   0  0  0  0  0  0  0  0  0  0  0  0
    2.9750   -3.8792    0.0000 C   0  0  0  0  0  0  0  0  0  0  0  0
    3.5917   -3.5250    0.0000 C   0  0  0  0  0  0  0  0  0  0  0  0
  2  1  1  0
  3  1  1  0
  4  2  1  0
  5  3  1  0
  6  4  1  6
  7  1  1  0
  8  9  1  0
  9  6  1  0
 10  2  2  0
 11 14  1  0
 12  6  1  0
  3 13  1  6
 14  7  1  0
 15 12  1  0
 16 12  1  0
 17 16  1  0
 18 15  1  0
 19  5  1  0
 20 11  1  0
 21 13  1  0
 22 13  2  0
 23 19  2  0
 24 20  2  0
 25 22  1  0
 26 21  2  0
 27 25  2  0
  5 11  2  0
 23 24  1  0
 27 26  1  0
 17  8  1  0
 18  8  1  0
M  END
> <chembl_id>
CHEMBL1734

> <chembl_pref_name>
SOLIFENACIN
