
     RDKit          2D

 17 18  0  0  0  0  0  0  0  0999 V2000
    5.1375   -5.4167    0.0000 S   0  0  0  0  0  0  0  0  0  0  0  0
    4.5417   -5.0500    0.0000 C   0  0  0  0  0  0  0  0  0  0  0  0
    5.7542   -5.0625    0.0000 C   0  0  0  0  0  0  0  0  0  0  0  0
    4.7417   -5.9917    0.0000 O   0  0  0  0  0  0  0  0  0  0  0  0
    5.6792   -5.8792    0.0000 O   0  0  0  0  0  0  0  0  0  0  0  0
    3.9167   -5.4042    0.0000 C   0  0  0  0  0  0  0  0  0  0  0  0
    4.5417   -4.3500    0.0000 C   0  0  0  0  0  0  0  0  0  0  0  0
    6.3750   -5.4250    0.0000 C   0  0  0  0  0  0  0  0  0  0  0  0
    5.7667   -4.3625    0.0000 C   0  0  0  0  0  0  0  0  0  0  0  0
    3.3167   -4.3417    0.0000 C   0  0  0  0  0  0  0  0  0  0  0  0
    6.9917   -4.3667    0.0000 C   0  0  0  0  0  0  0  0  0  0  0  0
    2.6917   -3.9792    0.0000 N   0  0  0  0  0  0  0  0  0  0  0  0
    7.6167   -4.0167    0.0000 N   0  0  0  0  0  0  0  0  0  0  0  0
    3.3000   -5.0542    0.0000 C   0  0  0  0  0  0  0  0  0  0  0  0
    3.9292   -3.9917    0.0000 C   0  0  0  0  0  0  0  0  0  0  0  0
    6.9917   -5.0792    0.0000 C   0  0  0  0  0  0  0  0  0  0  0  0
    6.3792   -4.0083    0.0000 C   0  0  0  0  0  0  0  0  0  0  0  0
  2  1  1  0
  3  1  1  0
  4  1  2  0
  5  1  2  0
  6  2  2  0
  7  2  1  0
  8  3  2  0
  9  3  1  0
 10 15  1  0
 11 17  1  0
 12 10  1  0
 13 11  1  0
 14  6  1  0
 15  7  2  0
 16  8  1  0
 17  9  2  0
 11 16  2  0
 10 14  2  0
M  END
> <chembl_id>
CHEMBL1043

> <chembl_pref_name>
DAPSONE
