
     RDKit          2D

 34 37  0  0  0  0  0  0  0  0999 V2000
    4.1371   -5.8940    0.0000 C   0  0  0  0  0  0  0  0  0  0  0  0
    4.1358   -6.7216    0.0000 C   0  0  0  0  0  0  0  0  0  0  0  0
    4.8488   -7.1344    0.0000 C   0  0  0  0  0  0  0  0  0  0  0  0
    4.8468   -5.4812    0.0000 C   0  0  0  0  0  0  0  0  0  0  0  0
    5.5649   -5.8900    0.0000 C   0  0  0  0  0  0  0  0  0  0  0  0
    5.5637   -6.7187    0.0000 C   0  0  0  0  0  0  0  0  0  0  0  0
    6.2745   -7.1318    0.0000 C   0  0  0  0  0  0  0  0  0  0  0  0
    6.2771   -5.4741    0.0000 C   0  0  0  0  0  0  0  0  0  0  0  0
    6.9931   -5.8922    0.0000 C   0  0  0  0  0  0  0  0  0  0  0  0
    6.9937   -6.7187    0.0000 C   0  0  0  0  0  0  0  0  0  0  0  0
    7.7016   -7.1329    0.0000 C   0  0  0  0  0  0  0  0  0  0  0  0
    7.7091   -5.4796    0.0000 C   0  0  0  0  0  0  0  0  0  0  0  0
    8.4218   -5.8988    0.0000 C   0  0  0  0  0  0  0  0  0  0  0  0
    8.4144   -6.7233    0.0000 C   0  0  0  0  0  0  0  0  0  0  0  0
    9.1234   -7.1395    0.0000 C   0  0  0  0  0  0  0  0  0  0  0  0
    9.8399   -6.7314    0.0000 C   0  0  0  0  0  0  0  0  0  0  0  0
    9.8472   -5.9068    0.0000 C   0  0  0  0  0  0  0  0  0  0  0  0
    9.1380   -5.4903    0.0000 C   0  0  0  0  0  0  0  0  0  0  0  0
    4.8505   -7.9594    0.0000 O   0  0  0  0  0  0  0  0  0  0  0  0
    6.2736   -7.9567    0.0000 O   0  0  0  0  0  0  0  0  0  0  0  0
    8.4148   -5.0736    0.0000 H   0  0  0  0  0  0  0  0  0  0  0  0
    8.4103   -7.5439    0.0000 O   0  0  0  0  0  0  0  0  0  0  0  0
    9.1441   -4.6653    0.0000 N   0  0  0  0  0  0  0  0  0  0  0  0
    9.8596   -4.2535    0.0000 C   0  0  0  0  0  0  0  0  0  0  0  0
    8.4300   -4.2475    0.0000 C   0  0  0  0  0  0  0  0  0  0  0  0
   10.5684   -5.5015    0.0000 O   0  0  0  0  0  0  0  0  0  0  0  0
   10.5527   -7.1513    0.0000 C   0  0  0  0  0  0  0  0  0  0  0  0
   10.5441   -7.9763    0.0000 O   0  0  0  0  0  0  0  0  0  0  0  0
   11.2695   -6.7463    0.0000 N   0  0  0  0  0  0  0  0  0  0  0  0
    5.5595   -5.0599    0.0000 O   0  0  0  0  0  0  0  0  0  0  0  0
    7.6983   -7.9578    0.0000 O   0  0  0  0  0  0  0  0  0  0  0  0
    9.1147   -7.9644    0.0000 O   0  0  0  0  0  0  0  0  0  0  0  0
    7.2048   -5.0874    0.0000 H   0  0  0  0  0  0  0  0  0  0  0  0
    6.4852   -4.6749    0.0000 C   0  0  0  0  0  0  0  0  0  0  0  0
 13 18  1  0
 14 15  1  0
 15 16  1  0
 16 17  2  0
 17 18  1  0
  9  8  1  0
  3 19  1  0
  9 10  1  0
  7 20  2  0
  5  4  1  0
 13 21  1  6
  4  1  2  0
 14 22  1  6
  5  6  2  0
 18 23  1  6
 23 24  1  0
  9 12  1  0
 23 25  1  0
 10 11  2  0
 17 26  1  0
 11 14  1  0
 16 27  1  0
 13 12  1  0
 27 28  2  0
 13 14  1  0
 27 29  1  0
  2  3  2  0
  8 30  1  1
  3  6  1  0
 11 31  1  0
  1  2  1  0
 15 32  2  0
  5  8  1  0
  9 33  1  6
  6  7  1  0
  8 34  1  0
  7 10  1  0
M  END
> <chembl_id>
CHEMBL1440

> <chembl_pref_name>
TETRACYCLINE
