
     RDKit          2D

 19 20  0  0  0  0  0  0  0  0999 V2000
    5.9815    9.0995    0.0000 C   0  0  0  0  0  0  0  0  0  0  0  0
    1.1313    9.0995    0.0000 C   0  0  0  0  0  0  0  0  0  0  0  0
    0.0000    1.3999    0.0000 O   0  0  0  0  0  0  0  0  0  0  0  0
    5.9815    0.7000    0.0000 C   0  0  0  0  0  0  0  0  0  0  0  0
    5.9815    2.0999    0.0000 C   0  0  0  0  0  0  0  0  0  0  0  0
    4.7655    0.0000    0.0000 C   0  0  0  0  0  0  0  0  0  0  0  0
    4.7655    8.3996    0.0000 C   0  0  0  0  0  0  0  0  0  0  0  0
    2.3403    8.3996    0.0000 C   0  0  0  0  0  0  0  0  0  0  0  0
    4.7655    4.1998    0.0000 C   0  0  0  0  0  0  0  0  0  0  0  0
    4.7655    6.9996    0.0000 C   0  0  0  0  0  0  0  0  0  0  0  0
    2.3403    6.9996    0.0000 C   0  0  0  0  0  0  0  0  0  0  0  0
    3.5565    4.8997    0.0000 C   0  0  0  0  0  0  0  0  0  0  0  0
    2.2202    2.5312    0.0000 C   0  0  0  0  0  0  0  0  0  0  0  0
    2.2202    0.2688    0.0000 N   0  0  0  0  0  0  0  0  0  0  0  0
    1.3999    1.3999    0.0000 C   0  0  0  0  0  0  0  0  0  0  0  0
    4.7655    2.7999    0.0000 C   0  0  0  0  0  0  0  0  0  0  0  0
    3.5565    0.7000    0.0000 C   0  0  0  0  0  0  0  0  0  0  0  0
    3.5565    2.0999    0.0000 C   0  0  0  0  0  0  0  0  0  0  0  0
    3.5565    6.2997    0.0000 N   0  0  0  0  0  0  0  0  0  0  0  0
  1  7  1  0
  2  8  1  0
  3 15  2  0
  4  5  1  0
  4  6  2  0
  5 16  2  0
  6 17  1  0
  7 10  1  0
  8 11  1  0
  9 12  1  0
  9 16  1  0
 10 19  1  0
 11 19  1  0
 12 19  1  0
 13 15  1  0
 13 18  1  0
 14 15  1  0
 14 17  1  0
 16 18  1  0
 17 18  2  0
M  END
> <chembl_id>
CHEMBL589

> <chembl_pref_name>
ROPINIROLE
