
     RDKit          2D

 29 32  0  0  1  0  0  0  0  0999 V2000
    4.0417   -5.1917    0.0000 C   0  0  0  0  0  0  0  0  0  0  0  0
    4.6500   -4.8375    0.0000 C   0  0  0  0  0  0  0  0  0  0  0  0
    5.8917   -4.1292    0.0000 C   0  0  0  0  0  0  0  0  0  0  0  0
    4.0417   -5.9000    0.0000 C   0  0  0  0  0  0  0  0  0  0  0  0
    5.2625   -5.1917    0.0000 C   0  0  0  0  0  0  0  0  0  0  0  0
    6.5667   -3.9167    0.0000 C   0  0  0  0  0  0  0  0  0  0  0  0
    5.8792   -4.8417    0.0000 C   0  0  0  0  0  0  0  0  0  0  0  0
    4.6625   -4.1167    0.0000 C   0  0  0  0  0  0  0  0  0  0  0  0
    3.4250   -4.8375    0.0000 C   0  0  0  0  0  0  0  0  0  0  0  0
    5.2750   -3.7625    0.0000 C   0  0  0  0  0  0  0  0  0  0  0  0
    5.2542   -5.9250    0.0000 C   0  0  0  0  0  0  0  0  0  0  0  0
    3.4250   -6.2542    0.0000 C   0  0  0  0  0  0  0  0  0  0  0  0
    4.6500   -6.2542    0.0000 C   0  0  0  0  0  0  0  0  0  0  0  0
    6.9625   -4.4875    0.0000 C   0  0  0  0  0  0  0  0  0  0  0  0
    6.5625   -5.0542    0.0000 C   0  0  0  0  0  0  0  0  0  0  0  0
    2.8167   -5.1917    0.0000 C   0  0  0  0  0  0  0  0  0  0  0  0
    6.5917   -3.2042    0.0000 C   0  0  0  0  0  0  0  0  0  0  0  0
    2.8167   -5.8917    0.0000 C   0  0  0  0  0  0  0  0  0  0  0  0
    4.6500   -5.5000    0.0000 F   0  0  0  0  0  0  0  0  0  0  0  0
    7.2042   -2.8792    0.0000 O   0  0  0  0  0  0  0  0  0  0  0  0
    2.1792   -6.2417    0.0000 O   0  0  0  0  0  0  0  0  0  0  0  0
    7.1667   -3.5125    0.0000 O   0  0  0  0  0  0  0  0  0  0  0  0
    4.0500   -4.4792    0.0000 C   0  0  0  0  0  0  0  0  0  0  0  0
    5.8917   -3.4250    0.0000 C   0  0  0  0  0  0  0  0  0  0  0  0
    4.0500   -3.7292    0.0000 O   0  0  0  0  0  0  0  0  0  0  0  0
    4.6667   -6.9667    0.0000 C   0  0  0  0  0  0  0  0  0  0  0  0
    5.9875   -2.8292    0.0000 C   0  0  0  0  0  0  0  0  0  0  0  0
    5.2750   -4.4875    0.0000 H   0  0  0  0  0  0  0  0  0  0  0  0
    5.9000   -5.5542    0.0000 H   0  0  0  0  0  0  0  0  0  0  0  0
  2  1  1  0
  3 10  1  0
  4  1  1  0
  5  2  1  0
  6  3  1  0
  7  5  1  0
  8  2  1  0
  9  1  1  0
 10  8  1  0
 11 13  1  0
 12  4  2  0
 13  4  1  0
 14 15  1  0
 15  7  1  0
 16  9  2  0
  6 17  1  1
 18 16  1  0
  2 19  1  6
 20 17  2  0
 21 18  2  0
  6 22  1  6
  1 23  1  1
  3 24  1  1
  8 25  1  1
 13 26  1  6
 27 17  1  0
  5 28  1  1
  7 29  1  6
 18 12  1  0
 11  5  1  0
  3  7  1  0
 14  6  1  0
M  END
> <chembl_id>
CHEMBL1200600

> <chembl_pref_name>
FLUOROMETHOLONE
