
     RDKit          2D

 25 28  0  0  1  0  0  0  0  0999 V2000
   -0.6833   -0.2042    0.0000 C   0  0  0  0  0  0  0  0  0  0  0  0
   -1.7625   -0.8292    0.0000 C   0  0  0  0  0  0  0  0  0  0  0  0
    1.4750    1.0500    0.0000 C   0  0  0  0  0  0  0  0  0  0  0  0
   -1.7625   -2.0750    0.0000 C   0  0  0  0  0  0  0  0  0  0  0  0
    0.4000   -0.8292    0.0000 C   0  0  0  0  0  0  0  0  0  0  0  0
    1.4750   -0.2167    0.0000 C   0  0  0  0  0  0  0  0  0  0  0  0
   -0.6833    1.0500    0.0000 C   0  0  0  0  0  0  0  0  0  0  0  0
    0.4000    1.6708    0.0000 C   0  0  0  0  0  0  0  0  0  0  0  0
    2.6250    1.4000    0.0000 C   0  0  0  0  0  0  0  0  0  0  0  0
   -2.8333   -2.6917    0.0000 C   0  0  0  0  0  0  0  0  0  0  0  0
    2.6250    2.3458    0.0000 C   0  0  0  0  0  0  0  0  0  0  0  0
   -2.8333   -0.2042    0.0000 C   0  0  0  0  0  0  0  0  0  0  0  0
    0.4000   -2.0750    0.0000 C   0  0  0  0  0  0  0  0  0  0  0  0
    2.6417   -0.5792    0.0000 C   0  0  0  0  0  0  0  0  0  0  0  0
    2.6250    3.3833    0.0000 C   0  0  0  0  0  0  0  0  0  0  0  0
   -0.6833   -2.6917    0.0000 C   0  0  0  0  0  0  0  0  0  0  0  0
   -3.9083   -2.0750    0.0000 C   0  0  0  0  0  0  0  0  0  0  0  0
    3.3667    0.4708    0.0000 C   0  0  0  0  0  0  0  0  0  0  0  0
   -4.7958   -2.6917    0.0000 O   0  0  0  0  0  0  0  0  0  0  0  0
   -3.9083   -0.8292    0.0000 C   0  0  0  0  0  0  0  0  0  0  0  0
    3.6542    1.9625    0.0000 O   0  0  0  0  0  0  0  0  0  0  0  0
    1.4625    2.1333    0.0000 C   0  0  0  0  0  0  0  0  0  0  0  0
    0.6292    2.5833    0.0000 C   0  0  0  0  0  0  0  0  0  0  0  0
    1.4625   -1.2042    0.0000 H   0  0  0  0  0  0  0  0  0  0  0  0
    0.4042    0.3375    0.0000 H   0  0  0  0  0  0  0  0  0  0  0  0
  2  1  2  0
  3  8  1  0
  4  2  1  0
  5  1  1  0
  6  5  1  0
  7  1  1  0
  8  7  2  0
  9  3  1  0
 10  4  2  0
  9 11  1  6
 12  2  1  0
 13  5  1  0
 14  6  1  0
 15 11  3  0
 16 13  1  0
 17 20  1  0
 18 14  1  0
 19 17  2  0
 20 12  1  0
 21  9  1  0
  3 22  1  1
 23 22  1  0
  6 24  1  6
  5 25  1  1
  3  6  1  0
  4 16  1  0
  9 18  1  0
 10 17  1  0
M  END
> <chembl_id>
CHEMBL1868702

> <chembl_pref_name>
GESTRINONE
