
     RDKit          2D

 28 27  0  0  0  0  0  0  0  0999 V2000
   -0.9675   -9.0054    0.0000 S   0  0  0  0  0  0  0  0  0  0  0  0
   -0.9675   -8.1601    0.0000 C   0  0  0  0  0  0  0  0  0  0  0  0
   -1.6574   -7.7374    0.0000 C   0  0  0  0  0  0  0  0  0  0  0  0
   -0.2437   -7.7811    0.0000 C   0  0  0  0  0  0  0  0  0  0  0  0
   -2.4008   -8.1455    0.0000 C   0  0  0  0  0  0  0  0  0  0  0  0
   -0.1367   -9.0054    0.0000 O   0  0  0  0  0  0  0  0  0  0  0  0
   -1.8129   -9.0054    0.0000 O   0  0  0  0  0  0  0  0  0  0  0  0
    0.4608   -8.2135    0.0000 O   0  0  0  0  0  0  0  0  0  0  0  0
   -0.9821   -9.8362    0.0000 O   0  0  0  0  0  0  0  0  0  0  0  0
   -0.2145   -6.9309    0.0000 O   0  0  0  0  0  0  0  0  0  0  0  0
   -2.4250   -8.9714    0.0000 O   0  0  0  0  0  0  0  0  0  0  0  0
   -3.1149   -7.7082    0.0000 O   0  0  0  0  0  0  0  0  0  0  0  0
    0.4559   -9.0734    0.0000 C   0  0  0  0  0  0  0  0  0  0  0  0
   -3.8583   -8.0823    0.0000 C   0  0  0  0  0  0  0  0  0  0  0  0
    1.1458   -9.5010    0.0000 C   0  0  0  0  0  0  0  0  0  0  0  0
   -4.5433   -7.6596    0.0000 C   0  0  0  0  0  0  0  0  0  0  0  0
   -4.4996   -6.8337    0.0000 C   0  0  0  0  0  0  0  0  0  0  0  0
    1.1167  -10.3026    0.0000 C   0  0  0  0  0  0  0  0  0  0  0  0
    1.8892   -9.1220    0.0000 C   0  0  0  0  0  0  0  0  0  0  0  0
   -5.2817   -8.0289    0.0000 C   0  0  0  0  0  0  0  0  0  0  0  0
   -6.7246   -7.9560    0.0000 C   0  0  0  0  0  0  0  0  0  0  0  0
    2.6471   -7.9074    0.0000 C   0  0  0  0  0  0  0  0  0  0  0  0
    1.9280   -8.2912    0.0000 C   0  0  0  0  0  0  0  0  0  0  0  0
   -5.9813   -7.5867    0.0000 C   0  0  0  0  0  0  0  0  0  0  0  0
    1.8017  -10.7349    0.0000 C   0  0  0  0  0  0  0  0  0  0  0  0
   -3.7854   -6.4548    0.0000 C   0  0  0  0  0  0  0  0  0  0  0  0
   -7.4242   -7.5188    0.0000 C   0  0  0  0  0  0  0  0  0  0  0  0
    2.6762   -7.0961    0.0000 C   0  0  0  0  0  0  0  0  0  0  0  0
  2  1  1  0
  3  2  1  0
  4  2  1  0
  5  3  1  0
  6  1  2  0
  7  1  2  0
  8  4  1  0
  9  1  1  0
 10  4  2  0
 11  5  2  0
 12  5  1  0
 13  8  1  0
 14 12  1  0
 15 13  1  0
 16 14  1  0
 17 16  1  0
 18 15  1  0
 19 15  1  0
 20 16  1  0
 21 24  1  0
 22 23  1  0
 23 19  1  0
 24 20  1  0
 25 18  1  0
 26 17  1  0
 27 21  1  0
 28 22  1  0
M  END
> <chembl_id>
CHEMBL1477036

> <chembl_pref_name>
DOCUSATE
