
     RDKit          2D

 12 13  0  0  1  0  0  0  0  0999 V2000
    4.6792   -5.1792    0.0000 C   0  0  0  0  0  0  0  0  0  0  0  0
    4.6792   -4.4875    0.0000 C   0  0  0  0  0  0  0  0  0  0  0  0
    4.0167   -5.4292    0.0000 O   0  0  0  0  0  0  0  0  0  0  0  0
    5.3417   -4.2292    0.0000 O   0  0  0  0  0  0  0  0  0  0  0  0
    3.9792   -4.2542    0.0000 C   0  0  0  0  0  0  0  0  0  0  0  0
    5.3875   -5.4000    0.0000 C   0  0  0  0  0  0  0  0  0  0  0  0
    5.7917   -4.8167    0.0000 C   0  0  0  0  0  0  0  0  0  0  0  0
    3.5667   -4.8417    0.0000 C   0  0  0  0  0  0  0  0  0  0  0  0
    5.6417   -6.0667    0.0000 O   0  0  0  0  0  0  0  0  0  0  0  0
    3.7417   -3.5792    0.0000 O   0  0  0  0  0  0  0  0  0  0  0  0
    4.6792   -5.8250    0.0000 H   0  0  0  0  0  0  0  0  0  0  0  0
    4.6792   -3.8375    0.0000 H   0  0  0  0  0  0  0  0  0  0  0  0
  2  1  1  0
  3  1  1  0
  4  2  1  0
  5  2  1  0
  6  1  1  0
  7  6  1  0
  8  3  1  0
  6  9  1  1
  5 10  1  6
  1 11  1  6
  2 12  1  6
  7  4  1  0
  8  5  1  0
M  END
> <chembl_id>
CHEMBL1200660

> <chembl_pref_name>
ISOSORBIDE
