
     RDKit          2D

 74 75  0  0  0  0  0  0  0  0999 V2000
    4.0426    0.5167    0.0000 O   0  0  0  0  0  0  0  0  0  0  0  0
    4.6971    0.0145    0.0000 C   0  0  0  0  0  0  0  0  0  0  0  0
    4.5894   -0.8035    0.0000 C   0  0  0  0  0  0  0  0  0  0  0  0
    5.4593    0.3302    0.0000 O   0  0  0  0  0  0  0  0  0  0  0  0
   -3.9167   -2.0452    0.0000 N   0  0  0  0  0  0  0  0  0  0  0  0
    0.7440    1.3649    0.0000 N   0  0  0  0  0  0  0  0  0  0  0  0
    0.0782    0.8777    0.0000 C   0  0  0  0  0  0  0  0  0  0  0  0
   -3.2509   -1.5581    0.0000 C   0  0  0  0  0  0  0  0  0  0  0  0
   -2.4071   -2.7113    0.0000 N   0  0  0  0  0  0  0  0  0  0  0  0
   -3.3398   -0.7379    0.0000 C   0  0  0  0  0  0  0  0  0  0  0  0
   -3.8277   -2.8654    0.0000 C   0  0  0  0  0  0  0  0  0  0  0  0
    0.1672    0.0575    0.0000 C   0  0  0  0  0  0  0  0  0  0  0  0
   -0.4986   -0.4296    0.0000 N   0  0  0  0  0  0  0  0  0  0  0  0
   -2.6740   -0.2507    0.0000 N   0  0  0  0  0  0  0  0  0  0  0  0
   -1.6523   -3.0443    0.0000 C   0  0  0  0  0  0  0  0  0  0  0  0
   -1.2534   -0.0966    0.0000 C   0  0  0  0  0  0  0  0  0  0  0  0
    0.0722    2.6725    0.0000 C   0  0  0  0  0  0  0  0  0  0  0  0
   -3.0729   -3.1984    0.0000 C   0  0  0  0  0  0  0  0  0  0  0  0
   -1.9192   -0.5838    0.0000 C   0  0  0  0  0  0  0  0  0  0  0  0
    0.7413    2.1898    0.0000 C   0  0  0  0  0  0  0  0  0  0  0  0
   -0.2317   -2.8902    0.0000 N   0  0  0  0  0  0  0  0  0  0  0  0
   -0.9865   -2.5572    0.0000 C   0  0  0  0  0  0  0  0  0  0  0  0
    0.1557    3.4933    0.0000 N   0  0  0  0  0  0  0  0  0  0  0  0
   -2.0082    0.2364    0.0000 C   0  0  0  0  0  0  0  0  0  0  0  0
    0.4341   -2.4030    0.0000 C   0  0  0  0  0  0  0  0  0  0  0  0
    0.9917    4.6521    0.0000 C   0  0  0  0  0  0  0  0  0  0  0  0
   -2.7630    0.5695    0.0000 C   0  0  0  0  0  0  0  0  0  0  0  0
    0.3227    5.1348    0.0000 N   0  0  0  0  0  0  0  0  0  0  0  0
    1.0110   -1.0957    0.0000 S   0  0  0  0  0  0  0  0  0  0  0  0
    0.9083    3.8314    0.0000 C   0  0  0  0  0  0  0  0  0  0  0  0
    1.7658   -1.4287    0.0000 S   0  0  0  0  0  0  0  0  0  0  0  0
   -0.2629    6.4383    0.0000 C   0  0  0  0  0  0  0  0  0  0  0  0
   -0.6766    1.2107    0.0000 O   0  0  0  0  0  0  0  0  0  0  0  0
   -4.0946   -0.4048    0.0000 O   0  0  0  0  0  0  0  0  0  0  0  0
   -4.4935   -3.3525    0.0000 O   0  0  0  0  0  0  0  0  0  0  0  0
   -0.6803    2.3345    0.0000 O   0  0  0  0  0  0  0  0  0  0  0  0
   -1.5633   -3.8645    0.0000 O   0  0  0  0  0  0  0  0  0  0  0  0
   -1.3424    0.7236    0.0000 O   0  0  0  0  0  0  0  0  0  0  0  0
    0.9220   -0.2755    0.0000 C   0  0  0  0  0  0  0  0  0  0  0  0
   -0.8975   -3.3774    0.0000 C   0  0  0  0  0  0  0  0  0  0  0  0
    1.1889   -2.7361    0.0000 C   0  0  0  0  0  0  0  0  0  0  0  0
    1.7443    4.9902    0.0000 O   0  0  0  0  0  0  0  0  0  0  0  0
   -4.0056   -1.2250    0.0000 C   0  0  0  0  0  0  0  0  0  0  0  0
    0.3452   -1.5829    0.0000 O   0  0  0  0  0  0  0  0  0  0  0  0
   -2.8520    1.3897    0.0000 O   0  0  0  0  0  0  0  0  0  0  0  0
   -0.1794    7.2590    0.0000 O   0  0  0  0  0  0  0  0  0  0  0  0
    0.4062    5.9556    0.0000 C   0  0  0  0  0  0  0  0  0  0  0  0
   -2.9839   -4.0186    0.0000 C   0  0  0  0  0  0  0  0  0  0  0  0
    1.5295    1.1125    0.0000 C   0  0  0  0  0  0  0  0  0  0  0  0
   -3.4288    0.0823    0.0000 N   0  0  0  0  0  0  0  0  0  0  0  0
   -0.1427   -3.7104    0.0000 C   0  0  0  0  0  0  0  0  0  0  0  0
   -1.0154    6.1002    0.0000 N   0  0  0  0  0  0  0  0  0  0  0  0
    1.3669   -4.3765    0.0000 C   0  0  0  0  0  0  0  0  0  0  0  0
    1.8547   -2.2489    0.0000 C   0  0  0  0  0  0  0  0  0  0  0  0
    0.5231   -3.2232    0.0000 C   0  0  0  0  0  0  0  0  0  0  0  0
   -0.0537   -4.5306    0.0000 C   0  0  0  0  0  0  0  0  0  0  0  0
    3.7515    3.5422    0.0000 N   0  0  0  0  0  0  0  0  0  0  0  0
    1.2779   -3.5563    0.0000 C   0  0  0  0  0  0  0  0  0  0  0  0
    0.7011   -4.8636    0.0000 C   0  0  0  0  0  0  0  0  0  0  0  0
   -4.5597   -0.6138    0.0000 O   0  0  0  0  0  0  0  0  0  0  0  0
    1.5250    2.4474    0.0000 C   0  0  0  0  0  0  0  0  0  0  0  0
    2.1217   -4.7095    0.0000 O   0  0  0  0  0  0  0  0  0  0  0  0
    2.0122    1.7816    0.0000 C   0  0  0  0  0  0  0  0  0  0  0  0
    1.5773    3.3487    0.0000 C   0  0  0  0  0  0  0  0  0  0  0  0
    2.9989    3.2041    0.0000 C   0  0  0  0  0  0  0  0  0  0  0  0
   -3.6497   -4.5058    0.0000 C   0  0  0  0  0  0  0  0  0  0  0  0
   -4.6715   -1.7122    0.0000 C   0  0  0  0  0  0  0  0  0  0  0  0
   -2.2291   -4.3517    0.0000 C   0  0  0  0  0  0  0  0  0  0  0  0
    2.7875   -4.2223    0.0000 C   0  0  0  0  0  0  0  0  0  0  0  0
    2.3299    3.6868    0.0000 C   0  0  0  0  0  0  0  0  0  0  0  0
   -3.5608   -5.3260    0.0000 C   0  0  0  0  0  0  0  0  0  0  0  0
    3.5423   -4.5554    0.0000 C   0  0  0  0  0  0  0  0  0  0  0  0
   -2.3181   -3.5315    0.0000 H   0  0  0  0  0  0  0  0  0  0  0  0
   -2.7303   -1.0375    0.0000 H   0  0  0  0  0  0  0  0  0  0  0  0
  1  2  2  0
  2  3  1  0
  2  4  1  0
  6  7  1  0
 12  7  1  6
  8  5  1  0
 18  9  1  0
 10  8  1  0
 11  5  1  0
 12 13  1  0
 13 16  1  0
 14 10  1  0
 15  9  1  0
 16 19  1  0
 20 17  1  6
 18 11  1  0
 19 14  1  0
 20  6  1  0
 22 21  1  0
 22 15  1  0
 23 17  1  0
 19 24  1  6
 25 21  1  0
 26 30  1  0
 27 24  1  0
 28 26  1  0
 29 39  1  0
 30 23  1  6
 31 54  1  0
 32 47  1  0
 33  7  2  0
 34 10  2  0
 35 11  2  0
 36 17  2  0
 37 15  2  0
 38 16  2  0
 39 12  1  0
 22 40  1  1
 41 25  1  0
 42 26  2  0
 43  8  1  0
 44 25  2  0
 45 27  2  0
 46 32  2  0
 47 28  1  0
 48 18  1  0
 49  6  1  0
 50 27  1  0
 51 40  1  0
 52 32  1  0
 53 59  1  0
 54 41  1  0
 55 51  2  0
 56 51  1  0
 57 65  1  0
 58 55  1  0
 59 56  2  0
 43 60  1  1
 61 20  1  0
 62 53  1  0
 63 49  1  0
 64 30  1  0
 65 70  1  0
 66 48  1  0
 67 43  1  0
 48 68  1  1
 69 62  1  0
 70 64  1  0
 71 66  1  0
 72 69  1  0
 58 53  2  0
 29 31  1  0
 61 63  1  0
 18 73  1  6
  8 74  1  6
M  END
> <chembl_id>
CHEMBL5315050

> <chembl_pref_name>
ATOSIBAN ACETATE
