
     RDKit          2D

 20 21  0  0  0  0  0  0  0  0999 V2000
    0.0000    2.9708    0.0000 Cl  0  0  0  0  0  0  0  0  0  0  0  0
   -0.4208   -0.6125    0.0000 N   0  0  0  0  0  0  0  0  0  0  0  0
    0.4125   -1.6375    0.0000 C   0  0  0  0  0  0  0  0  0  0  0  0
    0.0375    0.6208    0.0000 C   0  0  0  0  0  0  0  0  0  0  0  0
    1.3500    0.8333    0.0000 N   0  0  0  0  0  0  0  0  0  0  0  0
    1.7167   -1.4167    0.0000 C   0  0  0  0  0  0  0  0  0  0  0  0
    2.1875   -0.1792    0.0000 C   0  0  0  0  0  0  0  0  0  0  0  0
   -1.7250   -0.8167    0.0000 C   0  0  0  0  0  0  0  0  0  0  0  0
   -0.0458   -2.8792    0.0000 O   0  0  0  0  0  0  0  0  0  0  0  0
   -2.1958   -2.0667    0.0000 C   0  0  0  0  0  0  0  0  0  0  0  0
   -0.7958    1.6458    0.0000 C   0  0  0  0  0  0  0  0  0  0  0  0
    2.5667   -2.4417    0.0000 C   0  0  0  0  0  0  0  0  0  0  0  0
   -2.5708    0.1875    0.0000 C   0  0  0  0  0  0  0  0  0  0  0  0
    3.5042    0.0208    0.0000 C   0  0  0  0  0  0  0  0  0  0  0  0
   -1.3583   -3.0917    0.0000 C   0  0  0  0  0  0  0  0  0  0  0  0
   -3.5083   -2.2792    0.0000 C   0  0  0  0  0  0  0  0  0  0  0  0
    3.8792   -2.2292    0.0000 C   0  0  0  0  0  0  0  0  0  0  0  0
   -3.8833   -0.0125    0.0000 C   0  0  0  0  0  0  0  0  0  0  0  0
    4.3417   -0.9917    0.0000 C   0  0  0  0  0  0  0  0  0  0  0  0
   -4.3458   -1.2542    0.0000 C   0  0  0  0  0  0  0  0  0  0  0  0
  3  2  1  0
  4  2  1  0
  5  4  2  0
  6  3  1  0
  7  5  1  0
  8  2  1  0
  9  3  2  0
 10  8  1  0
 11  4  1  0
 12  6  1  0
 13  8  2  0
 14  7  1  0
 15 10  1  0
 16 10  2  0
 17 12  2  0
 18 13  1  0
 19 14  2  0
 20 18  2  0
  6  7  2  0
 16 20  1  0
 17 19  1  0
M  END
> <chembl_id>
CHEMBL2106829

> <chembl_pref_name>
METHAQUALONE HYDROCHLORIDE
