
     RDKit          2D

 28 31  0  0  0  0  0  0  0  0999 V2000
    7.0216   -1.7726    0.0000 N   0  0  0  0  0  0  0  0  0  0  0  0
    7.8063   -1.5177    0.0000 C   0  0  0  0  0  0  0  0  0  0  0  0
    7.0216   -0.4378    0.0000 N   0  0  0  0  0  0  0  0  0  0  0  0
    7.8063   -0.6927    0.0000 C   0  0  0  0  0  0  0  0  0  0  0  0
    8.5207   -0.2802    0.0000 C   0  0  0  0  0  0  0  0  0  0  0  0
    9.2352   -0.6927    0.0000 C   0  0  0  0  0  0  0  0  0  0  0  0
    9.2352   -1.5177    0.0000 C   0  0  0  0  0  0  0  0  0  0  0  0
    8.5207   -1.9302    0.0000 C   0  0  0  0  0  0  0  0  0  0  0  0
    5.7117   -1.1052    0.0000 C   0  0  0  0  0  0  0  0  0  0  0  0
    5.2992   -1.8197    0.0000 C   0  0  0  0  0  0  0  0  0  0  0  0
    4.4742   -1.8197    0.0000 C   0  0  0  0  0  0  0  0  0  0  0  0
    4.0617   -2.5341    0.0000 N   0  0  0  0  0  0  0  0  0  0  0  0
    4.0617   -1.1052    0.0000 C   0  0  0  0  0  0  0  0  0  0  0  0
    4.4742   -0.3907    0.0000 C   0  0  0  0  0  0  0  0  0  0  0  0
    5.2992   -0.3907    0.0000 N   0  0  0  0  0  0  0  0  0  0  0  0
    6.5367   -1.1052    0.0000 C   0  0  0  0  0  0  0  0  0  0  0  0
    5.7117   -5.3920    0.0000 C   0  0  0  0  0  0  0  0  0  0  0  0
    5.2992   -6.1065    0.0000 C   0  0  0  0  0  0  0  0  0  0  0  0
    6.1242   -7.5354    0.0000 N   0  0  0  0  0  0  0  0  0  0  0  0
    5.7117   -6.8210    0.0000 C   0  0  0  0  0  0  0  0  0  0  0  0
    4.4742   -6.1065    0.0000 C   0  0  0  0  0  0  0  0  0  0  0  0
    4.0617   -5.3920    0.0000 C   0  0  0  0  0  0  0  0  0  0  0  0
    4.4742   -4.6775    0.0000 C   0  0  0  0  0  0  0  0  0  0  0  0
    4.0617   -3.9631    0.0000 N   0  0  0  0  0  0  0  0  0  0  0  0
    5.2992   -4.6775    0.0000 C   0  0  0  0  0  0  0  0  0  0  0  0
    4.4742   -3.2486    0.0000 C   0  0  0  0  0  0  0  0  0  0  0  0
    5.2992   -3.2486    0.0000 O   0  0  0  0  0  0  0  0  0  0  0  0
    5.7117    0.3237    0.0000 C   0  0  0  0  0  0  0  0  0  0  0  0
  1  2  1  0
  1 16  1  0
  2  4  2  0
  3  4  1  0
  4  5  1  0
  5  6  2  0
  7  6  1  0
  8  7  2  0
  8  2  1  0
  9 10  1  0
  9 15  1  0
  9 16  1  1
 11 13  1  0
 11 10  1  0
 12 26  1  0
 13 14  1  0
 14 15  1  0
 15 28  1  0
 16  3  2  0
 17 18  2  0
 17 25  1  0
 18 20  1  0
 18 21  1  0
 20 19  3  0
 21 22  2  0
 23 22  1  0
 23 24  1  0
 24 26  1  0
 25 23  2  0
 26 27  2  0
 11 12  1  6
M  END
> <chembl_id>
CHEMBL2043437

> <chembl_pref_name>
GLASDEGIB
