
     RDKit          2D

 20 19  0  0  0  0  0  0  0  0999 V2000
    2.7000   -2.6000    0.0000 C   0  0  0  0  0  0  0  0  0  0  0  0
    2.4542   -3.3292    0.0000 O   0  0  0  0  0  0  0  0  0  0  0  0
   -3.7708   -1.4917    0.0000 C   0  0  0  0  0  0  0  0  0  0  0  0
   -3.2750    0.1625    0.0000 C   0  0  0  0  0  0  0  0  0  0  0  0
   -2.0208   -3.5375    0.0000 C   0  0  0  0  0  0  0  0  0  0  0  0
   -3.4250   -2.5042    0.0000 C   0  0  0  0  0  0  0  0  0  0  0  0
   -0.9458   -3.5417    0.0000 C   0  0  0  0  0  0  0  0  0  0  0  0
   -2.4333    0.8125    0.0000 C   0  0  0  0  0  0  0  0  0  0  0  0
    3.6542   -2.6000    0.0000 O   0  0  0  0  0  0  0  0  0  0  0  0
   -2.9333   -0.8375    0.0000 C   0  0  0  0  0  0  0  0  0  0  0  0
   -2.3625   -2.5292    0.0000 C   0  0  0  0  0  0  0  0  0  0  0  0
    1.9042   -1.5667    0.0000 C   0  0  0  0  0  0  0  0  0  0  0  0
   -0.5750   -2.5500    0.0000 C   0  0  0  0  0  0  0  0  0  0  0  0
   -1.5333    0.2458    0.0000 C   0  0  0  0  0  0  0  0  0  0  0  0
    0.8542   -1.5542    0.0000 C   0  0  0  0  0  0  0  0  0  0  0  0
    0.4875   -2.5542    0.0000 C   0  0  0  0  0  0  0  0  0  0  0  0
   -0.6833    0.9083    0.0000 C   0  0  0  0  0  0  0  0  0  0  0  0
   -0.2000    2.5833    0.0000 C   0  0  0  0  0  0  0  0  0  0  0  0
   -1.0333    1.9208    0.0000 C   0  0  0  0  0  0  0  0  0  0  0  0
   -0.5333    3.5958    0.0000 C   0  0  0  0  0  0  0  0  0  0  0  0
  2  1  2  0
  3  6  2  0
  4 10  1  0
  5  7  2  0
  6 11  1  0
  7 13  1  0
  8  4  2  0
  9  1  1  0
 10  3  1  0
 11  5  1  0
 12  1  1  0
 13 16  1  0
 14  8  1  0
 15 12  1  0
 16 15  1  0
 17 14  1  0
 18 19  1  0
 19 17  1  0
 20 18  1  0
M  END
> <chembl_id>
CHEMBL464982

> <chembl_pref_name>
GAMOLENIC ACID
