
     RDKit          2D

 32 34  0  0  1  0  0  0  0  0999 V2000
    0.0167   -3.1375    0.0000 C   0  0  0  0  0  0  0  0  0  0  0  0
    0.0167   -3.8625    0.0000 C   0  0  0  0  0  0  0  0  0  0  0  0
    0.7167   -2.9500    0.0000 C   0  0  0  0  0  0  0  0  0  0  0  0
   -0.6083   -4.2250    0.0000 C   0  0  0  0  0  0  0  0  0  0  0  0
   -0.6083   -4.9167    0.0000 C   0  0  0  0  0  0  0  0  0  0  0  0
   -1.1958   -5.9625    0.0000 C   0  0  0  0  0  0  0  0  0  0  0  0
    1.3167   -1.9125    0.0000 C   0  0  0  0  0  0  0  0  0  0  0  0
    1.9292   -2.2625    0.0000 C   0  0  0  0  0  0  0  0  0  0  0  0
    0.7167   -4.0708    0.0000 C   0  0  0  0  0  0  0  0  0  0  0  0
    1.1042   -3.5042    0.0000 C   0  0  0  0  0  0  0  0  0  0  0  0
   -1.1958   -5.2792    0.0000 C   0  0  0  0  0  0  0  0  0  0  0  0
    3.1417   -2.2625    0.0000 C   0  0  0  0  0  0  0  0  0  0  0  0
    0.7167   -2.2625    0.0000 C   0  0  0  0  0  0  0  0  0  0  0  0
   -1.1958   -7.3917    0.0000 C   0  0  0  0  0  0  0  0  0  0  0  0
    2.5167   -1.9125    0.0000 C   0  0  0  0  0  0  0  0  0  0  0  0
   -0.5708   -7.0292    0.0000 C   0  0  0  0  0  0  0  0  0  0  0  0
   -1.8208   -7.0292    0.0000 C   0  0  0  0  0  0  0  0  0  0  0  0
   -1.8208   -6.3250    0.0000 C   0  0  0  0  0  0  0  0  0  0  0  0
   -0.5708   -6.3250    0.0000 C   0  0  0  0  0  0  0  0  0  0  0  0
   -0.6083   -2.8000    0.0000 C   0  0  0  0  0  0  0  0  0  0  0  0
    0.0167   -2.5000    0.0000 C   0  0  0  0  0  0  0  0  0  0  0  0
    3.7417   -1.9125    0.0000 O   0  0  0  0  0  0  0  0  0  0  0  0
    0.0417   -7.3917    0.0000 O   0  0  0  0  0  0  0  0  0  0  0  0
   -2.4208   -7.3917    0.0000 O   0  0  0  0  0  0  0  0  0  0  0  0
   -1.2333   -3.8625    0.0000 C   0  0  0  0  0  0  0  0  0  0  0  0
   -1.2333   -3.1375    0.0000 C   0  0  0  0  0  0  0  0  0  0  0  0
    3.4917   -2.8750    0.0000 C   0  0  0  0  0  0  0  0  0  0  0  0
    2.7792   -2.8750    0.0000 C   0  0  0  0  0  0  0  0  0  0  0  0
    0.1042   -1.9125    0.0000 C   0  0  0  0  0  0  0  0  0  0  0  0
    2.5167   -1.2125    0.0000 C   0  0  0  0  0  0  0  0  0  0  0  0
    0.0167   -4.6542    0.0000 H   0  0  0  0  0  0  0  0  0  0  0  0
    1.3667   -2.5875    0.0000 H   0  0  0  0  0  0  0  0  0  0  0  0
  2  1  1  0
  3  1  1  0
  4  2  1  0
  5  4  2  0
  6 11  2  0
  7 13  1  0
  8  7  2  0
  9  2  1  0
 10  3  1  0
 11  5  1  0
 12 15  1  0
 13  3  1  0
 14 16  1  0
 15  8  1  0
 16 19  1  0
 17 18  1  0
 18  6  1  0
 19  6  1  0
 20  1  1  0
  1 21  1  1
 22 12  1  0
 16 23  1  1
 17 24  1  6
 25  4  1  0
 26 20  1  0
 27 12  1  0
 28 12  1  0
 13 29  1  6
 15 30  1  6
  2 31  1  6
  3 32  1  6
 26 25  1  0
 10  9  1  0
 14 17  1  0
M  END
> <chembl_id>
CHEMBL1200622

> <chembl_pref_name>
PARICALCITOL
