
     RDKit          2D

 27 31  0  0  1  0  0  0  0  0999 V2000
    0.0875    0.4458    0.0000 N   0  0  0  0  0  0  0  0  0  0  0  0
    1.1042    1.0833    0.0000 C   0  0  0  0  0  0  0  0  0  0  0  0
    0.0875   -0.7875    0.0000 C   0  0  0  0  0  0  0  0  0  0  0  0
    1.1042    2.3125    0.0000 C   0  0  0  0  0  0  0  0  0  0  0  0
   -0.9833    1.1583    0.0000 C   0  0  0  0  0  0  0  0  0  0  0  0
    1.1417   -1.4000    0.0000 C   0  0  0  0  0  0  0  0  0  0  0  0
    2.1917   -0.7875    0.0000 C   0  0  0  0  0  0  0  0  0  0  0  0
    2.1917    0.4458    0.0000 C   0  0  0  0  0  0  0  0  0  0  0  0
   -0.9833    2.3125    0.0000 C   0  0  0  0  0  0  0  0  0  0  0  0
    3.2875    1.0458    0.0000 N   0  0  0  0  0  0  0  0  0  0  0  0
   -1.0208   -1.4292    0.0000 C   0  0  0  0  0  0  0  0  0  0  0  0
    2.1292    2.9375    0.0000 C   0  0  0  0  0  0  0  0  0  0  0  0
    3.2875    2.2750    0.0000 C   0  0  0  0  0  0  0  0  0  0  0  0
   -1.0208   -2.7167    0.0000 O   0  0  0  0  0  0  0  0  0  0  0  0
    3.2542   -1.4000    0.0000 C   0  0  0  0  0  0  0  0  0  0  0  0
    2.2167   -2.1167    0.0000 C   0  0  0  0  0  0  0  0  0  0  0  0
   -2.1000   -0.8042    0.0000 O   0  0  0  0  0  0  0  0  0  0  0  0
   -2.0000    0.4833    0.0000 C   0  0  0  0  0  0  0  0  0  0  0  0
    4.3417    0.4458    0.0000 C   0  0  0  0  0  0  0  0  0  0  0  0
   -2.1208    2.9833    0.0000 C   0  0  0  0  0  0  0  0  0  0  0  0
    4.3417   -0.7875    0.0000 C   0  0  0  0  0  0  0  0  0  0  0  0
   -3.2125   -1.4542    0.0000 C   0  0  0  0  0  0  0  0  0  0  0  0
    3.3875   -2.9667    0.0000 C   0  0  0  0  0  0  0  0  0  0  0  0
   -3.1458    1.1583    0.0000 C   0  0  0  0  0  0  0  0  0  0  0  0
   -3.1458    2.3125    0.0000 C   0  0  0  0  0  0  0  0  0  0  0  0
   -4.3458   -0.8042    0.0000 C   0  0  0  0  0  0  0  0  0  0  0  0
    2.2167    1.7458    0.0000 H   0  0  0  0  0  0  0  0  0  0  0  0
  2  1  1  0
  3  1  1  0
  4  2  2  0
  5  1  1  0
  6  3  2  0
  7  6  1  0
  8  2  1  0
  9  5  2  0
 10  8  1  0
 11  3  1  0
 12  4  1  0
 13 10  1  0
 14 11  2  0
 15  7  1  0
  7 16  1  6
 17 11  1  0
 18  5  1  0
 19 10  1  0
 20  9  1  0
 21 15  1  0
 22 17  1  0
 23 16  1  0
 24 18  2  0
 25 24  1  0
 26 22  1  0
  8 27  1  6
  4  9  1  0
  8  7  1  0
 20 25  2  0
 12 13  1  0
 19 21  1  0
M  END
> <chembl_id>
CHEMBL71752

> <chembl_pref_name>
VINPOCETINE
