
     RDKit          2D

 19 21  0  0  0  0  0  0  0  0999 V2000
    1.1250   -1.7125    0.0000 N   0  0  0  0  0  0  0  0  0  0  0  0
    0.7292   -1.1292    0.0000 C   0  0  0  0  0  0  0  0  0  0  0  0
    0.7292   -2.2667    0.0000 C   0  0  0  0  0  0  0  0  0  0  0  0
    2.1750   -2.3292    0.0000 C   0  0  0  0  0  0  0  0  0  0  0  0
    2.8792   -2.3167    0.0000 N   0  0  0  0  0  0  0  0  0  0  0  0
    1.8292   -1.7042    0.0000 C   0  0  0  0  0  0  0  0  0  0  0  0
    0.0417   -2.0625    0.0000 C   0  0  0  0  0  0  0  0  0  0  0  0
    0.0417   -1.3375    0.0000 C   0  0  0  0  0  0  0  0  0  0  0  0
    3.2417   -1.7125    0.0000 C   0  0  0  0  0  0  0  0  0  0  0  0
    0.9542   -0.4417    0.0000 O   0  0  0  0  0  0  0  0  0  0  0  0
    0.9542   -2.9542    0.0000 O   0  0  0  0  0  0  0  0  0  0  0  0
    2.1917   -1.0792    0.0000 C   0  0  0  0  0  0  0  0  0  0  0  0
    1.8125   -2.9417    0.0000 O   0  0  0  0  0  0  0  0  0  0  0  0
    3.9500   -1.7417    0.0000 O   0  0  0  0  0  0  0  0  0  0  0  0
    2.9000   -1.0917    0.0000 C   0  0  0  0  0  0  0  0  0  0  0  0
   -0.5625   -0.9792    0.0000 C   0  0  0  0  0  0  0  0  0  0  0  0
   -0.5625   -2.4167    0.0000 C   0  0  0  0  0  0  0  0  0  0  0  0
   -1.1625   -2.0625    0.0000 C   0  0  0  0  0  0  0  0  0  0  0  0
   -1.1625   -1.3375    0.0000 C   0  0  0  0  0  0  0  0  0  0  0  0
  2  1  1  0
  3  1  1  0
  4  6  1  0
  5  4  1  0
  6  1  1  0
  7  3  1  0
  8  2  1  0
  9 15  1  0
 10  2  2  0
 11  3  2  0
 12  6  1  0
 13  4  2  0
 14  9  2  0
 15 12  1  0
 16  8  1  0
 17  7  1  0
 18 17  2  0
 19 16  2  0
  7  8  2  0
  9  5  1  0
 18 19  1  0
M  END
> <chembl_id>
CHEMBL468

> <chembl_pref_name>
THALIDOMIDE
