
     RDKit          2D

 22 25  0  0  0  0  0  0  0  0999 V2000
    3.2207   -4.2951    0.0000 Cl  0  0  0  0  0  0  0  0  0  0  0  0
    2.7822   -3.1780    0.0000 C   0  0  0  0  0  0  0  0  0  0  0  0
    3.7175   -2.0053    0.0000 C   0  0  0  0  0  0  0  0  0  0  0  0
    3.1695   -0.6090    0.0000 C   0  0  0  0  0  0  0  0  0  0  0  0
    1.6852   -0.3846    0.0000 C   0  0  0  0  0  0  0  0  0  0  0  0
    1.3514    1.0778    0.0000 C   0  0  0  0  0  0  0  0  0  0  0  0
    2.5248    2.0135    0.0000 C   0  0  0  0  0  0  0  0  0  0  0  0
    3.8953    1.3943    0.0000 C   0  0  0  0  0  0  0  0  0  0  0  0
    5.1143    2.2683    0.0000 C   0  0  0  0  0  0  0  0  0  0  0  0
    4.9669    3.7610    0.0000 N   0  0  0  0  0  0  0  0  0  0  0  0
    3.6005    4.3797    0.0000 C   0  0  0  0  0  0  0  0  0  0  0  0
    2.3814    3.5057    0.0000 C   0  0  0  0  0  0  0  0  0  0  0  0
    0.0000    1.7286    0.0000 C   0  0  0  0  0  0  0  0  0  0  0  0
    0.1115    3.2255    0.0000 N   0  0  0  0  0  0  0  0  0  0  0  0
   -1.1278    4.0705    0.0000 C   0  0  0  0  0  0  0  0  0  0  0  0
   -2.4793    3.4196    0.0000 C   0  0  0  0  0  0  0  0  0  0  0  0
   -2.5914    1.9238    0.0000 C   0  0  0  0  0  0  0  0  0  0  0  0
   -1.3515    1.0777    0.0000 C   0  0  0  0  0  0  0  0  0  0  0  0
   -1.6852   -0.3847    0.0000 C   0  0  0  0  0  0  0  0  0  0  0  0
   -0.7500   -1.5574    0.0000 C   0  0  0  0  0  0  0  0  0  0  0  0
    0.7500   -1.5574    0.0000 C   0  0  0  0  0  0  0  0  0  0  0  0
    1.2990   -2.9545    0.0000 C   0  0  0  0  0  0  0  0  0  0  0  0
  1  2  1  0
  2  3  2  0
  3  4  1  0
  4  5  2  0
  5  6  1  0
  6  7  2  0
  7  8  1  0
  8  9  1  0
  9 10  1  0
 10 11  1  0
 11 12  1  0
 12  7  1  0
  6 13  1  0
 13 14  2  0
 14 15  1  0
 15 16  2  0
 16 17  1  0
 17 18  2  0
 18 13  1  0
 18 19  1  0
 19 20  1  0
 20 21  1  0
 21  5  1  0
 21 22  2  0
 22  2  1  0
M  END
> <chembl_id>
CHEMBL1172

> <chembl_pref_name>
DESLORATADINE
