
     RDKit          2D

 52 52  0  0  0  0  0  0  0  0999 V2000
   16.0486    3.4650    0.0000 S   0  0  0  0  0  0  0  0  0  0  0  0
   16.0486    2.6400    0.0000 O   0  0  0  0  0  0  0  0  0  0  0  0
   16.0486    4.2900    0.0000 O   0  0  0  0  0  0  0  0  0  0  0  0
   15.2236    3.4650    0.0000 O   0  0  0  0  0  0  0  0  0  0  0  0
   16.8736    3.4650    0.0000 O   0  0  0  0  0  0  0  0  0  0  0  0
    8.4864   -1.3401    0.0000 C   0  0  0  0  0  0  0  0  0  0  0  0
    8.4864   -2.1651    0.0000 C   0  0  0  0  0  0  0  0  0  0  0  0
    9.9153   -2.1651    0.0000 C   0  0  0  0  0  0  0  0  0  0  0  0
    9.2009   -0.9276    0.0000 O   0  0  0  0  0  0  0  0  0  0  0  0
   10.6298   -0.9276    0.0000 O   0  0  0  0  0  0  0  0  0  0  0  0
   10.6298   -0.1026    0.0000 C   0  0  0  0  0  0  0  0  0  0  0  0
    9.9153    0.3099    0.0000 C   0  0  0  0  0  0  0  0  0  0  0  0
    9.9153    1.1349    0.0000 C   0  0  0  0  0  0  0  0  0  0  0  0
   10.6298    1.5474    0.0000 C   0  0  0  0  0  0  0  0  0  0  0  0
   11.3443    1.1349    0.0000 C   0  0  0  0  0  0  0  0  0  0  0  0
   11.3443    0.3099    0.0000 C   0  0  0  0  0  0  0  0  0  0  0  0
   12.0587   -0.1026    0.0000 N   0  0  0  0  0  0  0  0  0  0  0  0
    9.2009   -0.1026    0.0000 O   0  0  0  0  0  0  0  0  0  0  0  0
    9.2009    1.5474    0.0000 O   0  0  0  0  0  0  0  0  0  0  0  0
   10.6298    2.3724    0.0000 N   0  0  0  0  0  0  0  0  0  0  0  0
   12.7732    0.3099    0.0000 C   0  0  0  0  0  0  0  0  0  0  0  0
   13.4877   -0.1026    0.0000 C   0  0  0  0  0  0  0  0  0  0  0  0
   12.7732    1.1349    0.0000 O   0  0  0  0  0  0  0  0  0  0  0  0
   13.4877   -0.9276    0.0000 O   0  0  0  0  0  0  0  0  0  0  0  0
   14.2022    0.3099    0.0000 C   0  0  0  0  0  0  0  0  0  0  0  0
   14.9166   -0.1026    0.0000 C   0  0  0  0  0  0  0  0  0  0  0  0
   14.9166   -0.9276    0.0000 N   0  0  0  0  0  0  0  0  0  0  0  0
    9.2009    2.3724    0.0000 C   0  0  0  0  0  0  0  0  0  0  0  0
    9.9153    2.7849    0.0000 O   0  0  0  0  0  0  0  0  0  0  0  0
    9.9153    3.6099    0.0000 C   0  0  0  0  0  0  0  0  0  0  0  0
    9.2009    4.0224    0.0000 C   0  0  0  0  0  0  0  0  0  0  0  0
    8.4864    3.6099    0.0000 C   0  0  0  0  0  0  0  0  0  0  0  0
    8.4864    2.7849    0.0000 C   0  0  0  0  0  0  0  0  0  0  0  0
   10.6298    4.0224    0.0000 C   0  0  0  0  0  0  0  0  0  0  0  0
    9.2009   -2.5776    0.0000 C   0  0  0  0  0  0  0  0  0  0  0  0
   11.3443    3.6099    0.0000 N   0  0  0  0  0  0  0  0  0  0  0  0
    9.2009    4.8474    0.0000 O   0  0  0  0  0  0  0  0  0  0  0  0
    7.7719    4.0224    0.0000 O   0  0  0  0  0  0  0  0  0  0  0  0
    7.7719    2.3724    0.0000 O   0  0  0  0  0  0  0  0  0  0  0  0
    7.7719   -0.9276    0.0000 C   0  0  0  0  0  0  0  0  0  0  0  0
    7.7719   -0.1026    0.0000 O   0  0  0  0  0  0  0  0  0  0  0  0
    7.7719   -2.5776    0.0000 O   0  0  0  0  0  0  0  0  0  0  0  0
    9.2009   -3.4026    0.0000 N   0  0  0  0  0  0  0  0  0  0  0  0
   10.6298   -2.5776    0.0000 O   0  0  0  0  0  0  0  0  0  0  0  0
    8.4864    1.9599    0.0000 H   0  0  0  0  0  0  0  0  0  0  0  0
    9.9153   -1.3401    0.0000 C   0  0  0  0  0  0  0  0  0  0  0  0
    9.9153   -0.5151    0.0000 H   0  0  0  0  0  0  0  0  0  0  0  0
   16.0676    0.9714    0.0000 S   0  0  0  0  0  0  0  0  0  0  0  0
   16.0676    0.1464    0.0000 O   0  0  0  0  0  0  0  0  0  0  0  0
   16.0676    1.7964    0.0000 O   0  0  0  0  0  0  0  0  0  0  0  0
   15.2426    0.9714    0.0000 O   0  0  0  0  0  0  0  0  0  0  0  0
   16.8926    0.9714    0.0000 O   0  0  0  0  0  0  0  0  0  0  0  0
  1  2  2  0
  1  3  2  0
  1  4  1  0
  1  5  1  0
 22 25  1  0
 46  9  1  0
 25 26  1  0
 11 16  1  0
 26 27  1  0
 12 13  1  0
 28 19  1  0
 28 29  1  0
 13 14  1  0
 14 15  1  0
 15 16  1  0
  6  7  1  0
 16 17  1  1
 28 33  1  0
 29 30  1  0
 30 31  1  0
 31 32  1  0
 32 33  1  0
 46 10  1  0
 30 34  1  1
 12 18  1  1
 34 36  1  0
 13 19  1  6
 31 37  1  6
 11 10  1  6
 32 38  1  1
 14 20  1  1
 33 39  1  6
 11 12  1  0
  6 40  1  1
 17 21  1  0
 40 41  1  0
  6  9  1  0
  7 42  1  6
 21 22  1  0
 35 43  1  1
  7 35  1  0
  8 44  1  6
 21 23  2  0
 28 45  1  1
 46 47  1  1
 35  8  1  0
 22 24  1  6
  8 46  1  0
 48 49  2  0
 48 50  2  0
 48 51  1  0
 48 52  1  0
M  END
> <chembl_id>
CHEMBL4208954

> <chembl_pref_name>
AMIKACIN SULFATE
