
     RDKit          2D

 45 48  0  0  1  0  0  0  0  0999 V2000
   -1.4708   -0.0292    0.0000 C   0  0  0  0  0  0  0  0  0  0  0  0
   -2.4250   -0.0292    0.0000 C   0  0  0  0  0  0  0  0  0  0  0  0
   -0.5083   -0.0292    0.0000 C   0  0  0  0  0  0  0  0  0  0  0  0
   -1.9458    0.2458    0.0000 C   0  0  0  0  0  0  0  0  0  0  0  0
   -0.9875    0.2458    0.0000 C   0  0  0  0  0  0  0  0  0  0  0  0
   -1.4708   -0.5792    0.0000 C   0  0  0  0  0  0  0  0  0  0  0  0
   -0.5083   -0.5792    0.0000 C   0  0  0  0  0  0  0  0  0  0  0  0
   -2.9083    0.2458    0.0000 C   0  0  0  0  0  0  0  0  0  0  0  0
   -2.4250   -0.5792    0.0000 C   0  0  0  0  0  0  0  0  0  0  0  0
   -3.3875   -0.0292    0.0000 C   0  0  0  0  0  0  0  0  0  0  0  0
   -2.9083   -0.8542    0.0000 C   0  0  0  0  0  0  0  0  0  0  0  0
   -3.3875   -0.5792    0.0000 C   0  0  0  0  0  0  0  0  0  0  0  0
   -0.9875   -0.8542    0.0000 C   0  0  0  0  0  0  0  0  0  0  0  0
   -1.9458   -0.8542    0.0000 C   0  0  0  0  0  0  0  0  0  0  0  0
   -0.0208    0.2458    0.0000 C   0  0  0  0  0  0  0  0  0  0  0  0
    3.8250    0.8000    0.0000 C   0  0  0  0  0  0  0  0  0  0  0  0
   -0.9875    0.8000    0.0000 O   0  0  0  0  0  0  0  0  0  0  0  0
   -2.9083    0.8000    0.0000 O   0  0  0  0  0  0  0  0  0  0  0  0
   -0.9875   -1.4167    0.0000 N   0  0  0  0  0  0  0  0  0  0  0  0
   -0.0208    0.8000    0.0000 N   0  0  0  0  0  0  0  0  0  0  0  0
   -3.8625    0.2458    0.0000 C   0  0  0  0  0  0  0  0  0  0  0  0
   -1.4833    0.5833    0.0000 O   0  0  0  0  0  0  0  0  0  0  0  0
    0.4542   -0.0292    0.0000 O   0  0  0  0  0  0  0  0  0  0  0  0
   -1.9458    0.8000    0.0000 O   0  0  0  0  0  0  0  0  0  0  0  0
   -0.0208   -0.8667    0.0000 O   0  0  0  0  0  0  0  0  0  0  0  0
    3.8250    0.2458    0.0000 O   0  0  0  0  0  0  0  0  0  0  0  0
   -3.1000   -1.3917    0.0000 O   0  0  0  0  0  0  0  0  0  0  0  0
    3.3417    1.0833    0.0000 C   0  0  0  0  0  0  0  0  0  0  0  0
    0.4542    1.0833    0.0000 C   0  0  0  0  0  0  0  0  0  0  0  0
   -3.8625   -0.8542    0.0000 C   0  0  0  0  0  0  0  0  0  0  0  0
    0.9375    0.8000    0.0000 N   0  0  0  0  0  0  0  0  0  0  0  0
    4.3000    1.0833    0.0000 O   0  0  0  0  0  0  0  0  0  0  0  0
   -2.8083   -1.3750    0.0000 C   0  0  0  0  0  0  0  0  0  0  0  0
    3.3417    1.6333    0.0000 N   0  0  0  0  0  0  0  0  0  0  0  0
   -3.8625    0.8000    0.0000 O   0  0  0  0  0  0  0  0  0  0  0  0
   -4.3458   -0.5792    0.0000 C   0  0  0  0  0  0  0  0  0  0  0  0
   -4.3458   -0.0292    0.0000 C   0  0  0  0  0  0  0  0  0  0  0  0
   -1.4708   -1.6917    0.0000 C   0  0  0  0  0  0  0  0  0  0  0  0
   -0.5083   -1.6917    0.0000 C   0  0  0  0  0  0  0  0  0  0  0  0
    1.4167    1.0833    0.0000 C   0  0  0  0  0  0  0  0  0  0  0  0
    2.8625    0.8000    0.0000 C   0  0  0  0  0  0  0  0  0  0  0  0
    1.9000    0.8000    0.0000 C   0  0  0  0  0  0  0  0  0  0  0  0
    2.3792    1.0833    0.0000 C   0  0  0  0  0  0  0  0  0  0  0  0
   -1.4625   -1.0542    0.0000 H   0  0  0  0  0  0  0  0  0  0  0  0
   -2.4250   -1.0375    0.0000 H   0  0  0  0  0  0  0  0  0  0  0  0
  2  4  2  0
  3  5  1  0
  4  1  1  0
  5  1  1  0
  6  1  1  0
  7 13  1  0
  8  2  1  0
  9 14  1  0
 10  8  1  0
 11  9  1  0
 12 11  1  0
 13  6  1  0
 14  6  1  0
 15  3  1  0
 16 28  1  0
 17  5  2  0
 18  8  2  0
 13 19  1  1
 20 15  1  0
 21 10  1  0
  1 22  1  1
 23 15  2  0
 24  4  1  0
 25  7  1  0
 26 16  2  0
 11 27  1  6
 28 41  1  0
 29 20  1  0
 30 12  1  0
 31 29  1  0
 32 16  1  0
 11 33  1  1
 28 34  1  6
 35 21  1  0
 36 30  2  0
 37 21  2  0
 38 19  1  0
 39 19  1  0
 40 31  1  0
 41 43  1  0
 42 40  1  0
 43 42  1  0
  6 44  1  1
  9 45  1  1
  2  9  1  0
  3  7  2  0
 12 10  2  0
 36 37  1  0
M  END
> <chembl_id>
CHEMBL2103929

> <chembl_pref_name>
LYMECYCLINE
