
     RDKit          2D

 26 29  0  0  0  0  0  0  0  0999 V2000
   10.6993    7.4748    0.0000 O   0  0  0  0  0  0  0  0  0  0  0  0
   14.3907    6.7747    0.0000 F   0  0  0  0  0  0  0  0  0  0  0  0
   15.5082    5.8270    0.0000 F   0  0  0  0  0  0  0  0  0  0  0  0
    0.0000    0.7001    0.0000 C   0  0  0  0  0  0  0  0  0  0  0  0
    0.0000    2.1003    0.0000 C   0  0  0  0  0  0  0  0  0  0  0  0
    1.2093    0.0000    0.0000 C   0  0  0  0  0  0  0  0  0  0  0  0
    4.8511    2.1003    0.0000 C   0  0  0  0  0  0  0  0  0  0  0  0
    3.6347    4.2006    0.0000 C   0  0  0  0  0  0  0  0  0  0  0  0
    6.0604    2.8004    0.0000 C   0  0  0  0  0  0  0  0  0  0  0  0
    4.8511    4.9007    0.0000 C   0  0  0  0  0  0  0  0  0  0  0  0
   12.3541    4.0449    0.0000 C   0  0  0  0  0  0  0  0  0  0  0  0
   13.7543    4.0521    0.0000 C   0  0  0  0  0  0  0  0  0  0  0  0
    7.4181    6.2937    0.0000 C   0  0  0  0  0  0  0  0  0  0  0  0
   13.0401    6.2019    0.0000 C   0  0  0  0  0  0  0  0  0  0  0  0
    8.5497    4.3350    0.0000 C   0  0  0  0  0  0  0  0  0  0  0  0
    1.2093    2.8004    0.0000 N   0  0  0  0  0  0  0  0  0  0  0  0
    2.4255    0.7001    0.0000 N   0  0  0  0  0  0  0  0  0  0  0  0
    8.7900    6.5838    0.0000 N   0  0  0  0  0  0  0  0  0  0  0  0
   10.6993    6.0746    0.0000 C   0  0  0  0  0  0  0  0  0  0  0  0
    2.4255    2.1003    0.0000 C   0  0  0  0  0  0  0  0  0  0  0  0
   11.9157    5.3745    0.0000 N   0  0  0  0  0  0  0  0  0  0  0  0
    3.6347    2.8004    0.0000 N   0  0  0  0  0  0  0  0  0  0  0  0
    6.0604    4.2006    0.0000 N   0  0  0  0  0  0  0  0  0  0  0  0
   14.1786    5.3886    0.0000 C   0  0  0  0  0  0  0  0  0  0  0  0
    7.2768    4.9007    0.0000 C   0  0  0  0  0  0  0  0  0  0  0  0
    9.4901    5.3745    0.0000 C   0  0  0  0  0  0  0  0  0  0  0  0
  1 19  2  0
  2 24  1  0
  3 24  1  0
  4  5  2  0
  4  6  1  0
  5 16  1  0
  6 17  2  0
  7  9  1  0
  7 22  1  0
  8 10  1  0
  8 22  1  0
  9 23  1  0
 10 23  1  0
 11 12  1  0
 11 21  1  0
 12 24  1  0
 13 18  1  0
 13 25  1  0
 14 21  1  0
 14 24  1  0
 15 25  1  0
 15 26  1  0
 16 20  2  0
 17 20  1  0
 18 26  1  0
 19 21  1  0
 26 19  1  6
 20 22  1  0
 25 23  1  6
M  END
> <chembl_id>
CHEMBL515387

> <chembl_pref_name>
GOSOGLIPTIN
