
     RDKit          2D

 18 19  0  0  0  0  0  0  0  0999 V2000
    1.6087    3.5635    0.0000 C   0  0  0  0  0  0  0  0  0  0  0  0
    3.0174    3.8136    0.0000 C   0  0  0  0  0  0  0  0  0  0  0  0
    0.1958    0.4126    0.0000 N   0  0  0  0  0  0  0  0  0  0  0  0
    3.4468    1.3754    0.0000 O   0  0  0  0  0  0  0  0  0  0  0  0
    0.1416    2.7175    0.0000 C   0  0  0  0  0  0  0  0  0  0  0  0
    0.9169    3.0008    0.0000 C   0  0  0  0  0  0  0  0  0  0  0  0
    0.0000    1.9047    0.0000 C   0  0  0  0  0  0  0  0  0  0  0  0
    1.5504    2.4674    0.0000 C   0  0  0  0  0  0  0  0  0  0  0  0
    0.6293    1.3754    0.0000 C   0  0  0  0  0  0  0  0  0  0  0  0
    1.7505    2.7508    0.0000 C   0  0  0  0  0  0  0  0  0  0  0  0
    3.1592    3.0008    0.0000 C   0  0  0  0  0  0  0  0  0  0  0  0
    0.9127    0.0000    0.0000 C   0  0  0  0  0  0  0  0  0  0  0  0
    2.4507    0.4126    0.0000 C   0  0  0  0  0  0  0  0  0  0  0  0
    2.6715    1.6546    0.0000 C   0  0  0  0  0  0  0  0  0  0  0  0
    1.4045    1.6546    0.0000 C   0  0  0  0  0  0  0  0  0  0  0  0
    1.6255    0.4126    0.0000 C   0  0  0  0  0  0  0  0  0  0  0  0
    2.5257    2.4674    0.0000 N   0  0  0  0  0  0  0  0  0  0  0  0
    2.0381    1.1253    0.0000 C   0  0  0  0  0  0  0  0  0  0  0  0
  1 10  1  0
  2 11  1  0
  3 12  1  0
  4 14  2  0
  5  6  1  0
  5  7  2  0
  6  8  2  0
  7  9  1  0
  8 15  1  0
  9 15  2  0
 10 17  1  0
 11 17  1  0
 16 12  1  0
 13 16  1  0
 13 18  1  0
 14 17  1  0
 18 14  1  0
 18 15  1  0
 16 18  1  0
M  END
> <chembl_id>
CHEMBL259209

> <chembl_pref_name>
MILNACIPRAN
