
     RDKit          2D

 31 33  0  0  1  0  0  0  0  0999 V2000
   -0.8799    1.7285    0.0000 C   0  0  0  0  0  0  0  0  0  0  0  0
   -0.8917    0.9075    0.0000 C   0  0  0  0  0  0  0  0  0  0  0  0
   -0.1021    1.9995    0.0000 C   0  0  0  0  0  0  0  0  0  0  0  0
   -2.3335   -1.5714    0.0000 C   0  0  0  0  0  0  0  0  0  0  0  0
   -2.3295   -0.7543    0.0000 C   0  0  0  0  0  0  0  0  0  0  0  0
   -1.6028    0.4910    0.0000 C   0  0  0  0  0  0  0  0  0  0  0  0
   -1.6106   -0.3339    0.0000 C   0  0  0  0  0  0  0  0  0  0  0  0
    0.9821    2.9423    0.0000 C   0  0  0  0  0  0  0  0  0  0  0  0
    1.5478    2.3413    0.0000 C   0  0  0  0  0  0  0  0  0  0  0  0
   -0.1139    0.6442    0.0000 C   0  0  0  0  0  0  0  0  0  0  0  0
    0.3771    1.3042    0.0000 C   0  0  0  0  0  0  0  0  0  0  0  0
   -1.6146   -1.9957    0.0000 C   0  0  0  0  0  0  0  0  0  0  0  0
   -3.0484   -1.9839    0.0000 C   0  0  0  0  0  0  0  0  0  0  0  0
    0.1768    2.7695    0.0000 C   0  0  0  0  0  0  0  0  0  0  0  0
    2.3610    2.5416    0.0000 C   0  0  0  0  0  0  0  0  0  0  0  0
   -3.0524   -2.8088    0.0000 C   0  0  0  0  0  0  0  0  0  0  0  0
   -1.6028    2.1409    0.0000 C   0  0  0  0  0  0  0  0  0  0  0  0
   -0.8564    2.5652    0.0000 C   0  0  0  0  0  0  0  0  0  0  0  0
   -1.6224   -2.8167    0.0000 C   0  0  0  0  0  0  0  0  0  0  0  0
   -2.3413   -3.2213    0.0000 C   0  0  0  0  0  0  0  0  0  0  0  0
    2.9345    1.9406    0.0000 C   0  0  0  0  0  0  0  0  0  0  0  0
   -2.3099    0.9075    0.0000 C   0  0  0  0  0  0  0  0  0  0  0  0
   -0.9035   -3.2331    0.0000 O   0  0  0  0  0  0  0  0  0  0  0  0
   -2.3099    1.7520    0.0000 C   0  0  0  0  0  0  0  0  0  0  0  0
   -3.7673   -1.5674    0.0000 C   0  0  0  0  0  0  0  0  0  0  0  0
   -0.3732    3.3902    0.0000 C   0  0  0  0  0  0  0  0  0  0  0  0
    2.6085    3.3430    0.0000 C   0  0  0  0  0  0  0  0  0  0  0  0
    3.7595    2.1292    0.0000 C   0  0  0  0  0  0  0  0  0  0  0  0
    2.7263    1.1510    0.0000 C   0  0  0  0  0  0  0  0  0  0  0  0
    0.8330    2.1198    0.0000 H   0  0  0  0  0  0  0  0  0  0  0  0
   -0.7959   -0.0305    0.0000 H   0  0  0  0  0  0  0  0  0  0  0  0
  2  1  1  0
  3  1  1  0
  4  5  2  0
  5  7  1  0
  6  2  1  0
  7  6  2  0
  8 14  1  0
  9  8  2  0
 10  2  1  0
  3 11  1  0
 12  4  1  0
 13  4  1  0
 14  3  1  0
 15  9  1  0
 16 13  1  0
 17  1  1  0
  1 18  1  1
 19 12  1  0
 20 16  1  0
 21 15  1  0
 22 24  1  0
 19 23  1  1
 24 17  1  0
 13 25  1  6
 14 26  1  6
 15 27  1  6
 28 21  1  0
 29 21  1  0
 10 11  1  0
  6 22  1  0
 19 20  1  0
  3 30  1  6
  2 31  1  6
M  END
> <chembl_id>
CHEMBL2356023

> <chembl_pref_name>
DIHYDROTACHYSTEROL
