
     RDKit          2D

 24 24  0  0  0  0  0  0  0  0999 V2000
    3.7750   -6.0292    0.0000 Cl  0  0  0  0  0  0  0  0  0  0  0  0
    0.7292   -4.4667    0.0000 C   0  0  0  0  0  0  0  0  0  0  0  0
    0.1167   -4.8292    0.0000 C   0  0  0  0  0  0  0  0  0  0  0  0
    1.3375   -4.8292    0.0000 C   0  0  0  0  0  0  0  0  0  0  0  0
    0.1167   -5.5292    0.0000 C   0  0  0  0  0  0  0  0  0  0  0  0
    1.3375   -5.5292    0.0000 C   0  0  0  0  0  0  0  0  0  0  0  0
    0.7292   -5.8917    0.0000 C   0  0  0  0  0  0  0  0  0  0  0  0
    1.9375   -4.4875    0.0000 C   0  0  0  0  0  0  0  0  0  0  0  0
    7.5125   -5.5250    0.0000 C   0  0  0  0  0  0  0  0  0  0  0  0
   -0.4833   -4.4875    0.0000 O   0  0  0  0  0  0  0  0  0  0  0  0
    3.1500   -4.4542    0.0000 N   0  0  0  0  0  0  0  0  0  0  0  0
    6.2750   -4.8167    0.0000 C   0  0  0  0  0  0  0  0  0  0  0  0
   -0.4833   -5.8625    0.0000 O   0  0  0  0  0  0  0  0  0  0  0  0
    6.8917   -5.9042    0.0000 C   0  0  0  0  0  0  0  0  0  0  0  0
    7.5125   -4.8125    0.0000 C   0  0  0  0  0  0  0  0  0  0  0  0
    6.2750   -5.5250    0.0000 C   0  0  0  0  0  0  0  0  0  0  0  0
    6.8917   -4.4542    0.0000 C   0  0  0  0  0  0  0  0  0  0  0  0
    1.9375   -3.7917    0.0000 O   0  0  0  0  0  0  0  0  0  0  0  0
    8.1125   -5.8667    0.0000 O   0  0  0  0  0  0  0  0  0  0  0  0
    2.5375   -4.8292    0.0000 C   0  0  0  0  0  0  0  0  0  0  0  0
    3.7750   -4.8167    0.0000 C   0  0  0  0  0  0  0  0  0  0  0  0
    5.6417   -4.4542    0.0000 C   0  0  0  0  0  0  0  0  0  0  0  0
    4.4042   -4.4542    0.0000 C   0  0  0  0  0  0  0  0  0  0  0  0
    5.0125   -4.8167    0.0000 C   0  0  0  0  0  0  0  0  0  0  0  0
  3  2  1  0
  4  2  2  0
  5  3  2  0
  6  4  1  0
  7  6  2  0
  8  4  1  0
  9 14  2  0
 10  3  1  0
 11 20  1  0
 12 22  1  0
 13  5  1  0
 14 16  1  0
 15 17  2  0
 16 12  2  0
 17 12  1  0
  8 18  1  1
 19  9  1  0
 20  8  1  0
 21 11  1  0
 22 24  1  0
 23 21  1  0
 24 23  1  0
  7  5  1  0
  9 15  1  0
M  END
> <chembl_id>
CHEMBL1200385

> <chembl_pref_name>
ARBUTAMINE HYDROCHLORIDE
