
     RDKit          2D

 97101  0  0  0  0  0  0  0  0999 V2000
    3.6042   -6.7667    0.0000 C   0  0  0  0  0  0  0  0  0  0  0  0
    3.6000   -6.0542    0.0000 O   0  0  0  0  0  0  0  0  0  0  0  0
    4.2167   -7.1167    0.0000 O   0  0  0  0  0  0  0  0  0  0  0  0
    2.9917   -7.1250    0.0000 C   0  0  0  0  0  0  0  0  0  0  0  0
   11.6208   -3.6500    0.0000 N   0  0  0  0  0  0  0  0  0  0  0  0
   11.0042   -3.2958    0.0000 C   0  0  0  0  0  0  0  0  0  0  0  0
    1.8042   -2.2375    0.0000 C   0  0  0  0  0  0  0  0  0  0  0  0
    7.3208   -3.2958    0.0000 C   0  0  0  0  0  0  0  0  0  0  0  0
    3.6417   -3.3000    0.0000 C   0  0  0  0  0  0  0  0  0  0  0  0
   12.1917   -2.5250    0.0000 C   0  0  0  0  0  0  0  0  0  0  0  0
    6.7042   -3.6500    0.0000 C   0  0  0  0  0  0  0  0  0  0  0  0
    1.8042   -3.6542    0.0000 C   0  0  0  0  0  0  0  0  0  0  0  0
    5.4792   -3.6542    0.0000 C   0  0  0  0  0  0  0  0  0  0  0  0
   -0.0375   -3.3000    0.0000 C   0  0  0  0  0  0  0  0  0  0  0  0
    9.1625   -3.6542    0.0000 C   0  0  0  0  0  0  0  0  0  0  0  0
   12.1917   -3.2292    0.0000 C   0  0  0  0  0  0  0  0  0  0  0  0
   -1.8708   -3.6542    0.0000 C   0  0  0  0  0  0  0  0  0  0  0  0
   -3.0625   -3.7208    0.0000 N   0  0  0  0  0  0  0  0  0  0  0  0
    6.0917   -3.2958    0.0000 N   0  0  0  0  0  0  0  0  0  0  0  0
    2.4167   -3.3000    0.0000 N   0  0  0  0  0  0  0  0  0  0  0  0
    3.0250   -3.6542    0.0000 C   0  0  0  0  0  0  0  0  0  0  0  0
    2.9500   -2.2542    0.0000 N   0  0  0  0  0  0  0  0  0  0  0  0
    4.2542   -3.6542    0.0000 N   0  0  0  0  0  0  0  0  0  0  0  0
    7.9333   -3.6542    0.0000 N   0  0  0  0  0  0  0  0  0  0  0  0
    0.5750   -3.6542    0.0000 N   0  0  0  0  0  0  0  0  0  0  0  0
   -1.2625   -3.3000    0.0000 N   0  0  0  0  0  0  0  0  0  0  0  0
    9.7750   -3.2958    0.0000 N   0  0  0  0  0  0  0  0  0  0  0  0
    2.3708   -2.6625    0.0000 C   0  0  0  0  0  0  0  0  0  0  0  0
   -0.6542   -3.6542    0.0000 C   0  0  0  0  0  0  0  0  0  0  0  0
    1.1875   -3.3000    0.0000 C   0  0  0  0  0  0  0  0  0  0  0  0
    4.8625   -3.3000    0.0000 C   0  0  0  0  0  0  0  0  0  0  0  0
    8.5458   -3.3000    0.0000 C   0  0  0  0  0  0  0  0  0  0  0  0
   14.0333   -2.1667    0.0000 C   0  0  0  0  0  0  0  0  0  0  0  0
   10.3875   -3.6500    0.0000 C   0  0  0  0  0  0  0  0  0  0  0  0
    1.1083   -4.6833    0.0000 N   0  0  0  0  0  0  0  0  0  0  0  0
   -2.4875   -3.3042    0.0000 C   0  0  0  0  0  0  0  0  0  0  0  0
   11.6167   -6.4833    0.0000 C   0  0  0  0  0  0  0  0  0  0  0  0
   -3.6333   -3.3042    0.0000 C   0  0  0  0  0  0  0  0  0  0  0  0
    2.0333   -1.5667    0.0000 C   0  0  0  0  0  0  0  0  0  0  0  0
    1.1875   -2.5917    0.0000 C   0  0  0  0  0  0  0  0  0  0  0  0
   12.8083   -2.1667    0.0000 N   0  0  0  0  0  0  0  0  0  0  0  0
   -0.0375   -4.7125    0.0000 C   0  0  0  0  0  0  0  0  0  0  0  0
   -0.6542   -4.3625    0.0000 C   0  0  0  0  0  0  0  0  0  0  0  0
    0.2000   -5.3792    0.0000 N   0  0  0  0  0  0  0  0  0  0  0  0
    0.9083   -5.3625    0.0000 C   0  0  0  0  0  0  0  0  0  0  0  0
   13.4208   -2.5208    0.0000 N   0  0  0  0  0  0  0  0  0  0  0  0
    2.7417   -1.5792    0.0000 C   0  0  0  0  0  0  0  0  0  0  0  0
   11.0042   -6.8375    0.0000 N   0  0  0  0  0  0  0  0  0  0  0  0
    0.5250   -4.2833    0.0000 C   0  0  0  0  0  0  0  0  0  0  0  0
   11.0042   -2.5875    0.0000 O   0  0  0  0  0  0  0  0  0  0  0  0
   11.5792   -2.1708    0.0000 O   0  0  0  0  0  0  0  0  0  0  0  0
    6.7042   -4.3583    0.0000 C   0  0  0  0  0  0  0  0  0  0  0  0
    3.6417   -2.5917    0.0000 O   0  0  0  0  0  0  0  0  0  0  0  0
    7.3208   -2.5875    0.0000 O   0  0  0  0  0  0  0  0  0  0  0  0
    9.1625   -4.3625    0.0000 O   0  0  0  0  0  0  0  0  0  0  0  0
    1.8042   -4.3625    0.0000 O   0  0  0  0  0  0  0  0  0  0  0  0
   -0.0375   -2.5917    0.0000 O   0  0  0  0  0  0  0  0  0  0  0  0
    5.4792   -4.3625    0.0000 O   0  0  0  0  0  0  0  0  0  0  0  0
   -1.8667   -4.3625    0.0000 O   0  0  0  0  0  0  0  0  0  0  0  0
    4.8625   -2.5917    0.0000 C   0  0  0  0  0  0  0  0  0  0  0  0
   14.0333   -1.4583    0.0000 O   0  0  0  0  0  0  0  0  0  0  0  0
    8.5458   -2.5917    0.0000 C   0  0  0  0  0  0  0  0  0  0  0  0
   -4.2500   -3.6542    0.0000 O   0  0  0  0  0  0  0  0  0  0  0  0
   -2.7083   -2.6333    0.0000 C   0  0  0  0  0  0  0  0  0  0  0  0
    7.3208   -4.7125    0.0000 O   0  0  0  0  0  0  0  0  0  0  0  0
   11.6167   -5.7750    0.0000 N   0  0  0  0  0  0  0  0  0  0  0  0
    7.3250   -5.4208    0.0000 C   0  0  0  0  0  0  0  0  0  0  0  0
   14.6458   -2.5208    0.0000 N   0  0  0  0  0  0  0  0  0  0  0  0
   12.2292   -6.8375    0.0000 N   0  0  0  0  0  0  0  0  0  0  0  0
   11.8375   -4.3208    0.0000 C   0  0  0  0  0  0  0  0  0  0  0  0
   -3.4125   -2.6333    0.0000 C   0  0  0  0  0  0  0  0  0  0  0  0
    5.4792   -2.2375    0.0000 C   0  0  0  0  0  0  0  0  0  0  0  0
    6.7042   -1.5292    0.0000 C   0  0  0  0  0  0  0  0  0  0  0  0
    3.0250   -4.3625    0.0000 C   0  0  0  0  0  0  0  0  0  0  0  0
    6.0917   -2.5917    0.0000 C   0  0  0  0  0  0  0  0  0  0  0  0
    5.4792   -1.5292    0.0000 C   0  0  0  0  0  0  0  0  0  0  0  0
    6.0917   -1.1750    0.0000 C   0  0  0  0  0  0  0  0  0  0  0  0
    6.7042   -2.2375    0.0000 C   0  0  0  0  0  0  0  0  0  0  0  0
   12.7667   -3.6500    0.0000 C   0  0  0  0  0  0  0  0  0  0  0  0
    7.3208   -1.1750    0.0000 O   0  0  0  0  0  0  0  0  0  0  0  0
    3.6417   -4.7167    0.0000 O   0  0  0  0  0  0  0  0  0  0  0  0
   12.5500   -4.3208    0.0000 C   0  0  0  0  0  0  0  0  0  0  0  0
   10.3875   -4.3583    0.0000 C   0  0  0  0  0  0  0  0  0  0  0  0
    1.6875   -0.9458    0.0000 C   0  0  0  0  0  0  0  0  0  0  0  0
    9.1625   -2.2375    0.0000 C   0  0  0  0  0  0  0  0  0  0  0  0
    3.1083   -0.9750    0.0000 C   0  0  0  0  0  0  0  0  0  0  0  0
    6.6167   -5.4167    0.0000 C   0  0  0  0  0  0  0  0  0  0  0  0
    7.9375   -5.7750    0.0000 C   0  0  0  0  0  0  0  0  0  0  0  0
    6.9667   -6.0292    0.0000 C   0  0  0  0  0  0  0  0  0  0  0  0
   11.0042   -5.4208    0.0000 C   0  0  0  0  0  0  0  0  0  0  0  0
   11.0042   -4.7125    0.0000 C   0  0  0  0  0  0  0  0  0  0  0  0
    9.7750   -2.5917    0.0000 C   0  0  0  0  0  0  0  0  0  0  0  0
    9.1625   -1.5292    0.0000 C   0  0  0  0  0  0  0  0  0  0  0  0
    2.0542   -0.3417    0.0000 C   0  0  0  0  0  0  0  0  0  0  0  0
    2.7667   -0.3542    0.0000 C   0  0  0  0  0  0  0  0  0  0  0  0
   -1.8750   -2.9417    0.0000 H   0  0  0  0  0  0  0  0  0  0  0  0
   12.8042   -2.8750    0.0000 H   0  0  0  0  0  0  0  0  0  0  0  0
  2  1  2  0
  3  1  1  0
  4  1  1  0
  6  5  1  0
  7 40  1  0
  8 24  1  0
  9 23  1  0
 10 16  1  0
 11  8  1  0
 12 20  1  0
 13 19  1  0
 14 25  1  0
 15 27  1  0
 16  5  1  0
 17 26  1  0
 18 36  1  0
 19 11  1  0
 20 21  1  0
 21  9  1  0
 22 28  1  0
 23 31  1  0
 24 32  1  0
 25 30  1  0
 26 29  1  0
 27 34  1  0
 28  7  2  0
 29 14  1  0
 30 12  1  0
 31 13  1  0
 32 15  1  0
 33 46  1  0
 34  6  1  0
 35 49  1  0
 36 17  1  0
 37 66  1  0
 38 18  1  0
 39  7  1  0
 30 40  1  1
 41 10  1  0
 42 43  1  0
 29 43  1  6
 44 42  1  0
 45 44  1  0
 46 41  1  0
 47 39  2  0
 48 37  2  0
 49 42  2  0
 50  6  2  0
 51 10  2  0
 11 52  1  1
 53  9  2  0
 54  8  2  0
 55 15  2  0
 56 12  2  0
 57 14  2  0
 58 13  2  0
 59 17  2  0
 31 60  1  1
 61 33  2  0
 32 62  1  1
 63 38  2  0
 64 36  1  0
 65 52  1  0
 66 90  1  0
 67 65  1  0
 68 33  1  0
 69 37  1  0
 70  5  1  0
 71 64  1  0
 72 60  1  0
 73 78  2  0
 21 74  1  6
 75 72  2  0
 76 72  1  0
 77 76  2  0
 78 75  1  0
 79 16  1  0
 80 73  1  0
 81 74  1  0
 82 70  1  0
 34 83  1  6
 84 39  1  0
 85 62  1  0
 86 47  1  0
 87 67  1  0
 88 67  1  0
 89 67  1  0
 90 91  1  0
 91 83  1  0
 92 85  1  0
 93 85  1  0
 94 84  2  0
 95 94  1  0
 36 96  1  6
 16 97  1  1
 79 82  1  0
 73 77  1  0
 22 47  1  0
 86 95  2  0
 45 35  2  0
 38 71  1  0
M  END
> <chembl_id>
CHEMBL1200501

> <chembl_pref_name>
GOSERELIN ACETATE
