
     RDKit          2D

 26 28  0  0  0  0  0  0  0  0999 V2000
    5.2792   -9.3917    0.0000 C   0  0  0  0  0  0  0  0  0  0  0  0
    5.8917   -9.7500    0.0000 C   0  0  0  0  0  0  0  0  0  0  0  0
    5.8917  -10.4542    0.0000 C   0  0  0  0  0  0  0  0  0  0  0  0
    5.8917   -8.3292    0.0000 N   0  0  0  0  0  0  0  0  0  0  0  0
    6.8250   -7.6542    0.0000 N   0  0  0  0  0  0  0  0  0  0  0  0
    2.2167   -9.7500    0.0000 C   0  0  0  0  0  0  0  0  0  0  0  0
    6.1167   -7.6542    0.0000 C   0  0  0  0  0  0  0  0  0  0  0  0
    5.2792   -8.6792    0.0000 C   0  0  0  0  0  0  0  0  0  0  0  0
    4.6667   -9.7417    0.0000 N   0  0  0  0  0  0  0  0  0  0  0  0
    6.5042  -10.8125    0.0000 C   0  0  0  0  0  0  0  0  0  0  0  0
    6.5042   -9.3917    0.0000 C   0  0  0  0  0  0  0  0  0  0  0  0
    2.8292   -9.3917    0.0000 C   0  0  0  0  0  0  0  0  0  0  0  0
    1.6042   -9.4000    0.0000 C   0  0  0  0  0  0  0  0  0  0  0  0
    7.0417   -8.3292    0.0000 C   0  0  0  0  0  0  0  0  0  0  0  0
    6.4667   -8.7500    0.0000 C   0  0  0  0  0  0  0  0  0  0  0  0
    2.8292   -8.6875    0.0000 C   0  0  0  0  0  0  0  0  0  0  0  0
    7.1167  -10.4542    0.0000 C   0  0  0  0  0  0  0  0  0  0  0  0
    4.0542   -9.3917    0.0000 O   0  0  0  0  0  0  0  0  0  0  0  0
    1.6042   -8.6875    0.0000 C   0  0  0  0  0  0  0  0  0  0  0  0
    5.2792  -10.8125    0.0000 Cl  0  0  0  0  0  0  0  0  0  0  0  0
    2.2250  -10.4542    0.0000 Cl  0  0  0  0  0  0  0  0  0  0  0  0
    7.1167   -9.7417    0.0000 C   0  0  0  0  0  0  0  0  0  0  0  0
    2.2167   -8.3292    0.0000 C   0  0  0  0  0  0  0  0  0  0  0  0
    0.9917   -8.3292    0.0000 Cl  0  0  0  0  0  0  0  0  0  0  0  0
    7.7375  -10.8125    0.0000 Cl  0  0  0  0  0  0  0  0  0  0  0  0
    3.4417   -9.7417    0.0000 C   0  0  0  0  0  0  0  0  0  0  0  0
  2  1  1  0
  3  2  2  0
  4  8  1  0
  5  7  2  0
  6 12  1  0
  7  4  1  0
  8  1  1  0
  9  1  2  0
 10  3  1  0
 11  2  1  0
 12 26  1  0
 13  6  2  0
 14 15  2  0
 15  4  1  0
 16 12  2  0
 17 22  1  0
 18  9  1  0
 19 23  2  0
 20  3  1  0
 21  6  1  0
 22 11  2  0
 23 16  1  0
 24 19  1  0
 25 17  1  0
 26 18  1  0
 14  5  1  0
 17 10  2  0
 19 13  1  0
M  END
> <chembl_id>
CHEMBL1262

> <chembl_pref_name>
OXICONAZOLE
