
     RDKit          2D

 24 28  0  0  0  0  0  0  0  0999 V2000
    2.4240   -0.5544    0.0000 N   0  0  0  0  0  0  0  0  0  0  0  0
    2.6188   -1.3560    0.0000 C   0  0  0  0  0  0  0  0  0  0  0  0
    2.0219   -1.9256    0.0000 C   0  0  0  0  0  0  0  0  0  0  0  0
    1.2303   -1.6934    0.0000 C   0  0  0  0  0  0  0  0  0  0  0  0
    0.6334   -2.2629    0.0000 N   0  0  0  0  0  0  0  0  0  0  0  0
    2.2167   -2.7272    0.0000 C   0  0  0  0  0  0  0  0  0  0  0  0
    0.8282   -3.0646    0.0000 C   0  0  0  0  0  0  0  0  0  0  0  0
    1.6198   -3.2968    0.0000 C   0  0  0  0  0  0  0  0  0  0  0  0
    0.3627   -3.7458    0.0000 N   0  0  0  0  0  0  0  0  0  0  0  0
    0.8668   -4.3989    0.0000 C   0  0  0  0  0  0  0  0  0  0  0  0
    1.6437   -4.1214    0.0000 C   0  0  0  0  0  0  0  0  0  0  0  0
    3.0084   -2.9594    0.0000 N   0  0  0  0  0  0  0  0  0  0  0  0
    3.4105   -1.5882    0.0000 O   0  0  0  0  0  0  0  0  0  0  0  0
    3.6053   -2.3899    0.0000 C   0  0  0  0  0  0  0  0  0  0  0  0
    4.3407   -2.0162    0.0000 C   0  0  0  0  0  0  0  0  0  0  0  0
    4.3407   -1.2688    0.0000 C   0  0  0  0  0  0  0  0  0  0  0  0
    4.7902   -0.4785    0.0000 C   0  0  0  0  0  0  0  0  0  0  0  0
    4.7901    0.3465    0.0000 O   0  0  0  0  0  0  0  0  0  0  0  0
    4.0547   -0.8522    0.0000 C   0  0  0  0  0  0  0  0  0  0  0  0
    4.0547   -1.5996    0.0000 C   0  0  0  0  0  0  0  0  0  0  0  0
    5.5258   -0.8522    0.0000 C   0  0  0  0  0  0  0  0  0  0  0  0
    5.5258   -1.5996    0.0000 C   0  0  0  0  0  0  0  0  0  0  0  0
    4.7902   -1.9733    0.0000 C   0  0  0  0  0  0  0  0  0  0  0  0
    5.0763   -2.3899    0.0000 C   0  0  0  0  0  0  0  0  0  0  0  0
  1  2  1  0
  2 13  2  0
  3  2  1  0
  3  6  2  0
  4  3  1  0
  4  5  2  0
  5  7  1  0
  6 12  1  0
  7  8  2  0
  8  6  1  0
  9  7  1  0
  9 10  1  0
 10 11  2  0
 11  8  1  0
 14 12  1  6
 14 15  1  0
 15 24  1  6
 16 17  1  0
 17 18  1  1
 17 21  1  6
 17 19  1  0
 24 22  1  0
 20 14  1  0
 20 23  1  1
 23 22  1  0
 21 22  1  0
 19 20  1  0
 15 16  1  0
M  END
> <chembl_id>
CHEMBL3137308

> <chembl_pref_name>
PEFICITINIB
