
     RDKit          2D

 78 81  0  0  1  0  0  0  0  0999 V2000
    1.2417  -11.8292    0.0000 S   0  0  0  0  0  0  0  0  0  0  0  0
    4.9208   -7.5875    0.0000 C   0  0  0  0  0  0  0  0  0  0  0  0
    8.6042   -9.0042    0.0000 C   0  0  0  0  0  0  0  0  0  0  0  0
   -0.6000   -8.6458    0.0000 C   0  0  0  0  0  0  0  0  0  0  0  0
    4.9208   -9.0042    0.0000 C   0  0  0  0  0  0  0  0  0  0  0  0
   -2.4417   -9.0042    0.0000 C   0  0  0  0  0  0  0  0  0  0  0  0
    6.7625   -8.6500    0.0000 C   0  0  0  0  0  0  0  0  0  0  0  0
    6.0667   -7.6042    0.0000 N   0  0  0  0  0  0  0  0  0  0  0  0
    7.3750   -9.0042    0.0000 N   0  0  0  0  0  0  0  0  0  0  0  0
   -1.8292   -8.6458    0.0000 N   0  0  0  0  0  0  0  0  0  0  0  0
    9.2167   -8.6542    0.0000 N   0  0  0  0  0  0  0  0  0  0  0  0
    7.9875   -8.6500    0.0000 C   0  0  0  0  0  0  0  0  0  0  0  0
    5.4875   -8.0125    0.0000 C   0  0  0  0  0  0  0  0  0  0  0  0
    5.5333   -8.6500    0.0000 N   0  0  0  0  0  0  0  0  0  0  0  0
    0.0125   -9.0042    0.0000 N   0  0  0  0  0  0  0  0  0  0  0  0
    7.9875   -7.9417    0.0000 C   0  0  0  0  0  0  0  0  0  0  0  0
    4.3042   -8.6500    0.0000 C   0  0  0  0  0  0  0  0  0  0  0  0
   -1.2167   -9.0000    0.0000 C   0  0  0  0  0  0  0  0  0  0  0  0
   -3.0583   -7.9417    0.0000 C   0  0  0  0  0  0  0  0  0  0  0  0
    1.2417   -9.0042    0.0000 C   0  0  0  0  0  0  0  0  0  0  0  0
    9.8250   -9.0042    0.0000 C   0  0  0  0  0  0  0  0  0  0  0  0
   10.4417   -8.6542    0.0000 C   0  0  0  0  0  0  0  0  0  0  0  0
    5.1542   -6.9167    0.0000 C   0  0  0  0  0  0  0  0  0  0  0  0
    4.3042   -7.9417    0.0000 C   0  0  0  0  0  0  0  0  0  0  0  0
    3.6917   -9.0042    0.0000 N   0  0  0  0  0  0  0  0  0  0  0  0
   -3.0583   -8.6500    0.0000 C   0  0  0  0  0  0  0  0  0  0  0  0
    6.1458   -9.0042    0.0000 C   0  0  0  0  0  0  0  0  0  0  0  0
    8.6042   -7.5875    0.0000 C   0  0  0  0  0  0  0  0  0  0  0  0
   -2.4417   -7.5875    0.0000 C   0  0  0  0  0  0  0  0  0  0  0  0
    3.0833   -8.6500    0.0000 C   0  0  0  0  0  0  0  0  0  0  0  0
    0.6250   -8.6500    0.0000 C   0  0  0  0  0  0  0  0  0  0  0  0
    1.8542   -8.6500    0.0000 N   0  0  0  0  0  0  0  0  0  0  0  0
    1.2375  -11.1208    0.0000 O   0  0  0  0  0  0  0  0  0  0  0  0
    5.8583   -6.9292    0.0000 C   0  0  0  0  0  0  0  0  0  0  0  0
    0.8875  -12.4417    0.0000 O   0  0  0  0  0  0  0  0  0  0  0  0
    0.5292  -11.8333    0.0000 O   0  0  0  0  0  0  0  0  0  0  0  0
   -0.6000   -7.9375    0.0000 O   0  0  0  0  0  0  0  0  0  0  0  0
    8.6042   -9.7125    0.0000 O   0  0  0  0  0  0  0  0  0  0  0  0
    4.9208   -9.7125    0.0000 O   0  0  0  0  0  0  0  0  0  0  0  0
   -2.4417   -9.7125    0.0000 O   0  0  0  0  0  0  0  0  0  0  0  0
    6.7625   -7.9417    0.0000 O   0  0  0  0  0  0  0  0  0  0  0  0
   -1.2167   -9.7083    0.0000 C   0  0  0  0  0  0  0  0  0  0  0  0
    9.8250   -9.7167    0.0000 C   0  0  0  0  0  0  0  0  0  0  0  0
    1.2417   -9.7125    0.0000 O   0  0  0  0  0  0  0  0  0  0  0  0
   10.4417   -7.9417    0.0000 O   0  0  0  0  0  0  0  0  0  0  0  0
    1.8542  -12.1792    0.0000 O   0  0  0  0  0  0  0  0  0  0  0  0
    8.6042   -6.8792    0.0000 O   0  0  0  0  0  0  0  0  0  0  0  0
   -2.4417   -6.8792    0.0000 O   0  0  0  0  0  0  0  0  0  0  0  0
    3.0833   -7.9417    0.0000 O   0  0  0  0  0  0  0  0  0  0  0  0
    2.4667   -9.0042    0.0000 C   0  0  0  0  0  0  0  0  0  0  0  0
   11.0542   -9.0083    0.0000 N   0  0  0  0  0  0  0  0  0  0  0  0
    0.6250  -10.7708    0.0000 C   0  0  0  0  0  0  0  0  0  0  0  0
   -0.6000  -10.0625    0.0000 C   0  0  0  0  0  0  0  0  0  0  0  0
   -3.6708   -9.0042    0.0000 N   0  0  0  0  0  0  0  0  0  0  0  0
    6.1458   -9.7125    0.0000 C   0  0  0  0  0  0  0  0  0  0  0  0
    0.6250   -7.9417    0.0000 C   0  0  0  0  0  0  0  0  0  0  0  0
   -1.8292   -7.9417    0.0000 O   0  0  0  0  0  0  0  0  0  0  0  0
    9.2125   -7.9417    0.0000 O   0  0  0  0  0  0  0  0  0  0  0  0
   10.4417  -10.0667    0.0000 C   0  0  0  0  0  0  0  0  0  0  0  0
    1.2375   -6.8750    0.0000 S   0  0  0  0  0  0  0  0  0  0  0  0
    6.7583  -10.7750    0.0000 S   0  0  0  0  0  0  0  0  0  0  0  0
    0.0125   -9.7083    0.0000 C   0  0  0  0  0  0  0  0  0  0  0  0
   -0.6000  -10.7708    0.0000 C   0  0  0  0  0  0  0  0  0  0  0  0
    0.0125  -11.1250    0.0000 C   0  0  0  0  0  0  0  0  0  0  0  0
    0.6250  -10.0625    0.0000 C   0  0  0  0  0  0  0  0  0  0  0  0
    4.8042   -6.2958    0.0000 C   0  0  0  0  0  0  0  0  0  0  0  0
    6.7625  -10.0667    0.0000 C   0  0  0  0  0  0  0  0  0  0  0  0
    1.2417   -7.5875    0.0000 C   0  0  0  0  0  0  0  0  0  0  0  0
    6.2250   -6.3208    0.0000 C   0  0  0  0  0  0  0  0  0  0  0  0
    1.8458   -6.5208    0.0000 C   0  0  0  0  0  0  0  0  0  0  0  0
    7.3667  -11.1292    0.0000 C   0  0  0  0  0  0  0  0  0  0  0  0
   10.4417  -10.7792    0.0000 C   0  0  0  0  0  0  0  0  0  0  0  0
   11.0542   -9.7167    0.0000 C   0  0  0  0  0  0  0  0  0  0  0  0
    5.1708   -5.6875    0.0000 C   0  0  0  0  0  0  0  0  0  0  0  0
    5.8833   -5.7000    0.0000 C   0  0  0  0  0  0  0  0  0  0  0  0
   11.6667  -10.0667    0.0000 C   0  0  0  0  0  0  0  0  0  0  0  0
   11.0542  -11.1292    0.0000 C   0  0  0  0  0  0  0  0  0  0  0  0
   11.6667  -10.7792    0.0000 C   0  0  0  0  0  0  0  0  0  0  0  0
  2 24  1  0
  3 12  1  0
  4 18  1  0
  5 17  1  0
  6 10  1  0
  7 27  1  0
  8 13  1  0
  9  7  1  0
 10 18  1  0
 11  3  1  0
 12  9  1  0
 13  2  2  0
 14  5  1  0
 15  4  1  0
 12 16  1  1
 17 25  1  0
 18 42  1  6
 26 19  1  1
 20 31  1  0
 21 11  1  0
 22 21  1  0
 23  2  1  0
 17 24  1  1
 25 30  1  0
 26  6  1  0
 27 14  1  0
 28 16  1  0
 29 19  1  0
 30 50  1  0
 31 15  1  0
 32 20  1  0
 33  1  1  0
 34 23  2  0
 35  1  2  0
 36  1  2  0
 37  4  2  0
 38  3  2  0
 39  5  2  0
 40  6  2  0
 41  7  2  0
 42 53  1  0
 21 43  1  6
 44 20  2  0
 45 22  2  0
 46  1  1  0
 47 28  2  0
 48 29  2  0
 49 30  2  0
 50 32  1  0
 51 22  1  0
 52 33  1  0
 53 62  2  0
 54 26  1  0
 27 55  1  6
 31 56  1  1
 57 29  1  0
 58 28  1  0
 59 43  1  0
 60 68  1  0
 61 67  1  0
 62 65  1  0
 63 64  2  0
 64 52  1  0
 65 52  2  0
 66 23  1  0
 67 55  1  0
 68 56  1  0
 69 34  1  0
 70 60  1  0
 71 61  1  0
 72 59  1  0
 73 59  2  0
 74 66  2  0
 75 74  1  0
 76 73  1  0
 77 72  2  0
 78 77  1  0
 63 53  1  0
  8 34  1  0
 69 75  2  0
 76 78  2  0
M  END
> <chembl_id>
CHEMBL1121

> <chembl_pref_name>
SINCALIDE
