
     RDKit          2D

 17 18  0  0  0  0  0  0  0  0999 V2000
   -1.2458    0.5125    0.0000 C   0  0  0  0  0  0  0  0  0  0  0  0
   -2.3458    1.1500    0.0000 N   0  0  0  0  0  0  0  0  0  0  0  0
   -0.1458    1.1375    0.0000 C   0  0  0  0  0  0  0  0  0  0  0  0
    0.9542   -0.7625    0.0000 C   0  0  0  0  0  0  0  0  0  0  0  0
    3.1500   -0.7792    0.0000 C   0  0  0  0  0  0  0  0  0  0  0  0
    0.9542    0.4958    0.0000 C   0  0  0  0  0  0  0  0  0  0  0  0
    2.0417   -1.4000    0.0000 C   0  0  0  0  0  0  0  0  0  0  0  0
   -1.2500   -0.7542    0.0000 C   0  0  0  0  0  0  0  0  0  0  0  0
   -0.1458   -1.4000    0.0000 C   0  0  0  0  0  0  0  0  0  0  0  0
    3.1417    0.4875    0.0000 O   0  0  0  0  0  0  0  0  0  0  0  0
   -3.7083    2.6833    0.0000 C   0  0  0  0  0  0  0  0  0  0  0  0
   -4.3458    1.5875    0.0000 C   0  0  0  0  0  0  0  0  0  0  0  0
   -0.1458    2.4333    0.0000 Cl  0  0  0  0  0  0  0  0  0  0  0  0
    4.2500   -1.4250    0.0000 O   0  0  0  0  0  0  0  0  0  0  0  0
   -2.4708    2.4125    0.0000 C   0  0  0  0  0  0  0  0  0  0  0  0
   -3.5000    0.6458    0.0000 C   0  0  0  0  0  0  0  0  0  0  0  0
    2.0417   -2.6792    0.0000 C   0  0  0  0  0  0  0  0  0  0  0  0
  2  1  1  0
  3  1  1  0
  4  9  2  0
  5  7  1  0
  6  3  2  0
  7  4  1  0
  8  1  2  0
  9  8  1  0
 10  5  2  0
 11 15  1  0
 12 16  1  0
 13  3  1  0
 14  5  1  0
 15  2  1  0
 16  2  1  0
 17  7  1  0
  6  4  1  0
 11 12  2  0
M  END
> <chembl_id>
CHEMBL188952

> <chembl_pref_name>
PIRPROFEN
