
     RDKit          2D

 74 77  0  0  0  0  0  0  0  0999 V2000
    8.0488    4.2997    0.0000 C   0  0  0  0  0  0  0  0  0  0  0  0
    8.7633    3.8872    0.0000 N   0  0  0  0  0  0  0  0  0  0  0  0
    8.7633    3.0622    0.0000 C   0  0  0  0  0  0  0  0  0  0  0  0
    8.0488    2.6497    0.0000 N   0  0  0  0  0  0  0  0  0  0  0  0
    7.3343    3.0622    0.0000 C   0  0  0  0  0  0  0  0  0  0  0  0
    7.3343    3.8872    0.0000 C   0  0  0  0  0  0  0  0  0  0  0  0
    6.5497    2.8073    0.0000 N   0  0  0  0  0  0  0  0  0  0  0  0
    6.0648    3.4747    0.0000 C   0  0  0  0  0  0  0  0  0  0  0  0
    6.5497    4.1422    0.0000 N   0  0  0  0  0  0  0  0  0  0  0  0
    6.2948    2.0227    0.0000 C   0  0  0  0  0  0  0  0  0  0  0  0
    8.0488    5.1247    0.0000 N   0  0  0  0  0  0  0  0  0  0  0  0
    6.8320    1.3965    0.0000 C   0  0  0  0  0  0  0  0  0  0  0  0
    7.6401    1.5629    0.0000 C   0  0  0  0  0  0  0  0  0  0  0  0
    6.5771    0.6119    0.0000 O   0  0  0  0  0  0  0  0  0  0  0  0
    7.1430    0.0116    0.0000 C   0  0  0  0  0  0  0  0  0  0  0  0
    6.8881   -0.7731    0.0000 P   0  0  0  0  0  0  0  0  0  0  0  0
    6.1034   -0.5181    0.0000 O   0  0  0  0  0  0  0  0  0  0  0  0
    7.6727   -1.0280    0.0000 O   0  0  0  0  0  0  0  0  0  0  0  0
    6.6331   -1.5577    0.0000 N   0  0  0  0  0  0  0  0  0  0  0  0
    7.1852   -2.1708    0.0000 C   0  0  0  0  0  0  0  0  0  0  0  0
    6.9302   -2.9554    0.0000 C   0  0  0  0  0  0  0  0  0  0  0  0
    7.4823   -3.5685    0.0000 O   0  0  0  0  0  0  0  0  0  0  0  0
    7.9921   -1.9992    0.0000 C   0  0  0  0  0  0  0  0  0  0  0  0
    5.4904   -1.0701    0.0000 C   0  0  0  0  0  0  0  0  0  0  0  0
    5.6619   -1.8771    0.0000 C   0  0  0  0  0  0  0  0  0  0  0  0
    5.0488   -2.4292    0.0000 C   0  0  0  0  0  0  0  0  0  0  0  0
    4.2642   -2.1742    0.0000 C   0  0  0  0  0  0  0  0  0  0  0  0
    4.0926   -1.3672    0.0000 C   0  0  0  0  0  0  0  0  0  0  0  0
    4.7057   -0.8152    0.0000 C   0  0  0  0  0  0  0  0  0  0  0  0
    6.1233   -3.1269    0.0000 O   0  0  0  0  0  0  0  0  0  0  0  0
    7.2273   -4.3531    0.0000 C   0  0  0  0  0  0  0  0  0  0  0  0
    7.7794   -4.9662    0.0000 C   0  0  0  0  0  0  0  0  0  0  0  0
    6.4203   -4.5246    0.0000 C   0  0  0  0  0  0  0  0  0  0  0  0
    1.6500   -7.3358    0.0000 O   0  0  0  0  0  0  0  0  0  0  0  0
    0.8250   -7.3358    0.0000 C   0  0  0  0  0  0  0  0  0  0  0  0
    0.4125   -6.6213    0.0000 O   0  0  0  0  0  0  0  0  0  0  0  0
    0.4125   -8.0502    0.0000 C   0  0  0  0  0  0  0  0  0  0  0  0
   -0.4125   -8.0502    0.0000 C   0  0  0  0  0  0  0  0  0  0  0  0
   -0.8250   -8.7647    0.0000 C   0  0  0  0  0  0  0  0  0  0  0  0
   -0.4125   -9.4792    0.0000 O   0  0  0  0  0  0  0  0  0  0  0  0
   -1.6500   -8.7647    0.0000 O   0  0  0  0  0  0  0  0  0  0  0  0
    1.2318    4.2943    0.0000 C   0  0  0  0  0  0  0  0  0  0  0  0
    1.9463    3.8818    0.0000 N   0  0  0  0  0  0  0  0  0  0  0  0
    1.9463    3.0568    0.0000 C   0  0  0  0  0  0  0  0  0  0  0  0
    1.2318    2.6443    0.0000 N   0  0  0  0  0  0  0  0  0  0  0  0
    0.5174    3.0568    0.0000 C   0  0  0  0  0  0  0  0  0  0  0  0
    0.5174    3.8818    0.0000 C   0  0  0  0  0  0  0  0  0  0  0  0
   -0.2673    2.8019    0.0000 N   0  0  0  0  0  0  0  0  0  0  0  0
   -0.7522    3.4693    0.0000 C   0  0  0  0  0  0  0  0  0  0  0  0
   -0.2673    4.1368    0.0000 N   0  0  0  0  0  0  0  0  0  0  0  0
   -0.5222    2.0173    0.0000 C   0  0  0  0  0  0  0  0  0  0  0  0
    1.2318    5.1193    0.0000 N   0  0  0  0  0  0  0  0  0  0  0  0
    0.0298    1.4042    0.0000 C   0  0  0  0  0  0  0  0  0  0  0  0
    0.8368    1.5757    0.0000 C   0  0  0  0  0  0  0  0  0  0  0  0
   -0.2251    0.6196    0.0000 O   0  0  0  0  0  0  0  0  0  0  0  0
    0.3269    0.0065    0.0000 C   0  0  0  0  0  0  0  0  0  0  0  0
    0.0720   -0.7782    0.0000 P   0  0  0  0  0  0  0  0  0  0  0  0
   -0.7126   -0.5232    0.0000 O   0  0  0  0  0  0  0  0  0  0  0  0
    0.8566   -1.0331    0.0000 O   0  0  0  0  0  0  0  0  0  0  0  0
   -0.1829   -1.5628    0.0000 N   0  0  0  0  0  0  0  0  0  0  0  0
    0.3691   -2.1759    0.0000 C   0  0  0  0  0  0  0  0  0  0  0  0
    0.1142   -2.9605    0.0000 C   0  0  0  0  0  0  0  0  0  0  0  0
    0.6662   -3.5736    0.0000 O   0  0  0  0  0  0  0  0  0  0  0  0
    1.1761   -2.0043    0.0000 C   0  0  0  0  0  0  0  0  0  0  0  0
   -1.3257   -1.0753    0.0000 C   0  0  0  0  0  0  0  0  0  0  0  0
   -1.1542   -1.8822    0.0000 C   0  0  0  0  0  0  0  0  0  0  0  0
   -1.7673   -2.4343    0.0000 C   0  0  0  0  0  0  0  0  0  0  0  0
   -2.5519   -2.1793    0.0000 C   0  0  0  0  0  0  0  0  0  0  0  0
   -2.7234   -1.3723    0.0000 C   0  0  0  0  0  0  0  0  0  0  0  0
   -2.1103   -0.8203    0.0000 C   0  0  0  0  0  0  0  0  0  0  0  0
   -0.6928   -3.1320    0.0000 O   0  0  0  0  0  0  0  0  0  0  0  0
    0.4112   -4.3582    0.0000 C   0  0  0  0  0  0  0  0  0  0  0  0
    0.9633   -4.9713    0.0000 C   0  0  0  0  0  0  0  0  0  0  0  0
   -0.3957   -4.5297    0.0000 C   0  0  0  0  0  0  0  0  0  0  0  0
  1  2  2  0
  1  6  1  0
  1 11  1  0
  2  3  1  0
  3  4  2  0
  4  5  1  0
  5  7  1  0
  6  5  2  0
  6  9  1  0
  7  8  1  0
  7 10  1  0
  8  9  2  0
 10 12  1  0
 12 13  1  1
 12 14  1  0
 14 15  1  0
 15 16  1  0
 16 17  1  0
 16 18  2  0
 16 19  1  1
 17 24  1  0
 19 20  1  0
 20 21  1  0
 20 23  1  1
 21 22  1  0
 21 30  2  0
 22 31  1  0
 24 25  2  0
 24 29  1  0
 25 26  1  0
 26 27  2  0
 27 28  1  0
 28 29  2  0
 31 32  1  0
 31 33  1  0
 34 35  2  0
 35 36  1  0
 35 37  1  0
 37 38  2  0
 38 39  1  0
 39 40  2  0
 39 41  1  0
 42 43  2  0
 43 44  1  0
 44 45  2  0
 45 46  1  0
 42 47  1  0
 46 48  1  0
 47 46  2  0
 47 50  1  0
 48 49  1  0
 49 50  2  0
 48 51  1  0
 42 52  1  0
 51 53  1  0
 53 54  1  1
 53 55  1  0
 55 56  1  0
 56 57  1  0
 57 58  1  0
 57 59  2  0
 57 60  1  1
 60 61  1  0
 61 62  1  0
 62 63  1  0
 61 64  1  1
 58 65  1  0
 65 66  2  0
 65 70  1  0
 66 67  1  0
 67 68  2  0
 68 69  1  0
 69 70  2  0
 62 71  2  0
 63 72  1  0
 72 73  1  0
 72 74  1  0
M  END
> <chembl_id>
CHEMBL2364637

> <chembl_pref_name>
TENOFOVIR ALAFENAMIDE FUMARATE
