
     RDKit          2D

 34 38  0  0  1  0  0  0  0  0999 V2000
    1.7292   -2.0167    0.0000 C   0  0  0  0  0  0  0  0  0  0  0  0
    1.7292   -2.7375    0.0000 C   0  0  0  0  0  0  0  0  0  0  0  0
   -0.1083   -3.8000    0.0000 C   0  0  0  0  0  0  0  0  0  0  0  0
    1.1292   -3.0917    0.0000 C   0  0  0  0  0  0  0  0  0  0  0  0
    0.5042   -2.7292    0.0000 C   0  0  0  0  0  0  0  0  0  0  0  0
   -0.1083   -3.0917    0.0000 C   0  0  0  0  0  0  0  0  0  0  0  0
    2.4042   -1.8000    0.0000 C   0  0  0  0  0  0  0  0  0  0  0  0
   -0.7333   -4.1625    0.0000 C   0  0  0  0  0  0  0  0  0  0  0  0
    1.1417   -1.6500    0.0000 C   0  0  0  0  0  0  0  0  0  0  0  0
    0.5167   -2.0125    0.0000 C   0  0  0  0  0  0  0  0  0  0  0  0
    1.1292   -3.8000    0.0000 C   0  0  0  0  0  0  0  0  0  0  0  0
    2.4042   -2.9542    0.0000 C   0  0  0  0  0  0  0  0  0  0  0  0
    2.4042   -1.0792    0.0000 O   0  0  0  0  0  0  0  0  0  0  0  0
    3.0125   -0.7042    0.0000 C   0  0  0  0  0  0  0  0  0  0  0  0
   -0.7333   -2.7292    0.0000 C   0  0  0  0  0  0  0  0  0  0  0  0
    0.5042   -4.1625    0.0000 C   0  0  0  0  0  0  0  0  0  0  0  0
   -1.3458   -3.8000    0.0000 C   0  0  0  0  0  0  0  0  0  0  0  0
    2.8167   -2.3667    0.0000 C   0  0  0  0  0  0  0  0  0  0  0  0
    3.0042   -0.0042    0.0000 O   0  0  0  0  0  0  0  0  0  0  0  0
   -1.9833   -4.1750    0.0000 O   0  0  0  0  0  0  0  0  0  0  0  0
   -1.3458   -3.0917    0.0000 C   0  0  0  0  0  0  0  0  0  0  0  0
    3.6292   -1.0417    0.0000 C   0  0  0  0  0  0  0  0  0  0  0  0
    1.7542   -1.3042    0.0000 C   0  0  0  0  0  0  0  0  0  0  0  0
    4.2292   -0.6667    0.0000 C   0  0  0  0  0  0  0  0  0  0  0  0
    4.8667   -1.0000    0.0000 C   0  0  0  0  0  0  0  0  0  0  0  0
    4.8917   -1.7042    0.0000 C   0  0  0  0  0  0  0  0  0  0  0  0
    5.4542   -0.6167    0.0000 C   0  0  0  0  0  0  0  0  0  0  0  0
    5.5167   -2.0292    0.0000 C   0  0  0  0  0  0  0  0  0  0  0  0
    6.0875   -0.9417    0.0000 C   0  0  0  0  0  0  0  0  0  0  0  0
    6.1167   -1.6500    0.0000 C   0  0  0  0  0  0  0  0  0  0  0  0
    1.7292   -3.4417    0.0000 H   0  0  0  0  0  0  0  0  0  0  0  0
    1.1292   -2.3667    0.0000 H   0  0  0  0  0  0  0  0  0  0  0  0
    0.5042   -3.4417    0.0000 H   0  0  0  0  0  0  0  0  0  0  0  0
   -0.1125   -2.3792    0.0000 H   0  0  0  0  0  0  0  0  0  0  0  0
  2  1  1  0
  3  6  1  0
  4  2  1  0
  5 10  1  0
  6  5  1  0
  7  1  1  0
  8  3  2  0
  9  1  1  0
 10  9  1  0
 11  4  1  0
 12  2  1  0
  7 13  1  1
 14 13  1  0
 15  6  1  0
 16 11  1  0
 17 21  1  0
 18  7  1  0
 19 14  2  0
 20 17  2  0
 21 15  1  0
 22 14  1  0
  1 23  1  1
 24 22  1  0
 25 24  1  0
 26 25  2  0
 27 25  1  0
 28 26  1  0
 29 27  2  0
 30 29  1  0
  2 31  1  6
  4 32  1  1
  5 33  1  6
  6 34  1  1
 18 12  1  0
  5  4  1  0
  3 16  1  0
 17  8  1  0
 30 28  2  0
M  END
> <chembl_id>
CHEMBL1200412

> <chembl_pref_name>
NANDROLONE PHENPROPIONATE
