
     RDKit          2D

 82 85  0  0  0  0  0  0  0  0999 V2000
   11.8311   -8.6975    0.0000 N   0  0  0  0  0  0  0  0  0  0  0  0
   17.6794   -9.5350    0.0000 N   0  0  0  0  0  0  0  0  0  0  0  0
   12.7765   -9.2852    0.0000 C   0  0  0  0  0  0  0  0  0  0  0  0
   16.9300   -9.1187    0.0000 C   0  0  0  0  0  0  0  0  0  0  0  0
   15.1570  -10.7938    0.0000 C   0  0  0  0  0  0  0  0  0  0  0  0
   11.8801   -7.1986    0.0000 C   0  0  0  0  0  0  0  0  0  0  0  0
   12.7716  -10.2942    0.0000 C   0  0  0  0  0  0  0  0  0  0  0  0
   16.9447   -8.3546    0.0000 C   0  0  0  0  0  0  0  0  0  0  0  0
   11.5275   -7.9921    0.0000 C   0  0  0  0  0  0  0  0  0  0  0  0
   15.9945  -10.3677    0.0000 N   0  0  0  0  0  0  0  0  0  0  0  0
   13.8051  -10.7840    0.0000 N   0  0  0  0  0  0  0  0  0  0  0  0
   16.1953   -7.9431    0.0000 N   0  0  0  0  0  0  0  0  0  0  0  0
   14.4908  -10.4020    0.0000 C   0  0  0  0  0  0  0  0  0  0  0  0
   12.6589   -6.7431    0.0000 N   0  0  0  0  0  0  0  0  0  0  0  0
   16.8174  -10.8232    0.0000 C   0  0  0  0  0  0  0  0  0  0  0  0
   17.5031  -10.4167    0.0000 C   0  0  0  0  0  0  0  0  0  0  0  0
   16.1856   -7.0958    0.0000 C   0  0  0  0  0  0  0  0  0  0  0  0
   15.1570  -11.5726    0.0000 C   0  0  0  0  0  0  0  0  0  0  0  0
   13.3349   -7.1105    0.0000 C   0  0  0  0  0  0  0  0  0  0  0  0
   15.4802   -6.6941    0.0000 C   0  0  0  0  0  0  0  0  0  0  0  0
   11.2336   -9.2265    0.0000 C   0  0  0  0  0  0  0  0  0  0  0  0
   14.7455   -7.1105    0.0000 C   0  0  0  0  0  0  0  0  0  0  0  0
   14.5104  -11.9155    0.0000 C   0  0  0  0  0  0  0  0  0  0  0  0
   15.4606   -5.9790    0.0000 N   0  0  0  0  0  0  0  0  0  0  0  0
   18.7718   -9.5350    0.0000 C   0  0  0  0  0  0  0  0  0  0  0  0
   18.2721  -10.8967    0.0000 C   0  0  0  0  0  0  0  0  0  0  0  0
   14.0108   -6.7137    0.0000 C   0  0  0  0  0  0  0  0  0  0  0  0
   10.7193   -7.9921    0.0000 C   0  0  0  0  0  0  0  0  0  0  0  0
   16.2149   -5.4892    0.0000 C   0  0  0  0  0  0  0  0  0  0  0  0
   13.4475   -8.8003    0.0000 O   0  0  0  0  0  0  0  0  0  0  0  0
   16.2443   -9.5350    0.0000 O   0  0  0  0  0  0  0  0  0  0  0  0
   10.5233   -8.8542    0.0000 C   0  0  0  0  0  0  0  0  0  0  0  0
   11.1895   -6.6647    0.0000 O   0  0  0  0  0  0  0  0  0  0  0  0
   14.4908   -9.6917    0.0000 O   0  0  0  0  0  0  0  0  0  0  0  0
   16.8174  -11.6216    0.0000 O   0  0  0  0  0  0  0  0  0  0  0  0
   14.5055  -12.6061    0.0000 C   0  0  0  0  0  0  0  0  0  0  0  0
   12.1152  -10.6909    0.0000 C   0  0  0  0  0  0  0  0  0  0  0  0
   16.8468   -6.7088    0.0000 O   0  0  0  0  0  0  0  0  0  0  0  0
   17.6403   -7.9187    0.0000 C   0  0  0  0  0  0  0  0  0  0  0  0
   18.9872  -10.3971    0.0000 C   0  0  0  0  0  0  0  0  0  0  0  0
   16.2296   -4.6271    0.0000 O   0  0  0  0  0  0  0  0  0  0  0  0
   13.3496   -7.9480    0.0000 N   0  0  0  0  0  0  0  0  0  0  0  0
   13.8492  -12.9832    0.0000 C   0  0  0  0  0  0  0  0  0  0  0  0
   15.1570  -13.0029    0.0000 C   0  0  0  0  0  0  0  0  0  0  0  0
   15.8770  -11.9693    0.0000 O   0  0  0  0  0  0  0  0  0  0  0  0
   13.8002  -11.4747    0.0000 O   0  0  0  0  0  0  0  0  0  0  0  0
   14.4810  -14.1490    0.0000 C   0  0  0  0  0  0  0  0  0  0  0  0
   13.9961   -5.9349    0.0000 O   0  0  0  0  0  0  0  0  0  0  0  0
   13.8492  -13.7620    0.0000 C   0  0  0  0  0  0  0  0  0  0  0  0
   15.1570  -13.7670    0.0000 C   0  0  0  0  0  0  0  0  0  0  0  0
   11.4344  -10.3432    0.0000 C   0  0  0  0  0  0  0  0  0  0  0  0
   10.1854   -7.3553    0.0000 O   0  0  0  0  0  0  0  0  0  0  0  0
    9.9846  -10.4117    0.0000 N   0  0  0  0  0  0  0  0  0  0  0  0
   19.9130  -10.7253    0.0000 O   0  0  0  0  0  0  0  0  0  0  0  0
   15.5243   -8.3448    0.0000 N   0  0  0  0  0  0  0  0  0  0  0  0
   23.1947   -5.4206    0.0000 C   0  0  0  0  0  0  0  0  0  0  0  0
   12.1299  -11.4747    0.0000 O   0  0  0  0  0  0  0  0  0  0  0  0
   17.6697   -7.0908    0.0000 O   0  0  0  0  0  0  0  0  0  0  0  0
   14.4908  -14.9866    0.0000 O   0  0  0  0  0  0  0  0  0  0  0  0
   16.8762   -5.8565    0.0000 C   0  0  0  0  0  0  0  0  0  0  0  0
   10.7340  -10.7938    0.0000 C   0  0  0  0  0  0  0  0  0  0  0  0
   23.9294   -5.8321    0.0000 C   0  0  0  0  0  0  0  0  0  0  0  0
   22.4698   -5.8321    0.0000 C   0  0  0  0  0  0  0  0  0  0  0  0
   14.0793   -8.3595    0.0000 C   0  0  0  0  0  0  0  0  0  0  0  0
   14.7896   -7.9334    0.0000 C   0  0  0  0  0  0  0  0  0  0  0  0
   18.3162   -8.3448    0.0000 C   0  0  0  0  0  0  0  0  0  0  0  0
   24.6445   -5.4206    0.0000 C   0  0  0  0  0  0  0  0  0  0  0  0
   21.7547   -5.4206    0.0000 C   0  0  0  0  0  0  0  0  0  0  0  0
   17.4934   -5.4892    0.0000 C   0  0  0  0  0  0  0  0  0  0  0  0
   21.0200   -5.8321    0.0000 C   0  0  0  0  0  0  0  0  0  0  0  0
   19.5652   -5.8321    0.0000 C   0  0  0  0  0  0  0  0  0  0  0  0
   20.3000   -5.4206    0.0000 C   0  0  0  0  0  0  0  0  0  0  0  0
   18.1203   -5.8321    0.0000 C   0  0  0  0  0  0  0  0  0  0  0  0
   18.8452   -5.4206    0.0000 C   0  0  0  0  0  0  0  0  0  0  0  0
   22.4600   -6.6696    0.0000 C   0  0  0  0  0  0  0  0  0  0  0  0
   23.9392   -6.6696    0.0000 C   0  0  0  0  0  0  0  0  0  0  0  0
   25.3792   -5.8321    0.0000 C   0  0  0  0  0  0  0  0  0  0  0  0
   10.9397   -7.3603    0.0000 H   0  0  0  0  0  0  0  0  0  0  0  0
   12.0515   -9.8583    0.0000 H   0  0  0  0  0  0  0  0  0  0  0  0
   15.8770  -11.1955    0.0000 H   0  0  0  0  0  0  0  0  0  0  0  0
   17.5619  -11.2787    0.0000 H   0  0  0  0  0  0  0  0  0  0  0  0
   17.7285   -8.8003    0.0000 H   0  0  0  0  0  0  0  0  0  0  0  0
  2 16  1  0
  3  1  1  0
  4  2  1  0
  5 13  1  0
  6  9  1  0
  7  3  1  0
  8 12  1  0
  9  1  1  0
 10  5  1  0
 11  7  1  0
 12 17  1  0
 13 11  1  0
 14  6  1  0
 15 10  1  0
 16 15  1  0
 17 20  1  0
 18  5  1  0
 19 14  1  0
 20 22  1  0
 21  1  1  0
 22 27  1  0
 23 18  1  0
 20 24  1  6
 25  2  1  0
 26 16  1  0
 27 19  1  0
 28  9  1  0
 29 24  1  0
 30  3  2  0
 31  4  2  0
 32 21  1  0
 33  6  2  0
 34 13  2  0
 35 15  2  0
 36 23  1  0
 37  7  1  0
 38 17  2  0
 39  8  1  0
 40 26  1  0
 41 29  2  0
 19 42  1  1
 43 36  2  0
 44 36  1  0
 18 45  1  6
 23 46  1  6
 47 50  1  0
 27 48  1  6
 49 43  1  0
 50 44  2  0
 51 37  1  0
 28 52  1  6
 53 61  1  0
 40 54  1  6
 55 65  1  0
 56 63  1  0
 37 57  1  6
 39 58  1  6
 59 47  1  0
 60 29  1  0
 61 51  1  0
 62 56  1  0
 63 68  1  0
 64 42  1  0
 65 64  1  0
 66 39  1  0
 67 62  1  0
 68 70  1  0
 69 60  1  0
 70 72  1  0
 71 74  1  0
 72 71  1  0
 73 69  1  0
 74 73  1  0
 63 75  1  6
 62 76  1  6
 77 67  1  0
  9 78  1  6
  7 79  1  6
  5 80  1  6
 16 81  1  6
  8 82  1  6
 32 28  1  0
  4  8  1  0
 47 49  2  0
 40 25  1  0
M  END
> <chembl_id>
CHEMBL1630575

> <chembl_pref_name>
CASPOFUNGIN
