
     RDKit          2D

 68 71  0  0  0  0  0  0  0  0999 V2000
   24.0954   -3.8289    0.0000 C   0  0  0  0  0  0  0  0  0  0  0  0
   23.3809   -4.2414    0.0000 C   0  0  0  0  0  0  0  0  0  0  0  0
   22.6664   -3.8289    0.0000 C   0  0  0  0  0  0  0  0  0  0  0  0
   21.9519   -4.2414    0.0000 C   0  0  0  0  0  0  0  0  0  0  0  0
   21.2375   -3.8289    0.0000 C   0  0  0  0  0  0  0  0  0  0  0  0
   20.5230   -4.2414    0.0000 C   0  0  0  0  0  0  0  0  0  0  0  0
   19.8085   -3.8289    0.0000 C   0  0  0  0  0  0  0  0  0  0  0  0
   19.0941   -4.2414    0.0000 C   0  0  0  0  0  0  0  0  0  0  0  0
   18.3796   -3.8289    0.0000 N   0  0  0  0  0  0  0  0  0  0  0  0
   17.6651   -4.2414    0.0000 C   0  0  0  0  0  0  0  0  0  0  0  0
   17.6651   -5.0664    0.0000 C   0  0  0  0  0  0  0  0  0  0  0  0
   16.9506   -5.4789    0.0000 C   0  0  0  0  0  0  0  0  0  0  0  0
   16.2362   -5.0664    0.0000 C   0  0  0  0  0  0  0  0  0  0  0  0
   15.5217   -5.4789    0.0000 C   0  0  0  0  0  0  0  0  0  0  0  0
   15.5217   -6.3039    0.0000 C   0  0  0  0  0  0  0  0  0  0  0  0
   16.2362   -6.7164    0.0000 C   0  0  0  0  0  0  0  0  0  0  0  0
   16.9506   -6.3039    0.0000 C   0  0  0  0  0  0  0  0  0  0  0  0
   14.8072   -6.7164    0.0000 O   0  0  0  0  0  0  0  0  0  0  0  0
   14.0928   -6.3039    0.0000 C   0  0  0  0  0  0  0  0  0  0  0  0
   14.0928   -5.4789    0.0000 C   0  0  0  0  0  0  0  0  0  0  0  0
   14.8072   -5.0664    0.0000 O   0  0  0  0  0  0  0  0  0  0  0  0
   18.3796   -5.4789    0.0000 O   0  0  0  0  0  0  0  0  0  0  0  0
   16.9506   -3.8289    0.0000 C   0  0  0  0  0  0  0  0  0  0  0  0
   16.9506   -3.0039    0.0000 N   0  0  0  0  0  0  0  0  0  0  0  0
   16.2832   -2.5189    0.0000 C   0  0  0  0  0  0  0  0  0  0  0  0
   16.5381   -1.7343    0.0000 C   0  0  0  0  0  0  0  0  0  0  0  0
   17.3631   -1.7343    0.0000 C   0  0  0  0  0  0  0  0  0  0  0  0
   17.6181   -2.5189    0.0000 C   0  0  0  0  0  0  0  0  0  0  0  0
   19.0941   -5.0664    0.0000 O   0  0  0  0  0  0  0  0  0  0  0  0
   26.3030   -7.6322    0.0000 O   0  0  0  0  0  0  0  0  0  0  0  0
   25.5886   -5.5697    0.0000 O   0  0  0  0  0  0  0  0  0  0  0  0
   24.1596   -6.3948    0.0000 O   0  0  0  0  0  0  0  0  0  0  0  0
   24.8740   -7.6323    0.0000 O   0  0  0  0  0  0  0  0  0  0  0  0
   27.7320   -6.8072    0.0000 O   0  0  0  0  0  0  0  0  0  0  0  0
   27.0176   -5.5697    0.0000 O   0  0  0  0  0  0  0  0  0  0  0  0
   24.8732   -6.8074    0.0000 C   0  0  0  0  0  0  0  0  0  0  0  0
   25.5883   -6.3946    0.0000 C   0  0  0  0  0  0  0  0  0  0  0  0
   26.3033   -6.8074    0.0000 C   0  0  0  0  0  0  0  0  0  0  0  0
   27.0184   -6.3946    0.0000 C   0  0  0  0  0  0  0  0  0  0  0  0
   24.1886   -9.7435    0.0000 C   0  0  0  0  0  0  0  0  0  0  0  0
   23.4742  -10.1560    0.0000 C   0  0  0  0  0  0  0  0  0  0  0  0
   22.7597   -9.7435    0.0000 C   0  0  0  0  0  0  0  0  0  0  0  0
   22.0452  -10.1560    0.0000 C   0  0  0  0  0  0  0  0  0  0  0  0
   21.3307   -9.7435    0.0000 C   0  0  0  0  0  0  0  0  0  0  0  0
   20.6163  -10.1560    0.0000 C   0  0  0  0  0  0  0  0  0  0  0  0
   19.9018   -9.7435    0.0000 C   0  0  0  0  0  0  0  0  0  0  0  0
   19.1873  -10.1560    0.0000 C   0  0  0  0  0  0  0  0  0  0  0  0
   18.4729   -9.7435    0.0000 N   0  0  0  0  0  0  0  0  0  0  0  0
   17.7584  -10.1560    0.0000 C   0  0  0  0  0  0  0  0  0  0  0  0
   17.7584  -10.9810    0.0000 C   0  0  0  0  0  0  0  0  0  0  0  0
   17.0439  -11.3935    0.0000 C   0  0  0  0  0  0  0  0  0  0  0  0
   16.3294  -10.9810    0.0000 C   0  0  0  0  0  0  0  0  0  0  0  0
   15.6150  -11.3935    0.0000 C   0  0  0  0  0  0  0  0  0  0  0  0
   15.6150  -12.2185    0.0000 C   0  0  0  0  0  0  0  0  0  0  0  0
   16.3294  -12.6310    0.0000 C   0  0  0  0  0  0  0  0  0  0  0  0
   17.0439  -12.2185    0.0000 C   0  0  0  0  0  0  0  0  0  0  0  0
   14.9005  -12.6310    0.0000 O   0  0  0  0  0  0  0  0  0  0  0  0
   14.1860  -12.2185    0.0000 C   0  0  0  0  0  0  0  0  0  0  0  0
   14.1860  -11.3935    0.0000 C   0  0  0  0  0  0  0  0  0  0  0  0
   14.9005  -10.9810    0.0000 O   0  0  0  0  0  0  0  0  0  0  0  0
   18.4729  -11.3935    0.0000 O   0  0  0  0  0  0  0  0  0  0  0  0
   17.0439   -9.7435    0.0000 C   0  0  0  0  0  0  0  0  0  0  0  0
   17.0439   -8.9185    0.0000 N   0  0  0  0  0  0  0  0  0  0  0  0
   16.3765   -8.4336    0.0000 C   0  0  0  0  0  0  0  0  0  0  0  0
   16.6314   -7.6489    0.0000 C   0  0  0  0  0  0  0  0  0  0  0  0
   17.4564   -7.6489    0.0000 C   0  0  0  0  0  0  0  0  0  0  0  0
   17.7114   -8.4336    0.0000 C   0  0  0  0  0  0  0  0  0  0  0  0
   19.1873  -10.9810    0.0000 O   0  0  0  0  0  0  0  0  0  0  0  0
  1  2  1  0
  2  3  1  0
  3  4  1  0
  4  5  1  0
  5  6  1  0
  6  7  1  0
  7  8  1  0
  8  9  1  0
 10  9  1  1
 10 11  1  0
 11 12  1  0
 12 13  1  0
 12 17  2  0
 13 14  2  0
 15 16  2  0
 16 17  1  0
 21 14  1  0
 14 15  1  0
 15 18  1  0
 18 19  1  0
 19 20  1  0
 20 21  1  0
 11 22  1  6
 10 23  1  0
 23 24  1  0
 24 25  1  0
 24 28  1  0
 25 26  1  0
 26 27  1  0
 27 28  1  0
  8 29  2  0
 36 33  2  0
 37 31  1  0
 38 30  1  0
 36 32  1  0
 38 39  1  0
 37 38  1  0
 39 34  1  0
 36 37  1  0
 39 35  2  0
 40 41  1  0
 41 42  1  0
 42 43  1  0
 43 44  1  0
 44 45  1  0
 45 46  1  0
 46 47  1  0
 47 48  1  0
 49 48  1  1
 49 50  1  0
 50 51  1  0
 51 52  1  0
 51 56  2  0
 52 53  2  0
 54 55  2  0
 55 56  1  0
 60 53  1  0
 53 54  1  0
 54 57  1  0
 57 58  1  0
 58 59  1  0
 59 60  1  0
 50 61  1  6
 49 62  1  0
 62 63  1  0
 63 64  1  0
 63 67  1  0
 64 65  1  0
 65 66  1  0
 66 67  1  0
 47 68  2  0
M  END
> <chembl_id>
CHEMBL4297066

> <chembl_pref_name>
ELIGLUSTAT TARTRATE
