
     RDKit          2D

 63 71  0  0  0  0  0  0  0  0999 V2000
   -1.0316  -15.3055    0.0000 C   0  0  0  0  0  0  0  0  0  0  0  0
   -1.8565  -15.3053    0.0000 C   0  0  0  0  0  0  0  0  0  0  0  0
   -2.2683  -16.0188    0.0000 C   0  0  0  0  0  0  0  0  0  0  0  0
   -0.6170  -16.0122    0.0000 C   0  0  0  0  0  0  0  0  0  0  0  0
   -1.0224  -16.7252    0.0000 C   0  0  0  0  0  0  0  0  0  0  0  0
   -1.8535  -16.7307    0.0000 C   0  0  0  0  0  0  0  0  0  0  0  0
   -2.0987  -17.5193    0.0000 N   0  0  0  0  0  0  0  0  0  0  0  0
   -0.7631  -17.5162    0.0000 C   0  0  0  0  0  0  0  0  0  0  0  0
   -1.4329  -18.0014    0.0000 C   0  0  0  0  0  0  0  0  0  0  0  0
   -1.3440  -18.8216    0.0000 C   0  0  0  0  0  0  0  0  0  0  0  0
   -0.5868  -19.1540    0.0000 C   0  0  0  0  0  0  0  0  0  0  0  0
   -0.0044  -17.8431    0.0000 C   0  0  0  0  0  0  0  0  0  0  0  0
    0.0775  -18.6654    0.0000 C   0  0  0  0  0  0  0  0  0  0  0  0
    0.8302  -19.0028    0.0000 C   0  0  0  0  0  0  0  0  0  0  0  0
    1.5046  -18.5239    0.0000 C   0  0  0  0  0  0  0  0  0  0  0  0
    1.4185  -17.6975    0.0000 C   0  0  0  0  0  0  0  0  0  0  0  0
    0.6660  -17.3579    0.0000 N   0  0  0  0  0  0  0  0  0  0  0  0
    0.3547  -16.4484    0.0000 C   0  0  0  0  0  0  0  0  0  0  0  0
   -0.4347  -16.5298    0.0000 C   0  0  0  0  0  0  0  0  0  0  0  0
   -0.5801  -18.4281    0.0000 H   0  0  0  0  0  0  0  0  0  0  0  0
    0.0818  -19.4849    0.0000 C   0  0  0  0  0  0  0  0  0  0  0  0
   -0.5773  -19.9790    0.0000 O   0  0  0  0  0  0  0  0  0  0  0  0
    0.8525  -19.9637    0.0000 C   0  0  0  0  0  0  0  0  0  0  0  0
   -1.7015  -19.5553    0.0000 C   0  0  0  0  0  0  0  0  0  0  0  0
   -2.1609  -18.8132    0.0000 O   0  0  0  0  0  0  0  0  0  0  0  0
   -2.2212  -18.2113    0.0000 H   0  0  0  0  0  0  0  0  0  0  0  0
   -2.8841  -17.7854    0.0000 C   0  0  0  0  0  0  0  0  0  0  0  0
   -3.4974  -17.2389    0.0000 O   0  0  0  0  0  0  0  0  0  0  0  0
   -2.2692  -14.5903    0.0000 O   0  0  0  0  0  0  0  0  0  0  0  0
   -3.0860  -14.5902    0.0000 C   0  0  0  0  0  0  0  0  0  0  0  0
   -2.7069  -11.9490    0.0000 C   0  0  0  0  0  0  0  0  0  0  0  0
   -3.1969  -12.6097    0.0000 C   0  0  0  0  0  0  0  0  0  0  0  0
   -2.8770  -13.3607    0.0000 C   0  0  0  0  0  0  0  0  0  0  0  0
   -1.8875  -12.0419    0.0000 C   0  0  0  0  0  0  0  0  0  0  0  0
   -1.5618  -12.7970    0.0000 C   0  0  0  0  0  0  0  0  0  0  0  0
   -2.0516  -13.4684    0.0000 C   0  0  0  0  0  0  0  0  0  0  0  0
   -1.5712  -14.1329    0.0000 N   0  0  0  0  0  0  0  0  0  0  0  0
   -0.7704  -13.0595    0.0000 C   0  0  0  0  0  0  0  0  0  0  0  0
   -0.7855  -13.8856    0.0000 C   0  0  0  0  0  0  0  0  0  0  0  0
   -0.0762  -14.3056    0.0000 C   0  0  0  0  0  0  0  0  0  0  0  0
    0.6426  -13.9033    0.0000 C   0  0  0  0  0  0  0  0  0  0  0  0
    0.6474  -13.0753    0.0000 C   0  0  0  0  0  0  0  0  0  0  0  0
    1.3742  -12.6821    0.0000 C   0  0  0  0  0  0  0  0  0  0  0  0
    1.3836  -11.8503    0.0000 C   0  0  0  0  0  0  0  0  0  0  0  0
    0.6777  -11.4268    0.0000 C   0  0  0  0  0  0  0  0  0  0  0  0
   -0.0503  -11.8267    0.0000 N   0  0  0  0  0  0  0  0  0  0  0  0
   -1.1911  -12.3393    0.0000 C   0  0  0  0  0  0  0  0  0  0  0  0
   -0.7898  -11.6277    0.0000 C   0  0  0  0  0  0  0  0  0  0  0  0
   -0.0558  -12.6425    0.0000 C   0  0  0  0  0  0  0  0  0  0  0  0
    0.6277  -14.7097    0.0000 C   0  0  0  0  0  0  0  0  0  0  0  0
    0.6314  -15.5242    0.0000 O   0  0  0  0  0  0  0  0  0  0  0  0
    1.3814  -11.0257    0.0000 O   0  0  0  0  0  0  0  0  0  0  0  0
    2.1019  -12.2642    0.0000 C   0  0  0  0  0  0  0  0  0  0  0  0
    2.8135  -11.8530    0.0000 C   0  0  0  0  0  0  0  0  0  0  0  0
    1.3365  -14.3023    0.0000 O   0  0  0  0  0  0  0  0  0  0  0  0
    1.3397  -15.9378    0.0000 C   0  0  0  0  0  0  0  0  0  0  0  0
    1.3589  -13.4832    0.0000 H   0  0  0  0  0  0  0  0  0  0  0  0
   -1.2487  -20.2481    0.0000 O   0  0  0  0  0  0  0  0  0  0  0  0
   -2.5314  -19.6072    0.0000 O   0  0  0  0  0  0  0  0  0  0  0  0
   -2.9035  -20.3513    0.0000 C   0  0  0  0  0  0  0  0  0  0  0  0
    0.1513  -20.3843    0.0000 C   0  0  0  0  0  0  0  0  0  0  0  0
    0.1568  -21.2159    0.0000 O   0  0  0  0  0  0  0  0  0  0  0  0
    0.9751  -20.3839    0.0000 C   0  0  0  0  0  0  0  0  0  0  0  0
  2 29  1  0
 29 30  1  0
  1  2  2  0
  2  3  1  0
  3  6  2  0
  5  4  2  0
  4  1  1  0
  5  6  1  0
  6  7  1  0
  7  9  1  0
  8  5  1  0
  8  9  1  0
  8 12  1  0
  9 10  1  0
 10 11  1  0
 11 13  1  0
 12 13  1  0
 12 17  1  0
 13 14  1  0
 14 15  2  0
 15 16  1  0
 16 17  1  0
 17 18  1  0
 18 19  1  0
  8 19  1  1
 12 20  1  6
 13 21  1  6
 21 23  1  0
 31 32  2  0
 32 33  1  0
 33 36  2  0
 35 34  2  0
 34 31  1  0
 35 36  1  0
 36 37  1  0
 37 39  1  0
 38 35  1  0
 38 39  2  0
 39 40  1  0
 40 41  1  0
 41 42  1  0
 49 42  1  0
 42 43  1  0
 43 44  1  0
 44 45  1  0
 45 46  1  0
 38 47  1  0
 47 48  1  0
 46 48  1  0
 46 49  1  0
 40 50  1  1
 50 51  1  0
 44 52  1  0
 44 53  1  6
 53 54  1  0
 50 55  2  0
 51 56  1  0
 42 57  1  1
  1 40  1  0
 11 22  1  1
 24 58  2  0
 10 24  1  6
 24 59  1  0
 10 25  1  0
 59 60  1  0
  9 26  1  1
 22 61  1  0
  7 27  1  0
 61 62  2  0
 27 28  2  0
 61 63  1  0
M  END
> <chembl_id>
CHEMBL90555

> <chembl_pref_name>
VINCRISTINE
