
     RDKit          2D

 22 23  0  0  0  0  0  0  0  0999 V2000
    0.0792   -2.2542    0.0000 N   0  0  0  0  0  0  0  0  0  0  0  0
   -0.1083   -1.5375    0.0000 C   0  0  0  0  0  0  0  0  0  0  0  0
    1.9000   -2.6125    0.0000 C   0  0  0  0  0  0  0  0  0  0  0  0
   -0.5500   -2.6542    0.0000 C   0  0  0  0  0  0  0  0  0  0  0  0
   -0.8583   -1.5167    0.0000 N   0  0  0  0  0  0  0  0  0  0  0  0
    2.5042   -3.6625    0.0000 N   0  0  0  0  0  0  0  0  0  0  0  0
    0.6875   -2.6042    0.0000 C   0  0  0  0  0  0  0  0  0  0  0  0
   -1.0958   -2.1417    0.0000 C   0  0  0  0  0  0  0  0  0  0  0  0
    1.9000   -3.3167    0.0000 C   0  0  0  0  0  0  0  0  0  0  0  0
    2.5167   -2.2542    0.0000 C   0  0  0  0  0  0  0  0  0  0  0  0
    1.2917   -2.2542    0.0000 C   0  0  0  0  0  0  0  0  0  0  0  0
    1.3042   -3.6667    0.0000 C   0  0  0  0  0  0  0  0  0  0  0  0
    0.3292   -0.9667    0.0000 O   0  0  0  0  0  0  0  0  0  0  0  0
    3.1125   -3.3042    0.0000 O   0  0  0  0  0  0  0  0  0  0  0  0
    2.5042   -4.3625    0.0000 O   0  0  0  0  0  0  0  0  0  0  0  0
   -0.5708   -3.3500    0.0000 O   0  0  0  0  0  0  0  0  0  0  0  0
    0.6917   -3.3167    0.0000 C   0  0  0  0  0  0  0  0  0  0  0  0
    3.1292   -2.6125    0.0000 F   0  0  0  0  0  0  0  0  0  0  0  0
    2.8667   -1.6417    0.0000 F   0  0  0  0  0  0  0  0  0  0  0  0
    2.1542   -1.6417    0.0000 F   0  0  0  0  0  0  0  0  0  0  0  0
   -1.7083   -2.4917    0.0000 C   0  0  0  0  0  0  0  0  0  0  0  0
   -1.7083   -1.7917    0.0000 C   0  0  0  0  0  0  0  0  0  0  0  0
  2  1  1  0
  3 11  2  0
  4  1  1  0
  5  2  1  0
  6  9  1  0
  7  1  1  0
  8  4  1  0
  9 12  2  0
 10  3  1  0
 11  7  1  0
 12 17  1  0
 13  2  2  0
 14  6  1  0
 15  6  2  0
 16  4  2  0
 17  7  2  0
 18 10  1  0
 19 10  1  0
 20 10  1  0
 21  8  1  0
 22  8  1  0
  5  8  1  0
  9  3  1  0
M  CHG  2   6   1  14  -1
M  END
> <chembl_id>
CHEMBL1274

> <chembl_pref_name>
NILUTAMIDE
