
     RDKit          2D

 28 29  0  0  0  0  0  0  0  0999 V2000
    2.4542   -3.6292    0.0000 C   0  0  0  0  0  0  0  0  0  0  0  0
    3.0792   -3.2875    0.0000 C   0  0  0  0  0  0  0  0  0  0  0  0
    3.6917   -5.7250    0.0000 C   0  0  0  0  0  0  0  0  0  0  0  0
   -0.6125   -3.2917    0.0000 C   0  0  0  0  0  0  0  0  0  0  0  0
    2.4542   -4.3375    0.0000 C   0  0  0  0  0  0  0  0  0  0  0  0
    3.6917   -3.6292    0.0000 N   0  0  0  0  0  0  0  0  0  0  0  0
    1.8167   -3.2875    0.0000 C   0  0  0  0  0  0  0  0  0  0  0  0
    5.5042   -3.2875    0.0000 N   0  0  0  0  0  0  0  0  0  0  0  0
    3.0792   -4.7000    0.0000 O   0  0  0  0  0  0  0  0  0  0  0  0
    3.0917   -2.5875    0.0000 O   0  0  0  0  0  0  0  0  0  0  0  0
    3.0792   -5.4000    0.0000 C   0  0  0  0  0  0  0  0  0  0  0  0
    0.0042   -3.6292    0.0000 C   0  0  0  0  0  0  0  0  0  0  0  0
    1.8167   -4.6875    0.0000 C   0  0  0  0  0  0  0  0  0  0  0  0
   -0.2625   -2.6792    0.0000 F   0  0  0  0  0  0  0  0  0  0  0  0
   -0.9708   -2.6792    0.0000 F   0  0  0  0  0  0  0  0  0  0  0  0
    3.3375   -6.3375    0.0000 F   0  0  0  0  0  0  0  0  0  0  0  0
    4.0417   -6.3375    0.0000 F   0  0  0  0  0  0  0  0  0  0  0  0
    4.2917   -5.3542    0.0000 F   0  0  0  0  0  0  0  0  0  0  0  0
   -1.2208   -3.6625    0.0000 F   0  0  0  0  0  0  0  0  0  0  0  0
    1.2167   -3.6292    0.0000 C   0  0  0  0  0  0  0  0  0  0  0  0
    0.6042   -3.2750    0.0000 O   0  0  0  0  0  0  0  0  0  0  0  0
    4.2917   -3.2875    0.0000 C   0  0  0  0  0  0  0  0  0  0  0  0
    4.9042   -3.6292    0.0000 C   0  0  0  0  0  0  0  0  0  0  0  0
    1.2167   -4.3375    0.0000 C   0  0  0  0  0  0  0  0  0  0  0  0
    6.1167   -3.6292    0.0000 C   0  0  0  0  0  0  0  0  0  0  0  0
    4.9042   -4.3292    0.0000 C   0  0  0  0  0  0  0  0  0  0  0  0
    6.1167   -4.3375    0.0000 C   0  0  0  0  0  0  0  0  0  0  0  0
    5.5042   -4.6875    0.0000 C   0  0  0  0  0  0  0  0  0  0  0  0
  2  1  1  0
  3 11  1  0
  4 12  1  0
  5  1  2  0
  6  2  1  0
  7  1  1  0
  8 23  1  0
  9  5  1  0
 10  2  2  0
 11  9  1  0
 12 21  1  0
 13  5  1  0
 14  4  1  0
 15  4  1  0
 16  3  1  0
 17  3  1  0
 18  3  1  0
 19  4  1  0
 20  7  2  0
 21 20  1  0
 22  6  1  0
 23 22  1  0
 24 20  1  0
 25  8  1  0
 26 23  1  0
 27 25  1  0
 28 26  1  0
 13 24  2  0
 28 27  1  0
M  END
> <chembl_id>
CHEMBL652

> <chembl_pref_name>
FLECAINIDE
