
     RDKit          2D

 25 26  0  0  0  0  0  0  0  0999 V2000
    3.0667    0.5708    0.0000 C   0  0  0  0  0  0  0  0  0  0  0  0
    3.6917    0.9000    0.0000 C   0  0  0  0  0  0  0  0  0  0  0  0
   -1.8208   -0.1417    0.0000 C   0  0  0  0  0  0  0  0  0  0  0  0
    2.4667    0.9458    0.0000 O   0  0  0  0  0  0  0  0  0  0  0  0
   -2.4333   -0.5042    0.0000 C   0  0  0  0  0  0  0  0  0  0  0  0
    3.7167    1.6083    0.0000 O   0  0  0  0  0  0  0  0  0  0  0  0
   -1.8083    0.5583    0.0000 O   0  0  0  0  0  0  0  0  0  0  0  0
   -1.2083   -0.4792    0.0000 N   0  0  0  0  0  0  0  0  0  0  0  0
   -3.0208   -0.1667    0.0000 C   0  0  0  0  0  0  0  0  0  0  0  0
   -2.4333   -1.2250    0.0000 C   0  0  0  0  0  0  0  0  0  0  0  0
    1.8375    0.6208    0.0000 C   0  0  0  0  0  0  0  0  0  0  0  0
    4.2917    0.5333    0.0000 O   0  0  0  0  0  0  0  0  0  0  0  0
   -3.6458   -1.2042    0.0000 C   0  0  0  0  0  0  0  0  0  0  0  0
   -3.0208   -1.5792    0.0000 C   0  0  0  0  0  0  0  0  0  0  0  0
   -3.6458   -0.5042    0.0000 C   0  0  0  0  0  0  0  0  0  0  0  0
    0.6167   -0.1042    0.0000 C   0  0  0  0  0  0  0  0  0  0  0  0
   -4.2583   -1.5542    0.0000 Cl  0  0  0  0  0  0  0  0  0  0  0  0
    1.8417   -0.0917    0.0000 C   0  0  0  0  0  0  0  0  0  0  0  0
    1.2042    0.9708    0.0000 C   0  0  0  0  0  0  0  0  0  0  0  0
    1.2375   -0.4625    0.0000 C   0  0  0  0  0  0  0  0  0  0  0  0
    0.6167    0.5833    0.0000 C   0  0  0  0  0  0  0  0  0  0  0  0
   -0.6000   -0.1292    0.0000 C   0  0  0  0  0  0  0  0  0  0  0  0
    2.8000   -0.0792    0.0000 C   0  0  0  0  0  0  0  0  0  0  0  0
    3.4167   -0.0292    0.0000 C   0  0  0  0  0  0  0  0  0  0  0  0
    0.0167   -0.4750    0.0000 C   0  0  0  0  0  0  0  0  0  0  0  0
  2  1  1  0
  3  8  1  0
  4  1  1  0
  5  3  1  0
  6  2  2  0
  7  3  2  0
  8 22  1  0
  9  5  2  0
 10  5  1  0
 11  4  1  0
 12  2  1  0
 13 14  1  0
 14 10  2  0
 15  9  1  0
 16 21  2  0
 17 13  1  0
 18 11  1  0
 19 11  2  0
 20 18  2  0
 21 19  1  0
 22 25  1  0
 23  1  1  0
 24  1  1  0
 25 16  1  0
 16 20  1  0
 15 13  2  0
M  END
> <chembl_id>
CHEMBL264374

> <chembl_pref_name>
BEZAFIBRATE
