
     RDKit          2D

 28 30  0  0  0  0  0  0  0  0999 V2000
    2.9844  -27.0282    0.0000 C   0  0  0  0  0  0  0  0  0  0  0  0
    2.5491  -26.2690    0.0000 N   0  0  0  0  0  0  0  0  0  0  0  0
    2.9844  -25.5502    0.0000 C   0  0  0  0  0  0  0  0  0  0  0  0
    3.7032  -25.3680    0.0000 C   0  0  0  0  0  0  0  0  0  0  0  0
    3.4805  -26.1677    0.0000 C   0  0  0  0  0  0  0  0  0  0  0  0
    3.7032  -27.2206    0.0000 C   0  0  0  0  0  0  0  0  0  0  0  0
    4.3511  -26.7043    0.0000 C   0  0  0  0  0  0  0  0  0  0  0  0
    5.0496  -27.1093    0.0000 C   0  0  0  0  0  0  0  0  0  0  0  0
    5.7785  -26.7043    0.0000 C   0  0  0  0  0  0  0  0  0  0  0  0
    6.4973  -27.1093    0.0000 N   0  0  0  0  0  0  0  0  0  0  0  0
    7.2161  -26.7043    0.0000 C   0  0  0  0  0  0  0  0  0  0  0  0
    7.2161  -25.8843    0.0000 C   0  0  0  0  0  0  0  0  0  0  0  0
    6.4973  -25.4692    0.0000 N   0  0  0  0  0  0  0  0  0  0  0  0
    5.7785  -25.8843    0.0000 C   0  0  0  0  0  0  0  0  0  0  0  0
    5.0496  -25.4692    0.0000 C   0  0  0  0  0  0  0  0  0  0  0  0
    4.3511  -25.8843    0.0000 C   0  0  0  0  0  0  0  0  0  0  0  0
    3.8770  -24.5615    0.0000 H   0  0  0  0  0  0  0  0  0  0  0  0
    3.8716  -28.0282    0.0000 H   0  0  0  0  0  0  0  0  0  0  0  0
    8.3444  -26.1591    0.0000 O   0  0  0  0  0  0  0  0  0  0  0  0
    9.0561  -27.3916    0.0000 O   0  0  0  0  0  0  0  0  0  0  0  0
   11.9026  -26.5700    0.0000 O   0  0  0  0  0  0  0  0  0  0  0  0
   11.1910  -25.3374    0.0000 O   0  0  0  0  0  0  0  0  0  0  0  0
    9.7676  -25.3374    0.0000 O   0  0  0  0  0  0  0  0  0  0  0  0
   10.4793  -27.3916    0.0000 O   0  0  0  0  0  0  0  0  0  0  0  0
    9.0397  -26.5731    0.0000 C   0  0  0  0  0  0  0  0  0  0  0  0
    9.7623  -26.1560    0.0000 C   0  0  0  0  0  0  0  0  0  0  0  0
   10.4847  -26.5731    0.0000 C   0  0  0  0  0  0  0  0  0  0  0  0
   11.2073  -26.1560    0.0000 C   0  0  0  0  0  0  0  0  0  0  0  0
  1  2  1  0
  2  3  1  0
  4  3  1  0
  4  5  1  0
  6  5  1  0
  6  1  1  0
  6  7  1  0
  7  8  2  0
  8  9  1  0
  9 10  2  0
 10 11  1  0
 11 12  2  0
 12 13  1  0
 13 14  2  0
 14  9  1  0
 14 15  1  0
 15 16  2  0
 16  4  1  0
 16  7  1  0
  4 17  1  1
  6 18  1  1
 25 20  2  0
 26 23  1  0
 27 24  1  0
 25 19  1  0
 27 28  1  0
 26 27  1  0
 28 21  1  0
 25 26  1  0
 28 22  2  0
M  END
> <chembl_id>
CHEMBL5303393

> <chembl_pref_name>
VARENICLINE TARTRATE
