
     RDKit          2D

 36 39  0  0  0  0  0  0  0  0999 V2000
    9.2187    1.5275    0.0000 C   0  0  0  0  0  0  0  0  0  0  0  0
    9.9257    1.9497    0.0000 N   0  0  0  0  0  0  0  0  0  0  0  0
    0.6754   -0.2874    0.0000 C   0  0  0  0  0  0  0  0  0  0  0  0
    0.7026   -1.1157    0.0000 N   0  0  0  0  0  0  0  0  0  0  0  0
    1.4295   -1.5006    0.0000 C   0  0  0  0  0  0  0  0  0  0  0  0
    2.1242   -1.0705    0.0000 C   0  0  0  0  0  0  0  0  0  0  0  0
    2.0986   -0.2444    0.0000 N   0  0  0  0  0  0  0  0  0  0  0  0
    1.3764    0.1482    0.0000 C   0  0  0  0  0  0  0  0  0  0  0  0
    0.0043   -1.5482    0.0000 C   0  0  0  0  0  0  0  0  0  0  0  0
    2.8010    0.1882    0.0000 C   0  0  0  0  0  0  0  0  0  0  0  0
    3.5290   -0.2011    0.0000 C   0  0  0  0  0  0  0  0  0  0  0  0
    4.2314    0.2355    0.0000 C   0  0  0  0  0  0  0  0  0  0  0  0
    4.9553   -0.1580    0.0000 O   0  0  0  0  0  0  0  0  0  0  0  0
    5.6665    0.2642    0.0000 C   0  0  0  0  0  0  0  0  0  0  0  0
    6.3815   -0.1471    0.0000 C   0  0  0  0  0  0  0  0  0  0  0  0
    6.3680    1.5016    0.0000 C   0  0  0  0  0  0  0  0  0  0  0  0
    5.6595    1.0790    0.0000 C   0  0  0  0  0  0  0  0  0  0  0  0
    4.9397    1.4872    0.0000 O   0  0  0  0  0  0  0  0  0  0  0  0
    4.2276    1.0645    0.0000 C   0  0  0  0  0  0  0  0  0  0  0  0
    7.0895    1.0945    0.0000 C   0  0  0  0  0  0  0  0  0  0  0  0
    7.0932    0.2726    0.0000 C   0  0  0  0  0  0  0  0  0  0  0  0
    7.8091   -0.1310    0.0000 N   0  0  0  0  0  0  0  0  0  0  0  0
    8.5138    0.2816    0.0000 C   0  0  0  0  0  0  0  0  0  0  0  0
    8.5074    1.1095    0.0000 C   0  0  0  0  0  0  0  0  0  0  0  0
    7.7912    1.5102    0.0000 C   0  0  0  0  0  0  0  0  0  0  0  0
    8.4958    2.7527    0.0000 C   0  0  0  0  0  0  0  0  0  0  0  0
    9.2141    2.3428    0.0000 C   0  0  0  0  0  0  0  0  0  0  0  0
    9.9241    2.7631    0.0000 C   0  0  0  0  0  0  0  0  0  0  0  0
    9.9152    3.5877    0.0000 C   0  0  0  0  0  0  0  0  0  0  0  0
    9.1926    3.9985    0.0000 C   0  0  0  0  0  0  0  0  0  0  0  0
    8.4852    3.5712    0.0000 C   0  0  0  0  0  0  0  0  0  0  0  0
    7.7653    3.9754    0.0000 Cl  0  0  0  0  0  0  0  0  0  0  0  0
   10.6440    2.3589    0.0000 O   0  0  0  0  0  0  0  0  0  0  0  0
   11.3513    2.7771    0.0000 C   0  0  0  0  0  0  0  0  0  0  0  0
   10.6264    4.0162    0.0000 Cl  0  0  0  0  0  0  0  0  0  0  0  0
    7.7842    2.3352    0.0000 N   0  0  0  0  0  0  0  0  0  0  0  0
  1  2  3  0
  3  4  1  0
  3  8  1  0
  4  5  1  0
  5  6  1  0
  6  7  1  0
  7  8  1  0
  4  9  1  0
  7 10  1  0
 10 11  1  0
 11 12  1  0
 12 13  1  0
 13 14  1  0
 14 15  2  0
 15 21  1  0
 20 16  1  0
 16 17  2  0
 17 14  1  0
 17 18  1  0
 18 19  1  0
 20 21  1  0
 21 22  2  0
 22 23  1  0
 23 24  2  0
 24 25  1  0
 25 20  2  0
 24  1  1  0
 26 27  2  0
 27 28  1  0
 28 29  2  0
 29 30  1  0
 30 31  2  0
 31 26  1  0
 31 32  1  0
 28 33  1  0
 33 34  1  0
 29 35  1  0
 25 36  1  0
 36 26  1  0
M  END
> <chembl_id>
CHEMBL288441

> <chembl_pref_name>
BOSUTINIB
