
     RDKit          2D

 33 34  0  0  0  0  0  0  0  0999 V2000
    7.4125   -3.3000    0.0000 C   0  0  0  0  0  0  0  0  0  0  0  0
    7.4042   -4.7167    0.0000 C   0  0  0  0  0  0  0  0  0  0  0  0
    6.8000   -3.6542    0.0000 C   0  0  0  0  0  0  0  0  0  0  0  0
    6.7917   -4.3625    0.0000 C   0  0  0  0  0  0  0  0  0  0  0  0
    7.4167   -2.5917    0.0000 O   0  0  0  0  0  0  0  0  0  0  0  0
    7.4000   -5.4250    0.0000 O   0  0  0  0  0  0  0  0  0  0  0  0
    8.0250   -3.6542    0.0000 O   0  0  0  0  0  0  0  0  0  0  0  0
    8.0167   -4.3667    0.0000 O   0  0  0  0  0  0  0  0  0  0  0  0
    5.5667   -3.7917    0.0000 N   0  0  0  0  0  0  0  0  0  0  0  0
    5.8042   -3.1417    0.0000 C   0  0  0  0  0  0  0  0  0  0  0  0
    4.8875   -3.7917    0.0000 C   0  0  0  0  0  0  0  0  0  0  0  0
    5.2500   -2.7167    0.0000 S   0  0  0  0  0  0  0  0  0  0  0  0
    4.6542   -3.1250    0.0000 C   0  0  0  0  0  0  0  0  0  0  0  0
   -0.9083   -4.1417    0.0000 C   0  0  0  0  0  0  0  0  0  0  0  0
   -1.5500   -3.7792    0.0000 N   0  0  0  0  0  0  0  0  0  0  0  0
    6.4750   -2.9542    0.0000 O   0  0  0  0  0  0  0  0  0  0  0  0
   -0.2750   -3.7917    0.0000 N   0  0  0  0  0  0  0  0  0  0  0  0
    4.4917   -4.3792    0.0000 O   0  0  0  0  0  0  0  0  0  0  0  0
    4.0625   -2.7542    0.0000 C   0  0  0  0  0  0  0  0  0  0  0  0
    3.4417   -3.0917    0.0000 C   0  0  0  0  0  0  0  0  0  0  0  0
    2.2250   -3.7917    0.0000 C   0  0  0  0  0  0  0  0  0  0  0  0
    2.8167   -2.7500    0.0000 C   0  0  0  0  0  0  0  0  0  0  0  0
    3.4417   -3.7917    0.0000 C   0  0  0  0  0  0  0  0  0  0  0  0
    2.8167   -4.1667    0.0000 C   0  0  0  0  0  0  0  0  0  0  0  0
    2.2250   -3.0917    0.0000 C   0  0  0  0  0  0  0  0  0  0  0  0
    1.6042   -4.1417    0.0000 O   0  0  0  0  0  0  0  0  0  0  0  0
    0.9792   -3.7917    0.0000 C   0  0  0  0  0  0  0  0  0  0  0  0
    0.3417   -4.1417    0.0000 C   0  0  0  0  0  0  0  0  0  0  0  0
   -0.9083   -4.8667    0.0000 C   0  0  0  0  0  0  0  0  0  0  0  0
   -2.1625   -4.1417    0.0000 C   0  0  0  0  0  0  0  0  0  0  0  0
   -0.2750   -3.0792    0.0000 C   0  0  0  0  0  0  0  0  0  0  0  0
   -1.5500   -5.2417    0.0000 C   0  0  0  0  0  0  0  0  0  0  0  0
   -2.1625   -4.8667    0.0000 C   0  0  0  0  0  0  0  0  0  0  0  0
  2  4  1  0
  3  1  1  0
  4  3  2  0
  5  1  2  0
  6  2  2  0
  7  1  1  0
  8  2  1  0
 10  9  1  0
 11  9  1  0
 12 10  1  0
 13 11  1  0
 14 17  1  0
 15 14  1  0
 16 10  2  0
 17 28  1  0
 18 11  2  0
 19 13  1  0
 20 19  1  0
 21 24  2  0
 22 20  1  0
 23 20  2  0
 24 23  1  0
 25 22  2  0
 26 21  1  0
 27 26  1  0
 28 27  1  0
 29 14  2  0
 30 15  2  0
 31 17  1  0
 32 29  1  0
 33 30  1  0
 12 13  1  0
 21 25  1  0
 32 33  2  0
M  END
> <chembl_id>
CHEMBL843

> <chembl_pref_name>
ROSIGLITAZONE MALEATE
