
     RDKit          2D

 28 31  0  0  1  0  0  0  0  0999 V2000
    2.6917   -4.9542    0.0000 C   0  0  0  0  0  0  0  0  0  0  0  0
    4.4875   -3.9292    0.0000 C   0  0  0  0  0  0  0  0  0  0  0  0
    3.2917   -4.6167    0.0000 C   0  0  0  0  0  0  0  0  0  0  0  0
    4.4875   -4.6167    0.0000 C   0  0  0  0  0  0  0  0  0  0  0  0
    1.4917   -4.9542    0.0000 C   0  0  0  0  0  0  0  0  0  0  0  0
    3.8917   -4.9542    0.0000 C   0  0  0  0  0  0  0  0  0  0  0  0
    2.0917   -4.6167    0.0000 C   0  0  0  0  0  0  0  0  0  0  0  0
    2.6917   -5.6417    0.0000 C   0  0  0  0  0  0  0  0  0  0  0  0
    1.4917   -5.6417    0.0000 C   0  0  0  0  0  0  0  0  0  0  0  0
    5.1375   -3.7167    0.0000 C   0  0  0  0  0  0  0  0  0  0  0  0
    3.8917   -3.5917    0.0000 C   0  0  0  0  0  0  0  0  0  0  0  0
    3.2917   -3.9292    0.0000 C   0  0  0  0  0  0  0  0  0  0  0  0
    2.0917   -5.9792    0.0000 C   0  0  0  0  0  0  0  0  0  0  0  0
    5.1417   -4.8292    0.0000 C   0  0  0  0  0  0  0  0  0  0  0  0
    3.8917   -5.6417    0.0000 C   0  0  0  0  0  0  0  0  0  0  0  0
    0.8917   -4.6167    0.0000 C   0  0  0  0  0  0  0  0  0  0  0  0
    3.2917   -5.9792    0.0000 C   0  0  0  0  0  0  0  0  0  0  0  0
    5.5417   -4.2667    0.0000 C   0  0  0  0  0  0  0  0  0  0  0  0
    0.8792   -5.9917    0.0000 O   0  0  0  0  0  0  0  0  0  0  0  0
    2.6917   -4.2667    0.0000 C   0  0  0  0  0  0  0  0  0  0  0  0
    5.1292   -3.0042    0.0000 O   0  0  0  0  0  0  0  0  0  0  0  0
    4.4875   -3.2292    0.0000 C   0  0  0  0  0  0  0  0  0  0  0  0
    0.2875   -4.9667    0.0000 O   0  0  0  0  0  0  0  0  0  0  0  0
    5.7500   -3.3542    0.0000 C   0  0  0  0  0  0  0  0  0  0  0  0
    2.6917   -6.3542    0.0000 H   0  0  0  0  0  0  0  0  0  0  0  0
    3.2917   -5.2500    0.0000 H   0  0  0  0  0  0  0  0  0  0  0  0
    3.8917   -4.2417    0.0000 H   0  0  0  0  0  0  0  0  0  0  0  0
    4.4875   -5.3250    0.0000 H   0  0  0  0  0  0  0  0  0  0  0  0
  2 11  1  0
  3  1  1  0
  4  6  1  0
  5  7  1  0
  6  3  1  0
  7  1  1  0
  8  1  1  0
  9 13  1  0
 10  2  1  0
 11 12  1  0
 12  3  1  0
 13  8  1  0
 14  4  1  0
 15 17  1  0
 16  5  2  0
 17  8  1  0
 18 14  1  0
 19  9  2  0
  1 20  1  1
 21 10  1  0
  2 22  1  1
 23 16  1  0
 10 24  1  6
  8 25  1  6
  3 26  1  6
  6 27  1  1
  4 28  1  6
 15  6  1  0
  9  5  1  0
  2  4  1  0
 10 18  1  0
M  END
> <chembl_id>
CHEMBL1200585

> <chembl_pref_name>
OXYMETHOLONE
