
     RDKit          2D

 25 28  0  0  0  0  0  0  0  0999 V2000
   -2.2013    0.3575    0.0000 C   0  0  0  0  0  0  0  0  0  0  0  0
   -2.9158   -0.0550    0.0000 C   0  0  0  0  0  0  0  0  0  0  0  0
   -2.9158   -0.8800    0.0000 C   0  0  0  0  0  0  0  0  0  0  0  0
   -2.2013   -1.2925    0.0000 C   0  0  0  0  0  0  0  0  0  0  0  0
   -1.4868   -0.8800    0.0000 C   0  0  0  0  0  0  0  0  0  0  0  0
   -1.4868   -0.0550    0.0000 C   0  0  0  0  0  0  0  0  0  0  0  0
   -0.7724    0.3575    0.0000 C   0  0  0  0  0  0  0  0  0  0  0  0
   -0.7723   -1.2925    0.0000 C   0  0  0  0  0  0  0  0  0  0  0  0
   -0.0579   -0.8800    0.0000 C   0  0  0  0  0  0  0  0  0  0  0  0
   -0.0579   -0.0550    0.0000 C   0  0  0  0  0  0  0  0  0  0  0  0
   -0.0579    1.5950    0.0000 C   0  0  0  0  0  0  0  0  0  0  0  0
   -0.7724    1.1825    0.0000 C   0  0  0  0  0  0  0  0  0  0  0  0
    0.6566    0.3575    0.0000 C   0  0  0  0  0  0  0  0  0  0  0  0
    0.6566    1.1825    0.0000 C   0  0  0  0  0  0  0  0  0  0  0  0
    1.4412    0.1026    0.0000 C   0  0  0  0  0  0  0  0  0  0  0  0
    1.9261    0.7700    0.0000 C   0  0  0  0  0  0  0  0  0  0  0  0
    1.4412    1.4375    0.0000 C   0  0  0  0  0  0  0  0  0  0  0  0
   -3.6302   -1.2925    0.0000 O   0  0  0  0  0  0  0  0  0  0  0  0
   -0.7592   -0.3404    0.0000 H   0  0  0  0  0  0  0  0  0  0  0  0
   -0.0642    0.7793    0.0000 H   0  0  0  0  0  0  0  0  0  0  0  0
    0.6812   -0.3653    0.0000 H   0  0  0  0  0  0  0  0  0  0  0  0
    1.6962   -0.6820    0.0000 O   0  0  0  0  0  0  0  0  0  0  0  0
    2.7511    0.7700    0.0000 O   0  0  0  0  0  0  0  0  0  0  0  0
    1.6961    2.2221    0.0000 O   0  0  0  0  0  0  0  0  0  0  0  0
    0.6844    2.0809    0.0000 C   0  0  0  0  0  0  0  0  0  0  0  0
  1  2  2  0
  2  3  1  0
  3  4  2  0
  4  5  1  0
  5  6  2  0
  1  6  1  0
  8  9  1  0
  9 10  1  0
  7 10  1  0
  5  8  1  0
  7  6  1  0
 11 12  1  0
 13 14  1  0
 11 14  1  0
 12  7  1  0
 10 13  1  0
 15 16  1  0
 16 17  1  0
 13 15  1  0
 14 17  1  0
  3 18  1  0
  7 19  1  6
 10 20  1  1
 13 21  1  6
 15 22  1  6
 16 23  1  6
 17 24  1  1
 14 25  1  1
M  END
> <chembl_id>
CHEMBL1230314

> <chembl_pref_name>
ESTETROL
