
     RDKit          2D

 31 30  0  0  0  0  0  0  0  0999 V2000
    4.5000   -1.9018    0.0000 O   0  0  0  0  0  0  0  0  0  0  0  0
   -0.3618   -1.7690    0.0000 O   0  0  0  0  0  0  0  0  0  0  0  0
   -2.3814   -3.1197    0.0000 O   0  0  0  0  0  0  0  0  0  0  0  0
   -1.0224   -2.6782    0.0000 O   0  0  0  0  0  0  0  0  0  0  0  0
    0.8757    1.8033    0.0000 O   0  0  0  0  0  0  0  0  0  0  0  0
   -0.3618    1.0888    0.0000 O   0  0  0  0  0  0  0  0  0  0  0  0
   -1.5993   -1.0546    0.0000 N   0  0  0  0  0  0  0  0  0  0  0  0
    0.4632   -0.3401    0.0000 N   0  0  0  0  0  0  0  0  0  0  0  0
   -3.2493    1.8033    0.0000 N   0  0  0  0  0  0  0  0  0  0  0  0
   -2.0843   -1.7220    0.0000 C   0  0  0  0  0  0  0  0  0  0  0  0
   -0.7743   -1.0546    0.0000 C   0  0  0  0  0  0  0  0  0  0  0  0
   -0.3618   -0.3401    0.0000 C   0  0  0  0  0  0  0  0  0  0  0  0
   -2.0843   -0.3871    0.0000 C   0  0  0  0  0  0  0  0  0  0  0  0
   -2.8689   -1.4671    0.0000 C   0  0  0  0  0  0  0  0  0  0  0  0
   -1.8293   -2.5066    0.0000 C   0  0  0  0  0  0  0  0  0  0  0  0
   -2.8689   -0.6421    0.0000 C   0  0  0  0  0  0  0  0  0  0  0  0
    0.8757    0.3744    0.0000 C   0  0  0  0  0  0  0  0  0  0  0  0
   -0.7743    0.3744    0.0000 C   0  0  0  0  0  0  0  0  0  0  0  0
    0.4632    1.0888    0.0000 C   0  0  0  0  0  0  0  0  0  0  0  0
    1.7007    0.3744    0.0000 C   0  0  0  0  0  0  0  0  0  0  0  0
   -1.5993    0.3744    0.0000 C   0  0  0  0  0  0  0  0  0  0  0  0
    2.1132    1.0888    0.0000 C   0  0  0  0  0  0  0  0  0  0  0  0
    2.9382    1.0888    0.0000 C   0  0  0  0  0  0  0  0  0  0  0  0
   -2.0118    1.0888    0.0000 C   0  0  0  0  0  0  0  0  0  0  0  0
    3.3507    1.8033    0.0000 C   0  0  0  0  0  0  0  0  0  0  0  0
    3.3507    0.3744    0.0000 C   0  0  0  0  0  0  0  0  0  0  0  0
    4.1757    1.8033    0.0000 C   0  0  0  0  0  0  0  0  0  0  0  0
    4.1757    0.3744    0.0000 C   0  0  0  0  0  0  0  0  0  0  0  0
    4.5882    1.0888    0.0000 C   0  0  0  0  0  0  0  0  0  0  0  0
   -2.8368    1.0888    0.0000 C   0  0  0  0  0  0  0  0  0  0  0  0
    6.8274    0.0000    0.0000 O   0  0  0  0  0  0  0  0  0  0  0  0
  2 11  2  0
  3 15  2  0
  4 15  1  0
  5 19  2  0
  6 19  1  0
  7 10  1  0
  7 11  1  0
  7 13  1  0
  8 12  1  0
 17  8  1  6
  9 30  1  0
 10 14  1  0
 10 15  1  6
 11 12  1  0
 12 18  1  6
 13 16  1  0
 14 16  1  0
 17 19  1  0
 17 20  1  0
 18 21  1  0
 20 22  1  0
 21 24  1  0
 22 23  1  0
 23 25  2  0
 23 26  1  0
 24 30  1  0
 25 27  1  0
 26 28  2  0
 27 29  2  0
 28 29  1  0
M  END
> <chembl_id>
CHEMBL419213

> <chembl_pref_name>
LISINOPRIL
