
     RDKit          2D

 17 17  0  0  0  0  0  0  0  0999 V2000
    2.9771   -0.1014    0.0000 Br  0  0  0  0  0  0  0  0  0  0  0  0
   -0.9586    0.0430    0.0000 C   0  0  0  0  0  0  0  0  0  0  0  0
   -1.6683    0.4424    0.0000 C   0  0  0  0  0  0  0  0  0  0  0  0
   -2.3841    0.0338    0.0000 C   0  0  0  0  0  0  0  0  0  0  0  0
   -0.2673    0.4577    0.0000 C   0  0  0  0  0  0  0  0  0  0  0  0
    1.1368    0.4762    0.0000 N   0  0  0  0  0  0  0  0  0  0  0  0
   -2.3841   -0.7957    0.0000 C   0  0  0  0  0  0  0  0  0  0  0  0
   -0.9586   -0.7957    0.0000 C   0  0  0  0  0  0  0  0  0  0  0  0
    0.4363    0.0614    0.0000 C   0  0  0  0  0  0  0  0  0  0  0  0
   -1.6683   -1.2074    0.0000 C   0  0  0  0  0  0  0  0  0  0  0  0
   -3.1030    0.4424    0.0000 O   0  0  0  0  0  0  0  0  0  0  0  0
   -0.2673    1.2688    0.0000 O   0  0  0  0  0  0  0  0  0  0  0  0
   -3.1030   -1.2074    0.0000 O   0  0  0  0  0  0  0  0  0  0  0  0
    1.8802    0.0614    0.0000 C   0  0  0  0  0  0  0  0  0  0  0  0
    0.4363   -0.7773    0.0000 C   0  0  0  0  0  0  0  0  0  0  0  0
    1.8802   -0.7773    0.0000 C   0  0  0  0  0  0  0  0  0  0  0  0
    1.1460   -1.1829    0.0000 C   0  0  0  0  0  0  0  0  0  0  0  0
  3  2  1  0
  4  3  2  0
  5  2  1  0
  9  6  1  0
  7 10  2  0
  8  2  2  0
  9  5  1  0
 10  8  1  0
 11  4  1  0
  5 12  1  0
 13  7  1  0
 14  6  1  0
  9 15  1  0
 16 17  1  0
 17 15  1  0
  4  7  1  0
 14 16  1  0
M  END
> <chembl_id>
CHEMBL2000813

> <chembl_pref_name>
RIMITEROL HYDROBROMIDE
