
     RDKit          2D

 46 45  0  0  0  0  0  0  0  0999 V2000
    5.8344   -1.7319    0.0000 N   0  0  0  0  0  0  0  0  0  0  0  0
    2.9617   -1.7319    0.0000 O   0  0  0  0  0  0  0  0  0  0  0  0
    4.4005   -1.7319    0.0000 C   0  0  0  0  0  0  0  0  0  0  0  0
    2.2496   -2.1533    0.0000 C   0  0  0  0  0  0  0  0  0  0  0  0
    5.1126   -2.1484    0.0000 C   0  0  0  0  0  0  0  0  0  0  0  0
    3.6835   -2.1484    0.0000 C   0  0  0  0  0  0  0  0  0  0  0  0
    0.8109   -2.9817    0.0000 C   0  0  0  0  0  0  0  0  0  0  0  0
    2.2496   -2.9817    0.0000 C   0  0  0  0  0  0  0  0  0  0  0  0
    1.5327   -1.7561    0.0000 C   0  0  0  0  0  0  0  0  0  0  0  0
    1.5375   -3.3837    0.0000 C   0  0  0  0  0  0  0  0  0  0  0  0
    0.8254   -2.1533    0.0000 C   0  0  0  0  0  0  0  0  0  0  0  0
    4.4005   -0.9180    0.0000 O   0  0  0  0  0  0  0  0  0  0  0  0
    6.5513   -2.1484    0.0000 C   0  0  0  0  0  0  0  0  0  0  0  0
   -1.3448   -3.3741    0.0000 O   0  0  0  0  0  0  0  0  0  0  0  0
    0.0988   -3.3741    0.0000 C   0  0  0  0  0  0  0  0  0  0  0  0
   -0.6278   -2.9768    0.0000 C   0  0  0  0  0  0  0  0  0  0  0  0
   -2.0521   -2.9526    0.0000 C   0  0  0  0  0  0  0  0  0  0  0  0
    7.2780   -1.7319    0.0000 C   0  0  0  0  0  0  0  0  0  0  0  0
    6.5610   -2.9672    0.0000 C   0  0  0  0  0  0  0  0  0  0  0  0
    9.9744    1.2740    0.0000 C   0  0  0  0  0  0  0  0  0  0  0  0
    8.5453   -0.3682    0.0000 C   0  0  0  0  0  0  0  0  0  0  0  0
    9.2623    0.8671    0.0000 C   0  0  0  0  0  0  0  0  0  0  0  0
    9.2623    0.0387    0.0000 C   0  0  0  0  0  0  0  0  0  0  0  0
    9.9840    2.1024    0.0000 O   0  0  0  0  0  0  0  0  0  0  0  0
    8.5356   -1.1917    0.0000 O   0  0  0  0  0  0  0  0  0  0  0  0
   10.6865    0.8574    0.0000 O   0  0  0  0  0  0  0  0  0  0  0  0
    7.8332    0.0532    0.0000 O   0  0  0  0  0  0  0  0  0  0  0  0
    6.3218    0.8380    0.0000 N   0  0  0  0  0  0  0  0  0  0  0  0
    3.4492    0.8380    0.0000 O   0  0  0  0  0  0  0  0  0  0  0  0
    4.8879    0.8380    0.0000 C   0  0  0  0  0  0  0  0  0  0  0  0
    2.7370    0.4166    0.0000 C   0  0  0  0  0  0  0  0  0  0  0  0
    5.6000    0.4215    0.0000 C   0  0  0  0  0  0  0  0  0  0  0  0
    4.1709    0.4215    0.0000 C   0  0  0  0  0  0  0  0  0  0  0  0
    1.2983   -0.4118    0.0000 C   0  0  0  0  0  0  0  0  0  0  0  0
    2.7370   -0.4118    0.0000 C   0  0  0  0  0  0  0  0  0  0  0  0
    2.0201    0.8138    0.0000 C   0  0  0  0  0  0  0  0  0  0  0  0
    2.0249   -0.8138    0.0000 C   0  0  0  0  0  0  0  0  0  0  0  0
    1.3128    0.4166    0.0000 C   0  0  0  0  0  0  0  0  0  0  0  0
    4.8879    1.6519    0.0000 O   0  0  0  0  0  0  0  0  0  0  0  0
    7.0388    0.4215    0.0000 C   0  0  0  0  0  0  0  0  0  0  0  0
   -0.8574   -0.8042    0.0000 O   0  0  0  0  0  0  0  0  0  0  0  0
    0.5862   -0.8042    0.0000 C   0  0  0  0  0  0  0  0  0  0  0  0
   -0.1404   -0.4069    0.0000 C   0  0  0  0  0  0  0  0  0  0  0  0
   -1.5647   -0.3827    0.0000 C   0  0  0  0  0  0  0  0  0  0  0  0
    7.7654    0.8380    0.0000 C   0  0  0  0  0  0  0  0  0  0  0  0
    7.0484   -0.3973    0.0000 C   0  0  0  0  0  0  0  0  0  0  0  0
  2  6  1  0
  3  5  1  0
  4  2  1  0
  5  1  1  0
  6  3  1  0
  7 11  2  0
  8  4  1  0
  9  4  2  0
 10  8  2  0
 11  9  1  0
 12  3  1  0
 13  1  1  0
 14 16  1  0
 15  7  1  0
 16 15  1  0
 17 14  1  0
 18 13  1  0
 19 13  1  0
  7 10  1  0
 21 23  1  0
 22 20  1  0
 23 22  2  0
 24 20  2  0
 25 21  2  0
 26 20  1  0
 27 21  1  0
 29 33  1  0
 30 32  1  0
 31 29  1  0
 32 28  1  0
 33 30  1  0
 34 38  2  0
 35 31  1  0
 36 31  2  0
 37 35  2  0
 38 36  1  0
 39 30  1  0
 40 28  1  0
 41 43  1  0
 42 34  1  0
 43 42  1  0
 44 41  1  0
 45 40  1  0
 46 40  1  0
 34 37  1  0
M  END
> <chembl_id>
CHEMBL3989566

> <chembl_pref_name>
METOPROLOL FUMARATE
