
     RDKit          2D

 34 34  0  0  0  0  0  0  0  0999 V2000
   10.2375    1.3125    0.0000 O   0  0  0  0  0  0  0  0  0  0  0  0
    3.0917   -0.2292    0.0000 O   0  0  0  0  0  0  0  0  0  0  0  0
    3.5042   -0.9417    0.0000 C   0  0  0  0  0  0  0  0  0  0  0  0
    3.0917   -1.6542    0.0000 C   0  0  0  0  0  0  0  0  0  0  0  0
    2.2667   -1.6542    0.0000 C   0  0  0  0  0  0  0  0  0  0  0  0
    1.8542   -0.9417    0.0000 C   0  0  0  0  0  0  0  0  0  0  0  0
    2.2667   -0.2292    0.0000 C   0  0  0  0  0  0  0  0  0  0  0  0
    4.2208   -1.3542    0.0000 C   0  0  0  0  0  0  0  0  0  0  0  0
    5.6500   -1.3542    0.0000 C   0  0  0  0  0  0  0  0  0  0  0  0
    4.9333   -0.9417    0.0000 C   0  0  0  0  0  0  0  0  0  0  0  0
    5.6500   -2.1792    0.0000 C   0  0  0  0  0  0  0  0  0  0  0  0
    6.3625   -0.9417    0.0000 C   0  0  0  0  0  0  0  0  0  0  0  0
    4.2208   -2.1792    0.0000 C   0  0  0  0  0  0  0  0  0  0  0  0
    4.9333   -2.5917    0.0000 C   0  0  0  0  0  0  0  0  0  0  0  0
    1.6833   -2.2375    0.0000 O   0  0  0  0  0  0  0  0  0  0  0  0
    3.6750   -2.2375    0.0000 O   0  0  0  0  0  0  0  0  0  0  0  0
    1.0292   -0.9417    0.0000 O   0  0  0  0  0  0  0  0  0  0  0  0
    7.0792   -1.3542    0.0000 C   0  0  0  0  0  0  0  0  0  0  0  0
    6.3625   -2.5917    0.0000 Cl  0  0  0  0  0  0  0  0  0  0  0  0
    8.5042   -2.1792    0.0000 C   0  0  0  0  0  0  0  0  0  0  0  0
    1.8542    0.4875    0.0000 C   0  0  0  0  0  0  0  0  0  0  0  0
    7.0792   -2.1792    0.0000 C   0  0  0  0  0  0  0  0  0  0  0  0
    7.7917   -0.9417    0.0000 C   0  0  0  0  0  0  0  0  0  0  0  0
    8.5042   -1.3542    0.0000 C   0  0  0  0  0  0  0  0  0  0  0  0
    7.7917   -2.5917    0.0000 C   0  0  0  0  0  0  0  0  0  0  0  0
    9.2208   -2.5917    0.0000 O   0  0  0  0  0  0  0  0  0  0  0  0
    1.0292    0.4875    0.0000 O   0  0  0  0  0  0  0  0  0  0  0  0
    9.9333   -2.1792    0.0000 C   0  0  0  0  0  0  0  0  0  0  0  0
   10.6500   -2.5917    0.0000 C   0  0  0  0  0  0  0  0  0  0  0  0
    6.1792    1.0000    0.0000 C   0  0  0  0  0  0  0  0  0  0  0  0
    6.8936    1.4125    0.0000 C   0  0  0  0  0  0  0  0  0  0  0  0
    7.6081    1.0000    0.0000 C   0  0  0  0  0  0  0  0  0  0  0  0
    8.3226    1.4125    0.0000 O   0  0  0  0  0  0  0  0  0  0  0  0
    7.1042    2.2167    0.0000 O   0  0  0  0  0  0  0  0  0  0  0  0
  9 10  2  0
 10  8  1  0
 11  9  1  0
 12  9  1  0
 13  8  2  0
 14 13  1  0
  5 15  1  1
  4 16  1  6
  6 17  1  6
 18 12  1  0
 19 11  1  0
 20 24  2  0
  7 21  1  1
 22 18  1  0
 23 18  2  0
 24 23  1  0
 25 22  2  0
 26 20  1  0
 27 21  1  0
 28 26  1  0
 29 28  1  0
  4  5  1  0
 11 14  2  0
 20 25  1  0
  3  2  1  0
  4  3  1  0
  5  6  1  0
  6  7  1  0
  7  2  1  0
  3  8  1  1
 31 30  1  6
 31 32  1  0
 32 33  1  0
 31 34  1  0
M  END
> <chembl_id>
CHEMBL2103802

> <chembl_pref_name>
DAPAGLIFLOZIN PROPANEDIOL
