
     RDKit          2D

 28 31  0  0  0  0  0  0  0  0999 V2000
    2.4792   -1.4542    0.0000 C   0  0  0  0  0  0  0  0  0  0  0  0
    2.7667    0.3000    0.0000 C   0  0  0  0  0  0  0  0  0  0  0  0
    1.9542   -0.4792    0.0000 C   0  0  0  0  0  0  0  0  0  0  0  0
    3.7792   -0.2375    0.0000 N   0  0  0  0  0  0  0  0  0  0  0  0
    3.5625   -1.3167    0.0000 C   0  0  0  0  0  0  0  0  0  0  0  0
   -1.3833   -1.4792    0.0000 N   0  0  0  0  0  0  0  0  0  0  0  0
    0.8750   -0.1917    0.0000 C   0  0  0  0  0  0  0  0  0  0  0  0
    2.4917    1.3833    0.0000 C   0  0  0  0  0  0  0  0  0  0  0  0
    0.6250    0.9250    0.0000 C   0  0  0  0  0  0  0  0  0  0  0  0
    1.4167    1.6875    0.0000 C   0  0  0  0  0  0  0  0  0  0  0  0
    2.3417   -2.6500    0.0000 C   0  0  0  0  0  0  0  0  0  0  0  0
    0.5917   -2.5792    0.0000 N   0  0  0  0  0  0  0  0  0  0  0  0
   -1.3833   -2.5917    0.0000 C   0  0  0  0  0  0  0  0  0  0  0  0
   -0.4000   -0.9042    0.0000 C   0  0  0  0  0  0  0  0  0  0  0  0
   -2.3750   -0.9292    0.0000 C   0  0  0  0  0  0  0  0  0  0  0  0
    1.5542   -3.0542    0.0000 C   0  0  0  0  0  0  0  0  0  0  0  0
    0.5917   -1.4542    0.0000 C   0  0  0  0  0  0  0  0  0  0  0  0
   -0.3875   -3.1375    0.0000 C   0  0  0  0  0  0  0  0  0  0  0  0
   -0.4583    1.2458    0.0000 O   0  0  0  0  0  0  0  0  0  0  0  0
    1.2167    2.7750    0.0000 O   0  0  0  0  0  0  0  0  0  0  0  0
    4.3417   -2.1792    0.0000 C   0  0  0  0  0  0  0  0  0  0  0  0
   -2.3833    0.1708    0.0000 C   0  0  0  0  0  0  0  0  0  0  0  0
   -3.3458   -1.4792    0.0000 C   0  0  0  0  0  0  0  0  0  0  0  0
   -0.7208    2.3708    0.0000 C   0  0  0  0  0  0  0  0  0  0  0  0
    0.1375    3.1458    0.0000 C   0  0  0  0  0  0  0  0  0  0  0  0
   -3.3625    0.7708    0.0000 C   0  0  0  0  0  0  0  0  0  0  0  0
   -4.3458   -0.9292    0.0000 C   0  0  0  0  0  0  0  0  0  0  0  0
   -4.3458    0.2083    0.0000 C   0  0  0  0  0  0  0  0  0  0  0  0
  2  3  2  0
  3  1  1  0
  4  5  1  0
  5  1  2  0
  6 13  1  0
  7  3  1  0
  8  2  1  0
  9  7  2  0
 10  9  1  0
 11  1  1  0
 12 16  1  0
 13 18  1  0
 14 17  1  0
 15  6  1  0
 16 11  1  0
 17 12  1  0
 18 12  1  0
 19  9  1  0
 20 10  1  0
 21  5  1  0
 22 15  1  0
 23 15  2  0
 24 19  1  0
 25 20  1  0
 26 22  2  0
 27 23  1  0
 28 27  2  0
  2  4  1  0
  8 10  2  0
 14  6  1  0
 26 28  1  0
M  END
> <chembl_id>
CHEMBL2107011

> <chembl_pref_name>
OXYPERTINE
