
     RDKit          2D

 24 24  0  0  0  0  0  0  0  0999 V2000
    2.3043   -1.6730    0.0000 Cl  0  0  0  0  0  0  0  0  0  0  0  0
    0.7144   -0.4125    0.0000 N   0  0  0  0  0  0  0  0  0  0  0  0
    0.7144    0.4125    0.0000 N   0  0  0  0  0  0  0  0  0  0  0  0
    0.0000   -0.8250    0.0000 C   0  0  0  0  0  0  0  0  0  0  0  0
    0.0000    0.8250    0.0000 C   0  0  0  0  0  0  0  0  0  0  0  0
   -0.7144   -0.4125    0.0000 C   0  0  0  0  0  0  0  0  0  0  0  0
   -0.7144    0.4125    0.0000 C   0  0  0  0  0  0  0  0  0  0  0  0
    1.4343   -3.2993    0.0000 N   0  0  0  0  0  0  0  0  0  0  0  0
    0.0000    1.6504    0.0000 C   0  0  0  0  0  0  0  0  0  0  0  0
    0.0017   -1.6504    0.0000 N   0  0  0  0  0  0  0  0  0  0  0  0
    2.8662   -4.1194    0.0000 O   0  0  0  0  0  0  0  0  0  0  0  0
    0.7171   -2.0622    0.0000 C   0  0  0  0  0  0  0  0  0  0  0  0
    0.7188   -2.8876    0.0000 C   0  0  0  0  0  0  0  0  0  0  0  0
    1.4372   -4.1243    0.0000 C   0  0  0  0  0  0  0  0  0  0  0  0
    2.1474   -2.8844    0.0000 C   0  0  0  0  0  0  0  0  0  0  0  0
   -1.2861   -0.7425    0.0000 C   0  0  0  0  0  0  0  0  0  0  0  0
    2.1531   -4.5344    0.0000 C   0  0  0  0  0  0  0  0  0  0  0  0
    2.8633   -3.2944    0.0000 C   0  0  0  0  0  0  0  0  0  0  0  0
    0.7138    2.0641    0.0000 C   0  0  0  0  0  0  0  0  0  0  0  0
   -0.7151    2.0618    0.0000 C   0  0  0  0  0  0  0  0  0  0  0  0
    0.7125    2.8891    0.0000 C   0  0  0  0  0  0  0  0  0  0  0  0
   -0.7164    2.8868    0.0000 C   0  0  0  0  0  0  0  0  0  0  0  0
   -0.0026    3.3005    0.0000 C   0  0  0  0  0  0  0  0  0  0  0  0
    3.0101   -0.3644    0.0000 Cl  0  0  0  0  0  0  0  0  0  0  0  0
  2  3  1  0
  2  4  2  0
  3  5  2  0
  4  6  1  0
  5  7  1  0
  6  7  2  0
  5  9  1  0
  4 10  1  0
 10 12  1  0
  8 13  1  0
 12 13  1  0
  8 14  1  0
  8 15  1  0
  6 16  1  0
 11 17  1  0
 14 17  1  0
 11 18  1  0
 15 18  1  0
  9 19  1  0
  9 20  2  0
 19 21  2  0
 20 22  1  0
 21 23  1  0
 22 23  2  0
M  END
> <chembl_id>
CHEMBL1364551

> <chembl_pref_name>
MINAPRINE HYDROCHLORIDE
