
     RDKit          2D

  9  8  0  0  0  0  0  0  0  0999 V2000
   -1.2000   -0.5792    0.0000 C   0  0  0  0  0  0  0  0  0  0  0  0
    0.0625   -1.2792    0.0000 N   0  0  0  0  0  0  0  0  0  0  0  0
    1.3000   -0.5417    0.0000 C   0  0  0  0  0  0  0  0  0  0  0  0
   -2.4458   -1.3167    0.0000 N   0  0  0  0  0  0  0  0  0  0  0  0
   -1.2000    0.8458    0.0000 N   0  0  0  0  0  0  0  0  0  0  0  0
    2.5250   -1.2250    0.0000 N   0  0  0  0  0  0  0  0  0  0  0  0
    1.3000    0.8708    0.0000 N   0  0  0  0  0  0  0  0  0  0  0  0
    0.0250    1.5833    0.0000 C   0  0  0  0  0  0  0  0  0  0  0  0
   -2.4833    1.5250    0.0000 C   0  0  0  0  0  0  0  0  0  0  0  0
  2  1  1  0
  3  2  1  0
  4  1  2  0
  5  1  1  0
  6  3  2  0
  7  3  1  0
  8  5  1  0
  9  5  1  0
M  END
> <chembl_id>
CHEMBL1431

> <chembl_pref_name>
METFORMIN
