
     RDKit          2D

 28 30  0  0  0  0  0  0  0  0999 V2000
   -4.1177    0.8250    0.0000 C   0  0  0  0  0  0  0  0  0  0  0  0
   -4.8321    1.2375    0.0000 C   0  0  0  0  0  0  0  0  0  0  0  0
   -5.5466    0.8250    0.0000 C   0  0  0  0  0  0  0  0  0  0  0  0
   -5.5466    0.0000    0.0000 C   0  0  0  0  0  0  0  0  0  0  0  0
   -4.8322   -0.4125    0.0000 C   0  0  0  0  0  0  0  0  0  0  0  0
   -4.1177    0.0000    0.0000 C   0  0  0  0  0  0  0  0  0  0  0  0
   -3.4032    1.2375    0.0000 N   0  0  0  0  0  0  0  0  0  0  0  0
   -2.6887    0.8250    0.0000 C   0  0  0  0  0  0  0  0  0  0  0  0
   -1.9742    1.2375    0.0000 C   0  0  0  0  0  0  0  0  0  0  0  0
   -1.9742    2.0625    0.0000 C   0  0  0  0  0  0  0  0  0  0  0  0
   -2.6887    2.4750    0.0000 N   0  0  0  0  0  0  0  0  0  0  0  0
   -3.4032    2.0625    0.0000 C   0  0  0  0  0  0  0  0  0  0  0  0
   -2.6887    3.3000    0.0000 C   0  0  0  0  0  0  0  0  0  0  0  0
   -1.9742    3.7125    0.0000 C   0  0  0  0  0  0  0  0  0  0  0  0
   -1.9742    4.5375    0.0000 C   0  0  0  0  0  0  0  0  0  0  0  0
   -2.6887    4.9501    0.0000 C   0  0  0  0  0  0  0  0  0  0  0  0
   -3.4032    4.5375    0.0000 C   0  0  0  0  0  0  0  0  0  0  0  0
   -3.4032    3.7125    0.0000 C   0  0  0  0  0  0  0  0  0  0  0  0
   -1.2597    2.4750    0.0000 O   0  0  0  0  0  0  0  0  0  0  0  0
   -4.1176    2.4750    0.0000 O   0  0  0  0  0  0  0  0  0  0  0  0
   -2.6887    0.0000    0.0000 O   0  0  0  0  0  0  0  0  0  0  0  0
   -1.2598    0.8250    0.0000 C   0  0  0  0  0  0  0  0  0  0  0  0
   -0.5453    1.2375    0.0000 N   0  0  0  0  0  0  0  0  0  0  0  0
   -1.2598    0.0000    0.0000 O   0  0  0  0  0  0  0  0  0  0  0  0
    0.1692    0.8250    0.0000 C   0  0  0  0  0  0  0  0  0  0  0  0
    0.8837    1.2375    0.0000 C   0  0  0  0  0  0  0  0  0  0  0  0
    1.5981    0.8250    0.0000 O   0  0  0  0  0  0  0  0  0  0  0  0
    0.8837    2.0625    0.0000 O   0  0  0  0  0  0  0  0  0  0  0  0
  1  2  1  0
  2  3  1  0
  3  4  1  0
  4  5  1  0
  5  6  1  0
  6  1  1  0
  1  7  1  0
  7  8  1  0
 12  7  1  0
  8  9  1  0
  9 10  1  0
 10 11  1  0
 11 12  1  0
 11 13  1  0
 13 14  1  0
 18 13  1  0
 14 15  1  0
 15 16  1  0
 16 17  1  0
 17 18  1  0
 10 19  2  0
 12 20  2  0
  8 21  2  0
  9 22  1  0
 22 23  1  0
 22 24  2  0
 23 25  1  0
 25 26  1  0
 26 27  1  0
 26 28  2  0
M  END
> <chembl_id>
CHEMBL3544988

> <chembl_pref_name>
DAPRODUSTAT
