
  SciTegic07151914262D

 31 31  0  0  1  0            999 V2000
    9.7703   -2.6745    0.0000 C   0  0
    9.1224   -2.2999    0.0000 O   0  0
   10.4181   -2.2999    0.0000 O   0  0
    9.7703   -3.4280    0.0000 C   0  0  2  0  0  0
   10.4182   -3.8026    0.0000 C   0  0
   11.0701   -3.4280    0.0000 C   0  0
   11.7181   -3.8026    0.0000 C   0  0
   11.7181   -4.5478    0.0000 O   0  0
   12.3660   -3.4280    0.0000 O   0  0
    9.1224   -3.8026    0.0000 N   0  0
    8.4745   -3.4280    0.0000 C   0  0
    8.4745   -2.6745    0.0000 O   0  0
    7.8224   -3.8026    0.0000 N   0  0
    7.1745   -3.4280    0.0000 C   0  0  1  0  0  0
    6.5266   -3.8026    0.0000 C   0  0
    5.8746   -3.4280    0.0000 C   0  0
    5.2266   -3.8026    0.0000 C   0  0
    4.5788   -3.4280    0.0000 C   0  0
    3.9309   -3.8026    0.0000 N   0  0
    3.2788   -3.4280    0.0000 C   0  0
    3.2788   -2.6745    0.0000 O   0  0
    2.6309   -3.8026    0.0000 C   0  0
    2.6309   -4.5478    0.0000 C   0  0
    1.9830   -4.9223    0.0000 N   0  0
    1.3351   -4.5478    0.0000 C   0  0
    1.3351   -3.8026    0.0000 C   0  0
    1.9830   -3.4280    0.0000 C   0  0
    0.6830   -4.9223    0.0000 F   0  0
    7.1745   -2.6745    0.0000 C   0  0
    6.5266   -2.2999    0.0000 O   0  0
    7.8224   -2.2999    0.0000 O   0  0
  1  2  2  0
  1  3  1  0
  4  1  1  6
  4  5  1  0
  5  6  1  0
  6  7  1  0
  7  8  2  0
  7  9  1  0
  4 10  1  0
 10 11  1  0
 11 12  2  0
 11 13  1  0
 13 14  1  0
 14 15  1  0
 15 16  1  0
 16 17  1  0
 17 18  1  0
 18 19  1  0
 19 20  1  0
 20 21  2  0
 20 22  1  0
 23 22  1  0
 23 24  2  0
 25 24  1  0
 26 25  2  0
 27 26  1  0
 22 27  2  0
 25 28  1  0
 14 29  1  1
 29 30  2  0
 29 31  1  0
M  END
> <chembl_id>
CHEMBL4299851

> <chembl_pref_name>
PIFLUFOLASTAT
