
     RDKit          2D

 34 35  0  0  0  0  0  0  0  0999 V2000
    1.4143   -2.0857    0.0000 O   0  0  0  0  0  0  0  0  0  0  0  0
   -1.9642   -1.8500    0.0000 C   0  0  0  0  0  0  0  0  0  0  0  0
   -2.6787   -2.2625    0.0000 C   0  0  0  0  0  0  0  0  0  0  0  0
   -3.3931   -1.8500    0.0000 C   0  0  0  0  0  0  0  0  0  0  0  0
   -3.3931   -1.0250    0.0000 C   0  0  0  0  0  0  0  0  0  0  0  0
   -2.6787   -0.6125    0.0000 C   0  0  0  0  0  0  0  0  0  0  0  0
   -1.9642   -1.0250    0.0000 C   0  0  0  0  0  0  0  0  0  0  0  0
   -1.2497   -0.6125    0.0000 C   0  0  0  0  0  0  0  0  0  0  0  0
   -0.5353   -1.0250    0.0000 C   0  0  0  0  0  0  0  0  0  0  0  0
   -0.5353   -1.8500    0.0000 C   0  0  0  0  0  0  0  0  0  0  0  0
   -1.2497   -2.2625    0.0000 N   0  0  0  0  0  0  0  0  0  0  0  0
   -1.2497    0.2125    0.0000 O   0  0  0  0  0  0  0  0  0  0  0  0
   -0.5353    0.6250    0.0000 C   0  0  0  0  0  0  0  0  0  0  0  0
    0.1792    0.2125    0.0000 C   0  0  0  0  0  0  0  0  0  0  0  0
   -0.5353    1.4500    0.0000 C   0  0  0  0  0  0  0  0  0  0  0  0
    0.1792    1.8625    0.0000 C   0  0  0  0  0  0  0  0  0  0  0  0
    0.8937    1.4500    0.0000 C   0  0  0  0  0  0  0  0  0  0  0  0
    0.8937    0.6250    0.0000 C   0  0  0  0  0  0  0  0  0  0  0  0
    0.1792    2.6875    0.0000 Cl  0  0  0  0  0  0  0  0  0  0  0  0
    1.6082    1.8625    0.0000 N   0  0  0  0  0  0  0  0  0  0  0  0
    2.3226    1.4500    0.0000 C   0  0  0  0  0  0  0  0  0  0  0  0
    2.3226    0.6250    0.0000 O   0  0  0  0  0  0  0  0  0  0  0  0
    3.0371    1.8625    0.0000 N   0  0  0  0  0  0  0  0  0  0  0  0
    3.7516    1.4500    0.0000 C   0  0  0  0  0  0  0  0  0  0  0  0
    4.6448    0.4580    0.0000 C   0  0  0  0  0  0  0  0  0  0  0  0
    3.8378    0.6295    0.0000 C   0  0  0  0  0  0  0  0  0  0  0  0
    4.5052    1.7856    0.0000 N   0  0  0  0  0  0  0  0  0  0  0  0
    5.0573    1.1725    0.0000 O   0  0  0  0  0  0  0  0  0  0  0  0
    4.9803   -0.2957    0.0000 C   0  0  0  0  0  0  0  0  0  0  0  0
   -4.1076   -2.2625    0.0000 O   0  0  0  0  0  0  0  0  0  0  0  0
   -4.1076   -0.6125    0.0000 O   0  0  0  0  0  0  0  0  0  0  0  0
   -4.1076   -3.0875    0.0000 C   0  0  0  0  0  0  0  0  0  0  0  0
   -4.1076    0.2125    0.0000 C   0  0  0  0  0  0  0  0  0  0  0  0
    3.1126   -1.1196    0.0000 Cl  0  0  0  0  0  0  0  0  0  0  0  0
  2  3  2  0
  2  7  1  0
  2 11  1  0
  3  4  1  0
  4  5  2  0
  5  6  1  0
  6  7  2  0
  7  8  1  0
  8  9  2  0
  9 10  1  0
 10 11  2  0
  8 12  1  0
 12 13  1  0
 14 13  1  0
 13 15  2  0
 14 18  2  0
 15 16  1  0
 16 17  2  0
 17 18  1  0
 16 19  1  0
 17 20  1  0
 20 21  1  0
 21 22  2  0
 21 23  1  0
 23 24  1  0
 26 24  1  0
 24 27  2  0
 25 26  2  0
 25 28  1  0
 27 28  1  0
 25 29  1  0
  4 30  1  0
  5 31  1  0
 30 32  1  0
 31 33  1  0
M  END
> <chembl_id>
CHEMBL2105756

> <chembl_pref_name>
TIVOZANIB HYDROCHLORIDE
