
     RDKit          2D

 13 12  0  0  0  0  0  0  0  0999 V2000
    3.8395    0.0000    0.0000 P   0  0  0  0  0  0  0  0  0  0  0  0
    3.8395   -0.8250    0.0000 O   0  0  0  0  0  0  0  0  0  0  0  0
    3.8395    0.8250    0.0000 O   0  0  0  0  0  0  0  0  0  0  0  0
    4.6645    0.0000    0.0000 O   0  0  0  0  0  0  0  0  0  0  0  0
    3.0145    0.0000    0.0000 O   0  0  0  0  0  0  0  0  0  0  0  0
    0.1786    0.5156    0.0000 C   0  0  0  0  0  0  0  0  0  0  0  0
    0.8931    0.1031    0.0000 C   0  0  0  0  0  0  0  0  0  0  0  0
    0.8931   -0.7219    0.0000 N   0  0  0  0  0  0  0  0  0  0  0  0
    0.1786   -1.1344    0.0000 C   0  0  0  0  0  0  0  0  0  0  0  0
   -0.5359   -0.7219    0.0000 C   0  0  0  0  0  0  0  0  0  0  0  0
   -0.5359    0.1031    0.0000 C   0  0  0  0  0  0  0  0  0  0  0  0
    0.1786    1.3406    0.0000 N   0  0  0  0  0  0  0  0  0  0  0  0
   -1.2503    0.5156    0.0000 N   0  0  0  0  0  0  0  0  0  0  0  0
  1  2  2  0
  1  3  1  0
  1  4  1  0
  1  5  1  0
  6  7  2  0
  6 11  1  0
  7  8  1  0
  8  9  2  0
  9 10  1  0
 10 11  2  0
  6 12  1  0
 11 13  1  0
M  END
> <chembl_id>
CHEMBL3301611

> <chembl_pref_name>
AMIFAMPRIDINE PHOSPHATE
