
     RDKit          2D

 27 30  0  0  0  0  0  0  0  0999 V2000
    2.8042   -1.6333    0.0000 C   0  0  0  0  0  0  0  0  0  0  0  0
    3.5583   -1.2958    0.0000 N   0  0  0  0  0  0  0  0  0  0  0  0
    2.8875   -2.4542    0.0000 N   0  0  0  0  0  0  0  0  0  0  0  0
   -2.2833    2.0750    0.0000 C   0  0  0  0  0  0  0  0  0  0  0  0
   -2.2000    1.2542    0.0000 N   0  0  0  0  0  0  0  0  0  0  0  0
    3.6958   -2.6250    0.0000 N   0  0  0  0  0  0  0  0  0  0  0  0
    4.1083   -1.9083    0.0000 N   0  0  0  0  0  0  0  0  0  0  0  0
   -3.0917    2.2458    0.0000 O   0  0  0  0  0  0  0  0  0  0  0  0
   -1.4833    0.8417    0.0000 C   0  0  0  0  0  0  0  0  0  0  0  0
   -0.7708    1.2542    0.0000 C   0  0  0  0  0  0  0  0  0  0  0  0
   -0.0542    0.8417    0.0000 C   0  0  0  0  0  0  0  0  0  0  0  0
    1.3750   -1.6333    0.0000 N   0  0  0  0  0  0  0  0  0  0  0  0
    2.0875   -1.2208    0.0000 C   0  0  0  0  0  0  0  0  0  0  0  0
   -0.0542    0.0167    0.0000 C   0  0  0  0  0  0  0  0  0  0  0  0
   -2.9542    0.9208    0.0000 C   0  0  0  0  0  0  0  0  0  0  0  0
   -3.5042    1.5333    0.0000 C   0  0  0  0  0  0  0  0  0  0  0  0
   -0.7708   -0.3958    0.0000 C   0  0  0  0  0  0  0  0  0  0  0  0
   -1.6708    2.6292    0.0000 O   0  0  0  0  0  0  0  0  0  0  0  0
    0.6583   -0.3958    0.0000 C   0  0  0  0  0  0  0  0  0  0  0  0
   -1.4833    0.0167    0.0000 C   0  0  0  0  0  0  0  0  0  0  0  0
    0.6583   -1.2208    0.0000 C   0  0  0  0  0  0  0  0  0  0  0  0
    2.0875   -0.3958    0.0000 C   0  0  0  0  0  0  0  0  0  0  0  0
    1.3750    0.0167    0.0000 C   0  0  0  0  0  0  0  0  0  0  0  0
    0.6583    1.2542    0.0000 F   0  0  0  0  0  0  0  0  0  0  0  0
    4.9292   -1.8250    0.0000 C   0  0  0  0  0  0  0  0  0  0  0  0
   -4.2167    1.1208    0.0000 C   0  0  0  0  0  0  0  0  0  0  0  0
   -4.9333    1.5333    0.0000 O   0  0  0  0  0  0  0  0  0  0  0  0
  2  1  2  0
  3  1  1  0
  4  5  1  0
  5  9  1  0
  6  3  2  0
  7  2  1  0
  8  4  1  0
  9 10  2  0
 10 11  1  0
 11 14  2  0
 12 13  1  0
 13  1  1  0
 14 19  1  0
 15  5  1  0
 16 15  1  0
 17 14  1  0
 18  4  2  0
 19 23  2  0
 20 17  2  0
 21 12  2  0
 22 13  2  0
 23 22  1  0
 24 11  1  0
 25  7  1  0
 16 26  1  6
 27 26  1  0
  7  6  1  0
 21 19  1  0
 20  9  1  0
 16  8  1  0
M  END
> <chembl_id>
CHEMBL1257051

> <chembl_pref_name>
TEDIZOLID
