
     RDKit          2D

 61 66  0  0  1  0  0  0  0  0999 V2000
    0.8500   -1.0250    0.0000 C   0  0  0  0  0  0  0  0  0  0  0  0
    0.8500   -1.7375    0.0000 C   0  0  0  0  0  0  0  0  0  0  0  0
    0.2417   -2.0917    0.0000 C   0  0  0  0  0  0  0  0  0  0  0  0
   -0.3750   -1.0292    0.0000 C   0  0  0  0  0  0  0  0  0  0  0  0
   -0.3750   -1.7375    0.0000 C   0  0  0  0  0  0  0  0  0  0  0  0
   -0.9875   -2.0917    0.0000 C   0  0  0  0  0  0  0  0  0  0  0  0
    0.2375   -0.6708    0.0000 C   0  0  0  0  0  0  0  0  0  0  0  0
   -1.5958   -1.7417    0.0000 C   0  0  0  0  0  0  0  0  0  0  0  0
    1.4625   -0.6667    0.0000 N   0  0  0  0  0  0  0  0  0  0  0  0
   -1.8250   -2.8583    0.0000 C   0  0  0  0  0  0  0  0  0  0  0  0
   -2.1167   -2.2167    0.0000 O   0  0  0  0  0  0  0  0  0  0  0  0
   -0.9875   -0.6750    0.0000 C   0  0  0  0  0  0  0  0  0  0  0  0
    0.3958   -2.7792    0.0000 N   0  0  0  0  0  0  0  0  0  0  0  0
    1.0917   -2.8500    0.0000 C   0  0  0  0  0  0  0  0  0  0  0  0
   -1.1292   -2.7792    0.0000 C   0  0  0  0  0  0  0  0  0  0  0  0
   -1.6042   -1.0333    0.0000 C   0  0  0  0  0  0  0  0  0  0  0  0
    1.3792   -2.2042    0.0000 N   0  0  0  0  0  0  0  0  0  0  0  0
   -2.6250   -0.2125    0.0000 C   0  0  0  0  0  0  0  0  0  0  0  0
    1.4583    0.0417    0.0000 C   0  0  0  0  0  0  0  0  0  0  0  0
   -2.0125    0.1458    0.0000 C   0  0  0  0  0  0  0  0  0  0  0  0
   -1.0000    1.4500    0.0000 C   0  0  0  0  0  0  0  0  0  0  0  0
   -2.0167    0.8542    0.0000 C   0  0  0  0  0  0  0  0  0  0  0  0
   -2.6208   -0.9208    0.0000 C   0  0  0  0  0  0  0  0  0  0  0  0
   -0.3833    1.0958    0.0000 C   0  0  0  0  0  0  0  0  0  0  0  0
    2.0708    0.3958    0.0000 C   0  0  0  0  0  0  0  0  0  0  0  0
   -2.4458   -3.2042    0.0000 O   0  0  0  0  0  0  0  0  0  0  0  0
   -3.2417    0.1417    0.0000 O   0  0  0  0  0  0  0  0  0  0  0  0
    1.8000   -4.0750    0.0000 N   0  0  0  0  0  0  0  0  0  0  0  0
    1.8000   -2.8500    0.0000 C   0  0  0  0  0  0  0  0  0  0  0  0
    0.7375   -3.4625    0.0000 C   0  0  0  0  0  0  0  0  0  0  0  0
   -3.0542   -2.8458    0.0000 C   0  0  0  0  0  0  0  0  0  0  0  0
   -3.8500   -0.2167    0.0000 C   0  0  0  0  0  0  0  0  0  0  0  0
   -2.8125   -2.1375    0.0000 C   0  0  0  0  0  0  0  0  0  0  0  0
    0.2333    0.0375    0.0000 O   0  0  0  0  0  0  0  0  0  0  0  0
   -3.1208   -1.5375    0.0000 C   0  0  0  0  0  0  0  0  0  0  0  0
    1.4542    1.4583    0.0000 C   0  0  0  0  0  0  0  0  0  0  0  0
   -0.6500   -3.3042    0.0000 O   0  0  0  0  0  0  0  0  0  0  0  0
    2.0667    1.1042    0.0000 C   0  0  0  0  0  0  0  0  0  0  0  0
    0.8458    0.3917    0.0000 O   0  0  0  0  0  0  0  0  0  0  0  0
    0.2292    1.4542    0.0000 C   0  0  0  0  0  0  0  0  0  0  0  0
    0.8417    1.1000    0.0000 C   0  0  0  0  0  0  0  0  0  0  0  0
   -3.8500   -0.9250    0.0000 O   0  0  0  0  0  0  0  0  0  0  0  0
    2.1542   -3.4625    0.0000 C   0  0  0  0  0  0  0  0  0  0  0  0
    1.0917   -4.0750    0.0000 C   0  0  0  0  0  0  0  0  0  0  0  0
   -0.9833    0.0333    0.0000 O   0  0  0  0  0  0  0  0  0  0  0  0
    2.1542   -4.6875    0.0000 C   0  0  0  0  0  0  0  0  0  0  0  0
   -2.6333    1.2083    0.0000 O   0  0  0  0  0  0  0  0  0  0  0  0
   -0.3833    0.3875    0.0000 O   0  0  0  0  0  0  0  0  0  0  0  0
   -1.8333   -3.5667    0.0000 C   0  0  0  0  0  0  0  0  0  0  0  0
   -2.2208   -0.6792    0.0000 C   0  0  0  0  0  0  0  0  0  0  0  0
   -1.4000   -0.2083    0.0000 C   0  0  0  0  0  0  0  0  0  0  0  0
   -1.0000    2.1583    0.0000 C   0  0  0  0  0  0  0  0  0  0  0  0
   -3.8333   -1.5375    0.0000 O   0  0  0  0  0  0  0  0  0  0  0  0
   -2.0083   -1.2708    0.0000 C   0  0  0  0  0  0  0  0  0  0  0  0
    2.6875    0.0458    0.0000 C   0  0  0  0  0  0  0  0  0  0  0  0
   -4.4667    0.1375    0.0000 C   0  0  0  0  0  0  0  0  0  0  0  0
    2.8625   -4.6875    0.0000 C   0  0  0  0  0  0  0  0  0  0  0  0
    0.2250    2.1625    0.0000 C   0  0  0  0  0  0  0  0  0  0  0  0
   -4.1875   -2.1458    0.0000 C   0  0  0  0  0  0  0  0  0  0  0  0
    3.2167   -5.3000    0.0000 C   0  0  0  0  0  0  0  0  0  0  0  0
    3.2167   -4.0750    0.0000 C   0  0  0  0  0  0  0  0  0  0  0  0
  2  1  2  0
  3  2  1  0
  4  7  1  0
  5  4  1  0
  6  5  2  0
  7  1  1  0
  8 16  2  0
  9  1  1  0
 10 15  1  0
 11  8  1  0
 12  4  2  0
 13  3  2  0
 14 17  1  0
 15  6  1  0
 16 12  1  0
 17  2  1  0
 18 23  1  0
 19  9  1  0
 20 22  1  0
 21 24  1  0
 22 21  1  0
 23 35  1  0
 24 40  1  0
 25 19  1  0
 26 10  1  0
 18 27  1  1
 28 44  1  0
 29 14  1  0
 30 14  1  0
 31 26  1  0
 32 27  1  0
 33 31  2  0
 34  7  2  0
 35 33  1  0
 36 38  1  0
 37 15  2  0
 38 25  2  0
 39 19  2  0
 40 41  1  0
 41 36  2  0
 42 32  2  0
 43 29  1  0
 44 30  1  0
 45 12  1  0
 46 28  1  0
 22 47  1  6
 24 48  1  6
 10 49  1  6
 50 16  1  0
 20 51  1  1
 21 52  1  6
 35 53  1  6
 23 54  1  6
 55 25  1  0
 56 32  1  0
 57 46  1  0
 40 58  1  1
 59 53  1  0
 60 57  1  0
 61 57  1  0
  3  5  1  0
 14 13  1  0
  8  6  1  0
 43 28  1  0
 10 11  1  0
 18 20  1  0
M  END
> <chembl_id>
CHEMBL444633

> <chembl_pref_name>
RIFABUTIN
