
     RDKit          2D

 28 31  0  0  1  0  0  0  0  0999 V2000
    5.6792   -5.3750    0.0000 C   0  0  0  0  0  0  0  0  0  0  0  0
    6.3042   -6.4542    0.0000 N   0  0  0  0  0  0  0  0  0  0  0  0
    6.9167   -5.3750    0.0000 C   0  0  0  0  0  0  0  0  0  0  0  0
    5.6792   -6.0917    0.0000 C   0  0  0  0  0  0  0  0  0  0  0  0
    6.3042   -5.0167    0.0000 C   0  0  0  0  0  0  0  0  0  0  0  0
    4.4417   -6.0917    0.0000 C   0  0  0  0  0  0  0  0  0  0  0  0
    5.0625   -6.4542    0.0000 C   0  0  0  0  0  0  0  0  0  0  0  0
    4.4417   -5.3750    0.0000 C   0  0  0  0  0  0  0  0  0  0  0  0
    6.9167   -6.0917    0.0000 C   0  0  0  0  0  0  0  0  0  0  0  0
    3.8292   -6.4417    0.0000 N   0  0  0  0  0  0  0  0  0  0  0  0
    5.0625   -5.0167    0.0000 C   0  0  0  0  0  0  0  0  0  0  0  0
    6.3042   -7.1542    0.0000 C   0  0  0  0  0  0  0  0  0  0  0  0
    7.5417   -5.0167    0.0000 C   0  0  0  0  0  0  0  0  0  0  0  0
    2.5917   -7.1667    0.0000 N   0  0  0  0  0  0  0  0  0  0  0  0
    6.6750   -7.6917    0.0000 C   0  0  0  0  0  0  0  0  0  0  0  0
    5.9167   -7.6917    0.0000 C   0  0  0  0  0  0  0  0  0  0  0  0
    3.8292   -7.1542    0.0000 C   0  0  0  0  0  0  0  0  0  0  0  0
    3.2167   -6.0875    0.0000 C   0  0  0  0  0  0  0  0  0  0  0  0
    6.3042   -4.3042    0.0000 O   0  0  0  0  0  0  0  0  0  0  0  0
    3.2167   -7.5167    0.0000 C   0  0  0  0  0  0  0  0  0  0  0  0
    2.5917   -6.4417    0.0000 C   0  0  0  0  0  0  0  0  0  0  0  0
    5.0625   -7.1542    0.0000 F   0  0  0  0  0  0  0  0  0  0  0  0
    3.8292   -5.0250    0.0000 F   0  0  0  0  0  0  0  0  0  0  0  0
    7.5417   -4.3042    0.0000 O   0  0  0  0  0  0  0  0  0  0  0  0
    5.0625   -4.3042    0.0000 N   0  0  0  0  0  0  0  0  0  0  0  0
    8.1667   -5.3542    0.0000 O   0  0  0  0  0  0  0  0  0  0  0  0
    1.9792   -6.0917    0.0000 C   0  0  0  0  0  0  0  0  0  0  0  0
    3.2292   -8.2167    0.0000 C   0  0  0  0  0  0  0  0  0  0  0  0
  2  4  1  0
  3  5  1  0
  4  1  2  0
  5  1  1  0
  6  8  1  0
  7  4  1  0
  8 11  2  0
  9  3  2  0
 10  6  1  0
 11  1  1  0
 12  2  1  0
 13  3  1  0
 14 21  1  0
 15 12  1  0
 16 12  1  0
 17 10  1  0
 18 10  1  0
 19  5  2  0
 20 17  1  0
 21 18  1  0
 22  7  1  0
 23  8  1  0
 24 13  2  0
 25 11  1  0
 26 13  1  0
 21 27  1  1
 20 28  1  1
  6  7  2  0
  9  2  1  0
 15 16  1  0
 14 20  1  0
M  END
> <chembl_id>
CHEMBL850

> <chembl_pref_name>
SPARFLOXACIN
