
     RDKit          2D

 38 43  0  0  0  0  0  0  0  0999 V2000
    2.8260  -15.5125    0.0000 Cl  0  0  0  0  0  0  0  0  0  0  0  0
   -4.8320  -16.2726    0.0000 C   0  0  0  0  0  0  0  0  0  0  0  0
   -4.4144  -16.9756    0.0000 C   0  0  0  0  0  0  0  0  0  0  0  0
   -3.6016  -16.9640    0.0000 C   0  0  0  0  0  0  0  0  0  0  0  0
   -4.4369  -15.5537    0.0000 C   0  0  0  0  0  0  0  0  0  0  0  0
   -3.6175  -15.5446    0.0000 C   0  0  0  0  0  0  0  0  0  0  0  0
   -3.1943  -16.2557    0.0000 C   0  0  0  0  0  0  0  0  0  0  0  0
   -2.3943  -14.8185    0.0000 C   0  0  0  0  0  0  0  0  0  0  0  0
   -3.2224  -14.8269    0.0000 C   0  0  0  0  0  0  0  0  0  0  0  0
   -1.9753  -15.5253    0.0000 C   0  0  0  0  0  0  0  0  0  0  0  0
   -2.3785  -16.2460    0.0000 C   0  0  0  0  0  0  0  0  0  0  0  0
   -1.9591  -16.9525    0.0000 C   0  0  0  0  0  0  0  0  0  0  0  0
   -1.1336  -16.9440    0.0000 C   0  0  0  0  0  0  0  0  0  0  0  0
   -0.7262  -16.2233    0.0000 C   0  0  0  0  0  0  0  0  0  0  0  0
   -1.1485  -15.5113    0.0000 C   0  0  0  0  0  0  0  0  0  0  0  0
   -2.7650  -17.3978    0.0000 O   0  0  0  0  0  0  0  0  0  0  0  0
   -1.5599  -16.2414    0.0000 C   0  0  0  0  0  0  0  0  0  0  0  0
   -1.9940  -14.1024    0.0000 N   0  0  0  0  0  0  0  0  0  0  0  0
   -1.5517  -14.0885    0.0000 C   0  0  0  0  0  0  0  0  0  0  0  0
   -0.7134  -17.6480    0.0000 N   0  0  0  0  0  0  0  0  0  0  0  0
   -2.4195  -13.4000    0.0000 C   0  0  0  0  0  0  0  0  0  0  0  0
   -2.0260  -12.6844    0.0000 C   0  0  0  0  0  0  0  0  0  0  0  0
   -1.3219  -12.2553    0.0000 C   0  0  0  0  0  0  0  0  0  0  0  0
   -2.0374  -11.8618    0.0000 C   0  0  0  0  0  0  0  0  0  0  0  0
   -2.8062  -14.1072    0.0000 H   0  0  0  0  0  0  0  0  0  0  0  0
   -1.9591  -17.7721    0.0000 H   0  0  0  0  0  0  0  0  0  0  0  0
    0.1360  -17.6356    0.0000 C   0  0  0  0  0  0  0  0  0  0  0  0
    0.5713  -18.3652    0.0000 C   0  0  0  0  0  0  0  0  0  0  0  0
    0.5500  -16.8939    0.0000 O   0  0  0  0  0  0  0  0  0  0  0  0
    1.4207  -18.3528    0.0000 C   0  0  0  0  0  0  0  0  0  0  0  0
   -1.1276  -18.3898    0.0000 C   0  0  0  0  0  0  0  0  0  0  0  0
    1.8561  -19.0824    0.0000 C   0  0  0  0  0  0  0  0  0  0  0  0
    1.5245  -19.8639    0.0000 C   0  0  0  0  0  0  0  0  0  0  0  0
    2.1640  -20.4231    0.0000 C   0  0  0  0  0  0  0  0  0  0  0  0
    2.8935  -19.9878    0.0000 O   0  0  0  0  0  0  0  0  0  0  0  0
    2.7048  -19.1595    0.0000 C   0  0  0  0  0  0  0  0  0  0  0  0
   -4.8167  -17.6958    0.0000 O   0  0  0  0  0  0  0  0  0  0  0  0
   -2.7934  -15.5222    0.0000 O   0  0  0  0  0  0  0  0  0  0  0  0
 11 12  1  0
 12 13  1  0
 13 14  1  0
 14 15  1  0
  4 16  1  0
 12 16  1  0
 11 17  1  1
  8 18  1  0
 18 19  1  0
 19 17  1  0
 13 20  1  1
 18 21  1  0
 21 22  1  0
 23 22  1  0
 24 23  1  0
 22 24  1  0
  8 25  1  6
 12 26  1  1
 20 27  1  0
  2  3  1  0
 27 28  1  0
  2  5  2  0
 27 29  2  0
  3  4  2  0
 28 30  2  0
  4  7  1  0
  6  5  1  0
 20 31  1  0
  6  7  2  0
 30 32  1  0
 32 33  1  0
  6  9  1  0
  7 11  1  0
 10  8  1  0
  8  9  1  0
 33 34  2  0
 34 35  1  0
 35 36  1  0
 36 32  2  0
 10 11  1  0
 10 15  1  0
  3 37  1  0
 10 38  1  1
M  END
> <chembl_id>
CHEMBL490665

> <chembl_pref_name>
NALFURAFINE HYDROCHLORIDE
