
     RDKit          2D

 39 42  0  0  0  0  0  0  0  0999 V2000
    3.8970   -4.7772    0.0000 C   0  0  0  0  0  0  0  0  0  0  0  0
    3.0721   -4.7628    0.0000 C   0  0  0  0  0  0  0  0  0  0  0  0
    2.8036   -5.5428    0.0000 C   0  0  0  0  0  0  0  0  0  0  0  0
    3.4624   -6.0393    0.0000 N   0  0  0  0  0  0  0  0  0  0  0  0
    4.1382   -5.5661    0.0000 C   0  0  0  0  0  0  0  0  0  0  0  0
    2.0146   -5.7840    0.0000 O   0  0  0  0  0  0  0  0  0  0  0  0
    4.9031   -5.8752    0.0000 C   0  0  0  0  0  0  0  0  0  0  0  0
    5.5532   -5.3673    0.0000 O   0  0  0  0  0  0  0  0  0  0  0  0
    5.0180   -6.6922    0.0000 O   0  0  0  0  0  0  0  0  0  0  0  0
    3.8240   -2.0838    0.0000 C   0  0  0  0  0  0  0  0  0  0  0  0
    3.7343   -2.8655    0.0000 C   0  0  0  0  0  0  0  0  0  0  0  0
    3.0379   -1.5856    0.0000 C   0  0  0  0  0  0  0  0  0  0  0  0
    2.6336   -2.3956    0.0000 C   0  0  0  0  0  0  0  0  0  0  0  0
    1.7659   -2.3391    0.0000 C   0  0  0  0  0  0  0  0  0  0  0  0
    1.1798   -3.0722    0.0000 O   0  0  0  0  0  0  0  0  0  0  0  0
    0.3561   -1.6473    0.0000 O   0  0  0  0  0  0  0  0  0  0  0  0
    1.3729   -1.6462    0.0000 C   0  0  0  0  0  0  0  0  0  0  0  0
    1.3620   -0.2499    0.0000 C   0  0  0  0  0  0  0  0  0  0  0  0
    0.3561   -0.2315    0.0000 O   0  0  0  0  0  0  0  0  0  0  0  0
    1.8051   -0.8844    0.0000 C   0  0  0  0  0  0  0  0  0  0  0  0
    2.5912   -0.9350    0.0000 O   0  0  0  0  0  0  0  0  0  0  0  0
    4.4419   -1.6421    0.0000 C   0  0  0  0  0  0  0  0  0  0  0  0
    5.1601   -2.0482    0.0000 C   0  0  0  0  0  0  0  0  0  0  0  0
    5.8671   -1.6420    0.0000 C   0  0  0  0  0  0  0  0  0  0  0  0
    6.5857   -2.0480    0.0000 C   0  0  0  0  0  0  0  0  0  0  0  0
    7.3070   -1.6388    0.0000 C   0  0  0  0  0  0  0  0  0  0  0  0
    8.0133   -2.0528    0.0000 C   0  0  0  0  0  0  0  0  0  0  0  0
    8.0173   -2.8661    0.0000 C   0  0  0  0  0  0  0  0  0  0  0  0
    8.7265   -3.2859    0.0000 O   0  0  0  0  0  0  0  0  0  0  0  0
    7.3018   -3.2719    0.0000 C   0  0  0  0  0  0  0  0  0  0  0  0
    6.6001   -2.8756    0.0000 C   0  0  0  0  0  0  0  0  0  0  0  0
    5.1635   -2.8698    0.0000 C   0  0  0  0  0  0  0  0  0  0  0  0
    5.9812   -3.2902    0.0000 Cl  0  0  0  0  0  0  0  0  0  0  0  0
    4.4414   -3.2694    0.0000 C   0  0  0  0  0  0  0  0  0  0  0  0
    9.4393   -2.8687    0.0000 C   0  0  0  0  0  0  0  0  0  0  0  0
   10.3338   -3.2859    0.0000 C   0  0  0  0  0  0  0  0  0  0  0  0
    2.2467   -0.1248    0.0000 C   0  0  0  0  0  0  0  0  0  0  0  0
    3.5084   -0.7925    0.0000 O   0  0  0  0  0  0  0  0  0  0  0  0
    3.1924   -3.0722    0.0000 O   0  0  0  0  0  0  0  0  0  0  0  0
  1  2  1  0
  2  3  1  0
  3  4  1  0
  4  5  1  0
  1  5  1  0
  3  6  2  0
  5  7  1  1
  7  8  1  0
  7  9  2  0
 10 11  1  0
 10 22  2  0
 11 34  2  0
 12 13  1  0
 12 10  1  1
 12 38  1  0
 13 39  1  6
 14 15  1  1
 14 13  1  0
 17 16  1  6
 17 14  1  0
 18 19  1  0
 20 21  1  0
 20 17  1  0
 20 18  1  1
 21 12  1  0
 22 23  1  0
 23 32  2  0
 24 23  1  0
 24 25  1  0
 25 26  2  0
 25 31  1  0
 26 27  1  0
 27 28  2  0
 28 29  1  0
 29 35  1  0
 30 28  1  0
 31 30  2  0
 32 33  1  0
 34 32  1  0
 35 36  1  0
 37 38  1  0
 20 37  1  0
M  END
> <chembl_id>
CHEMBL5315054

> <chembl_pref_name>
ERTUGLIFLOZIN PIDOLATE
