
     RDKit          2D

 16 14  0  0  0  0  0  0  0  0999 V2000
   -2.8286  -11.4321    0.0000 C   0  0  0  0  0  0  0  0  0  0  0  0
   -2.1141  -11.0196    0.0000 C   0  0  0  0  0  0  0  0  0  0  0  0
   -1.3996  -11.4321    0.0000 C   0  0  0  0  0  0  0  0  0  0  0  0
   -0.6852  -11.0196    0.0000 C   0  0  0  0  0  0  0  0  0  0  0  0
    0.0293  -11.4321    0.0000 O   0  0  0  0  0  0  0  0  0  0  0  0
    0.7438  -11.0196    0.0000 N   0  0  0  0  0  0  0  0  0  0  0  0
    1.4583  -11.4321    0.0000 O   0  0  0  0  0  0  0  0  0  0  0  0
   -1.3996  -12.2571    0.0000 C   0  0  0  0  0  0  0  0  0  0  0  0
   -3.0054   -8.5446    0.0000 C   0  0  0  0  0  0  0  0  0  0  0  0
   -2.2909   -8.9571    0.0000 C   0  0  0  0  0  0  0  0  0  0  0  0
   -2.2909   -9.7821    0.0000 C   0  0  0  0  0  0  0  0  0  0  0  0
   -1.5764   -8.5446    0.0000 C   0  0  0  0  0  0  0  0  0  0  0  0
   -0.8619   -8.9571    0.0000 C   0  0  0  0  0  0  0  0  0  0  0  0
   -0.1475   -8.5446    0.0000 O   0  0  0  0  0  0  0  0  0  0  0  0
    0.5670   -8.9571    0.0000 N   0  0  0  0  0  0  0  0  0  0  0  0
    1.2815   -8.5446    0.0000 O   0  0  0  0  0  0  0  0  0  0  0  0
  1  2  1  0
  2  3  1  0
  3  4  1  0
  4  5  1  0
  5  6  1  0
  6  7  2  0
  3  8  1  0
  9 10  1  0
 10 11  1  0
 10 12  1  0
 12 13  1  0
 13 14  1  0
 14 15  1  0
 15 16  2  0
M  END
> <chembl_id>
CHEMBL3833339

> <chembl_pref_name>
AMYL NITRITE
