
     RDKit          2D

 10  9  0  0  0  0  0  0  0  0999 V2000
    6.7667   -7.2792    0.0000 Na  0  0  0  0  0 15  0  0  0  0  0  0
    5.5375   -6.8917    0.0000 C   0  0  0  0  0  0  0  0  0  0  0  0
    6.1542   -7.2417    0.0000 O   0  0  0  0  0  0  0  0  0  0  0  0
    5.5417   -6.1792    0.0000 O   0  0  0  0  0  0  0  0  0  0  0  0
    4.9167   -7.2417    0.0000 C   0  0  0  0  0  0  0  0  0  0  0  0
    4.9250   -7.9542    0.0000 C   0  0  0  0  0  0  0  0  0  0  0  0
    4.3125   -6.8917    0.0000 C   0  0  0  0  0  0  0  0  0  0  0  0
    3.6917   -7.2542    0.0000 C   0  0  0  0  0  0  0  0  0  0  0  0
    4.3042   -8.3125    0.0000 C   0  0  0  0  0  0  0  0  0  0  0  0
    3.6917   -7.9542    0.0000 C   0  0  0  0  0  0  0  0  0  0  0  0
  3  2  1  0
  4  2  2  0
  5  2  1  0
  6  5  2  0
  7  5  1  0
  8  7  2  0
  9  6  1  0
 10  9  2  0
 10  8  1  0
M  CHG  2   1   1   3  -1
M  END
> <chembl_id>
CHEMBL1356

> <chembl_pref_name>
SODIUM BENZOATE
