
     RDKit          2D

 43 45  0  0  0  0  0  0  0  0999 V2000
    7.6102   -0.0694    0.0000 P   0  0  0  0  0  0  0  0  0  0  0  0
    7.6102   -0.8944    0.0000 O   0  0  0  0  0  0  0  0  0  0  0  0
    7.6102    0.7556    0.0000 O   0  0  0  0  0  0  0  0  0  0  0  0
    8.4352   -0.0694    0.0000 O   0  0  0  0  0  0  0  0  0  0  0  0
    6.7852   -0.0694    0.0000 O   0  0  0  0  0  0  0  0  0  0  0  0
    2.9179    0.8478    0.0000 C   0  0  0  0  0  0  0  0  0  0  0  0
    2.2035    0.4353    0.0000 C   0  0  0  0  0  0  0  0  0  0  0  0
    2.2035   -0.3897    0.0000 C   0  0  0  0  0  0  0  0  0  0  0  0
    2.9179   -0.8022    0.0000 C   0  0  0  0  0  0  0  0  0  0  0  0
    3.6324   -0.3897    0.0000 C   0  0  0  0  0  0  0  0  0  0  0  0
    3.6324    0.4353    0.0000 C   0  0  0  0  0  0  0  0  0  0  0  0
    0.7745    0.4353    0.0000 O   0  0  0  0  0  0  0  0  0  0  0  0
    0.7745   -0.3897    0.0000 C   0  0  0  0  0  0  0  0  0  0  0  0
    1.4890   -0.8022    0.0000 N   0  0  0  0  0  0  0  0  0  0  0  0
   -0.6544    0.4353    0.0000 N   0  0  0  0  0  0  0  0  0  0  0  0
   -0.6544   -0.3897    0.0000 C   0  0  0  0  0  0  0  0  0  0  0  0
    0.0601   -0.8022    0.0000 N   0  0  0  0  0  0  0  0  0  0  0  0
   -1.3689    0.8478    0.0000 C   0  0  0  0  0  0  0  0  0  0  0  0
   -2.0833    0.4353    0.0000 N   0  0  0  0  0  0  0  0  0  0  0  0
   -2.0833   -0.3897    0.0000 C   0  0  0  0  0  0  0  0  0  0  0  0
   -1.3689   -0.8022    0.0000 C   0  0  0  0  0  0  0  0  0  0  0  0
   -3.5123    0.4353    0.0000 C   0  0  0  0  0  0  0  0  0  0  0  0
   -3.5123   -0.3897    0.0000 C   0  0  0  0  0  0  0  0  0  0  0  0
   -2.7978   -0.8022    0.0000 N   0  0  0  0  0  0  0  0  0  0  0  0
   -4.2267    0.8478    0.0000 C   0  0  0  0  0  0  0  0  0  0  0  0
   -4.9412    0.4353    0.0000 C   0  0  0  0  0  0  0  0  0  0  0  0
   -4.9412   -0.3897    0.0000 C   0  0  0  0  0  0  0  0  0  0  0  0
   -4.2267   -0.8022    0.0000 C   0  0  0  0  0  0  0  0  0  0  0  0
   -6.3467    2.1235    0.0000 C   0  0  0  0  0  0  0  0  0  0  0  0
   -7.0611    1.7110    0.0000 N   0  0  0  0  0  0  0  0  0  0  0  0
   -7.0611    0.8860    0.0000 C   0  0  0  0  0  0  0  0  0  0  0  0
   -6.3467    0.4735    0.0000 C   0  0  0  0  0  0  0  0  0  0  0  0
   -5.6322    0.8860    0.0000 N   0  0  0  0  0  0  0  0  0  0  0  0
   -5.6322    1.7110    0.0000 C   0  0  0  0  0  0  0  0  0  0  0  0
   -7.7756    2.1235    0.0000 C   0  0  0  0  0  0  0  0  0  0  0  0
   -8.5107    1.7490    0.0000 C   0  0  0  0  0  0  0  0  0  0  0  0
    0.0601   -1.6272    0.0000 C   0  0  0  0  0  0  0  0  0  0  0  0
    1.4890    0.8478    0.0000 Cl  0  0  0  0  0  0  0  0  0  0  0  0
    2.8748    1.6717    0.0000 O   0  0  0  0  0  0  0  0  0  0  0  0
    3.5667    2.1210    0.0000 C   0  0  0  0  0  0  0  0  0  0  0  0
    4.2998   -0.8746    0.0000 O   0  0  0  0  0  0  0  0  0  0  0  0
    5.0535   -0.5391    0.0000 C   0  0  0  0  0  0  0  0  0  0  0  0
    2.9179   -1.6272    0.0000 Cl  0  0  0  0  0  0  0  0  0  0  0  0
  1  2  2  0
  1  3  1  0
  1  4  1  0
  1  5  1  0
  6  7  1  0
  7  8  2  0
  8  9  1  0
  9 10  2  0
 10 11  1  0
  6 11  2  0
 12 13  2  0
 13 14  1  0
 14  8  1  0
 15 16  2  0
 16 17  1  0
 17 13  1  0
 18 19  2  0
 19 20  1  0
 20 21  2  0
 18 15  1  0
 21 16  1  0
 22 23  1  0
 23 24  1  0
 24 20  1  0
 25 26  1  0
 26 27  2  0
 27 28  1  0
 25 22  2  0
 28 23  2  0
 29 30  1  0
 30 31  1  0
 31 32  1  0
 32 33  1  0
 33 34  1  0
 29 34  1  0
 30 35  1  0
 35 36  1  0
 33 26  1  0
 17 37  1  0
  7 38  1  0
  6 39  1  0
 39 40  1  0
 10 41  1  0
 41 42  1  0
  9 43  1  0
M  END
> <chembl_id>
CHEMBL1834657

> <chembl_pref_name>
INFIGRATINIB PHOSPHATE
