
     RDKit          2D

 38 41  0  0  0  0  0  0  0  0999 V2000
   -0.9425   -0.0587    0.0000 C   0  0  0  0  0  0  0  0  0  0  0  0
   -0.1304   -0.2039    0.0000 C   0  0  0  0  0  0  0  0  0  0  0  0
    0.1499   -0.9798    0.0000 C   0  0  0  0  0  0  0  0  0  0  0  0
   -0.3819   -1.6105    0.0000 C   0  0  0  0  0  0  0  0  0  0  0  0
   -1.1940   -1.4653    0.0000 C   0  0  0  0  0  0  0  0  0  0  0  0
   -1.4743   -0.6894    0.0000 C   0  0  0  0  0  0  0  0  0  0  0  0
   -2.2865   -0.5442    0.0000 C   0  0  0  0  0  0  0  0  0  0  0  0
   -1.7259   -2.0960    0.0000 C   0  0  0  0  0  0  0  0  0  0  0  0
   -2.5380   -1.9508    0.0000 C   0  0  0  0  0  0  0  0  0  0  0  0
   -2.8183   -1.1749    0.0000 C   0  0  0  0  0  0  0  0  0  0  0  0
   -3.3789    0.3770    0.0000 C   0  0  0  0  0  0  0  0  0  0  0  0
   -2.5668    0.2318    0.0000 C   0  0  0  0  0  0  0  0  0  0  0  0
   -3.6304   -1.0296    0.0000 C   0  0  0  0  0  0  0  0  0  0  0  0
   -3.9107   -0.2537    0.0000 C   0  0  0  0  0  0  0  0  0  0  0  0
   -4.7353   -0.2805    0.0000 C   0  0  0  0  0  0  0  0  0  0  0  0
   -4.2817   -1.5360    0.0000 C   0  0  0  0  0  0  0  0  0  0  0  0
   -4.9646   -1.0730    0.0000 C   0  0  0  0  0  0  0  0  0  0  0  0
   -5.2416    0.3708    0.0000 C   0  0  0  0  0  0  0  0  0  0  0  0
   -6.0589    0.2579    0.0000 C   0  0  0  0  0  0  0  0  0  0  0  0
   -6.5652    0.9093    0.0000 C   0  0  0  0  0  0  0  0  0  0  0  0
   -7.3825    0.7964    0.0000 C   0  0  0  0  0  0  0  0  0  0  0  0
   -7.8888    1.4478    0.0000 O   0  0  0  0  0  0  0  0  0  0  0  0
   -7.6933    0.0322    0.0000 O   0  0  0  0  0  0  0  0  0  0  0  0
   -5.7480    1.0221    0.0000 H   0  0  0  0  0  0  0  0  0  0  0  0
   -4.2706    0.4886    0.0000 C   0  0  0  0  0  0  0  0  0  0  0  0
   -3.1023   -1.9494    0.0000 H   0  0  0  0  0  0  0  0  0  0  0  0
   -2.2577   -2.7267    0.0000 H   0  0  0  0  0  0  0  0  0  0  0  0
   -0.9137   -2.2412    0.0000 H   0  0  0  0  0  0  0  0  0  0  0  0
   -1.7546    0.0866    0.0000 C   0  0  0  0  0  0  0  0  0  0  0  0
    0.6817   -0.3491    0.0000 H   0  0  0  0  0  0  0  0  0  0  0  0
   -2.8471    1.0077    0.0000 H   0  0  0  0  0  0  0  0  0  0  0  0
    0.9620   -1.1250    0.0000 O   0  0  0  0  0  0  0  0  0  0  0  0
   -2.0024    0.2304    0.0000 H   0  0  0  0  0  0  0  0  0  0  0  0
   -3.0698   -2.5815    0.0000 O   0  0  0  0  0  0  0  0  0  0  0  0
   -3.7186   -1.8499    0.0000 H   0  0  0  0  0  0  0  0  0  0  0  0
   -5.5455   -0.4360    0.0000 H   0  0  0  0  0  0  0  0  0  0  0  0
   -4.9307    1.1350    0.0000 C   0  0  0  0  0  0  0  0  0  0  0  0
   -3.6592    1.1529    0.0000 O   0  0  0  0  0  0  0  0  0  0  0  0
  1  2  1  0
  2  3  1  0
  3  4  1  0
  4  5  1  0
  5  6  1  0
  1  6  1  0
  8  9  1  0
  9 10  1  0
  7 10  1  0
  5  8  1  0
  7  6  1  0
 11 12  1  0
 13 14  1  0
 11 14  1  0
 12  7  1  0
 10 13  1  0
 16 17  1  0
 15 17  1  0
 15 14  1  0
 13 16  1  0
 15 18  1  6
 18 19  1  0
 19 20  1  0
 20 21  1  0
 21 22  2  0
 21 23  1  0
 18 24  1  6
 14 25  1  6
 10 26  1  6
  9 27  1  6
  5 28  1  6
  6 29  1  6
  3 30  1  6
 11 31  1  6
  3 32  1  1
  7 33  1  1
  9 34  1  1
 13 35  1  1
 15 36  1  1
 18 37  1  1
 11 38  1  1
M  END
> <chembl_id>
CHEMBL205596

> <chembl_pref_name>
CHOLIC ACID
