
     RDKit          2D

 13 15  0  0  0  0  0  0  0  0999 V2000
   -0.0208   -1.7917    0.0000 C   0  0  0  0  0  0  0  0  0  0  0  0
    1.4875    0.8583    0.0000 C   0  0  0  0  0  0  0  0  0  0  0  0
   -1.4958    0.8458    0.0000 C   0  0  0  0  0  0  0  0  0  0  0  0
    0.0667   -0.0167    0.0000 C   0  0  0  0  0  0  0  0  0  0  0  0
   -1.4833   -0.8917    0.0000 C   0  0  0  0  0  0  0  0  0  0  0  0
    1.4917   -0.8542    0.0000 C   0  0  0  0  0  0  0  0  0  0  0  0
   -0.0375    1.7458    0.0000 C   0  0  0  0  0  0  0  0  0  0  0  0
    0.7542   -0.5042    0.0000 C   0  0  0  0  0  0  0  0  0  0  0  0
    0.0625    0.8500    0.0000 C   0  0  0  0  0  0  0  0  0  0  0  0
   -0.7708   -0.3125    0.0000 C   0  0  0  0  0  0  0  0  0  0  0  0
   -0.0208   -3.3792    0.0000 N   0  0  0  0  0  0  0  0  0  0  0  0
   -3.0833    1.7333    0.0000 C   0  0  0  0  0  0  0  0  0  0  0  0
    3.0042    1.7625    0.0000 C   0  0  0  0  0  0  0  0  0  0  0  0
  2  6  1  0
  3  5  1  0
  4  8  1  0
  5  1  1  0
  6  1  1  0
  7  2  1  0
  8  1  1  0
  9  4  1  0
 10  4  1  0
 11  1  1  0
 12  3  1  0
 13  2  1  0
  3 10  1  0
  2  9  1  0
  3  7  1  0
M  END
> <chembl_id>
CHEMBL807

> <chembl_pref_name>
MEMANTINE
