
     RDKit          2D

 19 21  0  0  0  0  0  0  0  0999 V2000
    4.7542   -7.2417    0.0000 C   0  0  0  0  0  0  0  0  0  0  0  0
    4.0375   -7.2417    0.0000 N   0  0  0  0  0  0  0  0  0  0  0  0
    4.9792   -6.5667    0.0000 C   0  0  0  0  0  0  0  0  0  0  0  0
    3.8167   -6.5625    0.0000 C   0  0  0  0  0  0  0  0  0  0  0  0
    4.4042   -6.1542    0.0000 N   0  0  0  0  0  0  0  0  0  0  0  0
    5.1542   -7.8250    0.0000 O   0  0  0  0  0  0  0  0  0  0  0  0
    3.1417   -6.3417    0.0000 O   0  0  0  0  0  0  0  0  0  0  0  0
    5.5792   -6.9292    0.0000 C   0  0  0  0  0  0  0  0  0  0  0  0
    5.3250   -5.9625    0.0000 C   0  0  0  0  0  0  0  0  0  0  0  0
    5.5667   -7.6417    0.0000 C   0  0  0  0  0  0  0  0  0  0  0  0
    6.2000   -6.5875    0.0000 C   0  0  0  0  0  0  0  0  0  0  0  0
    6.0375   -5.9667    0.0000 C   0  0  0  0  0  0  0  0  0  0  0  0
    4.9792   -5.3417    0.0000 C   0  0  0  0  0  0  0  0  0  0  0  0
    6.8125   -6.9500    0.0000 C   0  0  0  0  0  0  0  0  0  0  0  0
    6.4000   -5.3500    0.0000 C   0  0  0  0  0  0  0  0  0  0  0  0
    5.3375   -4.7292    0.0000 C   0  0  0  0  0  0  0  0  0  0  0  0
    6.1792   -8.0125    0.0000 C   0  0  0  0  0  0  0  0  0  0  0  0
    6.8000   -7.6625    0.0000 C   0  0  0  0  0  0  0  0  0  0  0  0
    6.0417   -4.7292    0.0000 C   0  0  0  0  0  0  0  0  0  0  0  0
  2  1  1  0
  3  1  1  0
  4  2  1  0
  5  3  1  0
  6  1  2  0
  7  4  2  0
  8  3  1  0
  9  3  1  0
 10  8  2  0
 11  8  1  0
 12  9  2  0
 13  9  1  0
 14 11  2  0
 15 12  1  0
 16 13  2  0
 17 10  1  0
 18 14  1  0
 19 16  1  0
  4  5  1  0
 19 15  2  0
 18 17  2  0
M  END
> <chembl_id>
CHEMBL16

> <chembl_pref_name>
PHENYTOIN
