
     RDKit          2D

 30 32  0  0  0  0  0  0  0  0999 V2000
    2.6542   -5.3125    0.0000 C   0  0  0  0  0  0  0  0  0  0  0  0
    3.2292   -5.7292    0.0000 N   0  0  0  0  0  0  0  0  0  0  0  0
    2.9875   -6.4042    0.0000 N   0  0  0  0  0  0  0  0  0  0  0  0
    2.3000   -6.4042    0.0000 N   0  0  0  0  0  0  0  0  0  0  0  0
    2.0667   -5.7292    0.0000 N   0  0  0  0  0  0  0  0  0  0  0  0
    6.8625   -4.3375    0.0000 N   0  0  0  0  0  0  0  0  0  0  0  0
    6.2542   -4.6917    0.0000 C   0  0  0  0  0  0  0  0  0  0  0  0
    6.8625   -3.6292    0.0000 C   0  0  0  0  0  0  0  0  0  0  0  0
    3.8292   -5.3917    0.0000 C   0  0  0  0  0  0  0  0  0  0  0  0
    5.0292   -5.4042    0.0000 N   0  0  0  0  0  0  0  0  0  0  0  0
    2.6625   -4.6042    0.0000 O   0  0  0  0  0  0  0  0  0  0  0  0
    5.6542   -4.3375    0.0000 C   0  0  0  0  0  0  0  0  0  0  0  0
    6.2542   -5.4042    0.0000 C   0  0  0  0  0  0  0  0  0  0  0  0
    6.2375   -3.2792    0.0000 O   0  0  0  0  0  0  0  0  0  0  0  0
    7.4792   -4.6917    0.0000 C   0  0  0  0  0  0  0  0  0  0  0  0
    4.4375   -5.7417    0.0000 C   0  0  0  0  0  0  0  0  0  0  0  0
    5.6542   -5.7667    0.0000 C   0  0  0  0  0  0  0  0  0  0  0  0
    5.0292   -4.7125    0.0000 C   0  0  0  0  0  0  0  0  0  0  0  0
    1.4042   -5.3125    0.0000 C   0  0  0  0  0  0  0  0  0  0  0  0
    6.2542   -3.9292    0.0000 C   0  0  0  0  0  0  0  0  0  0  0  0
    7.4667   -3.2792    0.0000 C   0  0  0  0  0  0  0  0  0  0  0  0
    5.6542   -3.5667    0.0000 O   0  0  0  0  0  0  0  0  0  0  0  0
    8.0917   -4.3375    0.0000 C   0  0  0  0  0  0  0  0  0  0  0  0
    7.4792   -5.3917    0.0000 C   0  0  0  0  0  0  0  0  0  0  0  0
    5.0292   -3.8917    0.0000 C   0  0  0  0  0  0  0  0  0  0  0  0
    0.7750   -5.6792    0.0000 C   0  0  0  0  0  0  0  0  0  0  0  0
    8.0542   -3.6167    0.0000 C   0  0  0  0  0  0  0  0  0  0  0  0
    8.7042   -4.6917    0.0000 C   0  0  0  0  0  0  0  0  0  0  0  0
    8.0917   -5.7417    0.0000 C   0  0  0  0  0  0  0  0  0  0  0  0
    8.7042   -5.3917    0.0000 C   0  0  0  0  0  0  0  0  0  0  0  0
  2  1  1  0
  3  2  1  0
  4  5  1  0
  5  1  1  0
  6  7  1  0
  7 12  1  0
  8  6  1  0
  9  2  1  0
 10 16  1  0
 11  1  2  0
 12 18  1  0
 13 17  1  0
 14  8  2  0
 15  6  1  0
 16  9  1  0
 17 10  1  0
 18 10  1  0
 19  5  1  0
 20  7  1  0
 21  8  1  0
 22 20  1  0
 23 15  2  0
 24 15  1  0
 25 22  1  0
 26 19  1  0
 27 21  1  0
 28 23  1  0
 29 24  2  0
 30 28  2  0
  4  3  2  0
  7 13  1  0
 30 29  1  0
M  END
> <chembl_id>
CHEMBL634

> <chembl_pref_name>
ALFENTANIL
