
     RDKit          2D

 19 19  0  0  0  0  0  0  0  0999 V2000
    8.8792   -4.6542    0.0000 Cl  0  0  0  0  0  0  0  0  0  0  0  0
    4.9917   -4.2417    0.0000 C   0  0  0  0  0  0  0  0  0  0  0  0
    3.7750   -4.2417    0.0000 N   0  0  0  0  0  0  0  0  0  0  0  0
    4.3792   -4.6042    0.0000 C   0  0  0  0  0  0  0  0  0  0  0  0
    5.6125   -4.6167    0.0000 C   0  0  0  0  0  0  0  0  0  0  0  0
    4.9917   -3.5375    0.0000 O   0  0  0  0  0  0  0  0  0  0  0  0
    5.6292   -5.3375    0.0000 C   0  0  0  0  0  0  0  0  0  0  0  0
    6.2250   -4.2542    0.0000 C   0  0  0  0  0  0  0  0  0  0  0  0
    6.2375   -5.6792    0.0000 C   0  0  0  0  0  0  0  0  0  0  0  0
    6.8500   -4.6167    0.0000 C   0  0  0  0  0  0  0  0  0  0  0  0
    6.8500   -5.3167    0.0000 C   0  0  0  0  0  0  0  0  0  0  0  0
    3.0917   -4.4625    0.0000 C   0  0  0  0  0  0  0  0  0  0  0  0
    3.7750   -3.5375    0.0000 C   0  0  0  0  0  0  0  0  0  0  0  0
    4.3792   -5.3042    0.0000 C   0  0  0  0  0  0  0  0  0  0  0  0
    7.4542   -5.6792    0.0000 C   0  0  0  0  0  0  0  0  0  0  0  0
    3.7750   -5.6667    0.0000 C   0  0  0  0  0  0  0  0  0  0  0  0
    3.1042   -3.3167    0.0000 C   0  0  0  0  0  0  0  0  0  0  0  0
    2.6917   -3.8792    0.0000 C   0  0  0  0  0  0  0  0  0  0  0  0
    3.7750   -6.3750    0.0000 C   0  0  0  0  0  0  0  0  0  0  0  0
  3  4  1  0
  4  2  1  0
  5  2  1  0
  6  2  2  0
  7  5  2  0
  8  5  1  0
  9  7  1  0
 10  8  2  0
 11 10  1  0
 12  3  1  0
 13  3  1  0
 14  4  1  0
 15 11  1  0
 16 14  1  0
 17 13  1  0
 18 12  1  0
 19 16  1  0
  9 11  2  0
 18 17  1  0
M  END
> <chembl_id>
CHEMBL2104793

> <chembl_pref_name>
PYROVALERONE HYDROCHLORIDE
