
     RDKit          2D

 41 45  0  0  0  0  0  0  0  0999 V2000
    1.0580   -3.2714    0.0000 C   0  0  0  0  0  0  0  0  0  0  0  0
    1.7725   -2.8589    0.0000 C   0  0  0  0  0  0  0  0  0  0  0  0
    0.2734   -3.0164    0.0000 O   0  0  0  0  0  0  0  0  0  0  0  0
    1.0580   -4.0964    0.0000 C   0  0  0  0  0  0  0  0  0  0  0  0
    0.2734   -4.3513    0.0000 C   0  0  0  0  0  0  0  0  0  0  0  0
   -0.2115   -3.6839    0.0000 C   0  0  0  0  0  0  0  0  0  0  0  0
    1.7725   -4.5089    0.0000 C   0  0  0  0  0  0  0  0  0  0  0  0
    2.4870   -4.0964    0.0000 C   0  0  0  0  0  0  0  0  0  0  0  0
    2.4870   -3.2714    0.0000 C   0  0  0  0  0  0  0  0  0  0  0  0
    3.2014   -2.8589    0.0000 C   0  0  0  0  0  0  0  0  0  0  0  0
    3.9159   -3.2714    0.0000 N   0  0  0  0  0  0  0  0  0  0  0  0
    5.3449   -3.2714    0.0000 C   0  0  0  0  0  0  0  0  0  0  0  0
    4.6304   -2.8589    0.0000 C   0  0  0  0  0  0  0  0  0  0  0  0
    5.3449   -4.0964    0.0000 C   0  0  0  0  0  0  0  0  0  0  0  0
    3.9159   -4.0964    0.0000 C   0  0  0  0  0  0  0  0  0  0  0  0
    4.6304   -4.5089    0.0000 C   0  0  0  0  0  0  0  0  0  0  0  0
    6.0593   -5.3339    0.0000 Cl  0  0  0  0  0  0  0  0  0  0  0  0
    6.0593   -4.5089    0.0000 C   0  0  0  0  0  0  0  0  0  0  0  0
    6.7738   -4.0964    0.0000 C   0  0  0  0  0  0  0  0  0  0  0  0
    7.4883   -4.5089    0.0000 C   0  0  0  0  0  0  0  0  0  0  0  0
    7.4883   -5.3339    0.0000 O   0  0  0  0  0  0  0  0  0  0  0  0
    8.2027   -4.0964    0.0000 N   0  0  0  0  0  0  0  0  0  0  0  0
    6.7738   -3.2714    0.0000 C   0  0  0  0  0  0  0  0  0  0  0  0
    7.4883   -2.8589    0.0000 Cl  0  0  0  0  0  0  0  0  0  0  0  0
    6.0593   -2.8589    0.0000 C   0  0  0  0  0  0  0  0  0  0  0  0
    8.9172   -4.5089    0.0000 C   0  0  0  0  0  0  0  0  0  0  0  0
   10.3461   -4.5089    0.0000 C   0  0  0  0  0  0  0  0  0  0  0  0
   11.0606   -4.0964    0.0000 C   0  0  0  0  0  0  0  0  0  0  0  0
   12.4896   -4.0964    0.0000 S   0  0  0  0  0  0  0  0  0  0  0  0
   11.7751   -4.5089    0.0000 C   0  0  0  0  0  0  0  0  0  0  0  0
   11.7751   -5.3339    0.0000 C   0  0  0  0  0  0  0  0  0  0  0  0
   11.0606   -5.7464    0.0000 C   0  0  0  0  0  0  0  0  0  0  0  0
    9.6317   -4.0964    0.0000 C   0  0  0  0  0  0  0  0  0  0  0  0
   10.3461   -5.3339    0.0000 C   0  0  0  0  0  0  0  0  0  0  0  0
   13.2040   -3.6839    0.0000 O   0  0  0  0  0  0  0  0  0  0  0  0
   12.0771   -3.3819    0.0000 O   0  0  0  0  0  0  0  0  0  0  0  0
   12.9021   -4.8109    0.0000 C   0  0  0  0  0  0  0  0  0  0  0  0
    9.6317   -5.7464    0.0000 O   0  0  0  0  0  0  0  0  0  0  0  0
    8.9172   -5.3339    0.0000 C   0  0  0  0  0  0  0  0  0  0  0  0
    3.2014   -2.0339    0.0000 O   0  0  0  0  0  0  0  0  0  0  0  0
    8.2027   -5.7464    0.0000 O   0  0  0  0  0  0  0  0  0  0  0  0
  1  2  1  0
  1  4  2  0
  2  9  2  0
  3  1  1  0
  3  6  1  0
  4  5  1  0
  4  7  1  0
  6  5  2  0
  7  8  2  0
  9 10  1  0
  9  8  1  0
 10 11  1  0
 11 15  1  0
 12 13  1  0
 12 25  1  0
 13 11  1  0
 14 12  2  0
 14 18  1  0
 15 16  1  0
 16 14  1  0
 17 18  1  0
 18 19  2  0
 19 20  1  0
 20 21  2  0
 22 20  1  0
 23 24  1  0
 23 19  1  0
 25 23  2  0
 26 22  1  0
 26 33  1  1
 26 39  1  0
 27 28  2  0
 27 34  1  0
 28 30  1  0
 29 30  1  0
 29 37  1  0
 30 31  2  0
 32 31  1  0
 33 27  1  0
 34 32  2  0
 35 29  2  0
 36 29  2  0
 39 38  2  0
 10 40  2  0
 39 41  1  0
M  END
> <chembl_id>
CHEMBL2048028

> <chembl_pref_name>
LIFITEGRAST
