
     RDKit          2D

 60 59  0  0  0  0  0  0  0  0999 V2000
    9.2284  -15.5738    0.0000 C   0  0  0  0  0  0  0  0  0  0  0  0
   11.3984  -15.5738    0.0000 C   0  0  0  0  0  0  0  0  0  0  0  0
   10.0011  -15.2986    0.0000 C   0  0  0  0  0  0  0  0  0  0  0  0
   10.6221  -15.8385    0.0000 C   0  0  0  0  0  0  0  0  0  0  0  0
    9.0696  -16.3854    0.0000 O   0  0  0  0  0  0  0  0  0  0  0  0
   12.0230  -16.1137    0.0000 O   0  0  0  0  0  0  0  0  0  0  0  0
   11.5536  -14.7587    0.0000 O   0  0  0  0  0  0  0  0  0  0  0  0
    8.6038  -15.0234    0.0000 O   0  0  0  0  0  0  0  0  0  0  0  0
   -1.0346  -17.9645    0.0000 C   0  0  0  0  0  0  0  0  0  0  0  0
   -1.0358  -18.7917    0.0000 C   0  0  0  0  0  0  0  0  0  0  0  0
   -0.3211  -19.2045    0.0000 N   0  0  0  0  0  0  0  0  0  0  0  0
    0.3954  -18.7913    0.0000 C   0  0  0  0  0  0  0  0  0  0  0  0
    0.3925  -17.9608    0.0000 C   0  0  0  0  0  0  0  0  0  0  0  0
   -0.3229  -17.5517    0.0000 C   0  0  0  0  0  0  0  0  0  0  0  0
    1.1104  -19.2025    0.0000 N   0  0  0  0  0  0  0  0  0  0  0  0
    1.1117  -20.0272    0.0000 C   0  0  0  0  0  0  0  0  0  0  0  0
    1.8241  -18.7890    0.0000 C   0  0  0  0  0  0  0  0  0  0  0  0
    2.5391  -19.2003    0.0000 C   0  0  0  0  0  0  0  0  0  0  0  0
    3.2528  -18.7868    0.0000 N   0  0  0  0  0  0  0  0  0  0  0  0
    3.9679  -19.1980    0.0000 C   0  0  0  0  0  0  0  0  0  0  0  0
    3.2516  -17.9619    0.0000 C   0  0  0  0  0  0  0  0  0  0  0  0
    1.7823  -20.5078    0.0000 C   0  0  0  0  0  0  0  0  0  0  0  0
    1.7823  -21.3323    0.0000 C   0  0  0  0  0  0  0  0  0  0  0  0
    2.5694  -21.5822    0.0000 C   0  0  0  0  0  0  0  0  0  0  0  0
    3.0491  -20.9098    0.0000 C   0  0  0  0  0  0  0  0  0  0  0  0
    2.5569  -20.2467    0.0000 S   0  0  0  0  0  0  0  0  0  0  0  0
    8.8508  -22.9660    0.0000 N   0  0  0  0  0  0  0  0  0  0  0  0
    9.6765  -22.9236    0.0000 C   0  0  0  0  0  0  0  0  0  0  0  0
    7.6652  -23.7493    0.0000 C   0  0  0  0  0  0  0  0  0  0  0  0
    7.1465  -23.1036    0.0000 S   0  0  0  0  0  0  0  0  0  0  0  0
    8.4874  -23.7034    0.0000 C   0  0  0  0  0  0  0  0  0  0  0  0
   10.1317  -23.6117    0.0000 N   0  0  0  0  0  0  0  0  0  0  0  0
    6.3738  -23.3964    0.0000 C   0  0  0  0  0  0  0  0  0  0  0  0
    7.2100  -24.4374    0.0000 C   0  0  0  0  0  0  0  0  0  0  0  0
    8.4168  -22.2779    0.0000 C   0  0  0  0  0  0  0  0  0  0  0  0
    6.4126  -24.2221    0.0000 C   0  0  0  0  0  0  0  0  0  0  0  0
    7.1465  -21.6216    0.0000 N   0  0  0  0  0  0  0  0  0  0  0  0
    7.5911  -22.3167    0.0000 C   0  0  0  0  0  0  0  0  0  0  0  0
   10.0540  -22.1932    0.0000 C   0  0  0  0  0  0  0  0  0  0  0  0
   10.9574  -23.5799    0.0000 C   0  0  0  0  0  0  0  0  0  0  0  0
    6.3173  -21.6639    0.0000 C   0  0  0  0  0  0  0  0  0  0  0  0
    7.5170  -20.8982    0.0000 C   0  0  0  0  0  0  0  0  0  0  0  0
   10.8797  -22.1473    0.0000 C   0  0  0  0  0  0  0  0  0  0  0  0
   11.3279  -22.8389    0.0000 C   0  0  0  0  0  0  0  0  0  0  0  0
    7.7393  -19.2610    0.0000 C   0  0  0  0  0  0  0  0  0  0  0  0
    9.9094  -19.2610    0.0000 C   0  0  0  0  0  0  0  0  0  0  0  0
    8.5121  -18.9858    0.0000 C   0  0  0  0  0  0  0  0  0  0  0  0
    9.1331  -19.5256    0.0000 C   0  0  0  0  0  0  0  0  0  0  0  0
    7.5805  -20.0725    0.0000 O   0  0  0  0  0  0  0  0  0  0  0  0
   10.5339  -19.8009    0.0000 O   0  0  0  0  0  0  0  0  0  0  0  0
   10.0646  -18.4459    0.0000 O   0  0  0  0  0  0  0  0  0  0  0  0
    7.1148  -18.7105    0.0000 O   0  0  0  0  0  0  0  0  0  0  0  0
    4.7181  -15.5738    0.0000 C   0  0  0  0  0  0  0  0  0  0  0  0
    6.8881  -15.5738    0.0000 C   0  0  0  0  0  0  0  0  0  0  0  0
    5.4908  -15.2986    0.0000 C   0  0  0  0  0  0  0  0  0  0  0  0
    6.1118  -15.8385    0.0000 C   0  0  0  0  0  0  0  0  0  0  0  0
    4.5593  -16.3854    0.0000 O   0  0  0  0  0  0  0  0  0  0  0  0
    7.5127  -16.1137    0.0000 O   0  0  0  0  0  0  0  0  0  0  0  0
    7.0433  -14.7587    0.0000 O   0  0  0  0  0  0  0  0  0  0  0  0
    4.0935  -15.0234    0.0000 O   0  0  0  0  0  0  0  0  0  0  0  0
  2  4  1  0
  3  1  1  0
  4  3  2  0
  5  1  2  0
  6  2  2  0
  7  2  1  0
  8  1  1  0
 15 17  1  0
 12 15  1  0
 17 18  1  0
 11 12  2  0
 18 19  1  0
 15 16  1  0
 19 20  1  0
 19 21  1  0
 16 22  1  0
 23 24  1  0
 12 13  1  0
 10 11  1  0
 13 14  2  0
 22 23  2  0
 24 25  2  0
 25 26  1  0
 26 22  1  0
 14  9  1  0
  9 10  2  0
 28 27  1  0
 29 31  1  0
 30 29  1  0
 31 27  1  0
 32 28  2  0
 33 30  1  0
 34 29  2  0
 35 27  1  0
 36 34  1  0
 37 38  1  0
 38 35  1  0
 39 28  1  0
 40 32  1  0
 41 37  1  0
 42 37  1  0
 43 39  2  0
 44 40  2  0
 36 33  2  0
 43 44  1  0
 46 48  1  0
 47 45  1  0
 48 47  2  0
 49 45  2  0
 50 46  2  0
 51 46  1  0
 52 45  1  0
 54 56  1  0
 55 53  1  0
 56 55  2  0
 57 53  2  0
 58 54  2  0
 59 54  1  0
 60 53  1  0
M  END
> <chembl_id>
CHEMBL3187246

> <chembl_pref_name>
METHAPYRILENE FUMARATE
