
     RDKit          2D

  9  8  0  0  1  0  0  0  0  0999 V2000
  -11.2554    2.8286    0.0000 C   0  0  0  0  0  0  0  0  0  0  0  0
  -10.8429    2.1141    0.0000 S   0  0  0  0  0  0  0  0  0  0  0  0
  -10.0179    2.1141    0.0000 C   0  0  0  0  0  0  0  0  0  0  0  0
   -9.6054    2.8286    0.0000 C   0  0  0  0  0  0  0  0  0  0  0  0
   -8.7804    2.8286    0.0000 C   0  0  0  0  0  0  0  0  0  0  0  0
   -8.3679    3.5430    0.0000 C   0  0  0  0  0  0  0  0  0  0  0  0
   -7.5429    3.5430    0.0000 O   0  0  0  0  0  0  0  0  0  0  0  0
   -8.7804    4.2575    0.0000 O   0  0  0  0  0  0  0  0  0  0  0  0
   -8.3679    2.1141    0.0000 N   0  0  0  0  0  0  0  0  0  0  0  0
  1  2  1  0
  2  3  1  0
  3  4  1  0
  4  5  1  0
  5  6  1  0
  6  7  1  0
  6  8  2  0
  5  9  1  1
M  END
> <chembl_id>
CHEMBL42336

> <chembl_pref_name>
METHIONINE
