
     RDKit          2D

  4  3  0  0  0  0  0  0  0  0999 V2000
   -0.2083    0.0000    0.0000 Si  0  0  0  0  0  4  0  0  0  0  0  0
   -0.2083   -0.8167    0.0000 O   0  0  0  0  0  0  0  0  0  0  0  0
    0.6167    0.0000    0.0000 O   0  0  0  0  0  0  0  0  0  0  0  0
   -0.2083    0.8250    0.0000 O   0  0  0  0  0  0  0  0  0  0  0  0
  2  1  1  0
  3  1  1  0
  4  1  2  0
M  END
> <chembl_id>
CHEMBL2068408

> <chembl_pref_name>
SILICATE
