
     RDKit          2D

 13 14  0  0  0  0  0  0  0  0999 V2000
   11.2208   -1.6042    0.0000 C   0  0  0  0  0  0  0  0  0  0  0  0
   11.8375   -1.9542    0.0000 C   0  0  0  0  0  0  0  0  0  0  0  0
   11.2292   -3.0250    0.0000 C   0  0  0  0  0  0  0  0  0  0  0  0
   10.6125   -1.9625    0.0000 C   0  0  0  0  0  0  0  0  0  0  0  0
   11.8417   -2.6667    0.0000 C   0  0  0  0  0  0  0  0  0  0  0  0
   10.6125   -2.6708    0.0000 C   0  0  0  0  0  0  0  0  0  0  0  0
   11.2167   -0.8958    0.0000 O   0  0  0  0  0  0  0  0  0  0  0  0
   11.2292   -3.7333    0.0000 O   0  0  0  0  0  0  0  0  0  0  0  0
   12.4500   -1.5958    0.0000 C   0  0  0  0  0  0  0  0  0  0  0  0
   10.0000   -1.6083    0.0000 C   0  0  0  0  0  0  0  0  0  0  0  0
   10.0000   -3.0292    0.0000 C   0  0  0  0  0  0  0  0  0  0  0  0
    9.3875   -1.9625    0.0000 C   0  0  0  0  0  0  0  0  0  0  0  0
    9.3875   -2.6750    0.0000 C   0  0  0  0  0  0  0  0  0  0  0  0
  2  1  1  0
  3  6  1  0
  4  1  1  0
  5  2  2  0
  6  4  1  0
  7  1  2  0
  8  3  2  0
  9  2  1  0
 10  4  2  0
 11  6  2  0
 12 10  1  0
 13 11  1  0
  5  3  1  0
 13 12  2  0
M  END
> <chembl_id>
CHEMBL590

> <chembl_pref_name>
MENADIONE
