
     RDKit          2D

 35 36  0  0  1  0  0  0  0  0999 V2000
    4.4167   -4.0292    0.0000 C   0  0  0  0  0  0  0  0  0  0  0  0
    0.0375   -1.4917    0.0000 C   0  0  0  0  0  0  0  0  0  0  0  0
    0.7500   -1.9042    0.0000 C   0  0  0  0  0  0  0  0  0  0  0  0
   -1.0458   -1.0917    0.0000 C   0  0  0  0  0  0  0  0  0  0  0  0
    0.0375   -0.7500    0.0000 C   0  0  0  0  0  0  0  0  0  0  0  0
   -0.6125   -1.6917    0.0000 C   0  0  0  0  0  0  0  0  0  0  0  0
   -0.6125   -0.5542    0.0000 C   0  0  0  0  0  0  0  0  0  0  0  0
    3.8042   -3.6750    0.0000 C   0  0  0  0  0  0  0  0  0  0  0  0
    1.3667   -1.5792    0.0000 C   0  0  0  0  0  0  0  0  0  0  0  0
    4.5000   -0.6917    0.0000 C   0  0  0  0  0  0  0  0  0  0  0  0
    3.8042   -2.9417    0.0000 C   0  0  0  0  0  0  0  0  0  0  0  0
    4.5000   -1.4042    0.0000 O   0  0  0  0  0  0  0  0  0  0  0  0
    5.1250   -0.3500    0.0000 O   0  0  0  0  0  0  0  0  0  0  0  0
    5.0375   -3.6875    0.0000 F   0  0  0  0  0  0  0  0  0  0  0  0
    4.0625   -4.6417    0.0000 F   0  0  0  0  0  0  0  0  0  0  0  0
    4.7667   -4.6417    0.0000 F   0  0  0  0  0  0  0  0  0  0  0  0
    1.3667   -0.6792    0.0000 C   0  0  0  0  0  0  0  0  0  0  0  0
    2.0875   -0.6792    0.0000 C   0  0  0  0  0  0  0  0  0  0  0  0
    3.1875   -1.9042    0.0000 O   0  0  0  0  0  0  0  0  0  0  0  0
    3.1875   -2.5917    0.0000 C   0  0  0  0  0  0  0  0  0  0  0  0
   -0.8208   -2.3750    0.0000 O   0  0  0  0  0  0  0  0  0  0  0  0
   -0.8208    0.1208    0.0000 O   0  0  0  0  0  0  0  0  0  0  0  0
    0.7500   -0.3500    0.0000 C   0  0  0  0  0  0  0  0  0  0  0  0
    1.9792   -1.9042    0.0000 C   0  0  0  0  0  0  0  0  0  0  0  0
    2.6000   -1.5792    0.0000 C   0  0  0  0  0  0  0  0  0  0  0  0
    1.9792   -2.6167    0.0000 O   0  0  0  0  0  0  0  0  0  0  0  0
    3.1875   -4.0083    0.0000 C   0  0  0  0  0  0  0  0  0  0  0  0
    2.5750   -3.6750    0.0000 C   0  0  0  0  0  0  0  0  0  0  0  0
    5.7375   -0.7125    0.0000 C   0  0  0  0  0  0  0  0  0  0  0  0
    3.9125   -0.3500    0.0000 C   0  0  0  0  0  0  0  0  0  0  0  0
    2.6875   -0.3500    0.0000 C   0  0  0  0  0  0  0  0  0  0  0  0
    2.5750   -2.9417    0.0000 C   0  0  0  0  0  0  0  0  0  0  0  0
    3.2917   -0.6792    0.0000 C   0  0  0  0  0  0  0  0  0  0  0  0
    5.7250   -1.4250    0.0000 C   0  0  0  0  0  0  0  0  0  0  0  0
    6.3542   -0.3625    0.0000 C   0  0  0  0  0  0  0  0  0  0  0  0
  2  3  1  1
  3  9  2  0
  4  6  1  0
  5  2  1  0
  6  2  1  0
  7  5  1  0
  8  1  1  0
  9 24  1  0
 10 30  1  0
 11  8  2  0
 12 10  2  0
 13 10  1  0
 14  1  1  0
 15  1  1  0
 16  1  1  0
 17 23  1  0
 18 17  2  0
 19 20  1  0
 20 11  1  0
  6 21  1  6
  7 22  1  6
  5 23  1  6
 24 25  1  0
 25 19  1  0
 24 26  1  6
 27  8  1  0
 28 27  2  0
 29 13  1  0
 30 33  1  0
 31 18  1  0
 32 28  1  0
 33 31  1  0
 34 29  1  0
 35 29  1  0
 20 32  2  0
  7  4  1  0
M  END
> <chembl_id>
CHEMBL1200799

> <chembl_pref_name>
TRAVOPROST
