
     RDKit          2D

 20 21  0  0  0  0  0  0  0  0999 V2000
   -0.8000   -3.5042    0.0000 S   0  0  0  0  0  0  0  0  0  0  0  0
   -0.1750   -3.8542    0.0000 C   0  0  0  0  0  0  0  0  0  0  0  0
    1.6542   -3.5000    0.0000 S   0  0  0  0  0  0  0  0  0  0  0  0
    1.0417   -4.5542    0.0000 C   0  0  0  0  0  0  0  0  0  0  0  0
    1.0417   -3.8542    0.0000 C   0  0  0  0  0  0  0  0  0  0  0  0
   -1.4125   -3.8542    0.0000 N   0  0  0  0  0  0  0  0  0  0  0  0
    1.6542   -4.9042    0.0000 C   0  0  0  0  0  0  0  0  0  0  0  0
    0.4375   -3.5042    0.0000 C   0  0  0  0  0  0  0  0  0  0  0  0
   -0.1750   -4.5542    0.0000 C   0  0  0  0  0  0  0  0  0  0  0  0
    0.4292   -4.9167    0.0000 C   0  0  0  0  0  0  0  0  0  0  0  0
   -1.1583   -2.8875    0.0000 O   0  0  0  0  0  0  0  0  0  0  0  0
   -0.4500   -2.8875    0.0000 O   0  0  0  0  0  0  0  0  0  0  0  0
   -0.8000   -4.9167    0.0000 N   0  0  0  0  0  0  0  0  0  0  0  0
   -1.4125   -4.5542    0.0000 C   0  0  0  0  0  0  0  0  0  0  0  0
    1.2917   -2.8792    0.0000 O   0  0  0  0  0  0  0  0  0  0  0  0
    2.0042   -2.8792    0.0000 O   0  0  0  0  0  0  0  0  0  0  0  0
    2.2667   -3.8542    0.0000 N   0  0  0  0  0  0  0  0  0  0  0  0
    2.2667   -4.5458    0.0000 F   0  0  0  0  0  0  0  0  0  0  0  0
    2.0042   -5.5167    0.0000 F   0  0  0  0  0  0  0  0  0  0  0  0
    1.2917   -5.5167    0.0000 F   0  0  0  0  0  0  0  0  0  0  0  0
  2  1  1  0
  3  5  1  0
  4 10  2  0
  5  8  2  0
  6  1  1  0
  7  4  1  0
  8  2  1  0
  9  2  2  0
 10  9  1  0
 11  1  2  0
 12  1  2  0
 13 14  1  0
 14  6  1  0
 15  3  2  0
 16  3  2  0
 17  3  1  0
 18  7  1  0
 19  7  1  0
 20  7  1  0
  9 13  1  0
  5  4  1  0
M  END
> <chembl_id>
CHEMBL1763

> <chembl_pref_name>
HYDROFLUMETHIAZIDE
