
     RDKit          2D

 24 27  0  0  0  0  0  0  0  0999 V2000
    3.2750   -7.4833    0.0000 Cl  0  0  0  0  0  0  0  0  0  0  0  0
    0.7375   -6.3458    0.0000 N   0  0  0  0  0  0  0  0  0  0  0  0
    0.1125   -5.9917    0.0000 C   0  0  0  0  0  0  0  0  0  0  0  0
   -0.5125   -6.3458    0.0000 C   0  0  0  0  0  0  0  0  0  0  0  0
    1.3625   -5.9917    0.0000 C   0  0  0  0  0  0  0  0  0  0  0  0
    0.7375   -7.0708    0.0000 C   0  0  0  0  0  0  0  0  0  0  0  0
   -0.5125   -7.0708    0.0000 C   0  0  0  0  0  0  0  0  0  0  0  0
    0.1125   -7.4333    0.0000 C   0  0  0  0  0  0  0  0  0  0  0  0
    1.9875   -4.9083    0.0000 N   0  0  0  0  0  0  0  0  0  0  0  0
    1.3625   -5.2708    0.0000 C   0  0  0  0  0  0  0  0  0  0  0  0
    0.1125   -5.2708    0.0000 O   0  0  0  0  0  0  0  0  0  0  0  0
    1.9875   -6.3458    0.0000 C   0  0  0  0  0  0  0  0  0  0  0  0
   -1.1333   -7.4333    0.0000 C   0  0  0  0  0  0  0  0  0  0  0  0
    2.6125   -5.9917    0.0000 C   0  0  0  0  0  0  0  0  0  0  0  0
    2.2417   -5.8083    0.0000 C   0  0  0  0  0  0  0  0  0  0  0  0
    2.6125   -5.2708    0.0000 C   0  0  0  0  0  0  0  0  0  0  0  0
    1.7625   -5.5208    0.0000 C   0  0  0  0  0  0  0  0  0  0  0  0
   -1.1375   -5.9833    0.0000 C   0  0  0  0  0  0  0  0  0  0  0  0
    0.1125   -8.1542    0.0000 C   0  0  0  0  0  0  0  0  0  0  0  0
   -1.7625   -6.3458    0.0000 C   0  0  0  0  0  0  0  0  0  0  0  0
   -0.5125   -8.5167    0.0000 C   0  0  0  0  0  0  0  0  0  0  0  0
   -1.7625   -7.0708    0.0000 C   0  0  0  0  0  0  0  0  0  0  0  0
   -1.1333   -8.1542    0.0000 C   0  0  0  0  0  0  0  0  0  0  0  0
    0.9790   -7.9324    0.0000 H   0  0  0  0  0  0  0  0  0  0  0  0
  3  2  1  0
  4  3  1  0
  5  2  1  6
  6  2  1  0
  7  8  1  0
  8  6  1  0
  9 10  1  0
 10  5  1  0
 11  3  2  0
 12  5  1  0
 13  7  1  0
 14 12  1  0
 15 12  1  0
 16 14  1  0
 17 15  1  0
 18  4  1  0
 19  8  1  0
 20 18  2  0
 21 19  1  0
 22 13  2  0
 23 21  1  0
  4  7  2  0
  9 17  1  0
 16  9  1  0
 23 13  1  0
 20 22  1  0
  8 24  1  6
M  END
> <chembl_id>
CHEMBL1720

> <chembl_pref_name>
PALONOSETRON HYDROCHLORIDE
