
     RDKit          2D

 32 35  0  0  0  0  0  0  0  0999 V2000
    2.8375   -6.1542    0.0000 Cl  0  0  0  0  0  0  0  0  0  0  0  0
    5.2167   -4.4667    0.0000 N   0  0  0  0  0  0  0  0  0  0  0  0
    6.2542   -5.1542    0.0000 C   0  0  0  0  0  0  0  0  0  0  0  0
    4.8417   -5.0417    0.0000 C   0  0  0  0  0  0  0  0  0  0  0  0
    5.8500   -5.7542    0.0000 C   0  0  0  0  0  0  0  0  0  0  0  0
    5.9417   -4.5083    0.0000 C   0  0  0  0  0  0  0  0  0  0  0  0
    4.1417   -4.8250    0.0000 C   0  0  0  0  0  0  0  0  0  0  0  0
    5.1417   -5.7000    0.0000 C   0  0  0  0  0  0  0  0  0  0  0  0
    4.1417   -4.1167    0.0000 C   0  0  0  0  0  0  0  0  0  0  0  0
    3.5625   -5.1917    0.0000 N   0  0  0  0  0  0  0  0  0  0  0  0
    6.1667   -6.3917    0.0000 C   0  0  0  0  0  0  0  0  0  0  0  0
    2.3167   -3.7667    0.0000 C   0  0  0  0  0  0  0  0  0  0  0  0
    4.8417   -3.9042    0.0000 C   0  0  0  0  0  0  0  0  0  0  0  0
    2.9250   -4.1292    0.0000 C   0  0  0  0  0  0  0  0  0  0  0  0
    6.8750   -6.4417    0.0000 C   0  0  0  0  0  0  0  0  0  0  0  0
    3.5625   -3.7417    0.0000 C   0  0  0  0  0  0  0  0  0  0  0  0
    2.9250   -4.8250    0.0000 C   0  0  0  0  0  0  0  0  0  0  0  0
    6.9542   -5.2042    0.0000 C   0  0  0  0  0  0  0  0  0  0  0  0
    7.2667   -5.8500    0.0000 O   0  0  0  0  0  0  0  0  0  0  0  0
    1.7000   -4.1292    0.0000 C   0  0  0  0  0  0  0  0  0  0  0  0
    6.3125   -3.9167    0.0000 O   0  0  0  0  0  0  0  0  0  0  0  0
    2.3167   -3.0667    0.0000 C   0  0  0  0  0  0  0  0  0  0  0  0
    7.2500   -6.9917    0.0000 O   0  0  0  0  0  0  0  0  0  0  0  0
    2.3167   -5.1917    0.0000 C   0  0  0  0  0  0  0  0  0  0  0  0
    1.7000   -4.8250    0.0000 C   0  0  0  0  0  0  0  0  0  0  0  0
    5.4167   -6.3250    0.0000 O   0  0  0  0  0  0  0  0  0  0  0  0
    2.9167   -2.7292    0.0000 N   0  0  0  0  0  0  0  0  0  0  0  0
    6.4375   -7.0667    0.0000 C   0  0  0  0  0  0  0  0  0  0  0  0
    1.0792   -3.7667    0.0000 O   0  0  0  0  0  0  0  0  0  0  0  0
    3.5167   -3.0875    0.0000 C   0  0  0  0  0  0  0  0  0  0  0  0
    2.9167   -2.0167    0.0000 C   0  0  0  0  0  0  0  0  0  0  0  0
    6.0417   -7.6667    0.0000 C   0  0  0  0  0  0  0  0  0  0  0  0
  3  6  1  0
  4  2  1  0
  5  3  2  0
  6  2  1  0
  7  4  1  0
  8  4  2  0
  9 13  1  0
 10  7  2  0
 11  5  1  0
 12 14  1  0
 13  2  1  0
 14 16  1  0
 15 19  1  0
 16  9  2  0
 17 10  1  0
 18  3  1  0
 19 18  1  0
 20 12  2  0
 21  6  2  0
 22 12  1  0
 23 15  2  0
 24 17  1  0
 25 24  2  0
 26 11  1  0
 27 22  1  0
 11 28  1  6
 29 20  1  0
 30 27  1  0
 31 27  1  0
 32 28  1  0
  9  7  1  0
  5  8  1  0
 14 17  2  0
 11 15  1  0
 20 25  1  0
M  END
> <chembl_id>
CHEMBL1607

> <chembl_pref_name>
TOPOTECAN HYDROCHLORIDE
