
     RDKit          2D

 19 19  0  0  0  0  0  0  0  0999 V2000
    3.1861   -1.1167    0.0000 C   0  0  0  0  0  0  0  0  0  0  0  0
    3.1849   -1.8274    0.0000 C   0  0  0  0  0  0  0  0  0  0  0  0
    3.7998   -2.1819    0.0000 C   0  0  0  0  0  0  0  0  0  0  0  0
    4.4120   -1.8269    0.0000 C   0  0  0  0  0  0  0  0  0  0  0  0
    4.4092   -1.1130    0.0000 C   0  0  0  0  0  0  0  0  0  0  0  0
    3.7980   -0.7622    0.0000 C   0  0  0  0  0  0  0  0  0  0  0  0
    5.0214   -0.7568    0.0000 C   0  0  0  0  0  0  0  0  0  0  0  0
    5.6360   -1.1090    0.0000 C   0  0  0  0  0  0  0  0  0  0  0  0
    6.2483   -0.7528    0.0000 N   0  0  0  0  0  0  0  0  0  0  0  0
    6.8629   -1.1050    0.0000 C   0  0  0  0  0  0  0  0  0  0  0  0
    7.4752   -0.7488    0.0000 C   0  0  0  0  0  0  0  0  0  0  0  0
    6.8652   -1.8133    0.0000 O   0  0  0  0  0  0  0  0  0  0  0  0
    5.6384   -1.8173    0.0000 C   0  0  0  0  0  0  0  0  0  0  0  0
    7.4728   -0.0405    0.0000 N   0  0  0  0  0  0  0  0  0  0  0  0
    8.0898   -1.1009    0.0000 C   0  0  0  0  0  0  0  0  0  0  0  0
    8.7020   -0.7448    0.0000 C   0  0  0  0  0  0  0  0  0  0  0  0
    9.3166   -1.0969    0.0000 C   0  0  0  0  0  0  0  0  0  0  0  0
    9.9289   -0.7407    0.0000 C   0  0  0  0  0  0  0  0  0  0  0  0
   10.5435   -1.0929    0.0000 N   0  0  0  0  0  0  0  0  0  0  0  0
  2  3  1  0
 17 18  1  0
  7  8  1  0
 18 19  1  0
  8  9  1  0
  3  4  2  0
  9 10  1  0
 10 11  1  0
  4  5  1  0
 10 12  2  0
  1  2  2  0
  8 13  1  1
  5  6  2  0
 11 14  1  1
  6  1  1  0
 11 15  1  0
 15 16  1  0
  5  7  1  0
 16 17  1  0
M  END
> <chembl_id>
CHEMBL1201222

> <chembl_pref_name>
LISDEXAMFETAMINE
