
     RDKit          2D

 39 43  0  0  0  0  0  0  0  0999 V2000
   -0.7141   -1.5522    0.0000 O   0  0  0  0  0  0  0  0  0  0  0  0
    4.2759    0.1311    0.0000 N   0  0  0  0  0  0  0  0  0  0  0  0
    2.5316   -0.5014    0.0000 N   0  0  0  0  0  0  0  0  0  0  0  0
    5.3731    0.1311    0.0000 N   0  0  0  0  0  0  0  0  0  0  0  0
    5.1660    0.7783    0.0000 N   0  0  0  0  0  0  0  0  0  0  0  0
   -0.0780   -0.5088    0.0000 N   0  0  0  0  0  0  0  0  0  0  0  0
    3.6720   -0.2230    0.0000 C   0  0  0  0  0  0  0  0  0  0  0  0
    2.5170    0.3492    0.0000 C   0  0  0  0  0  0  0  0  0  0  0  0
    2.8820   -1.2164    0.0000 C   0  0  0  0  0  0  0  0  0  0  0  0
    4.8225   -0.2652    0.0000 C   0  0  0  0  0  0  0  0  0  0  0  0
    3.2753    0.3492    0.0000 C   0  0  0  0  0  0  0  0  0  0  0  0
    3.4750   -0.9269    0.0000 C   0  0  0  0  0  0  0  0  0  0  0  0
    4.4829    0.7783    0.0000 C   0  0  0  0  0  0  0  0  0  0  0  0
    2.0993   -0.2328    0.0000 C   0  0  0  0  0  0  0  0  0  0  0  0
    2.2881   -0.9269    0.0000 C   0  0  0  0  0  0  0  0  0  0  0  0
    1.7482   -0.8800    0.0000 C   0  0  0  0  0  0  0  0  0  0  0  0
    4.8225   -0.9734    0.0000 C   0  0  0  0  0  0  0  0  0  0  0  0
    1.1445   -0.5265    0.0000 C   0  0  0  0  0  0  0  0  0  0  0  0
    0.5301   -0.8660    0.0000 C   0  0  0  0  0  0  0  0  0  0  0  0
    4.0684    1.3426    0.0000 C   0  0  0  0  0  0  0  0  0  0  0  0
    0.5192   -1.5700    0.0000 C   0  0  0  0  0  0  0  0  0  0  0  0
   -0.7001   -0.8482    0.0000 C   0  0  0  0  0  0  0  0  0  0  0  0
   -1.3003   -0.4800    0.0000 C   0  0  0  0  0  0  0  0  0  0  0  0
   -2.5013    0.2636    0.0000 C   0  0  0  0  0  0  0  0  0  0  0  0
    5.4336   -1.3275    0.0000 C   0  0  0  0  0  0  0  0  0  0  0  0
    4.2113   -1.3275    0.0000 C   0  0  0  0  0  0  0  0  0  0  0  0
   -1.2826    0.2318    0.0000 C   0  0  0  0  0  0  0  0  0  0  0  0
   -1.9188   -0.8122    0.0000 C   0  0  0  0  0  0  0  0  0  0  0  0
   -1.8834    0.5958    0.0000 C   0  0  0  0  0  0  0  0  0  0  0  0
   -2.5233   -0.4446    0.0000 C   0  0  0  0  0  0  0  0  0  0  0  0
   -0.1029   -1.9131    0.0000 C   0  0  0  0  0  0  0  0  0  0  0  0
    1.1231   -1.9386    0.0000 C   0  0  0  0  0  0  0  0  0  0  0  0
   -0.1133   -2.6171    0.0000 C   0  0  0  0  0  0  0  0  0  0  0  0
    1.1052   -2.6464    0.0000 C   0  0  0  0  0  0  0  0  0  0  0  0
    0.4942   -2.9816    0.0000 C   0  0  0  0  0  0  0  0  0  0  0  0
   -2.8625    0.8833    0.0000 F   0  0  0  0  0  0  0  0  0  0  0  0
   -3.2125    0.2708    0.0000 F   0  0  0  0  0  0  0  0  0  0  0  0
    2.8817   -0.2164    0.0000 H   0  0  0  0  0  0  0  0  0  0  0  0
    2.9736   -0.5405    0.0000 H   0  0  0  0  0  0  0  0  0  0  0  0
  7  2  1  1
  2 10  1  0
  2 13  1  0
  8  3  1  0
  9  3  1  0
  3 16  1  0
  4  5  1  0
  4 10  2  0
  5 13  2  0
 19  6  1  1
  6 22  1  0
  7 11  1  0
  7 12  1  0
  8 11  1  0
  8 14  1  0
  9 12  1  0
  9 15  1  0
 10 17  1  0
 13 20  1  0
 14 15  1  0
 16 18  1  0
 17 25  1  0
 17 26  1  0
 18 19  1  0
 19 21  1  0
 21 31  2  0
 21 32  1  0
 22 23  1  0
 23 27  1  0
 23 28  1  0
 24 29  1  0
 24 30  1  0
 27 29  1  0
 28 30  1  0
 31 33  1  0
 32 34  2  0
 33 35  2  0
 34 35  1  0
 24 36  1  0
  1 22  2  0
 24 37  1  0
  9 38  1  1
  8 39  1  1
M  END
> <chembl_id>
CHEMBL1201187

> <chembl_pref_name>
MARAVIROC
