
     RDKit          2D

 54 59  0  0  0  0  0  0  0  0999 V2000
   19.2206    2.0235    0.0000 O   0  0  0  0  0  0  0  0  0  0  0  0
   18.5061    1.6110    0.0000 C   0  0  0  0  0  0  0  0  0  0  0  0
   17.7917    2.0235    0.0000 N   0  0  0  0  0  0  0  0  0  0  0  0
   18.5061    0.7860    0.0000 O   0  0  0  0  0  0  0  0  0  0  0  0
   19.9351    1.6110    0.0000 C   0  0  0  0  0  0  0  0  0  0  0  0
   17.7917    2.8485    0.0000 C   0  0  0  0  0  0  0  0  0  0  0  0
   17.0772    3.2610    0.0000 C   0  0  0  0  0  0  0  0  0  0  0  0
   17.0772    4.0860    0.0000 N   0  0  0  0  0  0  0  0  0  0  0  0
   16.3627    2.8485    0.0000 O   0  0  0  0  0  0  0  0  0  0  0  0
   17.7403    4.5734    0.0000 C   0  0  0  0  0  0  0  0  0  0  0  0
   17.4854    5.3581    0.0000 C   0  0  0  0  0  0  0  0  0  0  0  0
   16.6603    5.3581    0.0000 C   0  0  0  0  0  0  0  0  0  0  0  0
   16.4055    4.5734    0.0000 C   0  0  0  0  0  0  0  0  0  0  0  0
   15.6210    4.3182    0.0000 C   0  0  0  0  0  0  0  0  0  0  0  0
   14.9548    4.7977    0.0000 N   0  0  0  0  0  0  0  0  0  0  0  0
   14.2875    4.3126    0.0000 C   0  0  0  0  0  0  0  0  0  0  0  0
   14.5427    3.5280    0.0000 C   0  0  0  0  0  0  0  0  0  0  0  0
   15.3677    3.5284    0.0000 N   0  0  0  0  0  0  0  0  0  0  0  0
   18.5061    3.2610    0.0000 C   0  0  0  0  0  0  0  0  0  0  0  0
   19.2206    2.8485    0.0000 C   0  0  0  0  0  0  0  0  0  0  0  0
   18.5061    4.0860    0.0000 C   0  0  0  0  0  0  0  0  0  0  0  0
   11.8131    4.3264    0.0000 C   0  0  0  0  0  0  0  0  0  0  0  0
   12.2211    3.6080    0.0000 C   0  0  0  0  0  0  0  0  0  0  0  0
   13.0453    3.6032    0.0000 C   0  0  0  0  0  0  0  0  0  0  0  0
   13.4625    4.3160    0.0000 C   0  0  0  0  0  0  0  0  0  0  0  0
   13.0495    5.0350    0.0000 C   0  0  0  0  0  0  0  0  0  0  0  0
   12.2266    5.0363    0.0000 C   0  0  0  0  0  0  0  0  0  0  0  0
   10.9905    4.3312    0.0000 C   0  0  0  0  0  0  0  0  0  0  0  0
    3.5860    6.6399    0.0000 O   0  0  0  0  0  0  0  0  0  0  0  0
    4.3005    7.0524    0.0000 C   0  0  0  0  0  0  0  0  0  0  0  0
    5.0150    6.6399    0.0000 N   0  0  0  0  0  0  0  0  0  0  0  0
    4.3005    7.8774    0.0000 O   0  0  0  0  0  0  0  0  0  0  0  0
    2.8716    7.0524    0.0000 C   0  0  0  0  0  0  0  0  0  0  0  0
    5.0150    5.8149    0.0000 C   0  0  0  0  0  0  0  0  0  0  0  0
    5.7294    5.4024    0.0000 C   0  0  0  0  0  0  0  0  0  0  0  0
    5.7294    4.5774    0.0000 N   0  0  0  0  0  0  0  0  0  0  0  0
    6.4439    5.8149    0.0000 O   0  0  0  0  0  0  0  0  0  0  0  0
    5.0663    4.0899    0.0000 C   0  0  0  0  0  0  0  0  0  0  0  0
    5.3212    3.3053    0.0000 C   0  0  0  0  0  0  0  0  0  0  0  0
    6.1463    3.3053    0.0000 C   0  0  0  0  0  0  0  0  0  0  0  0
    6.4011    4.0899    0.0000 C   0  0  0  0  0  0  0  0  0  0  0  0
    7.1856    4.3451    0.0000 C   0  0  0  0  0  0  0  0  0  0  0  0
    7.8518    3.8657    0.0000 N   0  0  0  0  0  0  0  0  0  0  0  0
    8.5194    4.3521    0.0000 C   0  0  0  0  0  0  0  0  0  0  0  0
    8.2639    5.1354    0.0000 C   0  0  0  0  0  0  0  0  0  0  0  0
    7.4389    5.1350    0.0000 N   0  0  0  0  0  0  0  0  0  0  0  0
    4.3005    5.4024    0.0000 C   0  0  0  0  0  0  0  0  0  0  0  0
    3.5860    5.8149    0.0000 C   0  0  0  0  0  0  0  0  0  0  0  0
    4.3005    4.5774    0.0000 C   0  0  0  0  0  0  0  0  0  0  0  0
    9.3411    4.3460    0.0000 C   0  0  0  0  0  0  0  0  0  0  0  0
    9.7472    3.6266    0.0000 C   0  0  0  0  0  0  0  0  0  0  0  0
   10.5714    3.6196    0.0000 C   0  0  0  0  0  0  0  0  0  0  0  0
   10.5794    5.0514    0.0000 C   0  0  0  0  0  0  0  0  0  0  0  0
    9.7565    5.0549    0.0000 C   0  0  0  0  0  0  0  0  0  0  0  0
 26 27  2  0
 27 22  1  0
 25 16  1  0
  6  7  1  0
 13 14  1  6
 14 15  1  0
 29 30  1  0
  2  4  2  0
 30 31  1  0
  7  8  1  0
 30 32  2  0
 29 33  1  0
  7  9  2  0
 31 34  1  0
 15 16  1  0
 34 35  1  0
 16 17  2  0
 35 36  1  0
 17 18  1  0
 35 37  2  0
 36 38  1  0
 18 14  2  0
  8 10  1  0
  6 19  1  6
  1  5  1  0
 38 39  1  0
 39 40  1  0
 41 40  1  0
 41 36  1  0
 19 20  1  0
 41 42  1  6
 42 43  1  0
  2  3  1  0
 19 21  1  0
  3  6  1  0
  1  2  1  0
 43 44  1  0
 44 45  2  0
 45 46  1  0
 46 42  2  0
 22 23  2  0
 34 47  1  6
 10 11  1  0
 47 48  1  0
 23 24  1  0
 47 49  1  0
 11 12  1  0
 24 25  2  0
 50 51  2  0
 13 12  1  0
 51 52  1  0
 52 28  2  0
 25 26  1  0
 28 53  1  0
 13  8  1  0
 53 54  2  0
 54 50  1  0
 44 50  1  0
 28 22  1  0
M  END
> <chembl_id>
CHEMBL2023898

> <chembl_pref_name>
DACLATASVIR
