
     RDKit          2D

 32 35  0  0  0  0  0  0  0  0999 V2000
    4.3500   -2.6167    0.0000 Cl  0  0  0  0  0  0  0  0  0  0  0  0
    2.7125   -2.8375    0.0000 N   0  0  0  0  0  0  0  0  0  0  0  0
    3.3292   -3.9000    0.0000 C   0  0  0  0  0  0  0  0  0  0  0  0
    2.1042   -3.1917    0.0000 C   0  0  0  0  0  0  0  0  0  0  0  0
    2.1042   -3.9000    0.0000 C   0  0  0  0  0  0  0  0  0  0  0  0
    0.2542   -2.8667    0.0000 N   0  0  0  0  0  0  0  0  0  0  0  0
    3.3292   -3.1917    0.0000 C   0  0  0  0  0  0  0  0  0  0  0  0
    2.7125   -4.2417    0.0000 C   0  0  0  0  0  0  0  0  0  0  0  0
    1.4792   -2.8375    0.0000 C   0  0  0  0  0  0  0  0  0  0  0  0
    0.8667   -3.1917    0.0000 C   0  0  0  0  0  0  0  0  0  0  0  0
    0.8667   -3.9000    0.0000 C   0  0  0  0  0  0  0  0  0  0  0  0
    2.7125   -2.1292    0.0000 C   0  0  0  0  0  0  0  0  0  0  0  0
    1.4792   -4.2417    0.0000 C   0  0  0  0  0  0  0  0  0  0  0  0
    3.9500   -4.2417    0.0000 C   0  0  0  0  0  0  0  0  0  0  0  0
    0.1375   -2.1542    0.0000 C   0  0  0  0  0  0  0  0  0  0  0  0
   -0.4000   -3.1500    0.0000 C   0  0  0  0  0  0  0  0  0  0  0  0
   -0.5208   -2.0125    0.0000 C   0  0  0  0  0  0  0  0  0  0  0  0
   -0.8708   -2.6167    0.0000 C   0  0  0  0  0  0  0  0  0  0  0  0
    3.0917   -1.4542    0.0000 C   0  0  0  0  0  0  0  0  0  0  0  0
    2.3542   -1.4542    0.0000 C   0  0  0  0  0  0  0  0  0  0  0  0
   -1.5833   -2.6042    0.0000 N   0  0  0  0  0  0  0  0  0  0  0  0
    2.7125   -4.9417    0.0000 O   0  0  0  0  0  0  0  0  0  0  0  0
    3.9500   -4.9500    0.0000 O   0  0  0  0  0  0  0  0  0  0  0  0
    1.4792   -2.1292    0.0000 O   0  0  0  0  0  0  0  0  0  0  0  0
    0.2542   -4.2375    0.0000 F   0  0  0  0  0  0  0  0  0  0  0  0
    4.5542   -3.9000    0.0000 O   0  0  0  0  0  0  0  0  0  0  0  0
   -0.8583   -1.3875    0.0000 C   0  0  0  0  0  0  0  0  0  0  0  0
   -1.9333   -2.0125    0.0000 C   0  0  0  0  0  0  0  0  0  0  0  0
    0.8875   -1.7792    0.0000 C   0  0  0  0  0  0  0  0  0  0  0  0
   -1.5708   -1.3875    0.0000 C   0  0  0  0  0  0  0  0  0  0  0  0
   -1.2333   -3.2292    0.0000 H   0  0  0  0  0  0  0  0  0  0  0  0
   -0.1708   -1.3917    0.0000 H   0  0  0  0  0  0  0  0  0  0  0  0
  3  7  2  0
  4  2  1  0
  5  4  2  0
  6 10  1  0
  7  2  1  0
  8  3  1  0
  9  4  1  0
 10  9  2  0
 11 10  1  0
 12  2  1  0
 13  5  1  0
 14  3  1  0
 15  6  1  0
 16  6  1  0
 17 15  1  0
 18 16  1  0
 19 12  1  0
 20 12  1  0
 21 18  1  0
 22  8  2  0
 23 14  2  0
 24  9  1  0
 25 11  1  0
 26 14  1  0
 27 17  1  0
 28 21  1  0
 29 24  1  0
 30 27  1  0
 18 31  1  6
 17 32  1  6
 20 19  1  0
  8  5  1  0
 11 13  2  0
 18 17  1  0
 28 30  1  0
M  END
> <chembl_id>
CHEMBL1200735

> <chembl_pref_name>
MOXIFLOXACIN HYDROCHLORIDE
