
     RDKit          2D

 27 30  0  0  0  0  0  0  0  0999 V2000
    9.9860   -4.2950    0.0000 C   0  0  0  0  0  0  0  0  0  0  0  0
    9.5757   -3.1673    0.0000 C   0  0  0  0  0  0  0  0  0  0  0  0
    8.0979   -2.9056    0.0000 O   0  0  0  0  0  0  0  0  0  0  0  0
    7.5847   -1.4952    0.0000 C   0  0  0  0  0  0  0  0  0  0  0  0
    8.3565   -0.5763    0.0000 O   0  0  0  0  0  0  0  0  0  0  0  0
    6.1069   -1.2335    0.0000 N   0  0  0  0  0  0  0  0  0  0  0  0
    5.5920    0.1754    0.0000 C   0  0  0  0  0  0  0  0  0  0  0  0
    4.1145    0.4339    0.0000 C   0  0  0  0  0  0  0  0  0  0  0  0
    3.1484   -0.7186    0.0000 C   0  0  0  0  0  0  0  0  0  0  0  0
    1.6852   -0.3846    0.0000 C   0  0  0  0  0  0  0  0  0  0  0  0
    1.3514    1.0778    0.0000 C   0  0  0  0  0  0  0  0  0  0  0  0
    2.5913    1.9239    0.0000 C   0  0  0  0  0  0  0  0  0  0  0  0
    2.4792    3.4197    0.0000 C   0  0  0  0  0  0  0  0  0  0  0  0
    1.1278    4.0705    0.0000 C   0  0  0  0  0  0  0  0  0  0  0  0
    1.0381    5.2671    0.0000 Cl  0  0  0  0  0  0  0  0  0  0  0  0
   -0.1116    3.2255    0.0000 C   0  0  0  0  0  0  0  0  0  0  0  0
    0.0000    1.7286    0.0000 C   0  0  0  0  0  0  0  0  0  0  0  0
   -1.3515    1.0777    0.0000 C   0  0  0  0  0  0  0  0  0  0  0  0
   -1.6852   -0.3847    0.0000 C   0  0  0  0  0  0  0  0  0  0  0  0
   -0.7500   -1.5574    0.0000 C   0  0  0  0  0  0  0  0  0  0  0  0
   -1.5000   -2.8577    0.0000 C   0  0  0  0  0  0  0  0  0  0  0  0
   -0.7500   -4.1567    0.0000 C   0  0  0  0  0  0  0  0  0  0  0  0
    0.7500   -4.1567    0.0000 C   0  0  0  0  0  0  0  0  0  0  0  0
    1.5000   -2.8577    0.0000 N   0  0  0  0  0  0  0  0  0  0  0  0
    0.7500   -1.5574    0.0000 C   0  0  0  0  0  0  0  0  0  0  0  0
    3.6667   -2.1252    0.0000 C   0  0  0  0  0  0  0  0  0  0  0  0
    5.1442   -2.3838    0.0000 C   0  0  0  0  0  0  0  0  0  0  0  0
  1  2  1  0
  2  3  1  0
  3  4  1  0
  4  5  2  0
  4  6  1  0
  6  7  1  0
  7  8  1  0
  8  9  1  0
  9 10  2  0
 10 11  1  0
 11 12  2  0
 12 13  1  0
 13 14  2  0
 14 15  1  0
 14 16  1  0
 16 17  2  0
 17 11  1  0
 17 18  1  0
 18 19  1  0
 19 20  1  0
 20 21  2  0
 21 22  1  0
 22 23  2  0
 23 24  1  0
 24 25  2  0
 25 10  1  0
 25 20  1  0
  9 26  1  0
 26 27  1  0
 27  6  1  0
M  END
> <chembl_id>
CHEMBL998

> <chembl_pref_name>
LORATADINE
