
     RDKit          2D

 11 10  0  0  0  0  0  0  0  0999 V2000
    4.3667   -1.6875    0.0000 C   0  0  0  0  0  0  0  0  0  0  0  0
    1.9042   -1.6875    0.0000 N   0  0  0  0  0  0  0  0  0  0  0  0
    3.7542   -1.3417    0.0000 O   0  0  0  0  0  0  0  0  0  0  0  0
    4.3667   -2.3917    0.0000 O   0  0  0  0  0  0  0  0  0  0  0  0
    4.9917   -1.3375    0.0000 N   0  0  0  0  0  0  0  0  0  0  0  0
    2.5292   -1.3292    0.0000 C   0  0  0  0  0  0  0  0  0  0  0  0
    3.1417   -1.6875    0.0000 C   0  0  0  0  0  0  0  0  0  0  0  0
    2.2542   -2.3000    0.0000 C   0  0  0  0  0  0  0  0  0  0  0  0
    1.5500   -2.3000    0.0000 C   0  0  0  0  0  0  0  0  0  0  0  0
    1.2958   -1.3292    0.0000 C   0  0  0  0  0  0  0  0  0  0  0  0
    3.1417   -2.4000    0.0000 C   0  0  0  0  0  0  0  0  0  0  0  0
  2  6  1  0
  3  1  1  0
  4  1  2  0
  5  1  1  0
  6  7  1  0
  7  3  1  0
  8  2  1  0
  9  2  1  0
 10  2  1  0
 11  7  1  0
M  CHG  1   2   1
M  END
> <chembl_id>
CHEMBL1482

> <chembl_pref_name>
BETHANECHOL
