
     RDKit          2D

 22 24  0  0  0  0  0  0  0  0999 V2000
   -7.1443   -0.0796    0.0000 C   0  0  0  0  0  0  0  0  0  0  0  0
   -6.4524    0.3696    0.0000 C   0  0  0  0  0  0  0  0  0  0  0  0
   -5.7173   -0.0047    0.0000 C   0  0  0  0  0  0  0  0  0  0  0  0
   -5.0254    0.4445    0.0000 S   0  0  0  0  0  0  0  0  0  0  0  0
   -4.2717    0.1089    0.0000 N   0  0  0  0  0  0  0  0  0  0  0  0
   -3.6043    0.5939    0.0000 C   0  0  0  0  0  0  0  0  0  0  0  0
   -5.5659    1.1136    0.0000 O   0  0  0  0  0  0  0  0  0  0  0  0
   -4.6754    1.1446    0.0000 O   0  0  0  0  0  0  0  0  0  0  0  0
   -3.4752    1.4087    0.0000 C   0  0  0  0  0  0  0  0  0  0  0  0
   -2.6604    1.2797    0.0000 C   0  0  0  0  0  0  0  0  0  0  0  0
   -2.7894    0.4648    0.0000 C   0  0  0  0  0  0  0  0  0  0  0  0
   -1.9459    1.6922    0.0000 N   0  0  0  0  0  0  0  0  0  0  0  0
   -1.9459    2.5172    0.0000 C   0  0  0  0  0  0  0  0  0  0  0  0
   -1.2314    1.2797    0.0000 C   0  0  0  0  0  0  0  0  0  0  0  0
   -0.5170    1.6922    0.0000 C   0  0  0  0  0  0  0  0  0  0  0  0
   -1.2314    0.4546    0.0000 N   0  0  0  0  0  0  0  0  0  0  0  0
   -0.5170    0.0421    0.0000 C   0  0  0  0  0  0  0  0  0  0  0  0
    0.1975    0.4546    0.0000 N   0  0  0  0  0  0  0  0  0  0  0  0
    0.1975    1.2797    0.0000 C   0  0  0  0  0  0  0  0  0  0  0  0
   -0.3454    2.4991    0.0000 C   0  0  0  0  0  0  0  0  0  0  0  0
    0.4751    2.5854    0.0000 C   0  0  0  0  0  0  0  0  0  0  0  0
    0.8106    1.8317    0.0000 N   0  0  0  0  0  0  0  0  0  0  0  0
  1  2  1  0
  2  3  1  0
  3  4  1  0
  4  5  1  0
  6  5  1  1
  4  7  2  0
  4  8  2  0
  6  9  1  0
  9 10  1  0
 10 11  1  0
 11  6  1  0
 10 12  1  1
 12 13  1  0
 12 14  1  0
 16 17  1  0
 17 18  2  0
 18 19  1  0
 15 19  2  0
 15 14  1  0
 14 16  2  0
 15 20  1  0
 20 21  2  0
 21 22  1  0
 22 19  1  0
M  END
> <chembl_id>
CHEMBL3655081

> <chembl_pref_name>
ABROCITINIB
