
     RDKit          2D

 27 30  0  0  0  0  0  0  0  0999 V2000
   -1.1583   -1.8917    0.0000 C   0  0  0  0  0  0  0  0  0  0  0  0
   -1.9333   -1.8917    0.0000 N   0  0  0  0  0  0  0  0  0  0  0  0
   -0.7625   -2.4500    0.0000 C   0  0  0  0  0  0  0  0  0  0  0  0
   -1.5458   -3.4667    0.0000 S   0  0  0  0  0  0  0  0  0  0  0  0
   -0.5375   -1.5542    0.0000 N   0  0  0  0  0  0  0  0  0  0  0  0
   -0.9708   -3.1750    0.0000 C   0  0  0  0  0  0  0  0  0  0  0  0
   -2.3625   -2.4875    0.0000 C   0  0  0  0  0  0  0  0  0  0  0  0
   -2.1625   -3.1750    0.0000 C   0  0  0  0  0  0  0  0  0  0  0  0
    0.7042   -0.8417    0.0000 N   0  0  0  0  0  0  0  0  0  0  0  0
    0.0792   -1.9167    0.0000 C   0  0  0  0  0  0  0  0  0  0  0  0
   -0.5375   -0.8667    0.0000 C   0  0  0  0  0  0  0  0  0  0  0  0
    0.7042   -1.5542    0.0000 C   0  0  0  0  0  0  0  0  0  0  0  0
    0.0792   -0.4917    0.0000 C   0  0  0  0  0  0  0  0  0  0  0  0
   -0.0708   -2.2792    0.0000 C   0  0  0  0  0  0  0  0  0  0  0  0
   -0.4458   -3.6625    0.0000 C   0  0  0  0  0  0  0  0  0  0  0  0
    1.3000   -0.4917    0.0000 C   0  0  0  0  0  0  0  0  0  0  0  0
    4.3667   -0.8542    0.0000 O   0  0  0  0  0  0  0  0  0  0  0  0
   -3.0458   -2.3000    0.0000 C   0  0  0  0  0  0  0  0  0  0  0  0
   -2.6833   -3.6667    0.0000 C   0  0  0  0  0  0  0  0  0  0  0  0
    2.5083   -0.5042    0.0000 O   0  0  0  0  0  0  0  0  0  0  0  0
    3.7542   -0.5042    0.0000 C   0  0  0  0  0  0  0  0  0  0  0  0
    1.9292   -0.8292    0.0000 C   0  0  0  0  0  0  0  0  0  0  0  0
    3.1417   -0.8417    0.0000 C   0  0  0  0  0  0  0  0  0  0  0  0
    0.4250   -2.7917    0.0000 C   0  0  0  0  0  0  0  0  0  0  0  0
    0.2292   -3.4917    0.0000 C   0  0  0  0  0  0  0  0  0  0  0  0
   -3.3750   -3.4917    0.0000 C   0  0  0  0  0  0  0  0  0  0  0  0
   -3.5625   -2.8167    0.0000 C   0  0  0  0  0  0  0  0  0  0  0  0
  2  1  2  0
  3  1  1  0
  4  6  1  0
  5  1  1  0
  6  3  1  0
  7  2  1  0
  8  7  1  0
  9 13  1  0
 10  5  1  0
 11  5  1  0
 12 10  1  0
 13 11  1  0
 14  3  2  0
 15  6  2  0
 16  9  1  0
 17 21  1  0
 18  7  2  0
 19  8  2  0
 20 22  1  0
 21 23  1  0
 22 16  1  0
 23 20  1  0
 24 14  1  0
 25 15  1  0
 26 27  2  0
 27 18  1  0
  9 12  1  0
  8  4  1  0
 24 25  2  0
 26 19  1  0
M  END
> <chembl_id>
CHEMBL716

> <chembl_pref_name>
QUETIAPINE
