
     RDKit          2D

 10 10  0  0  0  0  0  0  0  0999 V2000
    2.1417   -2.7875    0.0000 N   0  0  0  0  0  0  0  0  0  0  0  0
    1.0667   -1.8375    0.0000 C   0  0  0  0  0  0  0  0  0  0  0  0
   -2.7083   -1.8167    0.0000 N   0  0  0  0  0  0  0  0  0  0  0  0
   -0.2833   -2.3042    0.0000 C   0  0  0  0  0  0  0  0  0  0  0  0
    3.5000   -2.3292    0.0000 C   0  0  0  0  0  0  0  0  0  0  0  0
   -1.3500   -1.3542    0.0000 C   0  0  0  0  0  0  0  0  0  0  0  0
   -3.7875   -0.8667    0.0000 C   0  0  0  0  0  0  0  0  0  0  0  0
    1.3417   -0.4292    0.0000 C   0  0  0  0  0  0  0  0  0  0  0  0
    3.7792   -0.9167    0.0000 C   0  0  0  0  0  0  0  0  0  0  0  0
    2.7000    0.0125    0.0000 C   0  0  0  0  0  0  0  0  0  0  0  0
  2  1  2  0
  3  6  1  0
  4  2  1  0
  5  1  1  0
  6  4  1  0
  7  3  1  0
  8  2  1  0
  9  5  2  0
 10  9  1  0
  8 10  2  0
M  END
> <chembl_id>
CHEMBL24441

> <chembl_pref_name>
BETAHISTINE
