
     RDKit          2D

 21 21  0  0  0  0  0  0  0  0999 V2000
    8.9007   -1.7800    0.0000 C   0  0  0  0  0  0  0  0  0  0  0  0
   10.3275   -1.7800    0.0000 C   0  0  0  0  0  0  0  0  0  0  0  0
    9.6141   -0.5376    0.0000 C   0  0  0  0  0  0  0  0  0  0  0  0
    9.6141   -2.1925    0.0000 C   0  0  0  0  0  0  0  0  0  0  0  0
    8.9007   -0.9550    0.0000 C   0  0  0  0  0  0  0  0  0  0  0  0
   10.3275   -0.9501    0.0000 C   0  0  0  0  0  0  0  0  0  0  0  0
    8.1873   -2.1925    0.0000 N   0  0  0  0  0  0  0  0  0  0  0  0
    9.6141    0.2875    0.0000 C   0  0  0  0  0  0  0  0  0  0  0  0
   11.0458   -2.1925    0.0000 N   0  0  0  0  0  0  0  0  0  0  0  0
    7.4691   -1.7800    0.0000 C   0  0  0  0  0  0  0  0  0  0  0  0
   11.7593   -1.7752    0.0000 C   0  0  0  0  0  0  0  0  0  0  0  0
    9.6190   -3.0175    0.0000 I   0  0  0  0  0  0  0  0  0  0  0  0
    8.8959    0.6951    0.0000 O   0  0  0  0  0  0  0  0  0  0  0  0
    7.4739   -0.9550    0.0000 O   0  0  0  0  0  0  0  0  0  0  0  0
   11.0410   -0.5328    0.0000 I   0  0  0  0  0  0  0  0  0  0  0  0
    8.1873   -0.5376    0.0000 I   0  0  0  0  0  0  0  0  0  0  0  0
   11.7544   -0.9501    0.0000 O   0  0  0  0  0  0  0  0  0  0  0  0
   10.3275    0.6999    0.0000 O   0  0  0  0  0  0  0  0  0  0  0  0
    8.1873   -3.0175    0.0000 C   0  0  0  0  0  0  0  0  0  0  0  0
    6.7557   -2.1925    0.0000 C   0  0  0  0  0  0  0  0  0  0  0  0
   12.4727   -2.1876    0.0000 C   0  0  0  0  0  0  0  0  0  0  0  0
  2  4  2  0
  3  5  1  0
  4  1  1  0
  5  1  2  0
  6  3  2  0
  7  1  1  0
  8  3  1  0
  9  2  1  0
 10  7  1  0
 11  9  1  0
 12  4  1  0
 13  8  2  0
 14 10  2  0
 15  6  1  0
 16  5  1  0
 17 11  2  0
 18  8  1  0
 19  7  1  0
 20 10  1  0
 21 11  1  0
  6  2  1  0
M  END
> <chembl_id>
CHEMBL1736

> <chembl_pref_name>
METRIZOIC ACID
