
     RDKit          2D

 16 16  0  0  0  0  0  0  0  0999 V2000
    2.5875   -4.8417    0.0000 C   0  0  0  0  0  0  0  0  0  0  0  0
    2.5875   -4.1292    0.0000 O   0  0  0  0  0  0  0  0  0  0  0  0
    3.2042   -5.1792    0.0000 O   0  0  0  0  0  0  0  0  0  0  0  0
    1.9750   -5.2000    0.0000 N   0  0  0  0  0  0  0  0  0  0  0  0
    5.6542   -5.1792    0.0000 O   0  0  0  0  0  0  0  0  0  0  0  0
    4.4417   -5.1875    0.0000 C   0  0  0  0  0  0  0  0  0  0  0  0
    6.2792   -4.8167    0.0000 C   0  0  0  0  0  0  0  0  0  0  0  0
    7.5167   -4.1167    0.0000 C   0  0  0  0  0  0  0  0  0  0  0  0
    3.8292   -4.8417    0.0000 C   0  0  0  0  0  0  0  0  0  0  0  0
    5.0542   -4.8292    0.0000 C   0  0  0  0  0  0  0  0  0  0  0  0
    8.1417   -3.7542    0.0000 Cl  0  0  0  0  0  0  0  0  0  0  0  0
    6.9125   -5.1750    0.0000 C   0  0  0  0  0  0  0  0  0  0  0  0
    6.2792   -4.1167    0.0000 C   0  0  0  0  0  0  0  0  0  0  0  0
    6.9042   -3.7542    0.0000 C   0  0  0  0  0  0  0  0  0  0  0  0
    7.5167   -4.8167    0.0000 C   0  0  0  0  0  0  0  0  0  0  0  0
    4.4417   -5.8917    0.0000 O   0  0  0  0  0  0  0  0  0  0  0  0
  2  1  2  0
  3  1  1  0
  4  1  1  0
  5 10  1  0
  6  9  1  0
  7  5  1  0
  8 14  2  0
  9  3  1  0
 10  6  1  0
 11  8  1  0
 12  7  1  0
 13  7  2  0
 14 13  1  0
 15 12  2  0
 16  6  1  0
  8 15  1  0
M  END
> <chembl_id>
CHEMBL607710

> <chembl_pref_name>
CHLORPHENESIN CARBAMATE
