
     RDKit          2D

 75 78  0  0  1  0  0  0  0  0999 V2000
    6.3701   -4.9503    0.0000 S   0  0  0  0  0  0  0  0  0  0  0  0
    6.3701   -4.1188    0.0000 S   0  0  0  0  0  0  0  0  0  0  0  0
    6.3701   -7.4317    0.0000 O   0  0  0  0  0  0  0  0  0  0  0  0
    5.6921   -7.9179    0.0000 O   0  0  0  0  0  0  0  0  0  0  0  0
    8.5062   -5.3724    0.0000 O   0  0  0  0  0  0  0  0  0  0  0  0
    9.2225   -4.9503    0.0000 O   0  0  0  0  0  0  0  0  0  0  0  0
    4.9886  -10.0029    0.0000 O   0  0  0  0  0  0  0  0  0  0  0  0
    9.2225   -4.1188    0.0000 O   0  0  0  0  0  0  0  0  0  0  0  0
    8.5062   -3.7223    0.0000 O   0  0  0  0  0  0  0  0  0  0  0  0
    6.3701   -1.6501    0.0000 O   0  0  0  0  0  0  0  0  0  0  0  0
    7.7899   -7.4317    0.0000 O   0  0  0  0  0  0  0  0  0  0  0  0
   10.6424    0.0000    0.0000 O   0  0  0  0  0  0  0  0  0  0  0  0
   12.7914   -6.1910    0.0000 O   0  0  0  0  0  0  0  0  0  0  0  0
    7.1248   -7.9562    0.0000 O   0  0  0  0  0  0  0  0  0  0  0  0
    5.6538   -6.2166    0.0000 N   0  0  0  0  0  0  0  0  0  0  0  0
    7.7899   -6.5875    0.0000 N   0  0  0  0  0  0  0  0  0  0  0  0
    4.2723   -7.9562    0.0000 N   0  0  0  0  0  0  0  0  0  0  0  0
    9.9389   -6.1910    0.0000 N   0  0  0  0  0  0  0  0  0  0  0  0
   10.6424   -4.1188    0.0000 N   0  0  0  0  0  0  0  0  0  0  0  0
    9.2225   -2.4815    0.0000 N   0  0  0  0  0  0  0  0  0  0  0  0
    7.0864   -2.8908    0.0000 N   0  0  0  0  0  0  0  0  0  0  0  0
    5.6921   -8.7749    0.0000 N   0  0  0  0  0  0  0  0  0  0  0  0
    8.5062   -8.6725    0.0000 N   0  0  0  0  0  0  0  0  0  0  0  0
    4.9375   -2.4815    0.0000 N   0  0  0  0  0  0  0  0  0  0  0  0
    1.4071   -8.7749    0.0000 N   0  0  0  0  0  0  0  0  0  0  0  0
   12.0750   -7.4317    0.0000 N   0  0  0  0  0  0  0  0  0  0  0  0
    7.8411   -9.1714    0.0000 N   0  0  0  0  0  0  0  0  0  0  0  0
    0.0000   -8.7749    0.0000 N   0  0  0  0  0  0  0  0  0  0  0  0
    0.6908  -10.0029    0.0000 N   0  0  0  0  0  0  0  0  0  0  0  0
    4.9758   -6.7027    0.0000 C   0  0  0  0  0  0  0  0  0  0  0  0
    6.3701   -6.5875    0.0000 C   0  0  0  0  0  0  0  0  0  0  0  0
    7.0864   -6.1910    0.0000 C   0  0  0  0  0  0  0  0  0  0  0  0
    4.9758   -7.5213    0.0000 C   0  0  0  0  0  0  0  0  0  0  0  0
    5.3852   -5.4363    0.0000 C   0  0  0  0  0  0  0  0  0  0  0  0
    4.2979   -6.2166    0.0000 C   0  0  0  0  0  0  0  0  0  0  0  0
    4.5537   -5.4363    0.0000 C   0  0  0  0  0  0  0  0  0  0  0  0
    8.5062   -6.1910    0.0000 C   0  0  0  0  0  0  0  0  0  0  0  0
    7.0864   -5.3724    0.0000 C   0  0  0  0  0  0  0  0  0  0  0  0
    9.2225   -6.5875    0.0000 C   0  0  0  0  0  0  0  0  0  0  0  0
    4.2723   -8.7749    0.0000 C   0  0  0  0  0  0  0  0  0  0  0  0
    9.9389   -5.3724    0.0000 C   0  0  0  0  0  0  0  0  0  0  0  0
   10.6424   -4.9503    0.0000 C   0  0  0  0  0  0  0  0  0  0  0  0
    4.9886   -9.1714    0.0000 C   0  0  0  0  0  0  0  0  0  0  0  0
    9.9389   -2.8908    0.0000 C   0  0  0  0  0  0  0  0  0  0  0  0
    9.9389   -3.7223    0.0000 C   0  0  0  0  0  0  0  0  0  0  0  0
    9.2225   -7.4317    0.0000 C   0  0  0  0  0  0  0  0  0  0  0  0
    7.7899   -2.4815    0.0000 C   0  0  0  0  0  0  0  0  0  0  0  0
    8.5062   -2.8908    0.0000 C   0  0  0  0  0  0  0  0  0  0  0  0
    3.5560   -9.1714    0.0000 C   0  0  0  0  0  0  0  0  0  0  0  0
   10.6424   -2.4815    0.0000 C   0  0  0  0  0  0  0  0  0  0  0  0
   11.3587   -5.3724    0.0000 C   0  0  0  0  0  0  0  0  0  0  0  0
    6.3701   -2.4815    0.0000 C   0  0  0  0  0  0  0  0  0  0  0  0
    7.7899   -1.6501    0.0000 C   0  0  0  0  0  0  0  0  0  0  0  0
    8.5062   -7.8283    0.0000 C   0  0  0  0  0  0  0  0  0  0  0  0
   11.3587   -2.8908    0.0000 C   0  0  0  0  0  0  0  0  0  0  0  0
    5.6538   -2.8908    0.0000 C   0  0  0  0  0  0  0  0  0  0  0  0
    8.5062   -1.2407    0.0000 C   0  0  0  0  0  0  0  0  0  0  0  0
    5.6538   -3.7223    0.0000 C   0  0  0  0  0  0  0  0  0  0  0  0
    2.8397   -8.7749    0.0000 C   0  0  0  0  0  0  0  0  0  0  0  0
   11.3587   -6.1910    0.0000 C   0  0  0  0  0  0  0  0  0  0  0  0
    8.5062   -0.4221    0.0000 C   0  0  0  0  0  0  0  0  0  0  0  0
    9.2225   -1.6501    0.0000 C   0  0  0  0  0  0  0  0  0  0  0  0
    6.4085   -9.1714    0.0000 C   0  0  0  0  0  0  0  0  0  0  0  0
   12.0750   -2.4815    0.0000 C   0  0  0  0  0  0  0  0  0  0  0  0
   11.3587   -3.7223    0.0000 C   0  0  0  0  0  0  0  0  0  0  0  0
    9.9389   -0.4221    0.0000 C   0  0  0  0  0  0  0  0  0  0  0  0
    9.2225    0.0000    0.0000 C   0  0  0  0  0  0  0  0  0  0  0  0
    9.9389   -1.2407    0.0000 C   0  0  0  0  0  0  0  0  0  0  0  0
    2.1234   -9.1714    0.0000 C   0  0  0  0  0  0  0  0  0  0  0  0
   12.0750   -6.5875    0.0000 C   0  0  0  0  0  0  0  0  0  0  0  0
   12.7914   -2.8908    0.0000 C   0  0  0  0  0  0  0  0  0  0  0  0
   12.0750   -4.1188    0.0000 C   0  0  0  0  0  0  0  0  0  0  0  0
    7.1248   -8.7621    0.0000 C   0  0  0  0  0  0  0  0  0  0  0  0
   12.7914   -3.7223    0.0000 C   0  0  0  0  0  0  0  0  0  0  0  0
    0.6908   -9.1714    0.0000 C   0  0  0  0  0  0  0  0  0  0  0  0
  1  2  1  0
  1 38  1  0
  2 58  1  0
  3 31  2  0
  4 33  2  0
  5 37  2  0
  6 41  2  0
  7 43  2  0
  8 45  2  0
  9 48  2  0
 10 52  2  0
 11 54  2  0
 12 66  1  0
 13 70  2  0
 14 73  2  0
 30 15  1  6
 15 31  1  0
 15 34  1  0
 32 16  1  6
 16 37  1  0
 17 33  1  0
 40 17  1  6
 39 18  1  1
 18 41  1  0
 42 19  1  1
 19 45  1  0
 44 20  1  1
 20 48  1  0
 47 21  1  1
 21 52  1  0
 22 43  1  0
 22 63  1  0
 23 54  1  0
 56 24  1  6
 25 69  1  0
 25 75  1  0
 26 70  1  0
 27 73  1  0
 28 75  2  3
 29 75  1  0
 30 33  1  0
 30 35  1  0
 31 32  1  0
 32 38  1  0
 34 36  1  0
 35 36  1  0
 37 39  1  0
 39 46  1  0
 40 43  1  0
 40 49  1  0
 41 42  1  0
 42 51  1  0
 44 45  1  0
 44 50  1  0
 46 54  1  0
 47 48  1  0
 47 53  1  0
 49 59  1  0
 50 55  1  0
 51 60  1  0
 52 56  1  0
 53 57  1  0
 55 64  2  0
 55 65  1  0
 56 58  1  0
 57 61  2  0
 57 62  1  0
 59 69  1  0
 60 70  1  0
 61 67  1  0
 62 68  2  0
 63 73  1  0
 64 71  1  0
 65 72  2  0
 66 67  2  0
 66 68  1  0
 71 74  2  0
 72 74  1  0
M  END
> <chembl_id>
CHEMBL373742

> <chembl_pref_name>
VASOPRESSIN
