
     RDKit          2D

 50 49  0  0  0  0  0  0  0  0999 V2000
    2.8415   -8.1222    0.0000 N   0  0  0  0  0  0  0  0  0  0  0  0
    2.8415   -5.6472    0.0000 P   0  0  0  0  0  0  0  0  0  0  0  0
    2.8415   -4.8222    0.0000 O   0  0  0  0  0  0  0  0  0  0  0  0
    3.6665   -5.6472    0.0000 O   0  0  0  0  0  0  0  0  0  0  0  0
    2.8415   -6.4722    0.0000 O   0  0  0  0  0  0  0  0  0  0  0  0
    2.0165   -5.6472    0.0000 O   0  0  0  0  0  0  0  0  0  0  0  0
    2.1270   -6.8847    0.0000 C   0  0  0  0  0  0  0  0  0  0  0  0
    2.1270   -7.7097    0.0000 C   0  0  0  0  0  0  0  0  0  0  0  0
    3.5560   -8.5347    0.0000 C   0  0  0  0  0  0  0  0  0  0  0  0
    2.4290   -8.8366    0.0000 C   0  0  0  0  0  0  0  0  0  0  0  0
    3.2540   -7.4077    0.0000 C   0  0  0  0  0  0  0  0  0  0  0  0
    2.1270   -4.4097    0.0000 C   0  0  0  0  0  0  0  0  0  0  0  0
    2.1270   -3.5847    0.0000 C   0  0  0  0  0  0  0  0  0  0  0  0
    1.4125   -3.1722    0.0000 C   0  0  0  0  0  0  0  0  0  0  0  0
    0.6981   -3.5847    0.0000 O   0  0  0  0  0  0  0  0  0  0  0  0
   -0.0164   -2.3472    0.0000 O   0  0  0  0  0  0  0  0  0  0  0  0
   -0.0164   -3.1722    0.0000 C   0  0  0  0  0  0  0  0  0  0  0  0
   -0.7309   -3.5847    0.0000 C   0  0  0  0  0  0  0  0  0  0  0  0
   -1.4453   -3.1722    0.0000 C   0  0  0  0  0  0  0  0  0  0  0  0
   -2.1598   -3.5847    0.0000 C   0  0  0  0  0  0  0  0  0  0  0  0
   -2.8743   -3.1722    0.0000 C   0  0  0  0  0  0  0  0  0  0  0  0
   -3.5888   -3.5847    0.0000 C   0  0  0  0  0  0  0  0  0  0  0  0
   -4.3032   -3.1722    0.0000 C   0  0  0  0  0  0  0  0  0  0  0  0
   -5.0177   -3.5847    0.0000 C   0  0  0  0  0  0  0  0  0  0  0  0
   -5.7322   -3.1722    0.0000 C   0  0  0  0  0  0  0  0  0  0  0  0
   -6.4466   -3.5847    0.0000 C   0  0  0  0  0  0  0  0  0  0  0  0
   -7.1611   -3.1722    0.0000 C   0  0  0  0  0  0  0  0  0  0  0  0
   -7.8756   -3.5847    0.0000 C   0  0  0  0  0  0  0  0  0  0  0  0
   -8.5901   -3.1722    0.0000 C   0  0  0  0  0  0  0  0  0  0  0  0
    2.8415   -3.1722    0.0000 O   0  0  0  0  0  0  0  0  0  0  0  0
    3.5560   -4.4097    0.0000 O   0  0  0  0  0  0  0  0  0  0  0  0
    3.5560   -3.5847    0.0000 C   0  0  0  0  0  0  0  0  0  0  0  0
    4.2704   -3.1722    0.0000 C   0  0  0  0  0  0  0  0  0  0  0  0
    4.9849   -3.5847    0.0000 C   0  0  0  0  0  0  0  0  0  0  0  0
    5.6994   -3.1722    0.0000 C   0  0  0  0  0  0  0  0  0  0  0  0
    6.4138   -3.5847    0.0000 C   0  0  0  0  0  0  0  0  0  0  0  0
    7.1283   -3.1722    0.0000 C   0  0  0  0  0  0  0  0  0  0  0  0
    7.8428   -3.5847    0.0000 C   0  0  0  0  0  0  0  0  0  0  0  0
    8.5573   -3.1722    0.0000 C   0  0  0  0  0  0  0  0  0  0  0  0
    9.2717   -3.5847    0.0000 C   0  0  0  0  0  0  0  0  0  0  0  0
    9.9862   -3.1722    0.0000 C   0  0  0  0  0  0  0  0  0  0  0  0
   10.7007   -3.5847    0.0000 C   0  0  0  0  0  0  0  0  0  0  0  0
   11.4151   -3.1722    0.0000 C   0  0  0  0  0  0  0  0  0  0  0  0
   12.1296   -3.5847    0.0000 C   0  0  0  0  0  0  0  0  0  0  0  0
   12.8441   -3.1722    0.0000 C   0  0  0  0  0  0  0  0  0  0  0  0
   13.5585   -3.5847    0.0000 C   0  0  0  0  0  0  0  0  0  0  0  0
   14.2730   -3.1722    0.0000 C   0  0  0  0  0  0  0  0  0  0  0  0
   -9.3045   -3.5847    0.0000 C   0  0  0  0  0  0  0  0  0  0  0  0
  -10.0190   -3.1722    0.0000 C   0  0  0  0  0  0  0  0  0  0  0  0
  -10.7335   -3.5847    0.0000 C   0  0  0  0  0  0  0  0  0  0  0  0
  8  1  1  0
  9  1  1  0
 10  1  1  0
 11  1  1  0
  2  3  1  0
  4  2  2  0
  2  5  1  0
  2  6  1  0
 12  3  1  0
  7  5  1  0
  7  8  1  0
 12 13  1  0
 13 14  1  0
 13 30  1  1
 14 15  1  0
 17 15  1  0
 17 16  2  0
 17 18  1  0
 18 19  1  0
 19 20  1  0
 20 21  1  0
 21 22  1  0
 22 23  1  0
 23 24  1  0
 24 25  1  0
 25 26  1  0
 26 27  1  0
 27 28  1  0
 28 29  1  0
 29 48  1  0
 32 30  1  0
 32 31  2  0
 32 33  1  0
 33 34  1  0
 34 35  1  0
 35 36  1  0
 36 37  1  0
 37 38  1  0
 38 39  1  0
 39 40  1  0
 40 41  1  0
 41 42  1  0
 42 43  1  0
 43 44  1  0
 44 45  1  0
 45 46  1  0
 46 47  1  0
 48 49  1  0
 49 50  1  0
M  CHG  2   1   1   6  -1
M  END
> <chembl_id>
CHEMBL1200737

> <chembl_pref_name>
COLFOSCERIL PALMITATE
