
     RDKit          2D

 40 44  0  0  0  0  0  0  0  0999 V2000
   19.3988    3.5000    0.0000 C   0  0  0  0  0  0  0  0  0  0  0  0
    7.4466    9.3369    0.0000 C   0  0  0  0  0  0  0  0  0  0  0  0
   15.7616    5.6000    0.0000 O   0  0  0  0  0  0  0  0  0  0  0  0
   11.6108   10.7594    0.0000 O   0  0  0  0  0  0  0  0  0  0  0  0
    1.2125    0.0000    0.0000 F   0  0  0  0  0  0  0  0  0  0  0  0
    7.2745    6.3000    0.0000 C   0  0  0  0  0  0  0  0  0  0  0  0
    8.4870    5.6000    0.0000 C   0  0  0  0  0  0  0  0  0  0  0  0
    0.0000    3.5000    0.0000 C   0  0  0  0  0  0  0  0  0  0  0  0
    0.0000    2.1000    0.0000 C   0  0  0  0  0  0  0  0  0  0  0  0
    1.2125    4.2000    0.0000 C   0  0  0  0  0  0  0  0  0  0  0  0
    6.0622    4.2000    0.0000 C   0  0  0  0  0  0  0  0  0  0  0  0
    4.8498    3.5000    0.0000 C   0  0  0  0  0  0  0  0  0  0  0  0
    3.6373    5.6000    0.0000 C   0  0  0  0  0  0  0  0  0  0  0  0
    2.4250    2.1000    0.0000 C   0  0  0  0  0  0  0  0  0  0  0  0
   18.1865    4.2000    0.0000 C   0  0  0  0  0  0  0  0  0  0  0  0
   12.1243    3.5000    0.0000 C   0  0  0  0  0  0  0  0  0  0  0  0
   10.9120    4.2000    0.0000 C   0  0  0  0  0  0  0  0  0  0  0  0
   13.3368    5.6000    0.0000 C   0  0  0  0  0  0  0  0  0  0  0  0
   12.1243    7.7001    0.0000 C   0  0  0  0  0  0  0  0  0  0  0  0
    4.8498    6.3000    0.0000 N   0  0  0  0  0  0  0  0  0  0  0  0
   14.5493    3.5000    0.0000 N   0  0  0  0  0  0  0  0  0  0  0  0
   16.9741    3.5000    0.0000 O   0  0  0  0  0  0  0  0  0  0  0  0
    9.2286    9.9157    0.0000 O   0  0  0  0  0  0  0  0  0  0  0  0
   15.7616    4.2000    0.0000 C   0  0  0  0  0  0  0  0  0  0  0  0
   10.6208    9.7694    0.0000 C   0  0  0  0  0  0  0  0  0  0  0  0
    1.2125    1.4000    0.0000 C   0  0  0  0  0  0  0  0  0  0  0  0
    6.0622    5.6000    0.0000 C   0  0  0  0  0  0  0  0  0  0  0  0
    3.6373    4.2000    0.0000 C   0  0  0  0  0  0  0  0  0  0  0  0
    2.4250    3.5000    0.0000 C   0  0  0  0  0  0  0  0  0  0  0  0
    8.6591    8.6369    0.0000 C   0  0  0  0  0  0  0  0  0  0  0  0
   13.3368    4.2000    0.0000 C   0  0  0  0  0  0  0  0  0  0  0  0
   12.1243    6.3000    0.0000 C   0  0  0  0  0  0  0  0  0  0  0  0
    9.6995    6.3000    0.0000 C   0  0  0  0  0  0  0  0  0  0  0  0
   10.9120    8.4001    0.0000 C   0  0  0  0  0  0  0  0  0  0  0  0
   10.9120    5.6000    0.0000 C   0  0  0  0  0  0  0  0  0  0  0  0
    9.6995    7.7001    0.0000 C   0  0  0  0  0  0  0  0  0  0  0  0
    8.7860    7.2934    0.0000 H   0  0  0  0  0  0  0  0  0  0  0  0
   10.0460    5.1000    0.0000 H   0  0  0  0  0  0  0  0  0  0  0  0
   11.7210    8.9879    0.0000 H   0  0  0  0  0  0  0  0  0  0  0  0
   12.9903    6.8000    0.0000 H   0  0  0  0  0  0  0  0  0  0  0  0
  1 15  1  0
 30  2  1  1
  3 24  2  0
  4 25  2  0
  5 26  1  0
  6  7  2  0
  6 27  1  0
 33  7  1  6
  8  9  1  0
  8 10  2  0
  9 26  2  0
 10 29  1  0
 11 12  2  0
 11 27  1  0
 12 28  1  0
 13 20  1  0
 13 28  2  0
 14 26  1  0
 14 29  2  0
 15 22  1  0
 16 17  1  0
 16 31  1  0
 17 35  1  0
 18 31  1  0
 18 32  1  0
 19 32  1  0
 19 34  1  0
 20 27  2  0
 21 24  1  0
 31 21  1  6
 22 24  1  0
 23 25  1  0
 23 30  1  0
 25 34  1  0
 28 29  1  0
 30 36  1  0
 32 35  1  0
 33 35  1  0
 33 36  1  0
 34 36  1  0
 36 37  1  1
 35 38  1  6
 34 39  1  1
 32 40  1  1
M  END
> <chembl_id>
CHEMBL493982

> <chembl_pref_name>
VORAPAXAR
