
     RDKit          2D

  3  0  0  0  0  0  0  0  0  0999 V2000
    6.2323   -3.7459    0.0000 H   0  0  0  0  0  0  0  0  0  0  0  0
    4.7601   -3.2879    0.0000 Ca  0  0  0  0  0 15  0  0  0  0  0  0
    5.8233   -2.8790    0.0000 H   0  0  0  0  0  0  0  0  0  0  0  0
M  CHG  3   1  -1   2   2   3  -1
M  END
> <chembl_id>
CHEMBL5072826

> <chembl_pref_name>
CALCIUM
