
     RDKit          2D

 35 38  0  0  1  0  0  0  0  0999 V2000
    3.1292   -5.1125    0.0000 C   0  0  0  0  0  0  0  0  0  0  0  0
    5.0042   -4.0500    0.0000 C   0  0  0  0  0  0  0  0  0  0  0  0
    3.7792   -4.7792    0.0000 C   0  0  0  0  0  0  0  0  0  0  0  0
    5.6625   -3.8292    0.0000 C   0  0  0  0  0  0  0  0  0  0  0  0
    3.1292   -5.8292    0.0000 C   0  0  0  0  0  0  0  0  0  0  0  0
    5.0042   -4.7667    0.0000 C   0  0  0  0  0  0  0  0  0  0  0  0
    4.3917   -5.1292    0.0000 C   0  0  0  0  0  0  0  0  0  0  0  0
    3.7667   -4.0417    0.0000 C   0  0  0  0  0  0  0  0  0  0  0  0
    2.5042   -4.7417    0.0000 C   0  0  0  0  0  0  0  0  0  0  0  0
    4.3917   -3.7000    0.0000 C   0  0  0  0  0  0  0  0  0  0  0  0
    6.0667   -4.4167    0.0000 C   0  0  0  0  0  0  0  0  0  0  0  0
    5.6750   -4.9792    0.0000 C   0  0  0  0  0  0  0  0  0  0  0  0
    4.3917   -5.8542    0.0000 C   0  0  0  0  0  0  0  0  0  0  0  0
    3.7667   -6.2042    0.0000 C   0  0  0  0  0  0  0  0  0  0  0  0
    2.4917   -6.1792    0.0000 C   0  0  0  0  0  0  0  0  0  0  0  0
    5.6625   -3.0167    0.0000 C   0  0  0  0  0  0  0  0  0  0  0  0
    6.2875   -3.4792    0.0000 O   0  0  0  0  0  0  0  0  0  0  0  0
    1.8625   -5.1125    0.0000 C   0  0  0  0  0  0  0  0  0  0  0  0
    1.8625   -5.8125    0.0000 C   0  0  0  0  0  0  0  0  0  0  0  0
    6.9917   -3.4792    0.0000 C   0  0  0  0  0  0  0  0  0  0  0  0
    3.7792   -5.4917    0.0000 F   0  0  0  0  0  0  0  0  0  0  0  0
    5.1167   -2.7042    0.0000 O   0  0  0  0  0  0  0  0  0  0  0  0
    7.3500   -4.0917    0.0000 O   0  0  0  0  0  0  0  0  0  0  0  0
    1.2250   -6.1292    0.0000 O   0  0  0  0  0  0  0  0  0  0  0  0
    3.1292   -4.3542    0.0000 C   0  0  0  0  0  0  0  0  0  0  0  0
    5.0042   -3.3292    0.0000 C   0  0  0  0  0  0  0  0  0  0  0  0
    3.1667   -3.6792    0.0000 O   0  0  0  0  0  0  0  0  0  0  0  0
    3.7667   -6.9417    0.0000 F   0  0  0  0  0  0  0  0  0  0  0  0
    6.2667   -2.7292    0.0000 C   0  0  0  0  0  0  0  0  0  0  0  0
    6.2667   -1.9667    0.0000 Cl  0  0  0  0  0  0  0  0  0  0  0  0
    6.7750   -4.4375    0.0000 C   0  0  0  0  0  0  0  0  0  0  0  0
    7.3500   -2.8667    0.0000 C   0  0  0  0  0  0  0  0  0  0  0  0
    8.0542   -2.8667    0.0000 C   0  0  0  0  0  0  0  0  0  0  0  0
    4.9917   -5.5417    0.0000 H   0  0  0  0  0  0  0  0  0  0  0  0
    4.3917   -4.3375    0.0000 H   0  0  0  0  0  0  0  0  0  0  0  0
  2 10  1  0
  3  1  1  0
  4  2  1  0
  5  1  1  0
  6  7  1  0
  7  3  1  0
  8  3  1  0
  9  1  1  0
 10  8  1  0
 11 12  1  0
 12  6  1  0
 13 14  1  0
 14  5  1  0
 15  5  2  0
 16  4  1  0
  4 17  1  6
 18  9  2  0
 19 18  1  0
 20 17  1  0
  3 21  1  6
 22 16  2  0
 23 20  2  0
 24 19  2  0
  1 25  1  1
  2 26  1  1
  8 27  1  1
 14 28  1  6
 29 16  1  0
 30 29  1  0
 11 31  1  1
 32 20  1  0
 33 32  1  0
  6 34  1  6
  7 35  1  1
 19 15  1  0
 13  7  1  0
  6  2  1  0
 11  4  1  0
M  END
> <chembl_id>
CHEMBL1200908

> <chembl_pref_name>
HALOBETASOL PROPIONATE
