
     RDKit          2D

 28 29  0  0  1  0  0  0  0  0999 V2000
   -0.3250    0.0833    0.0000 C   0  0  0  0  0  0  0  0  0  0  0  0
   -1.0625    0.5833    0.0000 C   0  0  0  0  0  0  0  0  0  0  0  0
   -0.5833   -0.6667    0.0000 C   0  0  0  0  0  0  0  0  0  0  0  0
   -0.0833   -1.2750    0.0000 C   0  0  0  0  0  0  0  0  0  0  0  0
   -1.3708   -0.6667    0.0000 C   0  0  0  0  0  0  0  0  0  0  0  0
    0.7167   -1.0667    0.0000 C   0  0  0  0  0  0  0  0  0  0  0  0
   -0.0208    1.3083    0.0000 C   0  0  0  0  0  0  0  0  0  0  0  0
   -1.6833    0.0458    0.0000 C   0  0  0  0  0  0  0  0  0  0  0  0
    2.2750   -2.6167    0.0000 C   0  0  0  0  0  0  0  0  0  0  0  0
    2.9898   -2.2738    0.0000 C   0  0  0  0  0  0  0  0  0  0  0  0
    0.2792    0.6083    0.0000 C   0  0  0  0  0  0  0  0  0  0  0  0
   -0.7958    1.3333    0.0000 C   0  0  0  0  0  0  0  0  0  0  0  0
   -2.0208    2.9083    0.0000 C   0  0  0  0  0  0  0  0  0  0  0  0
    0.4125    1.9750    0.0000 C   0  0  0  0  0  0  0  0  0  0  0  0
   -2.2208    2.1333    0.0000 O   0  0  0  0  0  0  0  0  0  0  0  0
    1.2792   -1.6292    0.0000 C   0  0  0  0  0  0  0  0  0  0  0  0
   -1.8125   -1.3417    0.0000 O   0  0  0  0  0  0  0  0  0  0  0  0
   -2.5958    3.4708    0.0000 O   0  0  0  0  0  0  0  0  0  0  0  0
    1.0417   -2.3667    0.0000 C   0  0  0  0  0  0  0  0  0  0  0  0
    1.5542   -2.9625    0.0000 C   0  0  0  0  0  0  0  0  0  0  0  0
    2.0542   -1.4292    0.0000 O   0  0  0  0  0  0  0  0  0  0  0  0
    3.7138   -1.9189    0.0000 C   0  0  0  0  0  0  0  0  0  0  0  0
   -1.2375    3.1250    0.0000 C   0  0  0  0  0  0  0  0  0  0  0  0
    0.0042    2.6583    0.0000 C   0  0  0  0  0  0  0  0  0  0  0  0
    0.2542   -2.5375    0.0000 C   0  0  0  0  0  0  0  0  0  0  0  0
   -0.7833    2.4625    0.0000 C   0  0  0  0  0  0  0  0  0  0  0  0
    0.3375   -0.3667    0.0000 H   0  0  0  0  0  0  0  0  0  0  0  0
   -1.7250    1.0375    0.0000 H   0  0  0  0  0  0  0  0  0  0  0  0
  2  1  1  0
  3  1  1  0
  3  4  1  1
  5  3  1  0
  6  4  2  0
  7 11  1  0
  8  2  1  0
  9 20  1  0
 10  9  3  0
 11  1  1  0
 12  2  1  0
 13 23  1  0
 14  7  2  0
 15 13  2  0
 16  6  1  0
  5 17  1  6
 18 13  1  0
 19 16  1  0
 20 19  1  0
 16 21  1  1
 22 10  1  0
 23 26  1  0
 24 14  1  0
 25 19  1  0
 26 24  1  0
  1 27  1  1
  2 28  1  1
 12  7  1  0
  8  5  1  0
M  END
> <chembl_id>
CHEMBL494

> <chembl_pref_name>
ILOPROST
