
     RDKit          2D

 17 17  0  0  0  0  0  0  0  0999 V2000
    4.1958   -4.4333    0.0000 C   0  0  0  0  0  0  0  0  0  0  0  0
    4.8083   -4.0750    0.0000 C   0  0  0  0  0  0  0  0  0  0  0  0
    1.7458   -4.4375    0.0000 C   0  0  0  0  0  0  0  0  0  0  0  0
    3.5833   -4.0792    0.0000 C   0  0  0  0  0  0  0  0  0  0  0  0
    1.7458   -5.1500    0.0000 C   0  0  0  0  0  0  0  0  0  0  0  0
    2.3583   -4.0833    0.0000 C   0  0  0  0  0  0  0  0  0  0  0  0
    2.9708   -4.4375    0.0000 C   0  0  0  0  0  0  0  0  0  0  0  0
    4.8083   -3.3667    0.0000 O   0  0  0  0  0  0  0  0  0  0  0  0
    2.3583   -5.5042    0.0000 C   0  0  0  0  0  0  0  0  0  0  0  0
    4.5417   -5.0417    0.0000 N   0  0  0  0  0  0  0  0  0  0  0  0
    2.9708   -5.1500    0.0000 C   0  0  0  0  0  0  0  0  0  0  0  0
    5.4250   -4.4292    0.0000 O   0  0  0  0  0  0  0  0  0  0  0  0
    1.1333   -4.0833    0.0000 O   0  0  0  0  0  0  0  0  0  0  0  0
    1.1333   -5.5042    0.0000 O   0  0  0  0  0  0  0  0  0  0  0  0
    3.8375   -5.0417    0.0000 C   0  0  0  0  0  0  0  0  0  0  0  0
    6.0375   -4.0708    0.0000 C   0  0  0  0  0  0  0  0  0  0  0  0
    6.6500   -4.4250    0.0000 C   0  0  0  0  0  0  0  0  0  0  0  0
  2  1  1  0
  3  6  1  0
  4  1  1  0
  5  3  2  0
  6  7  2  0
  7  4  1  0
  8  2  2  0
  9 11  2  0
  1 10  1  1
 11  7  1  0
 12  2  1  0
 13  3  1  0
 14  5  1  0
 15  1  1  0
 16 12  1  0
 17 16  1  0
  9  5  1  0
M  END
> <chembl_id>
CHEMBL1201233

> <chembl_pref_name>
METHYLDOPATE
