
     RDKit          2D

 15 16  0  0  0  0  0  0  0  0999 V2000
    5.2125   -4.3125    0.0000 N   0  0  0  0  0  0  0  0  0  0  0  0
    4.6167   -4.6417    0.0000 C   0  0  0  0  0  0  0  0  0  0  0  0
    5.8292   -4.6667    0.0000 C   0  0  0  0  0  0  0  0  0  0  0  0
    4.6167   -5.3542    0.0000 C   0  0  0  0  0  0  0  0  0  0  0  0
    5.8292   -5.3875    0.0000 C   0  0  0  0  0  0  0  0  0  0  0  0
    5.2292   -5.7167    0.0000 C   0  0  0  0  0  0  0  0  0  0  0  0
    6.4792   -4.3292    0.0000 O   0  0  0  0  0  0  0  0  0  0  0  0
    4.0042   -4.2792    0.0000 C   0  0  0  0  0  0  0  0  0  0  0  0
    5.2042   -3.6042    0.0000 O   0  0  0  0  0  0  0  0  0  0  0  0
    5.2292   -6.4292    0.0000 C   0  0  0  0  0  0  0  0  0  0  0  0
    3.4125   -4.6167    0.0000 C   0  0  0  0  0  0  0  0  0  0  0  0
    4.0292   -3.5667    0.0000 C   0  0  0  0  0  0  0  0  0  0  0  0
    3.4167   -3.2042    0.0000 C   0  0  0  0  0  0  0  0  0  0  0  0
    2.7792   -4.2417    0.0000 C   0  0  0  0  0  0  0  0  0  0  0  0
    2.7917   -3.5500    0.0000 C   0  0  0  0  0  0  0  0  0  0  0  0
  2  1  1  0
  3  1  1  0
  4  2  2  0
  5  3  1  0
  6  5  2  0
  7  3  2  0
  8  2  1  0
  9  1  1  0
 10  6  1  0
 11  8  1  0
 12  8  1  0
 13 12  1  0
 14 11  1  0
 15 13  1  0
  6  4  1  0
 15 14  1  0
M  END
> <chembl_id>
CHEMBL1413

> <chembl_pref_name>
CICLOPIROX
