
     RDKit          2D

 12 11  0  0  0  0  0  0  0  0999 V2000
    4.0875   -4.7667    0.0000 N   0  0  0  0  0  0  0  0  0  0  0  0
    4.7125   -4.4125    0.0000 C   0  0  0  0  0  0  0  0  0  0  0  0
    3.4792   -4.4042    0.0000 N   0  0  0  0  0  0  0  0  0  0  0  0
    4.7167   -3.7042    0.0000 O   0  0  0  0  0  0  0  0  0  0  0  0
    2.8542   -4.7542    0.0000 O   0  0  0  0  0  0  0  0  0  0  0  0
    5.3167   -4.7792    0.0000 N   0  0  0  0  0  0  0  0  0  0  0  0
    4.0792   -5.4667    0.0000 C   0  0  0  0  0  0  0  0  0  0  0  0
    3.4542   -6.5292    0.0000 Cl  0  0  0  0  0  0  0  0  0  0  0  0
    7.1667   -4.4292    0.0000 Cl  0  0  0  0  0  0  0  0  0  0  0  0
    3.4667   -5.8250    0.0000 C   0  0  0  0  0  0  0  0  0  0  0  0
    5.9292   -4.4292    0.0000 C   0  0  0  0  0  0  0  0  0  0  0  0
    6.5542   -4.7792    0.0000 C   0  0  0  0  0  0  0  0  0  0  0  0
  2  1  1  0
  3  1  1  0
  4  2  2  0
  5  3  2  0
  6  2  1  0
  7  1  1  0
  8 10  1  0
  9 12  1  0
 10  7  1  0
 11  6  1  0
 12 11  1  0
M  END
> <chembl_id>
CHEMBL513

> <chembl_pref_name>
CARMUSTINE
