
     RDKit          2D

 19 21  0  0  0  0  0  0  0  0999 V2000
    1.9344    0.7527    0.0000 C   0  0  0  0  0  0  0  0  0  0  0  0
    0.5054    0.7527    0.0000 C   0  0  0  0  0  0  0  0  0  0  0  0
    0.5054    1.5777    0.0000 C   0  0  0  0  0  0  0  0  0  0  0  0
    1.2199    1.9902    0.0000 C   0  0  0  0  0  0  0  0  0  0  0  0
   -0.7641    1.1652    0.0000 C   0  0  0  0  0  0  0  0  0  0  0  0
    2.6488    0.3402    0.0000 Cl  0  0  0  0  0  0  0  0  0  0  0  0
    1.2199    0.3402    0.0000 N   0  0  0  0  0  0  0  0  0  0  0  0
   -0.2792    0.4978    0.0000 N   0  0  0  0  0  0  0  0  0  0  0  0
   -0.2792    1.8327    0.0000 N   0  0  0  0  0  0  0  0  0  0  0  0
    1.2199    2.8152    0.0000 N   0  0  0  0  0  0  0  0  0  0  0  0
    1.9344    1.5777    0.0000 N   0  0  0  0  0  0  0  0  0  0  0  0
   -0.5341   -0.2868    0.0000 C   0  0  0  0  0  0  0  0  0  0  0  0
   -0.0492   -0.9543    0.0000 C   0  0  0  0  0  0  0  0  0  0  0  0
   -0.5341   -1.6217    0.0000 C   0  0  0  0  0  0  0  0  0  0  0  0
   -0.2792   -2.4063    0.0000 O   0  0  0  0  0  0  0  0  0  0  0  0
   -1.3188   -1.3668    0.0000 C   0  0  0  0  0  0  0  0  0  0  0  0
   -1.3188   -0.5418    0.0000 O   0  0  0  0  0  0  0  0  0  0  0  0
   -1.9862   -1.8517    0.0000 C   0  0  0  0  0  0  0  0  0  0  0  0
   -1.9000   -2.6722    0.0000 O   0  0  0  0  0  0  0  0  0  0  0  0
  1  6  1  0
  1  7  2  0
  1 11  1  0
  2  3  2  0
  2  7  1  0
  2  8  1  0
  3  4  1  0
  3  9  1  0
  4 10  1  0
  4 11  2  0
  5  8  1  0
  5  9  2  0
 12  8  1  1
 12 13  1  0
 12 17  1  0
 13 14  1  0
 14 15  1  6
 14 16  1  0
 16 17  1  0
 16 18  1  1
 18 19  1  0
M  END
> <chembl_id>
CHEMBL1619

> <chembl_pref_name>
CLADRIBINE
