
     RDKit          2D

 25 25  0  0  0  0  0  0  0  0999 V2000
    3.3167   -4.4917    0.0000 Cl  0  0  0  0  0  0  0  0  0  0  0  0
    0.0042   -2.4167    0.0000 C   0  0  0  0  0  0  0  0  0  0  0  0
    0.6500   -2.7792    0.0000 C   0  0  0  0  0  0  0  0  0  0  0  0
   -0.6250   -2.7792    0.0000 C   0  0  0  0  0  0  0  0  0  0  0  0
    1.2667   -2.4042    0.0000 C   0  0  0  0  0  0  0  0  0  0  0  0
    0.0042   -1.6750    0.0000 C   0  0  0  0  0  0  0  0  0  0  0  0
   -0.6375   -3.4375    0.0000 O   0  0  0  0  0  0  0  0  0  0  0  0
    1.2667   -1.6917    0.0000 C   0  0  0  0  0  0  0  0  0  0  0  0
    3.0917   -2.7375    0.0000 N   0  0  0  0  0  0  0  0  0  0  0  0
    0.6667   -1.3125    0.0000 C   0  0  0  0  0  0  0  0  0  0  0  0
    2.5250   -2.4125    0.0000 C   0  0  0  0  0  0  0  0  0  0  0  0
    1.9042   -2.7542    0.0000 C   0  0  0  0  0  0  0  0  0  0  0  0
   -1.2583   -2.4167    0.0000 N   0  0  0  0  0  0  0  0  0  0  0  0
   -0.6458   -1.2917    0.0000 O   0  0  0  0  0  0  0  0  0  0  0  0
    4.9375   -2.4042    0.0000 C   0  0  0  0  0  0  0  0  0  0  0  0
    1.9167   -3.4500    0.0000 O   0  0  0  0  0  0  0  0  0  0  0  0
    5.5250   -2.7875    0.0000 C   0  0  0  0  0  0  0  0  0  0  0  0
    4.3250   -2.7417    0.0000 C   0  0  0  0  0  0  0  0  0  0  0  0
    3.7292   -2.4042    0.0000 C   0  0  0  0  0  0  0  0  0  0  0  0
    6.1667   -2.4167    0.0000 C   0  0  0  0  0  0  0  0  0  0  0  0
    5.5250   -3.5000    0.0000 C   0  0  0  0  0  0  0  0  0  0  0  0
    3.7292   -1.7542    0.0000 C   0  0  0  0  0  0  0  0  0  0  0  0
    6.7542   -2.7875    0.0000 C   0  0  0  0  0  0  0  0  0  0  0  0
    6.1500   -3.8417    0.0000 C   0  0  0  0  0  0  0  0  0  0  0  0
    6.7542   -3.5000    0.0000 C   0  0  0  0  0  0  0  0  0  0  0  0
  3  2  1  0
  4  2  1  0
  5  3  2  0
  6  2  2  0
  7  4  2  0
  8 10  2  0
  9 11  1  0
 10  6  1  0
 11 12  1  0
 12  5  1  0
 13  4  1  0
 14  6  1  0
 15 18  1  0
 12 16  1  6
 17 15  1  0
 18 19  1  0
 19  9  1  0
 20 17  2  0
 21 17  1  0
 19 22  1  6
 23 20  1  0
 24 21  2  0
 25 23  2  0
  8  5  1  0
 24 25  1  0
M  END
> <chembl_id>
CHEMBL1204165

> <chembl_pref_name>
DILEVALOL HYDROCHLORIDE
