
     RDKit          2D

 28 28  0  0  1  0  0  0  0  0999 V2000
   -3.6333   -0.2542    0.0000 C   0  0  0  0  0  0  0  0  0  0  0  0
   -2.1708   -0.7000    0.0000 C   0  0  0  0  0  0  0  0  0  0  0  0
   -1.3083   -0.9167    0.0000 C   0  0  0  0  0  0  0  0  0  0  0  0
   -3.5750   -1.1167    0.0000 C   0  0  0  0  0  0  0  0  0  0  0  0
   -2.8000    0.0708    0.0000 C   0  0  0  0  0  0  0  0  0  0  0  0
   -2.7125   -1.3667    0.0000 C   0  0  0  0  0  0  0  0  0  0  0  0
   -0.2000   -0.9167    0.0000 C   0  0  0  0  0  0  0  0  0  0  0  0
    2.3792    1.4125    0.0000 C   0  0  0  0  0  0  0  0  0  0  0  0
    1.4792   -1.0792    0.0000 C   0  0  0  0  0  0  0  0  0  0  0  0
   -4.2375   -0.0500    0.0000 O   0  0  0  0  0  0  0  0  0  0  0  0
    1.8542    0.9125    0.0000 C   0  0  0  0  0  0  0  0  0  0  0  0
    0.7000   -1.5667    0.0000 C   0  0  0  0  0  0  0  0  0  0  0  0
    3.1292    1.0500    0.0000 O   0  0  0  0  0  0  0  0  0  0  0  0
    1.0792    0.9125    0.0000 C   0  0  0  0  0  0  0  0  0  0  0  0
   -2.4958   -2.1167    0.0000 O   0  0  0  0  0  0  0  0  0  0  0  0
    2.3625    2.0458    0.0000 O   0  0  0  0  0  0  0  0  0  0  0  0
    1.4167   -2.1750    0.0000 O   0  0  0  0  0  0  0  0  0  0  0  0
   -2.1958    0.8125    0.0000 C   0  0  0  0  0  0  0  0  0  0  0  0
    2.3792   -0.6792    0.0000 C   0  0  0  0  0  0  0  0  0  0  0  0
    1.8292   -1.5417    0.0000 C   0  0  0  0  0  0  0  0  0  0  0  0
    1.2542   -0.5000    0.0000 C   0  0  0  0  0  0  0  0  0  0  0  0
    0.3375    0.3708    0.0000 C   0  0  0  0  0  0  0  0  0  0  0  0
    1.6250    2.4375    0.0000 C   0  0  0  0  0  0  0  0  0  0  0  0
   -1.2625    0.4458    0.0000 C   0  0  0  0  0  0  0  0  0  0  0  0
    3.2167   -0.9042    0.0000 C   0  0  0  0  0  0  0  0  0  0  0  0
   -0.5208    0.9500    0.0000 C   0  0  0  0  0  0  0  0  0  0  0  0
    3.4792   -1.7500    0.0000 C   0  0  0  0  0  0  0  0  0  0  0  0
    4.3417   -1.9667    0.0000 C   0  0  0  0  0  0  0  0  0  0  0  0
  2  5  1  0
  2  3  1  1
  4  1  1  0
  5  1  1  0
  6  4  1  0
  7  3  2  0
  8 11  1  0
  9 12  1  0
 10  1  2  0
 11 14  2  0
 12  7  1  0
 13  8  2  0
 14 22  1  0
  6 15  1  6
 16  8  1  0
 12 17  1  6
  5 18  1  6
 19  9  1  0
 20  9  1  0
 21  9  1  0
 22 26  1  0
 23 16  1  0
 24 18  1  0
 25 19  1  0
 26 24  1  0
 27 25  1  0
 28 27  1  0
  2  6  1  0
M  END
> <chembl_id>
CHEMBL1908315

> <chembl_pref_name>
GEMEPROST
