
     RDKit          2D

 29 30  0  0  0  0  0  0  0  0999 V2000
    5.0500    0.0125    0.0000 Cl  0  0  0  0  0  0  0  0  0  0  0  0
   -1.8000   -0.8625    0.0000 C   0  0  0  0  0  0  0  0  0  0  0  0
   -1.8000   -0.2167    0.0000 C   0  0  0  0  0  0  0  0  0  0  0  0
   -2.3250   -1.1750    0.0000 N   0  0  0  0  0  0  0  0  0  0  0  0
   -2.8458   -0.2542    0.0000 N   0  0  0  0  0  0  0  0  0  0  0  0
   -2.8458   -0.8625    0.0000 C   0  0  0  0  0  0  0  0  0  0  0  0
   -2.3250    0.0625    0.0000 C   0  0  0  0  0  0  0  0  0  0  0  0
   -1.1958   -1.0542    0.0000 N   0  0  0  0  0  0  0  0  0  0  0  0
   -1.1958   -0.0542    0.0000 N   0  0  0  0  0  0  0  0  0  0  0  0
   -0.8375   -0.5542    0.0000 C   0  0  0  0  0  0  0  0  0  0  0  0
    1.9792    0.5708    0.0000 C   0  0  0  0  0  0  0  0  0  0  0  0
   -3.3958   -1.1375    0.0000 O   0  0  0  0  0  0  0  0  0  0  0  0
   -2.3250    0.6833    0.0000 O   0  0  0  0  0  0  0  0  0  0  0  0
    2.5292    0.8708    0.0000 C   0  0  0  0  0  0  0  0  0  0  0  0
    1.9792   -0.0542    0.0000 C   0  0  0  0  0  0  0  0  0  0  0  0
    3.0500    0.5583    0.0000 C   0  0  0  0  0  0  0  0  0  0  0  0
    2.5167   -0.3792    0.0000 C   0  0  0  0  0  0  0  0  0  0  0  0
    3.0500   -0.0542    0.0000 C   0  0  0  0  0  0  0  0  0  0  0  0
   -2.3250   -1.7792    0.0000 C   0  0  0  0  0  0  0  0  0  0  0  0
   -3.3958    0.0375    0.0000 C   0  0  0  0  0  0  0  0  0  0  0  0
    1.4542    0.8708    0.0000 C   0  0  0  0  0  0  0  0  0  0  0  0
   -1.1958    0.5750    0.0000 C   0  0  0  0  0  0  0  0  0  0  0  0
    0.4000    0.8708    0.0000 N   0  0  0  0  0  0  0  0  0  0  0  0
    3.5667    0.8708    0.0000 O   0  0  0  0  0  0  0  0  0  0  0  0
    2.5167   -0.9917    0.0000 O   0  0  0  0  0  0  0  0  0  0  0  0
    1.4542    1.4958    0.0000 O   0  0  0  0  0  0  0  0  0  0  0  0
   -0.6750    0.8708    0.0000 C   0  0  0  0  0  0  0  0  0  0  0  0
    0.9167    0.5750    0.0000 C   0  0  0  0  0  0  0  0  0  0  0  0
   -0.1250    0.5750    0.0000 C   0  0  0  0  0  0  0  0  0  0  0  0
  3  2  2  0
  4  2  1  0
  5  6  1  0
  6  4  1  0
  7  3  1  0
  8  2  1  0
  9  3  1  0
 10  8  2  0
 11 21  1  0
 12  6  2  0
 13  7  2  0
 14 11  2  0
 15 11  1  0
 16 14  1  0
 17 15  2  0
 18 17  1  0
 19  4  1  0
 20  5  1  0
 21 28  1  0
 22  9  1  0
 23 29  1  0
 24 16  1  0
 25 17  1  0
 26 21  1  0
 27 22  1  0
 28 23  1  0
 29 27  1  0
  9 10  1  0
  7  5  1  0
 16 18  2  0
M  END
> <chembl_id>
CHEMBL2104771

> <chembl_pref_name>
REPROTEROL HYDROCHLORIDE
