
     RDKit          2D

 39 38  0  0  0  0  0  0  0  0999 V2000
   -5.0042    0.7792    0.0000 C   0  0  0  0  0  0  0  0  0  0  0  0
    5.0000    0.7792    0.0000 C   0  0  0  0  0  0  0  0  0  0  0  0
    4.2833    0.3667    0.0000 C   0  0  0  0  0  0  0  0  0  0  0  0
   -4.2875    0.3667    0.0000 C   0  0  0  0  0  0  0  0  0  0  0  0
   -5.0042    1.6042    0.0000 N   0  0  0  0  0  0  0  0  0  0  0  0
    5.0000    1.6042    0.0000 N   0  0  0  0  0  0  0  0  0  0  0  0
   -3.5750    0.7792    0.0000 C   0  0  0  0  0  0  0  0  0  0  0  0
    4.2833   -0.4583    0.0000 C   0  0  0  0  0  0  0  0  0  0  0  0
    3.5708    0.7792    0.0000 C   0  0  0  0  0  0  0  0  0  0  0  0
   -4.2875   -0.4583    0.0000 C   0  0  0  0  0  0  0  0  0  0  0  0
   -5.7167    0.3667    0.0000 N   0  0  0  0  0  0  0  0  0  0  0  0
    5.7125    0.3667    0.0000 N   0  0  0  0  0  0  0  0  0  0  0  0
   -2.8583   -0.4583    0.0000 C   0  0  0  0  0  0  0  0  0  0  0  0
    2.8542   -0.4583    0.0000 C   0  0  0  0  0  0  0  0  0  0  0  0
    2.8542    0.3667    0.0000 C   0  0  0  0  0  0  0  0  0  0  0  0
   -2.8583    0.3667    0.0000 C   0  0  0  0  0  0  0  0  0  0  0  0
   -3.5750   -0.8708    0.0000 C   0  0  0  0  0  0  0  0  0  0  0  0
    3.5708   -0.8708    0.0000 C   0  0  0  0  0  0  0  0  0  0  0  0
    2.1417   -0.8708    0.0000 O   0  0  0  0  0  0  0  0  0  0  0  0
   -2.1458   -0.8708    0.0000 O   0  0  0  0  0  0  0  0  0  0  0  0
   -1.4292   -0.4583    0.0000 C   0  0  0  0  0  0  0  0  0  0  0  0
    1.4250   -0.4583    0.0000 C   0  0  0  0  0  0  0  0  0  0  0  0
    0.7125   -0.8708    0.0000 C   0  0  0  0  0  0  0  0  0  0  0  0
   -0.7167   -0.8708    0.0000 C   0  0  0  0  0  0  0  0  0  0  0  0
    0.0000   -0.4583    0.0000 C   0  0  0  0  0  0  0  0  0  0  0  0
    1.0000   -4.4167    0.0000 S   0  0  0  0  0  0  0  0  0  0  0  0
    1.0042   -3.5917    0.0000 C   0  0  0  0  0  0  0  0  0  0  0  0
    0.1750   -4.4125    0.0000 O   0  0  0  0  0  0  0  0  0  0  0  0
    1.8250   -4.4208    0.0000 O   0  0  0  0  0  0  0  0  0  0  0  0
    0.9958   -5.2417    0.0000 O   0  0  0  0  0  0  0  0  0  0  0  0
    1.7250   -2.3583    0.0000 O   0  0  0  0  0  0  0  0  0  0  0  0
    1.7208   -3.1833    0.0000 C   0  0  0  0  0  0  0  0  0  0  0  0
   -2.2083   -4.4750    0.0000 S   0  0  0  0  0  0  0  0  0  0  0  0
   -2.2083   -3.6500    0.0000 C   0  0  0  0  0  0  0  0  0  0  0  0
   -1.3833   -4.4750    0.0000 O   0  0  0  0  0  0  0  0  0  0  0  0
   -3.0333   -4.4750    0.0000 O   0  0  0  0  0  0  0  0  0  0  0  0
   -2.2083   -5.3000    0.0000 O   0  0  0  0  0  0  0  0  0  0  0  0
   -1.4958   -2.4125    0.0000 O   0  0  0  0  0  0  0  0  0  0  0  0
   -1.4958   -3.2375    0.0000 C   0  0  0  0  0  0  0  0  0  0  0  0
  2  3  1  0
  3  9  1  0
  4  1  1  0
  5  1  2  0
  6  2  2  0
  7  4  2  0
  8 18  1  0
  9 15  2  0
 10  4  1  0
 11  1  1  0
 12  2  1  0
 13 16  2  0
 14 19  1  0
 15 14  1  0
 16  7  1  0
 17 10  2  0
 18 14  2  0
 19 22  1  0
 20 13  1  0
 21 20  1  0
 22 23  1  0
 23 25  1  0
 24 21  1  0
 25 24  1  0
 13 17  1  0
  3  8  2  0
 27 26  1  0
 28 26  2  0
 29 26  2  0
 30 26  1  0
 31 32  1  0
 32 27  1  0
 34 33  1  0
 35 33  2  0
 36 33  2  0
 37 33  1  0
 38 39  1  0
 39 34  1  0
M  END
> <chembl_id>
CHEMBL361506

> <chembl_pref_name>
PENTAMIDINE ISETHIONATE
