
     RDKit          2D

 18 17  0  0  0  0  0  0  0  0999 V2000
    6.2417   -4.2792    0.0000 C   0  0  0  0  0  0  0  0  0  0  0  0
    6.2417   -3.5667    0.0000 O   0  0  0  0  0  0  0  0  0  0  0  0
    6.8667   -4.6292    0.0000 O   0  0  0  0  0  0  0  0  0  0  0  0
    5.6167   -4.6042    0.0000 C   0  0  0  0  0  0  0  0  0  0  0  0
    3.6167   -3.4667    0.0000 C   0  0  0  0  0  0  0  0  0  0  0  0
    5.4500   -2.3125    0.0000 C   0  0  0  0  0  0  0  0  0  0  0  0
    4.2375   -2.3667    0.0000 N   0  0  0  0  0  0  0  0  0  0  0  0
    5.4500   -3.0250    0.0000 N   0  0  0  0  0  0  0  0  0  0  0  0
    3.0125   -3.1042    0.0000 C   0  0  0  0  0  0  0  0  0  0  0  0
    3.6167   -4.1750    0.0000 C   0  0  0  0  0  0  0  0  0  0  0  0
    4.8375   -1.9917    0.0000 N   0  0  0  0  0  0  0  0  0  0  0  0
    4.2375   -3.1000    0.0000 C   0  0  0  0  0  0  0  0  0  0  0  0
    6.0417   -1.9542    0.0000 N   0  0  0  0  0  0  0  0  0  0  0  0
    3.0125   -2.3917    0.0000 Cl  0  0  0  0  0  0  0  0  0  0  0  0
    4.2375   -4.5292    0.0000 Cl  0  0  0  0  0  0  0  0  0  0  0  0
    2.3917   -4.1667    0.0000 C   0  0  0  0  0  0  0  0  0  0  0  0
    3.0125   -4.5292    0.0000 C   0  0  0  0  0  0  0  0  0  0  0  0
    2.3917   -3.4667    0.0000 C   0  0  0  0  0  0  0  0  0  0  0  0
  2  1  2  0
  3  1  1  0
  4  1  1  0
  6 11  1  0
  7 12  2  0
  8  6  2  0
  9  5  2  0
 10  5  1  0
 11  7  1  0
 12  5  1  0
 13  6  1  0
 14  9  1  0
 15 10  1  0
 16 17  1  0
 17 10  2  0
 18  9  1  0
 16 18  2  0
M  END
> <chembl_id>
CHEMBL1200560

> <chembl_pref_name>
GUANABENZ ACETATE
