
     RDKit          2D

 13 14  0  0  0  0  0  0  0  0999 V2000
   -0.7583   -2.1625    0.0000 N   0  0  0  0  0  0  0  0  0  0  0  0
    0.0792   -1.6792    0.0000 C   0  0  0  0  0  0  0  0  0  0  0  0
   -1.5958   -1.6792    0.0000 C   0  0  0  0  0  0  0  0  0  0  0  0
   -2.4333   -2.1625    0.0000 C   0  0  0  0  0  0  0  0  0  0  0  0
    0.0792   -0.7167    0.0000 N   0  0  0  0  0  0  0  0  0  0  0  0
   -0.7583   -3.1167    0.0000 C   0  0  0  0  0  0  0  0  0  0  0  0
   -2.4333   -3.1167    0.0000 C   0  0  0  0  0  0  0  0  0  0  0  0
   -1.5958   -3.5917    0.0000 C   0  0  0  0  0  0  0  0  0  0  0  0
    0.9167   -2.1792    0.0000 N   0  0  0  0  0  0  0  0  0  0  0  0
   -3.2708   -1.6792    0.0000 C   0  0  0  0  0  0  0  0  0  0  0  0
   -3.2708   -3.5917    0.0000 C   0  0  0  0  0  0  0  0  0  0  0  0
   -4.1083   -2.1625    0.0000 C   0  0  0  0  0  0  0  0  0  0  0  0
   -4.1083   -3.1167    0.0000 C   0  0  0  0  0  0  0  0  0  0  0  0
  2  1  1  0
  3  1  1  0
  4  3  1  0
  5  2  2  0
  6  1  1  0
  7  8  1  0
  8  6  1  0
  9  2  1  0
 10  4  1  0
 11  7  1  0
 12 10  2  0
 13 11  2  0
  4  7  2  0
 12 13  1  0
M  END
> <chembl_id>
CHEMBL169901

> <chembl_pref_name>
DEBRISOQUIN
