
     RDKit          2D

 25 25  0  0  0  0  0  0  0  0999 V2000
    0.6167   -5.3542    0.0000 N   0  0  0  0  0  0  0  0  0  0  0  0
    2.4542   -4.9917    0.0000 O   0  0  0  0  0  0  0  0  0  0  0  0
   -1.2125   -4.9917    0.0000 O   0  0  0  0  0  0  0  0  0  0  0  0
    0.0125   -4.9917    0.0000 C   0  0  0  0  0  0  0  0  0  0  0  0
    1.2292   -4.9917    0.0000 C   0  0  0  0  0  0  0  0  0  0  0  0
   -0.5958   -5.3542    0.0000 C   0  0  0  0  0  0  0  0  0  0  0  0
    1.8542   -5.3542    0.0000 C   0  0  0  0  0  0  0  0  0  0  0  0
    0.4000   -2.9542    0.0000 S   0  0  0  0  0  0  0  0  0  0  0  0
    1.6250   -2.9458    0.0000 C   0  0  0  0  0  0  0  0  0  0  0  0
    1.0125   -2.5958    0.0000 N   0  0  0  0  0  0  0  0  0  0  0  0
    1.8417   -3.6208    0.0000 C   0  0  0  0  0  0  0  0  0  0  0  0
    2.7708   -2.9458    0.0000 N   0  0  0  0  0  0  0  0  0  0  0  0
    2.1958   -2.5292    0.0000 O   0  0  0  0  0  0  0  0  0  0  0  0
    2.5500   -3.6208    0.0000 C   0  0  0  0  0  0  0  0  0  0  0  0
   -0.2167   -2.6000    0.0000 C   0  0  0  0  0  0  0  0  0  0  0  0
    0.7500   -3.5667    0.0000 O   0  0  0  0  0  0  0  0  0  0  0  0
    0.0417   -3.5667    0.0000 O   0  0  0  0  0  0  0  0  0  0  0  0
   -0.8292   -2.9542    0.0000 C   0  0  0  0  0  0  0  0  0  0  0  0
   -0.2167   -1.8875    0.0000 C   0  0  0  0  0  0  0  0  0  0  0  0
    1.2250   -3.9667    0.0000 C   0  0  0  0  0  0  0  0  0  0  0  0
   -1.4417   -1.8875    0.0000 C   0  0  0  0  0  0  0  0  0  0  0  0
   -2.0542   -1.5333    0.0000 N   0  0  0  0  0  0  0  0  0  0  0  0
   -1.4417   -2.6000    0.0000 C   0  0  0  0  0  0  0  0  0  0  0  0
   -0.8292   -1.5333    0.0000 C   0  0  0  0  0  0  0  0  0  0  0  0
    3.1625   -3.9750    0.0000 C   0  0  0  0  0  0  0  0  0  0  0  0
  2  7  1  0
  3  6  1  0
  4  1  1  0
  5  1  1  0
  6  4  1  0
  7  5  1  0
  9 10  1  0
 10  8  1  0
 11  9  2  0
 12 13  1  0
 13  9  1  0
 14 11  1  0
 15  8  1  0
 16  8  2  0
 17  8  2  0
 18 15  2  0
 19 15  1  0
 20 11  1  0
 21 24  1  0
 22 21  1  0
 23 18  1  0
 24 19  2  0
 25 14  1  0
 23 21  2  0
 12 14  2  0
M  END
> <chembl_id>
CHEMBL1200321

> <chembl_pref_name>
SULFISOXAZOLE DIOLAMINE
