
     RDKit          2D

 19 20  0  0  0  0  0  0  0  0999 V2000
    4.8292   -4.9292    0.0000 C   0  0  0  0  0  0  0  0  0  0  0  0
    5.5375   -4.9292    0.0000 C   0  0  0  0  0  0  0  0  0  0  0  0
    4.4375   -5.5667    0.0000 C   0  0  0  0  0  0  0  0  0  0  0  0
    4.4542   -4.3167    0.0000 C   0  0  0  0  0  0  0  0  0  0  0  0
    3.3917   -3.7250    0.0000 N   0  0  0  0  0  0  0  0  0  0  0  0
    5.8917   -4.3375    0.0000 C   0  0  0  0  0  0  0  0  0  0  0  0
    3.7292   -5.5667    0.0000 C   0  0  0  0  0  0  0  0  0  0  0  0
    4.8125   -6.1792    0.0000 C   0  0  0  0  0  0  0  0  0  0  0  0
    6.6000   -4.3375    0.0000 N   0  0  0  0  0  0  0  0  0  0  0  0
    3.7292   -6.7917    0.0000 C   0  0  0  0  0  0  0  0  0  0  0  0
    4.4375   -6.7917    0.0000 C   0  0  0  0  0  0  0  0  0  0  0  0
    3.3792   -6.1792    0.0000 C   0  0  0  0  0  0  0  0  0  0  0  0
    3.3792   -7.4250    0.0000 Br  0  0  0  0  0  0  0  0  0  0  0  0
    3.7500   -4.3167    0.0000 C   0  0  0  0  0  0  0  0  0  0  0  0
    3.7500   -3.1167    0.0000 C   0  0  0  0  0  0  0  0  0  0  0  0
    4.8292   -3.7250    0.0000 C   0  0  0  0  0  0  0  0  0  0  0  0
    6.9500   -3.7417    0.0000 C   0  0  0  0  0  0  0  0  0  0  0  0
    6.9500   -4.9542    0.0000 C   0  0  0  0  0  0  0  0  0  0  0  0
    4.4542   -3.1042    0.0000 C   0  0  0  0  0  0  0  0  0  0  0  0
  2  1  2  0
  3  1  1  0
  4  1  1  0
  5 14  2  0
  6  2  1  0
  7  3  2  0
  8  3  1  0
  9  6  1  0
 10 11  1  0
 11  8  2  0
 12  7  1  0
 13 10  1  0
 14  4  1  0
 15 19  2  0
 16  4  2  0
 17  9  1  0
 18  9  1  0
 19 16  1  0
 12 10  2  0
  5 15  1  0
M  END
> <chembl_id>
CHEMBL37744

> <chembl_pref_name>
ZIMELDINE
