
     RDKit          2D

 32 35  0  0  1  0  0  0  0  0999 V2000
    2.7917   -6.9542    0.0000 C   0  0  0  0  0  0  0  0  0  0  0  0
    3.4417   -6.7417    0.0000 C   0  0  0  0  0  0  0  0  0  0  0  0
    2.7917   -7.6750    0.0000 C   0  0  0  0  0  0  0  0  0  0  0  0
    0.9542   -8.7375    0.0000 C   0  0  0  0  0  0  0  0  0  0  0  0
    2.1667   -8.0167    0.0000 C   0  0  0  0  0  0  0  0  0  0  0  0
    1.5542   -7.6750    0.0000 C   0  0  0  0  0  0  0  0  0  0  0  0
    0.9542   -8.0167    0.0000 C   0  0  0  0  0  0  0  0  0  0  0  0
    4.0542   -6.3875    0.0000 C   0  0  0  0  0  0  0  0  0  0  0  0
    0.3417   -9.0917    0.0000 C   0  0  0  0  0  0  0  0  0  0  0  0
    2.1667   -6.5917    0.0000 C   0  0  0  0  0  0  0  0  0  0  0  0
    3.4375   -6.0417    0.0000 O   0  0  0  0  0  0  0  0  0  0  0  0
    1.5542   -6.9542    0.0000 C   0  0  0  0  0  0  0  0  0  0  0  0
    3.4667   -7.8792    0.0000 C   0  0  0  0  0  0  0  0  0  0  0  0
    2.1667   -8.7375    0.0000 C   0  0  0  0  0  0  0  0  0  0  0  0
    4.6667   -6.0292    0.0000 C   0  0  0  0  0  0  0  0  0  0  0  0
    0.3417   -7.6750    0.0000 C   0  0  0  0  0  0  0  0  0  0  0  0
    3.7958   -5.4333    0.0000 C   0  0  0  0  0  0  0  0  0  0  0  0
    3.8750   -7.2875    0.0000 C   0  0  0  0  0  0  0  0  0  0  0  0
    1.5542   -9.0917    0.0000 C   0  0  0  0  0  0  0  0  0  0  0  0
   -1.5250   -8.7208    0.0000 C   0  0  0  0  0  0  0  0  0  0  0  0
   -0.2833   -8.7375    0.0000 C   0  0  0  0  0  0  0  0  0  0  0  0
   -0.9083   -9.0917    0.0000 O   0  0  0  0  0  0  0  0  0  0  0  0
    3.4500   -4.8167    0.0000 O   0  0  0  0  0  0  0  0  0  0  0  0
   -1.4958   -8.0167    0.0000 O   0  0  0  0  0  0  0  0  0  0  0  0
   -0.2833   -8.0167    0.0000 C   0  0  0  0  0  0  0  0  0  0  0  0
    2.7917   -6.2250    0.0000 C   0  0  0  0  0  0  0  0  0  0  0  0
    4.5042   -5.4417    0.0000 C   0  0  0  0  0  0  0  0  0  0  0  0
   -2.1333   -9.0500    0.0000 C   0  0  0  0  0  0  0  0  0  0  0  0
    1.5542   -8.3750    0.0000 H   0  0  0  0  0  0  0  0  0  0  0  0
    0.9417   -7.2667    0.0000 H   0  0  0  0  0  0  0  0  0  0  0  0
    2.7917   -8.3042    0.0000 H   0  0  0  0  0  0  0  0  0  0  0  0
    2.1792   -7.2667    0.0000 H   0  0  0  0  0  0  0  0  0  0  0  0
  2  1  1  0
  3  1  1  0
  4  7  1  0
  5  3  1  0
  6  5  1  0
  7  6  1  0
  8  2  1  0
  9  4  2  0
 10  1  1  0
  2 11  1  1
 12 10  1  0
 13  3  1  0
 14  5  1  0
 15  8  3  0
 16  7  1  0
 17 11  1  0
 18  2  1  0
 19 14  1  0
 20 22  1  0
 21  9  1  0
 21 22  1  1
 23 17  2  0
 24 20  2  0
 25 16  1  0
  1 26  1  1
 27 17  1  0
 28 20  1  0
  6 29  1  6
  7 30  1  1
  3 31  1  6
  5 32  1  1
 18 13  1  0
 12  6  1  0
 19  4  1  0
 25 21  1  0
M  END
> <chembl_id>
CHEMBL1200624

> <chembl_pref_name>
ETHYNODIOL DIACETATE
