
     RDKit          2D

 12 11  0  0  0  0  0  0  0  0999 V2000
    3.4542    0.2833    0.0000 Cl  0  0  0  0  0  0  0  0  0  0  0  0
    2.2542    0.5083    0.0000 C   0  0  0  0  0  0  0  0  0  0  0  0
    1.6417    0.8583    0.0000 C   0  0  0  0  0  0  0  0  0  0  0  0
    2.8667    0.8625    0.0000 N   0  0  0  0  0  0  0  0  0  0  0  0
    1.0292    0.5000    0.0000 C   0  0  0  0  0  0  0  0  0  0  0  0
    2.6125   -0.1042    0.0000 C   0  0  0  0  0  0  0  0  0  0  0  0
    1.9042   -0.1042    0.0000 C   0  0  0  0  0  0  0  0  0  0  0  0
    0.4167    0.8583    0.0000 C   0  0  0  0  0  0  0  0  0  0  0  0
    1.0292   -0.2125    0.0000 C   0  0  0  0  0  0  0  0  0  0  0  0
   -0.1958    0.5000    0.0000 C   0  0  0  0  0  0  0  0  0  0  0  0
    0.4167   -0.5667    0.0000 C   0  0  0  0  0  0  0  0  0  0  0  0
   -0.1958   -0.2125    0.0000 C   0  0  0  0  0  0  0  0  0  0  0  0
  3  2  1  0
  4  2  1  0
  5  3  1  0
  6  2  1  0
  7  2  1  0
  8  5  2  0
  9  5  1  0
 10  8  1  0
 11  9  2  0
 12 10  2  0
 11 12  1  0
M  END
> <chembl_id>
CHEMBL1200912

> <chembl_pref_name>
PHENTERMINE HYDROCHLORIDE
