
     RDKit          2D

 71 80  0  0  0  0  0  0  0  0999 V2000
    2.3554    2.5501    0.0000 O   0  0  0  0  0  0  0  0  0  0  0  0
    3.0982    2.9092    0.0000 C   0  0  0  0  0  0  0  0  0  0  0  0
    3.7806    2.4455    0.0000 N   0  0  0  0  0  0  0  0  0  0  0  0
    2.4762    4.1957    0.0000 C   0  0  0  0  0  0  0  0  0  0  0  0
    3.1586    3.7320    0.0000 O   0  0  0  0  0  0  0  0  0  0  0  0
   11.9914   -5.3882    0.0000 N   0  0  0  0  0  0  0  0  0  0  0  0
   12.2463   -4.6036    0.0000 C   0  0  0  0  0  0  0  0  0  0  0  0
   11.7614   -3.9362    0.0000 C   0  0  0  0  0  0  0  0  0  0  0  0
   10.9409   -4.0224    0.0000 C   0  0  0  0  0  0  0  0  0  0  0  0
    9.6355   -3.2687    0.0000 C   0  0  0  0  0  0  0  0  0  0  0  0
    8.8150   -3.3550    0.0000 F   0  0  0  0  0  0  0  0  0  0  0  0
    9.6355   -4.0937    0.0000 F   0  0  0  0  0  0  0  0  0  0  0  0
    9.4640   -2.4618    0.0000 C   0  0  0  0  0  0  0  0  0  0  0  0
    8.7495   -2.0493    0.0000 C   0  0  0  0  0  0  0  0  0  0  0  0
    8.0350    0.0132    0.0000 C   0  0  0  0  0  0  0  0  0  0  0  0
    8.0350   -0.8118    0.0000 C   0  0  0  0  0  0  0  0  0  0  0  0
    7.3206    0.4257    0.0000 C   0  0  0  0  0  0  0  0  0  0  0  0
    6.6061    0.0132    0.0000 C   0  0  0  0  0  0  0  0  0  0  0  0
    5.8215    0.2682    0.0000 N   0  0  0  0  0  0  0  0  0  0  0  0
    6.6061   -0.8118    0.0000 C   0  0  0  0  0  0  0  0  0  0  0  0
    5.8215   -1.0667    0.0000 N   0  0  0  0  0  0  0  0  0  0  0  0
    7.3206   -1.2243    0.0000 C   0  0  0  0  0  0  0  0  0  0  0  0
    8.7495   -1.2243    0.0000 C   0  0  0  0  0  0  0  0  0  0  0  0
    9.4640   -0.8118    0.0000 C   0  0  0  0  0  0  0  0  0  0  0  0
   10.1785   -1.2243    0.0000 C   0  0  0  0  0  0  0  0  0  0  0  0
   10.7915   -2.6013    0.0000 C   0  0  0  0  0  0  0  0  0  0  0  0
   10.1785   -2.0493    0.0000 C   0  0  0  0  0  0  0  0  0  0  0  0
   11.6120   -2.5151    0.0000 C   0  0  0  0  0  0  0  0  0  0  0  0
   12.0970   -3.1825    0.0000 C   0  0  0  0  0  0  0  0  0  0  0  0
   13.0713   -4.6036    0.0000 C   0  0  0  0  0  0  0  0  0  0  0  0
   13.3263   -5.3882    0.0000 N   0  0  0  0  0  0  0  0  0  0  0  0
   10.4560   -3.3550    0.0000 C   0  0  0  0  0  0  0  0  0  0  0  0
    5.1453    1.5181    0.0000 O   0  0  0  0  0  0  0  0  0  0  0  0
    4.4025    1.1590    0.0000 C   0  0  0  0  0  0  0  0  0  0  0  0
    4.3421    0.3363    0.0000 N   0  0  0  0  0  0  0  0  0  0  0  0
    3.7202    1.6227    0.0000 C   0  0  0  0  0  0  0  0  0  0  0  0
    2.9774    1.2636    0.0000 C   0  0  0  0  0  0  0  0  0  0  0  0
    2.9170    0.4409    0.0000 C   0  0  0  0  0  0  0  0  0  0  0  0
    2.2951    1.7273    0.0000 C   0  0  0  0  0  0  0  0  0  0  0  0
   13.3263   -7.1831    0.0000 C   0  0  0  0  0  0  0  0  0  0  0  0
   13.0713   -7.9677    0.0000 C   0  0  0  0  0  0  0  0  0  0  0  0
   13.8250   -8.3033    0.0000 C   0  0  0  0  0  0  0  0  0  0  0  0
   13.1576   -8.7882    0.0000 C   0  0  0  0  0  0  0  0  0  0  0  0
   12.2463   -7.9677    0.0000 C   0  0  0  0  0  0  0  0  0  0  0  0
   11.9914   -7.1831    0.0000 N   0  0  0  0  0  0  0  0  0  0  0  0
   12.6588   -6.6982    0.0000 C   0  0  0  0  0  0  0  0  0  0  0  0
   11.2068   -6.9281    0.0000 C   0  0  0  0  0  0  0  0  0  0  0  0
   10.5937   -7.4802    0.0000 C   0  0  0  0  0  0  0  0  0  0  0  0
    9.8090   -7.2252    0.0000 N   0  0  0  0  0  0  0  0  0  0  0  0
   11.0352   -6.1212    0.0000 O   0  0  0  0  0  0  0  0  0  0  0  0
    4.3359   -1.1620    0.0000 C   0  0  0  0  0  0  0  0  0  0  0  0
    3.2349   -0.6847    0.0000 C   0  0  0  0  0  0  0  0  0  0  0  0
    4.0258   -0.4722    0.0000 C   0  0  0  0  0  0  0  0  0  0  0  0
    4.9996   -1.6619    0.0000 C   0  0  0  0  0  0  0  0  0  0  0  0
    4.5116   -0.3993    0.0000 C   0  0  0  0  0  0  0  0  0  0  0  0
    5.3366   -0.3993    0.0000 C   0  0  0  0  0  0  0  0  0  0  0  0
    9.1959   -7.7773    0.0000 C   0  0  0  0  0  0  0  0  0  0  0  0
    7.7982   -8.0744    0.0000 C   0  0  0  0  0  0  0  0  0  0  0  0
    8.4113   -7.5223    0.0000 O   0  0  0  0  0  0  0  0  0  0  0  0
    9.3675   -8.5842    0.0000 O   0  0  0  0  0  0  0  0  0  0  0  0
   10.7652   -8.2872    0.0000 C   0  0  0  0  0  0  0  0  0  0  0  0
   11.5498   -8.5421    0.0000 C   0  0  0  0  0  0  0  0  0  0  0  0
   12.6588   -5.8732    0.0000 C   0  0  0  0  0  0  0  0  0  0  0  0
   10.1521   -8.8392    0.0000 C   0  0  0  0  0  0  0  0  0  0  0  0
    9.9806   -8.0322    0.0000 H   0  0  0  0  0  0  0  0  0  0  0  0
   11.9237   -6.3236    0.0000 H   0  0  0  0  0  0  0  0  0  0  0  0
    5.0253    0.2463    0.0000 H   0  0  0  0  0  0  0  0  0  0  0  0
    4.6755   -1.9139    0.0000 H   0  0  0  0  0  0  0  0  0  0  0  0
    3.6523    0.2603    0.0000 H   0  0  0  0  0  0  0  0  0  0  0  0
    3.4331   -1.3472    0.0000 C   0  0  0  0  0  0  0  0  0  0  0  0
    3.6598    0.8000    0.0000 H   0  0  0  0  0  0  0  0  0  0  0  0
  1  2  2  0
  2  3  1  0
  2  5  1  0
  3 36  1  0
  5  4  1  0
  6  7  1  0
  7  8  1  0
  8  9  2  0
  8 29  1  0
  9 32  1  0
 10 11  1  0
 10 32  1  0
 12 10  1  0
 13 14  1  0
 13 10  1  0
 14 23  2  0
 15 16  1  0
 15 17  2  0
 16 22  2  0
 17 18  1  0
 18 20  2  0
 19 18  1  0
 20 21  1  0
 20 22  1  0
 21 56  2  0
 23 16  1  0
 23 24  1  0
 25 24  2  0
 25 27  1  0
 26 27  1  0
 27 13  2  0
 28 26  1  0
 29 28  2  0
 30  7  2  0
 31 30  1  0
 31 63  1  0
 32 26  2  0
 33 34  2  0
 34 35  1  0
 34 36  1  0
 36 37  1  0
 37 38  1  0
 37 39  1  0
 40 41  1  0
 41 42  1  0
 41 44  1  0
 42 43  1  0
 43 41  1  0
 44 45  1  0
 45 47  1  0
 46 45  1  0
 46 40  1  0
 47 50  2  0
 48 47  1  0
 49 48  1  0
 49 57  1  0
 53 35  1  0
 53 54  1  0
 54 51  1  0
 55 35  1  0
 55 51  1  0
 56 19  1  0
 55 56  1  0
 57 60  2  0
 59 58  1  0
 59 57  1  0
 61 62  1  0
 48 61  1  0
 63  6  2  0
 46 63  1  0
 61 64  1  0
 48 65  1  1
 46 66  1  1
 55 67  1  1
 51 68  1  1
 53 69  1  6
 51 70  1  0
 53 52  1  0
 70 52  1  0
 36 71  1  1
M  END
> <chembl_id>
CHEMBL2374220

> <chembl_pref_name>
LEDIPASVIR
