
     RDKit          2D

  9  8  0  0  0  0  0  0  0  0999 V2000
    2.4125   -0.5542    0.0000 C   0  0  0  0  0  0  0  0  0  0  0  0
    3.2167    0.6833    0.0000 O   0  0  0  0  0  0  0  0  0  0  0  0
   -1.8833   -0.5375    0.0000 C   0  0  0  0  0  0  0  0  0  0  0  0
   -3.3208   -0.5375    0.0000 C   0  0  0  0  0  0  0  0  0  0  0  0
    0.9750   -0.5542    0.0000 C   0  0  0  0  0  0  0  0  0  0  0  0
    3.0000   -1.8375    0.0000 O   0  0  0  0  0  0  0  0  0  0  0  0
   -1.8833    1.9333    0.0000 N   0  0  0  0  0  0  0  0  0  0  0  0
   -1.1500    0.6708    0.0000 C   0  0  0  0  0  0  0  0  0  0  0  0
    0.2542    0.6708    0.0000 C   0  0  0  0  0  0  0  0  0  0  0  0
  2  1  2  0
  3  8  1  0
  4  3  2  0
  5  1  1  0
  6  1  1  0
  7  8  1  0
  8  9  1  0
  9  5  1  0
M  END
> <chembl_id>
CHEMBL89598

> <chembl_pref_name>
VIGABATRIN
