
     RDKit          2D

 29 29  0  0  0  0  0  0  0  0999 V2000
    8.1125   -9.9042    0.0000 Na  0  0  0  0  0 15  0  0  0  0  0  0
    5.9875   -8.5167    0.0000 N   0  0  0  0  0  0  0  0  0  0  0  0
    5.9875   -7.8125    0.0000 C   0  0  0  0  0  0  0  0  0  0  0  0
    5.2750   -8.5250    0.0000 C   0  0  0  0  0  0  0  0  0  0  0  0
    5.2750   -7.8125    0.0000 C   0  0  0  0  0  0  0  0  0  0  0  0
    6.6625   -8.7375    0.0000 C   0  0  0  0  0  0  0  0  0  0  0  0
    6.6542   -7.5917    0.0000 S   0  0  0  0  0  0  0  0  0  0  0  0
    7.0792   -8.1625    0.0000 C   0  0  0  0  0  0  0  0  0  0  0  0
    4.0417   -7.8125    0.0000 C   0  0  0  0  0  0  0  0  0  0  0  0
    4.6542   -7.4542    0.0000 N   0  0  0  0  0  0  0  0  0  0  0  0
    3.4292   -7.4542    0.0000 C   0  0  0  0  0  0  0  0  0  0  0  0
    6.6542   -9.4417    0.0000 C   0  0  0  0  0  0  0  0  0  0  0  0
    3.4292   -6.7500    0.0000 C   0  0  0  0  0  0  0  0  0  0  0  0
    4.7750   -9.0250    0.0000 O   0  0  0  0  0  0  0  0  0  0  0  0
    4.0417   -8.5167    0.0000 O   0  0  0  0  0  0  0  0  0  0  0  0
    7.2667   -9.8042    0.0000 O   0  0  0  0  0  0  0  0  0  0  0  0
    2.8167   -6.3917    0.0000 O   0  0  0  0  0  0  0  0  0  0  0  0
    2.8167   -7.8125    0.0000 C   0  0  0  0  0  0  0  0  0  0  0  0
    6.0375   -9.7917    0.0000 O   0  0  0  0  0  0  0  0  0  0  0  0
    4.0417   -6.3917    0.0000 O   0  0  0  0  0  0  0  0  0  0  0  0
    7.6917   -7.8042    0.0000 C   0  0  0  0  0  0  0  0  0  0  0  0
    7.6917   -8.5125    0.0000 C   0  0  0  0  0  0  0  0  0  0  0  0
    2.2042   -7.4542    0.0000 C   0  0  0  0  0  0  0  0  0  0  0  0
    2.8167   -8.5125    0.0000 C   0  0  0  0  0  0  0  0  0  0  0  0
    2.2042   -8.8667    0.0000 C   0  0  0  0  0  0  0  0  0  0  0  0
    1.5917   -7.8042    0.0000 C   0  0  0  0  0  0  0  0  0  0  0  0
    1.5917   -8.5167    0.0000 C   0  0  0  0  0  0  0  0  0  0  0  0
    5.9792   -7.1042    0.0000 H   0  0  0  0  0  0  0  0  0  0  0  0
    1.9917   -6.3750    0.0000 Na  0  0  0  0  0 15  0  0  0  0  0  0
  3  2  1  0
  4  2  1  0
  5  4  1  0
  6  2  1  0
  7  3  1  0
  8  6  1  0
  9 10  1  0
  5 10  1  1
 11  9  1  0
  6 12  1  6
 13 11  1  0
 14  4  2  0
 15  9  2  0
 16 12  1  0
 17 13  1  0
 18 11  1  0
 19 12  2  0
 20 13  2  0
 21  8  1  0
 22  8  1  0
 23 18  2  0
 24 18  1  0
 25 24  2  0
 26 23  1  0
 27 25  1  0
  3 28  1  6
  7  8  1  0
  5  3  1  0
 27 26  2  0
M  CHG  4   1   1  16  -1  17  -1  29   1
M  END
> <chembl_id>
CHEMBL606260

> <chembl_pref_name>
CARBENICILLIN DISODIUM
