
     RDKit          2D

 15 16  0  0  0  0  0  0  0  0999 V2000
    6.0750   -4.5042    0.0000 N   0  0  0  0  0  0  0  0  0  0  0  0
    6.3042   -5.1875    0.0000 C   0  0  0  0  0  0  0  0  0  0  0  0
    5.3667   -4.5042    0.0000 C   0  0  0  0  0  0  0  0  0  0  0  0
    5.7292   -5.6042    0.0000 N   0  0  0  0  0  0  0  0  0  0  0  0
    5.1542   -5.1875    0.0000 C   0  0  0  0  0  0  0  0  0  0  0  0
    6.9792   -5.4000    0.0000 O   0  0  0  0  0  0  0  0  0  0  0  0
    4.9542   -3.9375    0.0000 O   0  0  0  0  0  0  0  0  0  0  0  0
    4.5292   -5.5375    0.0000 C   0  0  0  0  0  0  0  0  0  0  0  0
    6.4917   -3.9292    0.0000 C   0  0  0  0  0  0  0  0  0  0  0  0
    3.9250   -5.1792    0.0000 C   0  0  0  0  0  0  0  0  0  0  0  0
    4.5292   -6.2417    0.0000 C   0  0  0  0  0  0  0  0  0  0  0  0
    6.2042   -3.2875    0.0000 C   0  0  0  0  0  0  0  0  0  0  0  0
    3.3042   -5.5292    0.0000 C   0  0  0  0  0  0  0  0  0  0  0  0
    3.9042   -6.6000    0.0000 C   0  0  0  0  0  0  0  0  0  0  0  0
    3.3000   -6.2375    0.0000 C   0  0  0  0  0  0  0  0  0  0  0  0
  2  1  1  0
  3  1  1  0
  4  2  1  0
  5  3  1  0
  6  2  2  0
  7  3  2  0
  8  5  1  0
  9  1  1  0
 10  8  2  0
 11  8  1  0
 12  9  1  0
 13 10  1  0
 14 11  2  0
 15 14  1  0
  4  5  1  0
 15 13  2  0
M  END
> <chembl_id>
CHEMBL1095

> <chembl_pref_name>
ETHOTOIN
