
     RDKit          2D

 40 44  0  0  0  0  0  0  0  0999 V2000
    1.2602   -2.6079    0.0000 C   0  0  0  0  0  0  0  0  0  0  0  0
    0.4340   -2.6079    0.0000 C   0  0  0  0  0  0  0  0  0  0  0  0
    0.1797   -3.3915    0.0000 C   0  0  0  0  0  0  0  0  0  0  0  0
    0.8495   -3.8833    0.0000 O   0  0  0  0  0  0  0  0  0  0  0  0
    1.5192   -3.3915    0.0000 C   0  0  0  0  0  0  0  0  0  0  0  0
    2.2352   -3.8070    0.0000 C   0  0  0  0  0  0  0  0  0  0  0  0
    2.2338   -4.6360    0.0000 C   0  0  0  0  0  0  0  0  0  0  0  0
    2.9517   -5.0470    0.0000 C   0  0  0  0  0  0  0  0  0  0  0  0
    2.9496   -3.3912    0.0000 C   0  0  0  0  0  0  0  0  0  0  0  0
    3.6583   -3.8027    0.0000 C   0  0  0  0  0  0  0  0  0  0  0  0
    3.6594   -4.6317    0.0000 C   0  0  0  0  0  0  0  0  0  0  0  0
    4.3775   -5.0409    0.0000 N   0  0  0  0  0  0  0  0  0  0  0  0
    5.0945   -4.6272    0.0000 C   0  0  0  0  0  0  0  0  0  0  0  0
    5.0893   -3.7951    0.0000 N   0  0  0  0  0  0  0  0  0  0  0  0
    4.3709   -3.3848    0.0000 C   0  0  0  0  0  0  0  0  0  0  0  0
    4.3661   -2.5587    0.0000 N   0  0  0  0  0  0  0  0  0  0  0  0
    5.0797   -2.1438    0.0000 C   0  0  0  0  0  0  0  0  0  0  0  0
    5.7943   -2.5532    0.0000 C   0  0  0  0  0  0  0  0  0  0  0  0
    6.5075   -2.1392    0.0000 C   0  0  0  0  0  0  0  0  0  0  0  0
    6.5031   -1.3121    0.0000 C   0  0  0  0  0  0  0  0  0  0  0  0
    5.7796   -0.9011    0.0000 C   0  0  0  0  0  0  0  0  0  0  0  0
    5.0693   -1.3223    0.0000 C   0  0  0  0  0  0  0  0  0  0  0  0
    7.2162   -0.8915    0.0000 O   0  0  0  0  0  0  0  0  0  0  0  0
    7.9354   -1.3019    0.0000 C   0  0  0  0  0  0  0  0  0  0  0  0
    8.6436   -0.8813    0.0000 C   0  0  0  0  0  0  0  0  0  0  0  0
    5.7719   -0.0749    0.0000 Cl  0  0  0  0  0  0  0  0  0  0  0  0
    9.3606   -1.2940    0.0000 C   0  0  0  0  0  0  0  0  0  0  0  0
   10.0731   -0.8742    0.0000 C   0  0  0  0  0  0  0  0  0  0  0  0
   10.0677   -0.0472    0.0000 C   0  0  0  0  0  0  0  0  0  0  0  0
    9.3437    0.3582    0.0000 C   0  0  0  0  0  0  0  0  0  0  0  0
    8.6340   -0.0593    0.0000 C   0  0  0  0  0  0  0  0  0  0  0  0
   10.7920   -1.2849    0.0000 F   0  0  0  0  0  0  0  0  0  0  0  0
   -0.5410   -3.7974    0.0000 C   0  0  0  0  0  0  0  0  0  0  0  0
   -1.2518   -3.3728    0.0000 N   0  0  0  0  0  0  0  0  0  0  0  0
   -1.9684   -3.7790    0.0000 C   0  0  0  0  0  0  0  0  0  0  0  0
   -2.6792   -3.3544    0.0000 C   0  0  0  0  0  0  0  0  0  0  0  0
   -3.4005   -3.7605    0.0000 S   0  0  0  0  0  0  0  0  0  0  0  0
   -4.1113   -3.3359    0.0000 C   0  0  0  0  0  0  0  0  0  0  0  0
   -2.9954   -4.4689    0.0000 O   0  0  0  0  0  0  0  0  0  0  0  0
   -3.8215   -4.4689    0.0000 O   0  0  0  0  0  0  0  0  0  0  0  0
 16 17  1  0
 37 39  2  0
 37 40  2  0
 17 18  2  0
  7  8  1  0
 18 19  1  0
  8 11  2  0
 19 20  2  0
 20 21  1  0
 10  9  2  0
 21 22  2  0
 22 17  1  0
  9  6  1  0
 20 23  1  0
  1  2  1  0
 23 24  1  0
  2  3  2  0
 24 25  1  0
 10 11  1  0
 21 26  1  0
  3  4  1  0
 25 27  2  0
 11 12  1  0
 27 28  1  0
  4  5  1  0
 28 29  2  0
 12 13  2  0
 29 30  1  0
  5  1  2  0
 30 31  2  0
 31 25  1  0
 13 14  1  0
 28 32  1  0
  6  5  1  0
  3 33  1  0
 14 15  2  0
 33 34  1  0
 15 10  1  0
 34 35  1  0
 35 36  1  0
 15 16  1  0
 36 37  1  0
  6  7  2  0
 37 38  1  0
M  END
> <chembl_id>
CHEMBL554

> <chembl_pref_name>
LAPATINIB
