
     RDKit          2D

 20 19  0  0  0  0  0  0  0  0999 V2000
   -0.1458   -2.1417    0.0000 C   0  0  0  0  0  0  0  0  0  0  0  0
   -0.7583   -2.4917    0.0000 C   0  0  0  0  0  0  0  0  0  0  0  0
    0.4667   -2.5000    0.0000 C   0  0  0  0  0  0  0  0  0  0  0  0
   -1.3708   -2.1417    0.0000 C   0  0  0  0  0  0  0  0  0  0  0  0
    1.0792   -2.1500    0.0000 C   0  0  0  0  0  0  0  0  0  0  0  0
   -1.9833   -2.4917    0.0000 C   0  0  0  0  0  0  0  0  0  0  0  0
   -1.1125   -3.1042    0.0000 F   0  0  0  0  0  0  0  0  0  0  0  0
   -0.4083   -3.1042    0.0000 F   0  0  0  0  0  0  0  0  0  0  0  0
    0.2042   -1.5292    0.0000 F   0  0  0  0  0  0  0  0  0  0  0  0
   -0.5000   -1.5292    0.0000 F   0  0  0  0  0  0  0  0  0  0  0  0
   -1.7250   -1.5292    0.0000 F   0  0  0  0  0  0  0  0  0  0  0  0
    0.1125   -3.1042    0.0000 F   0  0  0  0  0  0  0  0  0  0  0  0
    0.8167   -3.1042    0.0000 F   0  0  0  0  0  0  0  0  0  0  0  0
   -1.0208   -1.5292    0.0000 F   0  0  0  0  0  0  0  0  0  0  0  0
    0.7250   -1.5375    0.0000 F   0  0  0  0  0  0  0  0  0  0  0  0
   -2.3375   -3.1000    0.0000 F   0  0  0  0  0  0  0  0  0  0  0  0
   -1.6333   -3.1000    0.0000 F   0  0  0  0  0  0  0  0  0  0  0  0
    1.4292   -1.5375    0.0000 F   0  0  0  0  0  0  0  0  0  0  0  0
   -2.5958   -2.1375    0.0000 F   0  0  0  0  0  0  0  0  0  0  0  0
    1.6917   -2.5042    0.0000 F   0  0  0  0  0  0  0  0  0  0  0  0
  2  1  1  0
  3  1  1  0
  4  2  1  0
  5  3  1  0
  6  4  1  0
  7  2  1  0
  8  2  1  0
  9  1  1  0
 10  1  1  0
 11  4  1  0
 12  3  1  0
 13  3  1  0
 14  4  1  0
 15  5  1  0
 16  6  1  0
 17  6  1  0
 18  5  1  0
 19  6  1  0
 20  5  1  0
M  END
> <chembl_id>
CHEMBL1200607

> <chembl_pref_name>
PERFLEXANE
