
     RDKit          2D

 36 37  0  0  0  0  0  0  0  0999 V2000
    7.5417   -7.0417    0.0000 Cl  0  0  0  0  0  0  0  0  0  0  0  0
    3.8167   -3.9417    0.0000 C   0  0  0  0  0  0  0  0  0  0  0  0
    2.5875   -3.9542    0.0000 C   0  0  0  0  0  0  0  0  0  0  0  0
    3.2042   -4.3042    0.0000 C   0  0  0  0  0  0  0  0  0  0  0  0
    3.8167   -3.2292    0.0000 C   0  0  0  0  0  0  0  0  0  0  0  0
    2.5875   -3.2292    0.0000 C   0  0  0  0  0  0  0  0  0  0  0  0
    3.2042   -2.8667    0.0000 N   0  0  0  0  0  0  0  0  0  0  0  0
    4.4667   -6.4417    0.0000 N   0  0  0  0  0  0  0  0  0  0  0  0
    3.2042   -5.0125    0.0000 C   0  0  0  0  0  0  0  0  0  0  0  0
    4.4667   -4.3042    0.0000 C   0  0  0  0  0  0  0  0  0  0  0  0
    1.9792   -4.3167    0.0000 C   0  0  0  0  0  0  0  0  0  0  0  0
    3.8042   -6.0750    0.0000 C   0  0  0  0  0  0  0  0  0  0  0  0
    3.8167   -5.3542    0.0000 C   0  0  0  0  0  0  0  0  0  0  0  0
    4.4542   -7.1667    0.0000 O   0  0  0  0  0  0  0  0  0  0  0  0
    4.9542   -6.1667    0.0000 O   0  0  0  0  0  0  0  0  0  0  0  0
    1.9667   -5.0292    0.0000 O   0  0  0  0  0  0  0  0  0  0  0  0
    4.4542   -5.0125    0.0000 O   0  0  0  0  0  0  0  0  0  0  0  0
    6.9250   -4.2375    0.0000 N   0  0  0  0  0  0  0  0  0  0  0  0
    5.0542   -3.9292    0.0000 O   0  0  0  0  0  0  0  0  0  0  0  0
    7.5417   -3.8542    0.0000 C   0  0  0  0  0  0  0  0  0  0  0  0
    1.3625   -3.9667    0.0000 O   0  0  0  0  0  0  0  0  0  0  0  0
    1.9500   -2.8542    0.0000 C   0  0  0  0  0  0  0  0  0  0  0  0
    4.4375   -2.8542    0.0000 C   0  0  0  0  0  0  0  0  0  0  0  0
    2.5875   -5.3625    0.0000 C   0  0  0  0  0  0  0  0  0  0  0  0
    8.1625   -4.1875    0.0000 C   0  0  0  0  0  0  0  0  0  0  0  0
    5.6917   -4.2667    0.0000 C   0  0  0  0  0  0  0  0  0  0  0  0
    3.2042   -6.4375    0.0000 C   0  0  0  0  0  0  0  0  0  0  0  0
    2.5875   -6.0750    0.0000 C   0  0  0  0  0  0  0  0  0  0  0  0
    6.3042   -3.9000    0.0000 C   0  0  0  0  0  0  0  0  0  0  0  0
    6.9250   -4.9375    0.0000 C   0  0  0  0  0  0  0  0  0  0  0  0
    0.7542   -4.3042    0.0000 C   0  0  0  0  0  0  0  0  0  0  0  0
    8.1750   -4.9042    0.0000 C   0  0  0  0  0  0  0  0  0  0  0  0
    8.7667   -3.8250    0.0000 C   0  0  0  0  0  0  0  0  0  0  0  0
    8.7792   -5.2542    0.0000 C   0  0  0  0  0  0  0  0  0  0  0  0
    9.3792   -4.1625    0.0000 C   0  0  0  0  0  0  0  0  0  0  0  0
    9.3917   -4.8667    0.0000 C   0  0  0  0  0  0  0  0  0  0  0  0
  3  4  1  0
  4  2  1  0
  5  2  2  0
  6  7  1  0
  7  5  1  0
  8 12  1  0
  9  4  1  0
 10  2  1  0
 11  3  1  0
 12 13  1  0
 13  9  2  0
 14  8  1  0
 15  8  2  0
 16 11  2  0
 17 10  2  0
 18 29  1  0
 19 10  1  0
 20 18  1  0
 21 11  1  0
 22  6  1  0
 23  5  1  0
 24  9  1  0
 25 20  1  0
 26 19  1  0
 27 28  1  0
 28 24  2  0
 29 26  1  0
 30 18  1  0
 31 21  1  0
 32 25  1  0
 33 25  2  0
 34 32  2  0
 35 33  1  0
 36 34  1  0
  6  3  2  0
 27 12  2  0
 36 35  2  0
M  CHG  2   8   1  14  -1
M  END
> <chembl_id>
CHEMBL1200326

> <chembl_pref_name>
NICARDIPINE HYDROCHLORIDE
