
     RDKit          2D

 34 33  0  0  0  0  0  0  0  0999 V2000
    5.8929   -9.0161    0.0000 O   0  0  0  0  0  0  0  0  0  0  0  0
    7.6878   -4.6118    0.0000 S   0  0  0  0  0  0  0  0  0  0  0  0
    4.8200   -4.6118    0.0000 C   0  0  0  0  0  0  0  0  0  0  0  0
    5.5419   -4.1951    0.0000 C   0  0  0  0  0  0  0  0  0  0  0  0
    4.8249   -2.9453    0.0000 S   0  0  0  0  0  0  0  0  0  0  0  0
    6.9757   -4.2000    0.0000 C   0  0  0  0  0  0  0  0  0  0  0  0
    5.5466   -3.3667    0.0000 C   0  0  0  0  0  0  0  0  0  0  0  0
    4.1079   -4.1951    0.0000 C   0  0  0  0  0  0  0  0  0  0  0  0
    6.2588   -4.6118    0.0000 C   0  0  0  0  0  0  0  0  0  0  0  0
    4.1079   -3.3667    0.0000 C   0  0  0  0  0  0  0  0  0  0  0  0
    8.4048   -4.2000    0.0000 N   0  0  0  0  0  0  0  0  0  0  0  0
    8.0948   -5.3239    0.0000 O   0  0  0  0  0  0  0  0  0  0  0  0
    7.2713   -5.3239    0.0000 O   0  0  0  0  0  0  0  0  0  0  0  0
    6.2491   -7.0824    0.0000 N   0  0  0  0  0  0  0  0  0  0  0  0
    7.6684   -7.9058    0.0000 N   0  0  0  0  0  0  0  0  0  0  0  0
    4.8200   -5.4353    0.0000 C   0  0  0  0  0  0  0  0  0  0  0  0
    6.9757   -3.3667    0.0000 C   0  0  0  0  0  0  0  0  0  0  0  0
    6.2588   -2.9550    0.0000 C   0  0  0  0  0  0  0  0  0  0  0  0
    6.9516   -8.3176    0.0000 C   0  0  0  0  0  0  0  0  0  0  0  0
    7.6733   -7.0824    0.0000 C   0  0  0  0  0  0  0  0  0  0  0  0
    6.2442   -7.9058    0.0000 C   0  0  0  0  0  0  0  0  0  0  0  0
    6.9563   -6.6657    0.0000 C   0  0  0  0  0  0  0  0  0  0  0  0
    5.5370   -5.8471    0.0000 C   0  0  0  0  0  0  0  0  0  0  0  0
    5.5370   -6.6706    0.0000 C   0  0  0  0  0  0  0  0  0  0  0  0
    3.3958   -4.6069    0.0000 C   0  0  0  0  0  0  0  0  0  0  0  0
    3.3958   -2.9550    0.0000 C   0  0  0  0  0  0  0  0  0  0  0  0
    8.3805   -8.3224    0.0000 C   0  0  0  0  0  0  0  0  0  0  0  0
    9.1169   -4.6118    0.0000 C   0  0  0  0  0  0  0  0  0  0  0  0
    8.4048   -3.3765    0.0000 C   0  0  0  0  0  0  0  0  0  0  0  0
    2.6837   -4.1951    0.0000 C   0  0  0  0  0  0  0  0  0  0  0  0
    2.6837   -3.3716    0.0000 C   0  0  0  0  0  0  0  0  0  0  0  0
    3.9142   -7.6637    0.0000 Cl  0  0  0  0  0  0  0  0  0  0  0  0
    3.4473   -6.4232    0.0000 Cl  0  0  0  0  0  0  0  0  0  0  0  0
    4.8911   -8.9277    0.0000 O   0  0  0  0  0  0  0  0  0  0  0  0
  3  4  1  0
  4  9  1  0
  5  7  1  0
  6  2  1  0
  7 18  1  0
  8  3  1  0
  9  6  2  0
 10  5  1  0
 11  2  1  0
 12  2  2  0
 13  2  2  0
 14 24  1  0
 15 20  1  0
 16  3  2  0
 17  6  1  0
 18 17  2  0
 19 21  1  0
 20 22  1  0
 21 14  1  0
 22 14  1  0
 23 16  1  0
 24 23  1  0
 25  8  2  0
 26 10  2  0
 27 15  1  0
 28 11  1  0
 29 11  1  0
 30 25  1  0
 31 26  1  0
  4  7  2  0
  8 10  1  0
 30 31  2  0
 15 19  1  0
M  END
> <chembl_id>
CHEMBL3989824

> <chembl_pref_name>
THIOTHIXENE HYDROCHLORIDE
