
     RDKit          2D

 18 17  0  0  0  0  0  0  0  0999 V2000
    4.5292   -7.7417    0.0000 Cl  0  0  0  0  0  0  0  0  0  0  0  0
    1.8417   -6.4292    0.0000 C   0  0  0  0  0  0  0  0  0  0  0  0
    2.4542   -6.0750    0.0000 C   0  0  0  0  0  0  0  0  0  0  0  0
    3.0667   -6.4292    0.0000 C   0  0  0  0  0  0  0  0  0  0  0  0
    1.8417   -7.1417    0.0000 C   0  0  0  0  0  0  0  0  0  0  0  0
    4.9042   -6.0667    0.0000 N   0  0  0  0  0  0  0  0  0  0  0  0
    3.0667   -7.1417    0.0000 C   0  0  0  0  0  0  0  0  0  0  0  0
    5.5208   -6.4208    0.0000 C   0  0  0  0  0  0  0  0  0  0  0  0
    2.4542   -7.4958    0.0000 C   0  0  0  0  0  0  0  0  0  0  0  0
    4.2917   -6.4250    0.0000 C   0  0  0  0  0  0  0  0  0  0  0  0
    3.6792   -6.0708    0.0000 C   0  0  0  0  0  0  0  0  0  0  0  0
    1.2292   -7.4958    0.0000 O   0  0  0  0  0  0  0  0  0  0  0  0
    1.2292   -6.0750    0.0000 C   0  0  0  0  0  0  0  0  0  0  0  0
    3.6750   -5.3625    0.0000 O   0  0  0  0  0  0  0  0  0  0  0  0
    0.6167   -6.4292    0.0000 O   0  0  0  0  0  0  0  0  0  0  0  0
    5.8667   -7.0292    0.0000 C   0  0  0  0  0  0  0  0  0  0  0  0
    5.1625   -7.0292    0.0000 C   0  0  0  0  0  0  0  0  0  0  0  0
    6.1333   -6.0625    0.0000 C   0  0  0  0  0  0  0  0  0  0  0  0
  3  2  1  0
  4  3  2  0
  5  2  2  0
  6 10  1  0
  7  4  1  0
  8  6  1  0
  9  5  1  0
 10 11  1  0
 11  4  1  0
 12  5  1  0
 13  2  1  0
 11 14  1  1
 15 13  1  0
 16  8  1  0
 17  8  1  0
 18  8  1  0
  7  9  2  0
M  END
> <chembl_id>
CHEMBL1201061

> <chembl_pref_name>
LEVALBUTEROL HYDROCHLORIDE
