
     RDKit          2D

 19 19  0  0  0  0  0  0  0  0999 V2000
    1.2542   -1.0917    0.0000 S   0  0  0  0  0  0  0  0  0  0  0  0
    0.6542   -0.7292    0.0000 C   0  0  0  0  0  0  0  0  0  0  0  0
    1.8750   -0.7417    0.0000 N   0  0  0  0  0  0  0  0  0  0  0  0
   -1.1958    0.3333    0.0000 C   0  0  0  0  0  0  0  0  0  0  0  0
    0.9000   -1.7042    0.0000 O   0  0  0  0  0  0  0  0  0  0  0  0
    1.6042   -1.7042    0.0000 O   0  0  0  0  0  0  0  0  0  0  0  0
   -0.5750   -0.0167    0.0000 C   0  0  0  0  0  0  0  0  0  0  0  0
   -1.1958    1.0458    0.0000 O   0  0  0  0  0  0  0  0  0  0  0  0
    0.0292   -1.0875    0.0000 C   0  0  0  0  0  0  0  0  0  0  0  0
    0.6542   -0.0292    0.0000 C   0  0  0  0  0  0  0  0  0  0  0  0
    0.0375    0.3250    0.0000 C   0  0  0  0  0  0  0  0  0  0  0  0
   -0.5833   -0.7292    0.0000 C   0  0  0  0  0  0  0  0  0  0  0  0
   -1.8083   -0.0042    0.0000 O   0  0  0  0  0  0  0  0  0  0  0  0
    2.4917   -1.1042    0.0000 C   0  0  0  0  0  0  0  0  0  0  0  0
    1.8792   -0.0333    0.0000 C   0  0  0  0  0  0  0  0  0  0  0  0
    2.4917    0.3125    0.0000 C   0  0  0  0  0  0  0  0  0  0  0  0
    3.1042   -0.7667    0.0000 C   0  0  0  0  0  0  0  0  0  0  0  0
    3.7167   -1.1292    0.0000 C   0  0  0  0  0  0  0  0  0  0  0  0
    3.1042   -0.0500    0.0000 C   0  0  0  0  0  0  0  0  0  0  0  0
  2  1  1  0
  3  1  1  0
  4  7  1  0
  5  1  2  0
  6  1  2  0
  7 11  1  0
  8  4  2  0
  9  2  2  0
 10  2  1  0
 11 10  2  0
 12  9  1  0
 13  4  1  0
 14  3  1  0
 15  3  1  0
 16 15  1  0
 17 14  1  0
 18 17  1  0
 19 16  1  0
  7 12  2  0
M  END
> <chembl_id>
CHEMBL897

> <chembl_pref_name>
PROBENECID
