
     RDKit          2D

 18 19  0  0  1  0  0  0  0  0999 V2000
   -1.1208    0.9333    0.0000 C   0  0  0  0  0  0  0  0  0  0  0  0
    1.0250    0.9333    0.0000 C   0  0  0  0  0  0  0  0  0  0  0  0
   -1.1208   -0.3042    0.0000 C   0  0  0  0  0  0  0  0  0  0  0  0
    3.1792    0.9333    0.0000 C   0  0  0  0  0  0  0  0  0  0  0  0
   -0.0458    1.5500    0.0000 C   0  0  0  0  0  0  0  0  0  0  0  0
    2.1042    1.5583    0.0000 C   0  0  0  0  0  0  0  0  0  0  0  0
   -0.0458   -0.9292    0.0000 C   0  0  0  0  0  0  0  0  0  0  0  0
    1.0250   -0.3042    0.0000 C   0  0  0  0  0  0  0  0  0  0  0  0
    4.2542    1.5500    0.0000 O   0  0  0  0  0  0  0  0  0  0  0  0
   -2.2000   -0.9292    0.0000 C   0  0  0  0  0  0  0  0  0  0  0  0
   -2.2000    1.5500    0.0000 F   0  0  0  0  0  0  0  0  0  0  0  0
    3.1792   -0.3042    0.0000 O   0  0  0  0  0  0  0  0  0  0  0  0
    2.1042    2.7958    0.0000 C   0  0  0  0  0  0  0  0  0  0  0  0
   -2.2000   -2.1667    0.0000 C   0  0  0  0  0  0  0  0  0  0  0  0
   -3.2708   -0.3042    0.0000 C   0  0  0  0  0  0  0  0  0  0  0  0
   -4.3458   -0.9292    0.0000 C   0  0  0  0  0  0  0  0  0  0  0  0
   -3.2708   -2.7917    0.0000 C   0  0  0  0  0  0  0  0  0  0  0  0
   -4.3458   -2.1667    0.0000 C   0  0  0  0  0  0  0  0  0  0  0  0
  2  5  2  0
  3  1  2  0
  4  6  1  0
  5  1  1  0
  6  2  1  0
  7  3  1  0
  8  2  1  0
  9  4  2  0
 10  3  1  0
 11  1  1  0
 12  4  1  0
  6 13  1  6
 14 10  2  0
 15 10  1  0
 16 15  2  0
 17 14  1  0
 18 16  1  0
  7  8  2  0
 17 18  2  0
M  END
> <chembl_id>
CHEMBL435298

> <chembl_pref_name>
ESFLURBIPROFEN
