
     RDKit          2D

 18 17  0  0  0  0  0  0  0  0999 V2000
    5.3493    0.0000    0.0000 Cl  0  0  0  0  0  0  0  0  0  0  0  0
   -2.6057   -0.6309    0.0000 Cl  0  0  0  0  0  0  0  0  0  0  0  0
   -1.1768    1.8441    0.0000 Cl  0  0  0  0  0  0  0  0  0  0  0  0
    0.2522   -1.4559    0.0000 O   0  0  0  0  0  0  0  0  0  0  0  0
    1.6811   -0.6309    0.0000 N   0  0  0  0  0  0  0  0  0  0  0  0
   -2.6057    1.0191    0.0000 N   0  0  0  0  0  0  0  0  0  0  0  0
   -0.4623   -0.2184    0.0000 C   0  0  0  0  0  0  0  0  0  0  0  0
   -1.8912    0.6066    0.0000 C   0  0  0  0  0  0  0  0  0  0  0  0
   -1.8912   -0.2184    0.0000 C   0  0  0  0  0  0  0  0  0  0  0  0
   -1.1768    1.0191    0.0000 C   0  0  0  0  0  0  0  0  0  0  0  0
   -1.1768   -0.6309    0.0000 C   0  0  0  0  0  0  0  0  0  0  0  0
   -0.4623    0.6066    0.0000 C   0  0  0  0  0  0  0  0  0  0  0  0
    0.2522   -0.6309    0.0000 C   0  0  0  0  0  0  0  0  0  0  0  0
    0.9666   -0.2184    0.0000 C   0  0  0  0  0  0  0  0  0  0  0  0
    2.3956   -0.2184    0.0000 C   0  0  0  0  0  0  0  0  0  0  0  0
    3.1101    0.1941    0.0000 C   0  0  0  0  0  0  0  0  0  0  0  0
    2.8081   -0.9329    0.0000 C   0  0  0  0  0  0  0  0  0  0  0  0
    1.9831    0.4961    0.0000 C   0  0  0  0  0  0  0  0  0  0  0  0
  2  9  1  0
  3 10  1  0
  4 13  1  0
  5 14  1  0
  5 15  1  0
  6  8  1  0
  7 11  2  0
  7 12  1  0
  7 13  1  0
  8  9  2  0
  8 10  1  0
  9 11  1  0
 10 12  2  0
 13 14  1  0
 15 16  1  0
 15 17  1  0
 15 18  1  0
M  END
> <chembl_id>
CHEMBL1330729

> <chembl_pref_name>
CLENBUTEROL HYDROCHLORIDE
