
     RDKit          2D

  8  8  0  0  0  0  0  0  0  0999 V2000
   41.0124  -25.9728    0.0000 C   0  0  0  0  0  0  0  0  0  0  0  0
   41.7269  -26.3853    0.0000 N   0  0  0  0  0  0  0  0  0  0  0  0
   42.4414  -25.9728    0.0000 C   0  0  0  0  0  0  0  0  0  0  0  0
   42.4414  -25.1478    0.0000 C   0  0  0  0  0  0  0  0  0  0  0  0
   41.7269  -24.7353    0.0000 C   0  0  0  0  0  0  0  0  0  0  0  0
   41.0124  -25.1478    0.0000 C   0  0  0  0  0  0  0  0  0  0  0  0
   40.2980  -24.7353    0.0000 N   0  0  0  0  0  0  0  0  0  0  0  0
   41.7269  -23.9103    0.0000 N   0  0  0  0  0  0  0  0  0  0  0  0
  2  3  1  0
  3  4  2  0
  4  5  1  0
  5  6  2  0
  1  6  1  0
  6  7  1  0
  5  8  1  0
  2  1  2  0
M  END
> <chembl_id>
CHEMBL354077

> <chembl_pref_name>
AMIFAMPRIDINE
