
     RDKit          2D

 17 17  0  0  0  0  0  0  0  0999 V2000
    2.2125    0.0500    0.0000 C   0  0  0  0  0  0  0  0  0  0  0  0
    1.4542    1.3208    0.0000 P   0  0  0  0  0  0  0  0  0  0  0  0
    2.9667   -1.2167    0.0000 P   0  0  0  0  0  0  0  0  0  0  0  0
    0.9417   -0.7042    0.0000 S   0  0  0  0  0  0  0  0  0  0  0  0
    0.1875    0.5708    0.0000 O   0  0  0  0  0  0  0  0  0  0  0  0
    4.2375   -0.4625    0.0000 O   0  0  0  0  0  0  0  0  0  0  0  0
    2.7250    2.0833    0.0000 O   0  0  0  0  0  0  0  0  0  0  0  0
    3.7167   -2.4917    0.0000 O   0  0  0  0  0  0  0  0  0  0  0  0
    1.6917   -1.9750    0.0000 O   0  0  0  0  0  0  0  0  0  0  0  0
    0.7000    2.5958    0.0000 O   0  0  0  0  0  0  0  0  0  0  0  0
   -0.3458    0.0125    0.0000 C   0  0  0  0  0  0  0  0  0  0  0  0
   -2.8875    1.4875    0.0000 C   0  0  0  0  0  0  0  0  0  0  0  0
   -4.1583    2.2208    0.0000 Cl  0  0  0  0  0  0  0  0  0  0  0  0
   -0.3458    1.4708    0.0000 C   0  0  0  0  0  0  0  0  0  0  0  0
   -1.6208   -0.7167    0.0000 C   0  0  0  0  0  0  0  0  0  0  0  0
   -1.6208    2.2083    0.0000 C   0  0  0  0  0  0  0  0  0  0  0  0
   -2.8875    0.0125    0.0000 C   0  0  0  0  0  0  0  0  0  0  0  0
  2  1  1  0
  3  1  1  0
  4  1  1  0
  5  2  2  0
  6  3  2  0
  7  2  1  0
  8  3  1  0
  9  3  1  0
 10  2  1  0
 11  4  1  0
 12 17  1  0
 13 12  1  0
 14 11  2  0
 15 11  1  0
 16 14  1  0
 17 15  2  0
 16 12  2  0
M  END
> <chembl_id>
CHEMBL1350

> <chembl_pref_name>
TILUDRONIC ACID
