
     RDKit          2D

 41 45  0  0  0  0  0  0  0  0999 V2000
   -3.0974   -2.0386    0.0000 C   0  0  0  0  0  0  0  0  0  0  0  0
   -3.8119   -2.4511    0.0000 C   0  0  0  0  0  0  0  0  0  0  0  0
   -3.8119   -3.2761    0.0000 N   0  0  0  0  0  0  0  0  0  0  0  0
   -3.0974   -3.6887    0.0000 C   0  0  0  0  0  0  0  0  0  0  0  0
   -2.3828   -3.2761    0.0000 C   0  0  0  0  0  0  0  0  0  0  0  0
   -2.3828   -2.4511    0.0000 C   0  0  0  0  0  0  0  0  0  0  0  0
   -2.3828   -0.8011    0.0000 C   0  0  0  0  0  0  0  0  0  0  0  0
   -3.0974   -1.2136    0.0000 N   0  0  0  0  0  0  0  0  0  0  0  0
   -1.6685   -2.0386    0.0000 C   0  0  0  0  0  0  0  0  0  0  0  0
   -1.6685   -1.2136    0.0000 C   0  0  0  0  0  0  0  0  0  0  0  0
   -0.9540   -0.8011    0.0000 C   0  0  0  0  0  0  0  0  0  0  0  0
   -0.9540   -2.4511    0.0000 C   0  0  0  0  0  0  0  0  0  0  0  0
   -0.2395   -2.0386    0.0000 C   0  0  0  0  0  0  0  0  0  0  0  0
   -0.2395   -1.2136    0.0000 C   0  0  0  0  0  0  0  0  0  0  0  0
   -1.6685    0.4364    0.0000 N   0  0  0  0  0  0  0  0  0  0  0  0
   -2.3828    0.0239    0.0000 C   0  0  0  0  0  0  0  0  0  0  0  0
   -0.9540    0.0239    0.0000 Cl  0  0  0  0  0  0  0  0  0  0  0  0
   -3.8119   -0.8011    0.0000 C   0  0  0  0  0  0  0  0  0  0  0  0
   -4.5263   -1.2136    0.0000 C   0  0  0  0  0  0  0  0  0  0  0  0
   -4.5263   -2.0386    0.0000 C   0  0  0  0  0  0  0  0  0  0  0  0
   -5.0138    0.4391    0.0000 N   0  0  0  0  0  0  0  0  0  0  0  0
   -5.5659   -0.1739    0.0000 C   0  0  0  0  0  0  0  0  0  0  0  0
   -5.3110   -0.9587    0.0000 N   0  0  0  0  0  0  0  0  0  0  0  0
   -6.0757    1.3953    0.0000 C   0  0  0  0  0  0  0  0  0  0  0  0
   -6.6278    0.7822    0.0000 C   0  0  0  0  0  0  0  0  0  0  0  0
   -6.3728   -0.0025    0.0000 C   0  0  0  0  0  0  0  0  0  0  0  0
   -5.2688    1.2237    0.0000 C   0  0  0  0  0  0  0  0  0  0  0  0
   -7.4348    0.9537    0.0000 C   0  0  0  0  0  0  0  0  0  0  0  0
   -5.7958   -1.6261    0.0000 C   0  0  0  0  0  0  0  0  0  0  0  0
   -5.3110   -2.2935    0.0000 C   0  0  0  0  0  0  0  0  0  0  0  0
   -6.6209   -1.6261    0.0000 O   0  0  0  0  0  0  0  0  0  0  0  0
   -3.8119    0.0239    0.0000 O   0  0  0  0  0  0  0  0  0  0  0  0
   -1.6910   -3.7255    0.0000 F   0  0  0  0  0  0  0  0  0  0  0  0
   -3.0974    0.4364    0.0000 O   0  0  0  0  0  0  0  0  0  0  0  0
   -1.7116    1.2603    0.0000 C   0  0  0  0  0  0  0  0  0  0  0  0
   -2.3247    1.8123    0.0000 C   0  0  0  0  0  0  0  0  0  0  0  0
   -1.1596    1.8734    0.0000 C   0  0  0  0  0  0  0  0  0  0  0  0
   -1.7727    2.4253    0.0000 C   0  0  0  0  0  0  0  0  0  0  0  0
   -1.2966    3.0992    0.0000 F   0  0  0  0  0  0  0  0  0  0  0  0
   -2.3561    3.0088    0.0000 F   0  0  0  0  0  0  0  0  0  0  0  0
   -8.2418    1.1252    0.0000 N   0  0  0  0  0  0  0  0  0  0  0  0
  1  2  1  0
  2  3  2  0
  3  4  1  0
  4  5  2  0
  5  6  1  0
  1  6  2  0
  7  8  1  0
 12 13  1  0
 13 14  2  0
 11 14  1  0
  9 12  2  0
 11 10  2  0
 10  9  1  0
 15 16  1  0
 16  7  1  0
  7 10  1  6
 11 17  1  0
 19 20  1  0
 18  8  1  0
  1  8  1  0
 21 22  2  0
 22 23  1  0
 23 19  1  0
 19 18  1  6
 24 25  1  0
 25 26  2  0
 24 27  2  0
 21 27  1  0
 26 22  1  0
 25 28  1  0
 23 29  1  0
 29 30  1  0
 30 20  1  0
 29 31  2  0
 18 32  2  0
  5 33  1  0
 16 34  2  0
 15 35  1  0
 35 36  1  0
 35 37  1  0
 37 38  1  0
 38 36  1  0
 38 39  1  0
 38 40  1  0
 28 41  3  0
M  END
> <chembl_id>
CHEMBL3989958

> <chembl_pref_name>
IVOSIDENIB
