
     RDKit          2D

 17 17  0  0  0  0  0  0  0  0999 V2000
   -1.4458    0.6833    0.0000 C   0  0  0  0  0  0  0  0  0  0  0  0
   -0.1958   -1.4542    0.0000 C   0  0  0  0  0  0  0  0  0  0  0  0
   -0.2083   -0.0292    0.0000 C   0  0  0  0  0  0  0  0  0  0  0  0
   -2.6833   -0.0292    0.0000 N   0  0  0  0  0  0  0  0  0  0  0  0
   -1.4208   -2.1917    0.0000 N   0  0  0  0  0  0  0  0  0  0  0  0
   -2.6583   -1.4542    0.0000 C   0  0  0  0  0  0  0  0  0  0  0  0
    1.0542   -2.1875    0.0000 O   0  0  0  0  0  0  0  0  0  0  0  0
   -1.4458    2.1250    0.0000 O   0  0  0  0  0  0  0  0  0  0  0  0
   -3.8958   -2.1917    0.0000 O   0  0  0  0  0  0  0  0  0  0  0  0
    0.5000    1.2208    0.0000 C   0  0  0  0  0  0  0  0  0  0  0  0
    1.9167   -1.2875    0.0000 C   0  0  0  0  0  0  0  0  0  0  0  0
    1.2125   -0.0417    0.0000 C   0  0  0  0  0  0  0  0  0  0  0  0
    3.3500   -1.3000    0.0000 C   0  0  0  0  0  0  0  0  0  0  0  0
    1.9167    1.2333    0.0000 C   0  0  0  0  0  0  0  0  0  0  0  0
   -0.2208    2.4625    0.0000 C   0  0  0  0  0  0  0  0  0  0  0  0
    2.6417   -0.0167    0.0000 C   0  0  0  0  0  0  0  0  0  0  0  0
    4.0750   -0.0042    0.0000 C   0  0  0  0  0  0  0  0  0  0  0  0
  2  3  1  0
  3  1  1  0
  4  1  1  0
  5  6  1  0
  6  4  1  0
  7  2  2  0
  8  1  2  0
  9  6  2  0
 10  3  1  0
 11 12  1  0
 12  3  1  0
 13 11  2  0
 14 10  1  0
 15 10  1  0
 16 14  1  0
 17 16  1  0
  2  5  1  0
M  END
> <chembl_id>
CHEMBL447

> <chembl_pref_name>
SECOBARBITAL
