
     RDKit          2D

 16 16  0  0  0  0  0  0  0  0999 V2000
    1.0667   -5.5000    0.0000 C   0  0  0  0  0  0  0  0  0  0  0  0
    2.2917   -5.4792    0.0000 C   0  0  0  0  0  0  0  0  0  0  0  0
    1.6917   -5.8417    0.0000 C   0  0  0  0  0  0  0  0  0  0  0  0
    1.6792   -4.4250    0.0000 N   0  0  0  0  0  0  0  0  0  0  0  0
    2.2917   -4.7667    0.0000 C   0  0  0  0  0  0  0  0  0  0  0  0
    1.0667   -4.7792    0.0000 C   0  0  0  0  0  0  0  0  0  0  0  0
    2.2792   -3.3500    0.0000 C   0  0  0  0  0  0  0  0  0  0  0  0
    1.6667   -3.7042    0.0000 C   0  0  0  0  0  0  0  0  0  0  0  0
    1.6917   -6.5542    0.0000 O   0  0  0  0  0  0  0  0  0  0  0  0
    2.9167   -5.8167    0.0000 I   0  0  0  0  0  0  0  0  0  0  0  0
    0.4625   -5.8542    0.0000 I   0  0  0  0  0  0  0  0  0  0  0  0
    2.2917   -2.6375    0.0000 O   0  0  0  0  0  0  0  0  0  0  0  0
    2.9000   -3.7042    0.0000 O   0  0  0  0  0  0  0  0  0  0  0  0
    3.5042   -3.3542    0.0000 C   0  0  0  0  0  0  0  0  0  0  0  0
    4.1292   -3.7167    0.0000 C   0  0  0  0  0  0  0  0  0  0  0  0
    4.7417   -3.3667    0.0000 C   0  0  0  0  0  0  0  0  0  0  0  0
  2  3  1  0
  3  1  1  0
  4  6  1  0
  5  4  1  0
  6  1  2  0
  7  8  1  0
  8  4  1  0
  9  3  2  0
 10  2  1  0
 11  1  1  0
 12  7  2  0
 13  7  1  0
 14 13  1  0
 15 14  1  0
 16 15  1  0
  5  2  2  0
M  END
> <chembl_id>
CHEMBL1200821

> <chembl_pref_name>
PROPYLIODONE
