
     RDKit          2D

 41 44  0  0  1  0  0  0  0  0999 V2000
   -4.9582   -8.9917    0.0000 C   0  0  0  0  0  0  0  0  0  0  0  0
   -5.3635   -7.7469    0.0000 N   0  0  0  0  0  0  0  0  0  0  0  0
   -4.7122   -8.2390    0.0000 C   0  0  0  0  0  0  0  0  0  0  0  0
   -5.7639   -8.9917    0.0000 C   0  0  0  0  0  0  0  0  0  0  0  0
   -6.0293   -8.2390    0.0000 C   0  0  0  0  0  0  0  0  0  0  0  0
   -4.2586   -9.4500    0.0000 C   0  0  0  0  0  0  0  0  0  0  0  0
   -5.3586   -6.9364    0.0000 C   0  0  0  0  0  0  0  0  0  0  0  0
   -3.5543   -9.0206    0.0000 N   0  0  0  0  0  0  0  0  0  0  0  0
   -6.7819   -7.8482    0.0000 C   0  0  0  0  0  0  0  0  0  0  0  0
   -6.7771   -4.4035    0.0000 C   0  0  0  0  0  0  0  0  0  0  0  0
   -6.0727   -3.9982    0.0000 C   0  0  0  0  0  0  0  0  0  0  0  0
   -6.4780   -9.3824    0.0000 C   0  0  0  0  0  0  0  0  0  0  0  0
   -4.2635  -10.2460    0.0000 O   0  0  0  0  0  0  0  0  0  0  0  0
   -3.9885   -7.8338    0.0000 C   0  0  0  0  0  0  0  0  0  0  0  0
   -7.5056   -3.9838    0.0000 O   0  0  0  0  0  0  0  0  0  0  0  0
   -4.6494   -6.5456    0.0000 C   0  0  0  0  0  0  0  0  0  0  0  0
   -6.7771   -5.2285    0.0000 O   0  0  0  0  0  0  0  0  0  0  0  0
   -5.3586   -4.4324    0.0000 C   0  0  0  0  0  0  0  0  0  0  0  0
   -5.3586   -5.2719    0.0000 C   0  0  0  0  0  0  0  0  0  0  0  0
   -7.4767   -8.2631    0.0000 C   0  0  0  0  0  0  0  0  0  0  0  0
   -6.7819   -7.0232    0.0000 C   0  0  0  0  0  0  0  0  0  0  0  0
   -2.8402   -9.4355    0.0000 C   0  0  0  0  0  0  0  0  0  0  0  0
   -8.1955   -7.0232    0.0000 C   0  0  0  0  0  0  0  0  0  0  0  0
   -4.6494   -5.6772    0.0000 C   0  0  0  0  0  0  0  0  0  0  0  0
   -7.4767   -6.6035    0.0000 C   0  0  0  0  0  0  0  0  0  0  0  0
   -8.1955   -7.8482    0.0000 C   0  0  0  0  0  0  0  0  0  0  0  0
   -8.9385   -6.6035    0.0000 F   0  0  0  0  0  0  0  0  0  0  0  0
   -4.6784   -3.9982    0.0000 O   0  0  0  0  0  0  0  0  0  0  0  0
   -3.9451   -5.3588    0.0000 O   0  0  0  0  0  0  0  0  0  0  0  0
   -6.4780  -10.2074    0.0000 C   0  0  0  0  0  0  0  0  0  0  0  0
   -7.1872   -8.9772    0.0000 C   0  0  0  0  0  0  0  0  0  0  0  0
   -3.2744   -8.2390    0.0000 C   0  0  0  0  0  0  0  0  0  0  0  0
   -3.9885   -6.9943    0.0000 C   0  0  0  0  0  0  0  0  0  0  0  0
   -2.1214   -9.0206    0.0000 C   0  0  0  0  0  0  0  0  0  0  0  0
   -2.8402  -10.2653    0.0000 C   0  0  0  0  0  0  0  0  0  0  0  0
   -7.1872  -10.6272    0.0000 C   0  0  0  0  0  0  0  0  0  0  0  0
   -7.9350   -9.3824    0.0000 C   0  0  0  0  0  0  0  0  0  0  0  0
   -2.1214  -10.6851    0.0000 C   0  0  0  0  0  0  0  0  0  0  0  0
   -1.4073   -9.4259    0.0000 C   0  0  0  0  0  0  0  0  0  0  0  0
   -7.9350  -10.2074    0.0000 C   0  0  0  0  0  0  0  0  0  0  0  0
   -1.4073  -10.2653    0.0000 C   0  0  0  0  0  0  0  0  0  0  0  0
  2  3  1  0
  3  1  2  0
  4  1  1  0
  5  4  2  0
  6  1  1  0
  7  2  1  0
  8  6  1  0
  9  5  1  0
 10 11  1  0
 11 18  1  0
 12  4  1  0
 13  6  2  0
 14  3  1  0
 15 10  1  0
 16  7  1  0
 17 10  2  0
 18 19  1  0
 19 24  1  0
 20  9  1  0
 21  9  2  0
 22  8  1  0
 23 26  1  0
 24 16  1  6
 25 21  1  0
 26 20  2  0
 27 23  1  0
 18 28  1  6
 29 24  1  0
 30 12  2  0
 31 12  1  0
 32 14  1  0
 33 14  1  0
 34 22  1  0
 35 22  2  0
 36 30  1  0
 37 31  2  0
 38 35  1  0
 39 34  2  0
 40 36  2  0
 41 39  1  0
  5  2  1  0
 37 40  1  0
 25 23  2  0
 38 41  2  0
M  END
> <chembl_id>
CHEMBL1487

> <chembl_pref_name>
ATORVASTATIN
