
     RDKit          2D

 24 25  0  0  0  0  0  0  0  0999 V2000
    2.5792   -3.7917    0.0000 C   0  0  0  0  0  0  0  0  0  0  0  0
    3.2042   -4.1542    0.0000 C   0  0  0  0  0  0  0  0  0  0  0  0
    2.5792   -3.0792    0.0000 C   0  0  0  0  0  0  0  0  0  0  0  0
    3.2042   -4.8542    0.0000 C   0  0  0  0  0  0  0  0  0  0  0  0
    1.9667   -4.1417    0.0000 C   0  0  0  0  0  0  0  0  0  0  0  0
    3.2042   -2.7292    0.0000 O   0  0  0  0  0  0  0  0  0  0  0  0
    2.5792   -5.2125    0.0000 C   0  0  0  0  0  0  0  0  0  0  0  0
    5.0417   -5.2125    0.0000 N   0  0  0  0  0  0  0  0  0  0  0  0
    1.9667   -4.8542    0.0000 C   0  0  0  0  0  0  0  0  0  0  0  0
    4.4417   -4.8542    0.0000 C   0  0  0  0  0  0  0  0  0  0  0  0
    3.8250   -5.2167    0.0000 C   0  0  0  0  0  0  0  0  0  0  0  0
    1.9667   -2.7167    0.0000 N   0  0  0  0  0  0  0  0  0  0  0  0
    1.3500   -3.7792    0.0000 O   0  0  0  0  0  0  0  0  0  0  0  0
    6.8917   -4.8750    0.0000 C   0  0  0  0  0  0  0  0  0  0  0  0
    3.8125   -5.9292    0.0000 O   0  0  0  0  0  0  0  0  0  0  0  0
    7.5167   -5.2292    0.0000 C   0  0  0  0  0  0  0  0  0  0  0  0
    6.2792   -5.2167    0.0000 C   0  0  0  0  0  0  0  0  0  0  0  0
    5.6625   -4.8750    0.0000 C   0  0  0  0  0  0  0  0  0  0  0  0
    7.5167   -5.9375    0.0000 C   0  0  0  0  0  0  0  0  0  0  0  0
    8.1375   -4.8792    0.0000 C   0  0  0  0  0  0  0  0  0  0  0  0
    5.6667   -4.1542    0.0000 C   0  0  0  0  0  0  0  0  0  0  0  0
    8.1417   -6.2917    0.0000 C   0  0  0  0  0  0  0  0  0  0  0  0
    8.7625   -5.2292    0.0000 C   0  0  0  0  0  0  0  0  0  0  0  0
    8.7667   -5.9417    0.0000 C   0  0  0  0  0  0  0  0  0  0  0  0
  2  1  1  0
  3  1  1  0
  4  2  2  0
  5  1  2  0
  6  3  2  0
  7  9  2  0
  8 10  1  0
  9  5  1  0
 10 11  1  0
 11  4  1  0
 12  3  1  0
 13  5  1  0
 14 17  1  0
 15 11  1  0
 16 14  1  0
 17 18  1  0
 18  8  1  0
 19 16  2  0
 20 16  1  0
 21 18  1  0
 22 19  1  0
 23 20  2  0
 24 22  2  0
  7  4  1  0
 24 23  1  0
M  END
> <chembl_id>
CHEMBL429

> <chembl_pref_name>
LABETALOL
