
     RDKit          2D

 41 43  0  0  0  0  0  0  0  0999 V2000
    4.1295    0.3246    0.0000 Na  0  0  0  0  0 15  0  0  0  0  0  0
   -0.1217   -1.3570    0.0000 C   0  0  0  0  0  0  0  0  0  0  0  0
   -0.8475   -1.7898    0.0000 C   0  0  0  0  0  0  0  0  0  0  0  0
   -2.2676   -1.7988    0.0000 C   0  0  0  0  0  0  0  0  0  0  0  0
   -0.1307   -0.5185    0.0000 C   0  0  0  0  0  0  0  0  0  0  0  0
    0.6492   -0.2750    0.0000 C   0  0  0  0  0  0  0  0  0  0  0  0
   -1.5508   -1.3705    0.0000 C   0  0  0  0  0  0  0  0  0  0  0  0
   -2.2541   -2.6373    0.0000 C   0  0  0  0  0  0  0  0  0  0  0  0
    1.1225   -0.9332    0.0000 C   0  0  0  0  0  0  0  0  0  0  0  0
    0.9197    0.5139    0.0000 C   0  0  0  0  0  0  0  0  0  0  0  0
    0.6627   -1.6094    0.0000 C   0  0  0  0  0  0  0  0  0  0  0  0
   -1.5508   -0.5410    0.0000 C   0  0  0  0  0  0  0  0  0  0  0  0
   -0.8475   -0.1263    0.0000 C   0  0  0  0  0  0  0  0  0  0  0  0
    1.7176    0.6852    0.0000 C   0  0  0  0  0  0  0  0  0  0  0  0
   -0.8475   -2.6148    0.0000 C   0  0  0  0  0  0  0  0  0  0  0  0
   -2.9619   -3.0476    0.0000 C   0  0  0  0  0  0  0  0  0  0  0  0
   -2.9709   -1.3841    0.0000 C   0  0  0  0  0  0  0  0  0  0  0  0
   -1.5508   -3.0295    0.0000 C   0  0  0  0  0  0  0  0  0  0  0  0
    1.9521   -0.9332    0.0000 O   0  0  0  0  0  0  0  0  0  0  0  0
    2.3668   -1.6545    0.0000 C   0  0  0  0  0  0  0  0  0  0  0  0
    1.9746    1.4561    0.0000 O   0  0  0  0  0  0  0  0  0  0  0  0
   -3.6787   -2.6283    0.0000 C   0  0  0  0  0  0  0  0  0  0  0  0
    2.2632    0.0766    0.0000 O   0  0  0  0  0  0  0  0  0  0  0  0
   -3.6922   -1.8123    0.0000 C   0  0  0  0  0  0  0  0  0  0  0  0
    1.9386   -2.3713    0.0000 O   0  0  0  0  0  0  0  0  0  0  0  0
    0.3246    3.2955    0.0000 C   0  0  0  0  0  0  0  0  0  0  0  0
    0.0676    2.5110    0.0000 C   0  0  0  0  0  0  0  0  0  0  0  0
   -0.0766   -2.1820    0.0000 C   0  0  0  0  0  0  0  0  0  0  0  0
   -0.8520   -0.8295    0.0000 C   0  0  0  0  0  0  0  0  0  0  0  0
   -2.2316   -0.9242    0.0000 C   0  0  0  0  0  0  0  0  0  0  0  0
   -2.2676   -0.0992    0.0000 O   0  0  0  0  0  0  0  0  0  0  0  0
    0.3697    1.1180    0.0000 C   0  0  0  0  0  0  0  0  0  0  0  0
    0.6267    1.9070    0.0000 C   0  0  0  0  0  0  0  0  0  0  0  0
   -4.4180   -3.0476    0.0000 O   0  0  0  0  0  0  0  0  0  0  0  0
   -2.9619   -3.8861    0.0000 C   0  0  0  0  0  0  0  0  0  0  0  0
    3.2099   -1.6635    0.0000 C   0  0  0  0  0  0  0  0  0  0  0  0
    1.1090    3.4848    0.0000 C   0  0  0  0  0  0  0  0  0  0  0  0
   -0.2254    3.8905    0.0000 C   0  0  0  0  0  0  0  0  0  0  0  0
   -1.5012   -2.2496    0.0000 H   0  0  0  0  0  0  0  0  0  0  0  0
   -0.1082    0.3336    0.0000 H   0  0  0  0  0  0  0  0  0  0  0  0
   -2.2472   -3.4623    0.0000 H   0  0  0  0  0  0  0  0  0  0  0  0
  3  2  1  0
  4  7  1  0
  5  2  1  0
  6  5  1  0
  7  3  1  0
  8 18  1  0
  9 11  1  0
 10  6  2  0
 11  2  1  0
 12 13  1  0
 13  5  1  0
 14 10  1  0
 15  3  1  0
 16  8  1  0
 17  4  1  0
 18 15  1  0
  9 19  1  1
 20 19  1  0
 21 14  1  0
 22 16  1  0
 23 14  2  0
 24 17  1  0
 25 20  2  0
 26 27  2  0
 27 33  1  0
  2 28  1  1
  3 29  1  6
  4 30  1  1
 12 31  1  6
 32 10  1  0
 33 32  1  0
 22 34  1  6
 16 35  1  6
 36 20  1  0
 37 26  1  0
 38 26  1  0
  7 39  1  1
  5 40  1  6
  6  9  1  0
  7 12  1  0
  4  8  1  0
 24 22  1  0
  8 41  1  6
M  CHG  2   1   1  21  -1
M  END
> <chembl_id>
CHEMBL1256987

> <chembl_pref_name>
FUSIDATE SODIUM
