
     RDKit          2D

 31 22  0  0  0  0  0  0  0  0999 V2000
    8.4643  -11.0089    0.0000 O   0  0  0  0  0  0  0  0  0  0  0  0
    5.1997   -7.7827    0.0000 P   0  0  0  0  0  0  0  0  0  0  0  0
    5.2142  -11.9066    0.0000 P   0  0  0  0  0  0  0  0  0  0  0  0
    4.4922   -9.0232    0.0000 C   0  0  0  0  0  0  0  0  0  0  0  0
    4.5019  -10.6758    0.0000 C   0  0  0  0  0  0  0  0  0  0  0  0
    3.7848   -9.4400    0.0000 C   0  0  0  0  0  0  0  0  0  0  0  0
    3.7848  -10.2638    0.0000 C   0  0  0  0  0  0  0  0  0  0  0  0
    4.4873   -8.1994    0.0000 O   0  0  0  0  0  0  0  0  0  0  0  0
    4.5019  -11.4995    0.0000 O   0  0  0  0  0  0  0  0  0  0  0  0
    5.2095   -9.4303    0.0000 C   0  0  0  0  0  0  0  0  0  0  0  0
    5.2142  -10.2589    0.0000 C   0  0  0  0  0  0  0  0  0  0  0  0
    5.9606   -8.1703    0.0000 O   0  0  0  0  0  0  0  0  0  0  0  0
    5.6020   -7.0655    0.0000 O   0  0  0  0  0  0  0  0  0  0  0  0
    5.9702  -11.4753    0.0000 O   0  0  0  0  0  0  0  0  0  0  0  0
    5.6602  -12.5948    0.0000 O   0  0  0  0  0  0  0  0  0  0  0  0
    4.7830   -7.0655    0.0000 O   0  0  0  0  0  0  0  0  0  0  0  0
    4.7975  -12.6190    0.0000 O   0  0  0  0  0  0  0  0  0  0  0  0
    3.0724   -9.0281    0.0000 C   0  0  0  0  0  0  0  0  0  0  0  0
    5.9218   -9.0135    0.0000 C   0  0  0  0  0  0  0  0  0  0  0  0
    3.0724  -10.6805    0.0000 C   0  0  0  0  0  0  0  0  0  0  0  0
    2.3600   -9.4400    0.0000 C   0  0  0  0  0  0  0  0  0  0  0  0
    2.3600  -10.2687    0.0000 C   0  0  0  0  0  0  0  0  0  0  0  0
    7.0122   -6.9686    0.0000 Na  0  0  0  0  0 15  0  0  0  0  0  0
    7.0122   -8.1607    0.0000 Na  0  0  0  0  0 15  0  0  0  0  0  0
    7.0122  -11.2863    0.0000 Na  0  0  0  0  0 15  0  0  0  0  0  0
    7.0122  -12.6384    0.0000 Na  0  0  0  0  0 15  0  0  0  0  0  0
    7.7391   -9.7695    0.0000 O   0  0  0  0  0  0  0  0  0  0  0  0
    8.6786  -10.0446    0.0000 O   0  0  0  0  0  0  0  0  0  0  0  0
    8.8661   -8.8929    0.0000 O   0  0  0  0  0  0  0  0  0  0  0  0
    9.8839   -9.5893    0.0000 O   0  0  0  0  0  0  0  0  0  0  0  0
    9.4018  -10.5268    0.0000 O   0  0  0  0  0  0  0  0  0  0  0  0
  3  9  1  0
  4  8  1  0
  5  7  1  0
  6  4  1  0
  7  6  1  0
  8  2  1  0
  9  5  1  0
 10  4  2  0
 11 10  1  0
 12  2  1  0
 13  2  1  0
 14  3  1  0
 15  3  1  0
 16  2  2  0
 17  3  2  0
 18  6  2  0
 19 10  1  0
 20  7  2  0
 21 18  1  0
 22 20  1  0
 11  5  2  0
 22 21  2  0
M  CHG  8  12  -1  13  -1  14  -1  15  -1  23   1  24   1  25   1  26   1
M  END
> <chembl_id>
CHEMBL3989728

> <chembl_pref_name>
MENADIOL SODIUM DIPHOSPHATE
