
     RDKit          2D

 16 18  0  0  0  0  0  0  0  0999 V2000
    4.8375   -4.1167    0.0000 C   0  0  0  0  0  0  0  0  0  0  0  0
    5.5375   -3.9000    0.0000 N   0  0  0  0  0  0  0  0  0  0  0  0
    4.8375   -4.8292    0.0000 N   0  0  0  0  0  0  0  0  0  0  0  0
    3.6125   -4.8292    0.0000 C   0  0  0  0  0  0  0  0  0  0  0  0
    4.2250   -3.7542    0.0000 N   0  0  0  0  0  0  0  0  0  0  0  0
    3.6125   -4.1167    0.0000 C   0  0  0  0  0  0  0  0  0  0  0  0
    4.2250   -5.1875    0.0000 C   0  0  0  0  0  0  0  0  0  0  0  0
    5.9250   -4.4750    0.0000 C   0  0  0  0  0  0  0  0  0  0  0  0
    2.9917   -5.1875    0.0000 C   0  0  0  0  0  0  0  0  0  0  0  0
    5.5375   -5.0417    0.0000 C   0  0  0  0  0  0  0  0  0  0  0  0
    2.3792   -4.8292    0.0000 C   0  0  0  0  0  0  0  0  0  0  0  0
    2.9917   -3.7542    0.0000 C   0  0  0  0  0  0  0  0  0  0  0  0
    6.6292   -4.4750    0.0000 O   0  0  0  0  0  0  0  0  0  0  0  0
    2.3792   -4.1167    0.0000 C   0  0  0  0  0  0  0  0  0  0  0  0
    2.9917   -5.8917    0.0000 Cl  0  0  0  0  0  0  0  0  0  0  0  0
    1.7625   -5.1875    0.0000 Cl  0  0  0  0  0  0  0  0  0  0  0  0
  2  1  1  0
  3  1  1  0
  4  6  2  0
  5  1  2  0
  6  5  1  0
  7  3  1  0
  8  2  1  0
  9  4  1  0
 10  3  1  0
 11 14  1  0
 12  6  1  0
 13  8  2  0
 14 12  2  0
 15  9  1  0
 16 11  1  0
  8 10  1  0
  4  7  1  0
  9 11  2  0
M  END
> <chembl_id>
CHEMBL760

> <chembl_pref_name>
ANAGRELIDE
