
     RDKit          2D

  8  8  0  0  0  0  0  0  0  0999 V2000
   -0.7083   -0.2375    0.0000 N   0  0  0  0  0  0  0  0  0  0  0  0
    0.5417    0.4708    0.0000 C   0  0  0  0  0  0  0  0  0  0  0  0
    1.8167   -0.2417    0.0000 S   0  0  0  0  0  0  0  0  0  0  0  0
   -0.7083   -1.6625    0.0000 O   0  0  0  0  0  0  0  0  0  0  0  0
   -1.9208    0.4958    0.0000 C   0  0  0  0  0  0  0  0  0  0  0  0
    0.5417    1.9000    0.0000 C   0  0  0  0  0  0  0  0  0  0  0  0
   -1.9208    1.9208    0.0000 C   0  0  0  0  0  0  0  0  0  0  0  0
   -0.6583    2.6458    0.0000 C   0  0  0  0  0  0  0  0  0  0  0  0
  2  1  1  0
  3  2  2  0
  4  1  1  0
  5  1  1  0
  6  2  1  0
  7  5  2  0
  8  7  1  0
  6  8  2  0
M  END
> <chembl_id>
CHEMBL1650619

> <chembl_pref_name>
PYRITHIONE
