
     RDKit          2D

 15 14  0  0  0  0  0  0  0  0999 V2000
   -0.3208   -4.2167    0.0000 Cl  0  0  0  0  0  0  0  0  0  0  0  0
   -0.6333   -3.3500    0.0000 C   0  0  0  0  0  0  0  0  0  0  0  0
   -1.2500   -3.0042    0.0000 C   0  0  0  0  0  0  0  0  0  0  0  0
    0.5917   -3.3292    0.0000 N   0  0  0  0  0  0  0  0  0  0  0  0
    1.2125   -3.6667    0.0000 C   0  0  0  0  0  0  0  0  0  0  0  0
    1.8125   -3.3042    0.0000 C   0  0  0  0  0  0  0  0  0  0  0  0
   -0.0125   -3.6917    0.0000 C   0  0  0  0  0  0  0  0  0  0  0  0
    2.4292   -3.6542    0.0000 C   0  0  0  0  0  0  0  0  0  0  0  0
    0.5917   -2.6250    0.0000 C   0  0  0  0  0  0  0  0  0  0  0  0
    1.2125   -4.3792    0.0000 C   0  0  0  0  0  0  0  0  0  0  0  0
    3.0417   -3.3042    0.0000 C   0  0  0  0  0  0  0  0  0  0  0  0
    2.4250   -4.3667    0.0000 C   0  0  0  0  0  0  0  0  0  0  0  0
    3.0542   -4.7042    0.0000 C   0  0  0  0  0  0  0  0  0  0  0  0
    3.6542   -3.6292    0.0000 C   0  0  0  0  0  0  0  0  0  0  0  0
    3.6750   -4.3417    0.0000 C   0  0  0  0  0  0  0  0  0  0  0  0
  3  2  3  0
  4  7  1  0
  5  4  1  0
  6  5  1  0
  7  2  1  0
  8  6  1  0
  9  4  1  0
  5 10  1  1
 11  8  1  0
 12  8  2  0
 13 12  1  0
 14 11  2  0
 15 14  1  0
 15 13  2  0
M  END
> <chembl_id>
CHEMBL1200904

> <chembl_pref_name>
SELEGILINE HYDROCHLORIDE
