
     RDKit          2D

 23 25  0  0  0  0  0  0  0  0999 V2000
   -0.8208   -1.1917    0.0000 S   0  0  0  0  0  0  0  0  0  0  0  0
   -1.6958   -0.7125    0.0000 C   0  0  0  0  0  0  0  0  0  0  0  0
   -1.7000    0.2875    0.0000 C   0  0  0  0  0  0  0  0  0  0  0  0
    0.0292    0.3083    0.0000 C   0  0  0  0  0  0  0  0  0  0  0  0
    0.0250   -0.6917    0.0000 N   0  0  0  0  0  0  0  0  0  0  0  0
   -0.8458    0.8000    0.0000 C   0  0  0  0  0  0  0  0  0  0  0  0
    0.8917    0.8083    0.0000 C   0  0  0  0  0  0  0  0  0  0  0  0
   -2.6208   -1.0167    0.0000 C   0  0  0  0  0  0  0  0  0  0  0  0
   -2.6500    0.5833    0.0000 S   0  0  0  0  0  0  0  0  0  0  0  0
   -3.2250   -0.2292    0.0000 C   0  0  0  0  0  0  0  0  0  0  0  0
    1.7417    0.3000    0.0000 N   0  0  0  0  0  0  0  0  0  0  0  0
   -1.2833   -2.0792    0.0000 O   0  0  0  0  0  0  0  0  0  0  0  0
   -0.4083   -2.1000    0.0000 O   0  0  0  0  0  0  0  0  0  0  0  0
    2.6125    0.7833    0.0000 C   0  0  0  0  0  0  0  0  0  0  0  0
    0.8750    1.8000    0.0000 O   0  0  0  0  0  0  0  0  0  0  0  0
    2.6250    1.7708    0.0000 N   0  0  0  0  0  0  0  0  0  0  0  0
   -0.8583    1.7958    0.0000 O   0  0  0  0  0  0  0  0  0  0  0  0
    0.8792   -1.2042    0.0000 C   0  0  0  0  0  0  0  0  0  0  0  0
   -4.2208   -0.2542    0.0000 Cl  0  0  0  0  0  0  0  0  0  0  0  0
    3.4875    2.2833    0.0000 C   0  0  0  0  0  0  0  0  0  0  0  0
    3.4875    0.2833    0.0000 C   0  0  0  0  0  0  0  0  0  0  0  0
    4.3417    1.7833    0.0000 C   0  0  0  0  0  0  0  0  0  0  0  0
    4.3417    0.7833    0.0000 C   0  0  0  0  0  0  0  0  0  0  0  0
  2  1  1  0
  3  2  2  0
  4  5  1  0
  5  1  1  0
  6  4  2  0
  7  4  1  0
  8  2  1  0
  9  3  1  0
 10  8  2  0
 11  7  1  0
 12  1  2  0
 13  1  2  0
 14 11  1  0
 15  7  2  0
 16 14  1  0
 17  6  1  0
 18  5  1  0
 19 10  1  0
 20 16  2  0
 21 14  2  0
 22 23  2  0
 23 21  1  0
  3  6  1  0
  9 10  1  0
 20 22  1  0
M  END
> <chembl_id>
CHEMBL1569487

> <chembl_pref_name>
LORNOXICAM
