
     RDKit          2D

 10 10  0  0  0  0  0  0  0  0999 V2000
    0.1542    0.8458    0.0000 N   0  0  0  0  0  0  0  0  0  0  0  0
   -1.0208    1.7125    0.0000 C   0  0  0  0  0  0  0  0  0  0  0  0
    0.1500   -0.6000    0.0000 C   0  0  0  0  0  0  0  0  0  0  0  0
    1.4042   -1.3625    0.0000 C   0  0  0  0  0  0  0  0  0  0  0  0
   -2.4083    1.2375    0.0000 O   0  0  0  0  0  0  0  0  0  0  0  0
    1.4375   -2.8542    0.0000 O   0  0  0  0  0  0  0  0  0  0  0  0
    2.4792   -1.0292    0.0000 N   0  0  0  0  0  0  0  0  0  0  0  0
    1.3375    1.7125    0.0000 C   0  0  0  0  0  0  0  0  0  0  0  0
   -0.5750    3.1083    0.0000 C   0  0  0  0  0  0  0  0  0  0  0  0
    0.8875    3.1208    0.0000 C   0  0  0  0  0  0  0  0  0  0  0  0
  2  1  1  0
  3  1  1  0
  4  3  1  0
  5  2  2  0
  6  4  2  0
  7  4  1  0
  8  1  1  0
  9  2  1  0
 10  8  1  0
  9 10  1  0
M  END
> <chembl_id>
CHEMBL36715

> <chembl_pref_name>
PIRACETAM
