
     RDKit          2D

 32 33  0  0  0  0  0  0  0  0999 V2000
    4.4292   -3.4500    0.0000 Na  0  0  0  0  0 15  0  0  0  0  0  0
    1.9042   -1.2625    0.0000 C   0  0  0  0  0  0  0  0  0  0  0  0
    2.6167   -1.9875    0.0000 N   0  0  0  0  0  0  0  0  0  0  0  0
    1.9042   -1.9875    0.0000 C   0  0  0  0  0  0  0  0  0  0  0  0
    2.6292   -1.2542    0.0000 C   0  0  0  0  0  0  0  0  0  0  0  0
    5.6917   -2.3667    0.0000 C   0  0  0  0  0  0  0  0  0  0  0  0
    3.2417   -2.3417    0.0000 C   0  0  0  0  0  0  0  0  0  0  0  0
    5.9292   -3.0667    0.0000 N   0  0  0  0  0  0  0  0  0  0  0  0
    6.2667   -1.9625    0.0000 N   0  0  0  0  0  0  0  0  0  0  0  0
    6.8625   -2.3792    0.0000 N   0  0  0  0  0  0  0  0  0  0  0  0
    6.6417   -3.0667    0.0000 N   0  0  0  0  0  0  0  0  0  0  0  0
    3.2417   -0.9042    0.0000 S   0  0  0  0  0  0  0  0  0  0  0  0
    3.8625   -1.9875    0.0000 C   0  0  0  0  0  0  0  0  0  0  0  0
    1.2917   -0.9167    0.0000 N   0  0  0  0  0  0  0  0  0  0  0  0
    3.2417   -3.0417    0.0000 C   0  0  0  0  0  0  0  0  0  0  0  0
    5.0917   -2.0042    0.0000 S   0  0  0  0  0  0  0  0  0  0  0  0
   -2.3208   -1.7625    0.0000 N   0  0  0  0  0  0  0  0  0  0  0  0
    3.8625   -1.2625    0.0000 C   0  0  0  0  0  0  0  0  0  0  0  0
    0.6750   -1.2792    0.0000 C   0  0  0  0  0  0  0  0  0  0  0  0
    1.4125   -2.4792    0.0000 O   0  0  0  0  0  0  0  0  0  0  0  0
    4.4625   -2.3500    0.0000 C   0  0  0  0  0  0  0  0  0  0  0  0
   -1.7333   -1.3750    0.0000 C   0  0  0  0  0  0  0  0  0  0  0  0
    1.8917   -0.5542    0.0000 O   0  0  0  0  0  0  0  0  0  0  0  0
    3.8417   -3.3625    0.0000 O   0  0  0  0  0  0  0  0  0  0  0  0
    2.6417   -3.4417    0.0000 O   0  0  0  0  0  0  0  0  0  0  0  0
    0.7125   -1.9792    0.0000 O   0  0  0  0  0  0  0  0  0  0  0  0
    5.5250   -3.6417    0.0000 C   0  0  0  0  0  0  0  0  0  0  0  0
   -0.5250   -1.3167    0.0000 S   0  0  0  0  0  0  0  0  0  0  0  0
   -1.1583   -0.9917    0.0000 C   0  0  0  0  0  0  0  0  0  0  0  0
    0.0625   -0.9417    0.0000 C   0  0  0  0  0  0  0  0  0  0  0  0
    1.2625   -0.2208    0.0000 C   0  0  0  0  0  0  0  0  0  0  0  0
    2.6292   -0.5500    0.0000 H   0  0  0  0  0  0  0  0  0  0  0  0
  3  5  1  0
  4  2  1  0
  5  2  1  0
  6 16  1  0
  7  3  1  0
  8  6  1  0
  9  6  2  0
 10  9  1  0
 11  8  1  0
 12  5  1  0
 13 18  1  0
 14  2  1  0
 15  7  1  0
 16 21  1  0
 17 22  3  0
 18 12  1  0
 19 14  1  0
 20  4  2  0
 21 13  1  0
 22 29  1  0
  2 23  1  6
 24 15  1  0
 25 15  2  0
 26 19  2  0
 27  8  1  0
 28 30  1  0
 29 28  1  0
 30 19  1  0
 31 23  1  0
  5 32  1  6
  4  3  1  0
 13  7  2  0
 11 10  2  0
M  CHG  2   1   1  24  -1
M  END
> <chembl_id>
CHEMBL1201118

> <chembl_pref_name>
CEFMETAZOLE SODIUM
