
     RDKit          2D

 23 23  0  0  0  0  0  0  0  0999 V2000
    5.0505   -4.7871    0.0000 C   0  0  0  0  0  0  0  0  0  0  0  0
    4.8301   -5.4591    0.0000 C   0  0  0  0  0  0  0  0  0  0  0  0
    5.6716   -4.4542    0.0000 N   0  0  0  0  0  0  0  0  0  0  0  0
    4.4971   -4.3832    0.0000 S   0  0  0  0  0  0  0  0  0  0  0  0
    4.1443   -5.4556    0.0000 C   0  0  0  0  0  0  0  0  0  0  0  0
    6.2788   -4.8208    0.0000 C   0  0  0  0  0  0  0  0  0  0  0  0
    5.6716   -3.4837    0.0000 C   0  0  0  0  0  0  0  0  0  0  0  0
    3.9176   -4.7871    0.0000 C   0  0  0  0  0  0  0  0  0  0  0  0
    3.8665   -6.1406    0.0000 C   0  0  0  0  0  0  0  0  0  0  0  0
    6.8763   -4.4887    0.0000 C   0  0  0  0  0  0  0  0  0  0  0  0
    6.2788   -3.1516    0.0000 C   0  0  0  0  0  0  0  0  0  0  0  0
    3.2966   -4.4169    0.0000 C   0  0  0  0  0  0  0  0  0  0  0  0
    3.2352   -6.4736    0.0000 C   0  0  0  0  0  0  0  0  0  0  0  0
    6.8763   -3.8539    0.0000 O   0  0  0  0  0  0  0  0  0  0  0  0
    7.4766   -4.8512    0.0000 O   0  0  0  0  0  0  0  0  0  0  0  0
    6.2788   -2.4561    0.0000 O   0  0  0  0  0  0  0  0  0  0  0  0
    6.8763   -3.4707    0.0000 O   0  0  0  0  0  0  0  0  0  0  0  0
    3.2966   -3.7216    0.0000 O   0  0  0  0  0  0  0  0  0  0  0  0
    2.6721   -4.7499    0.0000 O   0  0  0  0  0  0  0  0  0  0  0  0
    3.2352   -7.1862    0.0000 O   0  0  0  0  0  0  0  0  0  0  0  0
    2.6376   -6.0966    0.0000 O   0  0  0  0  0  0  0  0  0  0  0  0
    5.2236   -6.0428    0.0000 C   0  0  0  0  0  0  0  0  0  0  0  0
    5.6275   -6.6328    0.0000 N   0  0  0  0  0  0  0  0  0  0  0  0
  1  4  1  0
  2  5  1  0
  2 22  1  0
  3  6  1  0
  3  7  1  0
  4  8  1  0
  5  9  1  0
  6 10  1  0
  7 11  1  0
  8 12  1  0
  9 13  1  0
 10 14  2  0
 10 15  1  0
 11 16  2  0
 11 17  1  0
 12 18  2  0
 12 19  1  0
 13 20  2  0
 13 21  1  0
  5  8  2  0
  1  2  2  0
  1  3  1  0
 22 23  3  0
M  END
> <chembl_id>
CHEMBL2107175

> <chembl_pref_name>
RANELIC ACID
