
     RDKit          2D

 37 37  0  0  1  0  0  0  0  0999 V2000
   -2.2208   -6.7000    0.0000 N   0  0  0  0  0  0  0  0  0  0  0  0
    2.0708   -5.6125    0.0000 C   0  0  0  0  0  0  0  0  0  0  0  0
    1.4500   -5.2708    0.0000 N   0  0  0  0  0  0  0  0  0  0  0  0
    0.8667   -5.6292    0.0000 C   0  0  0  0  0  0  0  0  0  0  0  0
   -1.5958   -6.3667    0.0000 C   0  0  0  0  0  0  0  0  0  0  0  0
    2.6833   -5.2458    0.0000 C   0  0  0  0  0  0  0  0  0  0  0  0
    0.2500   -5.2875    0.0000 C   0  0  0  0  0  0  0  0  0  0  0  0
   -2.8333   -6.3792    0.0000 O   0  0  0  0  0  0  0  0  0  0  0  0
   -2.2083   -7.4250    0.0000 O   0  0  0  0  0  0  0  0  0  0  0  0
    0.3083   -7.4167    0.0000 C   0  0  0  0  0  0  0  0  0  0  0  0
   -0.3708   -5.6417    0.0000 C   0  0  0  0  0  0  0  0  0  0  0  0
    2.0750   -6.3292    0.0000 O   0  0  0  0  0  0  0  0  0  0  0  0
    0.8833   -6.3375    0.0000 C   0  0  0  0  0  0  0  0  0  0  0  0
    0.2792   -6.7125    0.0000 O   0  0  0  0  0  0  0  0  0  0  0  0
   -0.2917   -7.8000    0.0000 O   0  0  0  0  0  0  0  0  0  0  0  0
   -0.9833   -6.6917    0.0000 C   0  0  0  0  0  0  0  0  0  0  0  0
   -1.6083   -5.6542    0.0000 C   0  0  0  0  0  0  0  0  0  0  0  0
   -0.9833   -5.2917    0.0000 C   0  0  0  0  0  0  0  0  0  0  0  0
   -0.3708   -6.3292    0.0000 C   0  0  0  0  0  0  0  0  0  0  0  0
    3.3083   -5.5958    0.0000 Cl  0  0  0  0  0  0  0  0  0  0  0  0
    2.6708   -4.5375    0.0000 Cl  0  0  0  0  0  0  0  0  0  0  0  0
    0.2417   -4.5792    0.0000 O   0  0  0  0  0  0  0  0  0  0  0  0
    0.9375   -7.7458    0.0000 C   0  0  0  0  0  0  0  0  0  0  0  0
    1.5333   -7.3667    0.0000 C   0  0  0  0  0  0  0  0  0  0  0  0
    0.9667   -8.4542    0.0000 C   0  0  0  0  0  0  0  0  0  0  0  0
    1.5958   -8.7833    0.0000 C   0  0  0  0  0  0  0  0  0  0  0  0
    3.3875   -7.6417    0.0000 C   0  0  0  0  0  0  0  0  0  0  0  0
    3.9875   -7.2625    0.0000 C   0  0  0  0  0  0  0  0  0  0  0  0
    4.6125   -7.5875    0.0000 C   0  0  0  0  0  0  0  0  0  0  0  0
    4.6458   -8.2958    0.0000 C   0  0  0  0  0  0  0  0  0  0  0  0
    4.0458   -8.6750    0.0000 C   0  0  0  0  0  0  0  0  0  0  0  0
    3.4208   -8.3500    0.0000 C   0  0  0  0  0  0  0  0  0  0  0  0
    2.8208   -8.7292    0.0000 C   0  0  0  0  0  0  0  0  0  0  0  0
    2.1917   -8.4000    0.0000 C   0  0  0  0  0  0  0  0  0  0  0  0
    2.1625   -7.6917    0.0000 C   0  0  0  0  0  0  0  0  0  0  0  0
    2.7625   -7.3125    0.0000 C   0  0  0  0  0  0  0  0  0  0  0  0
    0.3708   -8.8333    0.0000 C   0  0  0  0  0  0  0  0  0  0  0  0
  2  3  1  0
  3  4  1  0
  4  7  1  0
  5  1  1  0
  6  2  1  0
  7 11  1  0
  8  1  1  0
  9  1  2  0
 10 14  1  0
 11 18  1  0
 12  2  2  0
  4 13  1  6
 14 13  1  0
 15 10  2  0
 16  5  2  0
 17  5  1  0
 18 17  2  0
 19 16  1  0
 20  6  1  0
 21  6  1  0
  7 22  1  1
 23 10  1  0
 24 23  1  0
 25 26  1  0
 26 34  1  0
 27 36  1  0
 28 27  1  0
 29 28  1  0
 30 29  1  0
 31 30  1  0
 32 31  1  0
 33 32  1  0
 34 33  1  0
 35 24  1  0
 36 35  1  0
 37 25  1  0
 11 19  2  0
M  CHG  2   1   1   8  -1
M  END
> <chembl_id>
CHEMBL1506

> <chembl_pref_name>
CHLORAMPHENICOL PALMITATE
