
     RDKit          2D

 18 17  0  0  0  0  0  0  0  0999 V2000
    9.3625   -5.9667    0.0000 Cl  0  0  0  0  0  0  0  0  0  0  0  0
    7.2625   -5.9417    0.0000 C   0  0  0  0  0  0  0  0  0  0  0  0
    7.8542   -6.3667    0.0000 N   0  0  0  0  0  0  0  0  0  0  0  0
    2.3292   -5.7125    0.0000 C   0  0  0  0  0  0  0  0  0  0  0  0
    3.5542   -5.8167    0.0000 C   0  0  0  0  0  0  0  0  0  0  0  0
    2.9292   -6.1250    0.0000 N   0  0  0  0  0  0  0  0  0  0  0  0
    7.4917   -5.2667    0.0000 C   0  0  0  0  0  0  0  0  0  0  0  0
    1.7500   -5.3042    0.0000 N   0  0  0  0  0  0  0  0  0  0  0  0
    8.4042   -5.9500    0.0000 C   0  0  0  0  0  0  0  0  0  0  0  0
    8.1792   -5.2667    0.0000 N   0  0  0  0  0  0  0  0  0  0  0  0
    4.1542   -6.2375    0.0000 N   0  0  0  0  0  0  0  0  0  0  0  0
    3.5542   -5.1000    0.0000 N   0  0  0  0  0  0  0  0  0  0  0  0
    6.6292   -6.2417    0.0000 C   0  0  0  0  0  0  0  0  0  0  0  0
    6.0375   -5.9167    0.0000 S   0  0  0  0  0  0  0  0  0  0  0  0
    7.0917   -4.6875    0.0000 C   0  0  0  0  0  0  0  0  0  0  0  0
    4.7667   -5.8792    0.0000 C   0  0  0  0  0  0  0  0  0  0  0  0
    5.4042   -6.2292    0.0000 C   0  0  0  0  0  0  0  0  0  0  0  0
    4.1750   -4.7542    0.0000 C   0  0  0  0  0  0  0  0  0  0  0  0
  3  2  1  0
  4  6  1  0
  5 11  2  0
  6  5  1  0
  7  2  2  0
  8  4  3  0
  9  3  2  0
 10  7  1  0
 11 16  1  0
 12  5  1  0
 13  2  1  0
 14 13  1  0
 15  7  1  0
 16 17  1  0
 17 14  1  0
 18 12  1  0
 10  9  1  0
M  END
> <chembl_id>
CHEMBL1201051

> <chembl_pref_name>
CIMETIDINE HYDROCHLORIDE
