
     RDKit          2D

 24 24  0  0  1  0  0  0  0  0999 V2000
    4.5208   -5.0833    0.0000 C   0  0  0  0  0  0  0  0  0  0  0  0
    4.1583   -4.4708    0.0000 C   0  0  0  0  0  0  0  0  0  0  0  0
    4.8667   -4.4667    0.0000 C   0  0  0  0  0  0  0  0  0  0  0  0
    4.5292   -5.7958    0.0000 C   0  0  0  0  0  0  0  0  0  0  0  0
    3.9167   -6.1542    0.0000 N   0  0  0  0  0  0  0  0  0  0  0  0
    3.9167   -6.8667    0.0000 C   0  0  0  0  0  0  0  0  0  0  0  0
    4.5333   -7.2250    0.0000 C   0  0  0  0  0  0  0  0  0  0  0  0
    0.2125   -8.2875    0.0000 C   0  0  0  0  0  0  0  0  0  0  0  0
   -0.4083   -7.9292    0.0000 C   0  0  0  0  0  0  0  0  0  0  0  0
    5.1458   -6.1417    0.0000 O   0  0  0  0  0  0  0  0  0  0  0  0
    5.1458   -6.8708    0.0000 O   0  0  0  0  0  0  0  0  0  0  0  0
    4.5292   -7.9375    0.0000 O   0  0  0  0  0  0  0  0  0  0  0  0
    0.2125   -9.0000    0.0000 O   0  0  0  0  0  0  0  0  0  0  0  0
    3.2958   -7.2250    0.0000 C   0  0  0  0  0  0  0  0  0  0  0  0
   -1.0208   -8.2875    0.0000 N   0  0  0  0  0  0  0  0  0  0  0  0
    0.8250   -7.9292    0.0000 O   0  0  0  0  0  0  0  0  0  0  0  0
    3.5375   -4.8167    0.0000 C   0  0  0  0  0  0  0  0  0  0  0  0
    3.5375   -4.1125    0.0000 C   0  0  0  0  0  0  0  0  0  0  0  0
    0.2125   -6.8625    0.0000 S   0  0  0  0  0  0  0  0  0  0  0  0
   -0.4083   -7.2167    0.0000 C   0  0  0  0  0  0  0  0  0  0  0  0
    2.6792   -6.8667    0.0000 C   0  0  0  0  0  0  0  0  0  0  0  0
    0.8250   -7.2208    0.0000 C   0  0  0  0  0  0  0  0  0  0  0  0
    2.0625   -7.2208    0.0000 C   0  0  0  0  0  0  0  0  0  0  0  0
    1.4458   -6.8625    0.0000 C   0  0  0  0  0  0  0  0  0  0  0  0
  2  1  1  0
  3  1  1  0
  1  4  1  6
  5  4  1  0
  6  5  1  0
  7  6  1  0
  8  9  1  0
  9 20  1  1
 10  4  2  0
 11  7  1  0
 12  7  2  0
 13  8  2  0
 14  6  2  0
 15  9  1  0
 16  8  1  0
 17  2  1  0
 18  2  1  0
 19 22  1  0
 20 19  1  0
 21 14  1  0
 22 24  1  0
 23 21  1  0
 24 23  1  0
  3  2  1  0
M  END
> <chembl_id>
CHEMBL766

> <chembl_pref_name>
CILASTATIN
