
     RDKit          2D

 34 38  0  0  0  0  0  0  0  0999 V2000
   -0.5708    2.8708    0.0000 C   0  0  0  0  0  0  0  0  0  0  0  0
   -0.9958    2.2458    0.0000 N   0  0  0  0  0  0  0  0  0  0  0  0
   -1.0125    3.4708    0.0000 N   0  0  0  0  0  0  0  0  0  0  0  0
   -1.7333    2.4708    0.0000 C   0  0  0  0  0  0  0  0  0  0  0  0
   -1.7333    3.2083    0.0000 C   0  0  0  0  0  0  0  0  0  0  0  0
    0.1792    2.8833    0.0000 N   0  0  0  0  0  0  0  0  0  0  0  0
    1.3542    0.9833    0.0000 N   0  0  0  0  0  0  0  0  0  0  0  0
   -0.7125    1.5250    0.0000 C   0  0  0  0  0  0  0  0  0  0  0  0
    0.5667    2.2458    0.0000 C   0  0  0  0  0  0  0  0  0  0  0  0
    0.2292    1.6000    0.0000 C   0  0  0  0  0  0  0  0  0  0  0  0
    1.3292    2.2708    0.0000 C   0  0  0  0  0  0  0  0  0  0  0  0
    0.6292    0.9458    0.0000 C   0  0  0  0  0  0  0  0  0  0  0  0
    1.7042    1.6208    0.0000 C   0  0  0  0  0  0  0  0  0  0  0  0
    1.7542    0.3333    0.0000 C   0  0  0  0  0  0  0  0  0  0  0  0
   -1.1708    0.9583    0.0000 C   0  0  0  0  0  0  0  0  0  0  0  0
   -2.1583   -0.2000    0.0000 C   0  0  0  0  0  0  0  0  0  0  0  0
    1.8292   -0.9917    0.0000 C   0  0  0  0  0  0  0  0  0  0  0  0
    2.5542   -2.2792    0.0000 C   0  0  0  0  0  0  0  0  0  0  0  0
   -2.6333   -0.7792    0.0000 F   0  0  0  0  0  0  0  0  0  0  0  0
    1.4000   -0.3292    0.0000 C   0  0  0  0  0  0  0  0  0  0  0  0
   -1.9208    1.0833    0.0000 C   0  0  0  0  0  0  0  0  0  0  0  0
   -0.9083    0.2375    0.0000 C   0  0  0  0  0  0  0  0  0  0  0  0
   -2.4083    0.4875    0.0000 C   0  0  0  0  0  0  0  0  0  0  0  0
   -1.3958   -0.3292    0.0000 C   0  0  0  0  0  0  0  0  0  0  0  0
    1.4292   -1.6792    0.0000 C   0  0  0  0  0  0  0  0  0  0  0  0
    2.5375   -0.9667    0.0000 C   0  0  0  0  0  0  0  0  0  0  0  0
    1.8292   -2.3000    0.0000 C   0  0  0  0  0  0  0  0  0  0  0  0
    2.9542   -1.6292    0.0000 C   0  0  0  0  0  0  0  0  0  0  0  0
   -2.3958    2.0833    0.0000 C   0  0  0  0  0  0  0  0  0  0  0  0
    2.9875   -2.9375    0.0000 O   0  0  0  0  0  0  0  0  0  0  0  0
   -2.4000    3.5958    0.0000 C   0  0  0  0  0  0  0  0  0  0  0  0
    2.6292   -3.5917    0.0000 C   0  0  0  0  0  0  0  0  0  0  0  0
   -3.0250    2.4333    0.0000 C   0  0  0  0  0  0  0  0  0  0  0  0
   -3.0458    3.2083    0.0000 C   0  0  0  0  0  0  0  0  0  0  0  0
  2  1  1  0
  3  1  2  0
  4  2  1  0
  5  3  1  0
  6  1  1  0
  7 13  1  0
  8  2  1  0
  9  6  1  0
 10  9  1  0
 11  9  1  0
 12 10  1  0
 13 11  1  0
 14  7  1  0
 15  8  1  0
 16 24  2  0
 17 20  1  0
 18 28  2  0
 19 16  1  0
 20 14  1  0
 21 15  1  0
 22 15  2  0
 23 21  2  0
 24 22  1  0
 25 17  1  0
 26 17  2  0
 27 25  2  0
 28 26  1  0
 29  4  1  0
 30 18  1  0
 31  5  1  0
 32 30  1  0
 33 29  2  0
 34 31  2  0
  4  5  2  0
 12  7  1  0
 33 34  1  0
 23 16  1  0
 27 18  1  0
M  END
> <chembl_id>
CHEMBL296419

> <chembl_pref_name>
ASTEMIZOLE
