
     RDKit          2D

 20 20  0  0  0  0  0  0  0  0999 V2000
   18.5067  -24.4101    0.0000 S   0  0  0  0  0  0  0  0  0  0  0  0
   12.1696  -24.8314    0.0000 C   0  0  0  0  0  0  0  0  0  0  0  0
   12.8329  -24.3433    0.0000 N   0  0  0  0  0  0  0  0  0  0  0  0
   17.7892  -24.8314    0.0000 N   0  0  0  0  0  0  0  0  0  0  0  0
   11.4603  -24.4101    0.0000 N   0  0  0  0  0  0  0  0  0  0  0  0
   10.7428  -24.8314    0.0000 C   0  0  0  0  0  0  0  0  0  0  0  0
   12.4240  -25.6157    0.0000 S   0  0  0  0  0  0  0  0  0  0  0  0
   13.5046  -24.8314    0.0000 C   0  0  0  0  0  0  0  0  0  0  0  0
   17.0716  -24.4101    0.0000 C   0  0  0  0  0  0  0  0  0  0  0  0
   13.2501  -25.6157    0.0000 C   0  0  0  0  0  0  0  0  0  0  0  0
   18.9114  -23.7008    0.0000 O   0  0  0  0  0  0  0  0  0  0  0  0
   18.0896  -23.7008    0.0000 O   0  0  0  0  0  0  0  0  0  0  0  0
   10.0252  -24.4101    0.0000 N   0  0  0  0  0  0  0  0  0  0  0  0
   17.0758  -23.5882    0.0000 N   0  0  0  0  0  0  0  0  0  0  0  0
   19.2160  -24.8314    0.0000 N   0  0  0  0  0  0  0  0  0  0  0  0
   16.3624  -24.8314    0.0000 C   0  0  0  0  0  0  0  0  0  0  0  0
   10.7428  -25.6575    0.0000 N   0  0  0  0  0  0  0  0  0  0  0  0
   14.9314  -24.8314    0.0000 S   0  0  0  0  0  0  0  0  0  0  0  0
   14.2180  -24.4101    0.0000 C   0  0  0  0  0  0  0  0  0  0  0  0
   15.6531  -24.4101    0.0000 C   0  0  0  0  0  0  0  0  0  0  0  0
  2  3  2  0
  3  8  1  0
  4  1  1  0
  5  2  1  0
  6  5  2  0
  7 10  1  0
  8 19  1  0
  9  4  2  0
 10  8  2  0
 11  1  2  0
 12  1  2  0
 13  6  1  0
 14  9  1  0
 15  1  1  0
 16  9  1  0
 17  6  1  0
 18 20  1  0
 19 18  1  0
 20 16  1  0
  2  7  1  0
M  END
> <chembl_id>
CHEMBL902

> <chembl_pref_name>
FAMOTIDINE
