
     RDKit          2D

 35 39  0  0  1  0  0  0  0  0999 V2000
    0.4000   -1.3167    0.0000 C   0  0  0  0  0  0  0  0  0  0  0  0
    2.1792   -0.2792    0.0000 C   0  0  0  0  0  0  0  0  0  0  0  0
   -0.5000   -1.8375    0.0000 C   0  0  0  0  0  0  0  0  0  0  0  0
    1.2875   -1.8375    0.0000 C   0  0  0  0  0  0  0  0  0  0  0  0
    0.4000   -0.2792    0.0000 C   0  0  0  0  0  0  0  0  0  0  0  0
    2.1792   -1.3167    0.0000 C   0  0  0  0  0  0  0  0  0  0  0  0
   -0.5000   -2.8792    0.0000 C   0  0  0  0  0  0  0  0  0  0  0  0
    1.2875    0.2333    0.0000 C   0  0  0  0  0  0  0  0  0  0  0  0
    3.1625    0.0333    0.0000 C   0  0  0  0  0  0  0  0  0  0  0  0
   -1.3958   -3.3917    0.0000 C   0  0  0  0  0  0  0  0  0  0  0  0
    1.2875   -2.8792    0.0000 C   0  0  0  0  0  0  0  0  0  0  0  0
   -1.3958   -1.3167    0.0000 C   0  0  0  0  0  0  0  0  0  0  0  0
    3.1625   -1.6375    0.0000 C   0  0  0  0  0  0  0  0  0  0  0  0
   -0.5000    0.2333    0.0000 C   0  0  0  0  0  0  0  0  0  0  0  0
    0.4000   -3.3917    0.0000 C   0  0  0  0  0  0  0  0  0  0  0  0
   -2.2875   -2.8792    0.0000 C   0  0  0  0  0  0  0  0  0  0  0  0
   -2.2875    1.2708    0.0000 C   0  0  0  0  0  0  0  0  0  0  0  0
    3.7667   -0.8000    0.0000 C   0  0  0  0  0  0  0  0  0  0  0  0
   -3.1958    1.7958    0.0000 N   0  0  0  0  0  0  0  0  0  0  0  0
   -1.3958   -0.2792    0.0000 C   0  0  0  0  0  0  0  0  0  0  0  0
   -0.5000    1.2708    0.0000 C   0  0  0  0  0  0  0  0  0  0  0  0
   -1.3958    1.7833    0.0000 C   0  0  0  0  0  0  0  0  0  0  0  0
   -2.2875    0.2333    0.0000 C   0  0  0  0  0  0  0  0  0  0  0  0
   -3.1958   -3.4000    0.0000 O   0  0  0  0  0  0  0  0  0  0  0  0
   -2.2875   -1.8375    0.0000 C   0  0  0  0  0  0  0  0  0  0  0  0
    4.0042    0.6458    0.0000 O   0  0  0  0  0  0  0  0  0  0  0  0
    2.1792    0.6208    0.0000 C   0  0  0  0  0  0  0  0  0  0  0  0
    3.4375    1.0333    0.0000 C   0  0  0  0  0  0  0  0  0  0  0  0
    2.2417    3.4833    0.0000 O   0  0  0  0  0  0  0  0  0  0  0  0
   -3.1833    2.8333    0.0000 C   0  0  0  0  0  0  0  0  0  0  0  0
   -4.0833    1.2833    0.0000 C   0  0  0  0  0  0  0  0  0  0  0  0
    2.9792    2.7458    0.0000 C   0  0  0  0  0  0  0  0  0  0  0  0
    2.7125    1.7625    0.0000 C   0  0  0  0  0  0  0  0  0  0  0  0
    1.2417   -0.7917    0.0000 H   0  0  0  0  0  0  0  0  0  0  0  0
    2.1792   -2.2792    0.0000 H   0  0  0  0  0  0  0  0  0  0  0  0
  2  8  1  0
  3  1  2  0
  4  1  1  0
  5  1  1  0
  6  4  1  0
  7  3  1  0
  8  5  1  0
  9  2  1  0
 10  7  2  0
 11  4  1  0
 12  3  1  0
 13  6  1  0
  5 14  1  1
 15 11  1  0
 16 25  1  0
 17 22  2  0
 18 13  1  0
 19 17  1  0
 20 14  1  0
 21 14  2  0
 22 21  1  0
 23 20  2  0
 24 16  2  0
 25 12  1  0
  9 26  1  6
  2 27  1  6
 28  9  1  0
 29 32  1  0
 30 19  1  0
 31 19  1  0
 32 33  1  0
 33 28  1  0
  4 34  1  1
  6 35  1  6
  6  2  1  0
  7 15  1  0
 23 17  1  0
  9 18  1  0
 10 16  1  0
M  END
> <chembl_id>
CHEMBL1908373

> <chembl_pref_name>
ONAPRISTONE
