
     RDKit          2D

 46 53  0  0  1  0  0  0  0  0999 V2000
   12.8538    3.3285    0.0000 C   0  0  0  0  0  0  0  0  0  0  0  0
   12.8538    2.5035    0.0000 O   0  0  0  0  0  0  0  0  0  0  0  0
   12.1394    2.0910    0.0000 C   0  0  0  0  0  0  0  0  0  0  0  0
   12.1394    1.2660    0.0000 C   0  0  0  0  0  0  0  0  0  0  0  0
   11.4249    0.8535    0.0000 C   0  0  0  0  0  0  0  0  0  0  0  0
   10.7104    1.2660    0.0000 C   0  0  0  0  0  0  0  0  0  0  0  0
   10.7104    2.0910    0.0000 C   0  0  0  0  0  0  0  0  0  0  0  0
    9.9960    2.5035    0.0000 O   0  0  0  0  0  0  0  0  0  0  0  0
    9.9960    3.3285    0.0000 C   0  0  0  0  0  0  0  0  0  0  0  0
   11.4249    2.5035    0.0000 C   0  0  0  0  0  0  0  0  0  0  0  0
   11.4249    3.3285    0.0000 O   0  0  0  0  0  0  0  0  0  0  0  0
   11.4249    0.0285    0.0000 C   0  0  0  0  0  0  0  0  0  0  0  0
   12.1394   -0.3840    0.0000 C   0  0  0  0  0  0  0  0  0  0  0  0
   12.1394   -1.2090    0.0000 C   0  0  0  0  0  0  0  0  0  0  0  0
   12.9240   -1.4639    0.0000 C   0  0  0  0  0  0  0  0  0  0  0  0
   13.4089   -0.7965    0.0000 O   0  0  0  0  0  0  0  0  0  0  0  0
   12.9240   -0.1291    0.0000 C   0  0  0  0  0  0  0  0  0  0  0  0
   13.1789    0.6556    0.0000 O   0  0  0  0  0  0  0  0  0  0  0  0
   11.4249   -1.6215    0.0000 C   0  0  0  0  0  0  0  0  0  0  0  0
   11.4249   -2.4465    0.0000 O   0  0  0  0  0  0  0  0  0  0  0  0
   10.7104   -1.2090    0.0000 C   0  0  0  0  0  0  0  0  0  0  0  0
    9.9960   -1.6215    0.0000 C   0  0  0  0  0  0  0  0  0  0  0  0
    9.2815   -1.2090    0.0000 C   0  0  0  0  0  0  0  0  0  0  0  0
    8.4969   -1.4639    0.0000 O   0  0  0  0  0  0  0  0  0  0  0  0
    8.0119   -0.7965    0.0000 C   0  0  0  0  0  0  0  0  0  0  0  0
    8.4969   -0.1291    0.0000 O   0  0  0  0  0  0  0  0  0  0  0  0
    9.2815   -0.3840    0.0000 C   0  0  0  0  0  0  0  0  0  0  0  0
    9.9960    0.0285    0.0000 C   0  0  0  0  0  0  0  0  0  0  0  0
   10.7104   -0.3840    0.0000 C   0  0  0  0  0  0  0  0  0  0  0  0
   12.1394   -2.8590    0.0000 C   0  0  0  0  0  0  0  0  0  0  0  0
   12.8538   -2.4465    0.0000 O   0  0  0  0  0  0  0  0  0  0  0  0
   13.5683   -2.8590    0.0000 C   0  0  0  0  0  0  0  0  0  0  0  0
   13.5683   -3.6840    0.0000 C   0  0  0  0  0  0  0  0  0  0  0  0
   12.8538   -4.0965    0.0000 C   0  0  0  0  0  0  0  0  0  0  0  0
   12.1394   -3.6840    0.0000 C   0  0  0  0  0  0  0  0  0  0  0  0
   14.2828   -2.4465    0.0000 C   0  0  0  0  0  0  0  0  0  0  0  0
   14.9972   -2.8590    0.0000 O   0  0  0  0  0  0  0  0  0  0  0  0
   12.8538   -4.9215    0.0000 O   0  0  0  0  0  0  0  0  0  0  0  0
   11.4249   -4.0965    0.0000 O   0  0  0  0  0  0  0  0  0  0  0  0
   14.2828   -4.0965    0.0000 O   0  0  0  0  0  0  0  0  0  0  0  0
   14.9972   -3.6840    0.0000 C   0  0  0  0  0  0  0  0  0  0  0  0
   15.7117   -4.0965    0.0000 C   0  0  0  0  0  0  0  0  0  0  0  0
   16.4654   -3.7610    0.0000 S   0  0  0  0  0  0  0  0  0  0  0  0
   17.0174   -4.3740    0.0000 C   0  0  0  0  0  0  0  0  0  0  0  0
   16.6049   -5.0885    0.0000 C   0  0  0  0  0  0  0  0  0  0  0  0
   15.7980   -4.9170    0.0000 C   0  0  0  0  0  0  0  0  0  0  0  0
  1  2  1  0
  2  3  1  0
  3  4  2  0
  4  5  1  0
  5  6  2  0
  6  7  1  0
  7  8  1  0
  8  9  1  0
  7 10  2  0
  3 10  1  0
 10 11  1  0
 12  5  1  1
 12 13  1  0
 13 14  1  0
 14 15  1  6
 15 16  1  0
 16 17  1  0
 13 17  1  1
 17 18  2  0
 14 19  1  0
 19 20  1  6
 19 21  1  0
 21 22  2  0
 22 23  1  0
 23 24  1  0
 24 25  1  0
 25 26  1  0
 26 27  1  0
 23 27  2  0
 27 28  1  0
 28 29  2  0
 12 29  1  0
 21 29  1  0
 31 32  1  0
 32 33  1  0
 33 34  1  0
 34 35  1  0
 30 31  1  0
 35 30  1  0
 36 37  1  0
 34 38  1  6
 35 39  1  1
 32 36  1  6
 30 20  1  6
 33 40  1  1
 40 41  1  0
 37 41  1  0
 41 42  1  1
 43 44  1  0
 44 45  2  0
 45 46  1  0
 42 43  1  0
 42 46  2  0
M  END
> <chembl_id>
CHEMBL452231

> <chembl_pref_name>
TENIPOSIDE
