
     RDKit          2D

 23 24  0  0  0  0  0  0  0  0999 V2000
    6.6417   -7.0292    0.0000 K   0  0  0  0  0 15  0  0  0  0  0  0
    2.4625   -7.6875    0.0000 C   0  0  0  0  0  0  0  0  0  0  0  0
    2.2458   -7.0125    0.0000 C   0  0  0  0  0  0  0  0  0  0  0  0
    3.1750   -7.6875    0.0000 N   0  0  0  0  0  0  0  0  0  0  0  0
    2.8167   -6.5917    0.0000 O   0  0  0  0  0  0  0  0  0  0  0  0
    3.3917   -7.0125    0.0000 C   0  0  0  0  0  0  0  0  0  0  0  0
    5.2292   -6.6375    0.0000 C   0  0  0  0  0  0  0  0  0  0  0  0
    1.8417   -8.0375    0.0000 C   0  0  0  0  0  0  0  0  0  0  0  0
    1.6292   -6.6542    0.0000 C   0  0  0  0  0  0  0  0  0  0  0  0
    5.8458   -6.9833    0.0000 O   0  0  0  0  0  0  0  0  0  0  0  0
    5.2208   -5.9292    0.0000 O   0  0  0  0  0  0  0  0  0  0  0  0
    4.0042   -6.6542    0.0000 C   0  0  0  0  0  0  0  0  0  0  0  0
    4.6208   -7.0000    0.0000 C   0  0  0  0  0  0  0  0  0  0  0  0
    1.0125   -7.0125    0.0000 C   0  0  0  0  0  0  0  0  0  0  0  0
    1.2292   -7.6708    0.0000 C   0  0  0  0  0  0  0  0  0  0  0  0
    1.8375   -8.7458    0.0000 C   0  0  0  0  0  0  0  0  0  0  0  0
    1.6292   -5.9417    0.0000 C   0  0  0  0  0  0  0  0  0  0  0  0
    0.6083   -8.0208    0.0000 C   0  0  0  0  0  0  0  0  0  0  0  0
    1.2208   -9.0958    0.0000 C   0  0  0  0  0  0  0  0  0  0  0  0
    1.0125   -5.5833    0.0000 C   0  0  0  0  0  0  0  0  0  0  0  0
    0.3958   -6.6583    0.0000 C   0  0  0  0  0  0  0  0  0  0  0  0
    0.6042   -8.7333    0.0000 C   0  0  0  0  0  0  0  0  0  0  0  0
    0.3917   -5.9417    0.0000 C   0  0  0  0  0  0  0  0  0  0  0  0
  3  2  2  0
  4  2  1  0
  5  3  1  0
  6  4  2  0
  7 13  1  0
  8  2  1  0
  9  3  1  0
 10  7  1  0
 11  7  2  0
 12  6  1  0
 13 12  1  0
 14  9  1  0
 15  8  2  0
 16  8  1  0
 17  9  2  0
 18 15  1  0
 19 16  2  0
 20 17  1  0
 21 14  2  0
 22 19  1  0
 23 20  2  0
  5  6  1  0
 22 18  2  0
 21 23  1  0
M  CHG  2   1   1  10  -1
M  END
> <chembl_id>
CHEMBL1200463

> <chembl_pref_name>
OXAPROZIN POTASSIUM
