
     RDKit          2D

 42 45  0  0  0  0  0  0  0  0999 V2000
   14.6269  -13.2585    0.0000 N   0  0  0  0  0  0  0  0  0  0  0  0
   13.8034  -13.2585    0.0000 C   0  0  0  0  0  0  0  0  0  0  0  0
   13.8034  -12.4398    0.0000 C   0  0  0  0  0  0  0  0  0  0  0  0
   14.6269  -12.4398    0.0000 C   0  0  0  0  0  0  0  0  0  0  0  0
   15.3293  -13.6702    0.0000 C   0  0  0  0  0  0  0  0  0  0  0  0
   10.9355  -12.4059    0.0000 C   0  0  0  0  0  0  0  0  0  0  0  0
   11.6525  -11.9942    0.0000 C   0  0  0  0  0  0  0  0  0  0  0  0
   10.6690  -13.1906    0.0000 N   0  0  0  0  0  0  0  0  0  0  0  0
   13.0913  -12.0184    0.0000 N   0  0  0  0  0  0  0  0  0  0  0  0
   12.3694  -12.4204    0.0000 C   0  0  0  0  0  0  0  0  0  0  0  0
   15.3438  -12.0233    0.0000 S   0  0  0  0  0  0  0  0  0  0  0  0
   16.0511  -13.2633    0.0000 C   0  0  0  0  0  0  0  0  0  0  0  0
    9.8359  -13.1713    0.0000 C   0  0  0  0  0  0  0  0  0  0  0  0
   10.2719  -11.9021    0.0000 C   0  0  0  0  0  0  0  0  0  0  0  0
   17.4753  -12.4398    0.0000 C   0  0  0  0  0  0  0  0  0  0  0  0
   15.3293  -14.4938    0.0000 C   0  0  0  0  0  0  0  0  0  0  0  0
    9.5985  -12.3768    0.0000 S   0  0  0  0  0  0  0  0  0  0  0  0
   17.8773  -11.1706    0.0000 N   0  0  0  0  0  0  0  0  0  0  0  0
   16.7632  -13.6800    0.0000 C   0  0  0  0  0  0  0  0  0  0  0  0
   18.1341  -11.9506    0.0000 C   0  0  0  0  0  0  0  0  0  0  0  0
   17.4753  -13.2585    0.0000 C   0  0  0  0  0  0  0  0  0  0  0  0
   18.1874  -14.4889    0.0000 C   0  0  0  0  0  0  0  0  0  0  0  0
   17.0538  -11.1755    0.0000 C   0  0  0  0  0  0  0  0  0  0  0  0
   16.8068  -11.9602    0.0000 S   0  0  0  0  0  0  0  0  0  0  0  0
   16.0559  -12.4398    0.0000 C   0  0  0  0  0  0  0  0  0  0  0  0
   11.6573  -11.1706    0.0000 N   0  0  0  0  0  0  0  0  0  0  0  0
   13.2172  -13.8495    0.0000 O   0  0  0  0  0  0  0  0  0  0  0  0
   18.8995  -14.9007    0.0000 C   0  0  0  0  0  0  0  0  0  0  0  0
   12.3549  -13.2488    0.0000 O   0  0  0  0  0  0  0  0  0  0  0  0
   16.0414  -14.9104    0.0000 O   0  0  0  0  0  0  0  0  0  0  0  0
   17.4656  -14.9007    0.0000 O   0  0  0  0  0  0  0  0  0  0  0  0
   16.7535  -14.4938    0.0000 C   0  0  0  0  0  0  0  0  0  0  0  0
   14.6123  -14.9055    0.0000 O   0  0  0  0  0  0  0  0  0  0  0  0
   18.1825  -13.6606    0.0000 O   0  0  0  0  0  0  0  0  0  0  0  0
    9.3418  -13.8253    0.0000 N   0  0  0  0  0  0  0  0  0  0  0  0
   12.3694  -10.7685    0.0000 O   0  0  0  0  0  0  0  0  0  0  0  0
   18.9286  -12.2024    0.0000 C   0  0  0  0  0  0  0  0  0  0  0  0
   19.6165  -14.4793    0.0000 C   0  0  0  0  0  0  0  0  0  0  0  0
   19.3064  -15.6129    0.0000 C   0  0  0  0  0  0  0  0  0  0  0  0
   18.4829  -15.6129    0.0000 C   0  0  0  0  0  0  0  0  0  0  0  0
   12.3888   -9.9402    0.0000 C   0  0  0  0  0  0  0  0  0  0  0  0
   14.6269  -11.6018    0.0000 H   0  0  0  0  0  0  0  0  0  0  0  0
  2  1  1  0
  3  2  1  0
  4  1  1  0
  5  1  1  0
  6  7  1  0
  7 10  1  0
  8  6  1  0
  3  9  1  1
 10  9  1  0
 11  4  1  0
 12  5  2  0
 13  8  2  0
 14  6  2  0
 15 21  1  0
 16  5  1  0
 17 14  1  0
 18 20  1  0
 19 12  1  0
 20 15  2  0
 21 19  2  0
 22 31  1  0
 23 24  1  0
 24 15  1  0
 25 12  1  0
 26  7  2  0
 27  2  2  0
 28 22  1  0
 29 10  2  0
 30 16  1  0
 31 32  1  0
 32 30  1  0
 33 16  2  0
 34 22  2  0
 35 13  1  0
 36 26  1  0
 37 20  1  0
 38 28  1  0
 39 28  1  0
 40 28  1  0
 41 36  1  0
  4 42  1  6
  3  4  1  0
 11 25  1  0
 23 18  2  0
 17 13  1  0
M  END
> <chembl_id>
CHEMBL454446

> <chembl_pref_name>
CEFDITOREN PIVOXIL
