
     RDKit          2D

103103  0  0  0  0  0  0  0  0999 V2000
    7.5448   -7.9875    0.0000 S   0  0  0  0  0  0  0  0  0  0  0  0
    7.9529   -7.2684    0.0000 O   0  0  0  0  0  0  0  0  0  0  0  0
    7.1270   -7.2684    0.0000 O   0  0  0  0  0  0  0  0  0  0  0  0
    6.8306   -8.4053    0.0000 O   0  0  0  0  0  0  0  0  0  0  0  0
    8.2590   -8.4053    0.0000 O   0  0  0  0  0  0  0  0  0  0  0  0
   -0.5198   -7.5499    0.0000 C   0  0  0  0  0  0  0  0  0  0  0  0
   -1.9482   -7.5548    0.0000 N   0  0  0  0  0  0  0  0  0  0  0  0
   -2.6527   -7.9629    0.0000 C   0  0  0  0  0  0  0  0  0  0  0  0
   -0.5198   -6.7240    0.0000 N   0  0  0  0  0  0  0  0  0  0  0  0
   -1.2340   -7.9629    0.0000 C   0  0  0  0  0  0  0  0  0  0  0  0
   -0.5198   -5.0916    0.0000 N   0  0  0  0  0  0  0  0  0  0  0  0
   -2.6527   -5.5094    0.0000 N   0  0  0  0  0  0  0  0  0  0  0  0
    0.1944   -6.3159    0.0000 C   0  0  0  0  0  0  0  0  0  0  0  0
   -1.2340   -5.4997    0.0000 C   0  0  0  0  0  0  0  0  0  0  0  0
    0.1944   -5.4997    0.0000 C   0  0  0  0  0  0  0  0  0  0  0  0
   -3.3669   -5.1013    0.0000 C   0  0  0  0  0  0  0  0  0  0  0  0
   -1.9482   -5.0916    0.0000 C   0  0  0  0  0  0  0  0  0  0  0  0
   -3.3669   -7.5548    0.0000 C   0  0  0  0  0  0  0  0  0  0  0  0
   -1.9288   -9.1969    0.0000 N   0  0  0  0  0  0  0  0  0  0  0  0
   -1.9288  -10.0277    0.0000 C   0  0  0  0  0  0  0  0  0  0  0  0
   -2.6527   -8.7937    0.0000 C   0  0  0  0  0  0  0  0  0  0  0  0
   -3.3669   -6.7386    0.0000 N   0  0  0  0  0  0  0  0  0  0  0  0
    0.1944   -7.9580    0.0000 C   0  0  0  0  0  0  0  0  0  0  0  0
   -4.0810   -5.4997    0.0000 C   0  0  0  0  0  0  0  0  0  0  0  0
    1.6227   -7.9580    0.0000 C   0  0  0  0  0  0  0  0  0  0  0  0
    2.3369   -5.0818    0.0000 C   0  0  0  0  0  0  0  0  0  0  0  0
   -2.6478  -10.4407    0.0000 N   0  0  0  0  0  0  0  0  0  0  0  0
    0.9086   -7.5450    0.0000 N   0  0  0  0  0  0  0  0  0  0  0  0
    3.0511   -5.4899    0.0000 C   0  0  0  0  0  0  0  0  0  0  0  0
   -1.2146  -10.4407    0.0000 N   0  0  0  0  0  0  0  0  0  0  0  0
   -4.0810   -6.3305    0.0000 C   0  0  0  0  0  0  0  0  0  0  0  0
    0.9086   -5.0818    0.0000 C   0  0  0  0  0  0  0  0  0  0  0  0
    1.6227   -5.4948    0.0000 N   0  0  0  0  0  0  0  0  0  0  0  0
   -1.2292   -8.7888    0.0000 O   0  0  0  0  0  0  0  0  0  0  0  0
   -1.2292   -6.3305    0.0000 O   0  0  0  0  0  0  0  0  0  0  0  0
    0.9086   -6.7337    0.0000 O   0  0  0  0  0  0  0  0  0  0  0  0
   -3.3669   -4.2754    0.0000 O   0  0  0  0  0  0  0  0  0  0  0  0
   -4.0859   -7.9726    0.0000 O   0  0  0  0  0  0  0  0  0  0  0  0
    1.6275   -8.7839    0.0000 O   0  0  0  0  0  0  0  0  0  0  0  0
    2.3369   -4.2559    0.0000 O   0  0  0  0  0  0  0  0  0  0  0  0
    2.3369   -7.5402    0.0000 N   0  0  0  0  0  0  0  0  0  0  0  0
   -4.7903   -5.1062    0.0000 N   0  0  0  0  0  0  0  0  0  0  0  0
   -3.3620   -9.2066    0.0000 C   0  0  0  0  0  0  0  0  0  0  0  0
   -3.3620  -10.0277    0.0000 C   0  0  0  0  0  0  0  0  0  0  0  0
   -1.9482   -4.2705    0.0000 C   0  0  0  0  0  0  0  0  0  0  0  0
    3.7653   -5.0770    0.0000 C   0  0  0  0  0  0  0  0  0  0  0  0
    3.7653   -4.2510    0.0000 N   0  0  0  0  0  0  0  0  0  0  0  0
    6.6268   -5.0721    0.0000 N   0  0  0  0  0  0  0  0  0  0  0  0
   -1.2340   -3.8527    0.0000 O   0  0  0  0  0  0  0  0  0  0  0  0
    5.9126   -5.4851    0.0000 C   0  0  0  0  0  0  0  0  0  0  0  0
    4.4842   -5.4899    0.0000 C   0  0  0  0  0  0  0  0  0  0  0  0
    5.1984   -5.0721    0.0000 C   0  0  0  0  0  0  0  0  0  0  0  0
   10.7109   -9.4314    0.0000 S   0  0  0  0  0  0  0  0  0  0  0  0
   11.1190   -8.7123    0.0000 O   0  0  0  0  0  0  0  0  0  0  0  0
   10.2932   -8.7123    0.0000 O   0  0  0  0  0  0  0  0  0  0  0  0
    9.9968   -9.8492    0.0000 O   0  0  0  0  0  0  0  0  0  0  0  0
   11.4251   -9.8492    0.0000 O   0  0  0  0  0  0  0  0  0  0  0  0
    4.2045  -14.2947    0.0000 C   0  0  0  0  0  0  0  0  0  0  0  0
    2.7762  -14.2996    0.0000 N   0  0  0  0  0  0  0  0  0  0  0  0
    2.0717  -14.7077    0.0000 C   0  0  0  0  0  0  0  0  0  0  0  0
    4.2045  -13.4688    0.0000 N   0  0  0  0  0  0  0  0  0  0  0  0
    3.4904  -14.7077    0.0000 C   0  0  0  0  0  0  0  0  0  0  0  0
    4.2045  -11.8364    0.0000 N   0  0  0  0  0  0  0  0  0  0  0  0
    2.0717  -12.2542    0.0000 N   0  0  0  0  0  0  0  0  0  0  0  0
    4.9187  -13.0607    0.0000 C   0  0  0  0  0  0  0  0  0  0  0  0
    3.4904  -12.2445    0.0000 C   0  0  0  0  0  0  0  0  0  0  0  0
    4.9187  -12.2445    0.0000 C   0  0  0  0  0  0  0  0  0  0  0  0
    1.3575  -11.8461    0.0000 C   0  0  0  0  0  0  0  0  0  0  0  0
    2.7762  -11.8364    0.0000 C   0  0  0  0  0  0  0  0  0  0  0  0
    1.3575  -14.2996    0.0000 C   0  0  0  0  0  0  0  0  0  0  0  0
    2.7955  -15.9417    0.0000 N   0  0  0  0  0  0  0  0  0  0  0  0
    2.7955  -16.7725    0.0000 C   0  0  0  0  0  0  0  0  0  0  0  0
    2.0717  -15.5385    0.0000 C   0  0  0  0  0  0  0  0  0  0  0  0
    1.3575  -13.4834    0.0000 N   0  0  0  0  0  0  0  0  0  0  0  0
    4.9187  -14.7028    0.0000 C   0  0  0  0  0  0  0  0  0  0  0  0
    0.6433  -12.2445    0.0000 C   0  0  0  0  0  0  0  0  0  0  0  0
    6.3471  -14.7028    0.0000 C   0  0  0  0  0  0  0  0  0  0  0  0
    7.0613  -11.8266    0.0000 C   0  0  0  0  0  0  0  0  0  0  0  0
    2.0766  -17.1855    0.0000 N   0  0  0  0  0  0  0  0  0  0  0  0
    5.6329  -14.2898    0.0000 N   0  0  0  0  0  0  0  0  0  0  0  0
    7.7755  -12.2347    0.0000 C   0  0  0  0  0  0  0  0  0  0  0  0
    3.5097  -17.1855    0.0000 N   0  0  0  0  0  0  0  0  0  0  0  0
    0.6433  -13.0753    0.0000 C   0  0  0  0  0  0  0  0  0  0  0  0
    5.6329  -11.8266    0.0000 C   0  0  0  0  0  0  0  0  0  0  0  0
    6.3471  -12.2396    0.0000 N   0  0  0  0  0  0  0  0  0  0  0  0
    3.4951  -15.5336    0.0000 O   0  0  0  0  0  0  0  0  0  0  0  0
    3.4951  -13.0753    0.0000 O   0  0  0  0  0  0  0  0  0  0  0  0
    5.6329  -13.4785    0.0000 O   0  0  0  0  0  0  0  0  0  0  0  0
    1.3575  -11.0202    0.0000 O   0  0  0  0  0  0  0  0  0  0  0  0
    0.6384  -14.7174    0.0000 O   0  0  0  0  0  0  0  0  0  0  0  0
    6.3519  -15.5287    0.0000 O   0  0  0  0  0  0  0  0  0  0  0  0
    7.0613  -11.0007    0.0000 O   0  0  0  0  0  0  0  0  0  0  0  0
    7.0613  -14.2850    0.0000 N   0  0  0  0  0  0  0  0  0  0  0  0
   -0.0660  -11.8510    0.0000 N   0  0  0  0  0  0  0  0  0  0  0  0
    1.3624  -15.9514    0.0000 C   0  0  0  0  0  0  0  0  0  0  0  0
    1.3624  -16.7725    0.0000 C   0  0  0  0  0  0  0  0  0  0  0  0
    2.7762  -11.0153    0.0000 C   0  0  0  0  0  0  0  0  0  0  0  0
    8.4896  -11.8218    0.0000 C   0  0  0  0  0  0  0  0  0  0  0  0
    8.4896  -10.9958    0.0000 N   0  0  0  0  0  0  0  0  0  0  0  0
   11.3511  -11.8169    0.0000 N   0  0  0  0  0  0  0  0  0  0  0  0
   10.6370  -12.2299    0.0000 C   0  0  0  0  0  0  0  0  0  0  0  0
    9.2086  -12.2347    0.0000 C   0  0  0  0  0  0  0  0  0  0  0  0
    9.9228  -11.8169    0.0000 C   0  0  0  0  0  0  0  0  0  0  0  0
  2  1  2  0
  3  1  2  0
  4  1  1  0
  5  1  1  0
  7 10  1  0
  8  7  1  0
  9  6  1  0
 10  6  1  0
 11 15  1  0
 12 17  1  0
 13  9  1  0
 14 11  1  0
 15 13  1  0
 16 12  1  0
 17 14  1  0
 18  8  1  0
 19 21  1  0
 20 19  1  0
  8 21  1  1
 22 18  1  0
 23  6  2  0
 24 31  1  0
 25 28  1  0
 26 33  1  0
 27 20  1  0
 28 23  1  0
 29 26  1  0
 30 20  2  0
 31 22  1  0
 15 32  1  1
 33 32  1  0
 34 10  2  0
 35 14  2  0
 36 13  2  0
 37 16  2  0
 38 18  2  0
 39 25  2  0
 40 26  2  0
 41 25  1  0
 24 42  1  6
 43 21  1  0
 44 43  1  0
 17 45  1  1
 46 29  1  0
 47 46  1  0
 48 50  1  0
 49 45  1  0
 50 52  1  0
 51 46  1  0
 52 51  1  0
 27 44  1  0
 24 16  1  0
 54 53  2  0
 55 53  2  0
 56 53  1  0
 57 53  1  0
 59 62  1  0
 60 59  1  0
 61 58  1  0
 62 58  1  0
 63 67  1  0
 64 69  1  0
 65 61  1  0
 66 63  1  0
 67 65  1  0
 68 64  1  0
 69 66  1  0
 70 60  1  0
 71 73  1  0
 72 71  1  0
 60 73  1  1
 74 70  1  0
 75 58  2  0
 76 83  1  0
 77 80  1  0
 78 85  1  0
 79 72  1  0
 80 75  1  0
 81 78  1  0
 82 72  2  0
 83 74  1  0
 67 84  1  1
 85 84  1  0
 86 62  2  0
 87 66  2  0
 88 65  2  0
 89 68  2  0
 90 70  2  0
 91 77  2  0
 92 78  2  0
 93 77  1  0
 76 94  1  6
 95 73  1  0
 96 95  1  0
 69 97  1  1
 98 81  1  0
 99 98  1  0
100101  1  0
101103  1  0
102 98  1  0
103102  1  0
 79 96  1  0
 76 68  1  0
M  END
> <chembl_id>
CHEMBL2218913

> <chembl_pref_name>
CAPREOMYCIN SULFATE
