
     RDKit          2D

 33 36  0  0  0  0  0  0  0  0999 V2000
    3.0250   -2.5333    0.0000 Br  0  0  0  0  0  0  0  0  0  0  0  0
   -0.1708   -0.6875    0.0000 C   0  0  0  0  0  0  0  0  0  0  0  0
    0.4417   -1.0375    0.0000 C   0  0  0  0  0  0  0  0  0  0  0  0
   -0.7917   -0.3375    0.0000 C   0  0  0  0  0  0  0  0  0  0  0  0
    1.5875   -1.0375    0.0000 N   0  0  0  0  0  0  0  0  0  0  0  0
    1.0125   -0.6208    0.0000 C   0  0  0  0  0  0  0  0  0  0  0  0
    4.6583   -0.6833    0.0000 C   0  0  0  0  0  0  0  0  0  0  0  0
    4.6542    0.0292    0.0000 C   0  0  0  0  0  0  0  0  0  0  0  0
    5.3250    0.2500    0.0000 O   0  0  0  0  0  0  0  0  0  0  0  0
    0.6583   -1.7125    0.0000 C   0  0  0  0  0  0  0  0  0  0  0  0
   -0.5292   -1.3000    0.0000 C   0  0  0  0  0  0  0  0  0  0  0  0
    0.1792   -0.0750    0.0000 C   0  0  0  0  0  0  0  0  0  0  0  0
    4.0417   -1.0417    0.0000 C   0  0  0  0  0  0  0  0  0  0  0  0
   -0.7958    0.3708    0.0000 O   0  0  0  0  0  0  0  0  0  0  0  0
    4.0417    0.3792    0.0000 C   0  0  0  0  0  0  0  0  0  0  0  0
    1.3667   -1.7125    0.0000 C   0  0  0  0  0  0  0  0  0  0  0  0
   -1.4000   -0.6958    0.0000 N   0  0  0  0  0  0  0  0  0  0  0  0
    2.2000   -0.6875    0.0000 C   0  0  0  0  0  0  0  0  0  0  0  0
    3.4292   -0.6875    0.0000 C   0  0  0  0  0  0  0  0  0  0  0  0
    3.4292    0.0250    0.0000 C   0  0  0  0  0  0  0  0  0  0  0  0
    5.7458   -0.3208    0.0000 C   0  0  0  0  0  0  0  0  0  0  0  0
    2.8125   -1.0417    0.0000 C   0  0  0  0  0  0  0  0  0  0  0  0
    5.3333   -0.8958    0.0000 C   0  0  0  0  0  0  0  0  0  0  0  0
   -1.2417   -1.3000    0.0000 C   0  0  0  0  0  0  0  0  0  0  0  0
   -0.1792    0.5375    0.0000 C   0  0  0  0  0  0  0  0  0  0  0  0
    0.8792   -0.0708    0.0000 C   0  0  0  0  0  0  0  0  0  0  0  0
   -0.1750   -1.9208    0.0000 C   0  0  0  0  0  0  0  0  0  0  0  0
    0.1667    1.1500    0.0000 C   0  0  0  0  0  0  0  0  0  0  0  0
    1.2292    0.5375    0.0000 C   0  0  0  0  0  0  0  0  0  0  0  0
   -0.5333   -2.5375    0.0000 C   0  0  0  0  0  0  0  0  0  0  0  0
   -1.6000   -1.9125    0.0000 C   0  0  0  0  0  0  0  0  0  0  0  0
   -1.2458   -2.5333    0.0000 C   0  0  0  0  0  0  0  0  0  0  0  0
    0.8750    1.1500    0.0000 C   0  0  0  0  0  0  0  0  0  0  0  0
  3  2  1  1
  4  2  1  0
  5  6  1  0
  6  3  1  0
  7 13  2  0
  8 15  2  0
  9  8  1  0
 10  3  1  0
 11  2  1  0
 12  2  1  0
 13 19  1  0
 14  4  2  0
 15 20  1  0
 16 10  1  0
 17  4  1  0
 18  5  1  0
 19 22  1  0
 20 19  2  0
 21 23  1  0
 22 18  1  0
 23  7  1  0
 24 11  1  0
 25 12  2  0
 26 12  1  0
 27 11  2  0
 28 25  1  0
 29 26  2  0
 30 27  1  0
 31 24  2  0
 32 31  1  0
 33 29  1  0
  5 16  1  0
 33 28  2  0
 32 30  2  0
  7  8  1  0
  9 21  1  0
M  END
> <chembl_id>
CHEMBL1200935

> <chembl_pref_name>
DARIFENACIN HYDROBROMIDE
