
     RDKit          2D

 17 16  0  0  0  0  0  0  0  0999 V2000
    0.0542    2.0333    0.0000 Cl  0  0  0  0  0  0  0  0  0  0  0  0
   -3.3333    0.0000    0.0000 C   0  0  0  0  0  0  0  0  0  0  0  0
   -2.3583   -0.5167    0.0000 C   0  0  0  0  0  0  0  0  0  0  0  0
   -1.4083    0.0500    0.0000 C   0  0  0  0  0  0  0  0  0  0  0  0
   -0.4333   -0.4625    0.0000 C   0  0  0  0  0  0  0  0  0  0  0  0
   -4.0958   -0.8000    0.0000 F   0  0  0  0  0  0  0  0  0  0  0  0
   -2.7333    0.9208    0.0000 F   0  0  0  0  0  0  0  0  0  0  0  0
   -4.2083    0.6708    0.0000 F   0  0  0  0  0  0  0  0  0  0  0  0
    0.4917    0.1125    0.0000 C   0  0  0  0  0  0  0  0  0  0  0  0
    2.4125    0.1708    0.0000 N   0  0  0  0  0  0  0  0  0  0  0  0
   -2.3208   -1.6292    0.0000 C   0  0  0  0  0  0  0  0  0  0  0  0
    1.4667   -0.4000    0.0000 C   0  0  0  0  0  0  0  0  0  0  0  0
   -1.3458   -2.1542    0.0000 C   0  0  0  0  0  0  0  0  0  0  0  0
   -0.4000   -1.5667    0.0000 C   0  0  0  0  0  0  0  0  0  0  0  0
    3.3917   -0.3375    0.0000 C   0  0  0  0  0  0  0  0  0  0  0  0
    1.5042   -1.5042    0.0000 C   0  0  0  0  0  0  0  0  0  0  0  0
    4.3417    0.2375    0.0000 C   0  0  0  0  0  0  0  0  0  0  0  0
  3  2  1  0
  4  3  1  0
  5  4  2  0
  6  2  1  0
  7  2  1  0
  8  2  1  0
  9  5  1  0
 10 12  1  0
 11  3  2  0
 12  9  1  0
 13 11  1  0
 14 13  2  0
 15 10  1  0
 16 12  1  0
 17 15  1  0
  5 14  1  0
M  END
> <chembl_id>
CHEMBL2106217

> <chembl_pref_name>
FENFLURAMINE HYDROCHLORIDE
