
     RDKit          2D

 21 21  0  0  0  0  0  0  0  0999 V2000
    3.2708   -4.6875    0.0000 Cl  0  0  0  0  0  0  0  0  0  0  0  0
    0.2583   -3.5917    0.0000 C   0  0  0  0  0  0  0  0  0  0  0  0
    0.8833   -3.2250    0.0000 C   0  0  0  0  0  0  0  0  0  0  0  0
    0.2583   -4.2917    0.0000 C   0  0  0  0  0  0  0  0  0  0  0  0
    0.8833   -2.5417    0.0000 C   0  0  0  0  0  0  0  0  0  0  0  0
    1.4875   -3.5792    0.0000 O   0  0  0  0  0  0  0  0  0  0  0  0
    3.3208   -3.2375    0.0000 N   0  0  0  0  0  0  0  0  0  0  0  0
    2.1000   -3.2250    0.0000 C   0  0  0  0  0  0  0  0  0  0  0  0
   -0.3625   -3.2292    0.0000 C   0  0  0  0  0  0  0  0  0  0  0  0
    2.7167   -3.5750    0.0000 C   0  0  0  0  0  0  0  0  0  0  0  0
    0.8917   -4.6500    0.0000 C   0  0  0  0  0  0  0  0  0  0  0  0
   -0.3458   -4.6500    0.0000 C   0  0  0  0  0  0  0  0  0  0  0  0
    1.4792   -2.1667    0.0000 C   0  0  0  0  0  0  0  0  0  0  0  0
    0.2542   -2.1667    0.0000 C   0  0  0  0  0  0  0  0  0  0  0  0
    3.9375   -3.5750    0.0000 C   0  0  0  0  0  0  0  0  0  0  0  0
    3.3208   -2.5208    0.0000 C   0  0  0  0  0  0  0  0  0  0  0  0
   -0.9625   -3.5792    0.0000 C   0  0  0  0  0  0  0  0  0  0  0  0
    1.4792   -1.4583    0.0000 C   0  0  0  0  0  0  0  0  0  0  0  0
   -0.9625   -4.3083    0.0000 C   0  0  0  0  0  0  0  0  0  0  0  0
    0.2542   -1.4542    0.0000 C   0  0  0  0  0  0  0  0  0  0  0  0
    0.8625   -1.1083    0.0000 C   0  0  0  0  0  0  0  0  0  0  0  0
  3  2  1  0
  4  2  1  0
  5  3  1  0
  6  3  1  0
  7 10  1  0
  8  6  1  0
  9  2  2  0
 10  8  1  0
 11  4  1  0
 12  4  2  0
 13  5  2  0
 14  5  1  0
 15  7  1  0
 16  7  1  0
 17  9  1  0
 18 13  1  0
 19 17  2  0
 20 14  2  0
 21 20  1  0
 19 12  1  0
 21 18  2  0
M  END
> <chembl_id>
CHEMBL1201023

> <chembl_pref_name>
ORPHENADRINE HYDROCHLORIDE
