
     RDKit          2D

 21 18  0  0  0  0  0  0  0  0999 V2000
    3.0348   -1.1786    0.0000 O   0  0  0  0  0  0  0  0  0  0  0  0
   -1.4289    0.1303    0.0000 C   0  0  0  0  0  0  0  0  0  0  0  0
   -1.8414   -0.5842    0.0000 P   0  0  0  0  0  0  0  0  0  0  0  0
   -1.0164    0.8447    0.0000 P   0  0  0  0  0  0  0  0  0  0  0  0
   -0.7145   -0.2822    0.0000 C   0  0  0  0  0  0  0  0  0  0  0  0
   -2.2539   -1.2987    0.0000 O   0  0  0  0  0  0  0  0  0  0  0  0
   -1.1270   -0.9967    0.0000 O   0  0  0  0  0  0  0  0  0  0  0  0
   -0.3020    0.4322    0.0000 O   0  0  0  0  0  0  0  0  0  0  0  0
   -2.1434    0.5428    0.0000 O   0  0  0  0  0  0  0  0  0  0  0  0
   -2.5559   -0.1717    0.0000 O   0  0  0  0  0  0  0  0  0  0  0  0
   -0.6039    1.5592    0.0000 O   0  0  0  0  0  0  0  0  0  0  0  0
   -1.7309    1.2572    0.0000 O   0  0  0  0  0  0  0  0  0  0  0  0
    0.0000    0.1303    0.0000 C   0  0  0  0  0  0  0  0  0  0  0  0
    0.7145   -0.2822    0.0000 N   0  0  0  0  0  0  0  0  0  0  0  0
    1.4289    0.1303    0.0000 C   0  0  0  0  0  0  0  0  0  0  0  0
    0.7145   -1.1072    0.0000 C   0  0  0  0  0  0  0  0  0  0  0  0
    2.1434   -0.2822    0.0000 C   0  0  0  0  0  0  0  0  0  0  0  0
    3.5724   -0.2822    0.0000 C   0  0  0  0  0  0  0  0  0  0  0  0
    2.8579    0.1303    0.0000 C   0  0  0  0  0  0  0  0  0  0  0  0
    4.2868    0.1303    0.0000 C   0  0  0  0  0  0  0  0  0  0  0  0
    1.6940    0.7955    0.0000 Na  0  0  0  0  0 15  0  0  0  0  0  0
  3  2  1  0
  4  2  1  0
  5  2  1  0
  6  3  1  0
  7  3  2  0
  8  4  2  0
  9  2  1  0
 10  3  1  0
 11  4  1  0
 12  4  1  0
 13  5  1  0
 14 13  1  0
 15 14  1  0
 16 14  1  0
 17 15  1  0
 18 19  1  0
 19 17  1  0
 20 18  1  0
M  CHG  2   6  -1  21   1
M  END
> <chembl_id>
CHEMBL3989569

> <chembl_pref_name>
IBANDRONATE SODIUM
