
     RDKit          2D

 20 21  0  0  0  0  0  0  0  0999 V2000
    0.6375   -1.7792    0.0000 C   0  0  0  0  0  0  0  0  0  0  0  0
    1.6875   -1.1375    0.0000 S   0  0  0  0  0  0  0  0  0  0  0  0
   -0.4083   -1.1375    0.0000 C   0  0  0  0  0  0  0  0  0  0  0  0
   -0.4083    0.0625    0.0000 O   0  0  0  0  0  0  0  0  0  0  0  0
    0.6375    1.9083    0.0000 N   0  0  0  0  0  0  0  0  0  0  0  0
    0.6375   -2.9792    0.0000 C   0  0  0  0  0  0  0  0  0  0  0  0
    1.6875    2.5458    0.0000 C   0  0  0  0  0  0  0  0  0  0  0  0
   -1.4583    1.9083    0.0000 C   0  0  0  0  0  0  0  0  0  0  0  0
   -1.4583    0.6708    0.0000 C   0  0  0  0  0  0  0  0  0  0  0  0
   -0.4083    2.5208    0.0000 C   0  0  0  0  0  0  0  0  0  0  0  0
   -2.5083    2.5208    0.0000 O   0  0  0  0  0  0  0  0  0  0  0  0
   -1.4583   -2.9792    0.0000 C   0  0  0  0  0  0  0  0  0  0  0  0
    2.7375   -1.7792    0.0000 C   0  0  0  0  0  0  0  0  0  0  0  0
   -1.4583   -1.7792    0.0000 C   0  0  0  0  0  0  0  0  0  0  0  0
   -0.4083   -3.5875    0.0000 C   0  0  0  0  0  0  0  0  0  0  0  0
    1.6875   -3.5875    0.0000 C   0  0  0  0  0  0  0  0  0  0  0  0
    1.0500    3.5958    0.0000 C   0  0  0  0  0  0  0  0  0  0  0  0
    2.3167    1.4958    0.0000 C   0  0  0  0  0  0  0  0  0  0  0  0
    2.7375    3.1833    0.0000 C   0  0  0  0  0  0  0  0  0  0  0  0
    2.7375   -2.9792    0.0000 C   0  0  0  0  0  0  0  0  0  0  0  0
  2  1  1  0
  3  1  1  0
  4  3  1  0
  5 10  1  0
  6  1  2  0
  7  5  1  0
  8  9  1  0
  9  4  1  0
 10  8  1  0
 11  8  1  0
 12 15  2  0
 13  2  1  0
 14  3  2  0
 15  6  1  0
 16  6  1  0
 17  7  1  0
 18  7  1  0
 19  7  1  0
 20 16  1  0
 14 12  1  0
 13 20  1  0
M  END
> <chembl_id>
CHEMBL434200

> <chembl_pref_name>
TERTATOLOL
