
     RDKit          2D

 26 27  0  0  0  0  0  0  0  0999 V2000
    9.0792   -5.8417    0.0000 P   0  0  0  0  0  0  0  0  0  0  0  0
    9.4292   -5.2250    0.0000 O   0  0  0  0  0  0  0  0  0  0  0  0
    9.6917   -6.1917    0.0000 O   0  0  0  0  0  0  0  0  0  0  0  0
    8.4750   -6.1917    0.0000 O   0  0  0  0  0  0  0  0  0  0  0  0
    8.7292   -5.2250    0.0000 O   0  0  0  0  0  0  0  0  0  0  0  0
    5.4292   -7.3375    0.0000 N   0  0  0  0  0  0  0  0  0  0  0  0
    4.8292   -6.2625    0.0000 C   0  0  0  0  0  0  0  0  0  0  0  0
    4.8292   -6.9792    0.0000 C   0  0  0  0  0  0  0  0  0  0  0  0
    5.4292   -5.9125    0.0000 C   0  0  0  0  0  0  0  0  0  0  0  0
    6.0292   -6.9792    0.0000 C   0  0  0  0  0  0  0  0  0  0  0  0
    6.0292   -6.2625    0.0000 C   0  0  0  0  0  0  0  0  0  0  0  0
    4.2375   -5.9125    0.0000 C   0  0  0  0  0  0  0  0  0  0  0  0
    4.2375   -7.3375    0.0000 C   0  0  0  0  0  0  0  0  0  0  0  0
    3.6500   -6.2417    0.0000 C   0  0  0  0  0  0  0  0  0  0  0  0
    5.4125   -3.6500    0.0000 N   0  0  0  0  0  0  0  0  0  0  0  0
    3.6500   -7.0042    0.0000 C   0  0  0  0  0  0  0  0  0  0  0  0
    3.0875   -5.8167    0.0000 Cl  0  0  0  0  0  0  0  0  0  0  0  0
    6.0375   -5.4875    0.0000 C   0  0  0  0  0  0  0  0  0  0  0  0
    6.6500   -5.9125    0.0000 C   0  0  0  0  0  0  0  0  0  0  0  0
    6.6500   -7.3375    0.0000 C   0  0  0  0  0  0  0  0  0  0  0  0
    6.0375   -4.8000    0.0000 C   0  0  0  0  0  0  0  0  0  0  0  0
    5.4125   -4.4167    0.0000 C   0  0  0  0  0  0  0  0  0  0  0  0
    5.9667   -3.2292    0.0000 C   0  0  0  0  0  0  0  0  0  0  0  0
    4.7917   -3.2417    0.0000 C   0  0  0  0  0  0  0  0  0  0  0  0
    7.2375   -6.2625    0.0000 C   0  0  0  0  0  0  0  0  0  0  0  0
    7.2375   -6.9792    0.0000 C   0  0  0  0  0  0  0  0  0  0  0  0
  2  1  2  0
  3  1  1  0
  4  1  1  0
  5  1  1  0
  7  8  2  0
  8  6  1  0
  9  7  1  0
 10  6  1  0
 11 10  2  0
 12  7  1  0
 13  8  1  0
 14 12  2  0
 15 22  1  0
 16 13  2  0
 17 14  1  0
 18  9  1  0
 19 11  1  0
 20 10  1  0
 21 18  1  0
 22 21  1  0
 23 15  1  0
 24 15  1  0
 25 26  1  0
 26 20  2  0
  9 11  1  0
 16 14  1  0
 25 19  2  0
M  END
> <chembl_id>
CHEMBL2104136

> <chembl_pref_name>
CLOMACRAN PHOSPHATE
