
     RDKit          2D

 21 21  0  0  0  0  0  0  0  0999 V2000
    0.0542    1.6583    0.0000 C   0  0  0  0  0  0  0  0  0  0  0  0
   -0.9500   -0.0542    0.0000 C   0  0  0  0  0  0  0  0  0  0  0  0
    1.0625   -0.0792    0.0000 C   0  0  0  0  0  0  0  0  0  0  0  0
   -0.9500    1.0833    0.0000 C   0  0  0  0  0  0  0  0  0  0  0  0
    1.0625    1.0833    0.0000 C   0  0  0  0  0  0  0  0  0  0  0  0
    0.0542   -0.6542    0.0000 C   0  0  0  0  0  0  0  0  0  0  0  0
    0.0542    2.8208    0.0000 C   0  0  0  0  0  0  0  0  0  0  0  0
   -1.9833   -0.6250    0.0000 N   0  0  0  0  0  0  0  0  0  0  0  0
    2.0792   -0.6792    0.0000 C   0  0  0  0  0  0  0  0  0  0  0  0
   -2.9625   -0.0167    0.0000 C   0  0  0  0  0  0  0  0  0  0  0  0
    3.0792   -2.4250    0.0000 C   0  0  0  0  0  0  0  0  0  0  0  0
    2.0667   -1.8500    0.0000 N   0  0  0  0  0  0  0  0  0  0  0  0
   -0.9458    3.3958    0.0000 O   0  0  0  0  0  0  0  0  0  0  0  0
    2.0792    1.6750    0.0000 I   0  0  0  0  0  0  0  0  0  0  0  0
   -1.9833    1.6583    0.0000 I   0  0  0  0  0  0  0  0  0  0  0  0
   -3.9958   -0.5667    0.0000 O   0  0  0  0  0  0  0  0  0  0  0  0
    4.0875   -1.8500    0.0000 O   0  0  0  0  0  0  0  0  0  0  0  0
    0.0542   -1.8167    0.0000 I   0  0  0  0  0  0  0  0  0  0  0  0
    1.0625    3.4208    0.0000 O   0  0  0  0  0  0  0  0  0  0  0  0
   -2.9333    1.1458    0.0000 C   0  0  0  0  0  0  0  0  0  0  0  0
    3.0792   -3.5875    0.0000 C   0  0  0  0  0  0  0  0  0  0  0  0
  2  4  1  0
  3  5  2  0
  4  1  2  0
  5  1  1  0
  6  3  1  0
  7  1  1  0
  8  2  1  0
  9  3  1  0
 10  8  1  0
 11 12  1  0
 12  9  1  0
 13  7  2  0
 14  5  1  0
 15  4  1  0
 16 10  2  0
 17 11  2  0
 18  6  1  0
 19  7  1  0
 20 10  1  0
 21 11  1  0
  2  6  2  0
M  END
> <chembl_id>
CHEMBL1201239

> <chembl_pref_name>
IODAMIDE
