
     RDKit          2D

  8  6  0  0  0  0  0  0  0  0999 V2000
    6.8414   -7.2936    0.0000 K   0  0  0  0  0 15  0  0  0  0  0  0
    5.3077   -7.5216    0.0000 C   0  0  0  0  0  0  0  0  0  0  0  0
    6.0154   -7.9377    0.0000 O   0  0  0  0  0  0  0  0  0  0  0  0
    5.3077   -6.7278    0.0000 O   0  0  0  0  0  0  0  0  0  0  0  0
    2.4817   -7.5360    0.0000 O   0  0  0  0  0  0  0  0  0  0  0  0
    4.5952   -7.9377    0.0000 C   0  0  0  0  0  0  0  0  0  0  0  0
    3.1894   -7.9377    0.0000 C   0  0  0  0  0  0  0  0  0  0  0  0
    3.9019   -7.5216    0.0000 C   0  0  0  0  0  0  0  0  0  0  0  0
  3  2  1  0
  4  2  2  0
  5  7  1  0
  6  2  1  0
  7  8  1  0
  8  6  1  0
M  CHG  2   1   1   3  -1
M  END
> <chembl_id>
CHEMBL4594395

> <chembl_pref_name>
POTASSIUM OXYBATE
