
     RDKit          2D

 20 21  0  0  0  0  0  0  0  0999 V2000
   -1.3708    0.3458    0.0000 C   0  0  0  0  0  0  0  0  0  0  0  0
   -0.7958   -0.6375    0.0000 C   0  0  0  0  0  0  0  0  0  0  0  0
   -2.4708    0.3458    0.0000 C   0  0  0  0  0  0  0  0  0  0  0  0
    0.3042   -0.6375    0.0000 C   0  0  0  0  0  0  0  0  0  0  0  0
   -3.0250   -0.6375    0.0000 C   0  0  0  0  0  0  0  0  0  0  0  0
   -0.7958    1.2958    0.0000 C   0  0  0  0  0  0  0  0  0  0  0  0
   -4.1333   -0.8792    0.0000 S   0  0  0  0  0  0  0  0  0  0  0  0
    0.8625    0.3458    0.0000 C   0  0  0  0  0  0  0  0  0  0  0  0
    3.6417    1.3083    0.0000 C   0  0  0  0  0  0  0  0  0  0  0  0
   -3.0458    1.3083    0.0000 O   0  0  0  0  0  0  0  0  0  0  0  0
   -2.4708   -1.6000    0.0000 C   0  0  0  0  0  0  0  0  0  0  0  0
    1.9875    0.3458    0.0000 O   0  0  0  0  0  0  0  0  0  0  0  0
   -4.2333   -1.9875    0.0000 C   0  0  0  0  0  0  0  0  0  0  0  0
    0.3292    1.2833    0.0000 C   0  0  0  0  0  0  0  0  0  0  0  0
   -3.2083   -2.4375    0.0000 C   0  0  0  0  0  0  0  0  0  0  0  0
    4.2000    2.2708    0.0000 O   0  0  0  0  0  0  0  0  0  0  0  0
   -1.3708   -1.6167    0.0000 Cl  0  0  0  0  0  0  0  0  0  0  0  0
    0.8792   -1.6000    0.0000 Cl  0  0  0  0  0  0  0  0  0  0  0  0
    2.5417    1.3083    0.0000 C   0  0  0  0  0  0  0  0  0  0  0  0
    4.2167    0.3458    0.0000 O   0  0  0  0  0  0  0  0  0  0  0  0
  2  1  2  0
  3  1  1  0
  4  2  1  0
  5  3  1  0
  6  1  1  0
  7  5  1  0
  8 14  1  0
  9 19  1  0
 10  3  2  0
 11  5  2  0
 12  8  1  0
 13  7  1  0
 14  6  2  0
 15 11  1  0
 16  9  2  0
 17  2  1  0
 18  4  1  0
 19 12  1  0
 20  9  1  0
  4  8  2  0
 15 13  2  0
M  END
> <chembl_id>
CHEMBL267744

> <chembl_pref_name>
TICRYNAFEN
