
     RDKit          2D

 37 39  0  0  0  0  0  0  0  0999 V2000
   10.3801   -7.9385    0.0000 N   0  0  0  0  0  0  0  0  0  0  0  0
    9.5509   -7.9385    0.0000 C   0  0  0  0  0  0  0  0  0  0  0  0
    9.5509   -7.1048    0.0000 C   0  0  0  0  0  0  0  0  0  0  0  0
   10.3801   -7.1048    0.0000 C   0  0  0  0  0  0  0  0  0  0  0  0
   11.0947   -8.3507    0.0000 C   0  0  0  0  0  0  0  0  0  0  0  0
   11.0947   -9.1753    0.0000 C   0  0  0  0  0  0  0  0  0  0  0  0
    8.8410   -6.6925    0.0000 N   0  0  0  0  0  0  0  0  0  0  0  0
    8.1355   -7.1185    0.0000 C   0  0  0  0  0  0  0  0  0  0  0  0
    7.4118   -6.7063    0.0000 C   0  0  0  0  0  0  0  0  0  0  0  0
   11.0947   -6.7017    0.0000 S   0  0  0  0  0  0  0  0  0  0  0  0
   11.8047   -7.9293    0.0000 C   0  0  0  0  0  0  0  0  0  0  0  0
    6.7063   -7.1277    0.0000 C   0  0  0  0  0  0  0  0  0  0  0  0
   10.3801   -9.5876    0.0000 O   0  0  0  0  0  0  0  0  0  0  0  0
   13.9485   -8.3370    0.0000 C   0  0  0  0  0  0  0  0  0  0  0  0
   11.8047   -7.1048    0.0000 C   0  0  0  0  0  0  0  0  0  0  0  0
    7.4071   -5.8817    0.0000 N   0  0  0  0  0  0  0  0  0  0  0  0
    8.8363   -8.3554    0.0000 O   0  0  0  0  0  0  0  0  0  0  0  0
    9.6746  -10.8244    0.0000 O   0  0  0  0  0  0  0  0  0  0  0  0
   10.3801  -10.4121    0.0000 C   0  0  0  0  0  0  0  0  0  0  0  0
    8.9509  -10.4167    0.0000 C   0  0  0  0  0  0  0  0  0  0  0  0
    6.0375   -6.6467    0.0000 O   0  0  0  0  0  0  0  0  0  0  0  0
   11.8093   -9.5784    0.0000 O   0  0  0  0  0  0  0  0  0  0  0  0
   12.5193   -8.3416    0.0000 C   0  0  0  0  0  0  0  0  0  0  0  0
    8.1401   -7.9431    0.0000 O   0  0  0  0  0  0  0  0  0  0  0  0
    6.4498   -7.9156    0.0000 C   0  0  0  0  0  0  0  0  0  0  0  0
   13.2339   -7.9247    0.0000 O   0  0  0  0  0  0  0  0  0  0  0  0
   13.9531   -9.1615    0.0000 O   0  0  0  0  0  0  0  0  0  0  0  0
    5.3733   -7.1277    0.0000 C   0  0  0  0  0  0  0  0  0  0  0  0
    5.6252   -7.9156    0.0000 C   0  0  0  0  0  0  0  0  0  0  0  0
    8.9509   -9.5922    0.0000 O   0  0  0  0  0  0  0  0  0  0  0  0
   14.6631   -7.9247    0.0000 N   0  0  0  0  0  0  0  0  0  0  0  0
    8.1217   -5.4695    0.0000 O   0  0  0  0  0  0  0  0  0  0  0  0
    8.2454  -10.8290    0.0000 C   0  0  0  0  0  0  0  0  0  0  0  0
   11.0947  -10.8244    0.0000 C   0  0  0  0  0  0  0  0  0  0  0  0
    8.1126   -4.6449    0.0000 C   0  0  0  0  0  0  0  0  0  0  0  0
   10.3801   -6.2803    0.0000 H   0  0  0  0  0  0  0  0  0  0  0  0
    9.5418   -6.2894    0.0000 H   0  0  0  0  0  0  0  0  0  0  0  0
  2  1  1  0
  3  4  1  0
  4  1  1  0
  5  1  1  0
  6  5  1  0
  7  3  1  0
  8  7  1  0
  9  8  1  0
 10  4  1  0
 11  5  2  0
 12  9  1  0
 13  6  1  0
 14 26  1  0
 15 11  1  0
 16  9  2  0
 17  2  2  0
 18 19  1  0
 19 13  1  0
 20 18  1  0
 21 12  1  0
 22  6  2  0
 23 11  1  0
 24  8  2  0
 25 12  2  0
 26 23  1  0
 27 14  2  0
 28 21  1  0
 29 25  1  0
 30 20  2  0
 31 14  1  0
 32 16  1  0
 33 20  1  0
 34 19  1  0
 35 32  1  0
  4 36  1  6
  3 37  1  6
  2  3  1  0
 10 15  1  0
 28 29  2  0
M  END
> <chembl_id>
CHEMBL1095930

> <chembl_pref_name>
CEFUROXIME AXETIL
