
     RDKit          2D

  8  8  0  0  0  0  0  0  0  0999 V2000
    0.2917    0.1750    0.0000 C   0  0  0  0  0  0  0  0  0  0  0  0
    2.4292   -1.0542    0.0000 O   0  0  0  0  0  0  0  0  0  0  0  0
    1.7250    0.1750    0.0000 C   0  0  0  0  0  0  0  0  0  0  0  0
   -0.4333   -1.0542    0.0000 C   0  0  0  0  0  0  0  0  0  0  0  0
   -0.4333    1.4125    0.0000 C   0  0  0  0  0  0  0  0  0  0  0  0
   -1.8625    1.4125    0.0000 C   0  0  0  0  0  0  0  0  0  0  0  0
   -1.8625   -1.0542    0.0000 C   0  0  0  0  0  0  0  0  0  0  0  0
   -2.5875    0.1750    0.0000 C   0  0  0  0  0  0  0  0  0  0  0  0
  2  3  1  0
  3  1  1  0
  4  1  1  0
  5  1  2  0
  6  5  1  0
  7  4  2  0
  8  6  2  0
  7  8  1  0
M  END
> <chembl_id>
CHEMBL720

> <chembl_pref_name>
BENZYL ALCOHOL
