
     RDKit          2D

 39 42  0  0  0  0  0  0  0  0999 V2000
    5.6832   -1.2750    0.0000 Cl  0  0  0  0  0  0  0  0  0  0  0  0
   -3.6680    1.0515    0.0000 C   0  0  0  0  0  0  0  0  0  0  0  0
   -3.6693    0.2260    0.0000 C   0  0  0  0  0  0  0  0  0  0  0  0
   -2.9581   -0.1859    0.0000 C   0  0  0  0  0  0  0  0  0  0  0  0
   -2.9601    1.4632    0.0000 C   0  0  0  0  0  0  0  0  0  0  0  0
   -2.2438    1.0555    0.0000 C   0  0  0  0  0  0  0  0  0  0  0  0
   -2.2447    0.2240    0.0000 C   0  0  0  0  0  0  0  0  0  0  0  0
   -1.5290   -0.1903    0.0000 C   0  0  0  0  0  0  0  0  0  0  0  0
   -1.5272    1.4728    0.0000 C   0  0  0  0  0  0  0  0  0  0  0  0
   -0.8070    1.0540    0.0000 C   0  0  0  0  0  0  0  0  0  0  0  0
   -0.8116    0.2257    0.0000 C   0  0  0  0  0  0  0  0  0  0  0  0
   -0.0979   -0.1906    0.0000 C   0  0  0  0  0  0  0  0  0  0  0  0
   -0.0926    1.4641    0.0000 C   0  0  0  0  0  0  0  0  0  0  0  0
   -1.5274    2.2957    0.0000 O   0  0  0  0  0  0  0  0  0  0  0  0
   -1.5287   -1.0131    0.0000 O   0  0  0  0  0  0  0  0  0  0  0  0
   -2.9596   -1.0088    0.0000 O   0  0  0  0  0  0  0  0  0  0  0  0
   -3.6730   -1.4189    0.0000 C   0  0  0  0  0  0  0  0  0  0  0  0
   -0.0915    2.2870    0.0000 O   0  0  0  0  0  0  0  0  0  0  0  0
   -0.1016   -1.0135    0.0000 O   0  0  0  0  0  0  0  0  0  0  0  0
    0.6218    1.0514    0.0000 C   0  0  0  0  0  0  0  0  0  0  0  0
    0.6172    0.2194    0.0000 C   0  0  0  0  0  0  0  0  0  0  0  0
    1.3314   -0.1983    0.0000 C   0  0  0  0  0  0  0  0  0  0  0  0
    2.0548    0.2114    0.0000 C   0  0  0  0  0  0  0  0  0  0  0  0
    2.0594    1.0434    0.0000 C   0  0  0  0  0  0  0  0  0  0  0  0
    1.3407    1.4657    0.0000 C   0  0  0  0  0  0  0  0  0  0  0  0
    2.7658    0.6355    0.0000 O   0  0  0  0  0  0  0  0  0  0  0  0
    2.0767    1.8662    0.0000 C   0  0  0  0  0  0  0  0  0  0  0  0
    2.7977    2.2626    0.0000 C   0  0  0  0  0  0  0  0  0  0  0  0
    1.3728    2.2925    0.0000 O   0  0  0  0  0  0  0  0  0  0  0  0
    2.0236   -0.6431    0.0000 O   0  0  0  0  0  0  0  0  0  0  0  0
    1.9825   -1.4649    0.0000 C   0  0  0  0  0  0  0  0  0  0  0  0
    1.2489   -1.8354    0.0000 O   0  0  0  0  0  0  0  0  0  0  0  0
    1.2061   -2.6536    0.0000 C   0  0  0  0  0  0  0  0  0  0  0  0
    1.8954   -3.1038    0.0000 C   0  0  0  0  0  0  0  0  0  0  0  0
    2.6294   -2.7297    0.0000 C   0  0  0  0  0  0  0  0  0  0  0  0
    2.6742   -1.9054    0.0000 C   0  0  0  0  0  0  0  0  0  0  0  0
    0.4725   -3.0263    0.0000 C   0  0  0  0  0  0  0  0  0  0  0  0
    1.8513   -3.9255    0.0000 O   0  0  0  0  0  0  0  0  0  0  0  0
    3.3191   -3.1785    0.0000 N   0  0  0  0  0  0  0  0  0  0  0  0
 12 19  1  0
 20 21  1  0
 10  9  1  0
  6  5  2  0
  5  2  1  0
 10 11  2  0
  6  7  1  0
 11 12  1  0
 20 25  1  0
 21 22  1  0
 22 23  1  0
 23 24  1  0
 24 25  1  0
 12 21  2  0
 24 26  1  6
 24 27  1  0
 20 13  2  0
 27 28  1  0
 13 10  1  0
 27 29  2  0
  3  4  1  0
 22 30  1  6
  9 14  2  0
 31 30  1  1
 31 32  1  0
  4  7  2  0
  8 15  2  0
  2  3  2  0
  4 16  1  0
  6  9  1  0
 31 36  1  0
 32 33  1  0
 33 34  1  0
 34 35  1  0
 35 36  1  0
 16 17  1  0
 33 37  1  6
  7  8  1  0
 34 38  1  6
 13 18  1  0
 35 39  1  6
  8 11  1  0
M  END
> <chembl_id>
CHEMBL1563

> <chembl_pref_name>
DAUNORUBICIN HYDROCHLORIDE
