
     RDKit          2D

 16 16  0  0  1  0  0  0  0  0999 V2000
    0.6917    0.0958    0.0000 C   0  0  0  0  0  0  0  0  0  0  0  0
    1.9167    0.0958    0.0000 C   0  0  0  0  0  0  0  0  0  0  0  0
    1.3042    0.4500    0.0000 C   0  0  0  0  0  0  0  0  0  0  0  0
    2.5292    0.4583    0.0000 C   0  0  0  0  0  0  0  0  0  0  0  0
    0.0792    0.4458    0.0000 C   0  0  0  0  0  0  0  0  0  0  0  0
    3.1417    0.1000    0.0000 N   0  0  0  0  0  0  0  0  0  0  0  0
   -0.5333    0.0875    0.0000 C   0  0  0  0  0  0  0  0  0  0  0  0
   -1.1458    0.4458    0.0000 O   0  0  0  0  0  0  0  0  0  0  0  0
    0.6917   -0.6167    0.0000 C   0  0  0  0  0  0  0  0  0  0  0  0
    0.0792   -0.9750    0.0000 C   0  0  0  0  0  0  0  0  0  0  0  0
    1.9167   -0.6125    0.0000 C   0  0  0  0  0  0  0  0  0  0  0  0
    1.3000    1.1583    0.0000 C   0  0  0  0  0  0  0  0  0  0  0  0
   -0.5333   -0.6167    0.0000 C   0  0  0  0  0  0  0  0  0  0  0  0
    3.7542    0.4583    0.0000 C   0  0  0  0  0  0  0  0  0  0  0  0
    3.1417   -0.6042    0.0000 C   0  0  0  0  0  0  0  0  0  0  0  0
    1.9125    1.5125    0.0000 C   0  0  0  0  0  0  0  0  0  0  0  0
  2  3  1  0
  3  1  1  0
  4  2  1  0
  5  1  2  0
  6  4  1  0
  7  5  1  0
  8  7  1  0
  9  1  1  0
 10  9  2  0
  2 11  1  6
  3 12  1  6
 13 10  1  0
 14  6  1  0
 15  6  1  0
 16 12  1  0
 13  7  2  0
M  END
> <chembl_id>
CHEMBL1201776

> <chembl_pref_name>
TAPENTADOL
