
     RDKit          2D

 28 31  0  0  1  0  0  0  0  0999 V2000
    0.1099   -4.3535    0.0000 C   0  0  0  0  0  0  0  0  0  0  0  0
    0.8243   -3.9384    0.0000 O   0  0  0  0  0  0  0  0  0  0  0  0
    1.5410   -4.3496    0.0000 C   0  0  0  0  0  0  0  0  0  0  0  0
    1.5432   -5.1759    0.0000 C   0  0  0  0  0  0  0  0  0  0  0  0
    0.8287   -5.5909    0.0000 C   0  0  0  0  0  0  0  0  0  0  0  0
    0.1121   -5.1797    0.0000 C   0  0  0  0  0  0  0  0  0  0  0  0
   -0.6024   -5.5947    0.0000 O   0  0  0  0  0  0  0  0  0  0  0  0
    0.8310   -6.4171    0.0000 O   0  0  0  0  0  0  0  0  0  0  0  0
    2.2598   -5.5871    0.0000 O   0  0  0  0  0  0  0  0  0  0  0  0
    2.2554   -3.9346    0.0000 C   0  0  0  0  0  0  0  0  0  0  0  0
    2.2532   -3.1083    0.0000 C   0  0  0  0  0  0  0  0  0  0  0  0
    2.9676   -2.6933    0.0000 C   0  0  0  0  0  0  0  0  0  0  0  0
    3.6843   -3.1045    0.0000 C   0  0  0  0  0  0  0  0  0  0  0  0
    3.6865   -3.9307    0.0000 C   0  0  0  0  0  0  0  0  0  0  0  0
    2.9720   -4.3458    0.0000 C   0  0  0  0  0  0  0  0  0  0  0  0
    4.4032   -4.3419    0.0000 C   0  0  0  0  0  0  0  0  0  0  0  0
    4.4054   -5.1682    0.0000 C   0  0  0  0  0  0  0  0  0  0  0  0
    5.0751   -5.6521    0.0000 S   0  0  0  0  0  0  0  0  0  0  0  0
    4.8219   -6.4385    0.0000 C   0  0  0  0  0  0  0  0  0  0  0  0
    3.9957   -6.4408    0.0000 C   0  0  0  0  0  0  0  0  0  0  0  0
    3.7382   -5.6556    0.0000 C   0  0  0  0  0  0  0  0  0  0  0  0
    3.5845   -7.1574    0.0000 C   0  0  0  0  0  0  0  0  0  0  0  0
    3.9995   -7.8718    0.0000 C   0  0  0  0  0  0  0  0  0  0  0  0
    4.8257   -7.8696    0.0000 C   0  0  0  0  0  0  0  0  0  0  0  0
    5.2369   -7.1530    0.0000 C   0  0  0  0  0  0  0  0  0  0  0  0
    4.3987   -2.6894    0.0000 F   0  0  0  0  0  0  0  0  0  0  0  0
   -0.6068   -3.9422    0.0000 C   0  0  0  0  0  0  0  0  0  0  0  0
   -0.6090   -3.1160    0.0000 O   0  0  0  0  0  0  0  0  0  0  0  0
  1  2  1  0
  3  2  1  0
  4  3  1  0
  5  4  1  0
  6  5  1  0
  1  6  1  0
  6  7  1  6
  5  8  1  1
  4  9  1  6
  3 10  1  1
 11 10  2  0
 12 11  1  0
 13 12  2  0
 14 13  1  0
 15 14  2  0
 10 15  1  0
 14 16  1  0
 16 17  1  0
 18 17  1  0
 18 19  1  0
 19 20  2  0
 20 21  1  0
 17 21  2  0
 20 22  1  0
 23 22  2  0
 24 23  1  0
 25 24  2  0
 19 25  1  0
 13 26  1  0
  1 27  1  1
 27 28  1  0
M  END
> <chembl_id>
CHEMBL2018096

> <chembl_pref_name>
IPRAGLIFLOZIN
