
     RDKit          2D

 14 14  0  0  0  0  0  0  0  0999 V2000
   -1.4542    0.5250    0.0000 C   0  0  0  0  0  0  0  0  0  0  0  0
   -0.8292    0.1750    0.0000 C   0  0  0  0  0  0  0  0  0  0  0  0
   -0.2292    0.5167    0.0000 N   0  0  0  0  0  0  0  0  0  0  0  0
    1.0083    0.5292    0.0000 C   0  0  0  0  0  0  0  0  0  0  0  0
   -2.0667    0.1667    0.0000 C   0  0  0  0  0  0  0  0  0  0  0  0
   -2.0667   -0.5375    0.0000 I   0  0  0  0  0  0  0  0  0  0  0  0
   -0.8292   -0.5417    0.0000 O   0  0  0  0  0  0  0  0  0  0  0  0
    1.6125    0.1583    0.0000 O   0  0  0  0  0  0  0  0  0  0  0  0
    1.0375    1.2333    0.0000 O   0  0  0  0  0  0  0  0  0  0  0  0
    0.3958    0.1833    0.0000 C   0  0  0  0  0  0  0  0  0  0  0  0
   -1.4542    1.2292    0.0000 C   0  0  0  0  0  0  0  0  0  0  0  0
   -2.6917    0.5167    0.0000 C   0  0  0  0  0  0  0  0  0  0  0  0
   -2.0667    1.5833    0.0000 C   0  0  0  0  0  0  0  0  0  0  0  0
   -2.6917    1.2333    0.0000 C   0  0  0  0  0  0  0  0  0  0  0  0
  2  1  1  0
  3  2  1  0
  4 10  1  0
  5  1  2  0
  6  5  1  0
  7  2  2  0
  8  4  1  0
  9  4  2  0
 10  3  1  0
 11  1  1  0
 12  5  1  0
 13 11  2  0
 14 13  1  0
 14 12  2  0
M  END
> <chembl_id>
CHEMBL1681

> <chembl_pref_name>
IODOHIPPURATE
