
     RDKit          2D

 22 24  0  0  0  0  0  0  0  0999 V2000
    0.7521    2.3787    0.0000 S   0  0  0  0  0  0  0  0  0  0  0  0
    0.7521    3.2037    0.0000 O   0  0  0  0  0  0  0  0  0  0  0  0
   -0.0729    2.3787    0.0000 O   0  0  0  0  0  0  0  0  0  0  0  0
    1.5771    2.3787    0.0000 N   0  0  0  0  0  0  0  0  0  0  0  0
    0.7521    1.5537    0.0000 C   0  0  0  0  0  0  0  0  0  0  0  0
    1.4665    1.1412    0.0000 C   0  0  0  0  0  0  0  0  0  0  0  0
    1.4665    0.3162    0.0000 C   0  0  0  0  0  0  0  0  0  0  0  0
    0.7521   -0.0963    0.0000 C   0  0  0  0  0  0  0  0  0  0  0  0
    0.0376    0.3162    0.0000 C   0  0  0  0  0  0  0  0  0  0  0  0
    0.0376    1.1412    0.0000 C   0  0  0  0  0  0  0  0  0  0  0  0
    0.7521   -0.9213    0.0000 C   0  0  0  0  0  0  0  0  0  0  0  0
    1.4195   -1.4062    0.0000 C   0  0  0  0  0  0  0  0  0  0  0  0
    2.2041   -1.1512    0.0000 C   0  0  0  0  0  0  0  0  0  0  0  0
    1.1646   -2.1908    0.0000 O   0  0  0  0  0  0  0  0  0  0  0  0
    0.3396   -2.1908    0.0000 N   0  0  0  0  0  0  0  0  0  0  0  0
    0.0846   -1.4062    0.0000 C   0  0  0  0  0  0  0  0  0  0  0  0
   -0.7000   -1.1512    0.0000 C   0  0  0  0  0  0  0  0  0  0  0  0
   -1.3131   -1.7033    0.0000 C   0  0  0  0  0  0  0  0  0  0  0  0
   -2.0977   -1.4483    0.0000 C   0  0  0  0  0  0  0  0  0  0  0  0
   -2.2692   -0.6414    0.0000 C   0  0  0  0  0  0  0  0  0  0  0  0
   -1.6561   -0.0893    0.0000 C   0  0  0  0  0  0  0  0  0  0  0  0
   -0.8715   -0.3443    0.0000 C   0  0  0  0  0  0  0  0  0  0  0  0
  2  1  2  0
  3  1  2  0
  4  1  1  0
  5  1  1  0
  5  6  1  0
  5 10  2  0
  6  7  2  0
  7  8  1  0
  8  9  2  0
  8 11  1  0
  9 10  1  0
 11 12  2  0
 16 11  1  0
 12 13  1  0
 12 14  1  0
 15 14  1  0
 16 15  2  0
 16 17  1  0
 17 18  2  0
 17 22  1  0
 18 19  1  0
 19 20  2  0
 20 21  1  0
 21 22  2  0
M  END
> <chembl_id>
CHEMBL865

> <chembl_pref_name>
VALDECOXIB
