
     RDKit          2D

 16 17  0  0  0  0  0  0  0  0999 V2000
    5.7667  -19.4667    0.0000 Cl  0  0  0  0  0  0  0  0  0  0  0  0
    5.0750  -18.7167    0.0000 C   0  0  0  0  0  0  0  0  0  0  0  0
    5.0750  -17.3042    0.0000 N   0  0  0  0  0  0  0  0  0  0  0  0
    4.4542  -18.3667    0.0000 C   0  0  0  0  0  0  0  0  0  0  0  0
    5.6875  -18.3667    0.0000 C   0  0  0  0  0  0  0  0  0  0  0  0
    4.4542  -17.6542    0.0000 C   0  0  0  0  0  0  0  0  0  0  0  0
    5.6875  -17.6542    0.0000 C   0  0  0  0  0  0  0  0  0  0  0  0
    5.0750  -19.4292    0.0000 N   0  0  0  0  0  0  0  0  0  0  0  0
    3.8417  -18.7167    0.0000 C   0  0  0  0  0  0  0  0  0  0  0  0
    6.3042  -18.7167    0.0000 C   0  0  0  0  0  0  0  0  0  0  0  0
    3.8417  -17.3042    0.0000 C   0  0  0  0  0  0  0  0  0  0  0  0
    6.3042  -17.3042    0.0000 C   0  0  0  0  0  0  0  0  0  0  0  0
    3.2250  -18.3667    0.0000 C   0  0  0  0  0  0  0  0  0  0  0  0
    6.9167  -18.3667    0.0000 C   0  0  0  0  0  0  0  0  0  0  0  0
    3.2250  -17.6542    0.0000 C   0  0  0  0  0  0  0  0  0  0  0  0
    6.9167  -17.6542    0.0000 C   0  0  0  0  0  0  0  0  0  0  0  0
  3  7  1  0
  4  2  2  0
  5  2  1  0
  6  4  1  0
  7  5  1  0
  8  2  1  0
  9  4  1  0
 10  5  2  0
 11  6  1  0
 12  7  2  0
 13  9  1  0
 14 10  1  0
 15 13  1  0
 16 14  2  0
  3  6  2  0
 16 12  1  0
 15 11  1  0
M  END
> <chembl_id>
CHEMBL1677

> <chembl_pref_name>
TACRINE HYDROCHLORIDE
