
     RDKit          2D

 35 37  0  0  0  0  0  0  0  0999 V2000
   -4.7927    0.0446    0.0000 C   0  0  0  0  0  0  0  0  0  0  0  0
   -5.4163    0.5847    0.0000 C   0  0  0  0  0  0  0  0  0  0  0  0
   -5.2604    1.3948    0.0000 C   0  0  0  0  0  0  0  0  0  0  0  0
   -4.4808    1.6649    0.0000 C   0  0  0  0  0  0  0  0  0  0  0  0
   -3.8572    1.1248    0.0000 C   0  0  0  0  0  0  0  0  0  0  0  0
   -4.0131    0.3146    0.0000 C   0  0  0  0  0  0  0  0  0  0  0  0
   -4.3249    2.4750    0.0000 C   0  0  0  0  0  0  0  0  0  0  0  0
   -4.9486    3.0151    0.0000 C   0  0  0  0  0  0  0  0  0  0  0  0
   -4.7927    3.8252    0.0000 C   0  0  0  0  0  0  0  0  0  0  0  0
   -4.0131    4.0953    0.0000 C   0  0  0  0  0  0  0  0  0  0  0  0
   -3.3895    3.5552    0.0000 C   0  0  0  0  0  0  0  0  0  0  0  0
   -3.5454    2.7450    0.0000 C   0  0  0  0  0  0  0  0  0  0  0  0
   -3.0777    1.3948    0.0000 C   0  0  0  0  0  0  0  0  0  0  0  0
   -2.9217    2.2050    0.0000 C   0  0  0  0  0  0  0  0  0  0  0  0
   -2.4540    0.8547    0.0000 N   0  0  0  0  0  0  0  0  0  0  0  0
   -2.1422    2.4750    0.0000 N   0  0  0  0  0  0  0  0  0  0  0  0
   -1.5186    1.9349    0.0000 C   0  0  0  0  0  0  0  0  0  0  0  0
   -1.6745    1.1248    0.0000 C   0  0  0  0  0  0  0  0  0  0  0  0
   -1.0508    0.5847    0.0000 N   0  0  0  0  0  0  0  0  0  0  0  0
   -1.2067   -0.2255    0.0000 C   0  0  0  0  0  0  0  0  0  0  0  0
   -0.5831   -0.7655    0.0000 C   0  0  0  0  0  0  0  0  0  0  0  0
   -1.9863   -0.4955    0.0000 C   0  0  0  0  0  0  0  0  0  0  0  0
   -0.2713    0.8547    0.0000 C   0  0  0  0  0  0  0  0  0  0  0  0
    0.3524    0.3146    0.0000 C   0  0  0  0  0  0  0  0  0  0  0  0
    1.1319    0.5847    0.0000 C   0  0  0  0  0  0  0  0  0  0  0  0
    1.7556    0.0446    0.0000 C   0  0  0  0  0  0  0  0  0  0  0  0
    2.5351    0.3146    0.0000 O   0  0  0  0  0  0  0  0  0  0  0  0
    3.1588   -0.2255    0.0000 C   0  0  0  0  0  0  0  0  0  0  0  0
    3.9383    0.0446    0.0000 C   0  0  0  0  0  0  0  0  0  0  0  0
    4.0942    0.8547    0.0000 O   0  0  0  0  0  0  0  0  0  0  0  0
    4.5620   -0.4955    0.0000 N   0  0  0  0  0  0  0  0  0  0  0  0
    5.3415   -0.2255    0.0000 S   0  0  0  0  0  0  0  0  0  0  0  0
    6.1211    0.0446    0.0000 C   0  0  0  0  0  0  0  0  0  0  0  0
    5.0715    0.5541    0.0000 O   0  0  0  0  0  0  0  0  0  0  0  0
    5.6115   -1.0050    0.0000 O   0  0  0  0  0  0  0  0  0  0  0  0
  1  2  1  0
  1  6  2  0
  2  3  2  0
  3  4  1  0
  4  5  2  0
  5  6  1  0
  7  8  2  0
  7 12  1  0
  8  9  1  0
  9 10  2  0
 10 11  1  0
 11 12  2  0
  5 13  1  0
 12 14  1  0
 15 13  1  0
 13 14  2  0
 14 16  1  0
 15 18  2  0
 16 17  2  0
 17 18  1  0
 18 19  1  0
 19 20  1  0
 20 21  1  0
 20 22  1  0
 19 23  1  0
 23 24  1  0
 24 25  1  0
 25 26  1  0
 26 27  1  0
 27 28  1  0
 28 29  1  0
 29 30  2  0
 29 31  1  0
 31 32  1  0
 32 33  1  0
 32 34  2  0
 32 35  2  0
M  END
> <chembl_id>
CHEMBL238804

> <chembl_pref_name>
SELEXIPAG
