
     RDKit          2D

 22 22  0  0  0  0  0  0  0  0999 V2000
    9.8042   -3.7750    0.0000 Cl  0  0  0  0  0  0  0  0  0  0  0  0
    7.2875   -3.2333    0.0000 C   0  0  0  0  0  0  0  0  0  0  0  0
    7.2875   -2.5292    0.0000 C   0  0  0  0  0  0  0  0  0  0  0  0
    6.6750   -3.5917    0.0000 C   0  0  0  0  0  0  0  0  0  0  0  0
    7.8958   -2.1750    0.0000 C   0  0  0  0  0  0  0  0  0  0  0  0
    7.8958   -1.4667    0.0000 O   0  0  0  0  0  0  0  0  0  0  0  0
   10.3500   -1.4625    0.0000 N   0  0  0  0  0  0  0  0  0  0  0  0
    6.6792   -4.3000    0.0000 O   0  0  0  0  0  0  0  0  0  0  0  0
   10.9625   -1.1042    0.0000 C   0  0  0  0  0  0  0  0  0  0  0  0
    9.1208   -1.4625    0.0000 C   0  0  0  0  0  0  0  0  0  0  0  0
    8.5083   -1.1125    0.0000 C   0  0  0  0  0  0  0  0  0  0  0  0
    9.7333   -1.1083    0.0000 C   0  0  0  0  0  0  0  0  0  0  0  0
    7.8958   -3.5875    0.0000 C   0  0  0  0  0  0  0  0  0  0  0  0
    6.6750   -2.1750    0.0000 C   0  0  0  0  0  0  0  0  0  0  0  0
    9.1250   -2.1708    0.0000 O   0  0  0  0  0  0  0  0  0  0  0  0
    6.0667   -3.2375    0.0000 C   0  0  0  0  0  0  0  0  0  0  0  0
    6.0667   -2.5292    0.0000 C   0  0  0  0  0  0  0  0  0  0  0  0
    8.5083   -3.2333    0.0000 C   0  0  0  0  0  0  0  0  0  0  0  0
    8.5083   -2.5250    0.0000 C   0  0  0  0  0  0  0  0  0  0  0  0
   11.3125   -0.4875    0.0000 C   0  0  0  0  0  0  0  0  0  0  0  0
   10.6042   -0.4875    0.0000 C   0  0  0  0  0  0  0  0  0  0  0  0
   11.5750   -1.4583    0.0000 C   0  0  0  0  0  0  0  0  0  0  0  0
  3  2  2  0
  4  2  1  0
  5  3  1  0
  6  5  1  0
  7 12  1  0
  8  4  2  0
  9  7  1  0
 10 11  1  0
 11  6  1  0
 12 10  1  0
 13  2  1  0
 14  3  1  0
 10 15  1  6
 16  4  1  0
 17 16  1  0
 18 13  2  0
 19 18  1  0
 20  9  1  0
 21  9  1  0
 22  9  1  0
 14 17  1  0
  5 19  2  0
M  END
> <chembl_id>
CHEMBL1201177

> <chembl_pref_name>
LEVOBUNOLOL HYDROCHLORIDE
