
     RDKit          2D

 66 68  0  0  0  0  0  0  0  0999 V2000
    5.7118   -2.0835    0.0000 C   0  0  0  0  0  0  0  0  0  0  0  0
    8.5719   -4.5594    0.0000 C   0  0  0  0  0  0  0  0  0  0  0  0
    9.2859   -4.9645    0.0000 C   0  0  0  0  0  0  0  0  0  0  0  0
    9.2817   -5.7912    0.0000 C   0  0  0  0  0  0  0  0  0  0  0  0
    7.1440   -1.2526    0.0000 C   0  0  0  0  0  0  0  0  0  0  0  0
    7.1440   -2.0835    0.0000 C   0  0  0  0  0  0  0  0  0  0  0  0
    7.8580   -4.9645    0.0000 O   0  0  0  0  0  0  0  0  0  0  0  0
    6.4300   -2.4927    0.0000 O   0  0  0  0  0  0  0  0  0  0  0  0
    8.5594   -6.2045    0.0000 C   0  0  0  0  0  0  0  0  0  0  0  0
    6.4300   -0.8309    0.0000 C   0  0  0  0  0  0  0  0  0  0  0  0
    5.7118   -1.2526    0.0000 C   0  0  0  0  0  0  0  0  0  0  0  0
   -2.1502   -3.3194    0.0000 C   0  0  0  0  0  0  0  0  0  0  0  0
   -2.8642   -3.7327    0.0000 O   0  0  0  0  0  0  0  0  0  0  0  0
   -2.1502   -4.9645    0.0000 C   0  0  0  0  0  0  0  0  0  0  0  0
    7.8537   -5.7870    0.0000 C   0  0  0  0  0  0  0  0  0  0  0  0
    7.8580   -0.8392    0.0000 C   0  0  0  0  0  0  0  0  0  0  0  0
   -2.8642   -4.5594    0.0000 C   0  0  0  0  0  0  0  0  0  0  0  0
   -2.1502   -5.7912    0.0000 C   0  0  0  0  0  0  0  0  0  0  0  0
    5.0020   -2.4927    0.0000 C   0  0  0  0  0  0  0  0  0  0  0  0
    8.5719   -3.7327    0.0000 O   0  0  0  0  0  0  0  0  0  0  0  0
   -2.1502   -2.4927    0.0000 C   0  0  0  0  0  0  0  0  0  0  0  0
    7.8580   -2.4969    0.0000 C   0  0  0  0  0  0  0  0  0  0  0  0
    3.5616   -2.4927    0.0000 C   0  0  0  0  0  0  0  0  0  0  0  0
    2.8559   -2.0835    0.0000 C   0  0  0  0  0  0  0  0  0  0  0  0
    7.8580   -3.3194    0.0000 C   0  0  0  0  0  0  0  0  0  0  0  0
    4.2839   -2.0835    0.0000 C   0  0  0  0  0  0  0  0  0  0  0  0
   -1.4363   -2.0835    0.0000 C   0  0  0  0  0  0  0  0  0  0  0  0
   -1.4363   -3.7327    0.0000 O   0  0  0  0  0  0  0  0  0  0  0  0
   -1.4363   -6.2045    0.0000 C   0  0  0  0  0  0  0  0  0  0  0  0
    7.8580   -0.0125    0.0000 O   0  0  0  0  0  0  0  0  0  0  0  0
    2.1336   -2.4927    0.0000 C   0  0  0  0  0  0  0  0  0  0  0  0
    9.9874   -6.2045    0.0000 N   0  0  0  0  0  0  0  0  0  0  0  0
   -0.7223   -2.4927    0.0000 C   0  0  0  0  0  0  0  0  0  0  0  0
    1.4196   -6.2045    0.0000 C   0  0  0  0  0  0  0  0  0  0  0  0
    6.4300   -4.9645    0.0000 C   0  0  0  0  0  0  0  0  0  0  0  0
    6.4300   -5.7912    0.0000 C   0  0  0  0  0  0  0  0  0  0  0  0
    2.1336   -5.7912    0.0000 C   0  0  0  0  0  0  0  0  0  0  0  0
    2.8559   -6.2045    0.0000 C   0  0  0  0  0  0  0  0  0  0  0  0
    3.5616   -5.7912    0.0000 C   0  0  0  0  0  0  0  0  0  0  0  0
    4.2839   -6.2045    0.0000 C   0  0  0  0  0  0  0  0  0  0  0  0
    5.0020   -5.7912    0.0000 C   0  0  0  0  0  0  0  0  0  0  0  0
    5.7118   -6.2045    0.0000 C   0  0  0  0  0  0  0  0  0  0  0  0
    0.7057   -5.7912    0.0000 C   0  0  0  0  0  0  0  0  0  0  0  0
   -0.0083   -6.2045    0.0000 C   0  0  0  0  0  0  0  0  0  0  0  0
    7.1440   -4.5594    0.0000 C   0  0  0  0  0  0  0  0  0  0  0  0
    7.1440   -3.7327    0.0000 C   0  0  0  0  0  0  0  0  0  0  0  0
   -0.7223   -5.7912    0.0000 C   0  0  0  0  0  0  0  0  0  0  0  0
    5.7035   -2.9060    0.0000 O   0  0  0  0  0  0  0  0  0  0  0  0
    9.9999   -4.5511    0.0000 O   0  0  0  0  0  0  0  0  0  0  0  0
    1.4196   -2.0835    0.0000 C   0  0  0  0  0  0  0  0  0  0  0  0
    8.5594   -7.0312    0.0000 O   0  0  0  0  0  0  0  0  0  0  0  0
    6.4258   -0.0125    0.0000 O   0  0  0  0  0  0  0  0  0  0  0  0
    8.5802   -1.2526    0.0000 O   0  0  0  0  0  0  0  0  0  0  0  0
   -2.8642   -6.2045    0.0000 O   0  0  0  0  0  0  0  0  0  0  0  0
   -0.0083   -2.0835    0.0000 C   0  0  0  0  0  0  0  0  0  0  0  0
    2.8559   -1.2568    0.0000 O   0  0  0  0  0  0  0  0  0  0  0  0
    0.7057   -2.4927    0.0000 C   0  0  0  0  0  0  0  0  0  0  0  0
    4.2839   -1.2568    0.0000 O   0  0  0  0  0  0  0  0  0  0  0  0
    2.1336   -3.3194    0.0000 O   0  0  0  0  0  0  0  0  0  0  0  0
   -1.4363   -1.2568    0.0000 O   0  0  0  0  0  0  0  0  0  0  0  0
   -1.4363   -4.5594    0.0000 C   0  0  0  0  0  0  0  0  0  0  0  0
   -0.0083   -1.2568    0.0000 O   0  0  0  0  0  0  0  0  0  0  0  0
    7.1314   -6.1920    0.0000 C   0  0  0  0  0  0  0  0  0  0  0  0
   -3.5782   -4.9645    0.0000 C   0  0  0  0  0  0  0  0  0  0  0  0
   -1.4363   -7.0312    0.0000 C   0  0  0  0  0  0  0  0  0  0  0  0
    7.1314   -2.9060    0.0000 H   0  0  0  0  0  0  0  0  0  0  0  0
  2 20  1  1
  3  2  1  0
  4  3  1  0
  5 10  1  0
  6  8  1  0
  7  2  1  0
  8  1  1  0
  9 15  1  0
 10 11  1  0
 11  1  1  0
 12 21  1  0
 13 12  1  0
 14 17  1  0
 15  7  1  0
  5 16  1  1
 17 13  1  0
 18 14  1  0
 19  1  1  0
 25 20  1  1
 21 27  1  0
 22  6  1  0
 23 26  1  0
 24 23  1  0
 25 22  1  0
 26 19  1  0
 27 33  1  0
 28 12  2  0
 29 18  1  0
 30 16  2  0
 31 24  1  0
  4 32  1  1
 33 55  1  0
 34 37  1  0
 35 45  1  0
 36 35  2  0
 37 38  2  0
 38 39  1  0
 39 40  2  0
 40 41  1  0
 41 42  2  0
 42 36  1  0
 43 34  2  0
 44 43  1  0
 45 46  2  0
 46 25  1  0
 47 29  1  0
  1 48  1  1
  3 49  1  1
 50 31  1  0
  9 51  1  6
 10 52  1  6
 53 16  1  0
 18 54  1  1
 55 57  1  0
 24 56  1  6
 57 50  1  0
 26 58  1  6
 31 59  1  6
 27 60  1  6
 14 61  1  6
 55 62  1  6
 15 63  1  1
 17 64  1  6
 29 65  1  6
  6 66  1  1
  6  5  1  0
  4  9  1  0
 47 44  2  0
M  END
> <chembl_id>
CHEMBL267345

> <chembl_pref_name>
AMPHOTERICIN B
