
     RDKit          2D

 25 27  0  0  0  0  0  0  0  0999 V2000
    1.8042    0.9458    0.0000 C   0  0  0  0  0  0  0  0  0  0  0  0
    0.6917    0.5958    0.0000 C   0  0  0  0  0  0  0  0  0  0  0  0
    1.8167   -0.9542    0.0000 N   0  0  0  0  0  0  0  0  0  0  0  0
    0.6917   -0.5750    0.0000 C   0  0  0  0  0  0  0  0  0  0  0  0
    2.5375    0.0000    0.0000 O   0  0  0  0  0  0  0  0  0  0  0  0
    2.1792    2.0708    0.0000 C   0  0  0  0  0  0  0  0  0  0  0  0
    3.3292    2.3083    0.0000 C   0  0  0  0  0  0  0  0  0  0  0  0
   -0.2458    1.3083    0.0000 C   0  0  0  0  0  0  0  0  0  0  0  0
   -0.2833   -1.2542    0.0000 C   0  0  0  0  0  0  0  0  0  0  0  0
    3.6792    3.4583    0.0000 O   0  0  0  0  0  0  0  0  0  0  0  0
   -0.1458    2.4833    0.0000 C   0  0  0  0  0  0  0  0  0  0  0  0
   -1.3208    0.8250    0.0000 C   0  0  0  0  0  0  0  0  0  0  0  0
   -0.1625   -2.4375    0.0000 C   0  0  0  0  0  0  0  0  0  0  0  0
   -1.3333   -0.7750    0.0000 C   0  0  0  0  0  0  0  0  0  0  0  0
   -2.1500    2.7083    0.0000 C   0  0  0  0  0  0  0  0  0  0  0  0
   -2.1833   -2.6542    0.0000 C   0  0  0  0  0  0  0  0  0  0  0  0
    4.1250    1.4458    0.0000 O   0  0  0  0  0  0  0  0  0  0  0  0
   -1.0625    3.1708    0.0000 C   0  0  0  0  0  0  0  0  0  0  0  0
   -2.3000    1.5458    0.0000 C   0  0  0  0  0  0  0  0  0  0  0  0
   -1.1333   -3.1542    0.0000 C   0  0  0  0  0  0  0  0  0  0  0  0
   -2.3000   -1.4667    0.0000 C   0  0  0  0  0  0  0  0  0  0  0  0
   -3.1208    3.3958    0.0000 O   0  0  0  0  0  0  0  0  0  0  0  0
   -3.1833   -3.3750    0.0000 O   0  0  0  0  0  0  0  0  0  0  0  0
   -4.2083    2.9458    0.0000 C   0  0  0  0  0  0  0  0  0  0  0  0
   -4.2208   -2.8792    0.0000 C   0  0  0  0  0  0  0  0  0  0  0  0
  2  1  2  0
  3  5  1  0
  4  2  1  0
  5  1  1  0
  6  1  1  0
  7  6  1  0
  8  2  1  0
  9  4  1  0
 10  7  2  0
 11  8  1  0
 12  8  2  0
 13  9  2  0
 14  9  1  0
 15 19  2  0
 16 21  1  0
 17  7  1  0
 18 11  2  0
 19 12  1  0
 20 13  1  0
 21 14  2  0
 22 15  1  0
 23 16  1  0
 24 22  1  0
 25 23  1  0
  4  3  2  0
 18 15  1  0
 20 16  2  0
M  END
> <chembl_id>
CHEMBL259972

> <chembl_pref_name>
MOFEZOLAC
