
     RDKit          2D

 42 46  0  0  0  0  0  0  0  0999 V2000
   -3.3208    2.4208    0.0000 C   0  0  0  0  0  0  0  0  0  0  0  0
    3.6542   -1.2542    0.0000 C   0  0  0  0  0  0  0  0  0  0  0  0
   -3.3083   -1.4375    0.0000 C   0  0  0  0  0  0  0  0  0  0  0  0
    1.1667   -1.3167    0.0000 N   0  0  0  0  0  0  0  0  0  0  0  0
   -2.2583   -0.7042    0.0000 N   0  0  0  0  0  0  0  0  0  0  0  0
   -2.2458    0.5458    0.0000 C   0  0  0  0  0  0  0  0  0  0  0  0
   -2.9583   -0.8542    0.0000 C   0  0  0  0  0  0  0  0  0  0  0  0
   -1.8875   -0.0792    0.0000 C   0  0  0  0  0  0  0  0  0  0  0  0
   -2.9458   -2.2375    0.0000 C   0  0  0  0  0  0  0  0  0  0  0  0
   -1.8875    1.1583    0.0000 C   0  0  0  0  0  0  0  0  0  0  0  0
   -2.9625    1.7875    0.0000 C   0  0  0  0  0  0  0  0  0  0  0  0
    3.0292   -0.9125    0.0000 C   0  0  0  0  0  0  0  0  0  0  0  0
    1.7792   -0.9542    0.0000 C   0  0  0  0  0  0  0  0  0  0  0  0
   -2.2458    1.7833    0.0000 C   0  0  0  0  0  0  0  0  0  0  0  0
   -0.1583   -2.1292    0.0000 N   0  0  0  0  0  0  0  0  0  0  0  0
    2.4292   -1.3125    0.0000 C   0  0  0  0  0  0  0  0  0  0  0  0
   -2.9625    0.5500    0.0000 C   0  0  0  0  0  0  0  0  0  0  0  0
   -1.1708    1.1625    0.0000 N   0  0  0  0  0  0  0  0  0  0  0  0
   -3.3208    1.1750    0.0000 C   0  0  0  0  0  0  0  0  0  0  0  0
    1.1667   -2.1042    0.0000 C   0  0  0  0  0  0  0  0  0  0  0  0
    0.4917   -1.0542    0.0000 C   0  0  0  0  0  0  0  0  0  0  0  0
   -3.3583   -2.9500    0.0000 O   0  0  0  0  0  0  0  0  0  0  0  0
   -3.9250    2.0375    0.0000 F   0  0  0  0  0  0  0  0  0  0  0  0
   -2.7083    2.7708    0.0000 F   0  0  0  0  0  0  0  0  0  0  0  0
   -3.6833    3.0208    0.0000 F   0  0  0  0  0  0  0  0  0  0  0  0
    4.2625   -1.6125    0.0000 F   0  0  0  0  0  0  0  0  0  0  0  0
    4.0167   -0.6542    0.0000 F   0  0  0  0  0  0  0  0  0  0  0  0
    3.3000   -1.8542    0.0000 F   0  0  0  0  0  0  0  0  0  0  0  0
   -0.1583   -1.4292    0.0000 C   0  0  0  0  0  0  0  0  0  0  0  0
    0.5417   -2.4292    0.0000 C   0  0  0  0  0  0  0  0  0  0  0  0
   -1.1458   -0.0667    0.0000 C   0  0  0  0  0  0  0  0  0  0  0  0
   -2.1000   -2.7292    0.0000 O   0  0  0  0  0  0  0  0  0  0  0  0
   -0.8208    0.5208    0.0000 C   0  0  0  0  0  0  0  0  0  0  0  0
   -4.0208   -1.4375    0.0000 C   0  0  0  0  0  0  0  0  0  0  0  0
   -0.6375   -2.5000    0.0000 C   0  0  0  0  0  0  0  0  0  0  0  0
   -1.3708   -2.0667    0.0000 C   0  0  0  0  0  0  0  0  0  0  0  0
   -3.3000   -0.2417    0.0000 C   0  0  0  0  0  0  0  0  0  0  0  0
    3.0000   -0.2125    0.0000 C   0  0  0  0  0  0  0  0  0  0  0  0
    1.7750   -0.2292    0.0000 C   0  0  0  0  0  0  0  0  0  0  0  0
    2.3792    0.1458    0.0000 C   0  0  0  0  0  0  0  0  0  0  0  0
   -4.3458   -0.8375    0.0000 C   0  0  0  0  0  0  0  0  0  0  0  0
   -4.0000   -0.2417    0.0000 C   0  0  0  0  0  0  0  0  0  0  0  0
  2 12  1  0
  3  7  2  0
  4 20  1  0
  5  8  1  0
  6 17  1  0
  7  5  1  0
  8  6  2  0
  9  3  1  0
 10 14  1  0
 11  1  1  0
 12 16  1  0
 13  4  1  0
 14 11  2  0
 15 35  1  0
 16 13  2  0
 17 19  2  0
 18 10  2  0
 19 11  1  0
 20 30  1  0
 21 29  1  0
 22  9  2  0
 23  1  1  0
 24  1  1  0
 25  1  1  0
 26  2  1  0
 27  2  1  0
 28  2  1  0
 29 15  1  0
 30 15  1  0
 31  8  1  0
 32  9  1  0
 33 18  1  0
 34  3  1  0
 35 36  1  0
 36 32  1  0
 37  7  1  0
 38 40  1  0
 39 13  1  0
 40 39  2  0
 41 42  1  0
 42 37  2  0
  6 10  1  0
 31 33  2  0
 34 41  2  0
 21  4  1  0
 12 38  2  0
M  END
> <chembl_id>
CHEMBL345524

> <chembl_pref_name>
ANTRAFENINE
