
     RDKit          2D

 39 38  0  0  0  0  0  0  0  0999 V2000
    8.7154    0.3419    0.0000 C   0  0  0  0  0  0  0  0  0  0  0  0
    8.7154    1.1669    0.0000 C   0  0  0  0  0  0  0  0  0  0  0  0
    8.0009    1.5794    0.0000 C   0  0  0  0  0  0  0  0  0  0  0  0
    8.0009   -0.0706    0.0000 C   0  0  0  0  0  0  0  0  0  0  0  0
    7.2864    3.6419    0.0000 N   0  0  0  0  0  0  0  0  0  0  0  0
    7.2864    1.1669    0.0000 C   0  0  0  0  0  0  0  0  0  0  0  0
    6.5720    4.0544    0.0000 C   0  0  0  0  0  0  0  0  0  0  0  0
    7.2864    0.3419    0.0000 C   0  0  0  0  0  0  0  0  0  0  0  0
    7.2864    2.8169    0.0000 C   0  0  0  0  0  0  0  0  0  0  0  0
    8.0009    2.4044    0.0000 C   0  0  0  0  0  0  0  0  0  0  0  0
    8.0009   -0.8956    0.0000 O   0  0  0  0  0  0  0  0  0  0  0  0
    9.4299   -0.0706    0.0000 C   0  0  0  0  0  0  0  0  0  0  0  0
    8.7154    2.8169    0.0000 O   0  0  0  0  0  0  0  0  0  0  0  0
    9.4299   -0.8956    0.0000 O   0  0  0  0  0  0  0  0  0  0  0  0
    5.8575    4.4669    0.0000 C   0  0  0  0  0  0  0  0  0  0  0  0
    6.9845    4.7689    0.0000 C   0  0  0  0  0  0  0  0  0  0  0  0
    6.1595    3.3399    0.0000 C   0  0  0  0  0  0  0  0  0  0  0  0
    0.7823    4.3302    0.0000 C   0  0  0  0  0  0  0  0  0  0  0  0
    1.4968    3.9177    0.0000 C   0  0  0  0  0  0  0  0  0  0  0  0
    1.0843    3.2032    0.0000 C   0  0  0  0  0  0  0  0  0  0  0  0
    1.9093    4.6321    0.0000 C   0  0  0  0  0  0  0  0  0  0  0  0
    2.2112    3.5052    0.0000 N   0  0  0  0  0  0  0  0  0  0  0  0
    2.2112    2.6802    0.0000 C   0  0  0  0  0  0  0  0  0  0  0  0
    2.9257    2.2677    0.0000 C   0  0  0  0  0  0  0  0  0  0  0  0
    3.6402    2.6802    0.0000 O   0  0  0  0  0  0  0  0  0  0  0  0
    2.9257    1.4427    0.0000 C   0  0  0  0  0  0  0  0  0  0  0  0
    2.2112    1.0302    0.0000 C   0  0  0  0  0  0  0  0  0  0  0  0
    2.2112    0.2052    0.0000 C   0  0  0  0  0  0  0  0  0  0  0  0
    2.9257   -0.2073    0.0000 C   0  0  0  0  0  0  0  0  0  0  0  0
    2.9257   -1.0323    0.0000 O   0  0  0  0  0  0  0  0  0  0  0  0
    3.6402    0.2052    0.0000 C   0  0  0  0  0  0  0  0  0  0  0  0
    4.3547   -0.2073    0.0000 C   0  0  0  0  0  0  0  0  0  0  0  0
    4.3852   -1.0486    0.0000 O   0  0  0  0  0  0  0  0  0  0  0  0
    3.6402    1.0302    0.0000 C   0  0  0  0  0  0  0  0  0  0  0  0
   12.7757    1.6012    0.0000 S   0  0  0  0  0  0  0  0  0  0  0  0
   13.1826    2.3278    0.0000 O   0  0  0  0  0  0  0  0  0  0  0  0
   12.3542    2.3278    0.0000 O   0  0  0  0  0  0  0  0  0  0  0  0
   12.0636    1.1943    0.0000 O   0  0  0  0  0  0  0  0  0  0  0  0
   13.4878    1.1943    0.0000 O   0  0  0  0  0  0  0  0  0  0  0  0
  2  1  1  0
  3  2  2  0
  4  1  2  0
  5  9  1  0
  6  8  2  0
  7  5  1  0
  8  4  1  0
  9 10  1  0
 10  3  1  0
 11  4  1  0
 12  1  1  0
 13 10  1  0
 14 12  1  0
 15  7  1  0
 16  7  1  0
 17  7  1  0
  6  3  1  0
 18 19  1  0
 19 20  1  0
 19 21  1  0
 19 22  1  0
 22 23  1  0
 23 24  1  0
 24 25  1  0
 24 26  1  0
 26 27  2  0
 27 28  1  0
 28 29  2  0
 29 30  1  0
 29 31  1  0
 31 32  1  0
 32 33  1  0
 31 34  2  0
 26 34  1  0
 36 35  2  0
 37 35  2  0
 38 35  1  0
 39 35  1  0
M  END
> <chembl_id>
CHEMBL1441059

> <chembl_pref_name>
ALBUTEROL SULFATE
