
     RDKit          2D

 14 14  0  0  0  0  0  0  0  0999 V2000
   -0.3625    1.0625    0.0000 C   0  0  0  0  0  0  0  0  0  0  0  0
   -0.9458    1.4708    0.0000 S   0  0  0  0  0  0  0  0  0  0  0  0
   -1.5208    1.0625    0.0000 C   0  0  0  0  0  0  0  0  0  0  0  0
    0.2500    1.4208    0.0000 S   0  0  0  0  0  0  0  0  0  0  0  0
   -0.5875    0.3708    0.0000 N   0  0  0  0  0  0  0  0  0  0  0  0
   -1.2958    0.3708    0.0000 N   0  0  0  0  0  0  0  0  0  0  0  0
   -2.1875    1.3125    0.0000 N   0  0  0  0  0  0  0  0  0  0  0  0
   -2.8083    0.9833    0.0000 C   0  0  0  0  0  0  0  0  0  0  0  0
    0.6000    2.0375    0.0000 O   0  0  0  0  0  0  0  0  0  0  0  0
   -0.1083    2.0375    0.0000 O   0  0  0  0  0  0  0  0  0  0  0  0
    0.8625    1.0708    0.0000 N   0  0  0  0  0  0  0  0  0  0  0  0
   -2.8083    0.2833    0.0000 O   0  0  0  0  0  0  0  0  0  0  0  0
   -1.7083   -0.2167    0.0000 C   0  0  0  0  0  0  0  0  0  0  0  0
   -3.4000    1.3583    0.0000 C   0  0  0  0  0  0  0  0  0  0  0  0
  2  1  1  0
  3  2  1  0
  4  1  1  0
  5  1  2  0
  6  5  1  0
  7  3  2  0
  8  7  1  0
  9  4  2  0
 10  4  2  0
 11  4  1  0
 12  8  2  0
 13  6  1  0
 14  8  1  0
  6  3  1  0
M  END
> <chembl_id>
CHEMBL19

> <chembl_pref_name>
METHAZOLAMIDE
