
     RDKit          2D

 22 23  0  0  0  0  0  0  0  0999 V2000
    3.7750   -3.9042    0.0000 Cl  0  0  0  0  0  0  0  0  0  0  0  0
    1.0167   -3.9542    0.0000 C   0  0  0  0  0  0  0  0  0  0  0  0
    1.3667   -3.3375    0.0000 C   0  0  0  0  0  0  0  0  0  0  0  0
    2.4250   -2.7125    0.0000 N   0  0  0  0  0  0  0  0  0  0  0  0
    0.4042   -4.3125    0.0000 C   0  0  0  0  0  0  0  0  0  0  0  0
    2.0708   -3.3292    0.0000 C   0  0  0  0  0  0  0  0  0  0  0  0
    1.6292   -4.3042    0.0000 C   0  0  0  0  0  0  0  0  0  0  0  0
    0.6625   -3.3375    0.0000 O   0  0  0  0  0  0  0  0  0  0  0  0
    2.2042   -2.0417    0.0000 C   0  0  0  0  0  0  0  0  0  0  0  0
    3.1292   -2.7125    0.0000 C   0  0  0  0  0  0  0  0  0  0  0  0
    0.4042   -5.0250    0.0000 C   0  0  0  0  0  0  0  0  0  0  0  0
   -0.2083   -3.9542    0.0000 C   0  0  0  0  0  0  0  0  0  0  0  0
    1.6292   -5.0167    0.0000 C   0  0  0  0  0  0  0  0  0  0  0  0
    2.2417   -3.9500    0.0000 C   0  0  0  0  0  0  0  0  0  0  0  0
    3.3542   -2.0417    0.0000 C   0  0  0  0  0  0  0  0  0  0  0  0
    2.7792   -1.6167    0.0000 C   0  0  0  0  0  0  0  0  0  0  0  0
   -0.2083   -5.3792    0.0000 C   0  0  0  0  0  0  0  0  0  0  0  0
   -0.8208   -4.3125    0.0000 C   0  0  0  0  0  0  0  0  0  0  0  0
    2.8542   -4.3042    0.0000 C   0  0  0  0  0  0  0  0  0  0  0  0
    2.2417   -5.3667    0.0000 C   0  0  0  0  0  0  0  0  0  0  0  0
   -0.8208   -5.0250    0.0000 C   0  0  0  0  0  0  0  0  0  0  0  0
    2.8542   -5.0125    0.0000 C   0  0  0  0  0  0  0  0  0  0  0  0
  3  2  1  0
  4  6  1  0
  5  2  1  0
  6  3  1  0
  7  2  1  0
  8  2  1  0
  9  4  1  0
 10  4  1  0
 11  5  1  0
 12  5  2  0
 13  7  1  0
 14  7  1  0
 15 10  1  0
 16  9  1  0
 17 11  2  0
 18 12  1  0
 19 14  1  0
 20 13  1  0
 21 17  1  0
 22 20  1  0
 22 19  1  0
 21 18  2  0
 16 15  1  0
M  END
> <chembl_id>
CHEMBL1761

> <chembl_pref_name>
PROCYCLIDINE HYDROCHLORIDE
