
     RDKit          2D

 30 34  0  0  0  0  0  0  0  0999 V2000
    1.8292   -2.9375    0.0000 C   0  0  0  0  0  0  0  0  0  0  0  0
    1.2125   -3.2917    0.0000 C   0  0  0  0  0  0  0  0  0  0  0  0
    0.5917   -2.9375    0.0000 N   0  0  0  0  0  0  0  0  0  0  0  0
    1.2125   -1.8667    0.0000 N   0  0  0  0  0  0  0  0  0  0  0  0
    0.5917   -2.2167    0.0000 C   0  0  0  0  0  0  0  0  0  0  0  0
    6.0750   -3.9250    0.0000 N   0  0  0  0  0  0  0  0  0  0  0  0
    1.8292   -2.2167    0.0000 C   0  0  0  0  0  0  0  0  0  0  0  0
    5.5000   -4.3542    0.0000 C   0  0  0  0  0  0  0  0  0  0  0  0
    5.7542   -5.0292    0.0000 C   0  0  0  0  0  0  0  0  0  0  0  0
    6.6417   -4.3500    0.0000 O   0  0  0  0  0  0  0  0  0  0  0  0
    6.4792   -4.9917    0.0000 C   0  0  0  0  0  0  0  0  0  0  0  0
    2.4417   -3.2917    0.0000 C   0  0  0  0  0  0  0  0  0  0  0  0
    3.6750   -3.2917    0.0000 N   0  0  0  0  0  0  0  0  0  0  0  0
    5.4417   -5.6542    0.0000 C   0  0  0  0  0  0  0  0  0  0  0  0
    6.8667   -5.5875    0.0000 C   0  0  0  0  0  0  0  0  0  0  0  0
    1.2125   -4.0000    0.0000 O   0  0  0  0  0  0  0  0  0  0  0  0
    4.9042   -4.0000    0.0000 C   0  0  0  0  0  0  0  0  0  0  0  0
    3.0792   -2.9375    0.0000 C   0  0  0  0  0  0  0  0  0  0  0  0
    6.5500   -6.2250    0.0000 C   0  0  0  0  0  0  0  0  0  0  0  0
    4.2667   -4.3542    0.0000 C   0  0  0  0  0  0  0  0  0  0  0  0
    4.9042   -3.2917    0.0000 C   0  0  0  0  0  0  0  0  0  0  0  0
    3.6750   -4.0000    0.0000 C   0  0  0  0  0  0  0  0  0  0  0  0
    4.2917   -2.9375    0.0000 C   0  0  0  0  0  0  0  0  0  0  0  0
    0.0042   -3.2917    0.0000 C   0  0  0  0  0  0  0  0  0  0  0  0
    5.8250   -6.2417    0.0000 C   0  0  0  0  0  0  0  0  0  0  0  0
    0.0042   -1.8667    0.0000 C   0  0  0  0  0  0  0  0  0  0  0  0
    2.4417   -1.8417    0.0000 C   0  0  0  0  0  0  0  0  0  0  0  0
    6.9792   -6.8042    0.0000 F   0  0  0  0  0  0  0  0  0  0  0  0
   -0.6125   -2.9375    0.0000 C   0  0  0  0  0  0  0  0  0  0  0  0
   -0.6125   -2.2167    0.0000 C   0  0  0  0  0  0  0  0  0  0  0  0
  2  1  1  0
  3  2  1  0
  4  7  1  0
  5  4  2  0
  6  8  2  0
  7  1  2  0
  8 17  1  0
  9  8  1  0
 10  6  1  0
 11  9  2  0
 12  1  1  0
 13 18  1  0
 14  9  1  0
 15 11  1  0
 16  2  2  0
 17 21  1  0
 18 12  1  0
 19 25  1  0
 20 22  1  0
 21 23  1  0
 22 13  1  0
 23 13  1  0
 24  3  1  0
 25 14  2  0
 26  5  1  0
 27  7  1  0
 28 19  1  0
 29 24  1  0
 30 26  1  0
  5  3  1  0
 17 20  1  0
 30 29  1  0
 10 11  1  0
 19 15  2  0
M  END
> <chembl_id>
CHEMBL85

> <chembl_pref_name>
RISPERIDONE
