
     RDKit          2D

 25 27  0  0  0  0  0  0  0  0999 V2000
    1.6792   -1.1375    0.0000 N   0  0  0  0  0  0  0  0  0  0  0  0
   -1.5500   -0.1667    0.0000 C   0  0  0  0  0  0  0  0  0  0  0  0
   -1.5500   -1.1167    0.0000 C   0  0  0  0  0  0  0  0  0  0  0  0
   -0.7458   -1.5792    0.0000 O   0  0  0  0  0  0  0  0  0  0  0  0
    0.8542   -1.6000    0.0000 C   0  0  0  0  0  0  0  0  0  0  0  0
   -2.3500   -1.5792    0.0000 O   0  0  0  0  0  0  0  0  0  0  0  0
   -2.5000   -0.1667    0.0000 C   0  0  0  0  0  0  0  0  0  0  0  0
   -1.5500    0.7833    0.0000 C   0  0  0  0  0  0  0  0  0  0  0  0
    0.0792   -1.1167    0.0000 C   0  0  0  0  0  0  0  0  0  0  0  0
   -0.6250   -0.1667    0.0000 O   0  0  0  0  0  0  0  0  0  0  0  0
    2.3667   -1.7917    0.0000 C   0  0  0  0  0  0  0  0  0  0  0  0
    2.6250   -0.8667    0.0000 C   0  0  0  0  0  0  0  0  0  0  0  0
    1.2167   -0.3125    0.0000 C   0  0  0  0  0  0  0  0  0  0  0  0
    1.9542   -2.6167    0.0000 C   0  0  0  0  0  0  0  0  0  0  0  0
    1.0250   -2.5000    0.0000 C   0  0  0  0  0  0  0  0  0  0  0  0
   -2.9583   -0.9667    0.0000 C   0  0  0  0  0  0  0  0  0  0  0  0
   -0.7458    1.2458    0.0000 C   0  0  0  0  0  0  0  0  0  0  0  0
   -2.3500    1.2458    0.0000 C   0  0  0  0  0  0  0  0  0  0  0  0
   -2.9583    0.6333    0.0000 C   0  0  0  0  0  0  0  0  0  0  0  0
   -3.9083    0.6333    0.0000 C   0  0  0  0  0  0  0  0  0  0  0  0
   -3.8833   -0.9667    0.0000 C   0  0  0  0  0  0  0  0  0  0  0  0
   -0.7708    2.1958    0.0000 C   0  0  0  0  0  0  0  0  0  0  0  0
   -2.3500    2.1708    0.0000 C   0  0  0  0  0  0  0  0  0  0  0  0
   -4.3458   -0.1667    0.0000 C   0  0  0  0  0  0  0  0  0  0  0  0
   -1.5500    2.6250    0.0000 C   0  0  0  0  0  0  0  0  0  0  0  0
  2  3  1  0
  3  4  1  0
  4  9  1  0
  5  1  1  0
  6  3  2  0
  7  2  1  0
  8  2  1  0
  9  5  1  0
 10  2  1  0
 11  1  1  0
 12  1  1  0
 13  1  1  0
 14 11  1  0
 15  5  1  0
 16  7  1  0
 17  8  2  0
 18  8  1  0
 19  7  2  0
 20 19  1  0
 21 16  2  0
 22 17  1  0
 23 18  2  0
 24 20  2  0
 25 23  1  0
 15 14  1  0
 22 25  2  0
 21 24  1  0
M  CHG  1   1   1
M  END
> <chembl_id>
CHEMBL2110948

> <chembl_pref_name>
POLDINE
