
     RDKit          2D

 24 23  0  0  0  0  0  0  0  0999 V2000
   15.3790   -1.1952    0.0000 Cl  0  0  0  0  0  0  0  0  0  0  0  0
    5.5877   -0.4088    0.0000 C   0  0  0  0  0  0  0  0  0  0  0  0
    6.3026   -0.8208    0.0000 C   0  0  0  0  0  0  0  0  0  0  0  0
    7.0133   -0.4088    0.0000 C   0  0  0  0  0  0  0  0  0  0  0  0
    7.7281   -0.8208    0.0000 C   0  0  0  0  0  0  0  0  0  0  0  0
    8.4430   -0.4088    0.0000 C   0  0  0  0  0  0  0  0  0  0  0  0
    9.1579   -0.8208    0.0000 C   0  0  0  0  0  0  0  0  0  0  0  0
    9.8686   -0.4088    0.0000 C   0  0  0  0  0  0  0  0  0  0  0  0
   10.5834   -0.8208    0.0000 C   0  0  0  0  0  0  0  0  0  0  0  0
   11.2941   -0.4088    0.0000 C   0  0  0  0  0  0  0  0  0  0  0  0
   12.0090   -0.8208    0.0000 C   0  0  0  0  0  0  0  0  0  0  0  0
   12.7239   -0.4088    0.0000 C   0  0  0  0  0  0  0  0  0  0  0  0
   13.4347   -0.8208    0.0000 C   0  0  0  0  0  0  0  0  0  0  0  0
   14.1495   -0.4088    0.0000 C   0  0  0  0  0  0  0  0  0  0  0  0
   14.1495    0.4150    0.0000 N   0  0  0  0  0  0  0  0  0  0  0  0
   14.1495    1.2389    0.0000 C   0  0  0  0  0  0  0  0  0  0  0  0
   13.3256    0.4150    0.0000 C   0  0  0  0  0  0  0  0  0  0  0  0
   14.9733    0.4150    0.0000 C   0  0  0  0  0  0  0  0  0  0  0  0
   15.3852    1.1299    0.0000 C   0  0  0  0  0  0  0  0  0  0  0  0
   14.9733    1.8406    0.0000 C   0  0  0  0  0  0  0  0  0  0  0  0
   15.3852    2.5554    0.0000 C   0  0  0  0  0  0  0  0  0  0  0  0
   16.2091    2.5554    0.0000 C   0  0  0  0  0  0  0  0  0  0  0  0
   16.6210    1.8406    0.0000 C   0  0  0  0  0  0  0  0  0  0  0  0
   16.2091    1.1299    0.0000 C   0  0  0  0  0  0  0  0  0  0  0  0
  2  3  1  0
  3  4  1  0
  4  5  1  0
  5  6  1  0
  6  7  1  0
  7  8  1  0
  8  9  1  0
  9 10  1  0
 10 11  1  0
 11 12  1  0
 12 13  1  0
 13 14  1  0
 14 15  1  0
 15 16  1  0
 15 17  1  0
 15 18  1  0
 18 19  1  0
 19 20  2  0
 20 21  1  0
 21 22  2  0
 22 23  1  0
 23 24  2  0
 19 24  1  0
M  CHG  2   1  -1  15   1
M  END
> <chembl_id>
CHEMBL502109

> <chembl_pref_name>
BENZALKONIUM CHLORIDE
