
     RDKit          2D

 37 41  0  0  0  0  0  0  0  0999 V2000
   -3.3000    2.1509    0.0000 C   0  0  0  0  0  0  0  0  0  0  0  0
   -4.0144    2.5634    0.0000 C   0  0  0  0  0  0  0  0  0  0  0  0
   -4.7290    2.1509    0.0000 C   0  0  0  0  0  0  0  0  0  0  0  0
   -4.7290    1.3259    0.0000 C   0  0  0  0  0  0  0  0  0  0  0  0
   -4.0144    0.9134    0.0000 C   0  0  0  0  0  0  0  0  0  0  0  0
   -3.3000    1.3259    0.0000 C   0  0  0  0  0  0  0  0  0  0  0  0
   -2.5855    0.9134    0.0000 C   0  0  0  0  0  0  0  0  0  0  0  0
   -1.8710    1.3259    0.0000 C   0  0  0  0  0  0  0  0  0  0  0  0
   -1.8710    2.1509    0.0000 C   0  0  0  0  0  0  0  0  0  0  0  0
   -2.5855    2.5634    0.0000 N   0  0  0  0  0  0  0  0  0  0  0  0
   -1.1565    0.9134    0.0000 C   0  0  0  0  0  0  0  0  0  0  0  0
   -0.3315    0.9134    0.0000 C   0  0  0  0  0  0  0  0  0  0  0  0
   -1.1565    2.5634    0.0000 O   0  0  0  0  0  0  0  0  0  0  0  0
   -5.4435    0.9134    0.0000 Br  0  0  0  0  0  0  0  0  0  0  0  0
    0.9060    1.6279    0.0000 C   0  0  0  0  0  0  0  0  0  0  0  0
    0.0810    1.6279    0.0000 C   0  0  0  0  0  0  0  0  0  0  0  0
    0.0809    0.1989    0.0000 C   0  0  0  0  0  0  0  0  0  0  0  0
    0.9059    0.1989    0.0000 C   0  0  0  0  0  0  0  0  0  0  0  0
    1.3185    0.9134    0.0000 C   0  0  0  0  0  0  0  0  0  0  0  0
   -1.1565    0.0884    0.0000 C   0  0  0  0  0  0  0  0  0  0  0  0
   -1.9815    0.0884    0.0000 O   0  0  0  0  0  0  0  0  0  0  0  0
   -1.3701   -0.7085    0.0000 C   0  0  0  0  0  0  0  0  0  0  0  0
   -0.3597   -0.1251    0.0000 C   0  0  0  0  0  0  0  0  0  0  0  0
   -0.3669   -0.9515    0.0000 C   0  0  0  0  0  0  0  0  0  0  0  0
    0.3476   -1.3640    0.0000 N   0  0  0  0  0  0  0  0  0  0  0  0
    1.0621   -0.9515    0.0000 C   0  0  0  0  0  0  0  0  0  0  0  0
    0.3476   -2.1890    0.0000 C   0  0  0  0  0  0  0  0  0  0  0  0
   -2.0845   -1.1210    0.0000 C   0  0  0  0  0  0  0  0  0  0  0  0
   -2.7990   -0.7085    0.0000 C   0  0  0  0  0  0  0  0  0  0  0  0
   -3.5135   -1.1210    0.0000 C   0  0  0  0  0  0  0  0  0  0  0  0
   -3.5135   -1.9460    0.0000 C   0  0  0  0  0  0  0  0  0  0  0  0
   -2.7990   -2.3585    0.0000 C   0  0  0  0  0  0  0  0  0  0  0  0
   -2.0845   -1.9460    0.0000 C   0  0  0  0  0  0  0  0  0  0  0  0
   -1.3701   -2.3585    0.0000 C   0  0  0  0  0  0  0  0  0  0  0  0
   -0.6555   -1.9460    0.0000 C   0  0  0  0  0  0  0  0  0  0  0  0
   -0.6555   -1.1210    0.0000 C   0  0  0  0  0  0  0  0  0  0  0  0
   -1.1565    3.3884    0.0000 C   0  0  0  0  0  0  0  0  0  0  0  0
  1  2  1  0
  1  6  2  0
  1 10  1  0
  2  3  2  0
  3  4  1  0
  4  5  2  0
  5  6  1  0
  6  7  1  0
  7  8  2  0
  8  9  1  0
  9 10  2  0
 11  8  1  0
 11 12  1  0
  9 13  1  0
  4 14  1  0
 16 12  2  0
 12 17  1  0
 15 16  1  0
 15 19  2  0
 17 18  2  0
 18 19  1  0
 11 20  1  1
 20 21  1  6
 20 22  1  0
 20 23  1  0
 23 24  1  0
 24 25  1  0
 25 26  1  0
 25 27  1  0
 36 22  2  0
 28 22  1  0
 28 29  1  0
 28 33  2  0
 29 30  2  0
 30 31  1  0
 31 32  2  0
 32 33  1  0
 33 34  1  0
 34 35  2  0
 35 36  1  0
 13 37  1  0
M  END
> <chembl_id>
CHEMBL376488

> <chembl_pref_name>
BEDAQUILINE
