
     RDKit          2D

  7  6  0  0  0  0  0  0  0  0999 V2000
    2.6375   -3.7667    0.0000 P   0  0  0  0  0  0  0  0  0  0  0  0
    2.0250   -4.1250    0.0000 C   0  0  0  0  0  0  0  0  0  0  0  0
    3.2500   -4.1250    0.0000 O   0  0  0  0  0  0  0  0  0  0  0  0
    2.9875   -3.1500    0.0000 O   0  0  0  0  0  0  0  0  0  0  0  0
    2.2792   -3.1500    0.0000 O   0  0  0  0  0  0  0  0  0  0  0  0
    1.4083   -3.7667    0.0000 O   0  0  0  0  0  0  0  0  0  0  0  0
    2.0250   -4.8292    0.0000 O   0  0  0  0  0  0  0  0  0  0  0  0
  2  1  1  0
  3  1  1  0
  4  1  1  0
  5  1  2  0
  6  2  1  0
  7  2  2  0
M  END
> <chembl_id>
CHEMBL666

> <chembl_pref_name>
FOSCARNET
