
     RDKit          2D

 25 26  0  0  0  0  0  0  0  0999 V2000
   -2.1625   -1.7125    0.0000 Cl  0  0  0  0  0  0  0  0  0  0  0  0
    0.8542    0.7708    0.0000 C   0  0  0  0  0  0  0  0  0  0  0  0
    1.8000    0.3833    0.0000 C   0  0  0  0  0  0  0  0  0  0  0  0
    0.0542    0.1500    0.0000 O   0  0  0  0  0  0  0  0  0  0  0  0
   -2.6000    0.3083    0.0000 N   0  0  0  0  0  0  0  0  0  0  0  0
    0.7250    1.7708    0.0000 O   0  0  0  0  0  0  0  0  0  0  0  0
   -0.8625    0.5458    0.0000 C   0  0  0  0  0  0  0  0  0  0  0  0
    2.6000    1.0000    0.0000 C   0  0  0  0  0  0  0  0  0  0  0  0
    1.9292   -0.6042    0.0000 C   0  0  0  0  0  0  0  0  0  0  0  0
   -1.6708   -0.0542    0.0000 C   0  0  0  0  0  0  0  0  0  0  0  0
   -2.7333    1.3208    0.0000 C   0  0  0  0  0  0  0  0  0  0  0  0
   -3.4083   -0.2917    0.0000 C   0  0  0  0  0  0  0  0  0  0  0  0
   -1.9333    1.9333    0.0000 C   0  0  0  0  0  0  0  0  0  0  0  0
   -0.9958    1.5458    0.0000 C   0  0  0  0  0  0  0  0  0  0  0  0
    2.8625   -0.9917    0.0000 C   0  0  0  0  0  0  0  0  0  0  0  0
    3.5292    0.6125    0.0000 C   0  0  0  0  0  0  0  0  0  0  0  0
    2.4667    2.0000    0.0000 C   0  0  0  0  0  0  0  0  0  0  0  0
    1.1167   -1.2250    0.0000 C   0  0  0  0  0  0  0  0  0  0  0  0
   -4.3458    0.0833    0.0000 C   0  0  0  0  0  0  0  0  0  0  0  0
    1.2542   -2.2250    0.0000 C   0  0  0  0  0  0  0  0  0  0  0  0
    2.9917   -1.9917    0.0000 C   0  0  0  0  0  0  0  0  0  0  0  0
    4.3417    1.2333    0.0000 C   0  0  0  0  0  0  0  0  0  0  0  0
    3.2667    2.6208    0.0000 C   0  0  0  0  0  0  0  0  0  0  0  0
    4.2000    2.2333    0.0000 C   0  0  0  0  0  0  0  0  0  0  0  0
    2.1917   -2.6125    0.0000 C   0  0  0  0  0  0  0  0  0  0  0  0
  3  2  1  0
  4  2  1  0
  5 10  1  0
  6  2  2  0
  7  4  1  0
  8  3  1  0
  9  3  1  0
 10  7  1  0
 11 13  1  0
 12  5  1  0
 13 14  1  0
 14  7  1  0
 15  9  1  0
 16  8  2  0
 17  8  1  0
 18  9  2  0
 19 12  1  0
 20 18  1  0
 21 15  2  0
 22 16  1  0
 23 17  2  0
 24 23  1  0
 25 21  1  0
  5 11  1  0
 20 25  2  0
 22 24  2  0
M  END
> <chembl_id>
CHEMBL1511957

> <chembl_pref_name>
PIPERIDOLATE HYDROCHLORIDE
