
     RDKit          2D

 35 37  0  0  0  0  0  0  0  0999 V2000
    0.7661   -6.8946    0.0000 C   0  0  0  0  0  0  0  0  0  0  0  0
    1.4805   -6.4821    0.0000 S   0  0  0  0  0  0  0  0  0  0  0  0
    2.1950   -6.8946    0.0000 O   0  0  0  0  0  0  0  0  0  0  0  0
    1.0680   -5.7677    0.0000 O   0  0  0  0  0  0  0  0  0  0  0  0
    2.0639   -5.8988    0.0000 O   0  0  0  0  0  0  0  0  0  0  0  0
   -3.7429   -5.9567    0.0000 C   0  0  0  0  0  0  0  0  0  0  0  0
   -4.4574   -6.3692    0.0000 C   0  0  0  0  0  0  0  0  0  0  0  0
   -5.1719   -5.9567    0.0000 C   0  0  0  0  0  0  0  0  0  0  0  0
   -5.1719   -5.1317    0.0000 C   0  0  0  0  0  0  0  0  0  0  0  0
   -4.4574   -4.7192    0.0000 C   0  0  0  0  0  0  0  0  0  0  0  0
   -3.7429   -5.1317    0.0000 C   0  0  0  0  0  0  0  0  0  0  0  0
   -3.0285   -4.7192    0.0000 C   0  0  0  0  0  0  0  0  0  0  0  0
   -2.3140   -5.1317    0.0000 C   0  0  0  0  0  0  0  0  0  0  0  0
   -2.3140   -5.9567    0.0000 C   0  0  0  0  0  0  0  0  0  0  0  0
   -3.0285   -6.3692    0.0000 N   0  0  0  0  0  0  0  0  0  0  0  0
   -5.8863   -6.3692    0.0000 O   0  0  0  0  0  0  0  0  0  0  0  0
   -5.8863   -4.7192    0.0000 C   0  0  0  0  0  0  0  0  0  0  0  0
   -5.8863   -3.8942    0.0000 O   0  0  0  0  0  0  0  0  0  0  0  0
   -6.6008   -5.1317    0.0000 N   0  0  0  0  0  0  0  0  0  0  0  0
   -3.0285   -3.8942    0.0000 O   0  0  0  0  0  0  0  0  0  0  0  0
   -2.3140   -3.4817    0.0000 C   0  0  0  0  0  0  0  0  0  0  0  0
   -1.5995   -3.8942    0.0000 C   0  0  0  0  0  0  0  0  0  0  0  0
   -2.3140   -2.6567    0.0000 C   0  0  0  0  0  0  0  0  0  0  0  0
   -1.5995   -2.2442    0.0000 C   0  0  0  0  0  0  0  0  0  0  0  0
   -0.8850   -2.6567    0.0000 C   0  0  0  0  0  0  0  0  0  0  0  0
   -0.8850   -3.4817    0.0000 C   0  0  0  0  0  0  0  0  0  0  0  0
   -1.5995   -1.4192    0.0000 Cl  0  0  0  0  0  0  0  0  0  0  0  0
   -0.1706   -2.2442    0.0000 N   0  0  0  0  0  0  0  0  0  0  0  0
    0.5439   -2.6567    0.0000 C   0  0  0  0  0  0  0  0  0  0  0  0
    0.5439   -3.4817    0.0000 O   0  0  0  0  0  0  0  0  0  0  0  0
    1.2584   -2.2442    0.0000 N   0  0  0  0  0  0  0  0  0  0  0  0
    1.9728   -2.6567    0.0000 C   0  0  0  0  0  0  0  0  0  0  0  0
    2.7978   -2.6567    0.0000 C   0  0  0  0  0  0  0  0  0  0  0  0
    2.3853   -3.3712    0.0000 C   0  0  0  0  0  0  0  0  0  0  0  0
   -5.8863   -7.1942    0.0000 C   0  0  0  0  0  0  0  0  0  0  0  0
  1  2  1  0
  2  3  1  0
  2  4  2  0
  2  5  2  0
  6  7  1  0
  6 11  2  0
  6 15  1  0
  7  8  2  0
  8  9  1  0
  9 10  2  0
 10 11  1  0
 11 12  1  0
 12 13  2  0
 13 14  1  0
 14 15  2  0
  8 16  1  0
  9 17  1  0
 17 18  2  0
 17 19  1  0
 12 20  1  0
 20 21  1  0
 22 21  1  0
 21 23  2  0
 22 26  2  0
 23 24  1  0
 24 25  2  0
 25 26  1  0
 24 27  1  0
 25 28  1  0
 28 29  1  0
 29 30  2  0
 29 31  1  0
 31 32  1  0
 32 33  1  0
 33 34  1  0
 34 32  1  0
 16 35  1  0
M  END
> <chembl_id>
CHEMBL2105704

> <chembl_pref_name>
LENVATINIB MESYLATE
