
     RDKit          2D

 18 17  0  0  0  0  0  0  0  0999 V2000
    4.5000   -3.9792    0.0000 Na  0  0  0  0  0 15  0  0  0  0  0  0
    2.4500   -4.0250    0.0000 C   0  0  0  0  0  0  0  0  0  0  0  0
    3.0625   -3.6667    0.0000 P   0  0  0  0  0  0  0  0  0  0  0  0
    2.8000   -4.6375    0.0000 P   0  0  0  0  0  0  0  0  0  0  0  0
    1.8375   -3.6708    0.0000 C   0  0  0  0  0  0  0  0  0  0  0  0
    3.6792   -4.0208    0.0000 O   0  0  0  0  0  0  0  0  0  0  0  0
    3.4125   -3.0500    0.0000 O   0  0  0  0  0  0  0  0  0  0  0  0
    3.4125   -4.2833    0.0000 O   0  0  0  0  0  0  0  0  0  0  0  0
    2.0917   -4.6375    0.0000 O   0  0  0  0  0  0  0  0  0  0  0  0
    0.6125   -5.0958    0.0000 N   0  0  0  0  0  0  0  0  0  0  0  0
    2.7042   -3.0500    0.0000 O   0  0  0  0  0  0  0  0  0  0  0  0
    2.4417   -5.2417    0.0000 O   0  0  0  0  0  0  0  0  0  0  0  0
    3.4083   -4.9917    0.0000 O   0  0  0  0  0  0  0  0  0  0  0  0
    1.2250   -4.0292    0.0000 C   0  0  0  0  0  0  0  0  0  0  0  0
    1.2250   -4.7417    0.0000 C   0  0  0  0  0  0  0  0  0  0  0  0
    0.0000   -4.7417    0.0000 C   0  0  0  0  0  0  0  0  0  0  0  0
    0.6125   -3.6750    0.0000 C   0  0  0  0  0  0  0  0  0  0  0  0
    0.0000   -4.0292    0.0000 C   0  0  0  0  0  0  0  0  0  0  0  0
  3  2  1  0
  4  2  1  0
  5  2  1  0
  6  3  1  0
  7  3  2  0
  8  4  2  0
  9  2  1  0
 10 15  2  0
 11  3  1  0
 12  4  1  0
 13  4  1  0
 14  5  1  0
 15 14  1  0
 16 18  2  0
 17 14  2  0
 18 17  1  0
 10 16  1  0
M  CHG  2   1   1   6  -1
M  END
> <chembl_id>
CHEMBL1654

> <chembl_pref_name>
RISEDRONATE SODIUM
