
     RDKit          2D

 27 29  0  0  0  0  0  0  0  0999 V2000
   -0.4956    1.5647    0.0000 C   0  0  0  0  0  0  0  0  0  0  0  0
   -0.4956    2.3897    0.0000 C   0  0  0  0  0  0  0  0  0  0  0  0
   -1.2100    2.8022    0.0000 C   0  0  0  0  0  0  0  0  0  0  0  0
   -1.9245    2.3897    0.0000 C   0  0  0  0  0  0  0  0  0  0  0  0
   -1.9245    1.5647    0.0000 C   0  0  0  0  0  0  0  0  0  0  0  0
   -1.2100    1.1522    0.0000 C   0  0  0  0  0  0  0  0  0  0  0  0
    0.2189    1.1522    0.0000 F   0  0  0  0  0  0  0  0  0  0  0  0
   -1.2100    3.6272    0.0000 Br  0  0  0  0  0  0  0  0  0  0  0  0
   -1.2100    0.3272    0.0000 N   0  0  0  0  0  0  0  0  0  0  0  0
   -1.9245   -0.0853    0.0000 C   0  0  0  0  0  0  0  0  0  0  0  0
   -1.9245   -0.9103    0.0000 C   0  0  0  0  0  0  0  0  0  0  0  0
   -2.6390    0.3272    0.0000 C   0  0  0  0  0  0  0  0  0  0  0  0
   -3.3535   -0.0853    0.0000 C   0  0  0  0  0  0  0  0  0  0  0  0
   -3.3535   -0.9103    0.0000 C   0  0  0  0  0  0  0  0  0  0  0  0
   -2.6390   -1.3228    0.0000 C   0  0  0  0  0  0  0  0  0  0  0  0
   -2.6390    1.1522    0.0000 F   0  0  0  0  0  0  0  0  0  0  0  0
   -1.2100   -1.3228    0.0000 C   0  0  0  0  0  0  0  0  0  0  0  0
   -4.1381    0.1697    0.0000 N   0  0  0  0  0  0  0  0  0  0  0  0
   -4.1381   -1.1652    0.0000 N   0  0  0  0  0  0  0  0  0  0  0  0
   -4.6230   -0.4978    0.0000 C   0  0  0  0  0  0  0  0  0  0  0  0
   -4.3930   -1.9498    0.0000 C   0  0  0  0  0  0  0  0  0  0  0  0
   -0.4956   -0.9103    0.0000 N   0  0  0  0  0  0  0  0  0  0  0  0
   -1.2100   -2.1478    0.0000 O   0  0  0  0  0  0  0  0  0  0  0  0
    0.2189   -1.3228    0.0000 O   0  0  0  0  0  0  0  0  0  0  0  0
    0.9334   -0.9103    0.0000 C   0  0  0  0  0  0  0  0  0  0  0  0
    1.6478   -1.3228    0.0000 C   0  0  0  0  0  0  0  0  0  0  0  0
    2.3623   -0.9103    0.0000 O   0  0  0  0  0  0  0  0  0  0  0  0
  1  2  1  0
  1  6  2  0
  2  3  2  0
  3  4  1  0
  4  5  2  0
  5  6  1  0
  1  7  1  0
  3  8  1  0
  6  9  1  0
  9 10  1  0
 12 13  1  0
 13 14  2  0
 14 15  1  0
 11 15  2  0
 11 10  1  0
 10 12  2  0
 12 16  1  0
 11 17  1  0
 13 18  1  0
 14 19  1  0
 18 20  2  0
 19 20  1  0
 19 21  1  0
 17 22  1  0
 17 23  2  0
 22 24  1  0
 24 25  1  0
 25 26  1  0
 26 27  1  0
M  END
> <chembl_id>
CHEMBL3187723

> <chembl_pref_name>
BINIMETINIB
