
     RDKit          2D

 21 21  0  0  0  0  0  0  0  0999 V2000
   -0.4142   -0.1650    0.0000 C   0  0  0  0  0  0  0  0  0  0  0  0
   -0.4156   -0.9927    0.0000 C   0  0  0  0  0  0  0  0  0  0  0  0
    0.3005   -1.4057    0.0000 C   0  0  0  0  0  0  0  0  0  0  0  0
    1.0185   -0.9922    0.0000 C   0  0  0  0  0  0  0  0  0  0  0  0
    1.0152   -0.1655    0.0000 C   0  0  0  0  0  0  0  0  0  0  0  0
    0.2984    0.2430    0.0000 C   0  0  0  0  0  0  0  0  0  0  0  0
   -1.1275    0.2494    0.0000 O   0  0  0  0  0  0  0  0  0  0  0  0
   -1.8430   -0.1612    0.0000 C   0  0  0  0  0  0  0  0  0  0  0  0
    1.7337   -1.4037    0.0000 C   0  0  0  0  0  0  0  0  0  0  0  0
    2.4475   -0.9901    0.0000 C   0  0  0  0  0  0  0  0  0  0  0  0
    3.1625   -1.4016    0.0000 C   0  0  0  0  0  0  0  0  0  0  0  0
    3.8765   -0.9880    0.0000 O   0  0  0  0  0  0  0  0  0  0  0  0
    3.1638   -2.2266    0.0000 O   0  0  0  0  0  0  0  0  0  0  0  0
    4.5915   -1.3995    0.0000 C   0  0  0  0  0  0  0  0  0  0  0  0
    5.3053   -0.9860    0.0000 C   0  0  0  0  0  0  0  0  0  0  0  0
    6.0204   -1.3974    0.0000 C   0  0  0  0  0  0  0  0  0  0  0  0
    6.7343   -0.9839    0.0000 C   0  0  0  0  0  0  0  0  0  0  0  0
    5.3042   -0.1610    0.0000 C   0  0  0  0  0  0  0  0  0  0  0  0
    6.0180    0.2525    0.0000 C   0  0  0  0  0  0  0  0  0  0  0  0
    7.4494   -1.3953    0.0000 C   0  0  0  0  0  0  0  0  0  0  0  0
    8.1633   -0.9818    0.0000 C   0  0  0  0  0  0  0  0  0  0  0  0
  6  1  1  0
 10 11  1  0
  1  2  2  0
 11 12  1  0
  3  4  2  0
 11 13  2  0
 12 14  1  0
  1  7  1  0
 14 15  1  0
  4  5  1  0
 15 16  1  0
  7  8  1  0
 16 17  1  0
  2  3  1  0
 15 18  1  0
  4  9  1  0
 18 19  1  0
  5  6  2  0
 17 20  1  0
  9 10  2  3
 20 21  1  0
M  END
> <chembl_id>
CHEMBL3183184

> <chembl_pref_name>
OCTINOXATE
