
     RDKit          2D

 27 29  0  0  1  0  0  0  0  0999 V2000
    2.6708   -3.8417    0.0000 C   0  0  0  0  0  0  0  0  0  0  0  0
    2.6667   -3.1333    0.0000 C   0  0  0  0  0  0  0  0  0  0  0  0
    2.0583   -4.1875    0.0000 N   0  0  0  0  0  0  0  0  0  0  0  0
    3.2750   -4.1917    0.0000 N   0  0  0  0  0  0  0  0  0  0  0  0
    2.0542   -2.7708    0.0000 N   0  0  0  0  0  0  0  0  0  0  0  0
    3.9000   -3.1250    0.0000 N   0  0  0  0  0  0  0  0  0  0  0  0
    3.2875   -2.7833    0.0000 C   0  0  0  0  0  0  0  0  0  0  0  0
    3.8875   -3.8333    0.0000 C   0  0  0  0  0  0  0  0  0  0  0  0
    1.4458   -3.8333    0.0000 C   0  0  0  0  0  0  0  0  0  0  0  0
    1.4417   -3.1250    0.0000 C   0  0  0  0  0  0  0  0  0  0  0  0
    2.0458   -4.8875    0.0000 C   0  0  0  0  0  0  0  0  0  0  0  0
    0.8250   -4.1833    0.0000 C   0  0  0  0  0  0  0  0  0  0  0  0
    1.4250   -5.2292    0.0000 C   0  0  0  0  0  0  0  0  0  0  0  0
    1.4042   -5.9375    0.0000 C   0  0  0  0  0  0  0  0  0  0  0  0
    0.8333   -2.7667    0.0000 C   0  0  0  0  0  0  0  0  0  0  0  0
    0.2125   -3.8333    0.0000 C   0  0  0  0  0  0  0  0  0  0  0  0
    0.2083   -3.1208    0.0000 C   0  0  0  0  0  0  0  0  0  0  0  0
    3.2875   -2.0667    0.0000 O   0  0  0  0  0  0  0  0  0  0  0  0
    4.5083   -4.1958    0.0000 O   0  0  0  0  0  0  0  0  0  0  0  0
    0.7833   -6.2792    0.0000 C   0  0  0  0  0  0  0  0  0  0  0  0
    0.8208   -4.8708    0.0000 O   0  0  0  0  0  0  0  0  0  0  0  0
    2.0167   -6.3125    0.0000 O   0  0  0  0  0  0  0  0  0  0  0  0
    0.7750   -6.9917    0.0000 O   0  0  0  0  0  0  0  0  0  0  0  0
   -0.4375   -6.2750    0.0000 O   0  0  0  0  0  0  0  0  0  0  0  0
    0.1667   -5.9208    0.0000 C   0  0  0  0  0  0  0  0  0  0  0  0
   -0.4042   -4.1833    0.0000 C   0  0  0  0  0  0  0  0  0  0  0  0
   -0.4042   -2.7625    0.0000 C   0  0  0  0  0  0  0  0  0  0  0  0
  2  1  1  0
  3  1  1  0
  4  1  2  0
  5  2  2  0
  6  8  1  0
  7  2  1  0
  8  4  1  0
  9  3  1  0
 10  9  2  0
 11  3  1  0
 12  9  1  0
 13 11  1  0
 14 13  1  0
 15 10  1  0
 16 12  2  0
 17 16  1  0
 18  7  2  0
 19  8  2  0
 20 14  1  0
 13 21  1  1
 14 22  1  6
 20 23  1  6
 24 25  1  0
 25 20  1  0
 26 16  1  0
 27 17  1  0
  6  7  1  0
 10  5  1  0
 15 17  2  0
M  END
> <chembl_id>
CHEMBL1534

> <chembl_pref_name>
RIBOFLAVIN
