
     RDKit          2D

 21 22  0  0  0  0  0  0  0  0999 V2000
    4.4708   -6.6917    0.0000 P   0  0  0  0  0  0  0  0  0  0  0  0
    4.4833  -10.2375    0.0000 P   0  0  0  0  0  0  0  0  0  0  0  0
    3.8625   -7.7583    0.0000 C   0  0  0  0  0  0  0  0  0  0  0  0
    3.8708   -9.1792    0.0000 C   0  0  0  0  0  0  0  0  0  0  0  0
    3.2542   -8.1167    0.0000 C   0  0  0  0  0  0  0  0  0  0  0  0
    3.2542   -8.8250    0.0000 C   0  0  0  0  0  0  0  0  0  0  0  0
    3.8583   -7.0500    0.0000 O   0  0  0  0  0  0  0  0  0  0  0  0
    3.8708   -9.8875    0.0000 O   0  0  0  0  0  0  0  0  0  0  0  0
    4.4792   -8.1083    0.0000 C   0  0  0  0  0  0  0  0  0  0  0  0
    4.4833   -8.8208    0.0000 C   0  0  0  0  0  0  0  0  0  0  0  0
    5.1250   -7.0250    0.0000 O   0  0  0  0  0  0  0  0  0  0  0  0
    4.8167   -6.0750    0.0000 O   0  0  0  0  0  0  0  0  0  0  0  0
    5.1333   -9.8667    0.0000 O   0  0  0  0  0  0  0  0  0  0  0  0
    4.8667  -10.8292    0.0000 O   0  0  0  0  0  0  0  0  0  0  0  0
    4.1125   -6.0750    0.0000 O   0  0  0  0  0  0  0  0  0  0  0  0
    4.1250  -10.8500    0.0000 O   0  0  0  0  0  0  0  0  0  0  0  0
    2.6417   -7.7625    0.0000 C   0  0  0  0  0  0  0  0  0  0  0  0
    5.0917   -7.7500    0.0000 C   0  0  0  0  0  0  0  0  0  0  0  0
    2.6417   -9.1833    0.0000 C   0  0  0  0  0  0  0  0  0  0  0  0
    2.0292   -8.1167    0.0000 C   0  0  0  0  0  0  0  0  0  0  0  0
    2.0292   -8.8292    0.0000 C   0  0  0  0  0  0  0  0  0  0  0  0
  2  8  1  0
  3  7  1  0
  4  6  1  0
  5  3  1  0
  6  5  1  0
  7  1  1  0
  8  4  1  0
  9  3  2  0
 10  9  1  0
 11  1  1  0
 12  1  1  0
 13  2  1  0
 14  2  1  0
 15  1  2  0
 16  2  2  0
 17  5  2  0
 18  9  1  0
 19  6  2  0
 20 17  1  0
 21 19  1  0
 10  4  2  0
 21 20  2  0
M  END
> <chembl_id>
CHEMBL1201348

> <chembl_pref_name>
MENADIOL DIPHOSPHORIC ACID
