
     RDKit          2D

 29 29  0  0  0  0  0  0  0  0999 V2000
    0.0000   -3.6514    0.0000 Cl  0  0  0  0  0  0  0  0  0  0  0  0
   -3.9957   -1.1764    0.0000 Cl  0  0  0  0  0  0  0  0  0  0  0  0
    3.1490   -1.1764    0.0000 O   0  0  0  0  0  0  0  0  0  0  0  0
    5.2924   -0.7639    0.0000 O   0  0  0  0  0  0  0  0  0  0  0  0
    4.5779   -2.0014    0.0000 O   0  0  0  0  0  0  0  0  0  0  0  0
   -0.4234    0.0611    0.0000 N   0  0  0  0  0  0  0  0  0  0  0  0
    1.0056   -0.7639    0.0000 N   0  0  0  0  0  0  0  0  0  0  0  0
   -1.1379    0.4736    0.0000 C   0  0  0  0  0  0  0  0  0  0  0  0
   -1.8523    0.0611    0.0000 C   0  0  0  0  0  0  0  0  0  0  0  0
   -1.1379    1.2986    0.0000 C   0  0  0  0  0  0  0  0  0  0  0  0
    0.2911    0.4736    0.0000 C   0  0  0  0  0  0  0  0  0  0  0  0
   -0.4234   -0.7639    0.0000 C   0  0  0  0  0  0  0  0  0  0  0  0
   -1.8523   -0.7639    0.0000 C   0  0  0  0  0  0  0  0  0  0  0  0
   -2.5668    0.4736    0.0000 C   0  0  0  0  0  0  0  0  0  0  0  0
   -1.8523    1.7111    0.0000 C   0  0  0  0  0  0  0  0  0  0  0  0
   -0.4234    1.7111    0.0000 C   0  0  0  0  0  0  0  0  0  0  0  0
    1.0056    0.0611    0.0000 C   0  0  0  0  0  0  0  0  0  0  0  0
    0.2911   -1.1764    0.0000 C   0  0  0  0  0  0  0  0  0  0  0  0
   -3.2813   -0.7639    0.0000 C   0  0  0  0  0  0  0  0  0  0  0  0
   -2.5668   -1.1764    0.0000 C   0  0  0  0  0  0  0  0  0  0  0  0
   -3.2813    0.0611    0.0000 C   0  0  0  0  0  0  0  0  0  0  0  0
   -1.8523    2.5361    0.0000 C   0  0  0  0  0  0  0  0  0  0  0  0
   -0.4234    2.5361    0.0000 C   0  0  0  0  0  0  0  0  0  0  0  0
    1.7200   -1.1764    0.0000 C   0  0  0  0  0  0  0  0  0  0  0  0
   -1.1379    2.9486    0.0000 C   0  0  0  0  0  0  0  0  0  0  0  0
    2.4345   -0.7639    0.0000 C   0  0  0  0  0  0  0  0  0  0  0  0
    3.8634   -0.7639    0.0000 C   0  0  0  0  0  0  0  0  0  0  0  0
    4.5779   -1.1764    0.0000 C   0  0  0  0  0  0  0  0  0  0  0  0
    7.5317    0.0000    0.0000 Cl  0  0  0  0  0  0  0  0  0  0  0  0
  2 19  1  0
  3 26  1  0
  3 27  1  0
  4 28  2  0
  5 28  1  0
  6  8  1  0
  6 11  1  0
  6 12  1  0
  7 17  1  0
  7 18  1  0
  7 24  1  0
  8  9  1  0
  8 10  1  0
  9 13  2  0
  9 14  1  0
 10 15  2  0
 10 16  1  0
 11 17  1  0
 12 18  1  0
 13 20  1  0
 14 21  2  0
 15 22  1  0
 16 23  2  0
 19 20  2  0
 19 21  1  0
 22 25  2  0
 23 25  1  0
 24 26  1  0
 27 28  1  0
M  END
> <chembl_id>
CHEMBL1607273

> <chembl_pref_name>
CETIRIZINE HYDROCHLORIDE
