
     RDKit          2D

 31 26  0  0  0  0  0  0  0  0999 V2000
    5.8042   -3.7792    0.0000 Na  0  0  0  0  0 15  0  0  0  0  0  0
    3.4167   -2.3667    0.0000 C   0  0  0  0  0  0  0  0  0  0  0  0
    3.9833   -3.3458    0.0000 C   0  0  0  0  0  0  0  0  0  0  0  0
   -0.0042   -2.3667    0.0000 C   0  0  0  0  0  0  0  0  0  0  0  0
   -0.5750   -3.3417    0.0000 C   0  0  0  0  0  0  0  0  0  0  0  0
    2.2708   -1.6875    0.0000 C   0  0  0  0  0  0  0  0  0  0  0  0
    0.5667   -3.3542    0.0000 N   0  0  0  0  0  0  0  0  0  0  0  0
    2.8458   -3.3542    0.0000 N   0  0  0  0  0  0  0  0  0  0  0  0
    4.5542   -3.6750    0.0000 O   0  0  0  0  0  0  0  0  0  0  0  0
    2.8458   -2.0375    0.0000 O   0  0  0  0  0  0  0  0  0  0  0  0
    0.5667   -2.0375    0.0000 O   0  0  0  0  0  0  0  0  0  0  0  0
    1.6917   -1.3625    0.0000 O   0  0  0  0  0  0  0  0  0  0  0  0
   -1.1500   -3.6667    0.0000 O   0  0  0  0  0  0  0  0  0  0  0  0
   -0.5708   -2.0375    0.0000 O   0  0  0  0  0  0  0  0  0  0  0  0
    2.8333   -1.3500    0.0000 O   0  0  0  0  0  0  0  0  0  0  0  0
    3.9792   -2.6875    0.0000 O   0  0  0  0  0  0  0  0  0  0  0  0
    3.9875   -2.0375    0.0000 O   0  0  0  0  0  0  0  0  0  0  0  0
   -0.5667   -2.6833    0.0000 O   0  0  0  0  0  0  0  0  0  0  0  0
   -0.0083   -3.6792    0.0000 C   0  0  0  0  0  0  0  0  0  0  0  0
    3.4167   -3.6792    0.0000 C   0  0  0  0  0  0  0  0  0  0  0  0
    3.4167   -3.0250    0.0000 C   0  0  0  0  0  0  0  0  0  0  0  0
   -0.0042   -3.0250    0.0000 C   0  0  0  0  0  0  0  0  0  0  0  0
    1.7083   -4.0083    0.0000 N   0  0  0  0  0  0  0  0  0  0  0  0
    2.2750   -3.6750    0.0000 C   0  0  0  0  0  0  0  0  0  0  0  0
    0.5667   -4.0083    0.0000 C   0  0  0  0  0  0  0  0  0  0  0  0
    2.8458   -4.0083    0.0000 C   0  0  0  0  0  0  0  0  0  0  0  0
    1.1375   -4.3417    0.0000 C   0  0  0  0  0  0  0  0  0  0  0  0
    2.2750   -4.3417    0.0000 C   0  0  0  0  0  0  0  0  0  0  0  0
    1.2750   -2.8750    0.0000 Ca  0  0  0  0  0 15  0  0  0  0  0  0
   -2.2833   -3.8125    0.0000 Na  0  0  0  0  0 15  0  0  0  0  0  0
    3.8667   -1.1875    0.0000 Na  0  0  0  0  0 15  0  0  0  0  0  0
  3 20  1  0
  4 22  1  0
  5 19  1  0
  6 24  1  0
  7 25  1  0
  8 21  1  0
  9  3  1  0
 10  2  1  0
 11  4  1  0
 12  6  1  0
 13  5  1  0
 14  4  2  0
 15  6  2  0
 16  3  2  0
 17  2  2  0
 18  5  2  0
 19  7  1  0
 20  8  1  0
 21  2  1  0
 22  7  1  0
 23 28  1  0
 24 23  1  0
 25 27  1  0
 26  8  1  0
 27 23  1  0
 28 26  1  0
M  CHG  8   1   1   9  -1  10  -1  11  -1  12  -1  13  -1  29   2  30   1
M  CHG  1  31   1
M  END
> <chembl_id>
CHEMBL1200945

> <chembl_pref_name>
PENTETATE CALCIUM TRISODIUM
