
     RDKit          2D

 17 16  0  0  0  0  0  0  0  0999 V2000
    7.6894   -1.8789    0.0000 Cl  0  0  0  0  0  0  0  0  0  0  0  0
    2.5973   -1.5031    0.0000 C   0  0  0  0  0  0  0  0  0  0  0  0
    1.2990   -0.7500    0.0000 C   0  0  0  0  0  0  0  0  0  0  0  0
    3.8933   -3.7570    0.0000 N   0  0  0  0  0  0  0  0  0  0  0  0
    2.5951   -3.0039    0.0000 C   0  0  0  0  0  0  0  0  0  0  0  0
    1.2990    0.7500    0.0000 C   0  0  0  0  0  0  0  0  0  0  0  0
    3.6375   -0.9049    0.0000 O   0  0  0  0  0  0  0  0  0  0  0  0
    3.8912   -5.2578    0.0000 C   0  0  0  0  0  0  0  0  0  0  0  0
    0.0000    1.5000    0.0000 C   0  0  0  0  0  0  0  0  0  0  0  0
    0.0000    2.7000    0.0000 Cl  0  0  0  0  0  0  0  0  0  0  0  0
    0.0000   -1.5000    0.0000 C   0  0  0  0  0  0  0  0  0  0  0  0
   -1.2990   -0.7500    0.0000 C   0  0  0  0  0  0  0  0  0  0  0  0
    1.5548   -3.6021    0.0000 C   0  0  0  0  0  0  0  0  0  0  0  0
    4.9292   -5.8600    0.0000 C   0  0  0  0  0  0  0  0  0  0  0  0
    2.8509   -5.8560    0.0000 C   0  0  0  0  0  0  0  0  0  0  0  0
    3.8889   -6.4578    0.0000 C   0  0  0  0  0  0  0  0  0  0  0  0
   -1.2990    0.7500    0.0000 C   0  0  0  0  0  0  0  0  0  0  0  0
  2  3  1  0
  2  5  1  0
  4  5  1  0
  3  6  2  0
  2  7  2  0
  4  8  1  0
  6  9  1  0
  9 10  1  0
  3 11  1  0
 11 12  2  0
  5 13  1  0
  8 14  1  0
  8 15  1  0
  8 16  1  0
  9 17  2  0
 12 17  1  0
M  END
> <chembl_id>
CHEMBL1698

> <chembl_pref_name>
BUPROPION HYDROCHLORIDE
