
     RDKit          2D

 52 54  0  0  1  0  0  0  0  0999 V2000
    4.9625   -4.2417    0.0000 C   0  0  0  0  0  0  0  0  0  0  0  0
    2.7000   -3.1417    0.0000 C   0  0  0  0  0  0  0  0  0  0  0  0
    1.4792   -3.1500    0.0000 C   0  0  0  0  0  0  0  0  0  0  0  0
    0.8667   -1.3875    0.0000 C   0  0  0  0  0  0  0  0  0  0  0  0
    2.0917   -3.5000    0.0000 C   0  0  0  0  0  0  0  0  0  0  0  0
    4.6125   -4.8542    0.0000 C   0  0  0  0  0  0  0  0  0  0  0  0
    3.3125   -2.0917    0.0000 C   0  0  0  0  0  0  0  0  0  0  0  0
    2.7000   -2.4417    0.0000 C   0  0  0  0  0  0  0  0  0  0  0  0
    1.4792   -0.3375    0.0000 C   0  0  0  0  0  0  0  0  0  0  0  0
    1.4792   -2.4417    0.0000 O   0  0  0  0  0  0  0  0  0  0  0  0
    1.4792   -1.0417    0.0000 C   0  0  0  0  0  0  0  0  0  0  0  0
    2.0875    0.0208    0.0000 C   0  0  0  0  0  0  0  0  0  0  0  0
    4.9542   -3.3000    0.0000 O   0  0  0  0  0  0  0  0  0  0  0  0
    1.3125   -6.2292    0.0000 C   0  0  0  0  0  0  0  0  0  0  0  0
    3.9042   -4.8542    0.0000 C   0  0  0  0  0  0  0  0  0  0  0  0
    3.3125   -1.3875    0.0000 C   0  0  0  0  0  0  0  0  0  0  0  0
    2.3708   -5.6167    0.0000 C   0  0  0  0  0  0  0  0  0  0  0  0
    2.0167   -6.2292    0.0000 C   0  0  0  0  0  0  0  0  0  0  0  0
    4.6125   -3.6292    0.0000 O   0  0  0  0  0  0  0  0  0  0  0  0
    2.0167   -5.0042    0.0000 O   0  0  0  0  0  0  0  0  0  0  0  0
    0.8667   -2.0917    0.0000 C   0  0  0  0  0  0  0  0  0  0  0  0
    0.9542   -5.6167    0.0000 C   0  0  0  0  0  0  0  0  0  0  0  0
    3.3125   -3.4958    0.0000 O   0  0  0  0  0  0  0  0  0  0  0  0
    1.3125   -5.0042    0.0000 C   0  0  0  0  0  0  0  0  0  0  0  0
    2.7000   -0.3292    0.0000 C   0  0  0  0  0  0  0  0  0  0  0  0
    2.7000   -1.0375    0.0000 C   0  0  0  0  0  0  0  0  0  0  0  0
    3.5458   -4.2417    0.0000 C   0  0  0  0  0  0  0  0  0  0  0  0
    3.5500   -5.4667    0.0000 N   0  0  0  0  0  0  0  0  0  0  0  0
    0.8625   -3.5042    0.0000 O   0  0  0  0  0  0  0  0  0  0  0  0
    3.9042   -3.6292    0.0000 C   0  0  0  0  0  0  0  0  0  0  0  0
    2.0833    0.7250    0.0000 O   0  0  0  0  0  0  0  0  0  0  0  0
    0.5042   -0.7667    0.0000 O   0  0  0  0  0  0  0  0  0  0  0  0
    4.9667   -5.4667    0.0000 O   0  0  0  0  0  0  0  0  0  0  0  0
    2.0875   -1.3958    0.0000 O   0  0  0  0  0  0  0  0  0  0  0  0
    0.6917   -6.5792    0.0000 O   0  0  0  0  0  0  0  0  0  0  0  0
    3.6625   -0.7667    0.0000 O   0  0  0  0  0  0  0  0  0  0  0  0
    0.2458   -5.6167    0.0000 O   0  0  0  0  0  0  0  0  0  0  0  0
    0.1542   -1.3875    0.0000 C   0  0  0  0  0  0  0  0  0  0  0  0
    2.0917   -4.2042    0.0000 C   0  0  0  0  0  0  0  0  0  0  0  0
    2.0833   -2.0833    0.0000 C   0  0  0  0  0  0  0  0  0  0  0  0
    0.8625    0.0167    0.0000 C   0  0  0  0  0  0  0  0  0  0  0  0
    1.3042   -6.9375    0.0000 C   0  0  0  0  0  0  0  0  0  0  0  0
    4.0167   -1.3875    0.0000 C   0  0  0  0  0  0  0  0  0  0  0  0
    0.2500   -2.4500    0.0000 C   0  0  0  0  0  0  0  0  0  0  0  0
    0.9583   -4.3875    0.0000 C   0  0  0  0  0  0  0  0  0  0  0  0
    3.3125    0.0250    0.0000 C   0  0  0  0  0  0  0  0  0  0  0  0
    3.9042   -6.0792    0.0000 C   0  0  0  0  0  0  0  0  0  0  0  0
    2.8417   -5.4667    0.0000 C   0  0  0  0  0  0  0  0  0  0  0  0
    3.5500   -3.0125    0.0000 C   0  0  0  0  0  0  0  0  0  0  0  0
    4.3667   -0.7625    0.0000 C   0  0  0  0  0  0  0  0  0  0  0  0
    0.0833   -6.2167    0.0000 C   0  0  0  0  0  0  0  0  0  0  0  0
   -0.3625   -2.0958    0.0000 C   0  0  0  0  0  0  0  0  0  0  0  0
  2  8  1  0
  3  5  1  0
  4 11  1  0
  5  2  1  0
  6  1  1  0
  7 13  1  6
  8  7  1  0
  9 12  1  0
 10  3  1  0
 11  9  1  0
 12 25  1  0
  1 13  1  1
 14 18  1  0
 15  6  1  0
 16  7  1  0
 17 23  1  1
 18 17  1  0
 19  1  1  0
 20 17  1  0
 21 10  1  0
 22 24  1  0
  2 23  1  6
 24 20  1  0
 25 26  1  0
 26 16  1  0
 27 30  1  0
 15 28  1  1
 29  3  2  0
 30 19  1  0
 31 12  2  0
  4 32  1  1
  6 33  1  6
 11 34  1  1
 14 35  1  0
 16 36  1  0
 22 37  1  1
 38  4  1  0
  5 39  1  1
  8 40  1  6
  9 41  1  1
 14 42  1  6
 16 43  1  6
 21 44  1  6
 24 45  1  6
 25 46  1  6
 47 28  1  0
 48 28  1  0
 30 49  1  1
 50 36  1  0
 51 35  1  0
 52 44  1  0
 27 15  1  0
 21  4  1  0
 22 14  1  0
M  END
> <chembl_id>
CHEMBL1741

> <chembl_pref_name>
CLARITHROMYCIN
