
     RDKit          2D

 24 25  0  0  0  0  0  0  0  0999 V2000
    7.5042   -1.7375    0.0000 Cl  0  0  0  0  0  0  0  0  0  0  0  0
    2.5000   -1.5125    0.0000 S   0  0  0  0  0  0  0  0  0  0  0  0
    6.2167   -1.6167    0.0000 C   0  0  0  0  0  0  0  0  0  0  0  0
    5.5292   -1.8625    0.0000 C   0  0  0  0  0  0  0  0  0  0  0  0
    6.6125   -2.2167    0.0000 C   0  0  0  0  0  0  0  0  0  0  0  0
    6.2125   -2.7792    0.0000 N   0  0  0  0  0  0  0  0  0  0  0  0
    5.5292   -2.5625    0.0000 C   0  0  0  0  0  0  0  0  0  0  0  0
    7.2625    0.2333    0.0000 N   0  0  0  0  0  0  0  0  0  0  0  0
    2.8500   -0.8917    0.0000 O   0  0  0  0  0  0  0  0  0  0  0  0
    2.1417   -0.8917    0.0000 O   0  0  0  0  0  0  0  0  0  0  0  0
    6.5750   -0.9875    0.0000 C   0  0  0  0  0  0  0  0  0  0  0  0
    4.9042   -1.5042    0.0000 C   0  0  0  0  0  0  0  0  0  0  0  0
    1.9042   -1.8625    0.0000 N   0  0  0  0  0  0  0  0  0  0  0  0
    3.0792   -1.8625    0.0000 C   0  0  0  0  0  0  0  0  0  0  0  0
    4.9042   -2.9125    0.0000 C   0  0  0  0  0  0  0  0  0  0  0  0
    7.2625   -1.0000    0.0000 C   0  0  0  0  0  0  0  0  0  0  0  0
    6.2083   -0.3792    0.0000 C   0  0  0  0  0  0  0  0  0  0  0  0
    7.6208   -0.3667    0.0000 C   0  0  0  0  0  0  0  0  0  0  0  0
    6.5500    0.2208    0.0000 C   0  0  0  0  0  0  0  0  0  0  0  0
    4.3125   -1.8417    0.0000 C   0  0  0  0  0  0  0  0  0  0  0  0
    4.3125   -2.5542    0.0000 C   0  0  0  0  0  0  0  0  0  0  0  0
    3.7000   -1.5125    0.0000 C   0  0  0  0  0  0  0  0  0  0  0  0
    7.5958    0.8208    0.0000 C   0  0  0  0  0  0  0  0  0  0  0  0
    1.2792   -1.5125    0.0000 C   0  0  0  0  0  0  0  0  0  0  0  0
  3  4  1  0
  4 12  2  0
  5  3  2  0
  6  7  1  0
  7 15  2  0
  8 19  1  0
  9  2  2  0
 10  2  2  0
 11  3  1  0
 12 20  1  0
 13  2  1  0
 14  2  1  0
 15 21  1  0
 16 11  1  0
 17 11  1  0
 18 16  1  0
 19 17  1  0
 20 22  1  0
 21 20  2  0
 22 14  1  0
 23  8  1  0
 24 13  1  0
  7  4  1  0
  6  5  1  0
  8 18  1  0
M  END
> <chembl_id>
CHEMBL1200601

> <chembl_pref_name>
NARATRIPTAN HYDROCHLORIDE
