
     RDKit          2D

 26 29  0  0  1  0  0  0  0  0999 V2000
    2.0625   -0.0625    0.0000 C   0  0  0  0  0  0  0  0  0  0  0  0
    2.0625   -0.7750    0.0000 C   0  0  0  0  0  0  0  0  0  0  0  0
    0.2250   -1.8417    0.0000 C   0  0  0  0  0  0  0  0  0  0  0  0
    1.4417   -1.1250    0.0000 C   0  0  0  0  0  0  0  0  0  0  0  0
    0.8375   -0.7750    0.0000 C   0  0  0  0  0  0  0  0  0  0  0  0
    0.2250   -1.1250    0.0000 C   0  0  0  0  0  0  0  0  0  0  0  0
    2.7375    0.1500    0.0000 C   0  0  0  0  0  0  0  0  0  0  0  0
   -0.4000   -2.1917    0.0000 C   0  0  0  0  0  0  0  0  0  0  0  0
    3.3500    0.5083    0.0000 C   0  0  0  0  0  0  0  0  0  0  0  0
    1.4417    0.2875    0.0000 C   0  0  0  0  0  0  0  0  0  0  0  0
    0.8375   -0.0625    0.0000 C   0  0  0  0  0  0  0  0  0  0  0  0
    1.4417   -1.8417    0.0000 C   0  0  0  0  0  0  0  0  0  0  0  0
    2.7375   -0.9875    0.0000 C   0  0  0  0  0  0  0  0  0  0  0  0
    3.9625    0.8708    0.0000 C   0  0  0  0  0  0  0  0  0  0  0  0
   -0.4000   -0.7750    0.0000 C   0  0  0  0  0  0  0  0  0  0  0  0
    0.8375   -2.1917    0.0000 C   0  0  0  0  0  0  0  0  0  0  0  0
   -1.0125   -1.8417    0.0000 C   0  0  0  0  0  0  0  0  0  0  0  0
    3.1417   -0.4125    0.0000 C   0  0  0  0  0  0  0  0  0  0  0  0
   -1.6375   -2.2000    0.0000 O   0  0  0  0  0  0  0  0  0  0  0  0
   -1.0125   -1.1250    0.0000 C   0  0  0  0  0  0  0  0  0  0  0  0
    2.7292    0.8583    0.0000 O   0  0  0  0  0  0  0  0  0  0  0  0
    2.0625    0.6458    0.0000 C   0  0  0  0  0  0  0  0  0  0  0  0
    0.2250   -0.4250    0.0000 H   0  0  0  0  0  0  0  0  0  0  0  0
    2.0625   -1.4792    0.0000 H   0  0  0  0  0  0  0  0  0  0  0  0
    1.4417   -0.4250    0.0000 H   0  0  0  0  0  0  0  0  0  0  0  0
    0.8375   -1.4792    0.0000 H   0  0  0  0  0  0  0  0  0  0  0  0
  2  1  1  0
  3  6  1  0
  4  2  1  0
  5  4  1  0
  6  5  1  0
  7  1  1  0
  8  3  2  0
  9  7  1  0
 10  1  1  0
 11 10  1  0
 12  4  1  0
 13  2  1  0
 14  9  3  0
 15  6  1  0
 16 12  1  0
 17  8  1  0
 18  7  1  0
 19 17  2  0
 20 15  1  0
  7 21  1  1
  1 22  1  1
  6 23  1  1
  2 24  1  6
  4 25  1  1
  5 26  1  6
 11  5  1  0
 18 13  1  0
  3 16  1  0
 20 17  1  0
M  END
> <chembl_id>
CHEMBL1162

> <chembl_pref_name>
NORETHINDRONE
