
     RDKit          2D

 45 48  0  0  0  0  0  0  0  0999 V2000
    2.3571   -3.8009    0.0000 C   0  0  0  0  0  0  0  0  0  0  0  0
    3.0716   -3.3884    0.0000 C   0  0  0  0  0  0  0  0  0  0  0  0
    3.7861   -3.8009    0.0000 C   0  0  0  0  0  0  0  0  0  0  0  0
    4.5006   -3.3884    0.0000 C   0  0  0  0  0  0  0  0  0  0  0  0
    5.2150   -3.8009    0.0000 O   0  0  0  0  0  0  0  0  0  0  0  0
    4.5006   -2.5634    0.0000 O   0  0  0  0  0  0  0  0  0  0  0  0
    1.6427   -3.3884    0.0000 O   0  0  0  0  0  0  0  0  0  0  0  0
    2.3571   -4.6259    0.0000 O   0  0  0  0  0  0  0  0  0  0  0  0
   -3.3000    2.1509    0.0000 C   0  0  0  0  0  0  0  0  0  0  0  0
   -4.0144    2.5634    0.0000 C   0  0  0  0  0  0  0  0  0  0  0  0
   -4.7290    2.1509    0.0000 C   0  0  0  0  0  0  0  0  0  0  0  0
   -4.7290    1.3259    0.0000 C   0  0  0  0  0  0  0  0  0  0  0  0
   -4.0144    0.9134    0.0000 C   0  0  0  0  0  0  0  0  0  0  0  0
   -3.3000    1.3259    0.0000 C   0  0  0  0  0  0  0  0  0  0  0  0
   -2.5855    0.9134    0.0000 C   0  0  0  0  0  0  0  0  0  0  0  0
   -1.8710    1.3259    0.0000 C   0  0  0  0  0  0  0  0  0  0  0  0
   -1.8710    2.1509    0.0000 C   0  0  0  0  0  0  0  0  0  0  0  0
   -2.5855    2.5634    0.0000 N   0  0  0  0  0  0  0  0  0  0  0  0
   -1.1565    0.9134    0.0000 C   0  0  0  0  0  0  0  0  0  0  0  0
   -0.3315    0.9134    0.0000 C   0  0  0  0  0  0  0  0  0  0  0  0
   -1.1565    2.5634    0.0000 O   0  0  0  0  0  0  0  0  0  0  0  0
   -5.4435    0.9134    0.0000 Br  0  0  0  0  0  0  0  0  0  0  0  0
    0.9060    1.6279    0.0000 C   0  0  0  0  0  0  0  0  0  0  0  0
    0.0810    1.6279    0.0000 C   0  0  0  0  0  0  0  0  0  0  0  0
    0.0809    0.1989    0.0000 C   0  0  0  0  0  0  0  0  0  0  0  0
    0.9059    0.1989    0.0000 C   0  0  0  0  0  0  0  0  0  0  0  0
    1.3185    0.9134    0.0000 C   0  0  0  0  0  0  0  0  0  0  0  0
   -1.1565    0.0884    0.0000 C   0  0  0  0  0  0  0  0  0  0  0  0
   -1.9815    0.0884    0.0000 O   0  0  0  0  0  0  0  0  0  0  0  0
   -1.3701   -0.7085    0.0000 C   0  0  0  0  0  0  0  0  0  0  0  0
   -0.3597   -0.1251    0.0000 C   0  0  0  0  0  0  0  0  0  0  0  0
   -0.3669   -0.9515    0.0000 C   0  0  0  0  0  0  0  0  0  0  0  0
    0.3476   -1.3640    0.0000 N   0  0  0  0  0  0  0  0  0  0  0  0
    1.0621   -0.9515    0.0000 C   0  0  0  0  0  0  0  0  0  0  0  0
    0.3476   -2.1890    0.0000 C   0  0  0  0  0  0  0  0  0  0  0  0
   -2.0845   -1.1210    0.0000 C   0  0  0  0  0  0  0  0  0  0  0  0
   -2.7990   -0.7085    0.0000 C   0  0  0  0  0  0  0  0  0  0  0  0
   -3.5135   -1.1210    0.0000 C   0  0  0  0  0  0  0  0  0  0  0  0
   -3.5135   -1.9460    0.0000 C   0  0  0  0  0  0  0  0  0  0  0  0
   -2.7990   -2.3585    0.0000 C   0  0  0  0  0  0  0  0  0  0  0  0
   -2.0845   -1.9460    0.0000 C   0  0  0  0  0  0  0  0  0  0  0  0
   -1.3701   -2.3585    0.0000 C   0  0  0  0  0  0  0  0  0  0  0  0
   -0.6555   -1.9460    0.0000 C   0  0  0  0  0  0  0  0  0  0  0  0
   -0.6555   -1.1210    0.0000 C   0  0  0  0  0  0  0  0  0  0  0  0
   -1.1565    3.3884    0.0000 C   0  0  0  0  0  0  0  0  0  0  0  0
  1  2  1  0
  2  3  2  0
  3  4  1  0
  4  5  1  0
  4  6  2  0
  1  7  1  0
  1  8  2  0
  9 10  1  0
  9 14  2  0
  9 18  1  0
 10 11  2  0
 11 12  1  0
 12 13  2  0
 13 14  1  0
 14 15  1  0
 15 16  2  0
 16 17  1  0
 17 18  2  0
 19 16  1  0
 19 20  1  0
 17 21  1  0
 12 22  1  0
 24 20  2  0
 20 25  1  0
 23 24  1  0
 23 27  2  0
 25 26  2  0
 26 27  1  0
 19 28  1  1
 28 29  1  6
 28 30  1  0
 28 31  1  0
 31 32  1  0
 32 33  1  0
 33 34  1  0
 33 35  1  0
 44 30  2  0
 36 30  1  0
 36 37  1  0
 36 41  2  0
 37 38  2  0
 38 39  1  0
 39 40  2  0
 40 41  1  0
 41 42  1  0
 42 43  2  0
 43 44  1  0
 21 45  1  0
M  END
> <chembl_id>
CHEMBL2105700

> <chembl_pref_name>
BEDAQUILINE FUMARATE
