
     RDKit          2D

 30 33  0  0  0  0  0  0  0  0999 V2000
   -3.1169    2.7146    0.0000 C   0  0  0  0  0  0  0  0  0  0  0  0
   -3.8313    2.3021    0.0000 N   0  0  0  0  0  0  0  0  0  0  0  0
   -3.8313    1.4771    0.0000 C   0  0  0  0  0  0  0  0  0  0  0  0
   -3.1169    1.0646    0.0000 C   0  0  0  0  0  0  0  0  0  0  0  0
   -2.4024    1.4771    0.0000 C   0  0  0  0  0  0  0  0  0  0  0  0
   -2.4024    2.3021    0.0000 N   0  0  0  0  0  0  0  0  0  0  0  0
   -1.6880    0.2396    0.0000 C   0  0  0  0  0  0  0  0  0  0  0  0
   -1.6880    1.0646    0.0000 N   0  0  0  0  0  0  0  0  0  0  0  0
   -0.9735    1.4771    0.0000 C   0  0  0  0  0  0  0  0  0  0  0  0
   -0.9735   -0.1729    0.0000 C   0  0  0  0  0  0  0  0  0  0  0  0
   -0.2590    0.2396    0.0000 C   0  0  0  0  0  0  0  0  0  0  0  0
   -0.2590    1.0646    0.0000 C   0  0  0  0  0  0  0  0  0  0  0  0
    3.6912   -1.4784    0.0000 C   0  0  0  0  0  0  0  0  0  0  0  0
    3.1947   -0.8195    0.0000 C   0  0  0  0  0  0  0  0  0  0  0  0
    2.3758   -0.9201    0.0000 C   0  0  0  0  0  0  0  0  0  0  0  0
    2.0535   -1.6795    0.0000 C   0  0  0  0  0  0  0  0  0  0  0  0
    2.5500   -2.3383    0.0000 C   0  0  0  0  0  0  0  0  0  0  0  0
    3.3688   -2.2378    0.0000 C   0  0  0  0  0  0  0  0  0  0  0  0
   -4.4444    0.9251    0.0000 N   0  0  0  0  0  0  0  0  0  0  0  0
   -4.1089    0.1714    0.0000 C   0  0  0  0  0  0  0  0  0  0  0  0
   -3.2885    0.2576    0.0000 C   0  0  0  0  0  0  0  0  0  0  0  0
    0.5640    0.2971    0.0000 C   0  0  0  0  0  0  0  0  0  0  0  0
   -0.0803   -0.4944    0.0000 N   0  0  0  0  0  0  0  0  0  0  0  0
    0.9256    1.0386    0.0000 O   0  0  0  0  0  0  0  0  0  0  0  0
    1.0605   -0.3617    0.0000 N   0  0  0  0  0  0  0  0  0  0  0  0
    1.8793   -0.2612    0.0000 C   0  0  0  0  0  0  0  0  0  0  0  0
    3.7938   -2.9450    0.0000 Cl  0  0  0  0  0  0  0  0  0  0  0  0
    2.2017    0.4982    0.0000 C   0  0  0  0  0  0  0  0  0  0  0  0
    3.0205    0.5988    0.0000 C   0  0  0  0  0  0  0  0  0  0  0  0
    3.3429    1.3582    0.0000 O   0  0  0  0  0  0  0  0  0  0  0  0
  1  2  1  0
  2  3  1  0
  3  4  1  0
  4  5  2  0
  5  6  1  0
  1  6  2  0
  7  8  1  0
  5  8  1  0
 10 11  1  0
 11 12  1  0
  9 12  1  0
  7 10  1  0
  9  8  1  0
 13 14  1  0
 14 15  2  0
 15 16  1  0
 16 17  2  0
 17 18  1  0
 13 18  2  0
 19 20  1  0
 20 21  2  0
  3 19  2  0
  4 21  1  0
 11 22  1  0
 11 23  1  0
 22 24  2  0
 22 25  1  0
 25 26  1  0
 26 15  1  0
 18 27  1  0
 26 28  1  1
 28 29  1  0
 29 30  1  0
M  END
> <chembl_id>
CHEMBL2325741

> <chembl_pref_name>
CAPIVASERTIB
