
     RDKit          2D

 11 11  0  0  0  0  0  0  0  0999 V2000
    8.2792   -0.9708    0.0000 C   0  0  0  0  0  0  0  0  0  0  0  0
    8.2792   -1.6833    0.0000 C   0  0  0  0  0  0  0  0  0  0  0  0
    8.8917   -0.6125    0.0000 C   0  0  0  0  0  0  0  0  0  0  0  0
    7.6667   -0.6167    0.0000 C   0  0  0  0  0  0  0  0  0  0  0  0
    7.6667   -2.0375    0.0000 C   0  0  0  0  0  0  0  0  0  0  0  0
    8.8875    0.0958    0.0000 O   0  0  0  0  0  0  0  0  0  0  0  0
    7.0542   -1.6833    0.0000 C   0  0  0  0  0  0  0  0  0  0  0  0
    8.8958   -2.0375    0.0000 O   0  0  0  0  0  0  0  0  0  0  0  0
    7.0542   -0.9750    0.0000 C   0  0  0  0  0  0  0  0  0  0  0  0
    9.5042   -0.9667    0.0000 O   0  0  0  0  0  0  0  0  0  0  0  0
    6.4417   -2.0375    0.0000 N   0  0  0  0  0  0  0  0  0  0  0  0
  2  1  1  0
  3  1  1  0
  4  1  2  0
  5  2  2  0
  6  3  2  0
  7  5  1  0
  8  2  1  0
  9  4  1  0
 10  3  1  0
 11  7  1  0
  7  9  2  0
M  END
> <chembl_id>
CHEMBL1169

> <chembl_pref_name>
AMINOSALICYLIC ACID
