
     RDKit          2D

 34 34  0  0  0  0  0  0  0  0999 V2000
    8.3625   -2.5917    0.0000 Na  0  0  0  0  0 15  0  0  0  0  0  0
    2.7542   -2.4750    0.0000 C   0  0  0  0  0  0  0  0  0  0  0  0
    1.4750   -2.4417    0.0000 C   0  0  0  0  0  0  0  0  0  0  0  0
    2.1167   -1.3667    0.0000 N   0  0  0  0  0  0  0  0  0  0  0  0
    2.1250   -2.8292    0.0000 C   0  0  0  0  0  0  0  0  0  0  0  0
    1.4875   -1.7292    0.0000 C   0  0  0  0  0  0  0  0  0  0  0  0
    2.7542   -1.7500    0.0000 C   0  0  0  0  0  0  0  0  0  0  0  0
    3.3542   -2.8292    0.0000 C   0  0  0  0  0  0  0  0  0  0  0  0
    7.0500   -2.8875    0.0000 C   0  0  0  0  0  0  0  0  0  0  0  0
    6.4542   -2.5125    0.0000 C   0  0  0  0  0  0  0  0  0  0  0  0
    2.1042   -3.5167    0.0000 C   0  0  0  0  0  0  0  0  0  0  0  0
    3.9542   -2.4792    0.0000 C   0  0  0  0  0  0  0  0  0  0  0  0
    7.6792   -2.5542    0.0000 O   0  0  0  0  0  0  0  0  0  0  0  0
    7.0250   -3.5917    0.0000 O   0  0  0  0  0  0  0  0  0  0  0  0
    5.8250   -2.8542    0.0000 C   0  0  0  0  0  0  0  0  0  0  0  0
    5.2042   -2.5000    0.0000 C   0  0  0  0  0  0  0  0  0  0  0  0
    0.8625   -1.3625    0.0000 C   0  0  0  0  0  0  0  0  0  0  0  0
    3.3667   -1.4042    0.0000 C   0  0  0  0  0  0  0  0  0  0  0  0
    2.7167   -3.8792    0.0000 C   0  0  0  0  0  0  0  0  0  0  0  0
    1.4875   -3.8542    0.0000 C   0  0  0  0  0  0  0  0  0  0  0  0
    0.8542   -2.7917    0.0000 C   0  0  0  0  0  0  0  0  0  0  0  0
    2.0917   -4.9375    0.0000 C   0  0  0  0  0  0  0  0  0  0  0  0
    4.5792   -2.8375    0.0000 C   0  0  0  0  0  0  0  0  0  0  0  0
    1.4792   -4.5750    0.0000 C   0  0  0  0  0  0  0  0  0  0  0  0
    2.7167   -4.5792    0.0000 C   0  0  0  0  0  0  0  0  0  0  0  0
    2.0792   -5.6500    0.0000 F   0  0  0  0  0  0  0  0  0  0  0  0
    5.8292   -3.5667    0.0000 O   0  0  0  0  0  0  0  0  0  0  0  0
    4.5292   -3.5167    0.0000 O   0  0  0  0  0  0  0  0  0  0  0  0
    0.2417   -2.4292    0.0000 O   0  0  0  0  0  0  0  0  0  0  0  0
    0.8417   -0.6417    0.0000 C   0  0  0  0  0  0  0  0  0  0  0  0
    3.3792   -0.6917    0.0000 C   0  0  0  0  0  0  0  0  0  0  0  0
    3.9792   -1.7667    0.0000 C   0  0  0  0  0  0  0  0  0  0  0  0
    0.2042   -1.7167    0.0000 C   0  0  0  0  0  0  0  0  0  0  0  0
   -0.3708   -2.7792    0.0000 C   0  0  0  0  0  0  0  0  0  0  0  0
  3  5  1  0
  4  7  2  0
  5  2  2  0
  6  4  1  0
  7  2  1  0
  8  2  1  0
  9 10  1  0
 10 15  1  0
 11  5  1  0
 12  8  2  0
 13  9  1  0
 14  9  2  0
 15 16  1  0
 16 23  1  0
 17  6  1  0
 18  7  1  0
 19 11  2  0
 20 11  1  0
 21  3  1  0
 22 24  1  0
 23 12  1  0
 24 20  2  0
 25 19  1  0
 26 22  1  0
 15 27  1  6
 23 28  1  6
 29 21  1  0
 30 17  1  0
 31 18  1  0
 32 18  1  0
 33 17  1  0
 34 29  1  0
  6  3  2  0
 22 25  2  0
M  CHG  2   1   1  13  -1
M  END
> <chembl_id>
CHEMBL1200563

> <chembl_pref_name>
CERIVASTATIN SODIUM
