
     RDKit          2D

 72 73  0  0  0  0  0  0  0  0999 V2000
    7.5791   -6.1993    0.0000 S   0  0  0  0  0  0  0  0  0  0  0  0
    7.1613   -5.4706    0.0000 O   0  0  0  0  0  0  0  0  0  0  0  0
    7.9872   -5.4706    0.0000 O   0  0  0  0  0  0  0  0  0  0  0  0
    6.8649   -6.6074    0.0000 O   0  0  0  0  0  0  0  0  0  0  0  0
    8.2933   -6.6074    0.0000 O   0  0  0  0  0  0  0  0  0  0  0  0
    9.0074   -6.1993    0.0000 C   0  0  0  0  0  0  0  0  0  0  0  0
    9.7216   -6.6074    0.0000 C   0  0  0  0  0  0  0  0  0  0  0  0
    6.8649   -7.4382    0.0000 C   0  0  0  0  0  0  0  0  0  0  0  0
    7.5791   -7.8463    0.0000 C   0  0  0  0  0  0  0  0  0  0  0  0
   10.4407   -7.8463    0.0000 C   0  0  0  0  0  0  0  0  0  0  0  0
    9.7216   -7.4382    0.0000 C   0  0  0  0  0  0  0  0  0  0  0  0
    9.0074   -7.8463    0.0000 C   0  0  0  0  0  0  0  0  0  0  0  0
    8.2933   -7.4382    0.0000 C   0  0  0  0  0  0  0  0  0  0  0  0
   10.4407   -6.1993    0.0000 C   0  0  0  0  0  0  0  0  0  0  0  0
   11.1549   -6.6074    0.0000 C   0  0  0  0  0  0  0  0  0  0  0  0
   11.1549   -7.4382    0.0000 C   0  0  0  0  0  0  0  0  0  0  0  0
    6.1458   -7.8463    0.0000 C   0  0  0  0  0  0  0  0  0  0  0  0
    4.7272   -7.6908    0.0000 C   0  0  0  0  0  0  0  0  0  0  0  0
    2.0891   -6.4131    0.0000 C   0  0  0  0  0  0  0  0  0  0  0  0
    0.6608   -6.4180    0.0000 C   0  0  0  0  0  0  0  0  0  0  0  0
   -0.0534   -4.3629    0.0000 C   0  0  0  0  0  0  0  0  0  0  0  0
    1.3750   -6.8261    0.0000 C   0  0  0  0  0  0  0  0  0  0  0  0
    4.3191   -8.4002    0.0000 C   0  0  0  0  0  0  0  0  0  0  0  0
    2.8033   -5.1791    0.0000 C   0  0  0  0  0  0  0  0  0  0  0  0
    2.0891   -5.5872    0.0000 C   0  0  0  0  0  0  0  0  0  0  0  0
    0.6608   -3.1386    0.0000 C   0  0  0  0  0  0  0  0  0  0  0  0
    0.6608   -5.5969    0.0000 O   0  0  0  0  0  0  0  0  0  0  0  0
    0.6608   -3.9548    0.0000 C   0  0  0  0  0  0  0  0  0  0  0  0
    1.3750   -2.7255    0.0000 C   0  0  0  0  0  0  0  0  0  0  0  0
    4.7223   -6.5929    0.0000 O   0  0  0  0  0  0  0  0  0  0  0  0
    0.4713  -10.0034    0.0000 C   0  0  0  0  0  0  0  0  0  0  0  0
    3.4884   -8.4002    0.0000 C   0  0  0  0  0  0  0  0  0  0  0  0
    2.8033   -4.3629    0.0000 C   0  0  0  0  0  0  0  0  0  0  0  0
    1.7053   -9.2940    0.0000 C   0  0  0  0  0  0  0  0  0  0  0  0
    1.2972  -10.0034    0.0000 C   0  0  0  0  0  0  0  0  0  0  0  0
    4.3191   -6.9766    0.0000 O   0  0  0  0  0  0  0  0  0  0  0  0
    1.2972   -8.5799    0.0000 O   0  0  0  0  0  0  0  0  0  0  0  0
   -0.0534   -5.1838    0.0000 C   0  0  0  0  0  0  0  0  0  0  0  0
    0.0534   -9.2940    0.0000 C   0  0  0  0  0  0  0  0  0  0  0  0
    2.8033   -6.8212    0.0000 O   0  0  0  0  0  0  0  0  0  0  0  0
    0.4713   -8.5799    0.0000 C   0  0  0  0  0  0  0  0  0  0  0  0
    2.0891   -3.1337    0.0000 C   0  0  0  0  0  0  0  0  0  0  0  0
    2.0891   -3.9548    0.0000 C   0  0  0  0  0  0  0  0  0  0  0  0
    3.0754   -7.6908    0.0000 C   0  0  0  0  0  0  0  0  0  0  0  0
    3.0803   -9.1191    0.0000 N   0  0  0  0  0  0  0  0  0  0  0  0
   -0.0534   -6.8308    0.0000 O   0  0  0  0  0  0  0  0  0  0  0  0
    3.4884   -6.9766    0.0000 C   0  0  0  0  0  0  0  0  0  0  0  0
    1.3701   -1.8997    0.0000 O   0  0  0  0  0  0  0  0  0  0  0  0
   -0.4664   -3.6438    0.0000 O   0  0  0  0  0  0  0  0  0  0  0  0
    4.7272   -9.1191    0.0000 O   0  0  0  0  0  0  0  0  0  0  0  0
    3.2114   -3.6438    0.0000 O   0  0  0  0  0  0  0  0  0  0  0  0
    1.3750   -4.3725    0.0000 O   0  0  0  0  0  0  0  0  0  0  0  0
   -0.2478  -10.4115    0.0000 O   0  0  0  0  0  0  0  0  0  0  0  0
   -0.7725   -9.2940    0.0000 O   0  0  0  0  0  0  0  0  0  0  0  0
   -0.8745   -4.3629    0.0000 C   0  0  0  0  0  0  0  0  0  0  0  0
    1.3797   -7.6519    0.0000 C   0  0  0  0  0  0  0  0  0  0  0  0
    1.3701   -5.1742    0.0000 C   0  0  0  0  0  0  0  0  0  0  0  0
   -0.0534   -2.7255    0.0000 C   0  0  0  0  0  0  0  0  0  0  0  0
    0.4664  -10.8342    0.0000 C   0  0  0  0  0  0  0  0  0  0  0  0
    3.6292   -4.3629    0.0000 C   0  0  0  0  0  0  0  0  0  0  0  0
   -0.7676   -5.6017    0.0000 C   0  0  0  0  0  0  0  0  0  0  0  0
    0.0583   -7.8609    0.0000 C   0  0  0  0  0  0  0  0  0  0  0  0
    2.8033   -2.7159    0.0000 C   0  0  0  0  0  0  0  0  0  0  0  0
    3.4931   -9.8333    0.0000 C   0  0  0  0  0  0  0  0  0  0  0  0
    2.2542   -9.1191    0.0000 C   0  0  0  0  0  0  0  0  0  0  0  0
    3.0803   -6.2576    0.0000 C   0  0  0  0  0  0  0  0  0  0  0  0
   -0.9620   -9.9936    0.0000 C   0  0  0  0  0  0  0  0  0  0  0  0
   -1.4818   -5.1887    0.0000 C   0  0  0  0  0  0  0  0  0  0  0  0
    5.5522   -9.1191    0.0000 C   0  0  0  0  0  0  0  0  0  0  0  0
    5.9647   -9.8336    0.0000 C   0  0  0  0  0  0  0  0  0  0  0  0
    5.9647   -8.4047    0.0000 O   0  0  0  0  0  0  0  0  0  0  0  0
    6.7897   -9.8336    0.0000 C   0  0  0  0  0  0  0  0  0  0  0  0
  2  1  2  0
  3  1  2  0
  4  1  1  0
  5  1  1  0
  6  5  1  0
  7  6  1  0
  8  9  1  0
  9 13  1  0
 10 16  1  0
 11 10  1  0
 12 11  1  0
 13 12  1  0
 14  7  1  0
 15 14  1  0
 16 15  1  0
 17  8  1  0
 19 25  1  0
 20 22  1  0
 21 28  1  0
 22 19  1  0
 23 18  1  0
 24 30  1  6
 25 24  1  0
 26 29  1  0
 27 20  1  0
 28 26  1  0
 29 42  1  0
 18 30  1  1
 31 35  1  0
 32 23  1  0
 33 24  1  0
 34 40  1  1
 35 34  1  0
 36 18  1  0
 37 34  1  0
 38 27  1  0
 39 41  1  0
 19 40  1  6
 41 37  1  0
 42 43  1  0
 43 33  1  0
 44 47  1  0
 32 45  1  1
 46 20  2  0
 47 36  1  0
 48 29  2  0
 21 49  1  1
 23 50  1  6
 33 51  1  1
 28 52  1  1
 31 53  1  0
 39 54  1  1
 55 21  1  0
 22 56  1  1
 25 57  1  6
 26 58  1  1
 31 59  1  6
 60 33  1  0
 38 61  1  6
 41 62  1  6
 42 63  1  6
 64 45  1  0
 65 45  1  0
 47 66  1  1
 67 53  1  0
 68 61  1  0
 44 32  1  0
 38 21  1  0
 39 31  1  0
 50 69  1  0
 69 70  1  0
 69 71  2  0
 70 72  1  0
M  END
> <chembl_id>
CHEMBL2218877

> <chembl_pref_name>
ERYTHROMYCIN ESTOLATE
