
     RDKit          2D

 26 27  0  0  0  0  0  0  0  0999 V2000
   -3.1875   -1.6542    0.0000 C   0  0  0  0  0  0  0  0  0  0  0  0
   -3.7250   -1.3417    0.0000 C   0  0  0  0  0  0  0  0  0  0  0  0
   -2.6500   -1.3417    0.0000 C   0  0  0  0  0  0  0  0  0  0  0  0
   -3.7250   -0.7167    0.0000 C   0  0  0  0  0  0  0  0  0  0  0  0
   -2.6500   -0.7167    0.0000 C   0  0  0  0  0  0  0  0  0  0  0  0
   -3.1875   -2.2792    0.0000 O   0  0  0  0  0  0  0  0  0  0  0  0
   -3.1875   -0.4125    0.0000 C   0  0  0  0  0  0  0  0  0  0  0  0
   -1.5750    0.5250    0.0000 N   0  0  0  0  0  0  0  0  0  0  0  0
    1.6542    1.1500    0.0000 N   0  0  0  0  0  0  0  0  0  0  0  0
   -4.2708   -1.6625    0.0000 O   0  0  0  0  0  0  0  0  0  0  0  0
    3.2667    1.4625    0.0000 C   0  0  0  0  0  0  0  0  0  0  0  0
    2.1875    1.4625    0.0000 C   0  0  0  0  0  0  0  0  0  0  0  0
   -2.1125    0.2208    0.0000 C   0  0  0  0  0  0  0  0  0  0  0  0
    1.1125    1.4625    0.0000 C   0  0  0  0  0  0  0  0  0  0  0  0
   -1.5750    1.1500    0.0000 C   0  0  0  0  0  0  0  0  0  0  0  0
   -2.1083   -0.4042    0.0000 C   0  0  0  0  0  0  0  0  0  0  0  0
    2.7292    1.1500    0.0000 C   0  0  0  0  0  0  0  0  0  0  0  0
    3.8042    1.1500    0.0000 C   0  0  0  0  0  0  0  0  0  0  0  0
    3.2625    2.0833    0.0000 C   0  0  0  0  0  0  0  0  0  0  0  0
    0.5792    1.1500    0.0000 C   0  0  0  0  0  0  0  0  0  0  0  0
   -1.0458    1.4625    0.0000 C   0  0  0  0  0  0  0  0  0  0  0  0
   -0.5000    1.1500    0.0000 C   0  0  0  0  0  0  0  0  0  0  0  0
    0.0375    1.4625    0.0000 C   0  0  0  0  0  0  0  0  0  0  0  0
    4.3417    1.4625    0.0000 C   0  0  0  0  0  0  0  0  0  0  0  0
    3.8000    2.3958    0.0000 C   0  0  0  0  0  0  0  0  0  0  0  0
    4.3417    2.0833    0.0000 C   0  0  0  0  0  0  0  0  0  0  0  0
  2  1  2  0
  3  1  1  0
  4  2  1  0
  5  3  2  0
  6  1  1  0
  7  5  1  0
  8 13  1  0
  9 14  1  0
 10  2  1  0
 11 17  1  0
 12  9  1  0
 13 16  1  0
 14 20  1  0
 15  8  1  0
 16  5  1  0
 17 12  1  0
 18 11  1  0
 19 11  2  0
 20 23  1  0
 21 15  1  0
 22 21  1  0
 23 22  1  0
 24 18  2  0
 25 19  1  0
 26 25  2  0
  4  7  2  0
 24 26  1  0
M  END
> <chembl_id>
CHEMBL77622

> <chembl_pref_name>
DOPEXAMINE
