
     RDKit          2D

 74 75  0  0  0  0  0  0  0  0999 V2000
    2.9375  -13.0792    0.0000 C   0  0  0  0  0  0  0  0  0  0  0  0
    2.9375  -12.3750    0.0000 O   0  0  0  0  0  0  0  0  0  0  0  0
    2.3250  -13.4375    0.0000 O   0  0  0  0  0  0  0  0  0  0  0  0
    3.5542  -13.4375    0.0000 C   0  0  0  0  0  0  0  0  0  0  0  0
    4.1667  -13.0792    0.0000 C   0  0  0  0  0  0  0  0  0  0  0  0
    4.7750  -14.1417    0.0000 C   0  0  0  0  0  0  0  0  0  0  0  0
    5.3917  -14.4958    0.0000 C   0  0  0  0  0  0  0  0  0  0  0  0
    6.0042  -13.4292    0.0000 C   0  0  0  0  0  0  0  0  0  0  0  0
    6.6167  -13.0750    0.0000 C   0  0  0  0  0  0  0  0  0  0  0  0
    7.2292  -13.4292    0.0000 C   0  0  0  0  0  0  0  0  0  0  0  0
    7.8417  -13.0708    0.0000 C   0  0  0  0  0  0  0  0  0  0  0  0
    8.4542  -13.4250    0.0000 C   0  0  0  0  0  0  0  0  0  0  0  0
    8.4583  -14.1333    0.0000 C   0  0  0  0  0  0  0  0  0  0  0  0
    7.8458  -14.4875    0.0000 C   0  0  0  0  0  0  0  0  0  0  0  0
    7.2292  -14.1375    0.0000 C   0  0  0  0  0  0  0  0  0  0  0  0
    6.6167  -14.4917    0.0000 C   0  0  0  0  0  0  0  0  0  0  0  0
    6.0042  -14.1417    0.0000 C   0  0  0  0  0  0  0  0  0  0  0  0
    4.7792  -13.4375    0.0000 C   0  0  0  0  0  0  0  0  0  0  0  0
    5.3917  -13.0792    0.0000 C   0  0  0  0  0  0  0  0  0  0  0  0
    4.1625  -14.5000    0.0000 C   0  0  0  0  0  0  0  0  0  0  0  0
    0.9292  -14.4292    0.0000 C   0  0  0  0  0  0  0  0  0  0  0  0
   -1.3333  -13.3292    0.0000 C   0  0  0  0  0  0  0  0  0  0  0  0
   -2.5583  -13.3375    0.0000 C   0  0  0  0  0  0  0  0  0  0  0  0
   -3.1708  -11.5750    0.0000 C   0  0  0  0  0  0  0  0  0  0  0  0
   -1.9458  -13.6875    0.0000 C   0  0  0  0  0  0  0  0  0  0  0  0
    0.5792  -15.0417    0.0000 C   0  0  0  0  0  0  0  0  0  0  0  0
   -0.7208  -12.2792    0.0000 C   0  0  0  0  0  0  0  0  0  0  0  0
   -1.3333  -12.6292    0.0000 C   0  0  0  0  0  0  0  0  0  0  0  0
   -2.5583  -10.5250    0.0000 C   0  0  0  0  0  0  0  0  0  0  0  0
   -2.5583  -12.6292    0.0000 O   0  0  0  0  0  0  0  0  0  0  0  0
   -2.5583  -11.2292    0.0000 C   0  0  0  0  0  0  0  0  0  0  0  0
   -1.9458  -10.1667    0.0000 C   0  0  0  0  0  0  0  0  0  0  0  0
    0.9250  -13.4875    0.0000 O   0  0  0  0  0  0  0  0  0  0  0  0
   -2.7208  -16.4167    0.0000 C   0  0  0  0  0  0  0  0  0  0  0  0
   -0.1333  -15.0417    0.0000 C   0  0  0  0  0  0  0  0  0  0  0  0
   -0.7208  -11.5750    0.0000 C   0  0  0  0  0  0  0  0  0  0  0  0
   -1.6625  -15.8042    0.0000 C   0  0  0  0  0  0  0  0  0  0  0  0
   -2.0125  -16.4167    0.0000 C   0  0  0  0  0  0  0  0  0  0  0  0
    0.5792  -13.8167    0.0000 O   0  0  0  0  0  0  0  0  0  0  0  0
   -2.0125  -15.1917    0.0000 O   0  0  0  0  0  0  0  0  0  0  0  0
   -3.1708  -12.2792    0.0000 C   0  0  0  0  0  0  0  0  0  0  0  0
   -3.0792  -15.8042    0.0000 C   0  0  0  0  0  0  0  0  0  0  0  0
   -0.7208  -13.6833    0.0000 O   0  0  0  0  0  0  0  0  0  0  0  0
   -2.7208  -15.1917    0.0000 C   0  0  0  0  0  0  0  0  0  0  0  0
   -1.3333  -10.5167    0.0000 C   0  0  0  0  0  0  0  0  0  0  0  0
   -1.3333  -11.2250    0.0000 C   0  0  0  0  0  0  0  0  0  0  0  0
   -0.4875  -14.4292    0.0000 C   0  0  0  0  0  0  0  0  0  0  0  0
   -0.4833  -15.6542    0.0000 N   0  0  0  0  0  0  0  0  0  0  0  0
   -3.1708  -13.6917    0.0000 O   0  0  0  0  0  0  0  0  0  0  0  0
   -0.1333  -13.8167    0.0000 C   0  0  0  0  0  0  0  0  0  0  0  0
   -1.9500   -9.4625    0.0000 O   0  0  0  0  0  0  0  0  0  0  0  0
   -3.5250  -10.9542    0.0000 O   0  0  0  0  0  0  0  0  0  0  0  0
    0.9292  -15.6542    0.0000 O   0  0  0  0  0  0  0  0  0  0  0  0
   -0.3708  -10.9542    0.0000 O   0  0  0  0  0  0  0  0  0  0  0  0
   -1.9458  -11.5833    0.0000 O   0  0  0  0  0  0  0  0  0  0  0  0
   -3.3375  -16.7667    0.0000 O   0  0  0  0  0  0  0  0  0  0  0  0
   -3.7875  -15.8042    0.0000 O   0  0  0  0  0  0  0  0  0  0  0  0
   -3.8750  -11.5750    0.0000 C   0  0  0  0  0  0  0  0  0  0  0  0
   -1.9417  -14.3917    0.0000 C   0  0  0  0  0  0  0  0  0  0  0  0
   -1.9500  -12.2708    0.0000 C   0  0  0  0  0  0  0  0  0  0  0  0
   -3.1708  -10.1708    0.0000 C   0  0  0  0  0  0  0  0  0  0  0  0
   -2.7250  -17.1250    0.0000 C   0  0  0  0  0  0  0  0  0  0  0  0
   -0.0125  -11.5750    0.0000 C   0  0  0  0  0  0  0  0  0  0  0  0
   -3.7833  -12.6375    0.0000 C   0  0  0  0  0  0  0  0  0  0  0  0
   -3.0750  -14.5750    0.0000 C   0  0  0  0  0  0  0  0  0  0  0  0
   -0.7208  -10.1625    0.0000 C   0  0  0  0  0  0  0  0  0  0  0  0
   -0.1292  -16.2667    0.0000 C   0  0  0  0  0  0  0  0  0  0  0  0
   -1.1917  -15.6542    0.0000 C   0  0  0  0  0  0  0  0  0  0  0  0
   -0.4833  -13.2000    0.0000 C   0  0  0  0  0  0  0  0  0  0  0  0
   -3.9500  -16.4042    0.0000 C   0  0  0  0  0  0  0  0  0  0  0  0
   -4.3958  -12.2833    0.0000 C   0  0  0  0  0  0  0  0  0  0  0  0
   -1.0500  -16.1542    0.0000 H   0  0  0  0  0  0  0  0  0  0  0  0
    1.5417  -14.7792    0.0000 H   0  0  0  0  0  0  0  0  0  0  0  0
   -0.0125  -12.2792    0.0000 H   0  0  0  0  0  0  0  0  0  0  0  0
  2  1  2  0
  3  1  1  0
  4  1  1  0
  5  4  1  0
  6  7  1  0
  7 17  1  0
  8 19  1  0
  9  8  1  0
 10  9  1  0
 11 10  1  0
 12 11  1  0
 13 12  1  0
 14 13  1  0
 15 14  1  0
 16 15  1  0
 17 16  1  0
 18  5  1  0
 19 18  1  0
 20  6  1  0
 22 28  1  0
 23 25  1  0
 24 31  1  0
 25 22  1  0
 26 21  1  0
 27 33  1  0
 28 27  1  0
 29 32  1  0
 30 23  1  0
 31 29  1  0
 32 45  1  0
 33 21  1  0
 34 38  1  0
 35 26  1  0
 36 27  1  0
 37 43  1  0
 38 37  1  0
 39 21  1  0
 40 37  1  0
 41 30  1  0
 42 44  1  0
 22 43  1  6
 44 40  1  0
 45 46  1  0
 46 36  1  0
 47 50  1  0
 35 48  1  1
 49 23  2  0
 50 39  1  0
 51 32  2  0
 24 52  1  1
 26 53  1  6
 36 54  1  1
 31 55  1  1
 34 56  1  1
 42 57  1  1
 58 24  1  0
 25 59  1  1
 28 60  1  6
 29 61  1  1
 62 34  1  0
 63 36  1  0
 41 64  1  6
 44 65  1  6
 45 66  1  6
 67 48  1  0
 68 48  1  0
 50 69  1  1
 70 56  1  0
 71 64  1  0
 37 72  1  6
 21 73  1  6
 27 74  1  1
 47 35  1  0
 41 24  1  0
 42 34  1  0
M  END
> <chembl_id>
CHEMBL1200510

> <chembl_pref_name>
ERYTHROMYCIN STEARATE
