
     RDKit          2D

 30 33  0  0  1  0  0  0  0  0999 V2000
   -1.3083   -0.7875    0.0000 C   0  0  0  0  0  0  0  0  0  0  0  0
    1.6125    0.8458    0.0000 C   0  0  0  0  0  0  0  0  0  0  0  0
   -1.3000   -1.8875    0.0000 C   0  0  0  0  0  0  0  0  0  0  0  0
    1.6042   -0.2667    0.0000 C   0  0  0  0  0  0  0  0  0  0  0  0
    0.6417   -0.7875    0.0000 C   0  0  0  0  0  0  0  0  0  0  0  0
   -0.2625   -0.2542    0.0000 C   0  0  0  0  0  0  0  0  0  0  0  0
    2.6875    1.1750    0.0000 C   0  0  0  0  0  0  0  0  0  0  0  0
   -2.2125   -0.2375    0.0000 C   0  0  0  0  0  0  0  0  0  0  0  0
    0.6542    1.3958    0.0000 C   0  0  0  0  0  0  0  0  0  0  0  0
   -0.2625    0.8583    0.0000 C   0  0  0  0  0  0  0  0  0  0  0  0
    2.6792   -0.6000    0.0000 C   0  0  0  0  0  0  0  0  0  0  0  0
    3.3375    0.2958    0.0000 C   0  0  0  0  0  0  0  0  0  0  0  0
    0.6417   -1.8917    0.0000 C   0  0  0  0  0  0  0  0  0  0  0  0
   -0.2875   -2.4375    0.0000 C   0  0  0  0  0  0  0  0  0  0  0  0
   -2.2458   -2.4292    0.0000 C   0  0  0  0  0  0  0  0  0  0  0  0
   -3.2208   -0.7625    0.0000 C   0  0  0  0  0  0  0  0  0  0  0  0
   -3.2208   -1.8542    0.0000 C   0  0  0  0  0  0  0  0  0  0  0  0
    3.1792    2.1458    0.0000 C   0  0  0  0  0  0  0  0  0  0  0  0
    4.2625    1.9000    0.0000 O   0  0  0  0  0  0  0  0  0  0  0  0
   -4.2083   -2.4292    0.0000 O   0  0  0  0  0  0  0  0  0  0  0  0
   -1.3000    0.3208    0.0000 C   0  0  0  0  0  0  0  0  0  0  0  0
    1.6542    1.8750    0.0000 C   0  0  0  0  0  0  0  0  0  0  0  0
   -0.3000   -3.3417    0.0000 F   0  0  0  0  0  0  0  0  0  0  0  0
   -1.1958    1.3958    0.0000 O   0  0  0  0  0  0  0  0  0  0  0  0
    4.2625    0.2875    0.0000 C   0  0  0  0  0  0  0  0  0  0  0  0
    1.7292    3.4208    0.0000 O   0  0  0  0  0  0  0  0  0  0  0  0
    2.8042    3.2083    0.0000 C   0  0  0  0  0  0  0  0  0  0  0  0
    0.6417    0.2833    0.0000 H   0  0  0  0  0  0  0  0  0  0  0  0
    1.5917   -1.4167    0.0000 H   0  0  0  0  0  0  0  0  0  0  0  0
   -0.2875   -1.3167    0.0000 H   0  0  0  0  0  0  0  0  0  0  0  0
  2  9  1  0
  3  1  1  0
  4  5  1  0
  5  6  1  0
  6  1  1  0
  7  2  1  0
  8  1  1  0
  9 10  1  0
 10  6  1  0
 11  4  1  0
 12 11  1  0
 13  5  1  0
 14  3  1  0
 15  3  2  0
 16  8  2  0
 17 16  1  0
  7 18  1  1
 19 18  2  0
 20 17  2  0
  1 21  1  1
  2 22  1  1
 14 23  1  6
 10 24  1  1
 12 25  1  6
 26 27  1  0
 27 18  1  0
  5 28  1  1
  4 29  1  6
  6 30  1  6
 14 13  1  0
 15 17  1  0
  4  2  1  0
  7 12  1  0
M  END
> <chembl_id>
CHEMBL251634

> <chembl_pref_name>
FLUOCORTOLONE
