
     RDKit          2D

 24 23  0  0  0  0  0  0  0  0999 V2000
    9.0542   -4.8542    0.0000 Na  0  0  0  0  0 15  0  0  0  0  0  0
    3.0250   -5.1792    0.0000 C   0  0  0  0  0  0  0  0  0  0  0  0
    7.4000   -4.8542    0.0000 C   0  0  0  0  0  0  0  0  0  0  0  0
    2.4042   -4.8375    0.0000 C   0  0  0  0  0  0  0  0  0  0  0  0
    8.0000   -5.2125    0.0000 C   0  0  0  0  0  0  0  0  0  0  0  0
    5.5750   -5.1792    0.0000 N   0  0  0  0  0  0  0  0  0  0  0  0
    4.8917   -4.8375    0.0000 N   0  0  0  0  0  0  0  0  0  0  0  0
    7.4000   -4.1292    0.0000 C   0  0  0  0  0  0  0  0  0  0  0  0
    3.0250   -5.9042    0.0000 C   0  0  0  0  0  0  0  0  0  0  0  0
    6.7792   -5.2125    0.0000 C   0  0  0  0  0  0  0  0  0  0  0  0
    3.6500   -4.8167    0.0000 C   0  0  0  0  0  0  0  0  0  0  0  0
    1.7875   -5.1917    0.0000 O   0  0  0  0  0  0  0  0  0  0  0  0
    8.6042   -4.8542    0.0000 O   0  0  0  0  0  0  0  0  0  0  0  0
    8.0000   -5.9292    0.0000 O   0  0  0  0  0  0  0  0  0  0  0  0
    2.4042   -4.1292    0.0000 O   0  0  0  0  0  0  0  0  0  0  0  0
    4.2667   -5.1792    0.0000 C   0  0  0  0  0  0  0  0  0  0  0  0
    6.1792   -4.8375    0.0000 C   0  0  0  0  0  0  0  0  0  0  0  0
    3.6500   -6.2625    0.0000 C   0  0  0  0  0  0  0  0  0  0  0  0
    6.7792   -3.7917    0.0000 C   0  0  0  0  0  0  0  0  0  0  0  0
    4.2667   -5.8792    0.0000 C   0  0  0  0  0  0  0  0  0  0  0  0
    6.1792   -4.1292    0.0000 C   0  0  0  0  0  0  0  0  0  0  0  0
    2.4042   -6.2375    0.0000 O   0  0  0  0  0  0  0  0  0  0  0  0
    8.0000   -3.7917    0.0000 O   0  0  0  0  0  0  0  0  0  0  0  0
    0.7792   -5.1750    0.0000 Na  0  0  0  0  0 15  0  0  0  0  0  0
  3 10  1  0
  4  2  1  0
  5  3  1  0
  6  7  2  0
  7 16  1  0
  8 19  1  0
  9  2  1  0
 10 17  2  0
 11  2  2  0
 12  4  1  0
 13  5  1  0
 14  5  2  0
 15  4  2  0
 16 11  1  0
 17  6  1  0
 18  9  2  0
 19 21  2  0
 20 16  2  0
 21 17  1  0
 22  9  1  0
 23  8  1  0
 20 18  1  0
  8  3  2  0
M  CHG  4   1   1  12  -1  13  -1  24   1
M  END
> <chembl_id>
CHEMBL1201013

> <chembl_pref_name>
OLSALAZINE SODIUM
