
     RDKit          2D

 20 21  0  0  0  0  0  0  0  0999 V2000
    9.5875   -1.8792    0.0000 C   0  0  0  0  0  0  0  0  0  0  0  0
    9.5792   -1.1792    0.0000 C   0  0  0  0  0  0  0  0  0  0  0  0
    8.9625   -2.2292    0.0000 N   0  0  0  0  0  0  0  0  0  0  0  0
    8.3542   -1.1542    0.0000 N   0  0  0  0  0  0  0  0  0  0  0  0
    8.3542   -1.8667    0.0000 C   0  0  0  0  0  0  0  0  0  0  0  0
    8.9667   -0.8125    0.0000 C   0  0  0  0  0  0  0  0  0  0  0  0
   10.2542   -2.1167    0.0000 N   0  0  0  0  0  0  0  0  0  0  0  0
   10.2625   -0.9625    0.0000 N   0  0  0  0  0  0  0  0  0  0  0  0
   10.6750   -1.5417    0.0000 C   0  0  0  0  0  0  0  0  0  0  0  0
    7.7292   -2.2250    0.0000 O   0  0  0  0  0  0  0  0  0  0  0  0
    8.9792   -0.0958    0.0000 O   0  0  0  0  0  0  0  0  0  0  0  0
    7.7417   -0.7917    0.0000 C   0  0  0  0  0  0  0  0  0  0  0  0
    8.9542   -2.9417    0.0000 C   0  0  0  0  0  0  0  0  0  0  0  0
    5.3042   -0.0417    0.0000 O   0  0  0  0  0  0  0  0  0  0  0  0
    5.2917   -0.7417    0.0000 C   0  0  0  0  0  0  0  0  0  0  0  0
   10.4917   -0.2875    0.0000 C   0  0  0  0  0  0  0  0  0  0  0  0
    5.9000   -1.1125    0.0000 C   0  0  0  0  0  0  0  0  0  0  0  0
    4.6792   -1.0917    0.0000 C   0  0  0  0  0  0  0  0  0  0  0  0
    7.1375   -1.1417    0.0000 C   0  0  0  0  0  0  0  0  0  0  0  0
    6.5292   -0.7792    0.0000 C   0  0  0  0  0  0  0  0  0  0  0  0
  2  1  2  0
  3  1  1  0
  4  5  1  0
  5  3  1  0
  6  2  1  0
  7  1  1  0
  8  2  1  0
  9  7  2  0
 10  5  2  0
 11  6  2  0
 12  4  1  0
 13  3  1  0
 14 15  2  0
 15 17  1  0
 16  8  1  0
 17 20  1  0
 18 15  1  0
 19 12  1  0
 20 19  1  0
  9  8  1  0
  4  6  1  0
M  END
> <chembl_id>
CHEMBL628

> <chembl_pref_name>
PENTOXIFYLLINE
