
     RDKit          2D

 35 39  0  0  0  0  0  0  0  0999 V2000
   -6.1550   -0.4060    0.0000 C   0  0  0  0  0  0  0  0  0  0  0  0
   -6.8695   -0.8185    0.0000 C   0  0  0  0  0  0  0  0  0  0  0  0
   -6.8695   -1.6435    0.0000 C   0  0  0  0  0  0  0  0  0  0  0  0
   -6.1550   -2.0560    0.0000 C   0  0  0  0  0  0  0  0  0  0  0  0
   -5.4405   -1.6435    0.0000 C   0  0  0  0  0  0  0  0  0  0  0  0
   -5.4405   -0.8185    0.0000 C   0  0  0  0  0  0  0  0  0  0  0  0
   -4.7261   -2.0560    0.0000 O   0  0  0  0  0  0  0  0  0  0  0  0
   -4.0116   -1.6435    0.0000 C   0  0  0  0  0  0  0  0  0  0  0  0
   -4.0116   -0.8185    0.0000 C   0  0  0  0  0  0  0  0  0  0  0  0
   -3.2972   -0.4060    0.0000 C   0  0  0  0  0  0  0  0  0  0  0  0
   -3.2972   -2.0560    0.0000 C   0  0  0  0  0  0  0  0  0  0  0  0
   -2.5827   -1.6435    0.0000 C   0  0  0  0  0  0  0  0  0  0  0  0
   -2.5827   -0.8185    0.0000 C   0  0  0  0  0  0  0  0  0  0  0  0
    0.3645    1.1583    0.0000 C   0  0  0  0  0  0  0  0  0  0  0  0
   -0.4593    1.2015    0.0000 N   0  0  0  0  0  0  0  0  0  0  0  0
   -0.9087    0.5095    0.0000 C   0  0  0  0  0  0  0  0  0  0  0  0
   -0.5341   -0.2255    0.0000 N   0  0  0  0  0  0  0  0  0  0  0  0
    0.2897   -0.2687    0.0000 C   0  0  0  0  0  0  0  0  0  0  0  0
    0.7391    0.4232    0.0000 C   0  0  0  0  0  0  0  0  0  0  0  0
    1.4893   -0.9977    0.0000 C   0  0  0  0  0  0  0  0  0  0  0  0
    0.6643   -1.0038    0.0000 C   0  0  0  0  0  0  0  0  0  0  0  0
    0.2570   -1.7213    0.0000 C   0  0  0  0  0  0  0  0  0  0  0  0
    0.6748   -2.4327    0.0000 C   0  0  0  0  0  0  0  0  0  0  0  0
    1.4997   -2.4266    0.0000 N   0  0  0  0  0  0  0  0  0  0  0  0
    1.9070   -1.7092    0.0000 C   0  0  0  0  0  0  0  0  0  0  0  0
   -1.7235    0.3805    0.0000 C   0  0  0  0  0  0  0  0  0  0  0  0
   -1.8526   -0.4344    0.0000 C   0  0  0  0  0  0  0  0  0  0  0  0
   -1.1175   -0.8089    0.0000 N   0  0  0  0  0  0  0  0  0  0  0  0
   -2.3069    0.9639    0.0000 C   0  0  0  0  0  0  0  0  0  0  0  0
   -3.0915    0.7089    0.0000 O   0  0  0  0  0  0  0  0  0  0  0  0
   -2.0933    1.7607    0.0000 N   0  0  0  0  0  0  0  0  0  0  0  0
    1.9541   -3.1152    0.0000 C   0  0  0  0  0  0  0  0  0  0  0  0
    1.5469   -3.8327    0.0000 O   0  0  0  0  0  0  0  0  0  0  0  0
    2.7783   -3.1524    0.0000 C   0  0  0  0  0  0  0  0  0  0  0  0
    3.1582   -3.8847    0.0000 C   0  0  0  0  0  0  0  0  0  0  0  0
  1  2  1  0
  2  3  2  0
  3  4  1  0
  4  5  2  0
  5  6  1  0
  1  6  2  0
  7  8  1  0
  8  9  1  0
  5  7  1  0
 11 12  1  0
 12 13  2  0
 10 13  1  0
  8 11  2  0
 10  9  2  0
 14 15  1  0
 15 16  1  0
 16 17  1  0
 17 18  1  0
 18 19  1  0
 14 19  1  0
 20 21  1  0
 21 22  1  0
 22 23  1  0
 23 24  1  0
 24 25  1  0
 20 25  1  0
 26 27  1  0
 27 28  2  0
 26 16  2  0
 28 17  1  0
 13 27  1  0
 26 29  1  0
 29 30  2  0
 29 31  1  0
 18 21  1  1
 24 32  1  0
 32 33  2  0
 32 34  1  0
 34 35  2  0
M  END
> <chembl_id>
CHEMBL3936761

> <chembl_pref_name>
ZANUBRUTINIB
