
     RDKit          2D

105111  0  0  0  0  0  0  0  0999 V2000
    6.6418   -8.0218    0.0000 C   0  0  0  0  0  0  0  0  0  0  0  0
    5.4029   -7.3076    0.0000 C   0  0  0  0  0  0  0  0  0  0  0  0
    5.8208   -8.0218    0.0000 C   0  0  0  0  0  0  0  0  0  0  0  0
    3.4594   -8.4445    0.0000 C   0  0  0  0  0  0  0  0  0  0  0  0
    3.8676   -7.7303    0.0000 C   0  0  0  0  0  0  0  0  0  0  0  0
    2.6334   -8.4445    0.0000 C   0  0  0  0  0  0  0  0  0  0  0  0
    4.5818   -7.3076    0.0000 O   0  0  0  0  0  0  0  0  0  0  0  0
    7.3561   -8.4299    0.0000 O   0  0  0  0  0  0  0  0  0  0  0  0
    7.7642   -9.1442    0.0000 C   0  0  0  0  0  0  0  0  0  0  0  0
    2.2107   -7.7303    0.0000 C   0  0  0  0  0  0  0  0  0  0  0  0
    7.0598   -7.3076    0.0000 C   0  0  0  0  0  0  0  0  0  0  0  0
    5.8208   -6.5933    0.0000 C   0  0  0  0  0  0  0  0  0  0  0  0
    8.5950   -9.1442    0.0000 O   0  0  0  0  0  0  0  0  0  0  0  0
    3.4594   -7.0160    0.0000 O   0  0  0  0  0  0  0  0  0  0  0  0
    6.6418   -6.5933    0.0000 C   0  0  0  0  0  0  0  0  0  0  0  0
    2.6334   -7.0160    0.0000 C   0  0  0  0  0  0  0  0  0  0  0  0
    7.3561   -9.8584    0.0000 C   0  0  0  0  0  0  0  0  0  0  0  0
    2.2205   -9.1587    0.0000 N   0  0  0  0  0  0  0  0  0  0  0  0
    3.8724   -9.1587    0.0000 O   0  0  0  0  0  0  0  0  0  0  0  0
    5.4029   -8.7360    0.0000 O   0  0  0  0  0  0  0  0  0  0  0  0
    7.7642  -10.5726    0.0000 C   0  0  0  0  0  0  0  0  0  0  0  0
    7.8808   -7.3076    0.0000 N   0  0  0  0  0  0  0  0  0  0  0  0
    5.4029   -5.8791    0.0000 N   0  0  0  0  0  0  0  0  0  0  0  0
    9.0032   -9.8584    0.0000 C   0  0  0  0  0  0  0  0  0  0  0  0
    1.4964   -7.3172    0.0000 O   0  0  0  0  0  0  0  0  0  0  0  0
    6.5252   -9.8584    0.0000 N   0  0  0  0  0  0  0  0  0  0  0  0
    8.5950  -10.5726    0.0000 C   0  0  0  0  0  0  0  0  0  0  0  0
   10.4316   -9.8438    0.0000 N   0  0  0  0  0  0  0  0  0  0  0  0
    1.4964   -8.1384    0.0000 C   0  0  0  0  0  0  0  0  0  0  0  0
    9.7126   -9.4357    0.0000 C   0  0  0  0  0  0  0  0  0  0  0  0
    1.3944   -9.1587    0.0000 C   0  0  0  0  0  0  0  0  0  0  0  0
    4.5818   -8.1384    0.0000 H   0  0  0  0  0  0  0  0  0  0  0  0
    9.7174  -10.2762    0.0000 H   0  0  0  0  0  0  0  0  0  0  0  0
    6.6418   -8.8477    0.0000 H   0  0  0  0  0  0  0  0  0  0  0  0
    0.8697   -2.9056    0.0000 C   0  0  0  0  0  0  0  0  0  0  0  0
   -0.3693   -2.1913    0.0000 C   0  0  0  0  0  0  0  0  0  0  0  0
    0.0388   -2.9056    0.0000 C   0  0  0  0  0  0  0  0  0  0  0  0
   -2.3225   -3.3283    0.0000 C   0  0  0  0  0  0  0  0  0  0  0  0
   -1.9144   -2.6140    0.0000 C   0  0  0  0  0  0  0  0  0  0  0  0
   -3.1436   -3.3283    0.0000 C   0  0  0  0  0  0  0  0  0  0  0  0
    1.9920   -4.0376    0.0000 C   0  0  0  0  0  0  0  0  0  0  0  0
   -1.2001   -2.2010    0.0000 O   0  0  0  0  0  0  0  0  0  0  0  0
    1.5839   -3.3234    0.0000 O   0  0  0  0  0  0  0  0  0  0  0  0
    2.8181   -4.0376    0.0000 O   0  0  0  0  0  0  0  0  0  0  0  0
   -3.5615   -2.6140    0.0000 C   0  0  0  0  0  0  0  0  0  0  0  0
    1.2778   -2.1913    0.0000 C   0  0  0  0  0  0  0  0  0  0  0  0
    0.0388   -1.4771    0.0000 C   0  0  0  0  0  0  0  0  0  0  0  0
   -2.3225   -1.8998    0.0000 O   0  0  0  0  0  0  0  0  0  0  0  0
    0.8697   -1.4771    0.0000 C   0  0  0  0  0  0  0  0  0  0  0  0
    3.2310   -4.7518    0.0000 C   0  0  0  0  0  0  0  0  0  0  0  0
   -3.1436   -1.8998    0.0000 C   0  0  0  0  0  0  0  0  0  0  0  0
    1.5791   -4.7518    0.0000 C   0  0  0  0  0  0  0  0  0  0  0  0
   -3.5615   -4.0425    0.0000 N   0  0  0  0  0  0  0  0  0  0  0  0
    2.8181   -5.4661    0.0000 C   0  0  0  0  0  0  0  0  0  0  0  0
    1.9920   -5.4661    0.0000 C   0  0  0  0  0  0  0  0  0  0  0  0
   -1.9046   -4.0425    0.0000 O   0  0  0  0  0  0  0  0  0  0  0  0
   -0.3693   -3.6198    0.0000 O   0  0  0  0  0  0  0  0  0  0  0  0
   -0.3693   -0.7629    0.0000 N   0  0  0  0  0  0  0  0  0  0  0  0
    2.1086   -2.2010    0.0000 N   0  0  0  0  0  0  0  0  0  0  0  0
    3.9405   -4.3340    0.0000 C   0  0  0  0  0  0  0  0  0  0  0  0
   -4.2903   -2.2059    0.0000 O   0  0  0  0  0  0  0  0  0  0  0  0
    3.9307   -3.5032    0.0000 N   0  0  0  0  0  0  0  0  0  0  0  0
    0.7531   -4.7518    0.0000 N   0  0  0  0  0  0  0  0  0  0  0  0
   -4.2903   -3.0222    0.0000 C   0  0  0  0  0  0  0  0  0  0  0  0
   -4.3825   -4.0425    0.0000 C   0  0  0  0  0  0  0  0  0  0  0  0
    4.6449   -3.0805    0.0000 C   0  0  0  0  0  0  0  0  0  0  0  0
    4.6595   -4.7373    0.0000 C   0  0  0  0  0  0  0  0  0  0  0  0
    0.8649   -3.7364    0.0000 H   0  0  0  0  0  0  0  0  0  0  0  0
   -1.2001   -3.0318    0.0000 H   0  0  0  0  0  0  0  0  0  0  0  0
    3.9405   -5.1649    0.0000 H   0  0  0  0  0  0  0  0  0  0  0  0
   12.4238   -2.9056    0.0000 C   0  0  0  0  0  0  0  0  0  0  0  0
   11.1848   -2.1913    0.0000 C   0  0  0  0  0  0  0  0  0  0  0  0
   11.5977   -2.9056    0.0000 C   0  0  0  0  0  0  0  0  0  0  0  0
    9.2364   -3.3283    0.0000 C   0  0  0  0  0  0  0  0  0  0  0  0
    9.6445   -2.6140    0.0000 C   0  0  0  0  0  0  0  0  0  0  0  0
    8.4055   -3.3283    0.0000 C   0  0  0  0  0  0  0  0  0  0  0  0
   13.5462   -4.0376    0.0000 C   0  0  0  0  0  0  0  0  0  0  0  0
   10.3588   -2.2010    0.0000 O   0  0  0  0  0  0  0  0  0  0  0  0
   13.1380   -3.3234    0.0000 O   0  0  0  0  0  0  0  0  0  0  0  0
   14.3672   -4.0376    0.0000 O   0  0  0  0  0  0  0  0  0  0  0  0
    7.9926   -2.6140    0.0000 C   0  0  0  0  0  0  0  0  0  0  0  0
   12.8367   -2.1913    0.0000 C   0  0  0  0  0  0  0  0  0  0  0  0
   11.5977   -1.4771    0.0000 C   0  0  0  0  0  0  0  0  0  0  0  0
    9.2364   -1.8998    0.0000 O   0  0  0  0  0  0  0  0  0  0  0  0
   12.4238   -1.4771    0.0000 C   0  0  0  0  0  0  0  0  0  0  0  0
   14.7851   -4.7518    0.0000 C   0  0  0  0  0  0  0  0  0  0  0  0
    8.4055   -1.8998    0.0000 C   0  0  0  0  0  0  0  0  0  0  0  0
   13.1282   -4.7518    0.0000 C   0  0  0  0  0  0  0  0  0  0  0  0
    7.9974   -4.0425    0.0000 N   0  0  0  0  0  0  0  0  0  0  0  0
   14.3672   -5.4661    0.0000 C   0  0  0  0  0  0  0  0  0  0  0  0
   13.5462   -5.4661    0.0000 C   0  0  0  0  0  0  0  0  0  0  0  0
    9.6445   -4.0425    0.0000 O   0  0  0  0  0  0  0  0  0  0  0  0
   11.1848   -3.6198    0.0000 O   0  0  0  0  0  0  0  0  0  0  0  0
   11.1848   -0.7629    0.0000 N   0  0  0  0  0  0  0  0  0  0  0  0
   13.6628   -2.2010    0.0000 N   0  0  0  0  0  0  0  0  0  0  0  0
   15.4896   -4.3340    0.0000 C   0  0  0  0  0  0  0  0  0  0  0  0
    7.2686   -2.2059    0.0000 O   0  0  0  0  0  0  0  0  0  0  0  0
   12.3023   -4.7518    0.0000 N   0  0  0  0  0  0  0  0  0  0  0  0
   15.4896   -3.5032    0.0000 N   0  0  0  0  0  0  0  0  0  0  0  0
    7.2686   -3.0222    0.0000 C   0  0  0  0  0  0  0  0  0  0  0  0
    7.1666   -4.0425    0.0000 C   0  0  0  0  0  0  0  0  0  0  0  0
   16.2136   -4.7373    0.0000 C   0  0  0  0  0  0  0  0  0  0  0  0
   10.3588   -3.0318    0.0000 H   0  0  0  0  0  0  0  0  0  0  0  0
   12.4140   -3.7364    0.0000 H   0  0  0  0  0  0  0  0  0  0  0  0
   15.4896   -5.1649    0.0000 H   0  0  0  0  0  0  0  0  0  0  0  0
  2  3  1  0
  3  1  1  0
  4  5  1  0
  5  7  1  0
  6  4  1  0
  2  7  1  1
  8  1  1  0
  9  8  1  1
 10 16  1  0
 11  1  1  0
 12 15  1  0
 13  9  1  0
 14  5  1  0
 15 11  1  0
 16 14  1  0
 17  9  1  0
  6 18  1  1
  4 19  1  6
  3 20  1  6
 21 17  1  0
 11 22  1  6
 12 23  1  6
 24 13  1  0
 10 25  1  1
 17 26  1  1
 27 21  1  0
 28 30  1  0
 29 10  1  0
 30 24  1  0
 31 18  1  0
  5 32  1  1
 24 33  1  1
  1 34  1  6
 12  2  1  0
 27 24  1  0
  6 10  1  0
 45 61  1  1
 52 63  1  1
 64 45  1  0
 65 53  1  0
 66 62  1  0
 67 60  1  0
 35 68  1  6
 39 69  1  1
 50 70  1  1
 36 47  1  0
 55 54  1  0
 40 45  1  0
 36 37  1  0
 37 35  1  0
 38 39  1  0
 39 42  1  0
 40 38  1  0
 41 43  1  1
 36 42  1  1
 43 35  1  0
 44 41  1  0
 45 51  1  0
 46 35  1  0
 47 49  1  0
 48 39  1  0
 49 46  1  0
 50 44  1  0
 51 48  1  0
 52 41  1  0
 40 53  1  1
 54 50  1  0
 55 52  1  0
 38 56  1  6
 37 57  1  6
 47 58  1  6
 46 59  1  6
 60 50  1  0
 60 62  1  0
 72 73  1  0
 73 71  1  0
 74 75  1  0
 75 78  1  0
 76 74  1  0
 77 79  1  1
 72 78  1  1
 79 71  1  0
 80 77  1  0
 81 87  1  0
 82 71  1  0
 83 85  1  0
 84 75  1  0
 85 82  1  0
 86 80  1  0
 87 84  1  0
 88 77  1  0
 76 89  1  1
 90 91  1  0
 91 88  1  0
 74 92  1  6
 73 93  1  6
 83 94  1  6
 82 95  1  6
 96 86  1  0
 81 97  1  1
 88 98  1  1
100 81  1  0
101 89  1  0
102 96  1  0
 75103  1  1
 71104  1  6
 86105  1  1
 83 72  1  0
 90 86  1  0
 76 81  1  0
 96 99  1  0
M  END
> <chembl_id>
CHEMBL3039597

> <chembl_pref_name>
GENTAMICIN
