
     RDKit          2D

 26 28  0  0  1  0  0  0  0  0999 V2000
    3.0667   -2.7500    0.0000 N   0  0  0  0  0  0  0  0  0  0  0  0
    3.0667   -2.0417    0.0000 C   0  0  0  0  0  0  0  0  0  0  0  0
    2.3542   -2.7542    0.0000 C   0  0  0  0  0  0  0  0  0  0  0  0
    2.3542   -2.0417    0.0000 C   0  0  0  0  0  0  0  0  0  0  0  0
    3.7417   -2.9667    0.0000 C   0  0  0  0  0  0  0  0  0  0  0  0
    3.7375   -1.8167    0.0000 S   0  0  0  0  0  0  0  0  0  0  0  0
    4.1542   -2.3917    0.0000 C   0  0  0  0  0  0  0  0  0  0  0  0
    1.7292   -1.6792    0.0000 N   0  0  0  0  0  0  0  0  0  0  0  0
    1.1167   -2.0417    0.0000 C   0  0  0  0  0  0  0  0  0  0  0  0
    3.7292   -3.6667    0.0000 C   0  0  0  0  0  0  0  0  0  0  0  0
    0.5042   -1.6875    0.0000 C   0  0  0  0  0  0  0  0  0  0  0  0
    1.8542   -3.2542    0.0000 O   0  0  0  0  0  0  0  0  0  0  0  0
    1.1167   -2.7500    0.0000 O   0  0  0  0  0  0  0  0  0  0  0  0
   -0.1083   -2.0417    0.0000 C   0  0  0  0  0  0  0  0  0  0  0  0
    3.1167   -4.0167    0.0000 O   0  0  0  0  0  0  0  0  0  0  0  0
   -0.7208   -1.6792    0.0000 C   0  0  0  0  0  0  0  0  0  0  0  0
   -0.1083   -2.7417    0.0000 C   0  0  0  0  0  0  0  0  0  0  0  0
    0.5042   -0.9792    0.0000 N   0  0  0  0  0  0  0  0  0  0  0  0
    4.3417   -4.0292    0.0000 O   0  0  0  0  0  0  0  0  0  0  0  0
    4.7667   -2.7417    0.0000 C   0  0  0  0  0  0  0  0  0  0  0  0
    4.7667   -2.0292    0.0000 C   0  0  0  0  0  0  0  0  0  0  0  0
   -1.3333   -2.7417    0.0000 C   0  0  0  0  0  0  0  0  0  0  0  0
   -1.3333   -2.0375    0.0000 C   0  0  0  0  0  0  0  0  0  0  0  0
   -0.7125   -3.1000    0.0000 C   0  0  0  0  0  0  0  0  0  0  0  0
   -1.9458   -3.1000    0.0000 O   0  0  0  0  0  0  0  0  0  0  0  0
    3.0542   -1.3292    0.0000 H   0  0  0  0  0  0  0  0  0  0  0  0
  2  1  1  0
  3  1  1  0
  4  3  1  0
  5  1  1  0
  6  2  1  0
  7  5  1  0
  4  8  1  1
  9  8  1  0
  5 10  1  6
 11  9  1  0
 12  3  2  0
 13  9  2  0
 14 11  1  0
 15 10  2  0
 16 14  2  0
 17 14  1  0
 11 18  1  1
 19 10  1  0
 20  7  1  0
 21  7  1  0
 22 24  1  0
 23 16  1  0
 24 17  2  0
 25 22  1  0
  2 26  1  6
  7  6  1  0
  2  4  1  0
 23 22  2  0
M  END
> <chembl_id>
CHEMBL1082

> <chembl_pref_name>
AMOXICILLIN
