
     RDKit          2D

 27 28  0  0  0  0  0  0  0  0999 V2000
   -2.4458   -0.2375    0.0000 C   0  0  0  0  0  0  0  0  0  0  0  0
   -2.1500    0.7500    0.0000 C   0  0  0  0  0  0  0  0  0  0  0  0
   -1.1833    1.0958    0.0000 N   0  0  0  0  0  0  0  0  0  0  0  0
   -0.0500    2.4458    0.0000 C   0  0  0  0  0  0  0  0  0  0  0  0
    0.1292   -1.2292    0.0000 C   0  0  0  0  0  0  0  0  0  0  0  0
   -0.7583   -0.7167    0.0000 S   0  0  0  0  0  0  0  0  0  0  0  0
   -3.4458   -0.4792    0.0000 C   0  0  0  0  0  0  0  0  0  0  0  0
   -1.7250   -0.9792    0.0000 C   0  0  0  0  0  0  0  0  0  0  0  0
   -2.8083    1.5958    0.0000 O   0  0  0  0  0  0  0  0  0  0  0  0
   -0.0500    3.4583    0.0000 O   0  0  0  0  0  0  0  0  0  0  0  0
    1.0167   -0.7167    0.0000 O   0  0  0  0  0  0  0  0  0  0  0  0
    0.7917    1.8500    0.0000 O   0  0  0  0  0  0  0  0  0  0  0  0
   -0.9958    2.1083    0.0000 C   0  0  0  0  0  0  0  0  0  0  0  0
    1.7292    2.2833    0.0000 C   0  0  0  0  0  0  0  0  0  0  0  0
   -3.4458   -1.5125    0.0000 C   0  0  0  0  0  0  0  0  0  0  0  0
    2.5667    1.6875    0.0000 C   0  0  0  0  0  0  0  0  0  0  0  0
    0.1292   -2.2542    0.0000 C   0  0  0  0  0  0  0  0  0  0  0  0
   -2.5583   -2.0292    0.0000 C   0  0  0  0  0  0  0  0  0  0  0  0
   -4.3458   -2.0167    0.0000 C   0  0  0  0  0  0  0  0  0  0  0  0
    2.4750    0.6625    0.0000 C   0  0  0  0  0  0  0  0  0  0  0  0
    3.5000    2.1208    0.0000 C   0  0  0  0  0  0  0  0  0  0  0  0
   -2.5708   -3.0542    0.0000 C   0  0  0  0  0  0  0  0  0  0  0  0
   -4.3458   -3.0417    0.0000 C   0  0  0  0  0  0  0  0  0  0  0  0
    3.3042    0.0708    0.0000 C   0  0  0  0  0  0  0  0  0  0  0  0
    4.3417    1.5208    0.0000 C   0  0  0  0  0  0  0  0  0  0  0  0
   -3.4625   -3.5667    0.0000 C   0  0  0  0  0  0  0  0  0  0  0  0
    4.2417    0.4958    0.0000 C   0  0  0  0  0  0  0  0  0  0  0  0
  2  1  1  0
  3  2  1  0
  4 13  1  0
  5  6  1  0
  6  8  1  0
  7  1  1  0
  8  1  1  0
  9  2  2  0
 10  4  2  0
 11  5  2  0
 12  4  1  0
 13  3  1  0
 14 12  1  0
 15  7  1  0
 16 14  1  0
 17  5  1  0
 18 15  1  0
 19 15  2  0
 20 16  2  0
 21 16  1  0
 22 18  2  0
 23 19  1  0
 24 20  1  0
 25 21  2  0
 26 23  2  0
 27 25  1  0
 22 26  1  0
 24 27  2  0
M  END
> <chembl_id>
CHEMBL2103772

> <chembl_pref_name>
RACECADOTRIL
