
     RDKit          2D

 16 18  0  0  0  0  0  0  0  0999 V2000
    1.7642    2.1554    0.0000 C   0  0  0  0  0  0  0  0  0  0  0  0
    1.3015    1.4684    0.0000 C   0  0  0  0  0  0  0  0  0  0  0  0
    1.8127    0.8191    0.0000 O   0  0  0  0  0  0  0  0  0  0  0  0
    2.5579    1.9302    0.0000 C   0  0  0  0  0  0  0  0  0  0  0  0
    2.5882    1.1077    0.0000 C   0  0  0  0  0  0  0  0  0  0  0  0
    3.3145    0.7245    0.0000 C   0  0  0  0  0  0  0  0  0  0  0  0
    3.2498    2.3676    0.0000 C   0  0  0  0  0  0  0  0  0  0  0  0
    3.9764    1.9881    0.0000 C   0  0  0  0  0  0  0  0  0  0  0  0
    4.0083    1.1584    0.0000 C   0  0  0  0  0  0  0  0  0  0  0  0
    4.7388    0.7734    0.0000 O   0  0  0  0  0  0  0  0  0  0  0  0
    5.4420    1.2135    0.0000 C   0  0  0  0  0  0  0  0  0  0  0  0
    5.4100    2.0434    0.0000 C   0  0  0  0  0  0  0  0  0  0  0  0
    4.6750    2.4328    0.0000 C   0  0  0  0  0  0  0  0  0  0  0  0
    6.1691    0.8290    0.0000 O   0  0  0  0  0  0  0  0  0  0  0  0
    3.2158    3.1894    0.0000 O   0  0  0  0  0  0  0  0  0  0  0  0
    3.9105    3.6295    0.0000 C   0  0  0  0  0  0  0  0  0  0  0  0
  7  4  1  0
  8  9  1  0
  4  1  1  0
  2  3  1  0
  4  5  2  0
  1  2  2  0
  5  6  1  0
  8 13  1  0
  9 10  1  0
 10 11  1  0
 11 12  1  0
 12 13  2  0
  6  9  2  0
 11 14  2  0
  3  5  1  0
  7 15  1  0
  8  7  2  0
 15 16  1  0
M  END
> <chembl_id>
CHEMBL24171

> <chembl_pref_name>
BERGAPTEN
