
     RDKit          2D

 30 31  0  0  0  0  0  0  0  0999 V2000
   19.3952   -3.7622    0.0000 S   0  0  0  0  0  0  0  0  0  0  0  0
   20.1096   -3.3497    0.0000 O   0  0  0  0  0  0  0  0  0  0  0  0
   18.9826   -3.0477    0.0000 O   0  0  0  0  0  0  0  0  0  0  0  0
   19.8076   -4.4766    0.0000 O   0  0  0  0  0  0  0  0  0  0  0  0
   18.6806   -4.1747    0.0000 C   0  0  0  0  0  0  0  0  0  0  0  0
   17.9662   -3.7622    0.0000 C   0  0  0  0  0  0  0  0  0  0  0  0
   17.2517   -4.1747    0.0000 C   0  0  0  0  0  0  0  0  0  0  0  0
   17.2517   -4.9997    0.0000 C   0  0  0  0  0  0  0  0  0  0  0  0
   17.9662   -5.4122    0.0000 C   0  0  0  0  0  0  0  0  0  0  0  0
   18.6806   -4.9997    0.0000 C   0  0  0  0  0  0  0  0  0  0  0  0
   13.9878   -4.1198    0.0000 C   0  0  0  0  0  0  0  0  0  0  0  0
   13.9878   -3.2948    0.0000 C   0  0  0  0  0  0  0  0  0  0  0  0
   14.7023   -2.8823    0.0000 N   0  0  0  0  0  0  0  0  0  0  0  0
   15.4168   -3.2948    0.0000 C   0  0  0  0  0  0  0  0  0  0  0  0
   14.7023   -2.0573    0.0000 C   0  0  0  0  0  0  0  0  0  0  0  0
   14.7023   -4.5323    0.0000 C   0  0  0  0  0  0  0  0  0  0  0  0
   14.9845   -3.7570    0.0000 O   0  0  0  0  0  0  0  0  0  0  0  0
   14.1720   -5.1643    0.0000 C   0  0  0  0  0  0  0  0  0  0  0  0
   14.4542   -5.9395    0.0000 C   0  0  0  0  0  0  0  0  0  0  0  0
   15.2666   -6.0827    0.0000 C   0  0  0  0  0  0  0  0  0  0  0  0
   15.7969   -5.4508    0.0000 C   0  0  0  0  0  0  0  0  0  0  0  0
   15.5148   -4.6755    0.0000 C   0  0  0  0  0  0  0  0  0  0  0  0
   13.2733   -4.5323    0.0000 C   0  0  0  0  0  0  0  0  0  0  0  0
   13.2733   -5.3573    0.0000 C   0  0  0  0  0  0  0  0  0  0  0  0
   12.5588   -5.7698    0.0000 C   0  0  0  0  0  0  0  0  0  0  0  0
   11.8444   -5.3573    0.0000 C   0  0  0  0  0  0  0  0  0  0  0  0
   11.8444   -4.5323    0.0000 C   0  0  0  0  0  0  0  0  0  0  0  0
   12.5588   -4.1198    0.0000 C   0  0  0  0  0  0  0  0  0  0  0  0
   11.1299   -5.7698    0.0000 O   0  0  0  0  0  0  0  0  0  0  0  0
   10.4154   -5.3573    0.0000 C   0  0  0  0  0  0  0  0  0  0  0  0
  1  2  2  0
  1  3  2  0
  1  4  1  0
  1  5  1  0
  5  6  2  0
  6  7  1  0
  7  8  2  0
  9  8  1  0
 10  9  2  0
  5 10  1  0
 11 12  1  0
 12 13  1  0
 13 14  1  0
 13 15  1  0
 11 16  1  0
 16 17  1  0
 16 18  1  0
 18 19  1  0
 19 20  1  0
 21 20  1  0
 22 21  1  0
 16 22  1  0
 11 23  1  0
 23 24  2  0
 24 25  1  0
 25 26  2  0
 27 26  1  0
 28 27  2  0
 23 28  1  0
 26 29  1  0
 29 30  1  0
M  END
> <chembl_id>
CHEMBL5095051

> <chembl_pref_name>
VENLAFAXINE BESYLATE
