
     RDKit          2D

 16 17  0  0  0  0  0  0  0  0999 V2000
   -1.1083   -0.3500    0.0000 N   0  0  0  0  0  0  0  0  0  0  0  0
   -1.3208   -1.0250    0.0000 C   0  0  0  0  0  0  0  0  0  0  0  0
   -0.3833   -0.3500    0.0000 C   0  0  0  0  0  0  0  0  0  0  0  0
   -0.7458   -1.4375    0.0000 N   0  0  0  0  0  0  0  0  0  0  0  0
   -0.1625   -1.0125    0.0000 C   0  0  0  0  0  0  0  0  0  0  0  0
   -1.9875   -1.2500    0.0000 O   0  0  0  0  0  0  0  0  0  0  0  0
    0.0417    0.2125    0.0000 O   0  0  0  0  0  0  0  0  0  0  0  0
    0.4375   -1.3625    0.0000 C   0  0  0  0  0  0  0  0  0  0  0  0
   -1.5250    0.2125    0.0000 C   0  0  0  0  0  0  0  0  0  0  0  0
    0.4417   -0.6500    0.0000 C   0  0  0  0  0  0  0  0  0  0  0  0
    0.4375   -2.0750    0.0000 C   0  0  0  0  0  0  0  0  0  0  0  0
    1.0500   -1.0125    0.0000 C   0  0  0  0  0  0  0  0  0  0  0  0
    0.4417    0.0625    0.0000 C   0  0  0  0  0  0  0  0  0  0  0  0
    1.6917   -1.3625    0.0000 C   0  0  0  0  0  0  0  0  0  0  0  0
    1.0500   -2.4250    0.0000 C   0  0  0  0  0  0  0  0  0  0  0  0
    1.6875   -2.0750    0.0000 C   0  0  0  0  0  0  0  0  0  0  0  0
  2  1  1  0
  3  1  1  0
  4  2  1  0
  5  3  1  0
  6  2  2  0
  7  3  2  0
  8  5  1  0
  9  1  1  0
 10  5  1  0
 11  8  1  0
 12  8  2  0
 13 10  1  0
 14 12  1  0
 15 11  2  0
 16 14  2  0
  4  5  1  0
 16 15  1  0
M  END
> <chembl_id>
CHEMBL861

> <chembl_pref_name>
MEPHENYTOIN
