
     RDKit          2D

 35 37  0  0  0  0  0  0  0  0999 V2000
    2.4568    0.4226    0.0000 Cl  0  0  0  0  0  0  0  0  0  0  0  0
   -1.4203   -1.5798    0.0000 C   0  0  0  0  0  0  0  0  0  0  0  0
   -0.5953   -1.5798    0.0000 C   0  0  0  0  0  0  0  0  0  0  0  0
    0.1192    2.1327    0.0000 C   0  0  0  0  0  0  0  0  0  0  0  0
    0.1192    0.4827    0.0000 N   0  0  0  0  0  0  0  0  0  0  0  0
   -0.5953   -0.7548    0.0000 C   0  0  0  0  0  0  0  0  0  0  0  0
   -1.8328   -0.8654    0.0000 N   0  0  0  0  0  0  0  0  0  0  0  0
    0.8337    1.7202    0.0000 C   0  0  0  0  0  0  0  0  0  0  0  0
   -0.5953    1.7202    0.0000 C   0  0  0  0  0  0  0  0  0  0  0  0
    0.5065    2.8611    0.0000 C   0  0  0  0  0  0  0  0  0  0  0  0
   -1.8328   -2.2943    0.0000 O   0  0  0  0  0  0  0  0  0  0  0  0
   -0.5953   -2.4048    0.0000 C   0  0  0  0  0  0  0  0  0  0  0  0
    0.2297   -1.5798    0.0000 C   0  0  0  0  0  0  0  0  0  0  0  0
    0.1192   -0.3423    0.0000 C   0  0  0  0  0  0  0  0  0  0  0  0
    0.8337    0.8952    0.0000 C   0  0  0  0  0  0  0  0  0  0  0  0
   -0.5953    0.8952    0.0000 C   0  0  0  0  0  0  0  0  0  0  0  0
    0.0693    3.5607    0.0000 C   0  0  0  0  0  0  0  0  0  0  0  0
    1.3310    2.8899    0.0000 C   0  0  0  0  0  0  0  0  0  0  0  0
   -0.2681    2.8611    0.0000 O   0  0  0  0  0  0  0  0  0  0  0  0
    1.2811    4.3180    0.0000 C   0  0  0  0  0  0  0  0  0  0  0  0
    0.4566    4.2892    0.0000 C   0  0  0  0  0  0  0  0  0  0  0  0
    1.7183    3.6183    0.0000 C   0  0  0  0  0  0  0  0  0  0  0  0
    1.6685    5.0464    0.0000 Cl  0  0  0  0  0  0  0  0  0  0  0  0
   -1.4203   -0.1509    0.0000 C   0  0  0  0  0  0  0  0  0  0  0  0
   -2.6578   -0.8654    0.0000 C   0  0  0  0  0  0  0  0  0  0  0  0
    0.1192   -2.8173    0.0000 C   0  0  0  0  0  0  0  0  0  0  0  0
    0.6422   -0.8654    0.0000 C   0  0  0  0  0  0  0  0  0  0  0  0
   -1.3097   -2.8173    0.0000 C   0  0  0  0  0  0  0  0  0  0  0  0
    0.6422   -2.2943    0.0000 C   0  0  0  0  0  0  0  0  0  0  0  0
   -1.3097   -3.6423    0.0000 C   0  0  0  0  0  0  0  0  0  0  0  0
    0.1192   -3.6423    0.0000 C   0  0  0  0  0  0  0  0  0  0  0  0
    1.4672   -2.2943    0.0000 C   0  0  0  0  0  0  0  0  0  0  0  0
    1.4672   -0.8654    0.0000 C   0  0  0  0  0  0  0  0  0  0  0  0
    1.8797   -1.5798    0.0000 C   0  0  0  0  0  0  0  0  0  0  0  0
   -0.5953   -4.0548    0.0000 C   0  0  0  0  0  0  0  0  0  0  0  0
  2  3  1  0
  3  6  1  0
  2  7  1  0
  4  8  1  0
  4  9  1  0
  4 10  1  0
  2 11  2  0
  3 12  1  0
  3 13  1  0
  5 14  1  0
  6 14  1  0
  5 15  1  0
  8 15  1  0
  5 16  1  0
  9 16  1  0
 10 17  1  0
 10 18  2  0
  4 19  1  0
 17 21  2  0
 20 21  1  0
 18 22  1  0
 20 22  2  0
 20 23  1  0
  7 24  1  0
  7 25  1  0
 12 26  1  0
 13 27  2  0
 12 28  2  0
 13 29  1  0
 28 30  1  0
 26 31  2  0
 29 32  2  0
 27 33  1  0
 32 34  1  0
 33 34  2  0
 30 35  2  0
 31 35  1  0
M  END
> <chembl_id>
CHEMBL1707

> <chembl_pref_name>
LOPERAMIDE HYDROCHLORIDE
