
     RDKit          2D

 13 13  0  0  0  0  0  0  0  0999 V2000
   19.8052   -4.2758    0.0000 C   0  0  0  0  0  0  0  0  0  0  0  0
   19.8040   -5.0953    0.0000 C   0  0  0  0  0  0  0  0  0  0  0  0
   20.5121   -5.5043    0.0000 C   0  0  0  0  0  0  0  0  0  0  0  0
   21.2217   -5.0948    0.0000 C   0  0  0  0  0  0  0  0  0  0  0  0
   21.2189   -4.2722    0.0000 C   0  0  0  0  0  0  0  0  0  0  0  0
   20.5103   -3.8669    0.0000 C   0  0  0  0  0  0  0  0  0  0  0  0
   20.5078   -3.0497    0.0000 C   0  0  0  0  0  0  0  0  0  0  0  0
   21.2143   -2.6390    0.0000 O   0  0  0  0  0  0  0  0  0  0  0  0
   19.7989   -2.6432    0.0000 O   0  0  0  0  0  0  0  0  0  0  0  0
   21.9250   -3.8609    0.0000 O   0  0  0  0  0  0  0  0  0  0  0  0
   22.6343   -4.2668    0.0000 C   0  0  0  0  0  0  0  0  0  0  0  0
   23.3405   -3.8556    0.0000 C   0  0  0  0  0  0  0  0  0  0  0  0
   22.6374   -5.0840    0.0000 O   0  0  0  0  0  0  0  0  0  0  0  0
  1  2  2  0
  2  3  1  0
  3  4  2  0
  4  5  1  0
  5  6  2  0
  6  1  1  0
  6  7  1  0
  7  8  1  0
  7  9  2  0
  5 10  1  0
 10 11  1  0
 11 12  1  0
 11 13  2  0
M  END
> <chembl_id>
CHEMBL25

> <chembl_pref_name>
ASPIRIN
