
     RDKit          2D

 38 42  0  0  1  0  0  0  0  0999 V2000
    1.8292   -5.7500    0.0000 C   0  0  0  0  0  0  0  0  0  0  0  0
    1.8250   -6.4583    0.0000 C   0  0  0  0  0  0  0  0  0  0  0  0
    1.2125   -6.8167    0.0000 C   0  0  0  0  0  0  0  0  0  0  0  0
    1.2125   -5.3917    0.0000 C   0  0  0  0  0  0  0  0  0  0  0  0
    3.0542   -6.4625    0.0000 C   0  0  0  0  0  0  0  0  0  0  0  0
    3.0542   -5.7500    0.0000 C   0  0  0  0  0  0  0  0  0  0  0  0
    0.6000   -6.4625    0.0000 C   0  0  0  0  0  0  0  0  0  0  0  0
    2.4417   -5.4000    0.0000 C   0  0  0  0  0  0  0  0  0  0  0  0
    2.4375   -6.8167    0.0000 C   0  0  0  0  0  0  0  0  0  0  0  0
    0.6000   -5.7500    0.0000 C   0  0  0  0  0  0  0  0  0  0  0  0
    4.2792   -5.7542    0.0000 C   0  0  0  0  0  0  0  0  0  0  0  0
    3.6625   -6.8125    0.0000 C   0  0  0  0  0  0  0  0  0  0  0  0
    3.6625   -5.3958    0.0000 C   0  0  0  0  0  0  0  0  0  0  0  0
    3.1667   -8.7292    0.0000 C   0  0  0  0  0  0  0  0  0  0  0  0
    2.8167   -8.1167    0.0000 O   0  0  0  0  0  0  0  0  0  0  0  0
    4.2750   -6.4625    0.0000 C   0  0  0  0  0  0  0  0  0  0  0  0
    2.8167   -9.3417    0.0000 C   0  0  0  0  0  0  0  0  0  0  0  0
    1.7500   -8.7292    0.0000 C   0  0  0  0  0  0  0  0  0  0  0  0
    2.1042   -9.3417    0.0000 C   0  0  0  0  0  0  0  0  0  0  0  0
    2.1042   -8.1167    0.0000 C   0  0  0  0  0  0  0  0  0  0  0  0
    3.6542   -7.5167    0.0000 O   0  0  0  0  0  0  0  0  0  0  0  0
    4.8917   -5.3917    0.0000 C   0  0  0  0  0  0  0  0  0  0  0  0
    1.2125   -4.6833    0.0000 O   0  0  0  0  0  0  0  0  0  0  0  0
    1.2125   -7.5250    0.0000 O   0  0  0  0  0  0  0  0  0  0  0  0
   -0.0125   -6.8167    0.0000 C   0  0  0  0  0  0  0  0  0  0  0  0
    4.8833   -4.6875    0.0000 O   0  0  0  0  0  0  0  0  0  0  0  0
    2.4417   -4.6917    0.0000 O   0  0  0  0  0  0  0  0  0  0  0  0
    2.4333   -7.5250    0.0000 O   0  0  0  0  0  0  0  0  0  0  0  0
    4.8917   -6.1042    0.0000 O   0  0  0  0  0  0  0  0  0  0  0  0
    1.7542   -9.9542    0.0000 N   0  0  0  0  0  0  0  0  0  0  0  0
    1.0417   -8.7292    0.0000 O   0  0  0  0  0  0  0  0  0  0  0  0
   -0.0125   -5.3958    0.0000 C   0  0  0  0  0  0  0  0  0  0  0  0
   -0.0083   -7.5250    0.0000 O   0  0  0  0  0  0  0  0  0  0  0  0
    1.7542   -7.5000    0.0000 C   0  0  0  0  0  0  0  0  0  0  0  0
   -0.6250   -5.7500    0.0000 C   0  0  0  0  0  0  0  0  0  0  0  0
   -0.6250   -6.4625    0.0000 C   0  0  0  0  0  0  0  0  0  0  0  0
    5.5042   -5.7417    0.0000 C   0  0  0  0  0  0  0  0  0  0  0  0
   -0.6208   -7.8833    0.0000 C   0  0  0  0  0  0  0  0  0  0  0  0
  2  1  2  0
  3  2  1  0
  4  1  1  0
  5  6  1  0
  6  8  2  0
  7  3  1  0
  8  1  1  0
  9  2  1  0
 10  4  1  0
 11 13  1  0
 12  5  1  0
 13  6  1  0
 14 21  1  1
 15 14  1  0
 16 11  1  0
 17 14  1  0
 18 20  1  0
 19 17  1  0
 20 15  1  0
 12 21  1  6
 22 11  1  0
 23  4  2  0
 24  3  2  0
 25  7  2  0
 26 22  2  0
 27  8  1  0
 28  9  1  0
 11 29  1  6
 19 30  1  6
 18 31  1  6
 32 10  2  0
 33 25  1  0
 20 34  1  6
 35 32  1  0
 36 25  1  0
 37 22  1  0
 38 33  1  0
  5  9  2  0
  7 10  1  0
 16 12  1  0
 36 35  2  0
 18 19  1  0
M  END
> <chembl_id>
CHEMBL178

> <chembl_pref_name>
DAUNORUBICIN
