
     RDKit          2D

 15 13  0  0  0  0  0  0  0  0999 V2000
    3.0542    0.9208    0.0000 C   0  0  0  0  0  0  0  0  0  0  0  0
    2.1125   -0.7167    0.0000 N   0  0  0  0  0  0  0  0  0  0  0  0
    3.8917    0.2958    0.0000 O   0  0  0  0  0  0  0  0  0  0  0  0
    2.1125    0.3708    0.0000 C   0  0  0  0  0  0  0  0  0  0  0  0
    3.0667    2.0500    0.0000 O   0  0  0  0  0  0  0  0  0  0  0  0
    2.1125   -1.7917    0.0000 C   0  0  0  0  0  0  0  0  0  0  0  0
    3.2000   -0.7167    0.0000 C   0  0  0  0  0  0  0  0  0  0  0  0
    1.0167   -0.7167    0.0000 C   0  0  0  0  0  0  0  0  0  0  0  0
   -3.0083   -0.8917    0.0000 C   0  0  0  0  0  0  0  0  0  0  0  0
   -3.0083    0.2083    0.0000 C   0  0  0  0  0  0  0  0  0  0  0  0
   -4.1458   -0.8917    0.0000 Cl  0  0  0  0  0  0  0  0  0  0  0  0
   -3.0083   -1.9500    0.0000 Cl  0  0  0  0  0  0  0  0  0  0  0  0
   -1.9083   -0.8917    0.0000 Cl  0  0  0  0  0  0  0  0  0  0  0  0
   -3.9750    0.7750    0.0000 O   0  0  0  0  0  0  0  0  0  0  0  0
   -2.0625    0.7750    0.0000 O   0  0  0  0  0  0  0  0  0  0  0  0
  2  4  1  0
  3  1  1  0
  4  1  1  0
  5  1  2  0
  6  2  1  0
  7  2  1  0
  8  2  1  0
 10  9  1  0
 11  9  1  0
 12  9  1  0
 13  9  1  0
 14 10  1  0
 15 10  1  0
M  CHG  2   2   1   3  -1
M  END
> <chembl_id>
CHEMBL3833335

> <chembl_pref_name>
CHLORAL BETAINE
