
     RDKit          2D

 17 18  0  0  0  0  0  0  0  0999 V2000
    6.6542   -6.0917    0.0000 N   0  0  0  0  0  0  0  0  0  0  0  0
    6.0500   -5.7417    0.0000 C   0  0  0  0  0  0  0  0  0  0  0  0
    5.4292   -6.0917    0.0000 C   0  0  0  0  0  0  0  0  0  0  0  0
    6.6542   -6.8042    0.0000 C   0  0  0  0  0  0  0  0  0  0  0  0
    5.4292   -6.8042    0.0000 C   0  0  0  0  0  0  0  0  0  0  0  0
    6.0500   -7.1625    0.0000 N   0  0  0  0  0  0  0  0  0  0  0  0
    4.8250   -5.7417    0.0000 C   0  0  0  0  0  0  0  0  0  0  0  0
    6.0500   -5.0375    0.0000 N   0  0  0  0  0  0  0  0  0  0  0  0
    7.2750   -7.1625    0.0000 N   0  0  0  0  0  0  0  0  0  0  0  0
    4.2042   -6.0917    0.0000 C   0  0  0  0  0  0  0  0  0  0  0  0
    4.8250   -5.0250    0.0000 C   0  0  0  0  0  0  0  0  0  0  0  0
    3.5875   -5.0250    0.0000 C   0  0  0  0  0  0  0  0  0  0  0  0
    3.5875   -5.7417    0.0000 C   0  0  0  0  0  0  0  0  0  0  0  0
    4.2042   -4.6667    0.0000 C   0  0  0  0  0  0  0  0  0  0  0  0
    2.9792   -4.6792    0.0000 Cl  0  0  0  0  0  0  0  0  0  0  0  0
    4.8250   -7.1625    0.0000 C   0  0  0  0  0  0  0  0  0  0  0  0
    4.2125   -6.8167    0.0000 C   0  0  0  0  0  0  0  0  0  0  0  0
  2  1  1  0
  3  2  2  0
  4  1  2  0
  5  6  2  0
  6  4  1  0
  7  3  1  0
  8  2  1  0
  9  4  1  0
 10  7  1  0
 11  7  2  0
 12 14  2  0
 13 10  2  0
 14 11  1  0
 15 12  1  0
 16  5  1  0
 17 16  1  0
  5  3  1  0
 12 13  1  0
M  END
> <chembl_id>
CHEMBL36

> <chembl_pref_name>
PYRIMETHAMINE
