
     RDKit          2D

 34 31  0  0  0  0  0  0  0  0999 V2000
   -2.5620    3.5362    0.0000 C   0  0  0  0  0  0  0  0  0  0  0  0
   -1.8475    3.9496    0.0000 C   0  0  0  0  0  0  0  0  0  0  0  0
    1.0106    3.9496    0.0000 N   0  0  0  0  0  0  0  0  0  0  0  0
   -1.1330    3.5362    0.0000 C   0  0  0  0  0  0  0  0  0  0  0  0
    0.2961    3.5362    0.0000 C   0  0  0  0  0  0  0  0  0  0  0  0
   -3.2766    3.9496    0.0000 C   0  0  0  0  0  0  0  0  0  0  0  0
   -2.5620    2.7138    0.0000 C   0  0  0  0  0  0  0  0  0  0  0  0
    1.7206    3.5316    0.0000 C   0  0  0  0  0  0  0  0  0  0  0  0
   -0.4184    3.9496    0.0000 C   0  0  0  0  0  0  0  0  0  0  0  0
    0.2961    2.7138    0.0000 C   0  0  0  0  0  0  0  0  0  0  0  0
    0.1259    0.0224    0.0000 C   0  0  0  0  0  0  0  0  0  0  0  0
   -0.5752    0.4269    0.0000 C   0  0  0  0  0  0  0  0  0  0  0  0
    0.8493    0.4269    0.0000 C   0  0  0  0  0  0  0  0  0  0  0  0
   -1.2897    0.0270    0.0000 C   0  0  0  0  0  0  0  0  0  0  0  0
    1.5684    0.0224    0.0000 C   0  0  0  0  0  0  0  0  0  0  0  0
   -2.0088    0.4314    0.0000 C   0  0  0  0  0  0  0  0  0  0  0  0
    2.2829    0.4269    0.0000 O   0  0  0  0  0  0  0  0  0  0  0  0
   -2.0088    1.2538    0.0000 O   0  0  0  0  0  0  0  0  0  0  0  0
    0.8539    1.2538    0.0000 O   0  0  0  0  0  0  0  0  0  0  0  0
   -1.2942   -0.7999    0.0000 O   0  0  0  0  0  0  0  0  0  0  0  0
    0.1259   -0.7999    0.0000 O   0  0  0  0  0  0  0  0  0  0  0  0
   -0.5662    1.2538    0.0000 O   0  0  0  0  0  0  0  0  0  0  0  0
   -2.7233    0.0224    0.0000 O   0  0  0  0  0  0  0  0  0  0  0  0
    1.5684   -0.7999    0.0000 O   0  0  0  0  0  0  0  0  0  0  0  0
   -1.6807   -2.7772    0.0000 C   0  0  0  0  0  0  0  0  0  0  0  0
   -0.9662   -2.3638    0.0000 C   0  0  0  0  0  0  0  0  0  0  0  0
    1.8920   -2.3638    0.0000 N   0  0  0  0  0  0  0  0  0  0  0  0
   -0.2516   -2.7772    0.0000 C   0  0  0  0  0  0  0  0  0  0  0  0
    1.1774   -2.7772    0.0000 C   0  0  0  0  0  0  0  0  0  0  0  0
   -2.3952   -2.3638    0.0000 C   0  0  0  0  0  0  0  0  0  0  0  0
   -1.6807   -3.5996    0.0000 C   0  0  0  0  0  0  0  0  0  0  0  0
    2.6020   -2.7818    0.0000 C   0  0  0  0  0  0  0  0  0  0  0  0
    0.4629   -2.3638    0.0000 C   0  0  0  0  0  0  0  0  0  0  0  0
    1.1774   -3.5996    0.0000 C   0  0  0  0  0  0  0  0  0  0  0  0
  2  1  2  0
  3  5  1  0
  4  2  1  0
  5  9  1  0
  6  1  1  0
  7  1  1  0
  8  3  1  0
  9  4  1  0
 10  5  1  0
 12 11  1  0
 13 11  1  0
 14 12  1  0
 15 13  1  0
 16 14  1  0
 17 15  2  0
 18 16  2  0
 13 19  1  1
 14 20  1  6
 11 21  1  1
 12 22  1  6
 23 16  1  0
 24 15  1  0
 26 25  2  0
 27 29  1  0
 28 26  1  0
 29 33  1  0
 30 25  1  0
 31 25  1  0
 32 27  1  0
 33 28  1  0
 34 29  1  0
M  END
> <chembl_id>
CHEMBL2355839

> <chembl_pref_name>
ISOMETHEPTENE MUCATE
