
     RDKit          2D

 19 20  0  0  0  0  0  0  0  0999 V2000
   -8.5788    2.5486    0.0000 C   0  0  0  0  0  0  0  0  0  0  0  0
   -9.2933    2.1360    0.0000 C   0  0  0  0  0  0  0  0  0  0  0  0
   -9.2933    1.3110    0.0000 C   0  0  0  0  0  0  0  0  0  0  0  0
   -8.5788    0.8985    0.0000 C   0  0  0  0  0  0  0  0  0  0  0  0
   -7.8644    1.3110    0.0000 C   0  0  0  0  0  0  0  0  0  0  0  0
   -7.8644    2.1360    0.0000 C   0  0  0  0  0  0  0  0  0  0  0  0
   -5.0065    3.7861    0.0000 C   0  0  0  0  0  0  0  0  0  0  0  0
   -5.7210    3.3735    0.0000 C   0  0  0  0  0  0  0  0  0  0  0  0
   -5.7210    2.5485    0.0000 C   0  0  0  0  0  0  0  0  0  0  0  0
   -5.0065    2.1360    0.0000 C   0  0  0  0  0  0  0  0  0  0  0  0
   -4.2920    2.5485    0.0000 C   0  0  0  0  0  0  0  0  0  0  0  0
   -4.2920    3.3735    0.0000 C   0  0  0  0  0  0  0  0  0  0  0  0
   -7.1498    2.5485    0.0000 C   0  0  0  0  0  0  0  0  0  0  0  0
   -6.4353    2.1360    0.0000 C   0  0  0  0  0  0  0  0  0  0  0  0
   -4.9953    4.6064    0.0000 O   0  0  0  0  0  0  0  0  0  0  0  0
   -3.4451    1.9953    0.0000 O   0  0  0  0  0  0  0  0  0  0  0  0
   -3.6246    3.8585    0.0000 C   0  0  0  0  0  0  0  0  0  0  0  0
   -3.6134    4.6984    0.0000 C   0  0  0  0  0  0  0  0  0  0  0  0
   -2.8709    3.5229    0.0000 C   0  0  0  0  0  0  0  0  0  0  0  0
  1  2  1  0
  2  3  2  0
  3  4  1  0
  4  5  2  0
  5  6  1  0
  1  6  2  0
  7  8  1  0
  8  9  2  0
  9 10  1  0
 10 11  2  0
 11 12  1  0
  7 12  2  0
  6 13  1  0
 13 14  2  0
 14  9  1  0
  7 15  1  0
 11 16  1  0
 12 17  1  0
 17 18  1  0
 17 19  1  0
M  END
> <chembl_id>
CHEMBL259571

> <chembl_pref_name>
TAPINAROF
