
     RDKit          2D

  7  6  0  0  0  0  0  0  0  0999 V2000
    0.2875   -0.3792    0.0000 C   0  0  0  0  0  0  0  0  0  0  0  0
   -0.9208   -1.0792    0.0000 N   0  0  0  0  0  0  0  0  0  0  0  0
    0.2875    0.9833    0.0000 S   0  0  0  0  0  0  0  0  0  0  0  0
    1.4750   -1.0375    0.0000 N   0  0  0  0  0  0  0  0  0  0  0  0
   -2.3625   -0.1667    0.0000 C   0  0  0  0  0  0  0  0  0  0  0  0
   -2.3958    1.2125    0.0000 O   0  0  0  0  0  0  0  0  0  0  0  0
    2.6625   -0.3542    0.0000 C   0  0  0  0  0  0  0  0  0  0  0  0
  2  1  1  0
  3  1  2  0
  4  1  1  0
  5  2  1  0
  6  5  1  0
  7  4  1  0
M  END
> <chembl_id>
CHEMBL2106441

> <chembl_pref_name>
NOXYTIOLIN
