
     RDKit          2D

 15 15  0  0  0  0  0  0  0  0999 V2000
    3.5250   -5.3542    0.0000 N   0  0  0  0  0  0  0  0  0  0  0  0
    4.1375   -5.0042    0.0000 C   0  0  0  0  0  0  0  0  0  0  0  0
    4.7500   -5.3542    0.0000 C   0  0  0  0  0  0  0  0  0  0  0  0
    3.5250   -6.0625    0.0000 C   0  0  0  0  0  0  0  0  0  0  0  0
    4.1375   -6.4167    0.0000 N   0  0  0  0  0  0  0  0  0  0  0  0
    4.7500   -6.0625    0.0000 C   0  0  0  0  0  0  0  0  0  0  0  0
    5.3625   -5.0042    0.0000 N   0  0  0  0  0  0  0  0  0  0  0  0
    4.1375   -4.2917    0.0000 O   0  0  0  0  0  0  0  0  0  0  0  0
    2.9042   -6.4167    0.0000 O   0  0  0  0  0  0  0  0  0  0  0  0
    6.5917   -4.2792    0.0000 Cl  0  0  0  0  0  0  0  0  0  0  0  0
    7.2125   -5.3542    0.0000 Cl  0  0  0  0  0  0  0  0  0  0  0  0
    5.3625   -4.2917    0.0000 C   0  0  0  0  0  0  0  0  0  0  0  0
    5.9750   -5.3542    0.0000 C   0  0  0  0  0  0  0  0  0  0  0  0
    6.5917   -5.0042    0.0000 C   0  0  0  0  0  0  0  0  0  0  0  0
    5.9750   -3.9375    0.0000 C   0  0  0  0  0  0  0  0  0  0  0  0
  2  1  2  0
  3  2  1  0
  4  1  1  0
  5  4  2  0
  6  5  1  0
  7  3  1  0
  8  2  1  0
  9  4  1  0
 10 15  1  0
 11 14  1  0
 12  7  1  0
 13  7  1  0
 14 13  1  0
 15 12  1  0
  6  3  2  0
M  END
> <chembl_id>
CHEMBL1488

> <chembl_pref_name>
URACIL MUSTARD
