
     RDKit          2D

 15 16  0  0  0  0  0  0  0  0999 V2000
    5.0917   -5.1292    0.0000 O   0  0  0  0  0  0  0  0  0  0  0  0
    4.4875   -4.7792    0.0000 C   0  0  0  0  0  0  0  0  0  0  0  0
    3.2500   -4.0667    0.0000 C   0  0  0  0  0  0  0  0  0  0  0  0
    5.7042   -4.7917    0.0000 C   0  0  0  0  0  0  0  0  0  0  0  0
    3.8542   -5.1292    0.0000 C   0  0  0  0  0  0  0  0  0  0  0  0
    4.4792   -4.0708    0.0000 C   0  0  0  0  0  0  0  0  0  0  0  0
    3.8667   -3.7167    0.0000 C   0  0  0  0  0  0  0  0  0  0  0  0
    3.2500   -4.7750    0.0000 C   0  0  0  0  0  0  0  0  0  0  0  0
    6.3292   -5.1500    0.0000 C   0  0  0  0  0  0  0  0  0  0  0  0
    2.6250   -3.7042    0.0000 O   0  0  0  0  0  0  0  0  0  0  0  0
    6.3250   -5.8542    0.0000 C   0  0  0  0  0  0  0  0  0  0  0  0
    6.9417   -4.7917    0.0000 C   0  0  0  0  0  0  0  0  0  0  0  0
    7.5667   -5.1542    0.0000 C   0  0  0  0  0  0  0  0  0  0  0  0
    6.9375   -6.2125    0.0000 C   0  0  0  0  0  0  0  0  0  0  0  0
    7.5667   -5.8625    0.0000 C   0  0  0  0  0  0  0  0  0  0  0  0
  2  1  1  0
  3  7  1  0
  4  1  1  0
  5  2  2  0
  6  2  1  0
  7  6  2  0
  8  5  1  0
  9  4  1  0
 10  3  1  0
 11  9  2  0
 12  9  1  0
 13 12  2  0
 14 11  1  0
 15 13  1  0
  3  8  2  0
 15 14  2  0
M  END
> <chembl_id>
CHEMBL1388

> <chembl_pref_name>
MONOBENZONE
