
     RDKit          2D

 21 22  0  0  0  0  0  0  0  0999 V2000
    5.6792   -4.9875    0.0000 C   0  0  0  0  0  0  0  0  0  0  0  0
    4.9542   -4.9875    0.0000 C   0  0  0  0  0  0  0  0  0  0  0  0
    5.6792   -4.2542    0.0000 C   0  0  0  0  0  0  0  0  0  0  0  0
    4.6125   -4.3542    0.0000 C   0  0  0  0  0  0  0  0  0  0  0  0
    4.6125   -5.5917    0.0000 C   0  0  0  0  0  0  0  0  0  0  0  0
    5.6792   -5.6875    0.0000 O   0  0  0  0  0  0  0  0  0  0  0  0
    3.5250   -4.9875    0.0000 C   0  0  0  0  0  0  0  0  0  0  0  0
    6.8917   -7.1167    0.0000 N   0  0  0  0  0  0  0  0  0  0  0  0
    3.8875   -4.3542    0.0000 C   0  0  0  0  0  0  0  0  0  0  0  0
    3.8875   -5.5917    0.0000 C   0  0  0  0  0  0  0  0  0  0  0  0
    2.8250   -4.9875    0.0000 Cl  0  0  0  0  0  0  0  0  0  0  0  0
    6.2792   -6.0500    0.0000 C   0  0  0  0  0  0  0  0  0  0  0  0
    6.3792   -4.9875    0.0000 C   0  0  0  0  0  0  0  0  0  0  0  0
    6.2792   -6.7542    0.0000 C   0  0  0  0  0  0  0  0  0  0  0  0
    5.0667   -3.9042    0.0000 C   0  0  0  0  0  0  0  0  0  0  0  0
    6.2792   -3.9042    0.0000 C   0  0  0  0  0  0  0  0  0  0  0  0
    7.5000   -6.7542    0.0000 C   0  0  0  0  0  0  0  0  0  0  0  0
    6.8917   -7.8167    0.0000 C   0  0  0  0  0  0  0  0  0  0  0  0
    6.2792   -3.2000    0.0000 C   0  0  0  0  0  0  0  0  0  0  0  0
    5.0667   -3.2000    0.0000 C   0  0  0  0  0  0  0  0  0  0  0  0
    5.6792   -2.8375    0.0000 C   0  0  0  0  0  0  0  0  0  0  0  0
  2  1  1  0
  3  1  1  0
  4  2  2  0
  5  2  1  0
  6  1  1  0
  7 10  1  0
  8 14  1  0
  9  4  1  0
 10  5  2  0
 11  7  1  0
 12  6  1  0
 13  1  1  0
 14 12  1  0
 15  3  1  0
 16  3  2  0
 17  8  1  0
 18  8  1  0
 19 16  1  0
 20 15  2  0
 21 20  1  0
  9  7  2  0
 19 21  2  0
M  END
> <chembl_id>
CHEMBL2110774

> <chembl_pref_name>
CHLORPHENOXAMINE
