
     RDKit          2D

 58 61  0  0  1  0  0  0  0  0999 V2000
    5.5167  -23.4875    0.0000 N   0  0  0  0  0  0  0  0  0  0  0  0
    6.1292  -23.1375    0.0000 C   0  0  0  0  0  0  0  0  0  0  0  0
    4.1875  -23.1625    0.0000 C   0  0  0  0  0  0  0  0  0  0  0  0
    3.5708  -23.5167    0.0000 N   0  0  0  0  0  0  0  0  0  0  0  0
    5.5208  -22.0708    0.0000 N   0  0  0  0  0  0  0  0  0  0  0  0
    6.1333  -22.4292    0.0000 C   0  0  0  0  0  0  0  0  0  0  0  0
    5.5250  -21.3625    0.0000 C   0  0  0  0  0  0  0  0  0  0  0  0
    7.3625  -22.4375    0.0000 C   0  0  0  0  0  0  0  0  0  0  0  0
    3.5708  -24.2250    0.0000 C   0  0  0  0  0  0  0  0  0  0  0  0
    4.8042  -23.5167    0.0000 C   0  0  0  0  0  0  0  0  0  0  0  0
    4.9167  -21.0083    0.0000 C   0  0  0  0  0  0  0  0  0  0  0  0
    4.3000  -21.3583    0.0000 N   0  0  0  0  0  0  0  0  0  0  0  0
    0.6167  -21.3375    0.0000 N   0  0  0  0  0  0  0  0  0  0  0  0
    1.8458  -21.3417    0.0000 C   0  0  0  0  0  0  0  0  0  0  0  0
    8.3583  -23.0000    0.0000 N   0  0  0  0  0  0  0  0  0  0  0  0
    2.4625  -20.9917    0.0000 N   0  0  0  0  0  0  0  0  0  0  0  0
    7.6542  -23.0792    0.0000 C   0  0  0  0  0  0  0  0  0  0  0  0
    4.9208  -20.3000    0.0000 C   0  0  0  0  0  0  0  0  0  0  0  0
    3.9167  -24.8375    0.0000 C   0  0  0  0  0  0  0  0  0  0  0  0
    6.7500  -22.0792    0.0000 C   0  0  0  0  0  0  0  0  0  0  0  0
    0.6167  -22.0417    0.0000 C   0  0  0  0  0  0  0  0  0  0  0  0
    3.7000  -18.8750    0.0000 C   0  0  0  0  0  0  0  0  0  0  0  0
    3.6875  -21.0000    0.0000 C   0  0  0  0  0  0  0  0  0  0  0  0
    7.8833  -21.9542    0.0000 C   0  0  0  0  0  0  0  0  0  0  0  0
    1.2333  -20.9833    0.0000 C   0  0  0  0  0  0  0  0  0  0  0  0
    5.5333  -19.9458    0.0000 C   0  0  0  0  0  0  0  0  0  0  0  0
    2.3458  -24.2250    0.0000 S   0  0  0  0  0  0  0  0  0  0  0  0
    8.4958  -22.3125    0.0000 C   0  0  0  0  0  0  0  0  0  0  0  0
    1.8333  -23.4667    0.0000 S   0  0  0  0  0  0  0  0  0  0  0  0
    3.7042  -18.1667    0.0000 N   0  0  0  0  0  0  0  0  0  0  0  0
    6.7417  -23.4958    0.0000 O   0  0  0  0  0  0  0  0  0  0  0  0
    4.1833  -22.4542    0.0000 O   0  0  0  0  0  0  0  0  0  0  0  0
    6.1417  -21.0125    0.0000 O   0  0  0  0  0  0  0  0  0  0  0  0
    1.8417  -22.0500    0.0000 O   0  0  0  0  0  0  0  0  0  0  0  0
    2.9583  -24.5792    0.0000 C   0  0  0  0  0  0  0  0  0  0  0  0
    1.2250  -22.4000    0.0000 C   0  0  0  0  0  0  0  0  0  0  0  0
    4.6250  -24.8417    0.0000 O   0  0  0  0  0  0  0  0  0  0  0  0
    3.0708  -21.3500    0.0000 C   0  0  0  0  0  0  0  0  0  0  0  0
    0.0000  -22.3958    0.0000 O   0  0  0  0  0  0  0  0  0  0  0  0
    3.6917  -20.2917    0.0000 O   0  0  0  0  0  0  0  0  0  0  0  0
    5.5375  -19.2375    0.0000 O   0  0  0  0  0  0  0  0  0  0  0  0
    3.0833  -19.2250    0.0000 N   0  0  0  0  0  0  0  0  0  0  0  0
    4.3125  -19.2333    0.0000 N   0  0  0  0  0  0  0  0  0  0  0  0
    3.5583  -25.4458    0.0000 N   0  0  0  0  0  0  0  0  0  0  0  0
    5.7667  -24.1458    0.0000 C   0  0  0  0  0  0  0  0  0  0  0  0
    6.1458  -20.3042    0.0000 O   0  0  0  0  0  0  0  0  0  0  0  0
    1.2208  -23.1083    0.0000 C   0  0  0  0  0  0  0  0  0  0  0  0
    4.6208  -24.2042    0.0000 C   0  0  0  0  0  0  0  0  0  0  0  0
    5.2125  -24.5917    0.0000 C   0  0  0  0  0  0  0  0  0  0  0  0
    7.8833  -21.2542    0.0000 C   0  0  0  0  0  0  0  0  0  0  0  0
    1.2375  -20.2750    0.0000 C   0  0  0  0  0  0  0  0  0  0  0  0
    9.1083  -21.9583    0.0000 C   0  0  0  0  0  0  0  0  0  0  0  0
    2.4750  -18.8667    0.0000 C   0  0  0  0  0  0  0  0  0  0  0  0
    1.8542  -19.9250    0.0000 C   0  0  0  0  0  0  0  0  0  0  0  0
    1.8583  -19.2167    0.0000 C   0  0  0  0  0  0  0  0  0  0  0  0
    8.4917  -20.8958    0.0000 C   0  0  0  0  0  0  0  0  0  0  0  0
    9.1083  -21.2500    0.0000 C   0  0  0  0  0  0  0  0  0  0  0  0
    3.8810  -23.9009    0.0000 H   0  0  0  0  0  0  0  0  0  0  0  0
  2  1  1  0
  3 10  1  0
  4  3  1  0
  5  6  1  0
  6  2  1  0
  7  5  1  0
  8 20  1  0
  9  4  1  0
 10  1  1  0
 11  7  1  0
 12 11  1  0
 13 21  1  0
 14 16  1  0
 15 17  1  0
 16 38  1  0
 17  8  2  0
 11 18  1  1
  9 19  1  6
  6 20  1  1
 21 36  1  0
 22 42  1  0
 23 12  1  0
 24  8  1  0
 25 14  1  0
 26 18  1  0
 27 35  1  0
 28 24  2  0
 29 27  1  0
 30 22  2  0
 31  2  2  0
 32  3  2  0
 33  7  2  0
 34 14  2  0
 35  9  1  0
 36 47  1  0
 37 19  2  0
 38 23  1  0
 39 21  2  0
 40 23  2  0
 41 26  2  0
 42 53  1  0
 43 22  1  0
 44 19  1  0
 45  1  1  0
 46 26  1  0
 47 29  1  0
 48 10  1  0
 49 45  1  0
 50 24  1  0
 25 51  1  1
 52 28  1  0
 53 55  1  0
 54 51  1  0
 55 54  1  0
 56 50  2  0
 57 56  1  0
 49 48  1  0
 28 15  1  0
 57 52  2  0
 25 13  1  0
 10 58  1  6
M  END
> <chembl_id>
CHEMBL1174

> <chembl_pref_name>
EPTIFIBATIDE
