
     RDKit          2D

 16 15  0  0  0  0  0  0  0  0999 V2000
    4.8611   -3.1474    0.0000 Na  0  0  0  0  0 15  0  0  0  0  0  0
    7.0865   -3.0183    0.0000 N   0  0  0  0  0  0  0  0  0  0  0  0
    7.7832   -2.5895    0.0000 C   0  0  0  0  0  0  0  0  0  0  0  0
    7.0592   -1.3639    0.0000 C   0  0  0  0  0  0  0  0  0  0  0  0
    7.7697   -1.7695    0.0000 C   0  0  0  0  0  0  0  0  0  0  0  0
    6.3529   -1.7929    0.0000 N   0  0  0  0  0  0  0  0  0  0  0  0
    6.3665   -2.6128    0.0000 C   0  0  0  0  0  0  0  0  0  0  0  0
    8.5129   -2.9851    0.0000 O   0  0  0  0  0  0  0  0  0  0  0  0
    7.0457   -0.5439    0.0000 O   0  0  0  0  0  0  0  0  0  0  0  0
    5.6503   -3.0323    0.0000 O   0  0  0  0  0  0  0  0  0  0  0  0
    8.1750   -1.0397    0.0000 C   0  0  0  0  0  0  0  0  0  0  0  0
    8.5944   -1.7462    0.0000 C   0  0  0  0  0  0  0  0  0  0  0  0
    9.0046   -1.0260    0.0000 C   0  0  0  0  0  0  0  0  0  0  0  0
    7.7557   -0.3332    0.0000 C   0  0  0  0  0  0  0  0  0  0  0  0
    9.0282   -2.4524    0.0000 C   0  0  0  0  0  0  0  0  0  0  0  0
    9.4053   -0.3060    0.0000 C   0  0  0  0  0  0  0  0  0  0  0  0
  3  2  1  0
  4  6  1  0
  5  3  1  0
  6  7  1  0
  7  2  1  0
  8  3  2  0
  9  4  2  0
 10  7  2  0
 11  5  1  0
 12  5  1  0
 13 11  1  0
 14 11  1  0
 15 12  1  0
 16 13  1  0
  4  5  1  0
M  CHG  2   1   1   6  -1
M  END
> <chembl_id>
CHEMBL1200982

> <chembl_pref_name>
BUTABARBITAL SODIUM
