
     RDKit          2D

 13 13  0  0  0  0  0  0  0  0999 V2000
    2.6667   -3.2917    0.0000 N   0  0  0  0  0  0  0  0  0  0  0  0
    3.2917   -2.9375    0.0000 C   0  0  0  0  0  0  0  0  0  0  0  0
    2.0542   -2.9250    0.0000 C   0  0  0  0  0  0  0  0  0  0  0  0
    3.2917   -2.2167    0.0000 O   0  0  0  0  0  0  0  0  0  0  0  0
    2.0542   -2.2250    0.0000 O   0  0  0  0  0  0  0  0  0  0  0  0
    1.4375   -3.2792    0.0000 C   0  0  0  0  0  0  0  0  0  0  0  0
    3.8917   -3.2917    0.0000 N   0  0  0  0  0  0  0  0  0  0  0  0
    0.8250   -2.9167    0.0000 C   0  0  0  0  0  0  0  0  0  0  0  0
    0.2000   -3.2667    0.0000 C   0  0  0  0  0  0  0  0  0  0  0  0
    0.8292   -2.2125    0.0000 C   0  0  0  0  0  0  0  0  0  0  0  0
    0.2125   -1.8542    0.0000 C   0  0  0  0  0  0  0  0  0  0  0  0
   -0.4208   -2.9125    0.0000 C   0  0  0  0  0  0  0  0  0  0  0  0
   -0.4083   -2.2000    0.0000 C   0  0  0  0  0  0  0  0  0  0  0  0
  2  1  1  0
  3  1  1  0
  4  2  2  0
  5  3  2  0
  6  3  1  0
  7  2  1  0
  8  6  1  0
  9  8  2  0
 10  8  1  0
 11 10  2  0
 12  9  1  0
 13 11  1  0
 13 12  2  0
M  END
> <chembl_id>
CHEMBL918

> <chembl_pref_name>
PHENACEMIDE
