
     RDKit          2D

 33 32  0  0  0  0  0  0  0  0999 V2000
    6.1542   -6.6042    0.0000 C   0  0  0  0  0  0  0  0  0  0  0  0
    6.5042   -7.2250    0.0000 N   0  0  0  0  0  0  0  0  0  0  0  0
    5.5375   -6.2500    0.0000 C   0  0  0  0  0  0  0  0  0  0  0  0
    5.7917   -7.2250    0.0000 C   0  0  0  0  0  0  0  0  0  0  0  0
    6.7750   -6.2500    0.0000 C   0  0  0  0  0  0  0  0  0  0  0  0
    4.9167   -6.6042    0.0000 O   0  0  0  0  0  0  0  0  0  0  0  0
    7.3917   -6.6042    0.0000 O   0  0  0  0  0  0  0  0  0  0  0  0
    5.0792   -7.2167    0.0000 O   0  0  0  0  0  0  0  0  0  0  0  0
   -0.8500   -6.4708    0.0000 C   0  0  0  0  0  0  0  0  0  0  0  0
   -0.2333   -6.8292    0.0000 C   0  0  0  0  0  0  0  0  0  0  0  0
   -1.9417   -6.1167    0.0000 C   0  0  0  0  0  0  0  0  0  0  0  0
   -0.8458   -5.7625    0.0000 C   0  0  0  0  0  0  0  0  0  0  0  0
   -1.5250   -6.6875    0.0000 C   0  0  0  0  0  0  0  0  0  0  0  0
   -1.5250   -5.5375    0.0000 C   0  0  0  0  0  0  0  0  0  0  0  0
    0.3833   -6.4667    0.0000 C   0  0  0  0  0  0  0  0  0  0  0  0
    3.5667   -5.7333    0.0000 C   0  0  0  0  0  0  0  0  0  0  0  0
    3.5708   -6.4458    0.0000 O   0  0  0  0  0  0  0  0  0  0  0  0
    0.3917   -5.7500    0.0000 C   0  0  0  0  0  0  0  0  0  0  0  0
    1.1000   -5.7500    0.0000 C   0  0  0  0  0  0  0  0  0  0  0  0
   -1.7417   -4.8583    0.0000 O   0  0  0  0  0  0  0  0  0  0  0  0
   -1.7458   -7.3667    0.0000 O   0  0  0  0  0  0  0  0  0  0  0  0
    4.1792   -5.3750    0.0000 O   0  0  0  0  0  0  0  0  0  0  0  0
   -0.2333   -5.4042    0.0000 C   0  0  0  0  0  0  0  0  0  0  0  0
    1.0000   -6.8250    0.0000 C   0  0  0  0  0  0  0  0  0  0  0  0
    1.0000   -7.5375    0.0000 O   0  0  0  0  0  0  0  0  0  0  0  0
    2.9500   -5.3833    0.0000 C   0  0  0  0  0  0  0  0  0  0  0  0
    1.7167   -5.3917    0.0000 C   0  0  0  0  0  0  0  0  0  0  0  0
    1.6167   -6.4667    0.0000 C   0  0  0  0  0  0  0  0  0  0  0  0
    2.3333   -5.7417    0.0000 C   0  0  0  0  0  0  0  0  0  0  0  0
    2.8208   -7.8958    0.0000 C   0  0  0  0  0  0  0  0  0  0  0  0
    2.2208   -7.5333    0.0000 C   0  0  0  0  0  0  0  0  0  0  0  0
    2.2292   -6.8208    0.0000 C   0  0  0  0  0  0  0  0  0  0  0  0
    3.4417   -7.5583    0.0000 C   0  0  0  0  0  0  0  0  0  0  0  0
  2  1  1  0
  3  1  1  0
  4  1  1  0
  5  1  1  0
  6  3  1  0
  7  5  1  0
  8  4  1  0
  9 10  1  1
 11 13  1  0
 12  9  1  0
 13  9  1  0
 14 12  1  0
 15 10  2  0
 16 26  1  0
 17 16  2  0
 18 23  1  0
 19 18  2  0
 14 20  1  6
 13 21  1  6
 22 16  1  0
 12 23  1  6
 24 15  1  0
 24 25  1  6
 26 29  1  0
 27 19  1  0
 28 24  1  0
 29 27  1  0
 30 31  1  0
 31 32  1  0
 32 28  1  0
 33 30  1  0
 11 14  1  0
M  END
> <chembl_id>
CHEMBL1200896

> <chembl_pref_name>
DINOPROST TROMETHAMINE
