
     RDKit          2D

 34 37  0  0  1  0  0  0  0  0999 V2000
    0.4667    0.0083    0.0000 C   0  0  0  0  0  0  0  0  0  0  0  0
   -1.0875   -0.8917    0.0000 C   0  0  0  0  0  0  0  0  0  0  0  0
    0.4667   -0.8917    0.0000 C   0  0  0  0  0  0  0  0  0  0  0  0
   -1.8708   -1.3375    0.0000 C   0  0  0  0  0  0  0  0  0  0  0  0
   -0.3125   -1.3375    0.0000 C   0  0  0  0  0  0  0  0  0  0  0  0
   -0.3000    0.4583    0.0000 C   0  0  0  0  0  0  0  0  0  0  0  0
   -0.3208   -2.2417    0.0000 C   0  0  0  0  0  0  0  0  0  0  0  0
   -1.8708   -2.2417    0.0000 C   0  0  0  0  0  0  0  0  0  0  0  0
   -1.0833    0.0083    0.0000 C   0  0  0  0  0  0  0  0  0  0  0  0
    1.3167    0.2750    0.0000 C   0  0  0  0  0  0  0  0  0  0  0  0
   -1.0958   -2.6917    0.0000 C   0  0  0  0  0  0  0  0  0  0  0  0
    1.3167   -1.1542    0.0000 C   0  0  0  0  0  0  0  0  0  0  0  0
   -2.6500   -0.8917    0.0000 C   0  0  0  0  0  0  0  0  0  0  0  0
    1.8375   -0.4250    0.0000 C   0  0  0  0  0  0  0  0  0  0  0  0
   -2.6500   -2.6917    0.0000 C   0  0  0  0  0  0  0  0  0  0  0  0
    3.6792    2.3583    0.0000 C   0  0  0  0  0  0  0  0  0  0  0  0
   -0.3000    1.3625    0.0000 O   0  0  0  0  0  0  0  0  0  0  0  0
    0.4542   -2.7042    0.0000 O   0  0  0  0  0  0  0  0  0  0  0  0
   -3.4375   -2.2417    0.0000 C   0  0  0  0  0  0  0  0  0  0  0  0
    3.9667    3.2125    0.0000 O   0  0  0  0  0  0  0  0  0  0  0  0
    1.6167    1.1458    0.0000 C   0  0  0  0  0  0  0  0  0  0  0  0
   -4.2333   -2.6917    0.0000 O   0  0  0  0  0  0  0  0  0  0  0  0
    2.5000    1.3208    0.0000 C   0  0  0  0  0  0  0  0  0  0  0  0
   -3.4375   -1.3375    0.0000 C   0  0  0  0  0  0  0  0  0  0  0  0
    2.7875    2.1750    0.0000 C   0  0  0  0  0  0  0  0  0  0  0  0
    0.4792    0.9000    0.0000 C   0  0  0  0  0  0  0  0  0  0  0  0
   -1.8625   -0.4375    0.0000 C   0  0  0  0  0  0  0  0  0  0  0  0
    4.2792    1.6833    0.0000 O   0  0  0  0  0  0  0  0  0  0  0  0
    1.0167    1.8333    0.0000 C   0  0  0  0  0  0  0  0  0  0  0  0
    2.3049    0.4283    0.0000 H   0  0  0  0  0  0  0  0  0  0  0  0
   -1.8720   -3.2417    0.0000 H   0  0  0  0  0  0  0  0  0  0  0  0
    0.5502   -1.8432    0.0000 H   0  0  0  0  0  0  0  0  0  0  0  0
    0.5765   -1.8856    0.0000 H   0  0  0  0  0  0  0  0  0  0  0  0
   -1.9508   -0.3870    0.0000 H   0  0  0  0  0  0  0  0  0  0  0  0
  2  9  1  0
  3  1  1  0
  4  2  1  0
  5  3  1  0
  6  1  1  0
  7  5  1  0
  8  4  1  0
  9  6  1  0
 10  1  1  0
 11  7  1  0
 12  3  1  0
 13  4  1  0
 10 14  1  0
 15  8  1  0
 16 25  1  0
 17  6  2  0
 18  7  2  0
 19 24  1  0
 20 16  2  0
 21 10  1  0
 22 19  2  0
 23 21  1  0
 24 13  1  0
 25 23  1  0
  1 26  1  1
  4 27  1  1
 28 16  1  0
 21 29  1  6
 12 14  1  0
  5  2  1  0
 11  8  1  0
 15 19  1  0
 10 30  1  6
  8 31  1  1
  5 32  1  1
  3 33  1  6
  2 34  1  6
M  END
> <chembl_id>
CHEMBL514446

> <chembl_pref_name>
DEHYDROCHOLIC ACID
