
     RDKit          2D

 25 28  0  0  0  0  0  0  0  0999 V2000
    3.3042   -3.4500    0.0000 N   0  0  0  0  0  0  0  0  0  0  0  0
    2.7000   -3.1042    0.0000 C   0  0  0  0  0  0  0  0  0  0  0  0
    3.2917   -2.0417    0.0000 S   0  0  0  0  0  0  0  0  0  0  0  0
    3.9167   -3.1042    0.0000 C   0  0  0  0  0  0  0  0  0  0  0  0
    2.6917   -2.4000    0.0000 C   0  0  0  0  0  0  0  0  0  0  0  0
    3.9167   -2.3917    0.0000 C   0  0  0  0  0  0  0  0  0  0  0  0
    3.3042   -4.1667    0.0000 C   0  0  0  0  0  0  0  0  0  0  0  0
    2.0792   -5.5792    0.0000 N   0  0  0  0  0  0  0  0  0  0  0  0
    2.0875   -3.4667    0.0000 C   0  0  0  0  0  0  0  0  0  0  0  0
    2.7000   -4.5042    0.0000 C   0  0  0  0  0  0  0  0  0  0  0  0
    2.6917   -5.2167    0.0000 C   0  0  0  0  0  0  0  0  0  0  0  0
    2.0792   -2.0417    0.0000 C   0  0  0  0  0  0  0  0  0  0  0  0
    1.4667   -3.1125    0.0000 C   0  0  0  0  0  0  0  0  0  0  0  0
    0.8542   -3.4667    0.0000 S   0  0  0  0  0  0  0  0  0  0  0  0
    1.4667   -2.4042    0.0000 C   0  0  0  0  0  0  0  0  0  0  0  0
    1.4792   -5.2292    0.0000 C   0  0  0  0  0  0  0  0  0  0  0  0
    2.0875   -6.2917    0.0000 C   0  0  0  0  0  0  0  0  0  0  0  0
    4.5250   -3.4500    0.0000 C   0  0  0  0  0  0  0  0  0  0  0  0
    4.5292   -2.0375    0.0000 C   0  0  0  0  0  0  0  0  0  0  0  0
    3.3125   -5.5750    0.0000 C   0  0  0  0  0  0  0  0  0  0  0  0
    0.2375   -3.1167    0.0000 C   0  0  0  0  0  0  0  0  0  0  0  0
    2.7042   -6.6417    0.0000 C   0  0  0  0  0  0  0  0  0  0  0  0
    5.1500   -3.0917    0.0000 C   0  0  0  0  0  0  0  0  0  0  0  0
    5.1417   -2.3875    0.0000 C   0  0  0  0  0  0  0  0  0  0  0  0
    3.3167   -6.2875    0.0000 C   0  0  0  0  0  0  0  0  0  0  0  0
  2  1  1  0
  3  6  1  0
  4  1  1  0
  5  2  1  0
  6  4  2  0
  7  1  1  0
  8 11  1  0
  9  2  2  0
 10  7  1  0
 11 10  1  0
 12  5  2  0
 13  9  1  0
 14 13  1  0
 15 13  2  0
 16  8  1  0
 17  8  1  0
 18  4  1  0
 19  6  1  0
 20 11  1  0
 21 14  1  0
 22 25  1  0
 23 18  2  0
 24 23  1  0
 25 20  1  0
  3  5  1  0
 24 19  2  0
 15 12  1  0
 22 17  1  0
M  END
> <chembl_id>
CHEMBL479

> <chembl_pref_name>
THIORIDAZINE
