
     RDKit          2D

 19 20  0  0  0  0  0  0  0  0999 V2000
    0.6792    0.4208    0.0000 C   0  0  0  0  0  0  0  0  0  0  0  0
   -0.5208   -0.2542    0.0000 N   0  0  0  0  0  0  0  0  0  0  0  0
   -2.9500   -0.2667    0.0000 C   0  0  0  0  0  0  0  0  0  0  0  0
   -1.7458    0.4000    0.0000 C   0  0  0  0  0  0  0  0  0  0  0  0
    1.8917   -0.2542    0.0000 C   0  0  0  0  0  0  0  0  0  0  0  0
   -2.9458   -1.6667    0.0000 C   0  0  0  0  0  0  0  0  0  0  0  0
    0.6792    1.8208    0.0000 C   0  0  0  0  0  0  0  0  0  0  0  0
    3.1167    0.4375    0.0000 C   0  0  0  0  0  0  0  0  0  0  0  0
   -1.6958   -2.4167    0.0000 O   0  0  0  0  0  0  0  0  0  0  0  0
    1.8875    2.5333    0.0000 C   0  0  0  0  0  0  0  0  0  0  0  0
    3.1042    1.8333    0.0000 C   0  0  0  0  0  0  0  0  0  0  0  0
    1.8917   -1.6542    0.0000 Cl  0  0  0  0  0  0  0  0  0  0  0  0
   -4.1708   -2.2167    0.0000 O   0  0  0  0  0  0  0  0  0  0  0  0
   -0.5208    2.5208    0.0000 Cl  0  0  0  0  0  0  0  0  0  0  0  0
   -4.1708    0.3958    0.0000 C   0  0  0  0  0  0  0  0  0  0  0  0
   -1.7458    1.8083    0.0000 C   0  0  0  0  0  0  0  0  0  0  0  0
    4.3417   -0.2167    0.0000 C   0  0  0  0  0  0  0  0  0  0  0  0
   -4.1833    1.8000    0.0000 C   0  0  0  0  0  0  0  0  0  0  0  0
   -2.9625    2.5208    0.0000 C   0  0  0  0  0  0  0  0  0  0  0  0
  2  1  1  0
  3  4  1  0
  4  2  1  0
  5  1  2  0
  6  3  1  0
  7  1  1  0
  8  5  1  0
  9  6  2  0
 10  7  2  0
 11 10  1  0
 12  5  1  0
 13  6  1  0
 14  7  1  0
 15  3  2  0
 16  4  2  0
 17  8  1  0
 18 19  2  0
 19 16  1  0
  8 11  2  0
 15 18  1  0
M  END
> <chembl_id>
CHEMBL509

> <chembl_pref_name>
MECLOFENAMIC ACID
