
     RDKit          2D

 20 20  0  0  0  0  0  0  0  0999 V2000
    9.9884   -4.8321    0.0000 C   0  0  0  0  0  0  0  0  0  0  0  0
   10.7029   -5.2446    0.0000 C   0  0  0  0  0  0  0  0  0  0  0  0
   10.7029   -6.0696    0.0000 O   0  0  0  0  0  0  0  0  0  0  0  0
   11.4173   -4.8321    0.0000 C   0  0  0  0  0  0  0  0  0  0  0  0
   12.1318   -5.2446    0.0000 O   0  0  0  0  0  0  0  0  0  0  0  0
   11.4173   -4.0071    0.0000 O   0  0  0  0  0  0  0  0  0  0  0  0
    4.7707   -5.4522    0.0000 C   0  0  0  0  0  0  0  0  0  0  0  0
    6.1917   -5.4522    0.0000 C   0  0  0  0  0  0  0  0  0  0  0  0
    4.7707   -4.6257    0.0000 C   0  0  0  0  0  0  0  0  0  0  0  0
    5.4812   -5.8631    0.0000 C   0  0  0  0  0  0  0  0  0  0  0  0
    5.4812   -4.2100    0.0000 N   0  0  0  0  0  0  0  0  0  0  0  0
    6.1917   -4.6257    0.0000 C   0  0  0  0  0  0  0  0  0  0  0  0
    4.0505   -4.2100    0.0000 O   0  0  0  0  0  0  0  0  0  0  0  0
    6.9071   -5.8631    0.0000 C   0  0  0  0  0  0  0  0  0  0  0  0
    8.3282   -5.8631    0.0000 C   0  0  0  0  0  0  0  0  0  0  0  0
    4.0505   -5.8631    0.0000 N   0  0  0  0  0  0  0  0  0  0  0  0
    7.6177   -5.4571    0.0000 C   0  0  0  0  0  0  0  0  0  0  0  0
    8.3378   -6.6896    0.0000 N   0  0  0  0  0  0  0  0  0  0  0  0
    6.9071   -6.6896    0.0000 C   0  0  0  0  0  0  0  0  0  0  0  0
    7.6177   -7.1053    0.0000 C   0  0  0  0  0  0  0  0  0  0  0  0
  1  2  1  0
  2  3  1  0
  2  4  1  0
  4  5  1  0
  4  6  2  0
  8 10  1  0
  9  7  1  0
 10  7  2  0
 11  9  1  0
 12  8  2  0
 13  9  2  0
 14  8  1  0
 15 17  2  0
 16  7  1  0
 17 14  1  0
 18 20  2  0
 19 14  2  0
 20 19  1  0
 11 12  1  0
 15 18  1  0
M  END
> <chembl_id>
CHEMBL2096642

> <chembl_pref_name>
INAMRINONE LACTATE
