
     RDKit          2D

 21 22  0  0  1  0  0  0  0  0999 V2000
    3.4667   -4.7167    0.0000 C   0  0  0  0  0  0  0  0  0  0  0  0
    4.1667   -4.7167    0.0000 C   0  0  0  0  0  0  0  0  0  0  0  0
    3.2417   -4.0292    0.0000 N   0  0  0  0  0  0  0  0  0  0  0  0
    4.3875   -4.0292    0.0000 N   0  0  0  0  0  0  0  0  0  0  0  0
    3.8250   -3.6292    0.0000 S   0  0  0  0  0  0  0  0  0  0  0  0
    2.7417   -5.0292    0.0000 N   0  0  0  0  0  0  0  0  0  0  0  0
    4.7500   -5.0042    0.0000 O   0  0  0  0  0  0  0  0  0  0  0  0
    7.3417   -5.0792    0.0000 N   0  0  0  0  0  0  0  0  0  0  0  0
    8.0542   -4.7292    0.0000 C   0  0  0  0  0  0  0  0  0  0  0  0
    1.4917   -5.6792    0.0000 O   0  0  0  0  0  0  0  0  0  0  0  0
    6.0292   -4.9917    0.0000 C   0  0  0  0  0  0  0  0  0  0  0  0
    5.3875   -4.6792    0.0000 C   0  0  0  0  0  0  0  0  0  0  0  0
    6.7417   -4.7042    0.0000 C   0  0  0  0  0  0  0  0  0  0  0  0
    2.1500   -4.6500    0.0000 C   0  0  0  0  0  0  0  0  0  0  0  0
    2.7167   -5.7292    0.0000 C   0  0  0  0  0  0  0  0  0  0  0  0
    6.0292   -5.6667    0.0000 O   0  0  0  0  0  0  0  0  0  0  0  0
    2.0875   -6.0542    0.0000 C   0  0  0  0  0  0  0  0  0  0  0  0
    1.5250   -4.9792    0.0000 C   0  0  0  0  0  0  0  0  0  0  0  0
    8.6542   -5.0042    0.0000 C   0  0  0  0  0  0  0  0  0  0  0  0
    8.4042   -4.1167    0.0000 C   0  0  0  0  0  0  0  0  0  0  0  0
    7.6917   -4.1167    0.0000 C   0  0  0  0  0  0  0  0  0  0  0  0
  2  1  1  0
  3  1  2  0
  4  2  2  0
  5  3  1  0
  6  1  1  0
  7  2  1  0
  8 13  1  0
  9  8  1  0
 10 17  1  0
 11 12  1  0
 12  7  1  0
 13 11  1  0
 14  6  1  0
 15  6  1  0
 11 16  1  6
 17 15  1  0
 18 14  1  0
 19  9  1  0
 20  9  1  0
 21  9  1  0
  4  5  1  0
 18 10  1  0
M  END
> <chembl_id>
CHEMBL499

> <chembl_pref_name>
TIMOLOL
