
     RDKit          2D

 28 30  0  0  1  0  0  0  0  0999 V2000
    0.2750   -5.2042    0.0000 N   0  0  0  0  0  0  0  0  0  0  0  0
    0.9500   -5.4208    0.0000 C   0  0  0  0  0  0  0  0  0  0  0  0
   -0.4375   -5.2042    0.0000 C   0  0  0  0  0  0  0  0  0  0  0  0
    1.3667   -4.8458    0.0000 C   0  0  0  0  0  0  0  0  0  0  0  0
    0.2750   -4.5000    0.0000 C   0  0  0  0  0  0  0  0  0  0  0  0
   -0.4375   -4.5000    0.0000 C   0  0  0  0  0  0  0  0  0  0  0  0
    0.9458   -4.2750    0.0000 C   0  0  0  0  0  0  0  0  0  0  0  0
    0.9417   -6.1292    0.0000 C   0  0  0  0  0  0  0  0  0  0  0  0
    4.4417   -4.8417    0.0000 C   0  0  0  0  0  0  0  0  0  0  0  0
    3.8333   -5.2000    0.0000 C   0  0  0  0  0  0  0  0  0  0  0  0
    2.0708   -4.8417    0.0000 S   0  0  0  0  0  0  0  0  0  0  0  0
    3.6125   -5.8708    0.0000 N   0  0  0  0  0  0  0  0  0  0  0  0
    3.2583   -4.7792    0.0000 C   0  0  0  0  0  0  0  0  0  0  0  0
   -0.9375   -5.7083    0.0000 O   0  0  0  0  0  0  0  0  0  0  0  0
    5.0583   -5.1917    0.0000 N   0  0  0  0  0  0  0  0  0  0  0  0
    2.6875   -5.2000    0.0000 C   0  0  0  0  0  0  0  0  0  0  0  0
   -1.0583   -4.1417    0.0000 C   0  0  0  0  0  0  0  0  0  0  0  0
    4.4375   -4.1292    0.0000 O   0  0  0  0  0  0  0  0  0  0  0  0
    0.3250   -6.4750    0.0000 O   0  0  0  0  0  0  0  0  0  0  0  0
    2.9042   -5.8708    0.0000 C   0  0  0  0  0  0  0  0  0  0  0  0
    1.5542   -6.4875    0.0000 O   0  0  0  0  0  0  0  0  0  0  0  0
    1.1625   -3.6000    0.0000 C   0  0  0  0  0  0  0  0  0  0  0  0
   -1.0583   -3.4292    0.0000 O   0  0  0  0  0  0  0  0  0  0  0  0
    5.6708   -4.8333    0.0000 C   0  0  0  0  0  0  0  0  0  0  0  0
    5.0625   -5.9000    0.0000 C   0  0  0  0  0  0  0  0  0  0  0  0
   -1.6708   -4.4958    0.0000 C   0  0  0  0  0  0  0  0  0  0  0  0
   -0.4458   -3.7875    0.0000 H   0  0  0  0  0  0  0  0  0  0  0  0
    0.2667   -3.7875    0.0000 H   0  0  0  0  0  0  0  0  0  0  0  0
  2  1  1  0
  3  1  1  0
  4  2  2  0
  5  1  1  0
  6  5  1  0
  7  5  1  0
  8  2  1  0
 10  9  1  1
 10 13  1  0
 11  4  1  0
 12 20  1  0
 13 16  1  0
 14  3  2  0
 15  9  1  0
 16 11  1  1
 17  6  1  0
 18  9  2  0
 19  8  2  0
 20 16  1  0
 21  8  1  0
  7 22  1  1
 17 23  1  1
 24 15  1  0
 25 15  1  0
 26 17  1  0
  6 27  1  1
  5 28  1  6
  3  6  1  0
  7  4  1  0
 10 12  1  0
M  END
> <chembl_id>
CHEMBL127

> <chembl_pref_name>
MEROPENEM
