
     RDKit          2D

 24 26  0  0  0  0  0  0  0  0999 V2000
    6.5917   -4.6042    0.0000 N   0  0  0  0  0  0  0  0  0  0  0  0
    5.9667   -4.9625    0.0000 C   0  0  0  0  0  0  0  0  0  0  0  0
    5.3542   -4.6042    0.0000 C   0  0  0  0  0  0  0  0  0  0  0  0
    3.4958   -4.9625    0.0000 S   0  0  0  0  0  0  0  0  0  0  0  0
    4.1042   -4.6042    0.0000 C   0  0  0  0  0  0  0  0  0  0  0  0
    6.5917   -3.9000    0.0000 C   0  0  0  0  0  0  0  0  0  0  0  0
    5.3542   -3.9000    0.0000 C   0  0  0  0  0  0  0  0  0  0  0  0
    5.9667   -3.5500    0.0000 N   0  0  0  0  0  0  0  0  0  0  0  0
    4.7292   -4.9625    0.0000 C   0  0  0  0  0  0  0  0  0  0  0  0
    7.2167   -4.9625    0.0000 C   0  0  0  0  0  0  0  0  0  0  0  0
    4.1042   -3.9000    0.0000 C   0  0  0  0  0  0  0  0  0  0  0  0
    4.7292   -3.5500    0.0000 C   0  0  0  0  0  0  0  0  0  0  0  0
    5.9667   -5.6625    0.0000 O   0  0  0  0  0  0  0  0  0  0  0  0
    3.8417   -5.5750    0.0000 O   0  0  0  0  0  0  0  0  0  0  0  0
    3.1375   -5.5750    0.0000 O   0  0  0  0  0  0  0  0  0  0  0  0
    2.8792   -4.6125    0.0000 N   0  0  0  0  0  0  0  0  0  0  0  0
    7.2167   -5.6625    0.0000 C   0  0  0  0  0  0  0  0  0  0  0  0
    3.4917   -3.5500    0.0000 Cl  0  0  0  0  0  0  0  0  0  0  0  0
    7.2167   -3.5500    0.0000 C   0  0  0  0  0  0  0  0  0  0  0  0
    7.8417   -4.6042    0.0000 C   0  0  0  0  0  0  0  0  0  0  0  0
    6.6042   -6.0125    0.0000 C   0  0  0  0  0  0  0  0  0  0  0  0
    7.8292   -6.0292    0.0000 C   0  0  0  0  0  0  0  0  0  0  0  0
    8.4542   -4.9625    0.0000 C   0  0  0  0  0  0  0  0  0  0  0  0
    8.4417   -5.6875    0.0000 C   0  0  0  0  0  0  0  0  0  0  0  0
  2  1  1  0
  3  2  1  0
  4  5  1  0
  5  9  1  0
  6  1  1  0
  7  3  1  0
  8  6  1  0
  9  3  2  0
 10  1  1  0
 11 12  1  0
 12  7  2  0
 13  2  2  0
 14  4  2  0
 15  4  2  0
 16  4  1  0
 17 10  2  0
 18 11  1  0
 19  6  1  0
 20 10  1  0
 21 17  1  0
 22 17  1  0
 23 20  2  0
 24 23  1  0
  8  7  1  0
 24 22  2  0
 11  5  2  0
M  END
> <chembl_id>
CHEMBL878

> <chembl_pref_name>
METOLAZONE
