
     RDKit          2D

 26 28  0  0  0  0  0  0  0  0999 V2000
    5.7375   -5.5125    0.0000 C   0  0  0  0  0  0  0  0  0  0  0  0
    4.5042   -5.6042    0.0000 N   0  0  0  0  0  0  0  0  0  0  0  0
    6.3417   -5.8875    0.0000 C   0  0  0  0  0  0  0  0  0  0  0  0
    5.1417   -5.9125    0.0000 C   0  0  0  0  0  0  0  0  0  0  0  0
    7.5917   -5.8875    0.0000 N   0  0  0  0  0  0  0  0  0  0  0  0
    2.0500   -5.5917    0.0000 C   0  0  0  0  0  0  0  0  0  0  0  0
    2.6500   -5.9417    0.0000 C   0  0  0  0  0  0  0  0  0  0  0  0
    5.7375   -4.8417    0.0000 C   0  0  0  0  0  0  0  0  0  0  0  0
    3.2917   -5.5625    0.0000 C   0  0  0  0  0  0  0  0  0  0  0  0
    6.9417   -5.5125    0.0000 C   0  0  0  0  0  0  0  0  0  0  0  0
    3.9125   -5.9375    0.0000 C   0  0  0  0  0  0  0  0  0  0  0  0
    2.0500   -4.8917    0.0000 O   0  0  0  0  0  0  0  0  0  0  0  0
    6.3667   -4.4625    0.0000 C   0  0  0  0  0  0  0  0  0  0  0  0
    5.1292   -4.4750    0.0000 C   0  0  0  0  0  0  0  0  0  0  0  0
    1.4250   -5.9375    0.0000 O   0  0  0  0  0  0  0  0  0  0  0  0
    5.1292   -3.7667    0.0000 C   0  0  0  0  0  0  0  0  0  0  0  0
    6.3667   -3.7542    0.0000 C   0  0  0  0  0  0  0  0  0  0  0  0
    5.7375   -3.4167    0.0000 C   0  0  0  0  0  0  0  0  0  0  0  0
    5.1417   -6.6417    0.0000 C   0  0  0  0  0  0  0  0  0  0  0  0
    8.1667   -5.4667    0.0000 C   0  0  0  0  0  0  0  0  0  0  0  0
    7.8250   -6.5625    0.0000 C   0  0  0  0  0  0  0  0  0  0  0  0
    4.5292   -7.0042    0.0000 C   0  0  0  0  0  0  0  0  0  0  0  0
    3.9125   -6.6417    0.0000 C   0  0  0  0  0  0  0  0  0  0  0  0
    5.7375   -2.7167    0.0000 C   0  0  0  0  0  0  0  0  0  0  0  0
    8.5292   -6.5625    0.0000 C   0  0  0  0  0  0  0  0  0  0  0  0
    8.7250   -5.8875    0.0000 C   0  0  0  0  0  0  0  0  0  0  0  0
  2  4  2  0
  3  1  2  0
  4  1  1  0
  5 10  1  0
  6  7  1  0
  7  9  2  0
  8  1  1  0
  9 11  1  0
 10  3  1  0
 11  2  1  0
 12  6  2  0
 13  8  2  0
 14  8  1  0
 15  6  1  0
 16 14  2  0
 17 13  1  0
 18 16  1  0
 19  4  1  0
 20  5  1  0
 21  5  1  0
 22 19  2  0
 23 22  1  0
 24 18  1  0
 25 21  1  0
 26 20  1  0
 18 17  2  0
 23 11  2  0
 25 26  1  0
M  END
> <chembl_id>
CHEMBL1224

> <chembl_pref_name>
ACRIVASTINE
