
     RDKit          2D

 66 72  0  0  0  0  0  0  0  0999 V2000
   -1.4724    3.9379    0.0000 C   0  0  0  0  0  0  0  0  0  0  0  0
   -0.7373    3.5634    0.0000 C   0  0  0  0  0  0  0  0  0  0  0  0
   -0.6941    2.7395    0.0000 C   0  0  0  0  0  0  0  0  0  0  0  0
   -1.3860    2.2902    0.0000 C   0  0  0  0  0  0  0  0  0  0  0  0
   -2.1211    2.6647    0.0000 C   0  0  0  0  0  0  0  0  0  0  0  0
   -2.1643    3.4886    0.0000 C   0  0  0  0  0  0  0  0  0  0  0  0
    0.1292    1.4164    0.0000 C   0  0  0  0  0  0  0  0  0  0  0  0
   -0.5924    1.0164    0.0000 C   0  0  0  0  0  0  0  0  0  0  0  0
   -0.6068    0.1916    0.0000 C   0  0  0  0  0  0  0  0  0  0  0  0
    0.1003   -0.2334    0.0000 C   0  0  0  0  0  0  0  0  0  0  0  0
    0.8219    0.1666    0.0000 C   0  0  0  0  0  0  0  0  0  0  0  0
    0.8363    0.9914    0.0000 C   0  0  0  0  0  0  0  0  0  0  0  0
   -2.0356    0.2165    0.0000 C   0  0  0  0  0  0  0  0  0  0  0  0
   -2.7571   -0.1834    0.0000 N   0  0  0  0  0  0  0  0  0  0  0  0
   -2.7715   -1.0083    0.0000 C   0  0  0  0  0  0  0  0  0  0  0  0
   -2.0644   -1.4332    0.0000 C   0  0  0  0  0  0  0  0  0  0  0  0
   -1.3428   -1.0333    0.0000 C   0  0  0  0  0  0  0  0  0  0  0  0
   -1.3284   -0.2084    0.0000 C   0  0  0  0  0  0  0  0  0  0  0  0
   -1.3428    1.4663    0.0000 C   0  0  0  0  0  0  0  0  0  0  0  0
   -2.0500    1.0414    0.0000 C   0  0  0  0  0  0  0  0  0  0  0  0
   -0.0454    4.0128    0.0000 F   0  0  0  0  0  0  0  0  0  0  0  0
   -2.8994    3.8631    0.0000 F   0  0  0  0  0  0  0  0  0  0  0  0
    1.5579    1.3914    0.0000 Cl  0  0  0  0  0  0  0  0  0  0  0  0
    0.2577   -1.0432    0.0000 N   0  0  0  0  0  0  0  0  0  0  0  0
    1.0766   -1.1437    0.0000 N   0  0  0  0  0  0  0  0  0  0  0  0
    1.4253   -0.3961    0.0000 C   0  0  0  0  0  0  0  0  0  0  0  0
   -0.3049   -1.6466    0.0000 C   0  0  0  0  0  0  0  0  0  0  0  0
   -0.0638   -2.4355    0.0000 C   0  0  0  0  0  0  0  0  0  0  0  0
    0.7252   -2.1943    0.0000 F   0  0  0  0  0  0  0  0  0  0  0  0
   -0.8527   -2.6767    0.0000 F   0  0  0  0  0  0  0  0  0  0  0  0
    0.1774   -3.2245    0.0000 F   0  0  0  0  0  0  0  0  0  0  0  0
    2.2351   -0.2387    0.0000 N   0  0  0  0  0  0  0  0  0  0  0  0
    2.7763   -0.8613    0.0000 S   0  0  0  0  0  0  0  0  0  0  0  0
    3.3176   -1.4840    0.0000 O   0  0  0  0  0  0  0  0  0  0  0  0
    2.1537   -1.4026    0.0000 C   0  0  0  0  0  0  0  0  0  0  0  0
    3.3990   -0.3201    0.0000 O   0  0  0  0  0  0  0  0  0  0  0  0
   -3.4931   -1.4082    0.0000 C   0  0  0  0  0  0  0  0  0  0  0  0
   -4.2147   -1.8082    0.0000 C   0  0  0  0  0  0  0  0  0  0  0  0
   -4.9362   -2.2082    0.0000 C   0  0  0  0  0  0  0  0  0  0  0  0
   -4.5363   -2.9297    0.0000 C   0  0  0  0  0  0  0  0  0  0  0  0
   -5.3362   -1.4866    0.0000 C   0  0  0  0  0  0  0  0  0  0  0  0
   -5.6578   -2.6081    0.0000 S   0  0  0  0  0  0  0  0  0  0  0  0
   -5.2579   -3.3297    0.0000 C   0  0  0  0  0  0  0  0  0  0  0  0
   -6.0578   -1.8865    0.0000 O   0  0  0  0  0  0  0  0  0  0  0  0
   -6.3794   -3.0080    0.0000 O   0  0  0  0  0  0  0  0  0  0  0  0
   -2.7715    1.4413    0.0000 N   0  0  0  0  0  0  0  0  0  0  0  0
   -3.4931    1.0414    0.0000 C   0  0  0  0  0  0  0  0  0  0  0  0
   -3.5075    0.2165    0.0000 O   0  0  0  0  0  0  0  0  0  0  0  0
   -4.2003    1.4663    0.0000 C   0  0  0  0  0  0  0  0  0  0  0  0
   -5.1767    0.2386    0.0000 N   0  0  0  0  0  0  0  0  0  0  0  0
   -5.0477    1.0534    0.0000 N   0  0  0  0  0  0  0  0  0  0  0  0
   -5.7828    1.4279    0.0000 C   0  0  0  0  0  0  0  0  0  0  0  0
   -6.3661    0.8446    0.0000 C   0  0  0  0  0  0  0  0  0  0  0  0
   -5.9916    0.1095    0.0000 C   0  0  0  0  0  0  0  0  0  0  0  0
   -6.3661   -0.6256    0.0000 C   0  0  0  0  0  0  0  0  0  0  0  0
   -6.7406   -1.3607    0.0000 F   0  0  0  0  0  0  0  0  0  0  0  0
   -5.6310   -1.0001    0.0000 F   0  0  0  0  0  0  0  0  0  0  0  0
   -7.1012   -0.2510    0.0000 F   0  0  0  0  0  0  0  0  0  0  0  0
   -7.1012    1.2191    0.0000 C   0  0  0  0  0  0  0  0  0  0  0  0
   -6.9722    2.0339    0.0000 C   0  0  0  0  0  0  0  0  0  0  0  0
   -6.1573    2.1631    0.0000 C   0  0  0  0  0  0  0  0  0  0  0  0
   -6.1919    2.9873    0.0000 F   0  0  0  0  0  0  0  0  0  0  0  0
   -5.4702    2.6196    0.0000 F   0  0  0  0  0  0  0  0  0  0  0  0
   -7.7424    1.7383    0.0000 C   0  0  0  0  0  0  0  0  0  0  0  0
   -7.5505    0.5272    0.0000 H   0  0  0  0  0  0  0  0  0  0  0  0
   -7.1857    2.8308    0.0000 H   0  0  0  0  0  0  0  0  0  0  0  0
  1  2  2  0
  2  3  1  0
  3  4  2  0
  4  5  1  0
  5  6  2  0
  1  6  1  0
  7  8  2  0
  8  9  1  0
  9 10  2  0
 10 11  1  0
 11 12  2  0
  7 12  1  0
 13 14  2  0
 14 15  1  0
 15 16  2  0
 16 17  1  0
 17 18  2  0
 13 18  1  0
 18  9  1  0
  4 19  1  0
 20 19  1  0
  2 21  1  0
  6 22  1  0
 12 23  1  0
 24 25  1  0
 25 26  2  0
 10 24  1  0
 11 26  1  0
 24 27  1  0
 27 28  1  0
 28 29  1  0
 28 30  1  0
 28 31  1  0
 26 32  1  0
 32 33  1  0
 33 34  2  0
 33 35  1  0
 33 36  2  0
 15 37  1  0
 37 38  3  0
 38 39  1  0
 39 40  1  0
 39 41  1  0
 39 42  1  0
 42 43  1  0
 42 44  2  0
 42 45  2  0
 20 46  1  1
 46 47  1  0
 47 48  2  0
 47 49  1  0
 51 52  1  0
 52 53  2  0
 53 54  1  0
 54 50  2  0
 51 50  1  0
 54 55  1  0
 55 56  1  0
 55 57  1  0
 55 58  1  0
 59 60  1  0
 60 61  1  0
 52 61  1  0
 53 59  1  0
 61 62  1  0
 61 63  1  0
 60 64  1  0
 64 59  1  0
 59 65  1  6
 60 66  1  6
 20 13  1  0
 49 51  1  0
M  END
> <chembl_id>
CHEMBL4594438

> <chembl_pref_name>
LENACAPAVIR
