
     RDKit          2D

  7  5  0  0  0  0  0  0  0  0999 V2000
    7.7417   -5.8417    0.0000 Na  0  0  0  0  0 15  0  0  0  0  0  0
    6.3667   -6.1000    0.0000 C   0  0  0  0  0  0  0  0  0  0  0  0
    6.9875   -5.7542    0.0000 O   0  0  0  0  0  0  0  0  0  0  0  0
    6.3667   -6.8125    0.0000 O   0  0  0  0  0  0  0  0  0  0  0  0
    5.7542   -5.7417    0.0000 C   0  0  0  0  0  0  0  0  0  0  0  0
    5.7542   -5.0375    0.0000 O   0  0  0  0  0  0  0  0  0  0  0  0
    5.1417   -6.0917    0.0000 C   0  0  0  0  0  0  0  0  0  0  0  0
  3  2  1  0
  4  2  2  0
  5  2  1  0
  6  5  1  0
  7  5  1  0
M  CHG  2   1   1   3  -1
M  END
> <chembl_id>
CHEMBL1357

> <chembl_pref_name>
SODIUM LACTATE
