
     RDKit          2D

 22 24  0  0  0  0  0  0  0  0999 V2000
   -1.2958    0.1583    0.0000 C   0  0  0  0  0  0  0  0  0  0  0  0
   -0.3750    0.6083    0.0000 C   0  0  0  0  0  0  0  0  0  0  0  0
   -2.2375    0.6083    0.0000 C   0  0  0  0  0  0  0  0  0  0  0  0
   -1.2958   -0.9375    0.0000 C   0  0  0  0  0  0  0  0  0  0  0  0
   -0.0833    1.7083    0.0000 C   0  0  0  0  0  0  0  0  0  0  0  0
   -2.5208    1.6708    0.0000 C   0  0  0  0  0  0  0  0  0  0  0  0
   -0.6958    2.5833    0.0000 C   0  0  0  0  0  0  0  0  0  0  0  0
   -1.8708    2.5833    0.0000 C   0  0  0  0  0  0  0  0  0  0  0  0
    1.5542   -1.4917    0.0000 N   0  0  0  0  0  0  0  0  0  0  0  0
   -0.3333   -1.4917    0.0000 C   0  0  0  0  0  0  0  0  0  0  0  0
    0.6125   -0.9375    0.0000 C   0  0  0  0  0  0  0  0  0  0  0  0
   -3.0083   -0.1542    0.0000 C   0  0  0  0  0  0  0  0  0  0  0  0
    0.3917   -0.1292    0.0000 C   0  0  0  0  0  0  0  0  0  0  0  0
    0.9542    1.9708    0.0000 C   0  0  0  0  0  0  0  0  0  0  0  0
   -3.5625    1.9583    0.0000 C   0  0  0  0  0  0  0  0  0  0  0  0
    1.5542   -2.5792    0.0000 C   0  0  0  0  0  0  0  0  0  0  0  0
    2.5000   -0.9375    0.0000 C   0  0  0  0  0  0  0  0  0  0  0  0
   -0.3333   -2.5667    0.0000 C   0  0  0  0  0  0  0  0  0  0  0  0
   -4.0708    0.1250    0.0000 C   0  0  0  0  0  0  0  0  0  0  0  0
    1.4417    0.1458    0.0000 C   0  0  0  0  0  0  0  0  0  0  0  0
   -4.3458    1.1833    0.0000 C   0  0  0  0  0  0  0  0  0  0  0  0
    1.7375    1.2000    0.0000 C   0  0  0  0  0  0  0  0  0  0  0  0
  2  1  1  0
  3  1  1  0
  4  1  1  0
  5  2  1  0
  6  3  1  0
  7  5  1  0
  8  6  1  0
  9 11  1  0
 10  4  1  0
 11 10  1  0
 12  3  2  0
 13  2  2  0
 14  5  2  0
 15  6  2  0
 16  9  1  0
 17  9  1  0
 18 10  1  0
 19 12  1  0
 20 13  1  0
 21 19  2  0
 22 20  2  0
  7  8  1  0
 15 21  1  0
 14 22  1  0
M  END
> <chembl_id>
CHEMBL2110816

> <chembl_pref_name>
BUTRIPTYLINE
