
     RDKit          2D

 28 28  0  0  0  0  0  0  0  0999 V2000
   -3.4708  -18.9917    0.0000 Na  0  0  0  0  0 15  0  0  0  0  0  0
    0.3792  -21.0625    0.0000 C   0  0  0  0  0  0  0  0  0  0  0  0
    1.0917  -21.0625    0.0000 C   0  0  0  0  0  0  0  0  0  0  0  0
    1.3125  -21.7375    0.0000 C   0  0  0  0  0  0  0  0  0  0  0  0
    0.1542  -20.3750    0.0000 O   0  0  0  0  0  0  0  0  0  0  0  0
    1.9208  -22.0875    0.0000 C   0  0  0  0  0  0  0  0  0  0  0  0
    0.1500  -21.7375    0.0000 C   0  0  0  0  0  0  0  0  0  0  0  0
    0.7167  -19.9625    0.0000 C   0  0  0  0  0  0  0  0  0  0  0  0
    0.7292  -22.1542    0.0000 C   0  0  0  0  0  0  0  0  0  0  0  0
    1.3000  -20.3875    0.0000 C   0  0  0  0  0  0  0  0  0  0  0  0
    2.5375  -21.7250    0.0000 C   0  0  0  0  0  0  0  0  0  0  0  0
   -1.7542  -19.2375    0.0000 C   0  0  0  0  0  0  0  0  0  0  0  0
   -2.3458  -18.8917    0.0000 O   0  0  0  0  0  0  0  0  0  0  0  0
    0.7250  -19.2625    0.0000 C   0  0  0  0  0  0  0  0  0  0  0  0
   -1.7625  -19.9708    0.0000 O   0  0  0  0  0  0  0  0  0  0  0  0
    0.7292  -22.8667    0.0000 O   0  0  0  0  0  0  0  0  0  0  0  0
    3.1458  -22.0875    0.0000 C   0  0  0  0  0  0  0  0  0  0  0  0
    3.1458  -22.7875    0.0000 O   0  0  0  0  0  0  0  0  0  0  0  0
   -1.1250  -18.8792    0.0000 C   0  0  0  0  0  0  0  0  0  0  0  0
    0.1125  -18.9000    0.0000 C   0  0  0  0  0  0  0  0  0  0  0  0
    3.7583  -21.7250    0.0000 C   0  0  0  0  0  0  0  0  0  0  0  0
   -0.5125  -19.2417    0.0000 C   0  0  0  0  0  0  0  0  0  0  0  0
    5.6125  -22.0625    0.0000 C   0  0  0  0  0  0  0  0  0  0  0  0
    4.9917  -21.7125    0.0000 C   0  0  0  0  0  0  0  0  0  0  0  0
    4.3750  -22.0708    0.0000 C   0  0  0  0  0  0  0  0  0  0  0  0
    6.2292  -21.6917    0.0000 C   0  0  0  0  0  0  0  0  0  0  0  0
   -0.3375  -21.0542    0.0000 H   0  0  0  0  0  0  0  0  0  0  0  0
    1.8000  -21.0542    0.0000 H   0  0  0  0  0  0  0  0  0  0  0  0
  3  2  1  0
  4  3  1  0
  5  2  1  0
  4  6  1  1
  7  2  1  0
  8  5  1  0
  9  7  1  0
 10  3  1  0
 11  6  2  0
 12 19  1  0
 13 12  1  0
 14  8  2  0
 15 12  2  0
  9 16  1  6
 17 11  1  0
 17 18  1  6
 19 22  1  0
 20 14  1  0
 21 17  1  0
 22 20  1  0
 23 24  1  0
 24 25  1  0
 25 21  1  0
 26 23  1  0
  2 27  1  1
  3 28  1  1
  4  9  1  0
 10  8  1  0
M  CHG  2   1   1  13  -1
M  END
> <chembl_id>
CHEMBL962

> <chembl_pref_name>
EPOPROSTENOL SODIUM
