
     RDKit          2D

 44 48  0  0  1  0  0  0  0  0999 V2000
    0.7917    0.8583    0.0000 C   0  0  0  0  0  0  0  0  0  0  0  0
    0.5125    0.2958    0.0000 C   0  0  0  0  0  0  0  0  0  0  0  0
   -0.3958    0.2958    0.0000 C   0  0  0  0  0  0  0  0  0  0  0  0
    0.0625    1.2708    0.0000 O   0  0  0  0  0  0  0  0  0  0  0  0
    1.1167   -0.5792    0.0000 O   0  0  0  0  0  0  0  0  0  0  0  0
   -0.6750    0.8583    0.0000 C   0  0  0  0  0  0  0  0  0  0  0  0
   -0.9083   -0.5667    0.0000 O   0  0  0  0  0  0  0  0  0  0  0  0
    1.8042   -0.7667    0.0000 C   0  0  0  0  0  0  0  0  0  0  0  0
   -0.4708   -1.0917    0.0000 C   0  0  0  0  0  0  0  0  0  0  0  0
    2.1542    2.4333    0.0000 C   0  0  0  0  0  0  0  0  0  0  0  0
   -2.1625    1.1458    0.0000 C   0  0  0  0  0  0  0  0  0  0  0  0
    1.9667   -1.4792    0.0000 C   0  0  0  0  0  0  0  0  0  0  0  0
   -0.7208   -1.7667    0.0000 C   0  0  0  0  0  0  0  0  0  0  0  0
    2.8667    2.4625    0.0000 C   0  0  0  0  0  0  0  0  0  0  0  0
   -2.8958    1.1458    0.0000 C   0  0  0  0  0  0  0  0  0  0  0  0
    1.1542    1.7583    0.0000 C   0  0  0  0  0  0  0  0  0  0  0  0
    1.8500    1.7958    0.0000 O   0  0  0  0  0  0  0  0  0  0  0  0
   -1.8083    1.7583    0.0000 O   0  0  0  0  0  0  0  0  0  0  0  0
   -1.0583    1.7583    0.0000 C   0  0  0  0  0  0  0  0  0  0  0  0
    2.3292   -0.2667    0.0000 O   0  0  0  0  0  0  0  0  0  0  0  0
    0.2375   -0.9875    0.0000 O   0  0  0  0  0  0  0  0  0  0  0  0
    1.7667    3.0250    0.0000 O   0  0  0  0  0  0  0  0  0  0  0  0
   -1.8083    0.5083    0.0000 O   0  0  0  0  0  0  0  0  0  0  0  0
    1.6167   -2.6875    0.0000 N   0  0  0  0  0  0  0  0  0  0  0  0
   -1.7083   -2.5542    0.0000 N   0  0  0  0  0  0  0  0  0  0  0  0
    4.0042    1.8958    0.0000 N   0  0  0  0  0  0  0  0  0  0  0  0
   -3.9875    1.7958    0.0000 N   0  0  0  0  0  0  0  0  0  0  0  0
    1.6167    0.4583    0.0000 O   0  0  0  0  0  0  0  0  0  0  0  0
    1.4417   -2.0042    0.0000 C   0  0  0  0  0  0  0  0  0  0  0  0
   -1.4500   -1.8792    0.0000 C   0  0  0  0  0  0  0  0  0  0  0  0
    3.2917    1.8625    0.0000 C   0  0  0  0  0  0  0  0  0  0  0  0
   -3.2500    1.7958    0.0000 C   0  0  0  0  0  0  0  0  0  0  0  0
   -0.2833   -2.3250    0.0000 C   0  0  0  0  0  0  0  0  0  0  0  0
    2.6625   -1.6917    0.0000 C   0  0  0  0  0  0  0  0  0  0  0  0
   -3.2500    0.5333    0.0000 C   0  0  0  0  0  0  0  0  0  0  0  0
    3.2042    3.1083    0.0000 C   0  0  0  0  0  0  0  0  0  0  0  0
    2.3292   -2.9000    0.0000 C   0  0  0  0  0  0  0  0  0  0  0  0
   -1.2250   -3.1375    0.0000 C   0  0  0  0  0  0  0  0  0  0  0  0
    4.3417    2.5458    0.0000 C   0  0  0  0  0  0  0  0  0  0  0  0
   -4.3458    1.1625    0.0000 C   0  0  0  0  0  0  0  0  0  0  0  0
   -3.9875    0.5333    0.0000 C   0  0  0  0  0  0  0  0  0  0  0  0
    2.8292   -2.4042    0.0000 C   0  0  0  0  0  0  0  0  0  0  0  0
    3.9375    3.1458    0.0000 C   0  0  0  0  0  0  0  0  0  0  0  0
   -0.5333   -3.0000    0.0000 C   0  0  0  0  0  0  0  0  0  0  0  0
  2  1  1  0
  3  2  1  0
  4  1  1  0
  2  5  1  1
  6  4  1  0
  3  7  1  6
  8  5  1  0
  9  7  1  0
 10 17  1  0
 11 18  1  0
 12  8  1  0
 13  9  1  0
 14 10  1  0
 15 11  1  0
  1 16  1  6
 17 16  1  0
 18 19  1  0
  6 19  1  1
 20  8  2  0
 21  9  2  0
 22 10  2  0
 23 11  2  0
 24 29  1  0
 25 30  1  0
 26 31  1  0
 27 32  1  0
 28  1  1  0
 29 12  2  0
 30 13  2  0
 31 14  2  0
 32 15  2  0
 33 13  1  0
 34 12  1  0
 35 15  1  0
 36 14  1  0
 37 42  1  0
 38 44  1  0
 39 43  1  0
 40 41  1  0
 41 35  2  0
 42 34  2  0
 43 36  2  0
 44 33  2  0
  3  6  1  0
 26 39  2  0
 24 37  2  0
 25 38  2  0
 27 40  2  0
M  END
> <chembl_id>
CHEMBL1697844

> <chembl_pref_name>
NICOFURANOSE
