
     RDKit          2D

 33 36  0  0  0  0  0  0  0  0999 V2000
    8.5375   -8.3750    0.0000 N   0  0  0  0  0  0  0  0  0  0  0  0
    8.5375   -6.9542    0.0000 N   0  0  0  0  0  0  0  0  0  0  0  0
    7.9292   -7.3125    0.0000 C   0  0  0  0  0  0  0  0  0  0  0  0
    9.1500   -8.0167    0.0000 C   0  0  0  0  0  0  0  0  0  0  0  0
    9.1500   -7.3125    0.0000 C   0  0  0  0  0  0  0  0  0  0  0  0
    7.9292   -8.0167    0.0000 C   0  0  0  0  0  0  0  0  0  0  0  0
    1.3583   -7.7125    0.0000 S   0  0  0  0  0  0  0  0  0  0  0  0
    5.6625   -5.9375    0.0000 C   0  0  0  0  0  0  0  0  0  0  0  0
    5.6583   -6.6458    0.0000 C   0  0  0  0  0  0  0  0  0  0  0  0
    5.0375   -7.0000    0.0000 C   0  0  0  0  0  0  0  0  0  0  0  0
    4.4250   -6.6417    0.0000 C   0  0  0  0  0  0  0  0  0  0  0  0
    3.8125   -7.0000    0.0000 C   0  0  0  0  0  0  0  0  0  0  0  0
    3.8125   -7.7125    0.0000 C   0  0  0  0  0  0  0  0  0  0  0  0
    6.3375   -5.7250    0.0000 C   0  0  0  0  0  0  0  0  0  0  0  0
    5.0458   -5.5792    0.0000 C   0  0  0  0  0  0  0  0  0  0  0  0
    4.4250   -5.9292    0.0000 C   0  0  0  0  0  0  0  0  0  0  0  0
    6.3292   -6.8708    0.0000 C   0  0  0  0  0  0  0  0  0  0  0  0
    5.0417   -7.7125    0.0000 C   0  0  0  0  0  0  0  0  0  0  0  0
    1.9750   -8.0667    0.0000 O   0  0  0  0  0  0  0  0  0  0  0  0
    3.2000   -6.6458    0.0000 C   0  0  0  0  0  0  0  0  0  0  0  0
    1.7042   -7.0917    0.0000 O   0  0  0  0  0  0  0  0  0  0  0  0
    1.0000   -7.0917    0.0000 O   0  0  0  0  0  0  0  0  0  0  0  0
    3.2000   -8.0667    0.0000 C   0  0  0  0  0  0  0  0  0  0  0  0
    4.4250   -8.0667    0.0000 C   0  0  0  0  0  0  0  0  0  0  0  0
    2.5875   -7.7125    0.0000 C   0  0  0  0  0  0  0  0  0  0  0  0
    6.7500   -6.3000    0.0000 C   0  0  0  0  0  0  0  0  0  0  0  0
    0.7458   -8.0667    0.0000 O   0  0  0  0  0  0  0  0  0  0  0  0
    6.5583   -5.0500    0.0000 O   0  0  0  0  0  0  0  0  0  0  0  0
    2.5875   -7.0000    0.0000 C   0  0  0  0  0  0  0  0  0  0  0  0
    5.6542   -5.2292    0.0000 C   0  0  0  0  0  0  0  0  0  0  0  0
    5.0292   -6.2917    0.0000 H   0  0  0  0  0  0  0  0  0  0  0  0
    5.6542   -7.3542    0.0000 H   0  0  0  0  0  0  0  0  0  0  0  0
    4.4167   -7.3500    0.0000 H   0  0  0  0  0  0  0  0  0  0  0  0
  2  5  1  0
  3  6  1  0
  4  1  1  0
  5  4  1  0
  6  1  1  0
  2  3  1  0
  8 15  1  0
  9 10  1  0
 10 11  1  0
 11 12  1  0
 12 13  1  0
 13 23  2  0
 14  8  1  0
 15 16  1  0
 16 11  1  0
 17  9  1  0
 18 24  1  0
 19  7  1  0
 20 29  1  0
 21  7  2  0
 22  7  2  0
 23 25  1  0
 24 13  1  0
 25 19  1  0
 26 17  1  0
 27  7  1  0
 28 14  2  0
 29 25  2  0
  8 30  1  1
 10 31  1  1
  9 32  1  6
 11 33  1  6
 20 12  2  0
 10 18  1  0
  9  8  1  0
 14 26  1  0
M  END
> <chembl_id>
CHEMBL1200980

> <chembl_pref_name>
ESTROPIPATE
