
     RDKit          2D

 82 88  0  0  0  0  0  0  0  0999 V2000
   17.2494   -7.6630    0.0000 O   0  0  0  0  0  0  0  0  0  0  0  0
   17.9640   -7.2504    0.0000 C   0  0  0  0  0  0  0  0  0  0  0  0
   18.6786   -7.6630    0.0000 C   0  0  0  0  0  0  0  0  0  0  0  0
   19.3931   -7.2504    0.0000 C   0  0  0  0  0  0  0  0  0  0  0  0
   20.1077   -7.6630    0.0000 C   0  0  0  0  0  0  0  0  0  0  0  0
   20.8222   -7.2504    0.0000 O   0  0  0  0  0  0  0  0  0  0  0  0
   20.1077   -8.4881    0.0000 O   0  0  0  0  0  0  0  0  0  0  0  0
   17.9640   -6.4253    0.0000 O   0  0  0  0  0  0  0  0  0  0  0  0
   18.6786   -8.4881    0.0000 O   0  0  0  0  0  0  0  0  0  0  0  0
   19.3931   -6.4253    0.0000 O   0  0  0  0  0  0  0  0  0  0  0  0
   13.6518   -2.0232    0.0000 C   0  0  0  0  0  0  0  0  0  0  0  0
   13.3729   -1.2439    0.0000 C   0  0  0  0  0  0  0  0  0  0  0  0
   13.3061   -4.9522    0.0000 C   0  0  0  0  0  0  0  0  0  0  0  0
   13.6476   -6.3516    0.0000 C   0  0  0  0  0  0  0  0  0  0  0  0
   13.8761   -5.5485    0.0000 C   0  0  0  0  0  0  0  0  0  0  0  0
   12.2892   -5.9638    0.0000 C   0  0  0  0  0  0  0  0  0  0  0  0
   12.5816   -1.0386    0.0000 C   0  0  0  0  0  0  0  0  0  0  0  0
   14.6079   -5.1765    0.0000 N   0  0  0  0  0  0  0  0  0  0  0  0
   12.5115   -5.1650    0.0000 C   0  0  0  0  0  0  0  0  0  0  0  0
   14.4948   -4.3569    0.0000 C   0  0  0  0  0  0  0  0  0  0  0  0
   12.8551   -6.5541    0.0000 C   0  0  0  0  0  0  0  0  0  0  0  0
   13.6869   -4.2177    0.0000 C   0  0  0  0  0  0  0  0  0  0  0  0
   13.9308   -2.8026    0.0000 C   0  0  0  0  0  0  0  0  0  0  0  0
   13.8120   -0.5408    0.0000 N   0  0  0  0  0  0  0  0  0  0  0  0
   15.0187   -3.7159    0.0000 C   0  0  0  0  0  0  0  0  0  0  0  0
   10.8636   -2.7985    0.0000 C   0  0  0  0  0  0  0  0  0  0  0  0
   11.1074   -1.3834    0.0000 N   0  0  0  0  0  0  0  0  0  0  0  0
   12.5339   -0.2091    0.0000 C   0  0  0  0  0  0  0  0  0  0  0  0
   13.4080   -3.4382    0.0000 C   0  0  0  0  0  0  0  0  0  0  0  0
   11.9465   -4.5694    0.0000 N   0  0  0  0  0  0  0  0  0  0  0  0
   14.9661   -1.0998    0.0000 C   0  0  0  0  0  0  0  0  0  0  0  0
   14.2775   -6.8788    0.0000 C   0  0  0  0  0  0  0  0  0  0  0  0
   14.7386   -2.9417    0.0000 C   0  0  0  0  0  0  0  0  0  0  0  0
   13.2960    0.0941    0.0000 C   0  0  0  0  0  0  0  0  0  0  0  0
   10.0501   -2.8754    0.0000 C   0  0  0  0  0  0  0  0  0  0  0  0
   11.7737   -0.8994    0.0000 C   0  0  0  0  0  0  0  0  0  0  0  0
   13.1932   -4.0690    0.0000 C   0  0  0  0  0  0  0  0  0  0  0  0
   12.9855   -2.5072    0.0000 C   0  0  0  0  0  0  0  0  0  0  0  0
   12.3313   -7.1950    0.0000 O   0  0  0  0  0  0  0  0  0  0  0  0
   10.5845   -2.0192    0.0000 C   0  0  0  0  0  0  0  0  0  0  0  0
   11.4965   -6.1663    0.0000 C   0  0  0  0  0  0  0  0  0  0  0  0
   12.1901   -2.2959    0.0000 C   0  0  0  0  0  0  0  0  0  0  0  0
   11.6663   -2.9369    0.0000 C   0  0  0  0  0  0  0  0  0  0  0  0
   12.7971   -7.8741    0.0000 C   0  0  0  0  0  0  0  0  0  0  0  0
   12.4210   -3.8458    0.0000 C   0  0  0  0  0  0  0  0  0  0  0  0
   14.4185   -6.0605    0.0000 O   0  0  0  0  0  0  0  0  0  0  0  0
   11.9103   -1.5218    0.0000 C   0  0  0  0  0  0  0  0  0  0  0  0
   10.9255   -5.5751    0.0000 C   0  0  0  0  0  0  0  0  0  0  0  0
   13.9298   -7.6348    0.0000 O   0  0  0  0  0  0  0  0  0  0  0  0
   15.7741   -1.2391    0.0000 O   0  0  0  0  0  0  0  0  0  0  0  0
   13.6051   -8.0134    0.0000 O   0  0  0  0  0  0  0  0  0  0  0  0
   11.9423   -6.7146    0.0000 C   0  0  0  0  0  0  0  0  0  0  0  0
   15.3477   -5.5265    0.0000 C   0  0  0  0  0  0  0  0  0  0  0  0
    9.5782   -2.2007    0.0000 F   0  0  0  0  0  0  0  0  0  0  0  0
    9.2844   -3.1676    0.0000 F   0  0  0  0  0  0  0  0  0  0  0  0
   11.1531   -4.7771    0.0000 C   0  0  0  0  0  0  0  0  0  0  0  0
   15.0917   -6.7966    0.0000 O   0  0  0  0  0  0  0  0  0  0  0  0
   14.8918   -0.2710    0.0000 O   0  0  0  0  0  0  0  0  0  0  0  0
   15.4049   -2.4579    0.0000 O   0  0  0  0  0  0  0  0  0  0  0  0
   11.8962    0.3035    0.0000 C   0  0  0  0  0  0  0  0  0  0  0  0
    9.9091   -3.6936    0.0000 C   0  0  0  0  0  0  0  0  0  0  0  0
   13.4165    0.9158    0.0000 C   0  0  0  0  0  0  0  0  0  0  0  0
   12.2412   -8.5784    0.0000 C   0  0  0  0  0  0  0  0  0  0  0  0
   16.2129   -2.5971    0.0000 C   0  0  0  0  0  0  0  0  0  0  0  0
   15.5111   -7.6530    0.0000 C   0  0  0  0  0  0  0  0  0  0  0  0
   15.5623    0.2068    0.0000 C   0  0  0  0  0  0  0  0  0  0  0  0
   11.1767   -7.0068    0.0000 C   0  0  0  0  0  0  0  0  0  0  0  0
   12.0157    1.1200    0.0000 C   0  0  0  0  0  0  0  0  0  0  0  0
   12.7746    1.4344    0.0000 C   0  0  0  0  0  0  0  0  0  0  0  0
   12.5028   -3.2618    0.0000 H   0  0  0  0  0  0  0  0  0  0  0  0
   11.5263   -5.4100    0.0000 H   0  0  0  0  0  0  0  0  0  0  0  0
   14.6599   -6.1938    0.0000 H   0  0  0  0  0  0  0  0  0  0  0  0
   17.1023   -4.8326    0.0000 O   0  0  0  0  0  0  0  0  0  0  0  0
   17.8169   -4.4201    0.0000 C   0  0  0  0  0  0  0  0  0  0  0  0
   18.5315   -4.8326    0.0000 C   0  0  0  0  0  0  0  0  0  0  0  0
   19.2459   -4.4201    0.0000 C   0  0  0  0  0  0  0  0  0  0  0  0
   19.9605   -4.8326    0.0000 C   0  0  0  0  0  0  0  0  0  0  0  0
   20.6751   -4.4201    0.0000 O   0  0  0  0  0  0  0  0  0  0  0  0
   19.9605   -5.6577    0.0000 O   0  0  0  0  0  0  0  0  0  0  0  0
   17.8169   -3.5950    0.0000 O   0  0  0  0  0  0  0  0  0  0  0  0
   18.5315   -5.6577    0.0000 O   0  0  0  0  0  0  0  0  0  0  0  0
   19.2459   -3.5950    0.0000 O   0  0  0  0  0  0  0  0  0  0  0  0
  1  2  1  0
  2  3  1  0
  3  4  1  0
  4  5  1  0
  5  6  1  0
  5  7  2  0
  2  8  2  0
  3  9  1  0
  4 10  1  0
 34 24  1  0
 26 35  1  1
 36 17  1  0
 13 37  1  6
 38 11  1  0
 21 39  1  6
 40 26  1  0
 41 16  1  0
 42 38  1  0
 43 42  1  0
 44 39  1  0
 45 37  1  0
 14 46  1  6
 47 42  1  0
 48 56  1  0
 49 32  2  0
 50 31  2  0
 51 44  2  0
 16 52  1  1
 53 18  1  0
 54 35  1  0
 55 35  1  0
 56 30  1  0
 57 32  1  0
 58 31  1  0
 59 33  1  0
 60 28  1  0
 61 35  1  0
 62 34  1  0
 63 44  1  0
 64 59  1  0
 65 57  1  0
 66 58  1  0
 67 52  1  0
 68 60  2  0
 69 62  2  0
 42 70  1  1
 27 36  1  0
 28 34  2  0
 22 20  2  0
 27 40  1  0
 69 68  1  0
 15 18  1  0
 45 30  1  0
 21 14  1  0
 41 48  2  0
 12 11  1  0
 13 22  1  0
 14 15  1  0
 15 13  1  0
 16 19  1  0
 17 12  2  0
 18 20  1  0
 19 13  1  0
 20 25  1  0
 21 16  1  0
 22 29  1  0
 11 23  1  1
 24 12  1  0
 25 33  2  0
 26 43  1  0
 27 47  1  0
 28 17  1  0
 29 23  2  0
 30 19  1  0
 11 31  1  0
 14 32  1  0
 33 23  1  0
 19 71  1  1
 15 72  1  6
 73 74  1  0
 74 75  1  0
 75 76  1  0
 76 77  1  0
 77 78  1  0
 77 79  2  0
 74 80  2  0
 75 81  1  0
 76 82  1  0
M  END
> <chembl_id>
CHEMBL2105629

> <chembl_pref_name>
VINFLUNINE DITARTRATE
