
     RDKit          2D

 26 29  0  0  1  0  0  0  0  0999 V2000
    4.0542   -5.2667    0.0000 C   0  0  0  0  0  0  0  0  0  0  0  0
    5.9000   -4.2250    0.0000 C   0  0  0  0  0  0  0  0  0  0  0  0
    4.6917   -4.9250    0.0000 C   0  0  0  0  0  0  0  0  0  0  0  0
    5.9000   -4.9167    0.0000 C   0  0  0  0  0  0  0  0  0  0  0  0
    5.3000   -5.2750    0.0000 C   0  0  0  0  0  0  0  0  0  0  0  0
    4.0542   -5.9750    0.0000 C   0  0  0  0  0  0  0  0  0  0  0  0
    6.5250   -4.0292    0.0000 C   0  0  0  0  0  0  0  0  0  0  0  0
    3.4542   -4.8917    0.0000 C   0  0  0  0  0  0  0  0  0  0  0  0
    5.3000   -3.8792    0.0000 C   0  0  0  0  0  0  0  0  0  0  0  0
    2.8167   -5.9500    0.0000 C   0  0  0  0  0  0  0  0  0  0  0  0
    2.8167   -5.2542    0.0000 O   0  0  0  0  0  0  0  0  0  0  0  0
    4.6917   -4.2167    0.0000 C   0  0  0  0  0  0  0  0  0  0  0  0
    6.5542   -5.1167    0.0000 C   0  0  0  0  0  0  0  0  0  0  0  0
    5.3000   -5.9792    0.0000 C   0  0  0  0  0  0  0  0  0  0  0  0
    3.4292   -6.3167    0.0000 C   0  0  0  0  0  0  0  0  0  0  0  0
    4.6750   -6.3417    0.0000 C   0  0  0  0  0  0  0  0  0  0  0  0
    6.9417   -4.5792    0.0000 C   0  0  0  0  0  0  0  0  0  0  0  0
    2.1917   -6.2667    0.0000 O   0  0  0  0  0  0  0  0  0  0  0  0
    7.1500   -3.6875    0.0000 O   0  0  0  0  0  0  0  0  0  0  0  0
    4.0542   -4.4792    0.0000 C   0  0  0  0  0  0  0  0  0  0  0  0
    5.9000   -3.5167    0.0000 C   0  0  0  0  0  0  0  0  0  0  0  0
    6.5250   -3.3500    0.0000 C   0  0  0  0  0  0  0  0  0  0  0  0
    5.3000   -4.5000    0.0000 H   0  0  0  0  0  0  0  0  0  0  0  0
    4.6792   -5.6417    0.0000 H   0  0  0  0  0  0  0  0  0  0  0  0
    5.8917   -5.6917    0.0000 H   0  0  0  0  0  0  0  0  0  0  0  0
    4.0542   -6.6792    0.0000 H   0  0  0  0  0  0  0  0  0  0  0  0
  2  9  1  0
  3  1  1  0
  4  5  1  0
  5  3  1  0
  6  1  1  0
  7  2  1  0
  8  1  1  0
  9 12  1  0
 10 11  1  0
 11  8  1  0
 12  3  1  0
 13  4  1  0
 14 16  1  0
 15  6  1  0
 16  6  1  0
 17 13  1  0
 18 10  2  0
  7 19  1  1
  1 20  1  1
  2 21  1  1
 22  7  1  0
  5 23  1  1
  3 24  1  6
  4 25  1  6
  6 26  1  6
 10 15  1  0
 14  5  1  0
  2  4  1  0
 17  7  1  0
M  END
> <chembl_id>
CHEMBL1200436

> <chembl_pref_name>
OXANDROLONE
