
     RDKit          2D

 17 18  0  0  0  0  0  0  0  0999 V2000
   -1.1216   -0.7811    0.0000 C   0  0  0  0  0  0  0  0  0  0  0  0
   -1.1216    0.0667    0.0000 C   0  0  0  0  0  0  0  0  0  0  0  0
   -1.8492   -1.1816    0.0000 N   0  0  0  0  0  0  0  0  0  0  0  0
   -2.5736    0.0467    0.0000 N   0  0  0  0  0  0  0  0  0  0  0  0
   -2.5736   -0.7544    0.0000 C   0  0  0  0  0  0  0  0  0  0  0  0
   -1.8492    0.4673    0.0000 C   0  0  0  0  0  0  0  0  0  0  0  0
   -0.3405   -1.0314    0.0000 N   0  0  0  0  0  0  0  0  0  0  0  0
   -0.3405    0.3204    0.0000 N   0  0  0  0  0  0  0  0  0  0  0  0
    0.1302   -0.3538    0.0000 C   0  0  0  0  0  0  0  0  0  0  0  0
   -0.0667    1.1216    0.0000 C   0  0  0  0  0  0  0  0  0  0  0  0
   -3.3313   -1.1550    0.0000 O   0  0  0  0  0  0  0  0  0  0  0  0
   -1.8592    1.2484    0.0000 O   0  0  0  0  0  0  0  0  0  0  0  0
    0.7544    1.2984    0.0000 C   0  0  0  0  0  0  0  0  0  0  0  0
    1.0048    2.0995    0.0000 O   0  0  0  0  0  0  0  0  0  0  0  0
   -1.8592   -1.9861    0.0000 C   0  0  0  0  0  0  0  0  0  0  0  0
   -3.3313    0.4673    0.0000 C   0  0  0  0  0  0  0  0  0  0  0  0
    1.3118    0.6976    0.0000 O   0  0  0  0  0  0  0  0  0  0  0  0
  2  1  2  0
  3  1  1  0
  4  5  1  0
  5  3  1  0
  6  2  1  0
  7  1  1  0
  8  2  1  0
  9  7  2  0
 10  8  1  0
 11  5  2  0
 12  6  2  0
 13 10  1  0
 14 13  2  0
 15  3  1  0
 16  4  1  0
 17 13  1  0
  6  4  1  0
  8  9  1  0
M  END
> <chembl_id>
CHEMBL70246

> <chembl_pref_name>
ACEFYLLINE
