
     RDKit          2D

  8  8  0  0  0  0  0  0  0  0999 V2000
   14.5196  -15.2130    0.0000 C   0  0  0  0  0  0  0  0  0  0  0  0
   14.1110  -14.5072    0.0000 O   0  0  0  0  0  0  0  0  0  0  0  0
   15.2253  -15.6216    0.0000 P   0  0  0  0  0  0  0  0  0  0  0  0
   13.7024  -15.2130    0.0000 C   0  0  0  0  0  0  0  0  0  0  0  0
   14.8168  -16.3356    0.0000 O   0  0  0  0  0  0  0  0  0  0  0  0
   15.9435  -16.0302    0.0000 O   0  0  0  0  0  0  0  0  0  0  0  0
   15.6339  -14.9158    0.0000 O   0  0  0  0  0  0  0  0  0  0  0  0
   12.9966  -15.6216    0.0000 C   0  0  0  0  0  0  0  0  0  0  0  0
  2  1  1  0
  1  3  1  6
  4  1  1  0
  5  3  2  0
  6  3  1  0
  7  3  1  0
  4  8  1  6
  4  2  1  0
M  END
> <chembl_id>
CHEMBL1757

> <chembl_pref_name>
FOSFOMYCIN
