
     RDKit          2D

 59 63  0  0  0  0  0  0  0  0999 V2000
    8.3750  -22.8792    0.0000 C   0  0  0  0  0  0  0  0  0  0  0  0
   10.5500  -21.6250    0.0000 C   0  0  0  0  0  0  0  0  0  0  0  0
   10.5500  -22.4667    0.0000 C   0  0  0  0  0  0  0  0  0  0  0  0
    7.6625  -22.4667    0.0000 C   0  0  0  0  0  0  0  0  0  0  0  0
    9.0875  -21.6250    0.0000 C   0  0  0  0  0  0  0  0  0  0  0  0
    9.0875  -22.4667    0.0000 C   0  0  0  0  0  0  0  0  0  0  0  0
    7.1917  -23.6833    0.0000 C   0  0  0  0  0  0  0  0  0  0  0  0
   11.2667  -21.2083    0.0000 N   0  0  0  0  0  0  0  0  0  0  0  0
    7.0250  -22.8792    0.0000 O   0  0  0  0  0  0  0  0  0  0  0  0
    9.8292  -21.2083    0.0000 C   0  0  0  0  0  0  0  0  0  0  0  0
    9.8292  -22.8792    0.0000 C   0  0  0  0  0  0  0  0  0  0  0  0
    8.3750  -21.2083    0.0000 C   0  0  0  0  0  0  0  0  0  0  0  0
    8.1542  -23.6833    0.0000 C   0  0  0  0  0  0  0  0  0  0  0  0
    7.6625  -21.6250    0.0000 C   0  0  0  0  0  0  0  0  0  0  0  0
    6.9333  -20.3792    0.0000 C   0  0  0  0  0  0  0  0  0  0  0  0
   11.2667  -20.3792    0.0000 C   0  0  0  0  0  0  0  0  0  0  0  0
    7.6625  -19.9375    0.0000 C   0  0  0  0  0  0  0  0  0  0  0  0
    8.3750  -18.7500    0.0000 C   0  0  0  0  0  0  0  0  0  0  0  0
    7.6625  -19.1208    0.0000 C   0  0  0  0  0  0  0  0  0  0  0  0
   11.2667  -22.8792    0.0000 C   0  0  0  0  0  0  0  0  0  0  0  0
    6.9333  -21.2083    0.0000 C   0  0  0  0  0  0  0  0  0  0  0  0
   12.6917  -22.8792    0.0000 N   0  0  0  0  0  0  0  0  0  0  0  0
    9.0875  -19.1208    0.0000 C   0  0  0  0  0  0  0  0  0  0  0  0
   11.9667  -22.4667    0.0000 N   0  0  0  0  0  0  0  0  0  0  0  0
   12.0083  -19.9375    0.0000 C   0  0  0  0  0  0  0  0  0  0  0  0
    6.2500  -23.6833    0.0000 O   0  0  0  0  0  0  0  0  0  0  0  0
    6.2375  -19.9417    0.0000 O   0  0  0  0  0  0  0  0  0  0  0  0
   14.1083  -23.7125    0.0000 N   0  0  0  0  0  0  0  0  0  0  0  0
    5.8917  -23.0750    0.0000 C   0  0  0  0  0  0  0  0  0  0  0  0
    5.4125  -19.9417    0.0000 C   0  0  0  0  0  0  0  0  0  0  0  0
    6.2250  -22.4667    0.0000 C   0  0  0  0  0  0  0  0  0  0  0  0
    6.2250  -21.6250    0.0000 C   0  0  0  0  0  0  0  0  0  0  0  0
   11.2667  -18.7500    0.0000 C   0  0  0  0  0  0  0  0  0  0  0  0
    8.5625  -24.3875    0.0000 O   0  0  0  0  0  0  0  0  0  0  0  0
   12.0083  -19.1208    0.0000 C   0  0  0  0  0  0  0  0  0  0  0  0
   10.5500  -19.9667    0.0000 O   0  0  0  0  0  0  0  0  0  0  0  0
   12.6833  -23.7000    0.0000 C   0  0  0  0  0  0  0  0  0  0  0  0
   13.3958  -22.4667    0.0000 C   0  0  0  0  0  0  0  0  0  0  0  0
    9.8292  -18.7500    0.0000 C   0  0  0  0  0  0  0  0  0  0  0  0
   10.5500  -19.1208    0.0000 C   0  0  0  0  0  0  0  0  0  0  0  0
    4.9708  -19.2458    0.0000 O   0  0  0  0  0  0  0  0  0  0  0  0
    9.8292  -20.3833    0.0000 O   0  0  0  0  0  0  0  0  0  0  0  0
    9.8292  -23.7000    0.0000 O   0  0  0  0  0  0  0  0  0  0  0  0
    8.3750  -20.3833    0.0000 O   0  0  0  0  0  0  0  0  0  0  0  0
   14.1083  -22.8917    0.0000 C   0  0  0  0  0  0  0  0  0  0  0  0
   13.3875  -24.1125    0.0000 C   0  0  0  0  0  0  0  0  0  0  0  0
    6.9333  -18.7458    0.0000 O   0  0  0  0  0  0  0  0  0  0  0  0
    9.0875  -19.9417    0.0000 O   0  0  0  0  0  0  0  0  0  0  0  0
    7.1917  -24.5083    0.0000 C   0  0  0  0  0  0  0  0  0  0  0  0
    7.6625  -20.8042    0.0000 C   0  0  0  0  0  0  0  0  0  0  0  0
    8.3750  -19.5208    0.0000 C   0  0  0  0  0  0  0  0  0  0  0  0
    8.3750  -17.9292    0.0000 C   0  0  0  0  0  0  0  0  0  0  0  0
    5.5083  -21.2208    0.0000 O   0  0  0  0  0  0  0  0  0  0  0  0
    6.9333  -22.0292    0.0000 C   0  0  0  0  0  0  0  0  0  0  0  0
   14.8167  -24.1292    0.0000 C   0  0  0  0  0  0  0  0  0  0  0  0
   12.7250  -20.3417    0.0000 C   0  0  0  0  0  0  0  0  0  0  0  0
    5.0125  -20.6583    0.0000 C   0  0  0  0  0  0  0  0  0  0  0  0
    9.8292  -17.9292    0.0000 C   0  0  0  0  0  0  0  0  0  0  0  0
    4.7917  -21.6292    0.0000 C   0  0  0  0  0  0  0  0  0  0  0  0
  2  3  1  0
  3 11  2  0
  4  1  2  0
  5  6  2  0
  6  1  1  0
  7 13  1  0
  8  2  1  0
  9  4  1  0
 10  5  1  0
 11  6  1  0
 12  5  1  0
 13  1  1  0
 14  4  1  0
 15 21  1  0
 16  8  1  0
 17 15  1  0
 18 19  1  0
 19 17  1  0
 20  3  1  0
 21 32  1  0
 22 24  1  0
 23 18  1  0
 24 20  2  0
 25 16  1  0
 26  7  1  0
 15 27  1  1
 28 45  1  0
 29 26  1  0
 30 27  1  0
 31 29  2  0
 32 31  1  0
 33 35  1  0
 34 13  2  0
 35 25  2  0
 36 16  2  0
 37 22  1  0
 38 22  1  0
 39 40  1  0
 40 33  2  0
 41 30  2  0
 42 10  1  0
 43 11  1  0
 44 12  1  0
 45 38  1  0
 46 37  1  0
 19 47  1  6
 23 48  1  6
  7 49  1  6
 50 14  1  0
 17 51  1  1
 18 52  1  6
 32 53  1  6
 21 54  1  6
 55 28  1  0
 56 25  1  0
 57 30  1  0
 39 58  1  1
 59 53  1  0
 12 14  2  0
  7  9  1  0
  2 10  2  0
 28 46  1  0
 23 39  1  0
M  END
> <chembl_id>
CHEMBL374478

> <chembl_pref_name>
RIFAMPIN
