
     RDKit          2D

 29 30  0  0  0  0  0  0  0  0999 V2000
    6.4286   -7.6824    0.0000 O   0  0  0  0  0  0  0  0  0  0  0  0
    6.3188   -6.1554    0.0000 Cl  0  0  0  0  0  0  0  0  0  0  0  0
    2.9529   -7.0071    0.0000 C   0  0  0  0  0  0  0  0  0  0  0  0
    3.3671   -6.2908    0.0000 C   0  0  0  0  0  0  0  0  0  0  0  0
    2.1246   -7.0071    0.0000 C   0  0  0  0  0  0  0  0  0  0  0  0
    3.3525   -7.7234    0.0000 C   0  0  0  0  0  0  0  0  0  0  0  0
    1.7153   -7.7234    0.0000 C   0  0  0  0  0  0  0  0  0  0  0  0
    2.5047   -8.1327    0.0000 O   0  0  0  0  0  0  0  0  0  0  0  0
    2.9578   -5.5842    0.0000 C   0  0  0  0  0  0  0  0  0  0  0  0
    1.7153   -6.2908    0.0000 C   0  0  0  0  0  0  0  0  0  0  0  0
    3.3671   -4.8679    0.0000 N   0  0  0  0  0  0  0  0  0  0  0  0
    2.1246   -5.5745    0.0000 C   0  0  0  0  0  0  0  0  0  0  0  0
    2.5339   -6.2859    0.0000 C   0  0  0  0  0  0  0  0  0  0  0  0
    4.1858   -6.3005    0.0000 C   0  0  0  0  0  0  0  0  0  0  0  0
    4.1809   -7.7234    0.0000 C   0  0  0  0  0  0  0  0  0  0  0  0
    0.8917   -7.7234    0.0000 C   0  0  0  0  0  0  0  0  0  0  0  0
    2.5436   -4.8679    0.0000 C   0  0  0  0  0  0  0  0  0  0  0  0
    0.8917   -6.2908    0.0000 C   0  0  0  0  0  0  0  0  0  0  0  0
    4.5951   -7.0168    0.0000 C   0  0  0  0  0  0  0  0  0  0  0  0
    3.8420   -5.6720    0.0000 O   0  0  0  0  0  0  0  0  0  0  0  0
    4.5902   -8.4494    0.0000 O   0  0  0  0  0  0  0  0  0  0  0  0
    0.4824   -7.0071    0.0000 C   0  0  0  0  0  0  0  0  0  0  0  0
    4.7997   -4.8679    0.0000 C   0  0  0  0  0  0  0  0  0  0  0  0
    5.5257   -4.4489    0.0000 C   0  0  0  0  0  0  0  0  0  0  0  0
    4.0834   -4.4489    0.0000 C   0  0  0  0  0  0  0  0  0  0  0  0
    0.4727   -8.4397    0.0000 O   0  0  0  0  0  0  0  0  0  0  0  0
    3.7039   -5.1535    0.0000 H   0  0  0  0  0  0  0  0  0  0  0  0
    3.6133   -8.8634    0.0000 H   0  0  0  0  0  0  0  0  0  0  0  0
    6.4286   -6.9529    0.0000 O   0  0  0  0  0  0  0  0  0  0  0  0
  4  3  1  0
  5  3  1  0
  6  3  1  0
  7  5  1  0
  6  8  1  0
  9  4  1  0
 10  5  2  0
 11 17  1  0
 12 10  1  0
  3 13  1  1
 14  4  1  0
 15  6  1  0
 16  7  2  0
 17 13  1  0
 18 10  1  0
 19 15  1  0
  4 20  1  1
 21 15  2  0
 22 18  2  0
 23 25  1  0
 24 23  2  0
 25 11  1  0
 26 16  1  0
  8  7  1  0
  9 11  1  0
 19 14  1  0
 12  9  1  0
 22 16  1  0
  9 27  1  6
  6 28  1  1
M  END
> <chembl_id>
CHEMBL5315056

> <chembl_pref_name>
NALOXONE HYDROCHLORIDE DIHYDRATE
