
     RDKit          2D

 57 60  0  0  1  0  0  0  0  0999 V2000
   24.9294  -15.5785    0.0000 C   0  0  0  0  0  0  0  0  0  0  0  0
   25.6438  -15.1660    0.0000 C   0  0  0  0  0  0  0  0  0  0  0  0
   24.9294  -13.9285    0.0000 C   0  0  0  0  0  0  0  0  0  0  0  0
   24.2149  -14.3410    0.0000 C   0  0  0  0  0  0  0  0  0  0  0  0
   24.2149  -15.1660    0.0000 C   0  0  0  0  0  0  0  0  0  0  0  0
   27.0728  -14.3409    0.0000 C   0  0  0  0  0  0  0  0  0  0  0  0
   27.0728  -15.1659    0.0000 C   0  0  0  0  0  0  0  0  0  0  0  0
   26.3583  -15.5785    0.0000 C   0  0  0  0  0  0  0  0  0  0  0  0
   24.9294  -13.1034    0.0000 O   0  0  0  0  0  0  0  0  0  0  0  0
   25.6438  -12.6909    0.0000 C   0  0  0  0  0  0  0  0  0  0  0  0
   26.3583  -13.1034    0.0000 C   0  0  0  0  0  0  0  0  0  0  0  0
   27.0728  -12.6909    0.0000 C   0  0  0  0  0  0  0  0  0  0  0  0
   27.7872  -13.1034    0.0000 C   0  0  0  0  0  0  0  0  0  0  0  0
   27.7873  -13.9284    0.0000 C   0  0  0  0  0  0  0  0  0  0  0  0
   23.5004  -13.9285    0.0000 C   0  0  0  0  0  0  0  0  0  0  0  0
   23.5004  -15.5785    0.0000 O   0  0  0  0  0  0  0  0  0  0  0  0
   22.7859  -15.1660    0.0000 C   0  0  0  0  0  0  0  0  0  0  0  0
   22.0715  -15.5785    0.0000 C   0  0  0  0  0  0  0  0  0  0  0  0
   22.7859  -14.3410    0.0000 O   0  0  0  0  0  0  0  0  0  0  0  0
   24.9294  -16.4035    0.0000 C   0  0  0  0  0  0  0  0  0  0  0  0
   25.6438  -14.3410    0.0000 O   0  0  0  0  0  0  0  0  0  0  0  0
   24.9707  -14.9213    0.0000 C   0  0  0  0  0  0  0  0  0  0  0  0
   25.6438  -11.8659    0.0000 O   0  0  0  0  0  0  0  0  0  0  0  0
   25.7749  -13.6868    0.0000 C   0  0  0  0  0  0  0  0  0  0  0  0
   26.6603  -13.6265    0.0000 C   0  0  0  0  0  0  0  0  0  0  0  0
   28.5018  -14.3408    0.0000 O   0  0  0  0  0  0  0  0  0  0  0  0
   28.5018  -15.1658    0.0000 C   0  0  0  0  0  0  0  0  0  0  0  0
   27.7873  -15.5784    0.0000 O   0  0  0  0  0  0  0  0  0  0  0  0
   27.7873  -16.4034    0.0000 C   0  0  0  0  0  0  0  0  0  0  0  0
   28.5018  -16.8159    0.0000 C   0  0  0  0  0  0  0  0  0  0  0  0
   29.2162  -16.4034    0.0000 C   0  0  0  0  0  0  0  0  0  0  0  0
   29.2162  -15.5784    0.0000 C   0  0  0  0  0  0  0  0  0  0  0  0
   27.0728  -16.8159    0.0000 C   0  0  0  0  0  0  0  0  0  0  0  0
   29.9307  -16.8159    0.0000 N   0  0  0  0  0  0  0  0  0  0  0  0
   30.6452  -16.4034    0.0000 C   0  0  0  0  0  0  0  0  0  0  0  0
   29.9307  -17.6409    0.0000 C   0  0  0  0  0  0  0  0  0  0  0  0
   25.9458  -16.2930    0.0000 C   0  0  0  0  0  0  0  0  0  0  0  0
   26.7708  -16.2930    0.0000 O   0  0  0  0  0  0  0  0  0  0  0  0
   29.9307  -15.1659    0.0000 O   0  0  0  0  0  0  0  0  0  0  0  0
   29.9307  -14.3409    0.0000 C   0  0  0  0  0  0  0  0  0  0  0  0
   30.6452  -13.9284    0.0000 C   0  0  0  0  0  0  0  0  0  0  0  0
   29.2162  -13.9284    0.0000 O   0  0  0  0  0  0  0  0  0  0  0  0
   28.5017  -12.6909    0.0000 C   0  0  0  0  0  0  0  0  0  0  0  0
   27.0727  -11.8659    0.0000 O   0  0  0  0  0  0  0  0  0  0  0  0
   27.7872  -11.4534    0.0000 C   0  0  0  0  0  0  0  0  0  0  0  0
   28.5017  -11.8658    0.0000 C   0  0  0  0  0  0  0  0  0  0  0  0
   29.2161  -11.4533    0.0000 C   0  0  0  0  0  0  0  0  0  0  0  0
   29.2161  -10.6283    0.0000 C   0  0  0  0  0  0  0  0  0  0  0  0
   28.5016  -10.2158    0.0000 C   0  0  0  0  0  0  0  0  0  0  0  0
   27.7872  -10.6284    0.0000 O   0  0  0  0  0  0  0  0  0  0  0  0
   28.5016   -9.3908    0.0000 C   0  0  0  0  0  0  0  0  0  0  0  0
   29.9306  -10.2158    0.0000 O   0  0  0  0  0  0  0  0  0  0  0  0
   29.9306   -9.3908    0.0000 C   0  0  0  0  0  0  0  0  0  0  0  0
   30.6451   -8.9783    0.0000 C   0  0  0  0  0  0  0  0  0  0  0  0
   29.2161   -8.9783    0.0000 O   0  0  0  0  0  0  0  0  0  0  0  0
   29.9306  -11.8658    0.0000 O   0  0  0  0  0  0  0  0  0  0  0  0
   30.6451  -11.4533    0.0000 C   0  0  0  0  0  0  0  0  0  0  0  0
  1  2  1  0
  3  4  1  0
  4  5  1  0
  5  1  1  0
  8  2  1  0
  6  7  1  0
  8  7  1  1
  3  9  1  0
  9 10  1  0
 10 11  1  0
 11 12  1  0
 14  6  1  0
 12 13  1  0
 13 14  1  0
  4 15  1  1
  5 16  1  1
 16 17  1  0
 17 18  1  0
 17 19  2  0
  1 20  1  6
  2 21  2  0
  3 22  1  6
 10 23  2  0
 11 24  1  1
  6 25  1  6
 14 26  1  1
 27 26  1  1
 27 28  1  0
 32 27  1  0
 28 29  1  0
 29 30  1  0
 30 31  1  0
 31 32  1  0
 29 33  1  1
 31 34  1  1
 34 35  1  0
 34 36  1  0
  8 37  1  0
  8 38  1  0
 37 38  1  0
 32 39  1  6
 39 40  1  0
 40 41  1  0
 40 42  2  0
 13 43  1  6
 12 44  1  1
 45 44  1  6
 45 46  1  0
 50 45  1  0
 46 47  1  0
 47 48  1  0
 48 49  1  0
 49 50  1  0
 49 51  1  1
 48 52  1  6
 52 53  1  0
 53 54  1  0
 53 55  2  0
 47 56  1  1
 56 57  1  0
M  END
> <chembl_id>
CHEMBL564085

> <chembl_pref_name>
TROLEANDOMYCIN
