
     RDKit          2D

 18 19  0  0  0  0  0  0  0  0999 V2000
    6.0167   -6.6875    0.0000 K   0  0  0  0  0 15  0  0  0  0  0  0
    3.6667   -5.9042    0.0000 N   0  0  0  0  0  0  0  0  0  0  0  0
    4.9042   -5.9042    0.0000 C   0  0  0  0  0  0  0  0  0  0  0  0
    4.2792   -5.5292    0.0000 C   0  0  0  0  0  0  0  0  0  0  0  0
    3.6667   -6.6167    0.0000 C   0  0  0  0  0  0  0  0  0  0  0  0
    4.2792   -6.9667    0.0000 N   0  0  0  0  0  0  0  0  0  0  0  0
    5.4917   -5.5292    0.0000 C   0  0  0  0  0  0  0  0  0  0  0  0
    4.9042   -6.6167    0.0000 C   0  0  0  0  0  0  0  0  0  0  0  0
    6.0625   -5.9875    0.0000 N   0  0  0  0  0  0  0  0  0  0  0  0
    6.6417   -5.5667    0.0000 N   0  0  0  0  0  0  0  0  0  0  0  0
    6.4292   -4.8875    0.0000 N   0  0  0  0  0  0  0  0  0  0  0  0
    5.7292   -4.8875    0.0000 N   0  0  0  0  0  0  0  0  0  0  0  0
    3.0500   -6.9667    0.0000 C   0  0  0  0  0  0  0  0  0  0  0  0
    3.0500   -5.5292    0.0000 C   0  0  0  0  0  0  0  0  0  0  0  0
    4.2792   -4.8500    0.0000 O   0  0  0  0  0  0  0  0  0  0  0  0
    2.4417   -5.9042    0.0000 C   0  0  0  0  0  0  0  0  0  0  0  0
    2.4417   -6.6167    0.0000 C   0  0  0  0  0  0  0  0  0  0  0  0
    3.0500   -7.6792    0.0000 C   0  0  0  0  0  0  0  0  0  0  0  0
  3  4  1  0
  4  2  1  0
  5  2  1  0
  6  5  2  0
  7  3  1  0
  8  6  1  0
  9  7  1  0
 10  9  1  0
 11 12  1  0
 12  7  2  0
 13  5  1  0
 14  2  1  0
 15  4  2  0
 16 14  2  0
 17 16  1  0
 18 13  1  0
 17 13  2  0
  8  3  2  0
 10 11  2  0
M  CHG  2   1   1   9  -1
M  END
> <chembl_id>
CHEMBL1201050

> <chembl_pref_name>
PEMIROLAST POTASSIUM
