
     RDKit          2D

 30 32  0  0  0  0  0  0  0  0999 V2000
   11.1054   -5.8773    0.0000 C   0  0  0  0  0  0  0  0  0  0  0  0
   11.8493   -5.4578    0.0000 C   0  0  0  0  0  0  0  0  0  0  0  0
   10.3663   -5.4378    0.0000 C   0  0  0  0  0  0  0  0  0  0  0  0
   12.5684   -5.8573    0.0000 C   0  0  0  0  0  0  0  0  0  0  0  0
   10.3663   -4.5839    0.0000 O   0  0  0  0  0  0  0  0  0  0  0  0
   12.5684   -6.7261    0.0000 O   0  0  0  0  0  0  0  0  0  0  0  0
   11.1054   -6.7261    0.0000 O   0  0  0  0  0  0  0  0  0  0  0  0
   11.8344   -4.6189    0.0000 O   0  0  0  0  0  0  0  0  0  0  0  0
   13.3324   -5.4378    0.0000 O   0  0  0  0  0  0  0  0  0  0  0  0
    9.6323   -5.8573    0.0000 O   0  0  0  0  0  0  0  0  0  0  0  0
    6.4166   -4.9485    0.0000 C   0  0  0  0  0  0  0  0  0  0  0  0
    6.4166   -4.1396    0.0000 C   0  0  0  0  0  0  0  0  0  0  0  0
    5.0034   -4.9485    0.0000 C   0  0  0  0  0  0  0  0  0  0  0  0
    5.7125   -5.3530    0.0000 C   0  0  0  0  0  0  0  0  0  0  0  0
    5.0034   -4.1396    0.0000 C   0  0  0  0  0  0  0  0  0  0  0  0
    7.1356   -5.3530    0.0000 C   0  0  0  0  0  0  0  0  0  0  0  0
    7.1356   -3.7351    0.0000 C   0  0  0  0  0  0  0  0  0  0  0  0
    7.8397   -4.9485    0.0000 N   0  0  0  0  0  0  0  0  0  0  0  0
    5.7125   -6.2018    0.0000 C   0  0  0  0  0  0  0  0  0  0  0  0
    7.8397   -4.1396    0.0000 C   0  0  0  0  0  0  0  0  0  0  0  0
    4.2894   -5.3530    0.0000 C   0  0  0  0  0  0  0  0  0  0  0  0
    4.2894   -3.7351    0.0000 C   0  0  0  0  0  0  0  0  0  0  0  0
    8.5737   -5.3679    0.0000 C   0  0  0  0  0  0  0  0  0  0  0  0
    6.4465   -6.6063    0.0000 C   0  0  0  0  0  0  0  0  0  0  0  0
    4.9785   -6.6113    0.0000 C   0  0  0  0  0  0  0  0  0  0  0  0
    3.5853   -4.9485    0.0000 C   0  0  0  0  0  0  0  0  0  0  0  0
    3.5853   -4.1396    0.0000 C   0  0  0  0  0  0  0  0  0  0  0  0
    6.4465   -7.4502    0.0000 C   0  0  0  0  0  0  0  0  0  0  0  0
    4.9884   -7.4502    0.0000 C   0  0  0  0  0  0  0  0  0  0  0  0
    5.7275   -7.8696    0.0000 C   0  0  0  0  0  0  0  0  0  0  0  0
  2  1  1  0
  3  1  1  0
  4  2  1  0
  5  3  2  0
  6  4  2  0
  7  1  1  0
  8  2  1  0
  9  4  1  0
 10  3  1  0
 12 11  2  0
 13 14  1  0
 14 11  1  0
 15 12  1  0
 16 11  1  0
 17 12  1  0
 18 16  1  0
 19 14  1  0
 20 18  1  0
 21 13  1  0
 22 15  1  0
 23 18  1  0
 24 19  1  0
 25 19  2  0
 26 21  2  0
 27 22  2  0
 28 24  2  0
 29 25  1  0
 30 29  2  0
 13 15  2  0
 17 20  1  0
 26 27  1  0
 28 30  1  0
M  END
> <chembl_id>
CHEMBL2107213

> <chembl_pref_name>
PHENINDAMINE TARTRATE
