
     RDKit          2D

 36 39  0  0  1  0  0  0  0  0999 V2000
    1.2167   -8.3042    0.0000 C   0  0  0  0  0  0  0  0  0  0  0  0
    1.8333   -7.9542    0.0000 C   0  0  0  0  0  0  0  0  0  0  0  0
    3.0750   -7.2542    0.0000 C   0  0  0  0  0  0  0  0  0  0  0  0
    1.2167   -9.0167    0.0000 C   0  0  0  0  0  0  0  0  0  0  0  0
    3.0667   -7.9625    0.0000 C   0  0  0  0  0  0  0  0  0  0  0  0
    2.4500   -8.3125    0.0000 C   0  0  0  0  0  0  0  0  0  0  0  0
    1.8375   -7.2417    0.0000 C   0  0  0  0  0  0  0  0  0  0  0  0
    3.7542   -7.0417    0.0000 C   0  0  0  0  0  0  0  0  0  0  0  0
    0.6000   -7.9542    0.0000 C   0  0  0  0  0  0  0  0  0  0  0  0
    2.4583   -6.8875    0.0000 C   0  0  0  0  0  0  0  0  0  0  0  0
    3.7417   -8.1917    0.0000 C   0  0  0  0  0  0  0  0  0  0  0  0
    4.1625   -7.6167    0.0000 C   0  0  0  0  0  0  0  0  0  0  0  0
    2.4458   -9.0250    0.0000 C   0  0  0  0  0  0  0  0  0  0  0  0
    1.8292   -9.3792    0.0000 C   0  0  0  0  0  0  0  0  0  0  0  0
    0.6000   -9.3792    0.0000 C   0  0  0  0  0  0  0  0  0  0  0  0
    5.5958   -5.9542    0.0000 C   0  0  0  0  0  0  0  0  0  0  0  0
   -0.0125   -8.3042    0.0000 C   0  0  0  0  0  0  0  0  0  0  0  0
    3.7500   -6.3292    0.0000 C   0  0  0  0  0  0  0  0  0  0  0  0
   -0.0125   -9.0167    0.0000 C   0  0  0  0  0  0  0  0  0  0  0  0
    6.2083   -6.3042    0.0000 C   0  0  0  0  0  0  0  0  0  0  0  0
    4.9833   -6.3125    0.0000 O   0  0  0  0  0  0  0  0  0  0  0  0
    1.8292   -8.6667    0.0000 Cl  0  0  0  0  0  0  0  0  0  0  0  0
    5.5875   -5.2458    0.0000 O   0  0  0  0  0  0  0  0  0  0  0  0
    4.3625   -5.9625    0.0000 C   0  0  0  0  0  0  0  0  0  0  0  0
    3.1292   -5.9750    0.0000 O   0  0  0  0  0  0  0  0  0  0  0  0
   -0.6292   -9.3750    0.0000 O   0  0  0  0  0  0  0  0  0  0  0  0
    1.2125   -7.5917    0.0000 C   0  0  0  0  0  0  0  0  0  0  0  0
    3.0667   -6.5417    0.0000 C   0  0  0  0  0  0  0  0  0  0  0  0
    1.2208   -6.8792    0.0000 O   0  0  0  0  0  0  0  0  0  0  0  0
    1.8250  -10.0917    0.0000 F   0  0  0  0  0  0  0  0  0  0  0  0
    4.8750   -7.6250    0.0000 C   0  0  0  0  0  0  0  0  0  0  0  0
    6.8208   -5.9458    0.0000 C   0  0  0  0  0  0  0  0  0  0  0  0
    6.5542   -6.9167    0.0000 C   0  0  0  0  0  0  0  0  0  0  0  0
    5.8500   -6.9167    0.0000 C   0  0  0  0  0  0  0  0  0  0  0  0
    3.3127   -8.8182    0.0000 H   0  0  0  0  0  0  0  0  0  0  0  0
    3.1610   -8.9580    0.0000 H   0  0  0  0  0  0  0  0  0  0  0  0
  2  1  1  0
  3 10  1  0
  4  1  1  0
  5  6  1  0
  6  2  1  0
  7  2  1  0
  8  3  1  0
  9  1  1  0
 10  7  1  0
 11  5  1  0
 12 11  1  0
 13  6  1  0
 14  4  1  0
 15  4  2  0
 16 21  1  0
 17  9  2  0
  8 18  1  1
 19 15  1  0
 20 16  1  0
 21 24  1  0
  2 22  1  6
 23 16  2  0
 24 18  1  0
 25 18  2  0
 26 19  2  0
  1 27  1  1
  3 28  1  1
  7 29  1  1
 14 30  1  6
 12 31  1  6
 32 20  1  0
 33 20  1  0
 34 20  1  0
 13 14  1  0
  5  3  1  0
 19 17  1  0
  8 12  1  0
  6 35  1  1
  5 36  1  6
M  END
> <chembl_id>
CHEMBL1200975

> <chembl_pref_name>
CLOCORTOLONE PIVALATE
