
     RDKit          2D

 33 33  0  0  0  0  0  0  0  0999 V2000
    9.4225   -0.0387    0.0000 Na  0  0  0  0  0 15  0  0  0  0  0  0
   -1.5438   -1.8148    0.0000 C   0  0  0  0  0  0  0  0  0  0  0  0
   -2.3616   -1.7954    0.0000 N   0  0  0  0  0  0  0  0  0  0  0  0
   -1.1276   -1.0744    0.0000 C   0  0  0  0  0  0  0  0  0  0  0  0
   -1.5584   -0.3726    0.0000 C   0  0  0  0  0  0  0  0  0  0  0  0
   -2.4052   -0.3484    0.0000 N   0  0  0  0  0  0  0  0  0  0  0  0
   -2.8215   -1.0938    0.0000 C   0  0  0  0  0  0  0  0  0  0  0  0
   -0.9776   -2.4246    0.0000 N   0  0  0  0  0  0  0  0  0  0  0  0
   -0.3194   -1.2582    0.0000 C   0  0  0  0  0  0  0  0  0  0  0  0
    4.0022    0.2323    0.0000 C   0  0  0  0  0  0  0  0  0  0  0  0
    4.6991   -0.2129    0.0000 N   0  0  0  0  0  0  0  0  0  0  0  0
   -0.2372   -2.0616    0.0000 C   0  0  0  0  0  0  0  0  0  0  0  0
    5.4057    1.0018    0.0000 C   0  0  0  0  0  0  0  0  0  0  0  0
    5.4057    0.1839    0.0000 C   0  0  0  0  0  0  0  0  0  0  0  0
    7.5399   -0.3339    0.0000 C   0  0  0  0  0  0  0  0  0  0  0  0
   -1.1470    0.3436    0.0000 O   0  0  0  0  0  0  0  0  0  0  0  0
    3.2618   -0.1791    0.0000 C   0  0  0  0  0  0  0  0  0  0  0  0
    6.1558    1.3744    0.0000 O   0  0  0  0  0  0  0  0  0  0  0  0
    3.9877    1.0550    0.0000 O   0  0  0  0  0  0  0  0  0  0  0  0
    8.2706    0.0049    0.0000 O   0  0  0  0  0  0  0  0  0  0  0  0
    4.7136    1.4470    0.0000 O   0  0  0  0  0  0  0  0  0  0  0  0
    0.4065   -0.8662    0.0000 C   0  0  0  0  0  0  0  0  0  0  0  0
   -3.6538   -1.1083    0.0000 N   0  0  0  0  0  0  0  0  0  0  0  0
    7.4915   -1.1566    0.0000 O   0  0  0  0  0  0  0  0  0  0  0  0
    6.1171   -0.2565    0.0000 C   0  0  0  0  0  0  0  0  0  0  0  0
    2.5649    0.2517    0.0000 C   0  0  0  0  0  0  0  0  0  0  0  0
    3.2618   -0.9921    0.0000 C   0  0  0  0  0  0  0  0  0  0  0  0
    6.8382    0.1161    0.0000 C   0  0  0  0  0  0  0  0  0  0  0  0
    1.8438   -0.9533    0.0000 C   0  0  0  0  0  0  0  0  0  0  0  0
    1.1083   -1.3357    0.0000 C   0  0  0  0  0  0  0  0  0  0  0  0
    2.5504   -1.3889    0.0000 C   0  0  0  0  0  0  0  0  0  0  0  0
    1.8438   -0.1452    0.0000 C   0  0  0  0  0  0  0  0  0  0  0  0
    7.2108    1.4518    0.0000 Na  0  0  0  0  0 15  0  0  0  0  0  0
  3  2  1  0
  4  2  2  0
  5  4  1  0
  6  7  1  0
  7  3  2  0
  8  2  1  0
  9  4  1  0
 10 17  1  0
 11 10  1  0
 12  8  1  0
 14 13  1  6
 14 11  1  0
 15 28  1  0
 16  5  2  0
 17 27  2  0
 18 13  1  0
 19 10  2  0
 20 15  1  0
 21 13  2  0
 22  9  1  0
 23  7  1  0
 24 15  2  0
 25 14  1  0
 26 32  2  0
 27 31  1  0
 28 25  1  0
 29 30  1  0
 30 22  1  0
 31 29  2  0
 32 29  1  0
 12  9  2  0
  6  5  1  0
 17 26  1  0
M  CHG  4   1   1  18  -1  20  -1  33   1
M  END
> <chembl_id>
CHEMBL2360464

> <chembl_pref_name>
PEMETREXED DISODIUM
