
     RDKit          2D

 55 59  0  0  0  0  0  0  0  0999 V2000
    8.3602   -0.2077    0.0000 C   0  0  0  0  0  0  0  0  0  0  0  0
    9.1852   -0.2077    0.0000 S   0  0  0  0  0  0  0  0  0  0  0  0
    9.5977   -0.9222    0.0000 O   0  0  0  0  0  0  0  0  0  0  0  0
    9.5977    0.5067    0.0000 O   0  0  0  0  0  0  0  0  0  0  0  0
    8.9717   -1.0046    0.0000 O   0  0  0  0  0  0  0  0  0  0  0  0
    3.4548   -0.7646    0.0000 N   0  0  0  0  0  0  0  0  0  0  0  0
    3.4548   -1.5896    0.0000 C   0  0  0  0  0  0  0  0  0  0  0  0
    4.1692   -2.0021    0.0000 C   0  0  0  0  0  0  0  0  0  0  0  0
    4.8837   -1.5896    0.0000 C   0  0  0  0  0  0  0  0  0  0  0  0
    4.8837   -0.7646    0.0000 C   0  0  0  0  0  0  0  0  0  0  0  0
    4.1692   -0.3521    0.0000 C   0  0  0  0  0  0  0  0  0  0  0  0
    5.5982   -2.0021    0.0000 N   0  0  0  0  0  0  0  0  0  0  0  0
    2.7403   -0.3521    0.0000 C   0  0  0  0  0  0  0  0  0  0  0  0
    2.0258   -0.7646    0.0000 C   0  0  0  0  0  0  0  0  0  0  0  0
    0.5969   -0.7646    0.0000 C   0  0  0  0  0  0  0  0  0  0  0  0
   -0.1176   -0.3521    0.0000 C   0  0  0  0  0  0  0  0  0  0  0  0
   -0.1176    0.4729    0.0000 C   0  0  0  0  0  0  0  0  0  0  0  0
   -0.8713   -0.0165    0.0000 C   0  0  0  0  0  0  0  0  0  0  0  0
   -1.4233   -0.6296    0.0000 C   0  0  0  0  0  0  0  0  0  0  0  0
   -1.0108   -1.3441    0.0000 C   0  0  0  0  0  0  0  0  0  0  0  0
   -0.2038   -1.1725    0.0000 C   0  0  0  0  0  0  0  0  0  0  0  0
   -1.2658   -2.1287    0.0000 C   0  0  0  0  0  0  0  0  0  0  0  0
   -0.7137   -2.7418    0.0000 C   0  0  0  0  0  0  0  0  0  0  0  0
    0.0933   -2.5702    0.0000 C   0  0  0  0  0  0  0  0  0  0  0  0
    0.3482   -1.7856    0.0000 C   0  0  0  0  0  0  0  0  0  0  0  0
   -1.1262    0.7681    0.0000 C   0  0  0  0  0  0  0  0  0  0  0  0
   -1.9332    0.9397    0.0000 C   0  0  0  0  0  0  0  0  0  0  0  0
   -2.4815    0.3266    0.0000 C   0  0  0  0  0  0  0  0  0  0  0  0
   -2.2303   -0.4581    0.0000 C   0  0  0  0  0  0  0  0  0  0  0  0
    0.5969    0.8855    0.0000 N   0  0  0  0  0  0  0  0  0  0  0  0
    1.3113    0.4730    0.0000 C   0  0  0  0  0  0  0  0  0  0  0  0
    6.3126   -1.5896    0.0000 C   0  0  0  0  0  0  0  0  0  0  0  0
    7.0271   -2.0021    0.0000 C   0  0  0  0  0  0  0  0  0  0  0  0
    6.3126   -0.7646    0.0000 O   0  0  0  0  0  0  0  0  0  0  0  0
    7.0271   -2.8271    0.0000 C   0  0  0  0  0  0  0  0  0  0  0  0
    7.7416   -3.2396    0.0000 C   0  0  0  0  0  0  0  0  0  0  0  0
    8.4560   -2.8271    0.0000 C   0  0  0  0  0  0  0  0  0  0  0  0
    8.4560   -2.0021    0.0000 C   0  0  0  0  0  0  0  0  0  0  0  0
    7.7416   -1.5896    0.0000 C   0  0  0  0  0  0  0  0  0  0  0  0
    6.3126   -3.2396    0.0000 C   0  0  0  0  0  0  0  0  0  0  0  0
    5.5982   -2.8271    0.0000 C   0  0  0  0  0  0  0  0  0  0  0  0
    4.8837   -3.2396    0.0000 C   0  0  0  0  0  0  0  0  0  0  0  0
    4.8837   -4.0646    0.0000 C   0  0  0  0  0  0  0  0  0  0  0  0
    5.5982   -4.4770    0.0000 C   0  0  0  0  0  0  0  0  0  0  0  0
    6.3126   -4.0646    0.0000 C   0  0  0  0  0  0  0  0  0  0  0  0
    4.1692   -4.4771    0.0000 C   0  0  0  0  0  0  0  0  0  0  0  0
    1.3113   -0.3520    0.0000 C   0  0  0  0  0  0  0  0  0  0  0  0
    2.0208    0.8917    0.0000 C   0  0  0  0  0  0  0  0  0  0  0  0
    2.0130    1.7166    0.0000 F   0  0  0  0  0  0  0  0  0  0  0  0
    2.7392    0.4860    0.0000 F   0  0  0  0  0  0  0  0  0  0  0  0
    1.2219    1.0976    0.0000 F   0  0  0  0  0  0  0  0  0  0  0  0
    3.4547   -4.0646    0.0000 F   0  0  0  0  0  0  0  0  0  0  0  0
    4.1692   -5.3021    0.0000 F   0  0  0  0  0  0  0  0  0  0  0  0
    3.9557   -3.6802    0.0000 F   0  0  0  0  0  0  0  0  0  0  0  0
   -0.5375    1.1917    0.0000 O   0  0  0  0  0  0  0  0  0  0  0  0
  1  2  1  0
  2  3  2  0
  2  4  1  0
  2  5  2  0
 16 18  1  0
 18 19  2  0
 19 20  1  0
 20 21  2  0
 21 16  1  0
 20 22  1  0
 22 23  2  0
 23 24  1  0
 24 25  2  0
 25 21  1  0
 18 26  1  0
 26 27  2  0
 27 28  1  0
 28 29  2  0
 29 19  1  0
 17 30  1  0
 30 31  1  0
 12 32  1  0
 32 33  1  0
 32 34  2  0
 33 35  2  0
 35 36  1  0
 36 37  2  0
 37 38  1  0
 38 39  2  0
 39 33  1  0
 35 40  1  0
 40 41  1  0
 41 42  2  0
 42 43  1  0
 43 44  2  0
 44 45  1  0
 45 40  2  0
 43 46  1  0
  6  7  1  0
 31 48  1  0
  7  8  1  0
 48 49  1  0
  8  9  1  0
 48 50  1  0
  9 10  1  0
 48 51  1  0
 10 11  1  0
 46 52  1  0
 11  6  1  0
 46 53  1  0
  9 12  1  0
 46 54  1  0
  6 13  1  0
 17 55  2  0
 13 14  1  0
 14 47  1  0
 47 15  1  0
 15 16  1  0
 16 17  1  0
M  END
> <chembl_id>
CHEMBL2105662

> <chembl_pref_name>
LOMITAPIDE MESYLATE
