
     RDKit          2D

 10 10  0  0  0  0  0  0  0  0999 V2000
    4.9417   -5.7042    0.0000 N   0  0  0  0  0  0  0  0  0  0  0  0
    5.5167   -5.2792    0.0000 C   0  0  0  0  0  0  0  0  0  0  0  0
    4.3667   -5.2875    0.0000 C   0  0  0  0  0  0  0  0  0  0  0  0
    5.2917   -4.6125    0.0000 C   0  0  0  0  0  0  0  0  0  0  0  0
    4.5917   -4.6042    0.0000 C   0  0  0  0  0  0  0  0  0  0  0  0
    6.2250   -5.4875    0.0000 O   0  0  0  0  0  0  0  0  0  0  0  0
    3.6750   -5.5000    0.0000 O   0  0  0  0  0  0  0  0  0  0  0  0
    5.7667   -4.0792    0.0000 C   0  0  0  0  0  0  0  0  0  0  0  0
    5.2917   -3.9500    0.0000 C   0  0  0  0  0  0  0  0  0  0  0  0
    6.4667   -4.2250    0.0000 C   0  0  0  0  0  0  0  0  0  0  0  0
  2  1  1  0
  3  1  1  0
  4  2  1  0
  5  3  1  0
  6  2  2  0
  7  3  2  0
  8  4  1  0
  9  4  1  0
 10  8  1  0
  5  4  1  0
M  END
> <chembl_id>
CHEMBL696

> <chembl_pref_name>
ETHOSUXIMIDE
