
     RDKit          2D

 34 38  0  0  0  0  0  0  0  0999 V2000
    5.9747    0.0000    0.0000 Cl  0  0  0  0  0  0  0  0  0  0  0  0
   -1.1822   -0.2373    0.0000 O   0  0  0  0  0  0  0  0  0  0  0  0
   -0.9618   -1.0322    0.0000 C   0  0  0  0  0  0  0  0  0  0  0  0
   -1.5401   -1.6205    0.0000 C   0  0  0  0  0  0  0  0  0  0  0  0
   -2.3388   -1.4139    0.0000 C   0  0  0  0  0  0  0  0  0  0  0  0
   -2.9170   -2.0022    0.0000 C   0  0  0  0  0  0  0  0  0  0  0  0
   -2.6966   -2.7971    0.0000 C   0  0  0  0  0  0  0  0  0  0  0  0
   -1.8980   -3.0038    0.0000 C   0  0  0  0  0  0  0  0  0  0  0  0
   -1.3198   -2.4155    0.0000 C   0  0  0  0  0  0  0  0  0  0  0  0
   -0.1632   -1.2389    0.0000 O   0  0  0  0  0  0  0  0  0  0  0  0
    0.9329   -0.6136    0.0000 O   0  0  0  0  0  0  0  0  0  0  0  0
    0.2187   -0.0922    0.0000 C   0  0  0  0  0  0  0  0  0  0  0  0
    0.4558    0.5148    0.0000 C   0  0  0  0  0  0  0  0  0  0  0  0
    1.6139   -0.0935    0.0000 C   0  0  0  0  0  0  0  0  0  0  0  0
    3.7356   -0.6647    0.0000 C   0  0  0  0  0  0  0  0  0  0  0  0
    2.9125   -0.7183    0.0000 O   0  0  0  0  0  0  0  0  0  0  0  0
    2.4545   -0.0322    0.0000 C   0  0  0  0  0  0  0  0  0  0  0  0
    2.8298    0.7132    0.0000 C   0  0  0  0  0  0  0  0  0  0  0  0
    2.3515    1.4142    0.0000 C   0  0  0  0  0  0  0  0  0  0  0  0
    1.4822    1.4580    0.0000 C   0  0  0  0  0  0  0  0  0  0  0  0
    0.6916    1.9707    0.0000 C   0  0  0  0  0  0  0  0  0  0  0  0
   -0.2014    1.5221    0.0000 C   0  0  0  0  0  0  0  0  0  0  0  0
    0.2417    1.3551    0.0000 C   0  0  0  0  0  0  0  0  0  0  0  0
   -0.5575    1.8012    0.0000 C   0  0  0  0  0  0  0  0  0  0  0  0
   -0.6039    0.3510    0.0000 C   0  0  0  0  0  0  0  0  0  0  0  0
   -1.0969    1.2293    0.0000 C   0  0  0  0  0  0  0  0  0  0  0  0
   -0.2213   -0.7901    0.0000 H   0  0  0  0  0  0  0  0  0  0  0  0
    1.2436    0.6598    0.0000 C   0  0  0  0  0  0  0  0  0  0  0  0
    1.0282    1.6040    0.0000 H   0  0  0  0  0  0  0  0  0  0  0  0
   -0.6805    2.1937    0.0000 H   0  0  0  0  0  0  0  0  0  0  0  0
   -0.2651   -0.1768    0.0000 C   0  0  0  0  0  0  0  0  0  0  0  0
   -0.8850    0.8539    0.0000 N   0  0  0  0  0  0  0  0  0  0  0  0
   -1.0555    0.0502    0.0000 C   0  0  0  0  0  0  0  0  0  0  0  0
   -1.6077    1.2516    0.0000 C   0  0  0  0  0  0  0  0  0  0  0  0
  2  3  1  0
  2 25  1  0
  3 10  2  0
  4  3  1  0
  4  9  1  0
  5  4  2  0
  5  6  1  0
  6  7  2  0
  8  7  1  0
  9  8  2  0
 12 13  1  0
 12 25  1  0
 12 27  1  6
 13 23  1  0
 14 11  1  0
 14 28  1  0
 16 15  1  0
 16 17  1  0
 17 14  2  0
 18 19  2  0
 18 17  1  0
 19 20  1  0
 20 28  2  0
 21 20  1  0
 22 23  1  0
 22 21  1  0
 24 23  1  0
 25 26  2  0
 26 24  1  0
 28 13  1  0
 23 29  1  6
 22 30  1  1
 22 32  1  0
 32 33  1  0
 13 31  1  6
 33 31  1  0
 32 34  1  0
 12 11  1  1
M  END
> <chembl_id>
CHEMBL3137310

> <chembl_pref_name>
BENZHYDROCODONE HYDROCHLORIDE
