
     RDKit          2D

 25 27  0  0  0  0  0  0  0  0999 V2000
    1.5250   -6.7167    0.0000 Cl  0  0  0  0  0  0  0  0  0  0  0  0
    6.2250   -5.3167    0.0000 N   0  0  0  0  0  0  0  0  0  0  0  0
    5.8000   -6.4042    0.0000 N   0  0  0  0  0  0  0  0  0  0  0  0
    6.5625   -6.3917    0.0000 N   0  0  0  0  0  0  0  0  0  0  0  0
    5.6625   -5.7292    0.0000 C   0  0  0  0  0  0  0  0  0  0  0  0
    6.7667   -5.7292    0.0000 C   0  0  0  0  0  0  0  0  0  0  0  0
    2.6417   -4.6792    0.0000 N   0  0  0  0  0  0  0  0  0  0  0  0
    5.0667   -5.3750    0.0000 C   0  0  0  0  0  0  0  0  0  0  0  0
    2.0167   -4.3208    0.0000 C   0  0  0  0  0  0  0  0  0  0  0  0
    3.8667   -5.3750    0.0000 N   0  0  0  0  0  0  0  0  0  0  0  0
    3.2542   -4.3208    0.0000 C   0  0  0  0  0  0  0  0  0  0  0  0
    2.6417   -5.3750    0.0000 C   0  0  0  0  0  0  0  0  0  0  0  0
    4.4667   -5.7292    0.0000 C   0  0  0  0  0  0  0  0  0  0  0  0
    2.0167   -3.6167    0.0000 C   0  0  0  0  0  0  0  0  0  0  0  0
    3.2542   -5.7292    0.0000 C   0  0  0  0  0  0  0  0  0  0  0  0
    3.8667   -4.6792    0.0000 C   0  0  0  0  0  0  0  0  0  0  0  0
    6.2250   -4.6042    0.0000 C   0  0  0  0  0  0  0  0  0  0  0  0
    7.4292   -5.3500    0.0000 C   0  0  0  0  0  0  0  0  0  0  0  0
    1.4167   -4.6792    0.0000 C   0  0  0  0  0  0  0  0  0  0  0  0
    2.6917   -3.2500    0.0000 C   0  0  0  0  0  0  0  0  0  0  0  0
    1.4167   -3.2625    0.0000 C   0  0  0  0  0  0  0  0  0  0  0  0
    6.8625   -4.2417    0.0000 C   0  0  0  0  0  0  0  0  0  0  0  0
    7.4292   -4.6042    0.0000 C   0  0  0  0  0  0  0  0  0  0  0  0
    0.8000   -4.3208    0.0000 C   0  0  0  0  0  0  0  0  0  0  0  0
    0.8000   -3.6167    0.0000 C   0  0  0  0  0  0  0  0  0  0  0  0
  3  5  2  0
  4  6  2  0
  5  2  1  0
  6  2  1  0
  7 11  1  0
  8  5  1  0
  9  7  1  0
 10 13  1  0
 11 16  1  0
 12 15  1  0
 13  8  1  0
 14  9  2  0
 15 10  1  0
 16 10  1  0
 17  2  1  0
 18  6  1  0
 19  9  1  0
 20 14  1  0
 21 14  1  0
 22 17  1  0
 23 22  1  0
 24 19  2  0
 25 24  1  0
  4  3  1  0
 23 18  1  0
  7 12  1  0
 25 21  2  0
M  END
> <chembl_id>
CHEMBL1201044

> <chembl_pref_name>
DAPIPRAZOLE HYDROCHLORIDE
