
     RDKit          2D

 10 10  0  0  0  0  0  0  0  0999 V2000
   -0.0958    0.0083    0.0000 C   0  0  0  0  0  0  0  0  0  0  0  0
   -0.0958   -1.4292    0.0000 N   0  0  0  0  0  0  0  0  0  0  0  0
   -1.3333    0.7333    0.0000 N   0  0  0  0  0  0  0  0  0  0  0  0
    1.1417    0.7333    0.0000 N   0  0  0  0  0  0  0  0  0  0  0  0
   -2.5750   -1.4292    0.0000 C   0  0  0  0  0  0  0  0  0  0  0  0
   -2.5750    0.0083    0.0000 C   0  0  0  0  0  0  0  0  0  0  0  0
   -1.3333   -2.1500    0.0000 C   0  0  0  0  0  0  0  0  0  0  0  0
    1.1417    2.1583    0.0000 C   0  0  0  0  0  0  0  0  0  0  0  0
   -0.2625    2.1583    0.0000 C   0  0  0  0  0  0  0  0  0  0  0  0
    2.5667    2.1583    0.0000 C   0  0  0  0  0  0  0  0  0  0  0  0
  2  1  2  0
  3  1  1  0
  4  1  1  0
  5  6  1  0
  6  3  2  0
  7  2  1  0
  8  4  1  0
  9  8  1  0
 10  8  1  0
  7  5  2  0
M  END
> <chembl_id>
CHEMBL1740513

> <chembl_pref_name>
ISAXONINE
