
     RDKit          2D

 28 30  0  0  0  0  0  0  0  0999 V2000
    2.4708   -0.1117    0.0000 Br  0  0  0  0  0  0  0  0  0  0  0  0
   -0.4515   -2.3491    0.0000 C   0  0  0  0  0  0  0  0  0  0  0  0
   -0.2384   -1.4967    0.0000 C   0  0  0  0  0  0  0  0  0  0  0  0
    0.2486   -0.2182    0.0000 N   0  0  0  0  0  0  0  0  0  0  0  0
   -1.0908   -1.7555    0.0000 O   0  0  0  0  0  0  0  0  0  0  0  0
    0.5835   -1.0097    0.0000 C   0  0  0  0  0  0  0  0  0  0  0  0
    0.2486   -1.8620    0.0000 C   0  0  0  0  0  0  0  0  0  0  0  0
    2.3795   -3.1405    0.0000 C   0  0  0  0  0  0  0  0  0  0  0  0
    3.0949   -3.5667    0.0000 C   0  0  0  0  0  0  0  0  0  0  0  0
    1.0097   -2.1512    0.0000 C   0  0  0  0  0  0  0  0  0  0  0  0
    1.3750   -1.2684    0.0000 C   0  0  0  0  0  0  0  0  0  0  0  0
    1.6946   -1.9077    0.0000 C   0  0  0  0  0  0  0  0  0  0  0  0
    2.3947   -2.3186    0.0000 O   0  0  0  0  0  0  0  0  0  0  0  0
    1.6794   -3.5515    0.0000 O   0  0  0  0  0  0  0  0  0  0  0  0
    3.8102   -3.1405    0.0000 C   0  0  0  0  0  0  0  0  0  0  0  0
   -0.4667    0.2689    0.0000 C   0  0  0  0  0  0  0  0  0  0  0  0
    0.7357    0.5124    0.0000 C   0  0  0  0  0  0  0  0  0  0  0  0
    3.0949   -4.3886    0.0000 C   0  0  0  0  0  0  0  0  0  0  0  0
    3.8102   -4.7996    0.0000 O   0  0  0  0  0  0  0  0  0  0  0  0
    3.8102   -2.3186    0.0000 C   0  0  0  0  0  0  0  0  0  0  0  0
    4.5256   -3.5515    0.0000 C   0  0  0  0  0  0  0  0  0  0  0  0
    5.2410   -3.1405    0.0000 C   0  0  0  0  0  0  0  0  0  0  0  0
    4.5256   -1.9077    0.0000 C   0  0  0  0  0  0  0  0  0  0  0  0
    5.2410   -2.3034    0.0000 C   0  0  0  0  0  0  0  0  0  0  0  0
   -0.9233   -3.0340    0.0000 H   0  0  0  0  0  0  0  0  0  0  0  0
   -0.5733   -0.7357    0.0000 H   0  0  0  0  0  0  0  0  0  0  0  0
    0.2486   -2.7296    0.0000 H   0  0  0  0  0  0  0  0  0  0  0  0
    1.2228   -0.3247    0.0000 H   0  0  0  0  0  0  0  0  0  0  0  0
  3  2  1  0
  4  7  1  0
  5  2  1  0
  6  3  1  0
  7  2  1  0
  8 13  1  0
  9  8  1  0
 10  7  1  0
 11  6  1  0
 12 10  1  0
 12 13  1  6
 14  8  2  0
 15  9  1  0
 16  4  1  0
 17  4  1  0
  9 18  1  1
 19 18  1  0
 20 15  2  0
 21 15  1  0
 22 21  2  0
 23 20  1  0
 24 23  2  0
  2 25  1  6
  3 26  1  6
  7 27  1  1
  6 28  1  6
  5  3  1  0
  4  6  1  0
 12 11  1  0
 24 22  1  0
M  CHG  2   1  -1   4   1
M  END
> <chembl_id>
CHEMBL1354199

> <chembl_pref_name>
METHSCOPOLAMINE BROMIDE
