
     RDKit          2D

 11 13  0  0  0  0  0  0  0  0999 V2000
    3.9917   -0.7792    0.0000 C   0  0  0  0  0  0  0  0  0  0  0  0
    3.9875   -0.1792    0.0000 N   0  0  0  0  0  0  0  0  0  0  0  0
    3.5917   -1.8750    0.0000 C   0  0  0  0  0  0  0  0  0  0  0  0
    4.5375   -1.6000    0.0000 C   0  0  0  0  0  0  0  0  0  0  0  0
    3.4750   -1.5417    0.0000 C   0  0  0  0  0  0  0  0  0  0  0  0
    3.5875   -1.2542    0.0000 C   0  0  0  0  0  0  0  0  0  0  0  0
    3.4667   -0.9667    0.0000 C   0  0  0  0  0  0  0  0  0  0  0  0
    4.5375   -1.0042    0.0000 C   0  0  0  0  0  0  0  0  0  0  0  0
    4.1375   -2.0917    0.0000 C   0  0  0  0  0  0  0  0  0  0  0  0
    3.0042   -2.0375    0.0000 C   0  0  0  0  0  0  0  0  0  0  0  0
    3.9875   -1.7292    0.0000 C   0  0  0  0  0  0  0  0  0  0  0  0
  2  1  1  0
  3  6  1  0
  4  8  1  0
  5  7  1  0
  6  1  1  0
  7  1  1  0
  8  1  1  0
  9  4  1  0
 10  5  1  0
 11  4  1  0
  5 11  1  0
  3  9  1  0
 10  3  1  0
M  END
> <chembl_id>
CHEMBL660

> <chembl_pref_name>
AMANTADINE
