
     RDKit          2D

 17 18  0  0  0  0  0  0  0  0999 V2000
    0.7612    0.9492    0.0000 C   0  0  0  0  0  0  0  0  0  0  0  0
   -1.4215    1.2848    0.0000 C   0  0  0  0  0  0  0  0  0  0  0  0
   -0.1598   -2.6667    0.0000 C   0  0  0  0  0  0  0  0  0  0  0  0
    2.1901    0.9492    0.0000 C   0  0  0  0  0  0  0  0  0  0  0  0
    2.9046    1.3617    0.0000 C   0  0  0  0  0  0  0  0  0  0  0  0
    0.0467    1.3617    0.0000 C   0  0  0  0  0  0  0  0  0  0  0  0
   -0.7540    0.1288    0.0000 C   0  0  0  0  0  0  0  0  0  0  0  0
   -0.2020   -0.4843    0.0000 C   0  0  0  0  0  0  0  0  0  0  0  0
   -1.8159   -0.8274    0.0000 C   0  0  0  0  0  0  0  0  0  0  0  0
   -1.5610   -0.0428    0.0000 C   0  0  0  0  0  0  0  0  0  0  0  0
   -0.6678    0.9492    0.0000 C   0  0  0  0  0  0  0  0  0  0  0  0
   -0.4569   -1.2690    0.0000 C   0  0  0  0  0  0  0  0  0  0  0  0
   -1.2639   -1.4405    0.0000 C   0  0  0  0  0  0  0  0  0  0  0  0
    1.4756    1.3617    0.0000 N   0  0  0  0  0  0  0  0  0  0  0  0
   -1.9735    0.6717    0.0000 N   0  0  0  0  0  0  0  0  0  0  0  0
    0.0951   -1.8820    0.0000 O   0  0  0  0  0  0  0  0  0  0  0  0
    2.1901    0.1242    0.0000 O   0  0  0  0  0  0  0  0  0  0  0  0
  1  6  1  0
  1 14  1  0
  2 11  2  0
  4 14  1  0
  4  5  1  0
  7  8  1  0
 11  7  1  0
 13  9  2  0
  9 10  1  0
 10  7  2  0
  6 11  1  0
 12 16  1  0
 12  8  2  0
 12 13  1  0
 10 15  1  0
  2 15  1  0
  3 16  1  0
  4 17  2  0
M  END
> <chembl_id>
CHEMBL45

> <chembl_pref_name>
MELATONIN
