
     RDKit          2D

 37 40  0  0  1  0  0  0  0  0999 V2000
    1.6875   -3.4750    0.0000 N   0  0  0  0  0  0  0  0  0  0  0  0
    0.9792   -3.4750    0.0000 C   0  0  0  0  0  0  0  0  0  0  0  0
    0.9792   -2.7417    0.0000 C   0  0  0  0  0  0  0  0  0  0  0  0
    1.6875   -2.7542    0.0000 C   0  0  0  0  0  0  0  0  0  0  0  0
    4.7500   -4.5167    0.0000 N   0  0  0  0  0  0  0  0  0  0  0  0
    4.7500   -3.8167    0.0000 C   0  0  0  0  0  0  0  0  0  0  0  0
    2.3042   -3.8292    0.0000 C   0  0  0  0  0  0  0  0  0  0  0  0
    5.9542   -4.4875    0.0000 C   0  0  0  0  0  0  0  0  0  0  0  0
    5.9417   -3.7917    0.0000 N   0  0  0  0  0  0  0  0  0  0  0  0
   -1.4833   -2.7500    0.0000 C   0  0  0  0  0  0  0  0  0  0  0  0
    5.3750   -4.8542    0.0000 C   0  0  0  0  0  0  0  0  0  0  0  0
   -0.8708   -2.3917    0.0000 C   0  0  0  0  0  0  0  0  0  0  0  0
    5.3292   -3.4542    0.0000 N   0  0  0  0  0  0  0  0  0  0  0  0
   -2.0583   -2.3292    0.0000 N   0  0  0  0  0  0  0  0  0  0  0  0
    0.3625   -2.3917    0.0000 N   0  0  0  0  0  0  0  0  0  0  0  0
   -0.2583   -2.7417    0.0000 C   0  0  0  0  0  0  0  0  0  0  0  0
    2.3042   -2.3917    0.0000 S   0  0  0  0  0  0  0  0  0  0  0  0
    2.9167   -3.4750    0.0000 C   0  0  0  0  0  0  0  0  0  0  0  0
   -2.6250   -2.7500    0.0000 C   0  0  0  0  0  0  0  0  0  0  0  0
    2.3042   -4.5417    0.0000 C   0  0  0  0  0  0  0  0  0  0  0  0
   -1.7000   -3.4167    0.0000 C   0  0  0  0  0  0  0  0  0  0  0  0
   -2.4083   -3.4167    0.0000 S   0  0  0  0  0  0  0  0  0  0  0  0
    4.1417   -3.4750    0.0000 S   0  0  0  0  0  0  0  0  0  0  0  0
    2.9167   -2.7542    0.0000 C   0  0  0  0  0  0  0  0  0  0  0  0
   -0.8708   -1.6792    0.0000 N   0  0  0  0  0  0  0  0  0  0  0  0
    0.5000   -3.9667    0.0000 O   0  0  0  0  0  0  0  0  0  0  0  0
    3.5375   -3.8167    0.0000 C   0  0  0  0  0  0  0  0  0  0  0  0
   -0.2500   -3.4542    0.0000 O   0  0  0  0  0  0  0  0  0  0  0  0
    5.3625   -5.5625    0.0000 O   0  0  0  0  0  0  0  0  0  0  0  0
    2.9125   -4.8792    0.0000 O   0  0  0  0  0  0  0  0  0  0  0  0
    1.6917   -4.8875    0.0000 O   0  0  0  0  0  0  0  0  0  0  0  0
    6.5625   -4.8375    0.0000 O   0  0  0  0  0  0  0  0  0  0  0  0
   -3.2458   -2.3917    0.0000 N   0  0  0  0  0  0  0  0  0  0  0  0
    5.3125   -2.7625    0.0000 C   0  0  0  0  0  0  0  0  0  0  0  0
   -0.2583   -1.3292    0.0000 O   0  0  0  0  0  0  0  0  0  0  0  0
   -0.2583   -0.6167    0.0000 C   0  0  0  0  0  0  0  0  0  0  0  0
    1.6542   -2.0667    0.0000 H   0  0  0  0  0  0  0  0  0  0  0  0
  2  1  1  0
  3  4  1  0
  4  1  1  0
  5  6  2  0
  6 23  1  0
  7  1  1  0
  8  9  2  0
  9 13  1  0
 10 12  1  0
 11  5  1  0
 12 16  1  0
 13  6  1  0
 14 10  1  0
  3 15  1  1
 16 15  1  0
 17  4  1  0
 18  7  2  0
 19 14  2  0
 20  7  1  0
 21 10  2  0
 22 21  1  0
 23 27  1  0
 24 18  1  0
 25 12  2  0
 26  2  2  0
 27 18  1  0
 28 16  2  0
 29 11  2  0
 30 20  1  0
 31 20  2  0
 32  8  1  0
 33 19  1  0
 34 13  1  0
 35 25  1  0
 36 35  1  0
  4 37  1  6
  3  2  1  0
 24 17  1  0
  8 11  1  0
 22 19  1  0
M  END
> <chembl_id>
CHEMBL161

> <chembl_pref_name>
CEFTRIAXONE
