
     RDKit          2D

 21 22  0  0  0  0  0  0  0  0999 V2000
   -4.1958   -2.9042    0.0000 Cl  0  0  0  0  0  0  0  0  0  0  0  0
    0.3500   -0.3417    0.0000 N   0  0  0  0  0  0  0  0  0  0  0  0
    2.4417   -0.2125    0.0000 C   0  0  0  0  0  0  0  0  0  0  0  0
    2.5000    0.9833    0.0000 N   0  0  0  0  0  0  0  0  0  0  0  0
    1.4292   -0.8917    0.0000 C   0  0  0  0  0  0  0  0  0  0  0  0
    3.5792   -0.6375    0.0000 N   0  0  0  0  0  0  0  0  0  0  0  0
    0.2667    0.8375    0.0000 C   0  0  0  0  0  0  0  0  0  0  0  0
   -0.6458   -1.0167    0.0000 C   0  0  0  0  0  0  0  0  0  0  0  0
   -0.7958    1.3833    0.0000 C   0  0  0  0  0  0  0  0  0  0  0  0
    3.6625    1.3083    0.0000 C   0  0  0  0  0  0  0  0  0  0  0  0
    4.3417    0.2958    0.0000 C   0  0  0  0  0  0  0  0  0  0  0  0
   -1.7250   -0.4792    0.0000 C   0  0  0  0  0  0  0  0  0  0  0  0
   -0.5708   -2.2250    0.0000 C   0  0  0  0  0  0  0  0  0  0  0  0
   -0.8833    2.5958    0.0000 C   0  0  0  0  0  0  0  0  0  0  0  0
   -1.8125    0.7125    0.0000 C   0  0  0  0  0  0  0  0  0  0  0  0
   -2.7458   -1.1542    0.0000 C   0  0  0  0  0  0  0  0  0  0  0  0
   -1.5750   -2.9042    0.0000 C   0  0  0  0  0  0  0  0  0  0  0  0
   -1.9708    3.1333    0.0000 C   0  0  0  0  0  0  0  0  0  0  0  0
   -2.9000    1.2500    0.0000 C   0  0  0  0  0  0  0  0  0  0  0  0
   -2.6625   -2.3667    0.0000 C   0  0  0  0  0  0  0  0  0  0  0  0
   -2.9708    2.4625    0.0000 C   0  0  0  0  0  0  0  0  0  0  0  0
  3  5  1  0
  4  3  2  0
  5  2  1  0
  6  3  1  0
  7  2  1  0
  8  2  1  0
  9  7  1  0
 10  4  1  0
 11  6  1  0
 12  8  2  0
 13  8  1  0
 14  9  2  0
 15  9  1  0
 16 12  1  0
 17 13  2  0
 18 14  1  0
 19 15  2  0
 20 16  2  0
 21 18  2  0
 17 20  1  0
 11 10  1  0
 19 21  1  0
M  END
> <chembl_id>
CHEMBL1256819

> <chembl_pref_name>
ANTAZOLINE HYDROCHLORIDE
