
     RDKit          2D

 22 23  0  0  0  0  0  0  0  0999 V2000
   14.9719  -18.7003    0.0000 C   0  0  0  0  0  0  0  0  0  0  0  0
   15.6984  -19.1178    0.0000 C   0  0  0  0  0  0  0  0  0  0  0  0
   14.9844  -17.8736    0.0000 C   0  0  0  0  0  0  0  0  0  0  0  0
   15.6984  -17.4603    0.0000 C   0  0  0  0  0  0  0  0  0  0  0  0
   16.4123  -18.7044    0.0000 C   0  0  0  0  0  0  0  0  0  0  0  0
   16.4123  -17.8736    0.0000 C   0  0  0  0  0  0  0  0  0  0  0  0
   14.2663  -19.1178    0.0000 C   0  0  0  0  0  0  0  0  0  0  0  0
   14.2705  -19.9445    0.0000 O   0  0  0  0  0  0  0  0  0  0  0  0
   11.4022  -19.9528    0.0000 N   0  0  0  0  0  0  0  0  0  0  0  0
   10.6882  -20.3661    0.0000 C   0  0  0  0  0  0  0  0  0  0  0  0
   12.8384  -19.9528    0.0000 C   0  0  0  0  0  0  0  0  0  0  0  0
   13.5565  -20.3661    0.0000 C   0  0  0  0  0  0  0  0  0  0  0  0
   12.1245  -20.3661    0.0000 C   0  0  0  0  0  0  0  0  0  0  0  0
   17.1221  -19.1178    0.0000 O   0  0  0  0  0  0  0  0  0  0  0  0
   17.1263  -17.4644    0.0000 O   0  0  0  0  0  0  0  0  0  0  0  0
   12.8301  -19.1261    0.0000 O   0  0  0  0  0  0  0  0  0  0  0  0
   14.2663  -17.4603    0.0000 C   0  0  0  0  0  0  0  0  0  0  0  0
   13.5524  -17.8736    0.0000 C   0  0  0  0  0  0  0  0  0  0  0  0
   13.5524  -18.7044    0.0000 C   0  0  0  0  0  0  0  0  0  0  0  0
    9.9743  -19.9528    0.0000 C   0  0  0  0  0  0  0  0  0  0  0  0
   10.6882  -21.1928    0.0000 C   0  0  0  0  0  0  0  0  0  0  0  0
    9.9743  -20.7794    0.0000 C   0  0  0  0  0  0  0  0  0  0  0  0
  2  1  1  0
  3  1  1  0
  4  3  1  0
  5  2  1  0
  6  4  1  0
  7  1  2  0
  8  7  1  0
  9 13  1  0
 10  9  1  0
 11 12  1  0
 12  8  1  0
 13 11  1  0
 14  5  1  0
 15  6  1  0
 16 11  1  0
 17  3  2  0
 18 19  2  0
 19  7  1  0
 20 10  1  0
 21 10  1  0
 22 10  1  0
 18 17  1  0
  6  5  1  0
M  END
> <chembl_id>
CHEMBL521606

> <chembl_pref_name>
NADOLOL
