
     RDKit          2D

 35 39  0  0  0  0  0  0  0  0999 V2000
    2.2042    0.0750    0.0000 C   0  0  0  0  0  0  0  0  0  0  0  0
    2.9042    0.2208    0.0000 N   0  0  0  0  0  0  0  0  0  0  0  0
    2.8792   -0.9750    0.0000 N   0  0  0  0  0  0  0  0  0  0  0  0
    2.1875   -0.6292    0.0000 C   0  0  0  0  0  0  0  0  0  0  0  0
    3.3792   -0.3417    0.0000 C   0  0  0  0  0  0  0  0  0  0  0  0
    2.2042    0.8208    0.0000 C   0  0  0  0  0  0  0  0  0  0  0  0
    1.5667   -0.2750    0.0000 C   0  0  0  0  0  0  0  0  0  0  0  0
    0.9042    0.8208    0.0000 N   0  0  0  0  0  0  0  0  0  0  0  0
    3.2542    0.8458    0.0000 C   0  0  0  0  0  0  0  0  0  0  0  0
   -1.6375    0.7750    0.0000 C   0  0  0  0  0  0  0  0  0  0  0  0
   -2.2833    1.1250    0.0000 C   0  0  0  0  0  0  0  0  0  0  0  0
   -1.6375    0.0458    0.0000 C   0  0  0  0  0  0  0  0  0  0  0  0
    1.4625   -0.9917    0.0000 O   0  0  0  0  0  0  0  0  0  0  0  0
    1.5250    1.1875    0.0000 C   0  0  0  0  0  0  0  0  0  0  0  0
    0.9167    0.0833    0.0000 C   0  0  0  0  0  0  0  0  0  0  0  0
   -2.9250    0.7833    0.0000 C   0  0  0  0  0  0  0  0  0  0  0  0
   -2.2833    1.8708    0.0000 C   0  0  0  0  0  0  0  0  0  0  0  0
   -0.9625   -0.3042    0.0000 C   0  0  0  0  0  0  0  0  0  0  0  0
   -2.2625   -0.3250    0.0000 C   0  0  0  0  0  0  0  0  0  0  0  0
   -3.5583    1.8708    0.0000 C   0  0  0  0  0  0  0  0  0  0  0  0
   -1.5958   -1.4375    0.0000 C   0  0  0  0  0  0  0  0  0  0  0  0
   -0.9750   -1.0667    0.0000 C   0  0  0  0  0  0  0  0  0  0  0  0
   -2.2583   -1.0667    0.0000 C   0  0  0  0  0  0  0  0  0  0  0  0
   -3.5458    1.1208    0.0000 C   0  0  0  0  0  0  0  0  0  0  0  0
   -2.9250    2.2208    0.0000 C   0  0  0  0  0  0  0  0  0  0  0  0
   -4.2083    2.2708    0.0000 F   0  0  0  0  0  0  0  0  0  0  0  0
   -1.5958   -2.1917    0.0000 F   0  0  0  0  0  0  0  0  0  0  0  0
    0.2542    1.1833    0.0000 C   0  0  0  0  0  0  0  0  0  0  0  0
   -0.3833    0.8083    0.0000 C   0  0  0  0  0  0  0  0  0  0  0  0
   -0.9833    1.1458    0.0000 C   0  0  0  0  0  0  0  0  0  0  0  0
    3.9542    0.8375    0.0000 C   0  0  0  0  0  0  0  0  0  0  0  0
    2.8667    1.4708    0.0000 C   0  0  0  0  0  0  0  0  0  0  0  0
    3.2042    2.1083    0.0000 C   0  0  0  0  0  0  0  0  0  0  0  0
    4.3375    1.5333    0.0000 C   0  0  0  0  0  0  0  0  0  0  0  0
    3.9542    2.1083    0.0000 C   0  0  0  0  0  0  0  0  0  0  0  0
  2  1  1  0
  3  4  1  0
  4  1  1  0
  5  2  1  0
  6  1  1  0
  7  1  1  0
  8 15  1  0
  9  2  1  0
 10 30  1  0
 11 10  1  0
 12 10  1  0
 13  4  2  0
 14  6  1  0
 15  7  1  0
 16 11  1  0
 17 11  2  0
 18 12  1  0
 19 12  2  0
 20 25  2  0
 21 23  2  0
 22 18  2  0
 23 19  1  0
 24 16  2  0
 25 17  1  0
 26 20  1  0
 27 21  1  0
 28  8  1  0
 29 28  1  0
 30 29  1  0
 31  9  2  0
 32  9  1  0
 33 32  2  0
 34 31  1  0
 35 33  1  0
 14  8  1  0
  5  3  1  0
 34 35  2  0
 22 21  1  0
 24 20  1  0
M  END
> <chembl_id>
CHEMBL46516

> <chembl_pref_name>
FLUSPIRILENE
