
     RDKit          2D

 20 22  0  0  0  0  0  0  0  0999 V2000
    5.7167   -7.3875    0.0000 N   0  0  0  0  0  0  0  0  0  0  0  0
    5.7375   -5.9667    0.0000 S   0  0  0  0  0  0  0  0  0  0  0  0
    6.3375   -7.0250    0.0000 C   0  0  0  0  0  0  0  0  0  0  0  0
    5.1042   -7.0292    0.0000 C   0  0  0  0  0  0  0  0  0  0  0  0
    6.3417   -6.3167    0.0000 C   0  0  0  0  0  0  0  0  0  0  0  0
    5.1167   -6.3167    0.0000 C   0  0  0  0  0  0  0  0  0  0  0  0
    5.7375   -8.0875    0.0000 C   0  0  0  0  0  0  0  0  0  0  0  0
    5.1042   -8.4417    0.0000 C   0  0  0  0  0  0  0  0  0  0  0  0
    3.8792   -8.4542    0.0000 N   0  0  0  0  0  0  0  0  0  0  0  0
    4.5042   -7.3792    0.0000 C   0  0  0  0  0  0  0  0  0  0  0  0
    6.9625   -7.3792    0.0000 C   0  0  0  0  0  0  0  0  0  0  0  0
    4.5042   -5.9667    0.0000 C   0  0  0  0  0  0  0  0  0  0  0  0
    6.9542   -5.9542    0.0000 C   0  0  0  0  0  0  0  0  0  0  0  0
    4.4917   -8.0917    0.0000 C   0  0  0  0  0  0  0  0  0  0  0  0
    3.2667   -8.0917    0.0000 C   0  0  0  0  0  0  0  0  0  0  0  0
    3.8792   -9.1667    0.0000 C   0  0  0  0  0  0  0  0  0  0  0  0
    7.5750   -7.0250    0.0000 C   0  0  0  0  0  0  0  0  0  0  0  0
    3.8917   -7.0250    0.0000 C   0  0  0  0  0  0  0  0  0  0  0  0
    3.8792   -6.3250    0.0000 C   0  0  0  0  0  0  0  0  0  0  0  0
    7.5667   -6.3125    0.0000 C   0  0  0  0  0  0  0  0  0  0  0  0
  2  6  1  0
  3  1  1  0
  4  1  1  0
  5  3  2  0
  6  4  1  0
  7  1  1  0
  8  7  1  0
  9 14  1  0
 10  4  2  0
 11  3  1  0
 12  6  2  0
 13  5  1  0
 14  8  1  0
 15  9  1  0
 16  9  1  0
 17 11  2  0
 18 10  1  0
 19 18  2  0
 20 17  1  0
  2  5  1  0
 19 12  1  0
 20 13  2  0
M  END
> <chembl_id>
CHEMBL564

> <chembl_pref_name>
PROMAZINE
