
     RDKit          2D

 31 33  0  0  0  0  0  0  0  0999 V2000
   -9.7805    4.7991    0.0000 Cl  0  0  0  0  0  0  0  0  0  0  0  0
   -7.6950    7.7121    0.0000 C   0  0  0  0  0  0  0  0  0  0  0  0
   -6.9805    7.2996    0.0000 C   0  0  0  0  0  0  0  0  0  0  0  0
   -6.9805    6.4746    0.0000 C   0  0  0  0  0  0  0  0  0  0  0  0
   -7.6950    6.0621    0.0000 C   0  0  0  0  0  0  0  0  0  0  0  0
   -8.4094    6.4746    0.0000 C   0  0  0  0  0  0  0  0  0  0  0  0
   -8.4094    7.2996    0.0000 C   0  0  0  0  0  0  0  0  0  0  0  0
   -9.1941    6.2197    0.0000 C   0  0  0  0  0  0  0  0  0  0  0  0
   -9.6790    6.8871    0.0000 C   0  0  0  0  0  0  0  0  0  0  0  0
   -9.1941    7.5546    0.0000 C   0  0  0  0  0  0  0  0  0  0  0  0
   -9.4490    8.3392    0.0000 N   0  0  0  0  0  0  0  0  0  0  0  0
  -10.2560    8.5107    0.0000 C   0  0  0  0  0  0  0  0  0  0  0  0
  -10.5109    9.2954    0.0000 C   0  0  0  0  0  0  0  0  0  0  0  0
  -11.3179    9.4669    0.0000 O   0  0  0  0  0  0  0  0  0  0  0  0
   -7.6950    5.2371    0.0000 C   0  0  0  0  0  0  0  0  0  0  0  0
   -7.0275    4.7522    0.0000 N   0  0  0  0  0  0  0  0  0  0  0  0
   -7.2825    3.9676    0.0000 O   0  0  0  0  0  0  0  0  0  0  0  0
   -8.1075    3.9676    0.0000 C   0  0  0  0  0  0  0  0  0  0  0  0
   -8.3624    4.7522    0.0000 N   0  0  0  0  0  0  0  0  0  0  0  0
   -8.5924    3.3002    0.0000 C   0  0  0  0  0  0  0  0  0  0  0  0
   -8.2568    2.5465    0.0000 C   0  0  0  0  0  0  0  0  0  0  0  0
   -8.7418    1.8791    0.0000 C   0  0  0  0  0  0  0  0  0  0  0  0
   -9.5622    1.9653    0.0000 C   0  0  0  0  0  0  0  0  0  0  0  0
   -9.8978    2.7190    0.0000 C   0  0  0  0  0  0  0  0  0  0  0  0
   -9.4129    3.3864    0.0000 C   0  0  0  0  0  0  0  0  0  0  0  0
  -10.0472    1.2978    0.0000 O   0  0  0  0  0  0  0  0  0  0  0  0
   -9.7116    0.5442    0.0000 C   0  0  0  0  0  0  0  0  0  0  0  0
   -8.8911    0.4579    0.0000 C   0  0  0  0  0  0  0  0  0  0  0  0
  -10.1965   -0.1233    0.0000 C   0  0  0  0  0  0  0  0  0  0  0  0
  -10.7183    2.8052    0.0000 C   0  0  0  0  0  0  0  0  0  0  0  0
  -11.5388    2.8914    0.0000 N   0  0  0  0  0  0  0  0  0  0  0  0
  2  3  2  0
  3  4  1  0
  4  5  2  0
  5  6  1  0
  7  2  1  0
  6  8  1  0
  7  6  2  0
  7 10  1  0
  8  9  1  0
  9 10  1  0
 10 11  1  6
 11 12  1  0
 12 13  1  0
 13 14  1  0
  5 15  1  0
 15 16  2  0
 15 19  1  0
 16 17  1  0
 17 18  1  0
 18 19  2  0
 18 20  1  0
 20 21  1  0
 20 25  2  0
 21 22  2  0
 22 23  1  0
 23 24  2  0
 24 25  1  0
 23 26  1  0
 26 27  1  0
 27 28  1  0
 27 29  1  0
 24 30  1  0
 30 31  3  0
M  END
> <chembl_id>
CHEMBL3707246

> <chembl_pref_name>
OZANIMOD HYDROCHLORIDE
