
     RDKit          2D

  4  3  0  0  0  0  0  0  0  0999 V2000
    0.0167    0.4083    0.0000 C   0  0  0  0  0  0  0  0  0  0  0  0
   -1.2083    1.1208    0.0000 I   0  0  0  0  0  0  0  0  0  0  0  0
    1.2792    1.1208    0.0000 I   0  0  0  0  0  0  0  0  0  0  0  0
    0.0167   -1.0167    0.0000 I   0  0  0  0  0  0  0  0  0  0  0  0
  2  1  1  0
  3  1  1  0
  4  1  1  0
M  END
> <chembl_id>
CHEMBL1451116

> <chembl_pref_name>
IODOFORM
