
     RDKit          2D

  6  5  0  0  0  0  0  0  0  0999 V2000
    5.0750   -4.6500    0.0000 C   0  0  0  0  0  0  0  0  0  0  0  0
    5.0750   -5.3542    0.0000 O   0  0  0  0  0  0  0  0  0  0  0  0
    3.8417   -4.6500    0.0000 O   0  0  0  0  0  0  0  0  0  0  0  0
    6.3042   -4.6500    0.0000 O   0  0  0  0  0  0  0  0  0  0  0  0
    5.6875   -4.2917    0.0000 C   0  0  0  0  0  0  0  0  0  0  0  0
    4.4625   -4.2917    0.0000 C   0  0  0  0  0  0  0  0  0  0  0  0
  2  1  1  0
  3  6  1  0
  4  5  1  0
  5  1  1  0
  6  1  1  0
M  END
> <chembl_id>
CHEMBL692

> <chembl_pref_name>
GLYCERIN
