
     RDKit          2D

 15 15  0  0  0  0  0  0  0  0999 V2000
    1.3375    0.6375    0.0000 N   0  0  0  0  0  0  0  0  0  0  0  0
    0.6292   -0.5792    0.0000 C   0  0  0  0  0  0  0  0  0  0  0  0
    2.7917    0.6458    0.0000 C   0  0  0  0  0  0  0  0  0  0  0  0
   -0.7625   -0.6042    0.0000 C   0  0  0  0  0  0  0  0  0  0  0  0
    1.3625   -1.8500    0.0000 O   0  0  0  0  0  0  0  0  0  0  0  0
    3.5042   -0.6167    0.0000 O   0  0  0  0  0  0  0  0  0  0  0  0
   -1.5083    0.6458    0.0000 C   0  0  0  0  0  0  0  0  0  0  0  0
    3.4917    1.8625    0.0000 N   0  0  0  0  0  0  0  0  0  0  0  0
   -1.4750   -1.8542    0.0000 C   0  0  0  0  0  0  0  0  0  0  0  0
   -0.8000    1.8625    0.0000 C   0  0  0  0  0  0  0  0  0  0  0  0
   -2.9208    0.6458    0.0000 C   0  0  0  0  0  0  0  0  0  0  0  0
   -0.7708   -3.1042    0.0000 C   0  0  0  0  0  0  0  0  0  0  0  0
   -3.6625    1.8750    0.0000 C   0  0  0  0  0  0  0  0  0  0  0  0
   -1.5083    3.1083    0.0000 C   0  0  0  0  0  0  0  0  0  0  0  0
   -2.9625    3.1083    0.0000 C   0  0  0  0  0  0  0  0  0  0  0  0
  2  1  1  0
  3  1  1  0
  4  2  1  0
  5  2  2  0
  6  3  2  0
  7  4  1  0
  8  3  1  0
  9  4  1  0
 10  7  2  0
 11  7  1  0
 12  9  1  0
 13 11  2  0
 14 10  1  0
 15 13  1  0
 14 15  2  0
M  END
> <chembl_id>
CHEMBL2107062

> <chembl_pref_name>
PHENETURIDE
