
     RDKit          2D

 24 26  0  0  0  0  0  0  0  0999 V2000
    1.3542    1.9625    0.0000 N   0  0  0  0  0  0  0  0  0  0  0  0
    2.5250    1.9625    0.0000 C   0  0  0  0  0  0  0  0  0  0  0  0
    3.1167    0.9833    0.0000 C   0  0  0  0  0  0  0  0  0  0  0  0
    2.5542   -0.0042    0.0000 C   0  0  0  0  0  0  0  0  0  0  0  0
    0.7875    0.9833    0.0000 C   0  0  0  0  0  0  0  0  0  0  0  0
    0.7875    2.9583    0.0000 C   0  0  0  0  0  0  0  0  0  0  0  0
    3.1542   -0.9500    0.0000 C   0  0  0  0  0  0  0  0  0  0  0  0
    1.3917   -0.0167    0.0000 C   0  0  0  0  0  0  0  0  0  0  0  0
    4.2542    0.9833    0.0000 O   0  0  0  0  0  0  0  0  0  0  0  0
    1.4542   -1.9792    0.0000 C   0  0  0  0  0  0  0  0  0  0  0  0
   -2.1333    1.9625    0.0000 C   0  0  0  0  0  0  0  0  0  0  0  0
    0.8417   -1.0375    0.0000 C   0  0  0  0  0  0  0  0  0  0  0  0
    2.5917   -1.9792    0.0000 C   0  0  0  0  0  0  0  0  0  0  0  0
   -0.3583    0.9833    0.0000 C   0  0  0  0  0  0  0  0  0  0  0  0
   -0.3958    2.9583    0.0000 C   0  0  0  0  0  0  0  0  0  0  0  0
   -0.9333    1.9583    0.0000 C   0  0  0  0  0  0  0  0  0  0  0  0
   -2.6458    0.9458    0.0000 C   0  0  0  0  0  0  0  0  0  0  0  0
    1.0375   -2.7875    0.0000 O   0  0  0  0  0  0  0  0  0  0  0  0
    3.0917    3.0000    0.0000 C   0  0  0  0  0  0  0  0  0  0  0  0
   -3.8000    0.9583    0.0000 C   0  0  0  0  0  0  0  0  0  0  0  0
   -2.0458    0.0458    0.0000 C   0  0  0  0  0  0  0  0  0  0  0  0
   -2.6208   -0.9625    0.0000 C   0  0  0  0  0  0  0  0  0  0  0  0
   -4.3458   -0.0792    0.0000 C   0  0  0  0  0  0  0  0  0  0  0  0
   -3.7958   -0.9792    0.0000 C   0  0  0  0  0  0  0  0  0  0  0  0
  2  1  1  0
  3  2  1  0
  4  3  1  0
  5  1  1  0
  6  1  1  0
  7  4  2  0
  8  4  1  0
  9  3  1  0
 10 12  1  0
 11 16  1  0
 12  8  2  0
 13  7  1  0
 14  5  1  0
 15  6  1  0
 16 15  1  0
 17 11  1  0
 18 10  1  0
 19  2  1  0
 20 17  1  0
 21 17  2  0
 22 21  1  0
 23 20  2  0
 24 22  2  0
 16 14  1  0
 13 10  2  0
 23 24  1  0
M  END
> <chembl_id>
CHEMBL305187

> <chembl_pref_name>
IFENPRODIL
