
     RDKit          2D

 42 44  0  0  0  0  0  0  0  0999 V2000
    5.2867   -0.7861    0.0000 N   0  0  0  0  0  0  0  0  0  0  0  0
    6.0012   -0.9706    0.0000 C   0  0  0  0  0  0  0  0  0  0  0  0
    5.6992   -0.0716    0.0000 C   0  0  0  0  0  0  0  0  0  0  0  0
    5.2618   -1.5233    0.0000 C   0  0  0  0  0  0  0  0  0  0  0  0
    4.4617   -0.7861    0.0000 C   0  0  0  0  0  0  0  0  0  0  0  0
    4.0492   -0.0716    0.0000 C   0  0  0  0  0  0  0  0  0  0  0  0
    3.2242   -0.0716    0.0000 O   0  0  0  0  0  0  0  0  0  0  0  0
   -4.7188   -0.1324    0.0000 C   0  0  0  0  0  0  0  0  0  0  0  0
   -5.4333   -0.5449    0.0000 C   0  0  0  0  0  0  0  0  0  0  0  0
   -5.4333   -1.3700    0.0000 C   0  0  0  0  0  0  0  0  0  0  0  0
   -4.7188   -1.7825    0.0000 C   0  0  0  0  0  0  0  0  0  0  0  0
   -4.0044   -1.3700    0.0000 C   0  0  0  0  0  0  0  0  0  0  0  0
   -4.0044   -0.5449    0.0000 C   0  0  0  0  0  0  0  0  0  0  0  0
   -3.2899   -0.1324    0.0000 O   0  0  0  0  0  0  0  0  0  0  0  0
   -3.2899   -1.7825    0.0000 C   0  0  0  0  0  0  0  0  0  0  0  0
   -2.5754   -1.3700    0.0000 O   0  0  0  0  0  0  0  0  0  0  0  0
   -2.5754   -0.5449    0.0000 C   0  0  0  0  0  0  0  0  0  0  0  0
   -3.2899   -2.6075    0.0000 C   0  0  0  0  0  0  0  0  0  0  0  0
   -2.5754   -3.0200    0.0000 O   0  0  0  0  0  0  0  0  0  0  0  0
   -1.8610   -2.6075    0.0000 C   0  0  0  0  0  0  0  0  0  0  0  0
   -1.8610   -1.7825    0.0000 C   0  0  0  0  0  0  0  0  0  0  0  0
   -1.1465   -1.3700    0.0000 C   0  0  0  0  0  0  0  0  0  0  0  0
   -1.1465   -3.0200    0.0000 C   0  0  0  0  0  0  0  0  0  0  0  0
   -0.4321   -2.6075    0.0000 C   0  0  0  0  0  0  0  0  0  0  0  0
   -0.4321   -1.7825    0.0000 C   0  0  0  0  0  0  0  0  0  0  0  0
    0.2824   -3.0200    0.0000 F   0  0  0  0  0  0  0  0  0  0  0  0
    0.9969   -2.6075    0.0000 O   0  0  0  0  0  0  0  0  0  0  0  0
    0.9969   -1.7825    0.0000 C   0  0  0  0  0  0  0  0  0  0  0  0
    0.2824   -1.3700    0.0000 N   0  0  0  0  0  0  0  0  0  0  0  0
    0.2824   -0.5450    0.0000 C   0  0  0  0  0  0  0  0  0  0  0  0
    0.9969   -0.1325    0.0000 C   0  0  0  0  0  0  0  0  0  0  0  0
    1.7114   -0.5450    0.0000 C   0  0  0  0  0  0  0  0  0  0  0  0
    1.7114   -1.3700    0.0000 N   0  0  0  0  0  0  0  0  0  0  0  0
    1.1684    0.6744    0.0000 C   0  0  0  0  0  0  0  0  0  0  0  0
    1.9889    0.7607    0.0000 S   0  0  0  0  0  0  0  0  0  0  0  0
    2.3245    0.0071    0.0000 C   0  0  0  0  0  0  0  0  0  0  0  0
   -6.1478   -1.7825    0.0000 F   0  0  0  0  0  0  0  0  0  0  0  0
   -4.7620   -2.6063    0.0000 F   0  0  0  0  0  0  0  0  0  0  0  0
   -0.4320   -0.1325    0.0000 O   0  0  0  0  0  0  0  0  0  0  0  0
    0.5553    1.2265    0.0000 C   0  0  0  0  0  0  0  0  0  0  0  0
    0.7269    2.0335    0.0000 O   0  0  0  0  0  0  0  0  0  0  0  0
   -0.2293    0.9715    0.0000 O   0  0  0  0  0  0  0  0  0  0  0  0
  1  2  1  0
  1  3  1  0
  1  4  1  0
  1  5  1  0
  5  6  1  0
  6  7  1  0
  8  9  1  0
  9 10  2  0
 10 11  1  0
 11 12  2  0
 12 13  1  0
  8 13  2  0
 15 16  1  0
 14 17  1  0
 12 15  1  0
 14 13  1  0
 18 19  1  0
 19 20  1  0
 20 21  1  0
 16 21  1  0
 23 24  1  0
 24 25  2  0
 22 25  1  0
 20 23  2  0
 22 21  2  0
 27 28  2  0
 28 29  1  0
 24 26  1  0
 25 29  1  0
 30 31  1  0
 31 32  1  0
 32 33  1  0
 28 33  1  0
 29 30  1  0
 34 35  1  0
 35 36  1  0
 31 34  2  0
 32 36  2  0
 10 37  1  0
 11 38  1  0
 30 39  2  0
 34 40  1  0
 40 41  2  0
 40 42  1  0
M  CHG  2   1   1  42  -1
M  END
> <chembl_id>
CHEMBL4298171

> <chembl_pref_name>
LINZAGOLIX CHOLINE
