
     RDKit          2D

 35 39  0  0  1  0  0  0  0  0999 V2000
    2.9167   -1.2667    0.0000 C   0  0  0  0  0  0  0  0  0  0  0  0
    2.2417   -1.4792    0.0000 C   0  0  0  0  0  0  0  0  0  0  0  0
    2.2375   -2.1792    0.0000 C   0  0  0  0  0  0  0  0  0  0  0  0
    0.4000   -2.5292    0.0000 C   0  0  0  0  0  0  0  0  0  0  0  0
    1.6250   -2.5292    0.0000 C   0  0  0  0  0  0  0  0  0  0  0  0
    3.3292   -1.8375    0.0000 C   0  0  0  0  0  0  0  0  0  0  0  0
    1.0125   -2.1750    0.0000 C   0  0  0  0  0  0  0  0  0  0  0  0
    0.4000   -3.2375    0.0000 C   0  0  0  0  0  0  0  0  0  0  0  0
    3.3375   -0.7000    0.0000 O   0  0  0  0  0  0  0  0  0  0  0  0
    1.6292   -1.1167    0.0000 C   0  0  0  0  0  0  0  0  0  0  0  0
    1.0167   -1.4667    0.0000 C   0  0  0  0  0  0  0  0  0  0  0  0
   -0.2125   -2.1750    0.0000 C   0  0  0  0  0  0  0  0  0  0  0  0
    2.9042   -2.4125    0.0000 C   0  0  0  0  0  0  0  0  0  0  0  0
    4.0042   -1.6250    0.0000 O   0  0  0  0  0  0  0  0  0  0  0  0
    2.9167   -0.5542    0.0000 C   0  0  0  0  0  0  0  0  0  0  0  0
   -0.2125   -3.5917    0.0000 C   0  0  0  0  0  0  0  0  0  0  0  0
    4.0042   -0.9167    0.0000 C   0  0  0  0  0  0  0  0  0  0  0  0
    1.6167   -3.2417    0.0000 C   0  0  0  0  0  0  0  0  0  0  0  0
   -0.8208   -2.5292    0.0000 C   0  0  0  0  0  0  0  0  0  0  0  0
   -0.8208   -3.2375    0.0000 C   0  0  0  0  0  0  0  0  0  0  0  0
    1.0042   -3.5917    0.0000 C   0  0  0  0  0  0  0  0  0  0  0  0
    2.3000   -0.2042    0.0000 O   0  0  0  0  0  0  0  0  0  0  0  0
   -1.4375   -3.5875    0.0000 O   0  0  0  0  0  0  0  0  0  0  0  0
    2.2417   -0.7667    0.0000 C   0  0  0  0  0  0  0  0  0  0  0  0
    0.4042   -1.1042    0.0000 O   0  0  0  0  0  0  0  0  0  0  0  0
    0.3917   -1.8167    0.0000 C   0  0  0  0  0  0  0  0  0  0  0  0
    3.5250   -0.1917    0.0000 C   0  0  0  0  0  0  0  0  0  0  0  0
    3.5167    0.5125    0.0000 O   0  0  0  0  0  0  0  0  0  0  0  0
    4.6167   -0.5625    0.0000 C   0  0  0  0  0  0  0  0  0  0  0  0
    5.2292   -0.9042    0.0000 C   0  0  0  0  0  0  0  0  0  0  0  0
    5.8417   -0.5417    0.0000 C   0  0  0  0  0  0  0  0  0  0  0  0
    0.1478   -1.6727    0.0000 H   0  0  0  0  0  0  0  0  0  0  0  0
    3.9099   -2.6516    0.0000 H   0  0  0  0  0  0  0  0  0  0  0  0
    2.4870   -3.0362    0.0000 H   0  0  0  0  0  0  0  0  0  0  0  0
    2.3286   -3.1750    0.0000 H   0  0  0  0  0  0  0  0  0  0  0  0
  2  1  1  0
  3  2  1  0
  4  7  1  0
  5  3  1  0
  6  1  1  0
  7 11  1  0
  8  4  1  0
  1  9  1  0
 10  2  1  0
 11 10  1  0
 12  4  1  0
 13  6  1  0
  6 14  1  0
  1 15  1  1
 16  8  2  0
 17  9  1  0
 18  5  1  0
 19 12  2  0
 20 19  1  0
 21 18  1  0
 22 15  2  0
 23 20  2  0
  2 24  1  1
 11 25  1  1
  4 26  1  1
 27 15  1  0
 28 27  1  0
 29 17  1  0
 30 29  1  0
 31 30  1  0
 17 14  1  0
 13  3  1  0
  7  5  1  0
 21  8  1  0
 20 16  1  0
  7 32  1  6
  6 33  1  1
  5 34  1  1
  3 35  1  6
M  END
> <chembl_id>
CHEMBL1370

> <chembl_pref_name>
BUDESONIDE
