
     RDKit          2D

 99102  0  0  0  0  0  0  0  0999 V2000
    2.8042   -5.1250    0.0000 N   0  0  0  0  0  0  0  0  0  0  0  0
    3.4208   -4.7667    0.0000 C   0  0  0  0  0  0  0  0  0  0  0  0
    2.1917   -4.7667    0.0000 C   0  0  0  0  0  0  0  0  0  0  0  0
    4.0333   -5.1250    0.0000 C   0  0  0  0  0  0  0  0  0  0  0  0
    1.5792   -5.1250    0.0000 C   0  0  0  0  0  0  0  0  0  0  0  0
    5.9833   -3.3958    0.0000 S   0  0  0  0  0  0  0  0  0  0  0  0
    4.7542   -0.5625    0.0000 N   0  0  0  0  0  0  0  0  0  0  0  0
    5.3667   -0.2083    0.0000 C   0  0  0  0  0  0  0  0  0  0  0  0
    9.6625    0.8500    0.0000 C   0  0  0  0  0  0  0  0  0  0  0  0
    4.1417   -0.2083    0.0000 C   0  0  0  0  0  0  0  0  0  0  0  0
    2.3000   -0.5625    0.0000 C   0  0  0  0  0  0  0  0  0  0  0  0
   10.8917   -2.6917    0.0000 C   0  0  0  0  0  0  0  0  0  0  0  0
    9.6625   -0.5667    0.0000 C   0  0  0  0  0  0  0  0  0  0  0  0
   -1.3792   -0.5667    0.0000 C   0  0  0  0  0  0  0  0  0  0  0  0
   -2.5708   -0.6333    0.0000 N   0  0  0  0  0  0  0  0  0  0  0  0
    0.4583   -0.2083    0.0000 C   0  0  0  0  0  0  0  0  0  0  0  0
   10.8833   -1.2667    0.0000 C   0  0  0  0  0  0  0  0  0  0  0  0
   10.8083    0.8333    0.0000 N   0  0  0  0  0  0  0  0  0  0  0  0
    5.9833   -0.5625    0.0000 C   0  0  0  0  0  0  0  0  0  0  0  0
    1.0708   -0.5625    0.0000 N   0  0  0  0  0  0  0  0  0  0  0  0
   11.4958   -1.6208    0.0000 N   0  0  0  0  0  0  0  0  0  0  0  0
    2.9125   -0.2083    0.0000 N   0  0  0  0  0  0  0  0  0  0  0  0
   10.8958   -3.4000    0.0000 N   0  0  0  0  0  0  0  0  0  0  0  0
    1.6833   -0.2083    0.0000 C   0  0  0  0  0  0  0  0  0  0  0  0
   11.5042   -2.3292    0.0000 C   0  0  0  0  0  0  0  0  0  0  0  0
   10.2292    0.4250    0.0000 C   0  0  0  0  0  0  0  0  0  0  0  0
   -0.7708   -0.2083    0.0000 N   0  0  0  0  0  0  0  0  0  0  0  0
   10.2750   -0.2125    0.0000 N   0  0  0  0  0  0  0  0  0  0  0  0
    1.6833    0.5000    0.0000 C   0  0  0  0  0  0  0  0  0  0  0  0
   12.1167   -2.6750    0.0000 C   0  0  0  0  0  0  0  0  0  0  0  0
    9.0458   -0.2125    0.0000 C   0  0  0  0  0  0  0  0  0  0  0  0
    3.5250   -0.5625    0.0000 C   0  0  0  0  0  0  0  0  0  0  0  0
   -1.9958   -0.2167    0.0000 C   0  0  0  0  0  0  0  0  0  0  0  0
   10.2833   -3.7500    0.0000 C   0  0  0  0  0  0  0  0  0  0  0  0
   -3.1417   -0.2167    0.0000 C   0  0  0  0  0  0  0  0  0  0  0  0
    9.6708   -3.3917    0.0000 C   0  0  0  0  0  0  0  0  0  0  0  0
    9.8917    1.5208    0.0000 C   0  0  0  0  0  0  0  0  0  0  0  0
    9.0458    0.4958    0.0000 C   0  0  0  0  0  0  0  0  0  0  0  0
    8.4333   -0.5667    0.0000 N   0  0  0  0  0  0  0  0  0  0  0  0
   -0.1583   -0.5625    0.0000 C   0  0  0  0  0  0  0  0  0  0  0  0
   10.8833   -0.5542    0.0000 C   0  0  0  0  0  0  0  0  0  0  0  0
   12.7250   -2.3125    0.0000 C   0  0  0  0  0  0  0  0  0  0  0  0
    2.3000    0.8542    0.0000 C   0  0  0  0  0  0  0  0  0  0  0  0
    7.8208   -0.2125    0.0000 C   0  0  0  0  0  0  0  0  0  0  0  0
    6.5917   -0.2125    0.0000 N   0  0  0  0  0  0  0  0  0  0  0  0
    5.9792   -2.6875    0.0000 O   0  0  0  0  0  0  0  0  0  0  0  0
   10.6000    1.5083    0.0000 C   0  0  0  0  0  0  0  0  0  0  0  0
    5.6250   -4.0042    0.0000 O   0  0  0  0  0  0  0  0  0  0  0  0
    5.2750   -3.3917    0.0000 O   0  0  0  0  0  0  0  0  0  0  0  0
    0.4583   -2.3333    0.0000 C   0  0  0  0  0  0  0  0  0  0  0  0
    4.1417    0.5000    0.0000 O   0  0  0  0  0  0  0  0  0  0  0  0
   10.2750   -2.3417    0.0000 O   0  0  0  0  0  0  0  0  0  0  0  0
    2.3000   -1.2708    0.0000 O   0  0  0  0  0  0  0  0  0  0  0  0
    9.6625   -1.2750    0.0000 O   0  0  0  0  0  0  0  0  0  0  0  0
   -1.3750   -1.2750    0.0000 O   0  0  0  0  0  0  0  0  0  0  0  0
    0.4583    0.5000    0.0000 O   0  0  0  0  0  0  0  0  0  0  0  0
   10.2667   -1.6208    0.0000 O   0  0  0  0  0  0  0  0  0  0  0  0
    3.5250   -1.2708    0.0000 C   0  0  0  0  0  0  0  0  0  0  0  0
   10.2792   -4.4583    0.0000 C   0  0  0  0  0  0  0  0  0  0  0  0
    5.9833   -1.2708    0.0000 O   0  0  0  0  0  0  0  0  0  0  0  0
    9.6750   -2.6833    0.0000 O   0  0  0  0  0  0  0  0  0  0  0  0
   -3.7583   -0.5667    0.0000 O   0  0  0  0  0  0  0  0  0  0  0  0
    6.5958   -3.7458    0.0000 O   0  0  0  0  0  0  0  0  0  0  0  0
    5.3667    0.5000    0.0000 C   0  0  0  0  0  0  0  0  0  0  0  0
    2.3000    1.5625    0.0000 O   0  0  0  0  0  0  0  0  0  0  0  0
   12.7250   -1.6042    0.0000 O   0  0  0  0  0  0  0  0  0  0  0  0
    7.8208    0.4958    0.0000 O   0  0  0  0  0  0  0  0  0  0  0  0
   -0.1583   -2.6875    0.0000 O   0  0  0  0  0  0  0  0  0  0  0  0
   -2.2167    0.4542    0.0000 C   0  0  0  0  0  0  0  0  0  0  0  0
   -0.1583   -1.2708    0.0000 C   0  0  0  0  0  0  0  0  0  0  0  0
    7.2042   -0.5667    0.0000 C   0  0  0  0  0  0  0  0  0  0  0  0
    9.0542   -3.7458    0.0000 N   0  0  0  0  0  0  0  0  0  0  0  0
   -2.9208    0.4542    0.0000 C   0  0  0  0  0  0  0  0  0  0  0  0
    0.4583   -1.6250    0.0000 C   0  0  0  0  0  0  0  0  0  0  0  0
    5.3625   -2.3333    0.0000 C   0  0  0  0  0  0  0  0  0  0  0  0
    1.0708   -2.6875    0.0000 N   0  0  0  0  0  0  0  0  0  0  0  0
    4.1417   -1.6250    0.0000 C   0  0  0  0  0  0  0  0  0  0  0  0
   11.4958   -0.2042    0.0000 C   0  0  0  0  0  0  0  0  0  0  0  0
   13.3375   -2.6708    0.0000 O   0  0  0  0  0  0  0  0  0  0  0  0
    2.9125    0.5000    0.0000 O   0  0  0  0  0  0  0  0  0  0  0  0
    9.6625   -4.8083    0.0000 C   0  0  0  0  0  0  0  0  0  0  0  0
   12.7250   -0.2042    0.0000 S   0  0  0  0  0  0  0  0  0  0  0  0
    4.7542   -1.2708    0.0000 C   0  0  0  0  0  0  0  0  0  0  0  0
    4.1417   -2.3333    0.0000 C   0  0  0  0  0  0  0  0  0  0  0  0
    4.7542   -2.6875    0.0000 C   0  0  0  0  0  0  0  0  0  0  0  0
    5.3625   -1.6250    0.0000 C   0  0  0  0  0  0  0  0  0  0  0  0
    5.9833    0.8542    0.0000 O   0  0  0  0  0  0  0  0  0  0  0  0
    9.5458    2.1417    0.0000 C   0  0  0  0  0  0  0  0  0  0  0  0
   12.1083   -0.5625    0.0000 C   0  0  0  0  0  0  0  0  0  0  0  0
   10.9667    2.1125    0.0000 C   0  0  0  0  0  0  0  0  0  0  0  0
    4.7542    0.8542    0.0000 C   0  0  0  0  0  0  0  0  0  0  0  0
   13.3375   -0.5542    0.0000 C   0  0  0  0  0  0  0  0  0  0  0  0
    9.0542   -4.4542    0.0000 C   0  0  0  0  0  0  0  0  0  0  0  0
    9.6583   -5.5167    0.0000 C   0  0  0  0  0  0  0  0  0  0  0  0
    9.9125    2.7458    0.0000 C   0  0  0  0  0  0  0  0  0  0  0  0
   10.6250    2.7333    0.0000 C   0  0  0  0  0  0  0  0  0  0  0  0
    9.0458   -5.8708    0.0000 C   0  0  0  0  0  0  0  0  0  0  0  0
    8.4375   -4.8042    0.0000 C   0  0  0  0  0  0  0  0  0  0  0  0
    8.4375   -5.5125    0.0000 C   0  0  0  0  0  0  0  0  0  0  0  0
  2  1  1  0
  3  1  1  0
  4  2  1  0
  5  3  1  0
  7 10  1  0
  8  7  1  1
  9 38  1  0
 10 32  1  0
 11 22  1  0
 12 25  1  0
 13 31  1  0
 14 27  1  0
 15 33  1  0
 16 20  1  0
 17 41  1  0
 18 26  1  0
 19  8  1  0
 24 20  1  1
 21 17  1  0
 32 22  1  6
 23 12  1  0
 24 11  1  0
 25 21  1  1
 26  9  2  0
 40 27  1  6
 28 13  1  0
 24 29  1  0
 25 30  1  0
 31 39  1  1
 32 58  1  0
 33 14  1  1
 34 23  1  1
 35 15  1  0
 36 34  1  0
 37  9  1  0
 31 38  1  0
 39 44  1  0
 40 16  1  0
 41 28  1  1
 42 30  1  0
 43 29  1  0
 44 71  1  0
 45 19  1  0
 46  6  1  0
 47 37  2  0
 48  6  2  0
 49  6  2  0
 50 74  1  0
 51 10  2  0
 52 12  2  0
 53 11  2  0
 54 13  2  0
 55 14  2  0
 56 16  2  0
 57 17  2  0
 58 77  1  0
 34 59  1  0
 60 19  2  0
 61 36  2  0
 62 35  2  0
 63  6  1  0
 64  8  1  0
 65 43  2  0
 66 42  2  0
 67 44  2  0
 68 50  2  0
 69 33  1  0
 40 70  1  0
 71 45  1  0
 72 36  1  0
 73 69  1  0
 74 70  1  0
 75 46  1  0
 76 50  1  0
 77 83  2  0
 41 78  1  0
 79 42  1  0
 80 43  1  0
 81 59  1  0
 82 89  1  0
 83 86  1  0
 84 85  2  0
 85 75  1  0
 86 75  2  0
 64 87  1  1
 88 37  1  0
 89 78  1  0
 90 47  1  0
 91 64  1  0
 92 82  1  0
 93 81  2  0
 94 81  1  0
 95 88  2  0
 96 95  1  0
 97 94  2  0
 98 93  1  0
 99 98  2  0
 84 77  1  0
 35 73  1  0
 18 47  1  0
 90 96  2  0
 99 97  1  0
M  END
> <chembl_id>
CHEMBL1200755

> <chembl_pref_name>
CERULETIDE DIETHYLAMINE
