
     RDKit          2D

 32 32  0  0  0  0  0  0  0  0999 V2000
    4.4292   -5.3750    0.0000 C   0  0  0  0  0  0  0  0  0  0  0  0
    4.0000   -5.9292    0.0000 C   0  0  0  0  0  0  0  0  0  0  0  0
    4.0875   -4.7417    0.0000 C   0  0  0  0  0  0  0  0  0  0  0  0
    6.5792   -4.1500    0.0000 N   0  0  0  0  0  0  0  0  0  0  0  0
    5.1542   -5.3750    0.0000 O   0  0  0  0  0  0  0  0  0  0  0  0
    5.5167   -4.7667    0.0000 C   0  0  0  0  0  0  0  0  0  0  0  0
    6.2167   -4.7667    0.0000 C   0  0  0  0  0  0  0  0  0  0  0  0
    3.3875   -4.7292    0.0000 C   0  0  0  0  0  0  0  0  0  0  0  0
    4.4667   -4.1417    0.0000 C   0  0  0  0  0  0  0  0  0  0  0  0
    4.2625   -6.5917    0.0000 C   0  0  0  0  0  0  0  0  0  0  0  0
    3.2917   -5.8417    0.0000 C   0  0  0  0  0  0  0  0  0  0  0  0
    6.2167   -3.5375    0.0000 C   0  0  0  0  0  0  0  0  0  0  0  0
    7.2792   -4.1500    0.0000 C   0  0  0  0  0  0  0  0  0  0  0  0
    4.1250   -3.5167    0.0000 C   0  0  0  0  0  0  0  0  0  0  0  0
    3.8292   -7.1500    0.0000 C   0  0  0  0  0  0  0  0  0  0  0  0
    2.8625   -6.4000    0.0000 C   0  0  0  0  0  0  0  0  0  0  0  0
    3.0417   -4.0917    0.0000 C   0  0  0  0  0  0  0  0  0  0  0  0
    3.4167   -3.5042    0.0000 C   0  0  0  0  0  0  0  0  0  0  0  0
    3.1250   -7.0542    0.0000 C   0  0  0  0  0  0  0  0  0  0  0  0
    8.7042   -6.1542    0.0000 C   0  0  0  0  0  0  0  0  0  0  0  0
    9.3250   -6.5042    0.0000 C   0  0  0  0  0  0  0  0  0  0  0  0
    8.0917   -6.5042    0.0000 C   0  0  0  0  0  0  0  0  0  0  0  0
    8.3500   -5.5292    0.0000 C   0  0  0  0  0  0  0  0  0  0  0  0
    9.9375   -6.1542    0.0000 C   0  0  0  0  0  0  0  0  0  0  0  0
    8.0917   -7.2125    0.0000 C   0  0  0  0  0  0  0  0  0  0  0  0
    8.7042   -4.9167    0.0000 O   0  0  0  0  0  0  0  0  0  0  0  0
    8.7125   -7.5625    0.0000 O   0  0  0  0  0  0  0  0  0  0  0  0
    9.9375   -5.4417    0.0000 O   0  0  0  0  0  0  0  0  0  0  0  0
    9.0542   -5.5292    0.0000 O   0  0  0  0  0  0  0  0  0  0  0  0
    7.6375   -5.5292    0.0000 O   0  0  0  0  0  0  0  0  0  0  0  0
    7.4792   -7.5667    0.0000 O   0  0  0  0  0  0  0  0  0  0  0  0
   10.5500   -6.5042    0.0000 O   0  0  0  0  0  0  0  0  0  0  0  0
  2  1  1  0
  3  1  1  0
  4  7  1  0
  5  1  1  0
  6  5  1  0
  7  6  1  0
  8  3  1  0
  9  3  2  0
 10  2  1  0
 11  2  2  0
 12  4  1  0
 13  4  1  0
 14  9  1  0
 15 10  2  0
 16 11  1  0
 17  8  2  0
 18 14  2  0
 19 16  2  0
 17 18  1  0
 19 15  1  0
 21 20  1  0
 22 20  1  0
 23 20  1  0
 24 21  1  0
 25 22  1  0
 26 23  2  0
 27 25  2  0
 28 24  2  0
 29 20  1  0
 30 23  1  0
 31 25  1  0
 32 24  1  0
M  END
> <chembl_id>
CHEMBL1201089

> <chembl_pref_name>
DIPHENHYDRAMINE CITRATE
