
     RDKit          2D

 39 43  0  0  0  0  0  0  0  0999 V2000
    5.5110    0.3000    0.0000 C   0  0  0  0  0  0  0  0  0  0  0  0
    6.2255   -0.1125    0.0000 C   0  0  0  0  0  0  0  0  0  0  0  0
    6.2255   -0.9375    0.0000 C   0  0  0  0  0  0  0  0  0  0  0  0
    5.5110   -1.3500    0.0000 C   0  0  0  0  0  0  0  0  0  0  0  0
    4.7966   -0.9375    0.0000 C   0  0  0  0  0  0  0  0  0  0  0  0
    4.7966   -0.1125    0.0000 C   0  0  0  0  0  0  0  0  0  0  0  0
    5.5110   -2.1750    0.0000 C   0  0  0  0  0  0  0  0  0  0  0  0
    5.5110    1.1250    0.0000 S   0  0  0  0  0  0  0  0  0  0  0  0
    5.5110    1.9500    0.0000 O   0  0  0  0  0  0  0  0  0  0  0  0
    6.3360    1.1250    0.0000 O   0  0  0  0  0  0  0  0  0  0  0  0
    4.6860    1.1250    0.0000 O   0  0  0  0  0  0  0  0  0  0  0  0
    0.4212   -3.7414    0.0000 F   0  0  0  0  0  0  0  0  0  0  0  0
    0.4212   -2.9164    0.0000 C   0  0  0  0  0  0  0  0  0  0  0  0
    1.1357   -2.5039    0.0000 C   0  0  0  0  0  0  0  0  0  0  0  0
    0.4212   -1.2664    0.0000 C   0  0  0  0  0  0  0  0  0  0  0  0
    1.1357   -1.6789    0.0000 C   0  0  0  0  0  0  0  0  0  0  0  0
   -0.2933   -2.5039    0.0000 C   0  0  0  0  0  0  0  0  0  0  0  0
   -0.2933   -1.6789    0.0000 C   0  0  0  0  0  0  0  0  0  0  0  0
   -0.2933   -0.0289    0.0000 C   0  0  0  0  0  0  0  0  0  0  0  0
   -1.7614   -0.1059    0.0000 N   0  0  0  0  0  0  0  0  0  0  0  0
   -1.0078   -0.4414    0.0000 C   0  0  0  0  0  0  0  0  0  0  0  0
   -1.0940   -1.2619    0.0000 N   0  0  0  0  0  0  0  0  0  0  0  0
   -1.0078    1.2086    0.0000 N   0  0  0  0  0  0  0  0  0  0  0  0
   -0.2933    0.7961    0.0000 C   0  0  0  0  0  0  0  0  0  0  0  0
   -0.2933    2.4461    0.0000 C   0  0  0  0  0  0  0  0  0  0  0  0
    0.4212    2.0336    0.0000 C   0  0  0  0  0  0  0  0  0  0  0  0
   -1.0078    2.0336    0.0000 N   0  0  0  0  0  0  0  0  0  0  0  0
   -0.2933    3.2711    0.0000 O   0  0  0  0  0  0  0  0  0  0  0  0
    1.1357    2.4461    0.0000 C   0  0  0  0  0  0  0  0  0  0  0  0
    1.8501    2.0336    0.0000 C   0  0  0  0  0  0  0  0  0  0  0  0
    2.5646    2.4461    0.0000 F   0  0  0  0  0  0  0  0  0  0  0  0
    1.8501    1.2086    0.0000 C   0  0  0  0  0  0  0  0  0  0  0  0
    1.1357    0.7961    0.0000 C   0  0  0  0  0  0  0  0  0  0  0  0
    1.1357   -0.0289    0.0000 N   0  0  0  0  0  0  0  0  0  0  0  0
    0.4212    1.2086    0.0000 C   0  0  0  0  0  0  0  0  0  0  0  0
    0.4212   -0.4414    0.0000 C   0  0  0  0  0  0  0  0  0  0  0  0
   -1.9010   -1.4335    0.0000 C   0  0  0  0  0  0  0  0  0  0  0  0
   -2.3135   -0.7190    0.0000 N   0  0  0  0  0  0  0  0  0  0  0  0
   -1.9330    0.7011    0.0000 C   0  0  0  0  0  0  0  0  0  0  0  0
  1  2  2  0
  2  3  1  0
  3  4  2  0
  4  5  1  0
  5  6  2  0
  1  6  1  0
  4  7  1  0
  1  8  1  0
  8  9  2  0
  8 10  2  0
  8 11  1  0
 12 13  1  0
 13 17  2  0
 14 13  1  0
 14 16  2  0
 15 16  1  0
 36 15  1  6
 17 18  1  0
 18 15  2  0
 19 21  1  1
 19 36  1  0
 20 21  1  0
 20 39  1  0
 20 38  1  0
 21 22  2  0
 23 24  2  0
 24 35  1  0
 24 19  1  0
 25 26  1  0
 25 28  2  0
 26 29  2  0
 26 35  1  0
 27 25  1  0
 27 23  1  0
 30 29  1  0
 30 31  1  0
 32 30  2  0
 33 34  1  0
 33 32  1  0
 35 33  2  0
 36 34  1  0
 37 22  1  0
 38 37  2  0
M  END
> <chembl_id>
CHEMBL3137318

> <chembl_pref_name>
TALAZOPARIB TOSYLATE
