
     RDKit          2D

 15 13  0  0  0  0  0  0  0  0999 V2000
    6.3125   -4.5083    0.0000 Na  0  0  0  0  0 15  0  0  0  0  0  0
    4.3042   -4.5292    0.0000 C   0  0  0  0  0  0  0  0  0  0  0  0
    4.9167   -4.1792    0.0000 P   0  0  0  0  0  0  0  0  0  0  0  0
    3.6875   -4.1792    0.0000 P   0  0  0  0  0  0  0  0  0  0  0  0
    5.5292   -4.5292    0.0000 O   0  0  0  0  0  0  0  0  0  0  0  0
    4.5542   -3.5542    0.0000 O   0  0  0  0  0  0  0  0  0  0  0  0
    4.0375   -3.5625    0.0000 O   0  0  0  0  0  0  0  0  0  0  0  0
    4.6542   -5.1417    0.0000 O   0  0  0  0  0  0  0  0  0  0  0  0
    5.2667   -3.5542    0.0000 O   0  0  0  0  0  0  0  0  0  0  0  0
    3.3292   -3.5625    0.0000 O   0  0  0  0  0  0  0  0  0  0  0  0
    3.0750   -4.5292    0.0000 O   0  0  0  0  0  0  0  0  0  0  0  0
    3.9417   -5.1417    0.0000 C   0  0  0  0  0  0  0  0  0  0  0  0
    4.2875   -6.9875    0.0000 N   0  0  0  0  0  0  0  0  0  0  0  0
    3.9375   -6.3708    0.0000 C   0  0  0  0  0  0  0  0  0  0  0  0
    4.2958   -5.7583    0.0000 C   0  0  0  0  0  0  0  0  0  0  0  0
  3  2  1  0
  4  2  1  0
  5  3  1  0
  6  3  2  0
  7  4  2  0
  8  2  1  0
  9  3  1  0
 10  4  1  0
 11  4  1  0
 12  2  1  0
 13 14  1  0
 14 15  1  0
 15 12  1  0
M  CHG  2   1   1   5  -1
M  END
> <chembl_id>
CHEMBL675

> <chembl_pref_name>
ALENDRONATE SODIUM
