
     RDKit          2D

 33 36  0  0  1  0  0  0  0  0999 V2000
    3.2167   -1.9500    0.0000 C   0  0  0  0  0  0  0  0  0  0  0  0
    1.9792   -2.6500    0.0000 C   0  0  0  0  0  0  0  0  0  0  0  0
    1.3625   -3.0000    0.0000 C   0  0  0  0  0  0  0  0  0  0  0  0
    3.2125   -2.6542    0.0000 C   0  0  0  0  0  0  0  0  0  0  0  0
    3.9000   -1.7292    0.0000 C   0  0  0  0  0  0  0  0  0  0  0  0
    2.5917   -3.0042    0.0000 C   0  0  0  0  0  0  0  0  0  0  0  0
    1.3625   -3.7167    0.0000 C   0  0  0  0  0  0  0  0  0  0  0  0
    1.9792   -1.9375    0.0000 C   0  0  0  0  0  0  0  0  0  0  0  0
    2.6042   -1.5792    0.0000 C   0  0  0  0  0  0  0  0  0  0  0  0
    4.3125   -2.3125    0.0000 C   0  0  0  0  0  0  0  0  0  0  0  0
    0.7500   -2.6500    0.0000 C   0  0  0  0  0  0  0  0  0  0  0  0
    3.8875   -2.8875    0.0000 C   0  0  0  0  0  0  0  0  0  0  0  0
    3.8917   -1.0167    0.0000 C   0  0  0  0  0  0  0  0  0  0  0  0
    0.7500   -4.0667    0.0000 C   0  0  0  0  0  0  0  0  0  0  0  0
    2.5917   -3.7167    0.0000 C   0  0  0  0  0  0  0  0  0  0  0  0
    0.1375   -3.0000    0.0000 C   0  0  0  0  0  0  0  0  0  0  0  0
    0.1375   -3.7167    0.0000 C   0  0  0  0  0  0  0  0  0  0  0  0
    1.9750   -4.0708    0.0000 C   0  0  0  0  0  0  0  0  0  0  0  0
    5.7417   -0.6500    0.0000 C   0  0  0  0  0  0  0  0  0  0  0  0
    1.9750   -3.3542    0.0000 F   0  0  0  0  0  0  0  0  0  0  0  0
    4.5042   -0.6542    0.0000 C   0  0  0  0  0  0  0  0  0  0  0  0
    3.2750   -0.6667    0.0000 O   0  0  0  0  0  0  0  0  0  0  0  0
    5.1292   -1.0042    0.0000 O   0  0  0  0  0  0  0  0  0  0  0  0
    5.7375    0.0625    0.0000 O   0  0  0  0  0  0  0  0  0  0  0  0
   -0.4833   -4.0667    0.0000 O   0  0  0  0  0  0  0  0  0  0  0  0
    4.5167   -1.3750    0.0000 O   0  0  0  0  0  0  0  0  0  0  0  0
    3.2167   -1.2375    0.0000 C   0  0  0  0  0  0  0  0  0  0  0  0
    1.3667   -1.5750    0.0000 O   0  0  0  0  0  0  0  0  0  0  0  0
    1.3542   -2.2917    0.0000 C   0  0  0  0  0  0  0  0  0  0  0  0
    5.0250   -2.3167    0.0000 C   0  0  0  0  0  0  0  0  0  0  0  0
    6.3542   -1.0000    0.0000 C   0  0  0  0  0  0  0  0  0  0  0  0
    3.2042   -3.3667    0.0000 H   0  0  0  0  0  0  0  0  0  0  0  0
    2.5917   -2.2917    0.0000 H   0  0  0  0  0  0  0  0  0  0  0  0
  2  8  1  0
  3  2  1  0
  4  1  1  0
  5  1  1  0
  6  4  1  0
  7  3  1  0
  8  9  1  0
  9  1  1  0
 10  5  1  0
 11  3  1  0
 12  4  1  0
 13  5  1  0
 14  7  2  0
 15  6  1  0
 16 11  2  0
 17 16  1  0
 18 15  1  0
 19 23  1  0
  2 20  1  6
 21 13  1  0
 22 13  2  0
 23 21  1  0
 24 19  2  0
 25 17  2  0
  5 26  1  6
  1 27  1  1
  8 28  1  1
  3 29  1  1
 10 30  1  1
 31 19  1  0
  4 32  1  6
  6 33  1  1
 12 10  1  0
  6  2  1  0
  7 18  1  0
 14 17  1  0
M  END
> <chembl_id>
CHEMBL1200538

> <chembl_pref_name>
BETAMETHASONE ACETATE
