
     RDKit          2D

 31 34  0  0  1  0  0  0  0  0999 V2000
    3.7792   -4.8542    0.0000 C   0  0  0  0  0  0  0  0  0  0  0  0
    1.9333   -5.9042    0.0000 C   0  0  0  0  0  0  0  0  0  0  0  0
    3.7708   -5.5583    0.0000 C   0  0  0  0  0  0  0  0  0  0  0  0
    2.5458   -5.5500    0.0000 C   0  0  0  0  0  0  0  0  0  0  0  0
    3.1583   -5.9083    0.0000 C   0  0  0  0  0  0  0  0  0  0  0  0
    4.4500   -3.9292    0.0000 C   0  0  0  0  0  0  0  0  0  0  0  0
    4.4542   -4.6417    0.0000 C   0  0  0  0  0  0  0  0  0  0  0  0
    1.3208   -6.9667    0.0000 N   0  0  0  0  0  0  0  0  0  0  0  0
    1.3208   -5.5500    0.0000 C   0  0  0  0  0  0  0  0  0  0  0  0
    1.9333   -6.6125    0.0000 C   0  0  0  0  0  0  0  0  0  0  0  0
    0.7125   -6.6125    0.0000 C   0  0  0  0  0  0  0  0  0  0  0  0
    5.0583   -3.5708    0.0000 N   0  0  0  0  0  0  0  0  0  0  0  0
    3.1667   -4.4917    0.0000 C   0  0  0  0  0  0  0  0  0  0  0  0
    2.5500   -4.8417    0.0000 C   0  0  0  0  0  0  0  0  0  0  0  0
    4.4417   -5.7875    0.0000 C   0  0  0  0  0  0  0  0  0  0  0  0
    0.7125   -5.9042    0.0000 C   0  0  0  0  0  0  0  0  0  0  0  0
    4.8625   -5.2167    0.0000 C   0  0  0  0  0  0  0  0  0  0  0  0
    3.1542   -6.6167    0.0000 C   0  0  0  0  0  0  0  0  0  0  0  0
    3.8333   -3.5833    0.0000 O   0  0  0  0  0  0  0  0  0  0  0  0
    2.5417   -6.9667    0.0000 C   0  0  0  0  0  0  0  0  0  0  0  0
    5.6750   -3.9208    0.0000 C   0  0  0  0  0  0  0  0  0  0  0  0
    0.0958   -6.9625    0.0000 O   0  0  0  0  0  0  0  0  0  0  0  0
    3.7750   -4.1417    0.0000 C   0  0  0  0  0  0  0  0  0  0  0  0
    1.9292   -5.1917    0.0000 C   0  0  0  0  0  0  0  0  0  0  0  0
    6.2875   -3.5625    0.0000 C   0  0  0  0  0  0  0  0  0  0  0  0
    5.3167   -4.5292    0.0000 C   0  0  0  0  0  0  0  0  0  0  0  0
    6.0250   -4.5292    0.0000 C   0  0  0  0  0  0  0  0  0  0  0  0
    3.1542   -5.2000    0.0000 H   0  0  0  0  0  0  0  0  0  0  0  0
    2.5417   -6.2542    0.0000 H   0  0  0  0  0  0  0  0  0  0  0  0
    3.7667   -6.2667    0.0000 H   0  0  0  0  0  0  0  0  0  0  0  0
    1.9292   -7.3167    0.0000 H   0  0  0  0  0  0  0  0  0  0  0  0
  2  4  1  0
  3  1  1  0
  4  5  1  0
  5  3  1  0
  7  6  1  1
  7  1  1  0
  8 10  1  0
  9  2  1  0
 10  2  1  0
 11  8  1  0
 12  6  1  0
 13  1  1  0
 14 13  1  0
 15  3  1  0
 16  9  2  0
 17  7  1  0
 18  5  1  0
 19  6  2  0
 20 18  1  0
 21 12  1  0
 22 11  2  0
  1 23  1  1
  2 24  1  1
 25 21  1  0
 26 21  1  0
 27 21  1  0
  5 28  1  1
  4 29  1  6
  3 30  1  6
 10 31  1  6
 14  4  1  0
 17 15  1  0
 20 10  1  0
 11 16  1  0
M  END
> <chembl_id>
CHEMBL710

> <chembl_pref_name>
FINASTERIDE
