
     RDKit          2D

 18 20  0  0  0  0  0  0  0  0999 V2000
   -1.2708    1.0000    0.0000 C   0  0  0  0  0  0  0  0  0  0  0  0
   -1.1583   -0.9167    0.0000 C   0  0  0  0  0  0  0  0  0  0  0  0
   -0.5458    0.0958    0.0000 C   0  0  0  0  0  0  0  0  0  0  0  0
   -2.3833    0.5583    0.0000 C   0  0  0  0  0  0  0  0  0  0  0  0
   -2.3708   -0.6250    0.0000 C   0  0  0  0  0  0  0  0  0  0  0  0
    0.6542    0.0958    0.0000 C   0  0  0  0  0  0  0  0  0  0  0  0
   -0.9583    2.1500    0.0000 O   0  0  0  0  0  0  0  0  0  0  0  0
   -0.7250   -2.0417    0.0000 O   0  0  0  0  0  0  0  0  0  0  0  0
    1.2417    1.1250    0.0000 C   0  0  0  0  0  0  0  0  0  0  0  0
    1.2625   -0.9167    0.0000 C   0  0  0  0  0  0  0  0  0  0  0  0
    3.0417    0.1000    0.0000 C   0  0  0  0  0  0  0  0  0  0  0  0
    2.4417   -0.9167    0.0000 C   0  0  0  0  0  0  0  0  0  0  0  0
    2.4292    1.1250    0.0000 C   0  0  0  0  0  0  0  0  0  0  0  0
    4.2125    0.1000    0.0000 F   0  0  0  0  0  0  0  0  0  0  0  0
   -3.3833    1.0958    0.0000 C   0  0  0  0  0  0  0  0  0  0  0  0
   -3.3000   -1.2667    0.0000 C   0  0  0  0  0  0  0  0  0  0  0  0
   -4.3458   -0.6917    0.0000 C   0  0  0  0  0  0  0  0  0  0  0  0
   -4.3458    0.4458    0.0000 C   0  0  0  0  0  0  0  0  0  0  0  0
  2  3  1  0
  3  1  1  0
  4  1  1  0
  5  4  2  0
  6  3  1  0
  7  1  2  0
  8  2  2  0
  9  6  1  0
 10  6  2  0
 11 12  2  0
 12 10  1  0
 13  9  2  0
 14 11  1  0
 15  4  1  0
 16  5  1  0
 17 18  1  0
 18 15  2  0
  2  5  1  0
 16 17  2  0
 13 11  1  0
M  END
> <chembl_id>
CHEMBL24924

> <chembl_pref_name>
FLUINDIONE
