
     RDKit          2D

 40 43  0  0  0  0  0  0  0  0999 V2000
    2.2173    3.3108    0.0000 C   0  0  0  0  0  0  0  0  0  0  0  0
    1.6339    2.7274    0.0000 C   0  0  0  0  0  0  0  0  0  0  0  0
    0.8371    2.9409    0.0000 C   0  0  0  0  0  0  0  0  0  0  0  0
    0.2537    2.3576    0.0000 C   0  0  0  0  0  0  0  0  0  0  0  0
   -0.5432    2.5711    0.0000 O   0  0  0  0  0  0  0  0  0  0  0  0
    0.4672    1.5607    0.0000 O   0  0  0  0  0  0  0  0  0  0  0  0
    3.0142    3.0973    0.0000 O   0  0  0  0  0  0  0  0  0  0  0  0
    2.0038    4.1077    0.0000 O   0  0  0  0  0  0  0  0  0  0  0  0
   -8.7174    3.2853    0.0000 C   0  0  0  0  0  0  0  0  0  0  0  0
   -9.4319    2.8728    0.0000 C   0  0  0  0  0  0  0  0  0  0  0  0
   -9.4319    2.0478    0.0000 C   0  0  0  0  0  0  0  0  0  0  0  0
   -8.7174    1.6353    0.0000 C   0  0  0  0  0  0  0  0  0  0  0  0
   -8.0029    2.0478    0.0000 C   0  0  0  0  0  0  0  0  0  0  0  0
   -8.0029    2.8728    0.0000 N   0  0  0  0  0  0  0  0  0  0  0  0
  -10.1463    3.2853    0.0000 N   0  0  0  0  0  0  0  0  0  0  0  0
  -10.1464    4.1103    0.0000 C   0  0  0  0  0  0  0  0  0  0  0  0
  -10.8608    4.5228    0.0000 C   0  0  0  0  0  0  0  0  0  0  0  0
  -11.5753    4.1103    0.0000 N   0  0  0  0  0  0  0  0  0  0  0  0
  -11.5753    3.2853    0.0000 C   0  0  0  0  0  0  0  0  0  0  0  0
  -10.8608    2.8728    0.0000 C   0  0  0  0  0  0  0  0  0  0  0  0
   -7.2884    1.6353    0.0000 N   0  0  0  0  0  0  0  0  0  0  0  0
   -6.5739    2.0478    0.0000 C   0  0  0  0  0  0  0  0  0  0  0  0
   -5.8595    1.6353    0.0000 N   0  0  0  0  0  0  0  0  0  0  0  0
   -5.1450    2.0478    0.0000 C   0  0  0  0  0  0  0  0  0  0  0  0
   -5.1450    2.8728    0.0000 C   0  0  0  0  0  0  0  0  0  0  0  0
   -5.8595    3.2853    0.0000 C   0  0  0  0  0  0  0  0  0  0  0  0
   -6.5740    2.8728    0.0000 N   0  0  0  0  0  0  0  0  0  0  0  0
   -4.3604    1.7928    0.0000 N   0  0  0  0  0  0  0  0  0  0  0  0
   -3.8755    2.4603    0.0000 C   0  0  0  0  0  0  0  0  0  0  0  0
   -4.3604    3.1277    0.0000 C   0  0  0  0  0  0  0  0  0  0  0  0
   -4.1055    1.0082    0.0000 C   0  0  0  0  0  0  0  0  0  0  0  0
   -4.5904    0.3408    0.0000 C   0  0  0  0  0  0  0  0  0  0  0  0
   -4.1055   -0.3266    0.0000 C   0  0  0  0  0  0  0  0  0  0  0  0
   -3.3209   -0.0717    0.0000 C   0  0  0  0  0  0  0  0  0  0  0  0
   -3.3209    0.7533    0.0000 C   0  0  0  0  0  0  0  0  0  0  0  0
   -3.0505    2.4603    0.0000 C   0  0  0  0  0  0  0  0  0  0  0  0
   -2.6380    3.1748    0.0000 N   0  0  0  0  0  0  0  0  0  0  0  0
   -2.6380    1.7458    0.0000 O   0  0  0  0  0  0  0  0  0  0  0  0
   -1.8130    3.1747    0.0000 C   0  0  0  0  0  0  0  0  0  0  0  0
   -3.0505    3.8892    0.0000 C   0  0  0  0  0  0  0  0  0  0  0  0
  1  2  1  0
  2  3  1  0
  3  4  1  0
  4  5  2  0
  4  6  1  0
  1  7  1  0
  1  8  2  0
  9 10  2  0
  9 14  1  0
 10 11  1  0
 11 12  2  0
 12 13  1  0
 13 14  2  0
 10 15  1  0
 15 16  1  0
 20 15  1  0
 16 17  1  0
 17 18  1  0
 18 19  1  0
 19 20  1  0
 13 21  1  0
 21 22  1  0
 22 23  2  0
 22 27  1  0
 23 24  1  0
 25 26  1  0
 26 27  2  0
 24 28  1  0
 24 25  2  0
 25 30  1  0
 28 29  1  0
 29 30  2  0
 28 31  1  0
 31 32  1  0
 31 35  1  0
 32 33  1  0
 33 34  1  0
 34 35  1  0
 29 36  1  0
 36 37  1  0
 36 38  2  0
 37 39  1  0
 37 40  1  0
M  END
> <chembl_id>
CHEMBL3707266

> <chembl_pref_name>
RIBOCICLIB SUCCINATE
