
     RDKit          2D

 30 29  0  0  0  0  0  0  0  0999 V2000
    9.8833   -5.3958    0.0000 C   0  0  0  0  0  0  0  0  0  0  0  0
    9.8750   -6.8125    0.0000 C   0  0  0  0  0  0  0  0  0  0  0  0
    9.2667   -5.7500    0.0000 C   0  0  0  0  0  0  0  0  0  0  0  0
    9.2667   -6.4542    0.0000 C   0  0  0  0  0  0  0  0  0  0  0  0
    9.8875   -4.6875    0.0000 O   0  0  0  0  0  0  0  0  0  0  0  0
    9.8708   -7.5208    0.0000 O   0  0  0  0  0  0  0  0  0  0  0  0
   10.4958   -5.7542    0.0000 O   0  0  0  0  0  0  0  0  0  0  0  0
   10.4917   -6.4625    0.0000 O   0  0  0  0  0  0  0  0  0  0  0  0
    2.2250   -7.3458    0.0000 C   0  0  0  0  0  0  0  0  0  0  0  0
    2.8375   -6.9917    0.0000 C   0  0  0  0  0  0  0  0  0  0  0  0
    4.6750   -5.9208    0.0000 C   0  0  0  0  0  0  0  0  0  0  0  0
    4.6708   -5.2125    0.0000 N   0  0  0  0  0  0  0  0  0  0  0  0
    4.0625   -6.2792    0.0000 C   0  0  0  0  0  0  0  0  0  0  0  0
    2.8375   -6.2792    0.0000 C   0  0  0  0  0  0  0  0  0  0  0  0
    3.4500   -7.3458    0.0000 C   0  0  0  0  0  0  0  0  0  0  0  0
    1.8667   -7.9542    0.0000 F   0  0  0  0  0  0  0  0  0  0  0  0
    1.6083   -6.9917    0.0000 F   0  0  0  0  0  0  0  0  0  0  0  0
    2.5750   -7.9542    0.0000 F   0  0  0  0  0  0  0  0  0  0  0  0
    4.0625   -6.9917    0.0000 C   0  0  0  0  0  0  0  0  0  0  0  0
    3.4500   -5.9250    0.0000 C   0  0  0  0  0  0  0  0  0  0  0  0
    5.2833   -4.8583    0.0000 O   0  0  0  0  0  0  0  0  0  0  0  0
    7.1250   -5.2042    0.0000 N   0  0  0  0  0  0  0  0  0  0  0  0
    5.9000   -5.2083    0.0000 C   0  0  0  0  0  0  0  0  0  0  0  0
    7.7417   -6.2667    0.0000 O   0  0  0  0  0  0  0  0  0  0  0  0
    5.2875   -6.2750    0.0000 C   0  0  0  0  0  0  0  0  0  0  0  0
    6.5083   -4.8542    0.0000 C   0  0  0  0  0  0  0  0  0  0  0  0
    7.1292   -5.9125    0.0000 C   0  0  0  0  0  0  0  0  0  0  0  0
    8.3542   -5.9083    0.0000 C   0  0  0  0  0  0  0  0  0  0  0  0
    5.9000   -5.9167    0.0000 C   0  0  0  0  0  0  0  0  0  0  0  0
    6.5167   -6.2708    0.0000 C   0  0  0  0  0  0  0  0  0  0  0  0
  2  4  1  0
  3  1  1  0
  4  3  2  0
  5  1  2  0
  6  2  2  0
  7  1  1  0
  8  2  1  0
 10  9  1  0
 11 13  1  0
 12 11  2  0
 13 19  1  0
 14 10  2  0
 15 10  1  0
 16  9  1  0
 17  9  1  0
 18  9  1  0
 19 15  2  0
 20 14  1  0
 21 12  1  0
 22 26  1  0
 23 21  1  0
 24 27  1  0
 25 11  1  0
 26 23  1  0
 27 30  1  0
 28 24  1  0
 29 25  1  0
 30 29  1  0
 20 13  2  0
M  END
> <chembl_id>
CHEMBL1409

> <chembl_pref_name>
FLUVOXAMINE MALEATE
