
     RDKit          2D

 26 28  0  0  1  0  0  0  0  0999 V2000
   -0.2833   -1.8667    0.0000 S   0  0  0  0  0  0  0  0  0  0  0  0
    3.5542    1.2583    0.0000 C   0  0  0  0  0  0  0  0  0  0  0  0
    3.1542    2.0708    0.0000 C   0  0  0  0  0  0  0  0  0  0  0  0
    0.7375   -1.8667    0.0000 N   0  0  0  0  0  0  0  0  0  0  0  0
    2.7667   -0.1042    0.0000 C   0  0  0  0  0  0  0  0  0  0  0  0
    3.5542    0.3500    0.0000 C   0  0  0  0  0  0  0  0  0  0  0  0
    2.7667    0.8000    0.0000 C   0  0  0  0  0  0  0  0  0  0  0  0
    1.2417   -0.9875    0.0000 C   0  0  0  0  0  0  0  0  0  0  0  0
    2.2542   -0.9875    0.0000 N   0  0  0  0  0  0  0  0  0  0  0  0
    4.3417    0.8000    0.0000 C   0  0  0  0  0  0  0  0  0  0  0  0
   -1.3000   -1.8667    0.0000 C   0  0  0  0  0  0  0  0  0  0  0  0
    4.3417   -0.1042    0.0000 C   0  0  0  0  0  0  0  0  0  0  0  0
   -0.2833   -0.8500    0.0000 O   0  0  0  0  0  0  0  0  0  0  0  0
   -0.2833   -2.8792    0.0000 O   0  0  0  0  0  0  0  0  0  0  0  0
    0.7375   -0.1042    0.0000 O   0  0  0  0  0  0  0  0  0  0  0  0
   -1.8083   -0.9875    0.0000 C   0  0  0  0  0  0  0  0  0  0  0  0
   -1.8083   -2.7417    0.0000 C   0  0  0  0  0  0  0  0  0  0  0  0
    1.8875    1.3083    0.0000 O   0  0  0  0  0  0  0  0  0  0  0  0
    4.3000    1.9583    0.0000 C   0  0  0  0  0  0  0  0  0  0  0  0
    3.3292    3.0833    0.0000 C   0  0  0  0  0  0  0  0  0  0  0  0
    2.3792    2.7333    0.0000 C   0  0  0  0  0  0  0  0  0  0  0  0
   -2.8250   -0.9875    0.0000 C   0  0  0  0  0  0  0  0  0  0  0  0
   -2.8250   -2.7417    0.0000 C   0  0  0  0  0  0  0  0  0  0  0  0
   -3.3333   -1.8667    0.0000 C   0  0  0  0  0  0  0  0  0  0  0  0
   -4.3458   -1.8667    0.0000 C   0  0  0  0  0  0  0  0  0  0  0  0
    3.5542   -0.6667    0.0000 H   0  0  0  0  0  0  0  0  0  0  0  0
  2  7  1  0
  3  6  1  0
  4  1  1  0
  5  9  1  6
  6  5  1  0
  7  5  1  0
  8  4  1  0
  9  8  1  0
 10  2  1  0
 11  1  1  0
 12  6  1  0
 13  1  2  0
 14  1  2  0
 15  8  2  0
 16 11  1  0
 17 11  2  0
  7 18  1  6
  2 19  1  6
 20  3  1  0
 21  3  1  0
 22 16  2  0
 23 17  1  0
 24 23  2  0
 25 24  1  0
  6 26  1  1
 22 24  1  0
 12 10  1  0
  2  3  1  0
M  END
> <chembl_id>
CHEMBL529888

> <chembl_pref_name>
GLIBORNURIDE
