
     RDKit          2D

 25 26  0  0  0  0  0  0  0  0999 V2000
   -2.3223   -8.7714    0.0000 C   0  0  0  0  0  0  0  0  0  0  0  0
   -1.6705   -9.2478    0.0000 C   0  0  0  0  0  0  0  0  0  0  0  0
   -0.9195   -8.9347    0.0000 C   0  0  0  0  0  0  0  0  0  0  0  0
   -2.2024   -7.9407    0.0000 C   0  0  0  0  0  0  0  0  0  0  0  0
   -3.6701   -8.5327    0.0000 C   0  0  0  0  0  0  0  0  0  0  0  0
   -3.0562   -9.0674    0.0000 N   0  0  0  0  0  0  0  0  0  0  0  0
    1.1364   -9.6677    0.0000 N   0  0  0  0  0  0  0  0  0  0  0  0
   -0.8044   -8.1376    0.0000 C   0  0  0  0  0  0  0  0  0  0  0  0
   -3.5413   -7.7425    0.0000 O   0  0  0  0  0  0  0  0  0  0  0  0
   -1.4499   -7.6180    0.0000 C   0  0  0  0  0  0  0  0  0  0  0  0
    0.4902   -9.1529    0.0000 C   0  0  0  0  0  0  0  0  0  0  0  0
   -0.2897   -9.4619    0.0000 C   0  0  0  0  0  0  0  0  0  0  0  0
    3.3423   -9.5647    0.0000 C   0  0  0  0  0  0  0  0  0  0  0  0
    4.8891   -8.9351    0.0000 C   0  0  0  0  0  0  0  0  0  0  0  0
    2.5720   -9.8750    0.0000 C   0  0  0  0  0  0  0  0  0  0  0  0
   -2.7986   -7.4527    0.0000 O   0  0  0  0  0  0  0  0  0  0  0  0
    4.0044  -10.0720    0.0000 C   0  0  0  0  0  0  0  0  0  0  0  0
    3.4616   -8.7388    0.0000 C   0  0  0  0  0  0  0  0  0  0  0  0
    4.7684   -9.7706    0.0000 C   0  0  0  0  0  0  0  0  0  0  0  0
    4.2414   -8.4298    0.0000 C   0  0  0  0  0  0  0  0  0  0  0  0
   -0.4152  -10.3310    0.0000 O   0  0  0  0  0  0  0  0  0  0  0  0
    1.9162   -9.3588    0.0000 C   0  0  0  0  0  0  0  0  0  0  0  0
    5.6682   -8.6309    0.0000 O   0  0  0  0  0  0  0  0  0  0  0  0
    6.3247   -9.1424    0.0000 C   0  0  0  0  0  0  0  0  0  0  0  0
    2.0348   -8.5377    0.0000 C   0  0  0  0  0  0  0  0  0  0  0  0
  2  1  1  0
  3  2  2  0
  4  1  2  0
  5  6  1  0
  6  1  1  0
  7 11  1  0
  8 10  2  0
  9  5  2  0
 10  4  1  0
 11 12  1  0
 12  3  1  0
 13 15  1  0
 14 20  2  0
 15 22  1  0
 16  4  1  0
 17 13  1  0
 18 13  2  0
 19 17  2  0
 20 18  1  0
 12 21  1  6
 22  7  1  0
 23 14  1  0
 24 23  1  0
 22 25  1  6
  8  3  1  0
 14 19  1  0
M  END
> <chembl_id>
CHEMBL1363

> <chembl_pref_name>
ARFORMOTEROL
