
     RDKit          2D

 38 40  0  0  0  0  0  0  0  0999 V2000
   10.3292   -4.4042    0.0000 Na  0  0  0  0  0 15  0  0  0  0  0  0
    2.7417   -6.7250    0.0000 C   0  0  0  0  0  0  0  0  0  0  0  0
    4.5875   -5.6750    0.0000 C   0  0  0  0  0  0  0  0  0  0  0  0
    2.7417   -7.4292    0.0000 C   0  0  0  0  0  0  0  0  0  0  0  0
    5.2625   -5.4625    0.0000 C   0  0  0  0  0  0  0  0  0  0  0  0
    3.3542   -6.3667    0.0000 C   0  0  0  0  0  0  0  0  0  0  0  0
    3.9667   -6.7292    0.0000 C   0  0  0  0  0  0  0  0  0  0  0  0
    4.5792   -6.3792    0.0000 C   0  0  0  0  0  0  0  0  0  0  0  0
    2.1292   -6.3667    0.0000 C   0  0  0  0  0  0  0  0  0  0  0  0
    3.9750   -5.3125    0.0000 C   0  0  0  0  0  0  0  0  0  0  0  0
    3.3542   -5.6625    0.0000 C   0  0  0  0  0  0  0  0  0  0  0  0
    3.9625   -7.4375    0.0000 C   0  0  0  0  0  0  0  0  0  0  0  0
    2.1292   -7.7875    0.0000 C   0  0  0  0  0  0  0  0  0  0  0  0
    3.3500   -7.7875    0.0000 C   0  0  0  0  0  0  0  0  0  0  0  0
    5.2542   -4.7542    0.0000 C   0  0  0  0  0  0  0  0  0  0  0  0
    5.6667   -6.0375    0.0000 C   0  0  0  0  0  0  0  0  0  0  0  0
    5.2500   -6.6042    0.0000 C   0  0  0  0  0  0  0  0  0  0  0  0
    1.5167   -6.7250    0.0000 C   0  0  0  0  0  0  0  0  0  0  0  0
    1.5167   -7.4292    0.0000 C   0  0  0  0  0  0  0  0  0  0  0  0
    8.9375   -4.7250    0.0000 C   0  0  0  0  0  0  0  0  0  0  0  0
    7.0917   -4.3792    0.0000 C   0  0  0  0  0  0  0  0  0  0  0  0
    5.8667   -4.3917    0.0000 C   0  0  0  0  0  0  0  0  0  0  0  0
    9.5417   -4.3667    0.0000 O   0  0  0  0  0  0  0  0  0  0  0  0
    4.6417   -4.4042    0.0000 O   0  0  0  0  0  0  0  0  0  0  0  0
    6.4792   -4.7417    0.0000 O   0  0  0  0  0  0  0  0  0  0  0  0
    8.9417   -5.4292    0.0000 O   0  0  0  0  0  0  0  0  0  0  0  0
    7.0875   -3.6750    0.0000 O   0  0  0  0  0  0  0  0  0  0  0  0
    0.9042   -7.7792    0.0000 O   0  0  0  0  0  0  0  0  0  0  0  0
    5.8750   -5.1042    0.0000 O   0  0  0  0  0  0  0  0  0  0  0  0
    2.7375   -6.0167    0.0000 C   0  0  0  0  0  0  0  0  0  0  0  0
    4.5792   -4.9667    0.0000 C   0  0  0  0  0  0  0  0  0  0  0  0
    2.7417   -5.3042    0.0000 O   0  0  0  0  0  0  0  0  0  0  0  0
    8.3167   -4.3750    0.0000 C   0  0  0  0  0  0  0  0  0  0  0  0
    7.7042   -4.7292    0.0000 C   0  0  0  0  0  0  0  0  0  0  0  0
    3.3417   -8.4917    0.0000 C   0  0  0  0  0  0  0  0  0  0  0  0
    4.5750   -7.0875    0.0000 H   0  0  0  0  0  0  0  0  0  0  0  0
    3.9625   -6.0167    0.0000 H   0  0  0  0  0  0  0  0  0  0  0  0
    3.3500   -7.0792    0.0000 H   0  0  0  0  0  0  0  0  0  0  0  0
  3 10  1  0
  4  2  1  0
  5  3  1  0
  6  2  1  0
  7  6  1  0
  8  7  1  0
  9  2  1  0
 10 11  1  0
 11  6  1  0
 12  7  1  0
 13  4  2  0
 14  4  1  0
 15  5  1  0
 16 17  1  0
 17  8  1  0
 18  9  2  0
 19 18  1  0
 20 33  1  0
 21 25  1  0
 22 15  1  0
 23 20  1  0
 24 15  2  0
 25 22  1  0
 26 20  2  0
 27 21  2  0
 28 19  2  0
  5 29  1  6
  2 30  1  1
  3 31  1  1
 11 32  1  1
 33 34  1  0
 34 21  1  0
 14 35  1  6
  8 36  1  6
  7 37  1  1
  6 38  1  6
 12 14  1  0
 19 13  1  0
  8  3  1  0
  5 16  1  0
M  CHG  2   1   1  23  -1
M  END
> <chembl_id>
CHEMBL1201081

> <chembl_pref_name>
METHYLPREDNISOLONE SODIUM SUCCINATE
