
     RDKit          2D

 19 19  0  0  0  0  0  0  0  0999 V2000
    0.5288   -1.8966    0.0000 C   0  0  0  0  0  0  0  0  0  0  0  0
    1.9372   -1.6465    0.0000 C   0  0  0  0  0  0  0  0  0  0  0  0
   -0.8839   -5.0469    0.0000 N   0  0  0  0  0  0  0  0  0  0  0  0
    2.3665   -4.0843    0.0000 O   0  0  0  0  0  0  0  0  0  0  0  0
   -0.9381   -2.7424    0.0000 C   0  0  0  0  0  0  0  0  0  0  0  0
   -0.1629   -2.4593    0.0000 C   0  0  0  0  0  0  0  0  0  0  0  0
   -1.0796   -3.5552    0.0000 C   0  0  0  0  0  0  0  0  0  0  0  0
    0.4705   -2.9925    0.0000 C   0  0  0  0  0  0  0  0  0  0  0  0
   -0.4505   -4.0843    0.0000 C   0  0  0  0  0  0  0  0  0  0  0  0
    0.6705   -2.7091    0.0000 C   0  0  0  0  0  0  0  0  0  0  0  0
    2.0790   -2.4593    0.0000 C   0  0  0  0  0  0  0  0  0  0  0  0
   -0.1671   -5.4595    0.0000 C   0  0  0  0  0  0  0  0  0  0  0  0
    1.3706   -5.0469    0.0000 C   0  0  0  0  0  0  0  0  0  0  0  0
    1.5914   -3.8051    0.0000 C   0  0  0  0  0  0  0  0  0  0  0  0
    0.3246   -3.8051    0.0000 C   0  0  0  0  0  0  0  0  0  0  0  0
    0.5455   -5.0469    0.0000 C   0  0  0  0  0  0  0  0  0  0  0  0
    1.4456   -2.9925    0.0000 N   0  0  0  0  0  0  0  0  0  0  0  0
    0.9581   -4.3344    0.0000 C   0  0  0  0  0  0  0  0  0  0  0  0
    2.4059   -5.5764    0.0000 Cl  0  0  0  0  0  0  0  0  0  0  0  0
  1 10  1  0
  2 11  1  0
  3 12  1  0
  4 14  2  0
  5  6  1  0
  5  7  2  0
  6  8  2  0
  7  9  1  0
  8 15  1  0
  9 15  2  0
 10 17  1  0
 11 17  1  0
 16 12  1  0
 13 16  1  0
 13 18  1  0
 14 17  1  0
 18 14  1  0
 18 15  1  0
 16 18  1  0
M  END
> <chembl_id>
CHEMBL4297064

> <chembl_pref_name>
MILNACIPRAN HYDROCHLORIDE
