
     RDKit          2D

 17 17  0  0  0  0  0  0  0  0999 V2000
    2.1417   -2.8792    0.0000 S   0  0  0  0  0  0  0  0  0  0  0  0
    2.7542   -2.5292    0.0000 N   0  0  0  0  0  0  0  0  0  0  0  0
    3.3792   -2.8792    0.0000 C   0  0  0  0  0  0  0  0  0  0  0  0
    1.4958   -2.5250    0.0000 C   0  0  0  0  0  0  0  0  0  0  0  0
    2.4917   -3.4917    0.0000 O   0  0  0  0  0  0  0  0  0  0  0  0
    1.7792   -3.4917    0.0000 O   0  0  0  0  0  0  0  0  0  0  0  0
    3.3792   -3.5792    0.0000 O   0  0  0  0  0  0  0  0  0  0  0  0
    3.9917   -2.5292    0.0000 N   0  0  0  0  0  0  0  0  0  0  0  0
    0.8917   -2.8708    0.0000 C   0  0  0  0  0  0  0  0  0  0  0  0
    1.4958   -1.8083    0.0000 C   0  0  0  0  0  0  0  0  0  0  0  0
    0.2875   -1.8167    0.0000 C   0  0  0  0  0  0  0  0  0  0  0  0
    0.2833   -2.5083    0.0000 C   0  0  0  0  0  0  0  0  0  0  0  0
    0.8750   -1.4583    0.0000 C   0  0  0  0  0  0  0  0  0  0  0  0
   -0.3583   -1.4792    0.0000 Cl  0  0  0  0  0  0  0  0  0  0  0  0
    4.6042   -2.8792    0.0000 C   0  0  0  0  0  0  0  0  0  0  0  0
    5.2292   -2.5292    0.0000 C   0  0  0  0  0  0  0  0  0  0  0  0
    5.8417   -2.8792    0.0000 C   0  0  0  0  0  0  0  0  0  0  0  0
  2  1  1  0
  3  2  1  0
  4  1  1  0
  5  1  2  0
  6  1  2  0
  7  3  2  0
  8  3  1  0
  9  4  2  0
 10  4  1  0
 11 13  1  0
 12  9  1  0
 13 10  2  0
 14 11  1  0
 15  8  1  0
 16 15  1  0
 17 16  1  0
 12 11  2  0
M  END
> <chembl_id>
CHEMBL498

> <chembl_pref_name>
CHLORPROPAMIDE
