
     RDKit          2D

 13 12  0  0  0  0  0  0  0  0999 V2000
    1.6245   -2.0041    0.0000 Cl  0  0  0  0  0  0  0  0  0  0  0  0
   -0.1559   -0.1895    0.0000 C   0  0  0  0  0  0  0  0  0  0  0  0
    0.6141    0.0695    0.0000 C   0  0  0  0  0  0  0  0  0  0  0  0
   -0.7772    0.3454    0.0000 C   0  0  0  0  0  0  0  0  0  0  0  0
   -1.5663    0.0792    0.0000 N   0  0  0  0  0  0  0  0  0  0  0  0
   -0.3166   -1.0027    0.0000 O   0  0  0  0  0  0  0  0  0  0  0  0
    1.2401   -0.4677    0.0000 C   0  0  0  0  0  0  0  0  0  0  0  0
    0.7724    0.8755    0.0000 C   0  0  0  0  0  0  0  0  0  0  0  0
   -2.1852    0.6236    0.0000 C   0  0  0  0  0  0  0  0  0  0  0  0
   -0.6164    1.1633    0.0000 C   0  0  0  0  0  0  0  0  0  0  0  0
    2.0221   -0.1967    0.0000 C   0  0  0  0  0  0  0  0  0  0  0  0
    1.5615    1.1490    0.0000 C   0  0  0  0  0  0  0  0  0  0  0  0
    2.1828    0.6021    0.0000 C   0  0  0  0  0  0  0  0  0  0  0  0
  3  2  1  0
  4  2  1  0
  4  5  1  1
  2  6  1  1
  7  3  2  0
  8  3  1  0
  9  5  1  0
 10  4  1  0
 11  7  1  0
 12  8  2  0
 13 12  1  0
 11 13  2  0
M  END
> <chembl_id>
CHEMBL2146102

> <chembl_pref_name>
EPHEDRINE HYDROCHLORIDE
