
     RDKit          2D

 21 23  0  0  0  0  0  0  0  0999 V2000
   -0.5583   -0.0542    0.0000 C   0  0  0  0  0  0  0  0  0  0  0  0
   -1.5000    0.4833    0.0000 C   0  0  0  0  0  0  0  0  0  0  0  0
   -0.5375   -1.2000    0.0000 O   0  0  0  0  0  0  0  0  0  0  0  0
   -2.4458   -0.0542    0.0000 C   0  0  0  0  0  0  0  0  0  0  0  0
    0.3667    0.4500    0.0000 O   0  0  0  0  0  0  0  0  0  0  0  0
   -1.5000    1.5833    0.0000 O   0  0  0  0  0  0  0  0  0  0  0  0
   -2.4458   -1.1542    0.0000 C   0  0  0  0  0  0  0  0  0  0  0  0
   -3.4000    0.4833    0.0000 C   0  0  0  0  0  0  0  0  0  0  0  0
   -3.4000   -1.7000    0.0000 C   0  0  0  0  0  0  0  0  0  0  0  0
   -4.3458   -0.0542    0.0000 C   0  0  0  0  0  0  0  0  0  0  0  0
   -4.3458   -1.1542    0.0000 C   0  0  0  0  0  0  0  0  0  0  0  0
    2.3292   -0.2417    0.0000 N   0  0  0  0  0  0  0  0  0  0  0  0
    2.5417   -0.8542    0.0000 N   0  0  0  0  0  0  0  0  0  0  0  0
    4.2625   -0.3417    0.0000 N   0  0  0  0  0  0  0  0  0  0  0  0
    3.2792    1.1500    0.0000 N   0  0  0  0  0  0  0  0  0  0  0  0
    1.4667   -1.1500    0.0000 C   0  0  0  0  0  0  0  0  0  0  0  0
    3.2667   -0.5917    0.0000 C   0  0  0  0  0  0  0  0  0  0  0  0
    2.3167    0.8083    0.0000 C   0  0  0  0  0  0  0  0  0  0  0  0
    3.5375   -1.2542    0.0000 C   0  0  0  0  0  0  0  0  0  0  0  0
    2.5375    0.2708    0.0000 C   0  0  0  0  0  0  0  0  0  0  0  0
    4.2667    0.7458    0.0000 C   0  0  0  0  0  0  0  0  0  0  0  0
  2  1  1  0
  3  1  2  0
  4  2  1  0
  5  1  1  0
  6  2  1  0
  7  4  1  0
  8  4  2  0
  9  7  2  0
 10  8  1  0
 11 10  2  0
  9 11  1  0
 13 16  1  0
 14 17  1  0
 15 18  1  0
 16 12  1  0
 17 12  1  0
 18 12  1  0
 19 14  1  0
 20 15  1  0
 21 15  1  0
 14 21  1  0
 13 20  1  0
 13 19  1  0
M  END
> <chembl_id>
CHEMBL3833312

> <chembl_pref_name>
METHENAMINE MANDELATE
