
     RDKit          2D

 26 28  0  0  1  0  0  0  0  0999 V2000
    4.1042   -3.6250    0.0000 N   0  0  0  0  0  0  0  0  0  0  0  0
    3.4917   -3.9792    0.0000 C   0  0  0  0  0  0  0  0  0  0  0  0
    2.8792   -3.6250    0.0000 C   0  0  0  0  0  0  0  0  0  0  0  0
    2.2667   -4.6792    0.0000 C   0  0  0  0  0  0  0  0  0  0  0  0
    1.4292   -5.7125    0.0000 N   0  0  0  0  0  0  0  0  0  0  0  0
    2.2583   -3.9792    0.0000 N   0  0  0  0  0  0  0  0  0  0  0  0
    4.6792   -4.0417    0.0000 C   0  0  0  0  0  0  0  0  0  0  0  0
    1.6875   -2.9667    0.0000 N   0  0  0  0  0  0  0  0  0  0  0  0
    4.6792   -4.7500    0.0000 C   0  0  0  0  0  0  0  0  0  0  0  0
    1.6542   -5.0375    0.0000 C   0  0  0  0  0  0  0  0  0  0  0  0
    0.7250   -5.7125    0.0000 C   0  0  0  0  0  0  0  0  0  0  0  0
    2.2542   -2.5542    0.0000 C   0  0  0  0  0  0  0  0  0  0  0  0
    2.8750   -2.9167    0.0000 C   0  0  0  0  0  0  0  0  0  0  0  0
    1.3292   -1.8792    0.0000 N   0  0  0  0  0  0  0  0  0  0  0  0
    1.1125   -2.5542    0.0000 C   0  0  0  0  0  0  0  0  0  0  0  0
    3.4917   -4.6875    0.0000 O   0  0  0  0  0  0  0  0  0  0  0  0
    2.0417   -1.8792    0.0000 C   0  0  0  0  0  0  0  0  0  0  0  0
    2.8792   -5.0375    0.0000 O   0  0  0  0  0  0  0  0  0  0  0  0
    4.0667   -5.1042    0.0000 O   0  0  0  0  0  0  0  0  0  0  0  0
    0.3042   -6.2792    0.0000 O   0  0  0  0  0  0  0  0  0  0  0  0
    1.0792   -4.6167    0.0000 C   0  0  0  0  0  0  0  0  0  0  0  0
    5.2917   -5.1042    0.0000 N   0  0  0  0  0  0  0  0  0  0  0  0
    4.3250   -2.9500    0.0000 C   0  0  0  0  0  0  0  0  0  0  0  0
    0.5042   -5.0375    0.0000 C   0  0  0  0  0  0  0  0  0  0  0  0
    5.2542   -3.6250    0.0000 C   0  0  0  0  0  0  0  0  0  0  0  0
    5.0292   -2.9500    0.0000 C   0  0  0  0  0  0  0  0  0  0  0  0
  2  1  1  0
  3  2  1  0
  4  6  1  0
  5 10  1  0
  6  3  1  0
  7  1  1  0
  8 12  1  0
  7  9  1  1
 10  4  1  1
 11  5  1  0
 12 13  1  0
  3 13  1  1
 14 17  1  0
 15  8  2  0
 16  2  2  0
 17 12  2  0
 18  4  2  0
 19  9  2  0
 20 11  2  0
 21 10  1  0
 22  9  1  0
 23  1  1  0
 24 21  1  0
 25  7  1  0
 26 23  1  0
 25 26  1  0
 14 15  1  0
 11 24  1  0
M  END
> <chembl_id>
CHEMBL1472

> <chembl_pref_name>
PROTIRELIN
