
     RDKit          2D

 25 27  0  0  0  0  0  0  0  0999 V2000
    3.0500   -5.2958    0.0000 N   0  0  0  0  0  0  0  0  0  0  0  0
    2.3417   -5.3000    0.0000 C   0  0  0  0  0  0  0  0  0  0  0  0
    2.3417   -4.5875    0.0000 C   0  0  0  0  0  0  0  0  0  0  0  0
    3.6542   -5.6458    0.0000 C   0  0  0  0  0  0  0  0  0  0  0  0
    3.0500   -4.5875    0.0000 C   0  0  0  0  0  0  0  0  0  0  0  0
    1.7250   -4.2292    0.0000 N   0  0  0  0  0  0  0  0  0  0  0  0
    1.1083   -4.5875    0.0000 C   0  0  0  0  0  0  0  0  0  0  0  0
    3.6500   -6.3542    0.0000 C   0  0  0  0  0  0  0  0  0  0  0  0
    4.2667   -5.3000    0.0000 C   0  0  0  0  0  0  0  0  0  0  0  0
    3.6625   -4.2375    0.0000 C   0  0  0  0  0  0  0  0  0  0  0  0
    0.4958   -4.2333    0.0000 C   0  0  0  0  0  0  0  0  0  0  0  0
    1.8458   -5.8000    0.0000 O   0  0  0  0  0  0  0  0  0  0  0  0
    1.1083   -5.2958    0.0000 O   0  0  0  0  0  0  0  0  0  0  0  0
    4.2708   -4.5958    0.0000 C   0  0  0  0  0  0  0  0  0  0  0  0
    3.0333   -6.7042    0.0000 O   0  0  0  0  0  0  0  0  0  0  0  0
   -0.1167   -4.5875    0.0000 C   0  0  0  0  0  0  0  0  0  0  0  0
    4.8750   -5.6583    0.0000 Cl  0  0  0  0  0  0  0  0  0  0  0  0
    0.4958   -3.5250    0.0000 N   0  0  0  0  0  0  0  0  0  0  0  0
    4.2583   -6.7125    0.0000 O   0  0  0  0  0  0  0  0  0  0  0  0
   -0.1167   -5.2875    0.0000 C   0  0  0  0  0  0  0  0  0  0  0  0
   -0.7292   -4.2292    0.0000 C   0  0  0  0  0  0  0  0  0  0  0  0
   -1.3417   -4.5833    0.0000 C   0  0  0  0  0  0  0  0  0  0  0  0
   -0.7250   -5.6458    0.0000 C   0  0  0  0  0  0  0  0  0  0  0  0
   -1.3417   -5.2917    0.0000 C   0  0  0  0  0  0  0  0  0  0  0  0
    3.0417   -3.8792    0.0000 H   0  0  0  0  0  0  0  0  0  0  0  0
  2  1  1  0
  3  5  1  0
  4  1  1  0
  5  1  1  0
  3  6  1  1
  7  6  1  0
  8  4  1  0
  9  4  2  0
 10  5  1  0
 11  7  1  0
 12  2  2  0
 13  7  2  0
 14  9  1  0
 15  8  2  0
 16 11  1  0
 17  9  1  0
 11 18  1  1
 19  8  1  0
 20 16  1  0
 21 16  2  0
 22 21  1  0
 23 20  2  0
 24 23  1  0
  5 25  1  6
  2  3  1  0
 10 14  1  0
 24 22  2  0
M  END
> <chembl_id>
CHEMBL1013

> <chembl_pref_name>
LORACARBEF ANHYDROUS
