
     RDKit          2D

 28 31  0  0  1  0  0  0  0  0999 V2000
    6.5029   -2.2495    0.0000 C   0  0  0  0  0  0  0  0  0  0  0  0
    4.3491   -3.4785    0.0000 C   0  0  0  0  0  0  0  0  0  0  0  0
    6.4904   -3.0744    0.0000 C   0  0  0  0  0  0  0  0  0  0  0  0
    5.0532   -3.0661    0.0000 C   0  0  0  0  0  0  0  0  0  0  0  0
    5.7780   -3.4868    0.0000 C   0  0  0  0  0  0  0  0  0  0  0  0
    7.2902   -2.0038    0.0000 C   0  0  0  0  0  0  0  0  0  0  0  0
    4.3491   -4.3033    0.0000 C   0  0  0  0  0  0  0  0  0  0  0  0
    5.7905   -1.8288    0.0000 C   0  0  0  0  0  0  0  0  0  0  0  0
    5.0532   -2.2287    0.0000 C   0  0  0  0  0  0  0  0  0  0  0  0
    7.2735   -3.3410    0.0000 C   0  0  0  0  0  0  0  0  0  0  0  0
    3.6285   -3.0661    0.0000 C   0  0  0  0  0  0  0  0  0  0  0  0
    7.7734   -2.6787    0.0000 C   0  0  0  0  0  0  0  0  0  0  0  0
    5.7613   -4.3116    0.0000 C   0  0  0  0  0  0  0  0  0  0  0  0
    7.7026   -1.2872    0.0000 C   0  0  0  0  0  0  0  0  0  0  0  0
    2.9286   -4.3033    0.0000 C   0  0  0  0  0  0  0  0  0  0  0  0
    3.6285   -4.7157    0.0000 C   0  0  0  0  0  0  0  0  0  0  0  0
    5.0532   -4.7157    0.0000 C   0  0  0  0  0  0  0  0  0  0  0  0
    8.5233   -1.2789    0.0000 O   0  0  0  0  0  0  0  0  0  0  0  0
    2.9286   -3.4785    0.0000 C   0  0  0  0  0  0  0  0  0  0  0  0
    6.5029   -1.4247    0.0000 C   0  0  0  0  0  0  0  0  0  0  0  0
    4.3366   -2.6537    0.0000 C   0  0  0  0  0  0  0  0  0  0  0  0
    2.5037   -5.0157    0.0000 O   0  0  0  0  0  0  0  0  0  0  0  0
    2.3412   -3.7034    0.0000 C   0  0  0  0  0  0  0  0  0  0  0  0
    7.2735   -0.5749    0.0000 C   0  0  0  0  0  0  0  0  0  0  0  0
    4.3366   -5.1157    0.0000 H   0  0  0  0  0  0  0  0  0  0  0  0
    5.0532   -3.8911    0.0000 H   0  0  0  0  0  0  0  0  0  0  0  0
    5.7780   -2.6618    0.0000 H   0  0  0  0  0  0  0  0  0  0  0  0
    6.4904   -3.8994    0.0000 H   0  0  0  0  0  0  0  0  0  0  0  0
  2  4  1  0
  3  1  1  0
  4  9  1  0
  5  3  1  0
  6  1  1  0
  7  2  1  0
  8  1  1  0
  9  8  1  0
 10  3  1  0
 11  2  1  0
 12  6  1  0
 13  5  1  0
  6 14  1  1
 15 19  1  0
 16  7  1  0
 17 13  1  0
 18 14  2  0
 19 11  1  0
  1 20  1  1
  2 21  1  1
 15 22  1  0
 15 23  1  1
 24 14  1  0
  7 25  1  6
 12 10  1  0
  4  5  1  0
 17  7  1  0
 15 16  1  0
  4 26  1  6
  5 27  1  1
  3 28  1  6
M  END
> <chembl_id>
CHEMBL1568698

> <chembl_pref_name>
GANAXOLONE
