
     RDKit          2D

 36 37  0  0  0  0  0  0  0  0999 V2000
   56.2403    0.9156    0.0000 Na  0  0  0  0  0 15  0  0  0  0  0  0
   52.7059    0.3159    0.0000 C   0  0  0  0  0  0  0  0  0  0  0  0
   51.2496   -0.4596    0.0000 C   0  0  0  0  0  0  0  0  0  0  0  0
   50.5221   -0.8492    0.0000 C   0  0  0  0  0  0  0  0  0  0  0  0
   52.6800   -0.5073    0.0000 C   0  0  0  0  0  0  0  0  0  0  0  0
   53.4981    0.5470    0.0000 C   0  0  0  0  0  0  0  0  0  0  0  0
   51.9525   -0.8969    0.0000 C   0  0  0  0  0  0  0  0  0  0  0  0
   50.4962   -1.6723    0.0000 C   0  0  0  0  0  0  0  0  0  0  0  0
   55.0051    2.9727    0.0000 P   0  0  0  0  0  0  0  0  0  0  0  0
   51.2757    0.3636    0.0000 C   0  0  0  0  0  0  0  0  0  0  0  0
   52.0031    0.7534    0.0000 C   0  0  0  0  0  0  0  0  0  0  0  0
   53.9606   -0.1349    0.0000 C   0  0  0  0  0  0  0  0  0  0  0  0
   49.8246   -0.4144    0.0000 C   0  0  0  0  0  0  0  0  0  0  0  0
   53.4537   -0.7858    0.0000 C   0  0  0  0  0  0  0  0  0  0  0  0
   54.2256    0.9367    0.0000 C   0  0  0  0  0  0  0  0  0  0  0  0
   49.7687   -2.0620    0.0000 C   0  0  0  0  0  0  0  0  0  0  0  0
   51.9224   -1.7214    0.0000 C   0  0  0  0  0  0  0  0  0  0  0  0
   49.0972   -0.8041    0.0000 C   0  0  0  0  0  0  0  0  0  0  0  0
   49.0671   -1.6286    0.0000 C   0  0  0  0  0  0  0  0  0  0  0  0
   54.2516    1.7599    0.0000 C   0  0  0  0  0  0  0  0  0  0  0  0
   54.9791    2.1495    0.0000 O   0  0  0  0  0  0  0  0  0  0  0  0
   55.0311    3.7958    0.0000 O   0  0  0  0  0  0  0  0  0  0  0  0
   55.8283    2.9466    0.0000 O   0  0  0  0  0  0  0  0  0  0  0  0
   51.1989   -2.1097    0.0000 C   0  0  0  0  0  0  0  0  0  0  0  0
   54.1820    2.9987    0.0000 O   0  0  0  0  0  0  0  0  0  0  0  0
   51.3006   -1.1296    0.0000 F   0  0  0  0  0  0  0  0  0  0  0  0
   54.9231    0.5019    0.0000 O   0  0  0  0  0  0  0  0  0  0  0  0
   48.3396   -2.0182    0.0000 O   0  0  0  0  0  0  0  0  0  0  0  0
   53.4508    1.4194    0.0000 O   0  0  0  0  0  0  0  0  0  0  0  0
   52.6382    1.2575    0.0000 C   0  0  0  0  0  0  0  0  0  0  0  0
   50.5781    0.7984    0.0000 O   0  0  0  0  0  0  0  0  0  0  0  0
   50.5445    0.0484    0.0000 C   0  0  0  0  0  0  0  0  0  0  0  0
   54.7837   -0.1610    0.0000 C   0  0  0  0  0  0  0  0  0  0  0  0
   51.9161   -0.0045    0.0000 H   0  0  0  0  0  0  0  0  0  0  0  0
   52.7907   -1.2942    0.0000 H   0  0  0  0  0  0  0  0  0  0  0  0
   56.2438    1.5234    0.0000 Na  0  0  0  0  0 15  0  0  0  0  0  0
  3 10  1  0
  4  3  1  0
  5  2  1  0
  6  2  1  0
  7  5  1  0
  8  4  1  0
  9 21  1  0
 10 11  1  0
 11  2  1  0
 12  6  1  0
 13  4  1  0
  5 14  1  0
  6 15  1  0
 16  8  2  0
  7 17  1  0
 18 13  2  0
 19 18  1  0
 20 15  1  0
 21 20  1  0
 22  9  1  0
 23  9  1  0
 24 17  1  0
 25  9  2  0
  3 26  1  6
 27 15  2  0
 28 19  2  0
  6 29  1  6
  2 30  1  1
 10 31  1  1
  4 32  1  1
 12 33  1  6
 14 12  1  0
  7  3  1  0
 24  8  1  0
 19 16  1  0
  7 34  1  1
  5 35  1  6
M  CHG  4   1   1  22  -1  23  -1  36   1
M  END
> <chembl_id>
CHEMBL2021430

> <chembl_pref_name>
DEXAMETHASONE SODIUM PHOSPHATE
