
     RDKit          2D

 20 21  0  0  0  0  0  0  0  0999 V2000
    4.7417   -7.1875    0.0000 C   0  0  0  0  0  0  0  0  0  0  0  0
    4.1250   -7.5792    0.0000 C   0  0  0  0  0  0  0  0  0  0  0  0
    4.7417   -6.4875    0.0000 C   0  0  0  0  0  0  0  0  0  0  0  0
    5.3542   -7.5375    0.0000 C   0  0  0  0  0  0  0  0  0  0  0  0
    5.3542   -6.1292    0.0000 C   0  0  0  0  0  0  0  0  0  0  0  0
    4.1292   -6.1292    0.0000 C   0  0  0  0  0  0  0  0  0  0  0  0
    5.9542   -7.1792    0.0000 N   0  0  0  0  0  0  0  0  0  0  0  0
    4.7750   -8.0125    0.0000 O   0  0  0  0  0  0  0  0  0  0  0  0
    4.7417   -5.0625    0.0000 C   0  0  0  0  0  0  0  0  0  0  0  0
    4.1292   -5.4167    0.0000 C   0  0  0  0  0  0  0  0  0  0  0  0
    5.3542   -5.4167    0.0000 C   0  0  0  0  0  0  0  0  0  0  0  0
    4.7417   -4.3625    0.0000 O   0  0  0  0  0  0  0  0  0  0  0  0
    3.5125   -7.2417    0.0000 C   0  0  0  0  0  0  0  0  0  0  0  0
    4.1250   -8.2917    0.0000 C   0  0  0  0  0  0  0  0  0  0  0  0
    6.5750   -7.5167    0.0000 C   0  0  0  0  0  0  0  0  0  0  0  0
    5.9542   -6.4792    0.0000 C   0  0  0  0  0  0  0  0  0  0  0  0
    5.3542   -4.0250    0.0000 C   0  0  0  0  0  0  0  0  0  0  0  0
    2.9042   -7.5792    0.0000 C   0  0  0  0  0  0  0  0  0  0  0  0
    3.5125   -8.6667    0.0000 C   0  0  0  0  0  0  0  0  0  0  0  0
    2.9042   -8.2917    0.0000 C   0  0  0  0  0  0  0  0  0  0  0  0
  2  1  1  0
  3  1  1  0
  4  1  1  0
  5  3  1  0
  6  3  2  0
  7  4  1  0
  8  2  1  0
  9 10  2  0
 10  6  1  0
 11  5  2  0
 12  9  1  0
 13  2  1  0
 14  2  1  0
 15  7  1  0
 16  7  1  0
 17 12  1  0
 18 13  1  0
 19 14  1  0
 20 18  1  0
  9 11  1  0
 20 19  1  0
M  END
> <chembl_id>
CHEMBL637

> <chembl_pref_name>
VENLAFAXINE
