
     RDKit          2D

 17 17  0  0  0  0  0  0  0  0999 V2000
    0.0625    1.0833    0.0000 C   0  0  0  0  0  0  0  0  0  0  0  0
   -0.5833    2.2458    0.0000 C   0  0  0  0  0  0  0  0  0  0  0  0
    2.0917   -0.0792    0.0000 C   0  0  0  0  0  0  0  0  0  0  0  0
   -1.9333    2.2458    0.0000 C   0  0  0  0  0  0  0  0  0  0  0  0
    1.4042   -1.2417    0.0000 N   0  0  0  0  0  0  0  0  0  0  0  0
    1.4042    1.0833    0.0000 C   0  0  0  0  0  0  0  0  0  0  0  0
   -2.5833    1.0833    0.0000 C   0  0  0  0  0  0  0  0  0  0  0  0
   -0.5833   -0.0792    0.0000 C   0  0  0  0  0  0  0  0  0  0  0  0
   -1.9333   -0.0792    0.0000 C   0  0  0  0  0  0  0  0  0  0  0  0
   -2.5833    3.4375    0.0000 O   0  0  0  0  0  0  0  0  0  0  0  0
    2.0917    2.2458    0.0000 O   0  0  0  0  0  0  0  0  0  0  0  0
   -3.9250    1.0833    0.0000 O   0  0  0  0  0  0  0  0  0  0  0  0
    2.0667   -2.4250    0.0000 C   0  0  0  0  0  0  0  0  0  0  0  0
    3.4042   -0.0792    0.0000 C   0  0  0  0  0  0  0  0  0  0  0  0
    1.3792   -3.5917    0.0000 C   0  0  0  0  0  0  0  0  0  0  0  0
    3.4250   -2.4375    0.0000 C   0  0  0  0  0  0  0  0  0  0  0  0
    4.0917   -1.2417    0.0000 C   0  0  0  0  0  0  0  0  0  0  0  0
  2  1  2  0
  3  6  1  0
  4  2  1  0
  5  3  1  0
  6  1  1  0
  7  9  1  0
  8  1  1  0
  9  8  2  0
 10  4  1  0
 11  6  1  0
 12  7  1  0
 13  5  1  0
 14  3  1  0
 15 13  1  0
 16 13  1  0
 17 14  1  0
  4  7  2  0
M  END
> <chembl_id>
CHEMBL1201213

> <chembl_pref_name>
ISOETHARINE
