
     RDKit          2D

 29 31  0  0  0  0  0  0  0  0999 V2000
   -2.9405   -1.7343    0.0000 C   0  0  0  0  0  0  0  0  0  0  0  0
   -3.6623   -1.3128    0.0000 C   0  0  0  0  0  0  0  0  0  0  0  0
   -2.2284   -1.3274    0.0000 C   0  0  0  0  0  0  0  0  0  0  0  0
   -2.9502   -2.5627    0.0000 C   0  0  0  0  0  0  0  0  0  0  0  0
   -3.6623   -0.4845    0.0000 C   0  0  0  0  0  0  0  0  0  0  0  0
   -4.3793   -1.7294    0.0000 Cl  0  0  0  0  0  0  0  0  0  0  0  0
   -1.5114   -1.7343    0.0000 C   0  0  0  0  0  0  0  0  0  0  0  0
   -2.2235   -0.4941    0.0000 C   0  0  0  0  0  0  0  0  0  0  0  0
    2.0782   -0.5135    0.0000 N   0  0  0  0  0  0  0  0  0  0  0  0
   -0.7751   -0.5086    0.0000 C   0  0  0  0  0  0  0  0  0  0  0  0
   -0.7751   -1.3274    0.0000 C   0  0  0  0  0  0  0  0  0  0  0  0
   -1.5114   -0.0872    0.0000 C   0  0  0  0  0  0  0  0  0  0  0  0
   -0.0921   -0.0872    0.0000 O   0  0  0  0  0  0  0  0  0  0  0  0
    0.6346   -0.4990    0.0000 C   0  0  0  0  0  0  0  0  0  0  0  0
    1.3612   -0.0921    0.0000 C   0  0  0  0  0  0  0  0  0  0  0  0
   -2.9405   -0.0775    0.0000 C   0  0  0  0  0  0  0  0  0  0  0  0
   -2.2381   -2.9792    0.0000 C   0  0  0  0  0  0  0  0  0  0  0  0
   -3.6623   -2.9792    0.0000 C   0  0  0  0  0  0  0  0  0  0  0  0
   -4.3744   -0.0727    0.0000 C   0  0  0  0  0  0  0  0  0  0  0  0
    2.0782   -1.3419    0.0000 C   0  0  0  0  0  0  0  0  0  0  0  0
    2.7903   -0.0921    0.0000 C   0  0  0  0  0  0  0  0  0  0  0  0
    2.7854   -1.7488    0.0000 C   0  0  0  0  0  0  0  0  0  0  0  0
    3.5024   -0.5135    0.0000 C   0  0  0  0  0  0  0  0  0  0  0  0
   -4.3647    0.7363    0.0000 C   0  0  0  0  0  0  0  0  0  0  0  0
   -2.9356    0.7363    0.0000 C   0  0  0  0  0  0  0  0  0  0  0  0
   -3.6671   -3.8076    0.0000 C   0  0  0  0  0  0  0  0  0  0  0  0
   -2.2381   -3.8125    0.0000 C   0  0  0  0  0  0  0  0  0  0  0  0
   -3.6526    1.1432    0.0000 C   0  0  0  0  0  0  0  0  0  0  0  0
   -2.9550   -4.2145    0.0000 C   0  0  0  0  0  0  0  0  0  0  0  0
 13 10  1  0
 14 13  1  0
 15 14  1  0
 16  5  2  0
 17  4  1  0
 18  4  2  0
 19  5  1  0
 20  9  1  0
 21  9  1  0
 22 20  1  0
 23 21  1  0
 24 19  2  0
 25 16  1  0
 26 18  1  0
 27 17  2  0
 28 24  1  0
 29 26  2  0
 10 11  2  0
 29 27  1  0
 28 25  2  0
  2  1  2  3
  3  1  1  0
  4  1  1  0
  5  2  1  0
  6  2  1  0
  7  3  2  0
  8  3  1  0
  9 15  1  0
 10 12  1  0
 11  7  1  0
 12  8  2  0
M  END
> <chembl_id>
CHEMBL2355051

> <chembl_pref_name>
CLOMIPHENE
