
     RDKit          2D

 30 33  0  0  1  0  0  0  0  0999 V2000
    2.8333   -7.4583    0.0000 N   0  0  0  0  0  0  0  0  0  0  0  0
    2.8292   -6.7500    0.0000 C   0  0  0  0  0  0  0  0  0  0  0  0
    2.1250   -7.4625    0.0000 C   0  0  0  0  0  0  0  0  0  0  0  0
    2.1250   -6.7500    0.0000 C   0  0  0  0  0  0  0  0  0  0  0  0
    3.5083   -7.6750    0.0000 C   0  0  0  0  0  0  0  0  0  0  0  0
    3.5042   -6.5292    0.0000 S   0  0  0  0  0  0  0  0  0  0  0  0
    0.8875   -6.7500    0.0000 C   0  0  0  0  0  0  0  0  0  0  0  0
    3.9250   -7.1000    0.0000 C   0  0  0  0  0  0  0  0  0  0  0  0
    1.5042   -6.3917    0.0000 N   0  0  0  0  0  0  0  0  0  0  0  0
    0.2750   -6.3958    0.0000 C   0  0  0  0  0  0  0  0  0  0  0  0
    3.5042   -8.3792    0.0000 C   0  0  0  0  0  0  0  0  0  0  0  0
   -0.3333   -6.7500    0.0000 C   0  0  0  0  0  0  0  0  0  0  0  0
    1.6208   -7.9625    0.0000 O   0  0  0  0  0  0  0  0  0  0  0  0
    0.2792   -5.6833    0.0000 C   0  0  0  0  0  0  0  0  0  0  0  0
    0.8875   -7.4583    0.0000 O   0  0  0  0  0  0  0  0  0  0  0  0
    4.1125   -8.7417    0.0000 O   0  0  0  0  0  0  0  0  0  0  0  0
    2.8833   -8.7292    0.0000 O   0  0  0  0  0  0  0  0  0  0  0  0
   -0.9458   -6.3958    0.0000 C   0  0  0  0  0  0  0  0  0  0  0  0
   -0.3333   -5.3292    0.0000 C   0  0  0  0  0  0  0  0  0  0  0  0
   -0.9458   -5.6833    0.0000 C   0  0  0  0  0  0  0  0  0  0  0  0
    4.5375   -7.4542    0.0000 C   0  0  0  0  0  0  0  0  0  0  0  0
    4.5375   -6.7417    0.0000 C   0  0  0  0  0  0  0  0  0  0  0  0
    0.8958   -5.3333    0.0000 O   0  0  0  0  0  0  0  0  0  0  0  0
   -0.3292   -7.4500    0.0000 C   0  0  0  0  0  0  0  0  0  0  0  0
   -1.5542   -6.7500    0.0000 C   0  0  0  0  0  0  0  0  0  0  0  0
    1.5083   -5.6875    0.0000 C   0  0  0  0  0  0  0  0  0  0  0  0
   -0.9333   -7.8042    0.0000 C   0  0  0  0  0  0  0  0  0  0  0  0
    2.1208   -5.3375    0.0000 C   0  0  0  0  0  0  0  0  0  0  0  0
   -1.5500   -7.4583    0.0000 C   0  0  0  0  0  0  0  0  0  0  0  0
    2.8250   -6.0417    0.0000 H   0  0  0  0  0  0  0  0  0  0  0  0
  2  1  1  0
  3  1  1  0
  4  3  1  0
  5  1  1  0
  6  2  1  0
  7  9  1  0
  8  5  1  0
  4  9  1  1
 10  7  1  0
  5 11  1  6
 12 10  1  0
 13  3  2  0
 14 10  2  0
 15  7  2  0
 16 11  1  0
 17 11  2  0
 18 12  1  0
 19 14  1  0
 20 18  1  0
 21  8  1  0
 22  8  1  0
 23 14  1  0
 24 12  2  0
 25 18  2  0
 26 23  1  0
 27 24  1  0
 28 26  1  0
 29 27  2  0
  2 30  1  6
  6  8  1  0
  4  2  1  0
 20 19  2  0
 29 25  1  0
M  END
> <chembl_id>
CHEMBL1443

> <chembl_pref_name>
NAFCILLIN
