
     RDKit          2D

 37 41  0  0  0  0  0  0  0  0999 V2000
    7.1916   -0.1286    0.0000 C   0  0  0  0  0  0  0  0  0  0  0  0
    7.1916    0.6964    0.0000 C   0  0  0  0  0  0  0  0  0  0  0  0
    7.9061    1.1089    0.0000 N   0  0  0  0  0  0  0  0  0  0  0  0
    8.6206    0.6964    0.0000 C   0  0  0  0  0  0  0  0  0  0  0  0
    8.6206   -0.1286    0.0000 N   0  0  0  0  0  0  0  0  0  0  0  0
    7.9061   -0.5411    0.0000 C   0  0  0  0  0  0  0  0  0  0  0  0
    9.3350    1.1089    0.0000 N   0  0  0  0  0  0  0  0  0  0  0  0
    5.0482    1.1089    0.0000 C   0  0  0  0  0  0  0  0  0  0  0  0
    4.2636    0.8539    0.0000 N   0  0  0  0  0  0  0  0  0  0  0  0
    3.7787    1.5214    0.0000 C   0  0  0  0  0  0  0  0  0  0  0  0
    4.2636    2.1888    0.0000 N   0  0  0  0  0  0  0  0  0  0  0  0
    5.0482    1.9339    0.0000 C   0  0  0  0  0  0  0  0  0  0  0  0
    5.7627    2.3464    0.0000 C   0  0  0  0  0  0  0  0  0  0  0  0
    6.4772    1.9339    0.0000 C   0  0  0  0  0  0  0  0  0  0  0  0
    6.4772    1.1089    0.0000 C   0  0  0  0  0  0  0  0  0  0  0  0
    5.7627    0.6964    0.0000 C   0  0  0  0  0  0  0  0  0  0  0  0
    4.0087    0.0693    0.0000 C   0  0  0  0  0  0  0  0  0  0  0  0
    3.2017   -0.1022    0.0000 C   0  0  0  0  0  0  0  0  0  0  0  0
    4.5607   -0.5438    0.0000 C   0  0  0  0  0  0  0  0  0  0  0  0
    2.9537    1.5214    0.0000 C   0  0  0  0  0  0  0  0  0  0  0  0
    5.7627    3.1714    0.0000 F   0  0  0  0  0  0  0  0  0  0  0  0
    6.4772   -0.5411    0.0000 F   0  0  0  0  0  0  0  0  0  0  0  0
   10.0495   -0.1286    0.0000 N   0  0  0  0  0  0  0  0  0  0  0  0
   10.0495    0.6964    0.0000 C   0  0  0  0  0  0  0  0  0  0  0  0
   10.7640    1.1089    0.0000 C   0  0  0  0  0  0  0  0  0  0  0  0
   11.4785    0.6964    0.0000 C   0  0  0  0  0  0  0  0  0  0  0  0
   11.4785   -0.1286    0.0000 C   0  0  0  0  0  0  0  0  0  0  0  0
   10.7640   -0.5411    0.0000 C   0  0  0  0  0  0  0  0  0  0  0  0
   12.1929   -0.5411    0.0000 C   0  0  0  0  0  0  0  0  0  0  0  0
   12.9074   -1.7786    0.0000 C   0  0  0  0  0  0  0  0  0  0  0  0
   12.9074   -2.6036    0.0000 C   0  0  0  0  0  0  0  0  0  0  0  0
   12.1929   -3.0161    0.0000 N   0  0  0  0  0  0  0  0  0  0  0  0
   11.4785   -2.6036    0.0000 C   0  0  0  0  0  0  0  0  0  0  0  0
   11.4785   -1.7786    0.0000 C   0  0  0  0  0  0  0  0  0  0  0  0
   12.1929   -1.3661    0.0000 N   0  0  0  0  0  0  0  0  0  0  0  0
   12.1929   -3.8411    0.0000 C   0  0  0  0  0  0  0  0  0  0  0  0
   12.9074   -4.2536    0.0000 C   0  0  0  0  0  0  0  0  0  0  0  0
  1  2  2  0
  2  3  1  0
  3  4  2  0
  4  5  1  0
  5  6  2  0
  1  6  1  0
  4  7  1  0
  8  9  1  0
  9 10  1  0
 10 11  2  0
 11 12  1  0
  8 12  1  0
 12 13  2  0
 13 14  1  0
 14 15  2  0
 15 16  1  0
  8 16  2  0
 17 18  1  0
 17 19  1  0
  9 17  1  0
 10 20  1  0
 13 21  1  0
  2 15  1  0
  1 22  1  0
 23 24  2  0
 24 25  1  0
 25 26  2  0
 26 27  1  0
 27 28  2  0
 23 28  1  0
 30 31  1  0
 31 32  1  0
 32 33  1  0
 33 34  1  0
 34 35  1  0
 30 35  1  0
 36 37  1  0
 32 36  1  0
 29 35  1  0
 27 29  1  0
  7 24  1  0
M  END
> <chembl_id>
CHEMBL3301610

> <chembl_pref_name>
ABEMACICLIB
