
     RDKit          2D

 14 12  0  0  0  0  0  0  0  0999 V2000
    6.9674  -10.7655    0.0000 S   0  0  0  0  0  0  0  0  0  0  0  0
    4.8320  -10.3502    0.0000 N   0  0  0  0  0  0  0  0  0  0  0  0
    6.2572  -10.3501    0.0000 C   0  0  0  0  0  0  0  0  0  0  0  0
    5.5422  -10.7656    0.0000 C   0  0  0  0  0  0  0  0  0  0  0  0
   11.8721  -10.7072    0.0000 O   0  0  0  0  0  0  0  0  0  0  0  0
   11.1559   -9.4706    0.0000 O   0  0  0  0  0  0  0  0  0  0  0  0
    8.2963  -10.2969    0.0000 O   0  0  0  0  0  0  0  0  0  0  0  0
    9.0125  -11.5335    0.0000 O   0  0  0  0  0  0  0  0  0  0  0  0
   10.4399  -11.5334    0.0000 O   0  0  0  0  0  0  0  0  0  0  0  0
    9.7285   -9.4707    0.0000 O   0  0  0  0  0  0  0  0  0  0  0  0
    9.0125  -10.7083    0.0000 C   0  0  0  0  0  0  0  0  0  0  0  0
    9.7270  -10.2958    0.0000 C   0  0  0  0  0  0  0  0  0  0  0  0
   10.4414  -10.7083    0.0000 C   0  0  0  0  0  0  0  0  0  0  0  0
   11.1559  -10.2958    0.0000 C   0  0  0  0  0  0  0  0  0  0  0  0
  2  4  1  0
  3  1  1  0
  4  3  1  0
 11  8  2  0
 12 10  1  0
 13  9  1  0
 11  7  1  0
 13 14  1  0
 12 13  1  0
 14  5  1  0
 11 12  1  0
 14  6  2  0
M  END
> <chembl_id>
CHEMBL2062263

> <chembl_pref_name>
CYSTEAMINE BITARTRATE
