
     RDKit          2D

 33 36  0  0  0  0  0  0  0  0999 V2000
    4.3340   -6.2774    0.0000 S   0  0  0  0  0  0  0  0  0  0  0  0
    5.4246   -7.0603    0.0000 C   0  0  0  0  0  0  0  0  0  0  0  0
    5.4246   -8.4025    0.0000 N   0  0  0  0  0  0  0  0  0  0  0  0
    6.6968   -8.8219    0.0000 C   0  0  0  0  0  0  0  0  0  0  0  0
    7.4797   -7.7314    0.0000 C   0  0  0  0  0  0  0  0  0  0  0  0
    6.6968   -6.6549    0.0000 N   0  0  0  0  0  0  0  0  0  0  0  0
    7.1162   -5.3826    0.0000 C   0  0  0  0  0  0  0  0  0  0  0  0
    8.4164   -5.1030    0.0000 C   0  0  0  0  0  0  0  0  0  0  0  0
    8.8359   -3.8307    0.0000 C   0  0  0  0  0  0  0  0  0  0  0  0
    7.9411   -2.8241    0.0000 C   0  0  0  0  0  0  0  0  0  0  0  0
    6.6269   -3.1037    0.0000 C   0  0  0  0  0  0  0  0  0  0  0  0
    6.2075   -4.3760    0.0000 C   0  0  0  0  0  0  0  0  0  0  0  0
    5.7321   -2.1111    0.0000 F   0  0  0  0  0  0  0  0  0  0  0  0
    8.3465   -1.5519    0.0000 C   0  0  0  0  0  0  0  0  0  0  0  0
    9.6607   -1.2723    0.0000 N   0  0  0  0  0  0  0  0  0  0  0  0
   10.0802    0.0000    0.0000 C   0  0  0  0  0  0  0  0  0  0  0  0
    7.4518   -0.5592    0.0000 O   0  0  0  0  0  0  0  0  0  0  0  0
    8.1508   -8.6821    0.0000 C   0  0  0  0  0  0  0  0  0  0  0  0
    9.1015   -7.7314    0.0000 C   0  0  0  0  0  0  0  0  0  0  0  0
    8.1508   -6.7947    0.0000 C   0  0  0  0  0  0  0  0  0  0  0  0
    7.1162  -10.0941    0.0000 O   0  0  0  0  0  0  0  0  0  0  0  0
    4.3340   -9.1994    0.0000 C   0  0  0  0  0  0  0  0  0  0  0  0
    3.1177   -8.6541    0.0000 C   0  0  0  0  0  0  0  0  0  0  0  0
    2.0272   -9.4370    0.0000 N   0  0  0  0  0  0  0  0  0  0  0  0
    2.1670  -10.7652    0.0000 C   0  0  0  0  0  0  0  0  0  0  0  0
    3.3973  -11.3105    0.0000 C   0  0  0  0  0  0  0  0  0  0  0  0
    4.4739  -10.5275    0.0000 C   0  0  0  0  0  0  0  0  0  0  0  0
    3.5371  -12.6526    0.0000 C   0  0  0  0  0  0  0  0  0  0  0  0
    2.1950  -12.7924    0.0000 F   0  0  0  0  0  0  0  0  0  0  0  0
    4.8653  -12.5128    0.0000 F   0  0  0  0  0  0  0  0  0  0  0  0
    3.6770  -13.9808    0.0000 F   0  0  0  0  0  0  0  0  0  0  0  0
    1.0905  -11.5621    0.0000 C   0  0  0  0  0  0  0  0  0  0  0  0
    0.0000  -12.3450    0.0000 N   0  0  0  0  0  0  0  0  0  0  0  0
  1  2  2  0
  2  3  1  0
  2  6  1  0
  3  4  1  0
  3 22  1  0
  4  5  1  0
  4 21  2  0
  5  6  1  0
  5 18  1  0
  5 20  1  0
  6  7  1  0
  7  8  2  0
  7 12  1  0
  8  9  1  0
  9 10  2  0
 10 11  1  0
 10 14  1  0
 11 12  2  0
 11 13  1  0
 14 15  1  0
 14 17  2  0
 15 16  1  0
 18 19  1  0
 19 20  1  0
 22 23  2  0
 22 27  1  0
 23 24  1  0
 24 25  2  0
 25 26  1  0
 25 32  1  0
 26 27  2  0
 26 28  1  0
 28 29  1  0
 28 30  1  0
 28 31  1  0
 32 33  3  0
M  END
> <chembl_id>
CHEMBL3183409

> <chembl_pref_name>
APALUTAMIDE
