
     RDKit          2D

 22 22  0  0  0  0  0  0  0  0999 V2000
    4.6875   -2.7167    0.0000 C   0  0  0  0  0  0  0  0  0  0  0  0
    4.6875   -3.4250    0.0000 O   0  0  0  0  0  0  0  0  0  0  0  0
    4.0667   -2.3542    0.0000 C   0  0  0  0  0  0  0  0  0  0  0  0
    5.3000   -2.3625    0.0000 O   0  0  0  0  0  0  0  0  0  0  0  0
    3.4542   -2.7042    0.0000 O   0  0  0  0  0  0  0  0  0  0  0  0
    4.0792   -1.6417    0.0000 C   0  0  0  0  0  0  0  0  0  0  0  0
   -0.3208   -2.4042    0.0000 C   0  0  0  0  0  0  0  0  0  0  0  0
    0.2917   -2.0500    0.0000 C   0  0  0  0  0  0  0  0  0  0  0  0
    0.9042   -2.4042    0.0000 C   0  0  0  0  0  0  0  0  0  0  0  0
   -0.3208   -3.1125    0.0000 C   0  0  0  0  0  0  0  0  0  0  0  0
    0.2917   -3.4667    0.0000 N   0  0  0  0  0  0  0  0  0  0  0  0
    0.9042   -3.1125    0.0000 C   0  0  0  0  0  0  0  0  0  0  0  0
   -0.9333   -2.0500    0.0000 C   0  0  0  0  0  0  0  0  0  0  0  0
   -1.5500   -1.6917    0.0000 N   0  0  0  0  0  0  0  0  0  0  0  0
   -0.9333   -3.4625    0.0000 O   0  0  0  0  0  0  0  0  0  0  0  0
    1.5167   -2.0500    0.0000 C   0  0  0  0  0  0  0  0  0  0  0  0
    2.7417   -1.3417    0.0000 N   0  0  0  0  0  0  0  0  0  0  0  0
    1.5167   -3.4625    0.0000 C   0  0  0  0  0  0  0  0  0  0  0  0
    2.7417   -2.0500    0.0000 C   0  0  0  0  0  0  0  0  0  0  0  0
    2.1292   -0.9875    0.0000 C   0  0  0  0  0  0  0  0  0  0  0  0
    2.1292   -2.4042    0.0000 C   0  0  0  0  0  0  0  0  0  0  0  0
    1.5167   -1.3417    0.0000 C   0  0  0  0  0  0  0  0  0  0  0  0
  2  1  2  0
  3  1  1  0
  4  1  1  0
  5  3  1  0
  6  3  1  0
  8  7  2  0
  9  8  1  0
 10  7  1  0
 11 10  1  0
 12 11  1  0
 13  7  1  0
 14 13  3  0
 15 10  2  0
 16  9  1  0
 17 19  2  0
 18 12  1  0
 19 21  1  0
 20 22  2  0
 21 16  2  0
 22 16  1  0
 12  9  2  0
 17 20  1  0
M  END
> <chembl_id>
CHEMBL1200977

> <chembl_pref_name>
MILRINONE LACTATE
