
     RDKit          2D

 13 12  0  0  0  0  0  0  0  0999 V2000
    4.1625    0.8833    0.0000 Cl  0  0  0  0  0  0  0  0  0  0  0  0
   -0.5500    0.5500    0.0000 C   0  0  0  0  0  0  0  0  0  0  0  0
    0.1625    0.5500    0.0000 N   0  0  0  0  0  0  0  0  0  0  0  0
   -1.1708    0.2000    0.0000 N   0  0  0  0  0  0  0  0  0  0  0  0
   -0.7708    1.2292    0.0000 C   0  0  0  0  0  0  0  0  0  0  0  0
   -0.1958    1.6458    0.0000 N   0  0  0  0  0  0  0  0  0  0  0  0
    0.3792    1.2292    0.0000 C   0  0  0  0  0  0  0  0  0  0  0  0
   -1.7958    0.5542    0.0000 O   0  0  0  0  0  0  0  0  0  0  0  0
   -1.1750   -0.5125    0.0000 O   0  0  0  0  0  0  0  0  0  0  0  0
    0.7750    0.2000    0.0000 C   0  0  0  0  0  0  0  0  0  0  0  0
    0.9917    1.5917    0.0000 C   0  0  0  0  0  0  0  0  0  0  0  0
    2.0042    0.2000    0.0000 O   0  0  0  0  0  0  0  0  0  0  0  0
    1.3875    0.5542    0.0000 C   0  0  0  0  0  0  0  0  0  0  0  0
  3  2  1  0
  4  2  1  0
  5  2  2  0
  6  5  1  0
  7  3  1  0
  8  4  1  0
  9  4  2  0
 10  3  1  0
 11  7  1  0
 12 13  1  0
 13 10  1  0
  6  7  2  0
M  CHG  2   4   1   8  -1
M  END
> <chembl_id>
CHEMBL1200869

> <chembl_pref_name>
METRONIDAZOLE HYDROCHLORIDE
