
     RDKit          2D

 24 27  0  0  0  0  0  0  0  0999 V2000
    6.2250   -5.3167    0.0000 N   0  0  0  0  0  0  0  0  0  0  0  0
    5.8000   -6.4042    0.0000 N   0  0  0  0  0  0  0  0  0  0  0  0
    6.5625   -6.3917    0.0000 N   0  0  0  0  0  0  0  0  0  0  0  0
    5.6625   -5.7292    0.0000 C   0  0  0  0  0  0  0  0  0  0  0  0
    6.7667   -5.7292    0.0000 C   0  0  0  0  0  0  0  0  0  0  0  0
    2.6417   -4.6792    0.0000 N   0  0  0  0  0  0  0  0  0  0  0  0
    5.0667   -5.3750    0.0000 C   0  0  0  0  0  0  0  0  0  0  0  0
    2.0167   -4.3208    0.0000 C   0  0  0  0  0  0  0  0  0  0  0  0
    3.8667   -5.3750    0.0000 N   0  0  0  0  0  0  0  0  0  0  0  0
    3.2542   -4.3208    0.0000 C   0  0  0  0  0  0  0  0  0  0  0  0
    2.6417   -5.3750    0.0000 C   0  0  0  0  0  0  0  0  0  0  0  0
    4.4667   -5.7292    0.0000 C   0  0  0  0  0  0  0  0  0  0  0  0
    2.0167   -3.6167    0.0000 C   0  0  0  0  0  0  0  0  0  0  0  0
    3.2542   -5.7292    0.0000 C   0  0  0  0  0  0  0  0  0  0  0  0
    3.8667   -4.6792    0.0000 C   0  0  0  0  0  0  0  0  0  0  0  0
    6.2250   -4.6042    0.0000 C   0  0  0  0  0  0  0  0  0  0  0  0
    7.4292   -5.3500    0.0000 C   0  0  0  0  0  0  0  0  0  0  0  0
    1.4167   -4.6792    0.0000 C   0  0  0  0  0  0  0  0  0  0  0  0
    2.6917   -3.2500    0.0000 C   0  0  0  0  0  0  0  0  0  0  0  0
    1.4167   -3.2625    0.0000 C   0  0  0  0  0  0  0  0  0  0  0  0
    6.8625   -4.2417    0.0000 C   0  0  0  0  0  0  0  0  0  0  0  0
    7.4292   -4.6042    0.0000 C   0  0  0  0  0  0  0  0  0  0  0  0
    0.8000   -4.3208    0.0000 C   0  0  0  0  0  0  0  0  0  0  0  0
    0.8000   -3.6167    0.0000 C   0  0  0  0  0  0  0  0  0  0  0  0
  2  4  2  0
  3  5  2  0
  4  1  1  0
  5  1  1  0
  6 10  1  0
  7  4  1  0
  8  6  1  0
  9 12  1  0
 10 15  1  0
 11 14  1  0
 12  7  1  0
 13  8  2  0
 14  9  1  0
 15  9  1  0
 16  1  1  0
 17  5  1  0
 18  8  1  0
 19 13  1  0
 20 13  1  0
 21 16  1  0
 22 21  1  0
 23 18  2  0
 24 23  1  0
  3  2  1  0
 22 17  1  0
  6 11  1  0
 24 20  2  0
M  END
> <chembl_id>
CHEMBL1201216

> <chembl_pref_name>
DAPIPRAZOLE
