
     RDKit          2D

 16 17  0  0  0  0  0  0  0  0999 V2000
    3.3667   -2.3958    0.0000 S   0  0  0  0  0  0  0  0  0  0  0  0
    3.9792   -2.7500    0.0000 N   0  0  0  0  0  0  0  0  0  0  0  0
    4.5917   -2.3958    0.0000 C   0  0  0  0  0  0  0  0  0  0  0  0
    5.1625   -2.8167    0.0000 N   0  0  0  0  0  0  0  0  0  0  0  0
    2.7542   -2.7542    0.0000 C   0  0  0  0  0  0  0  0  0  0  0  0
    4.8125   -1.7250    0.0000 S   0  0  0  0  0  0  0  0  0  0  0  0
    3.7167   -1.7792    0.0000 O   0  0  0  0  0  0  0  0  0  0  0  0
    3.0042   -1.7792    0.0000 O   0  0  0  0  0  0  0  0  0  0  0  0
    5.7375   -2.3958    0.0000 C   0  0  0  0  0  0  0  0  0  0  0  0
    5.5167   -1.7250    0.0000 C   0  0  0  0  0  0  0  0  0  0  0  0
    2.7542   -3.4667    0.0000 C   0  0  0  0  0  0  0  0  0  0  0  0
    2.1417   -2.4000    0.0000 C   0  0  0  0  0  0  0  0  0  0  0  0
    1.5292   -3.4667    0.0000 C   0  0  0  0  0  0  0  0  0  0  0  0
    0.9167   -3.8208    0.0000 N   0  0  0  0  0  0  0  0  0  0  0  0
    1.5292   -2.7542    0.0000 C   0  0  0  0  0  0  0  0  0  0  0  0
    2.1417   -3.8208    0.0000 C   0  0  0  0  0  0  0  0  0  0  0  0
  2  1  1  0
  3  2  1  0
  4  3  2  0
  5  1  1  0
  6  3  1  0
  7  1  2  0
  8  1  2  0
  9  4  1  0
 10  6  1  0
 11  5  1  0
 12  5  2  0
 13 15  2  0
 14 13  1  0
 15 12  1  0
 16 11  2  0
 16 13  1  0
  9 10  2  0
M  END
> <chembl_id>
CHEMBL437

> <chembl_pref_name>
SULFATHIAZOLE
