
     RDKit          2D

 16 16  0  0  0  0  0  0  0  0999 V2000
    0.4292    0.2583    0.0000 C   0  0  0  0  0  0  0  0  0  0  0  0
   -1.7125    1.4958    0.0000 N   0  0  0  0  0  0  0  0  0  0  0  0
   -1.6958   -0.9792    0.0000 N   0  0  0  0  0  0  0  0  0  0  0  0
   -0.2750    1.4958    0.0000 C   0  0  0  0  0  0  0  0  0  0  0  0
   -0.2750   -0.9792    0.0000 C   0  0  0  0  0  0  0  0  0  0  0  0
   -2.4000    0.2583    0.0000 C   0  0  0  0  0  0  0  0  0  0  0  0
    1.5125    1.1833    0.0000 C   0  0  0  0  0  0  0  0  0  0  0  0
    0.4500   -2.2417    0.0000 O   0  0  0  0  0  0  0  0  0  0  0  0
    0.4292    2.7583    0.0000 O   0  0  0  0  0  0  0  0  0  0  0  0
   -3.8458    0.2583    0.0000 O   0  0  0  0  0  0  0  0  0  0  0  0
    1.5542   -0.6667    0.0000 C   0  0  0  0  0  0  0  0  0  0  0  0
    1.3167   -2.0875    0.0000 C   0  0  0  0  0  0  0  0  0  0  0  0
    2.4167   -2.9750    0.0000 C   0  0  0  0  0  0  0  0  0  0  0  0
    2.8667    0.7083    0.0000 C   0  0  0  0  0  0  0  0  0  0  0  0
    3.9542    1.6333    0.0000 O   0  0  0  0  0  0  0  0  0  0  0  0
    3.1417   -0.6875    0.0000 C   0  0  0  0  0  0  0  0  0  0  0  0
  2  4  1  0
  3  5  1  0
  4  1  1  0
  5  1  1  0
  6  3  1  0
  7  1  1  0
  8  5  2  0
  9  4  2  0
 10  6  2  0
 11  1  1  0
 12 11  1  0
 13 12  2  0
 14  7  1  0
 15 14  1  0
 16 14  1  0
  2  6  1  0
M  END
> <chembl_id>
CHEMBL2105233

> <chembl_pref_name>
PROXIBARBAL
