
     RDKit          2D

101104  0  0  1  0  0  0  0  0999 V2000
   12.4042   -0.2958    0.0000 N   0  0  0  0  0  0  0  0  0  0  0  0
    0.8042   -0.7292    0.0000 N   0  0  0  0  0  0  0  0  0  0  0  0
   12.9750   -0.7167    0.0000 C   0  0  0  0  0  0  0  0  0  0  0  0
   -0.4208   -0.7292    0.0000 C   0  0  0  0  0  0  0  0  0  0  0  0
   -0.4208   -1.4375    0.0000 N   0  0  0  0  0  0  0  0  0  0  0  0
    0.8042   -3.5417    0.0000 N   0  0  0  0  0  0  0  0  0  0  0  0
    2.6375   -3.8875    0.0000 N   0  0  0  0  0  0  0  0  0  0  0  0
   -0.4208   -2.8417    0.0000 N   0  0  0  0  0  0  0  0  0  0  0  0
   11.8292   -0.7167    0.0000 C   0  0  0  0  0  0  0  0  0  0  0  0
    3.2417   -0.7167    0.0000 N   0  0  0  0  0  0  0  0  0  0  0  0
    1.4125   -0.3750    0.0000 C   0  0  0  0  0  0  0  0  0  0  0  0
    2.0250   -3.5375    0.0000 C   0  0  0  0  0  0  0  0  0  0  0  0
    0.1917   -3.8917    0.0000 C   0  0  0  0  0  0  0  0  0  0  0  0
   -1.0333   -2.4917    0.0000 C   0  0  0  0  0  0  0  0  0  0  0  0
    5.6917   -0.7125    0.0000 C   0  0  0  0  0  0  0  0  0  0  0  0
    3.8542   -0.3667    0.0000 C   0  0  0  0  0  0  0  0  0  0  0  0
    6.9167   -0.7125    0.0000 N   0  0  0  0  0  0  0  0  0  0  0  0
   11.2167   -0.3583    0.0000 C   0  0  0  0  0  0  0  0  0  0  0  0
    0.1917   -0.3792    0.0000 C   0  0  0  0  0  0  0  0  0  0  0  0
    1.4167   -3.8917    0.0000 C   0  0  0  0  0  0  0  0  0  0  0  0
    3.2417   -3.5292    0.0000 C   0  0  0  0  0  0  0  0  0  0  0  0
   -0.4208   -3.5417    0.0000 C   0  0  0  0  0  0  0  0  0  0  0  0
    7.5333   -0.3583    0.0000 C   0  0  0  0  0  0  0  0  0  0  0  0
    9.3750   -0.7125    0.0000 C   0  0  0  0  0  0  0  0  0  0  0  0
   12.7583   -1.3875    0.0000 S   0  0  0  0  0  0  0  0  0  0  0  0
   -1.0333   -1.7792    0.0000 C   0  0  0  0  0  0  0  0  0  0  0  0
    5.0792   -0.3583    0.0000 N   0  0  0  0  0  0  0  0  0  0  0  0
    3.8542   -3.8792    0.0000 C   0  0  0  0  0  0  0  0  0  0  0  0
   10.6042   -0.7125    0.0000 N   0  0  0  0  0  0  0  0  0  0  0  0
    6.3083   -0.3583    0.0000 C   0  0  0  0  0  0  0  0  0  0  0  0
    8.7625   -0.3583    0.0000 N   0  0  0  0  0  0  0  0  0  0  0  0
    1.4167   -4.6000    0.0000 C   0  0  0  0  0  0  0  0  0  0  0  0
    3.2417   -2.8250    0.0000 C   0  0  0  0  0  0  0  0  0  0  0  0
    9.9917   -0.3583    0.0000 C   0  0  0  0  0  0  0  0  0  0  0  0
   -1.3833   -5.7000    0.0000 N   0  0  0  0  0  0  0  0  0  0  0  0
    2.6292   -0.3667    0.0000 C   0  0  0  0  0  0  0  0  0  0  0  0
    4.4667   -0.7167    0.0000 C   0  0  0  0  0  0  0  0  0  0  0  0
   -1.0333   -3.9000    0.0000 C   0  0  0  0  0  0  0  0  0  0  0  0
   -1.0292   -4.6083    0.0000 C   0  0  0  0  0  0  0  0  0  0  0  0
    8.1500   -0.7125    0.0000 C   0  0  0  0  0  0  0  0  0  0  0  0
    2.8792   -2.2042    0.0000 C   0  0  0  0  0  0  0  0  0  0  0  0
    2.0333   -4.9500    0.0000 C   0  0  0  0  0  0  0  0  0  0  0  0
   -0.4583   -5.0250    0.0000 N   0  0  0  0  0  0  0  0  0  0  0  0
   13.5875   -0.3542    0.0000 C   0  0  0  0  0  0  0  0  0  0  0  0
   -0.6750   -5.7000    0.0000 C   0  0  0  0  0  0  0  0  0  0  0  0
    4.4667   -3.5292    0.0000 N   0  0  0  0  0  0  0  0  0  0  0  0
   12.0500   -1.3875    0.0000 C   0  0  0  0  0  0  0  0  0  0  0  0
    7.5333   -2.4833    0.0000 C   0  0  0  0  0  0  0  0  0  0  0  0
   -1.6042   -5.0292    0.0000 C   0  0  0  0  0  0  0  0  0  0  0  0
   -1.0333   -0.3792    0.0000 O   0  0  0  0  0  0  0  0  0  0  0  0
    5.6917   -1.4208    0.0000 O   0  0  0  0  0  0  0  0  0  0  0  0
    1.0542    0.2458    0.0000 O   0  0  0  0  0  0  0  0  0  0  0  0
   -1.6458   -2.8458    0.0000 O   0  0  0  0  0  0  0  0  0  0  0  0
    2.0208   -2.8292    0.0000 O   0  0  0  0  0  0  0  0  0  0  0  0
    0.1958   -4.6042    0.0000 O   0  0  0  0  0  0  0  0  0  0  0  0
    3.8500    0.3458    0.0000 O   0  0  0  0  0  0  0  0  0  0  0  0
   11.2167    0.3500    0.0000 O   0  0  0  0  0  0  0  0  0  0  0  0
   -1.6417   -1.4250    0.0000 C   0  0  0  0  0  0  0  0  0  0  0  0
    7.5333    0.3500    0.0000 O   0  0  0  0  0  0  0  0  0  0  0  0
    9.3750   -1.4208    0.0000 O   0  0  0  0  0  0  0  0  0  0  0  0
    3.8583   -4.5917    0.0000 O   0  0  0  0  0  0  0  0  0  0  0  0
    9.9917    0.3500    0.0000 C   0  0  0  0  0  0  0  0  0  0  0  0
    2.1750   -2.2083    0.0000 O   0  0  0  0  0  0  0  0  0  0  0  0
    2.0333   -5.6583    0.0000 O   0  0  0  0  0  0  0  0  0  0  0  0
    8.1500   -2.8375    0.0000 O   0  0  0  0  0  0  0  0  0  0  0  0
    8.1500   -1.4208    0.0000 C   0  0  0  0  0  0  0  0  0  0  0  0
    0.1875    0.3333    0.0000 C   0  0  0  0  0  0  0  0  0  0  0  0
    6.3083    0.3500    0.0000 C   0  0  0  0  0  0  0  0  0  0  0  0
    3.2333   -1.5917    0.0000 N   0  0  0  0  0  0  0  0  0  0  0  0
    7.5333   -1.7750    0.0000 C   0  0  0  0  0  0  0  0  0  0  0  0
   14.2000   -0.7042    0.0000 N   0  0  0  0  0  0  0  0  0  0  0  0
   13.5750    0.3500    0.0000 C   0  0  0  0  0  0  0  0  0  0  0  0
    2.6458   -4.5917    0.0000 O   0  0  0  0  0  0  0  0  0  0  0  0
    6.9208   -2.8375    0.0000 O   0  0  0  0  0  0  0  0  0  0  0  0
   -2.2583   -1.7750    0.0000 C   0  0  0  0  0  0  0  0  0  0  0  0
    2.6125    2.0875    0.0000 N   0  0  0  0  0  0  0  0  0  0  0  0
    4.4667   -2.8250    0.0000 C   0  0  0  0  0  0  0  0  0  0  0  0
    2.9792    0.2458    0.0000 C   0  0  0  0  0  0  0  0  0  0  0  0
    9.3750    0.7042    0.0000 C   0  0  0  0  0  0  0  0  0  0  0  0
    4.4667   -1.4167    0.0000 C   0  0  0  0  0  0  0  0  0  0  0  0
    2.9708    1.4750    0.0000 C   0  0  0  0  0  0  0  0  0  0  0  0
   -0.4292    0.6833    0.0000 C   0  0  0  0  0  0  0  0  0  0  0  0
    6.9167    0.7042    0.0000 C   0  0  0  0  0  0  0  0  0  0  0  0
   14.1833    0.7167    0.0000 C   0  0  0  0  0  0  0  0  0  0  0  0
    0.8000    0.6875    0.0000 C   0  0  0  0  0  0  0  0  0  0  0  0
    5.6917    0.7042    0.0000 C   0  0  0  0  0  0  0  0  0  0  0  0
   12.9542    0.6958    0.0000 C   0  0  0  0  0  0  0  0  0  0  0  0
   -2.8667   -1.4167    0.0000 C   0  0  0  0  0  0  0  0  0  0  0  0
   -2.2583   -2.4792    0.0000 C   0  0  0  0  0  0  0  0  0  0  0  0
    2.6208    0.8583    0.0000 C   0  0  0  0  0  0  0  0  0  0  0  0
    8.7625    0.3500    0.0000 C   0  0  0  0  0  0  0  0  0  0  0  0
    9.3750    1.4125    0.0000 C   0  0  0  0  0  0  0  0  0  0  0  0
   -0.4292    1.3917    0.0000 C   0  0  0  0  0  0  0  0  0  0  0  0
   14.1708    1.4250    0.0000 C   0  0  0  0  0  0  0  0  0  0  0  0
    6.9167    1.4125    0.0000 C   0  0  0  0  0  0  0  0  0  0  0  0
    5.0792   -2.4750    0.0000 C   0  0  0  0  0  0  0  0  0  0  0  0
    5.0792   -1.7667    0.0000 C   0  0  0  0  0  0  0  0  0  0  0  0
   -3.4833   -1.7667    0.0000 C   0  0  0  0  0  0  0  0  0  0  0  0
   -2.8708   -2.8333    0.0000 C   0  0  0  0  0  0  0  0  0  0  0  0
   -3.4833   -2.4750    0.0000 C   0  0  0  0  0  0  0  0  0  0  0  0
    1.0551    0.1253    0.0000 H   0  0  0  0  0  0  0  0  0  0  0  0
  2 11  1  0
  3  1  2  0
  4 19  1  0
  5  4  1  0
  6 20  1  0
  7 21  1  0
  8 14  1  0
  9  1  1  0
 10 16  1  0
 11 36  1  0
 12  7  1  0
 13  6  1  0
 14 26  1  0
 15 30  1  0
 16 37  1  0
 17 23  1  0
  9 18  1  1
 19  2  1  0
 20 12  1  0
 21 28  1  0
 22  8  1  0
 23 40  1  0
 24 34  1  0
 25  3  1  0
 26  5  1  0
 27 15  1  0
 28 46  1  0
 29 18  1  0
 30 17  1  6
 31 24  1  0
 20 32  1  1
 21 33  1  1
 34 29  1  6
 35 49  1  0
 36 10  1  0
 37 27  1  1
 22 38  1  6
 39 38  1  0
 40 31  1  6
 41 33  1  0
 42 32  1  0
 43 39  1  0
 44  3  1  0
 45 43  1  0
 46 77  1  0
 47  9  1  0
 48 70  1  0
 49 39  2  0
 50  4  2  0
 51 15  2  0
 52 11  2  0
 53 14  2  0
 54 12  2  0
 55 13  2  0
 56 16  2  0
 57 18  2  0
 26 58  1  1
 59 23  2  0
 60 24  2  0
 61 28  2  0
 34 62  1  0
 63 41  2  0
 64 42  2  0
 65 48  2  0
 40 66  1  0
 67 19  1  0
 68 30  1  0
 69 41  1  0
 70 66  1  0
 44 71  1  6
 72 44  1  0
 73 42  1  0
 74 48  1  0
 75 58  1  0
 76 81  1  0
 77 96  1  0
 36 78  1  1
 79 62  1  0
 37 80  1  0
 81 90  1  0
 82 67  1  0
 83 68  1  0
 84 72  1  0
 67 85  1  6
 68 86  1  1
 72 87  1  1
 88 75  2  0
 89 75  1  0
 90 78  1  0
 91 79  1  0
 92 79  1  0
 93 82  1  0
 94 84  1  0
 95 83  1  0
 96 97  1  0
 97 80  1  0
 98 88  1  0
 99 89  2  0
100 99  1  0
 25 47  1  0
 13 22  1  0
100 98  2  0
 45 35  2  0
 19101  1  1
M  END
> <chembl_id>
CHEMBL1200558

> <chembl_pref_name>
BACITRACIN
