
     RDKit          2D

 24 25  0  0  0  0  0  0  0  0999 V2000
    9.2375   -6.5625    0.0000 Na  0  0  0  0  0 15  0  0  0  0  0  0
    8.3458   -6.5542    0.0000 N   0  0  0  0  0  0  0  0  0  0  0  0
    7.7750   -6.1375    0.0000 C   0  0  0  0  0  0  0  0  0  0  0  0
    7.2000   -6.5542    0.0000 N   0  0  0  0  0  0  0  0  0  0  0  0
    1.7417   -7.5958    0.0000 N   0  0  0  0  0  0  0  0  0  0  0  0
    8.1250   -7.2292    0.0000 C   0  0  0  0  0  0  0  0  0  0  0  0
    4.2125   -6.2042    0.0000 C   0  0  0  0  0  0  0  0  0  0  0  0
    7.4167   -7.2292    0.0000 C   0  0  0  0  0  0  0  0  0  0  0  0
    6.5833   -6.2042    0.0000 N   0  0  0  0  0  0  0  0  0  0  0  0
    4.7875   -6.6250    0.0000 O   0  0  0  0  0  0  0  0  0  0  0  0
    4.4292   -5.5292    0.0000 C   0  0  0  0  0  0  0  0  0  0  0  0
    5.3583   -6.2042    0.0000 C   0  0  0  0  0  0  0  0  0  0  0  0
    5.9667   -6.5542    0.0000 C   0  0  0  0  0  0  0  0  0  0  0  0
    2.3583   -7.2500    0.0000 C   0  0  0  0  0  0  0  0  0  0  0  0
    5.1375   -5.5292    0.0000 C   0  0  0  0  0  0  0  0  0  0  0  0
    1.7375   -8.3042    0.0000 O   0  0  0  0  0  0  0  0  0  0  0  0
    3.5917   -6.5542    0.0000 C   0  0  0  0  0  0  0  0  0  0  0  0
    7.7708   -5.4292    0.0000 O   0  0  0  0  0  0  0  0  0  0  0  0
    1.1292   -7.2375    0.0000 O   0  0  0  0  0  0  0  0  0  0  0  0
    8.5417   -7.8000    0.0000 O   0  0  0  0  0  0  0  0  0  0  0  0
    2.9750   -7.6083    0.0000 C   0  0  0  0  0  0  0  0  0  0  0  0
    2.3667   -6.5375    0.0000 C   0  0  0  0  0  0  0  0  0  0  0  0
    3.5875   -7.2583    0.0000 C   0  0  0  0  0  0  0  0  0  0  0  0
    2.9833   -6.1875    0.0000 C   0  0  0  0  0  0  0  0  0  0  0  0
  3  2  1  0
  4  3  1  0
  5 14  1  0
  6  2  1  0
  7 10  1  0
  8  6  1  0
  9  4  1  0
 10 12  1  0
 11 15  1  0
 12 13  1  0
 13  9  2  0
 14 21  1  0
 15 12  2  0
 16  5  1  0
 17  7  1  0
 18  3  2  0
 19  5  2  0
 20  6  2  0
 21 23  2  0
 22 24  1  0
 23 17  1  0
 24 17  2  0
  8  4  1  0
 11  7  2  0
 14 22  2  0
M  CHG  4   1   1   2  -1   5   1  16  -1
M  END
> <chembl_id>
CHEMBL928

> <chembl_pref_name>
DANTROLENE SODIUM
