
     RDKit          2D

 37 39  0  0  0  0  0  0  0  0999 V2000
    5.1268   -1.0607    0.0000 C   0  0  0  0  0  0  0  0  0  0  0  0
    4.4123   -1.4732    0.0000 C   0  0  0  0  0  0  0  0  0  0  0  0
    4.4123   -2.2982    0.0000 C   0  0  0  0  0  0  0  0  0  0  0  0
    5.1268   -2.7107    0.0000 C   0  0  0  0  0  0  0  0  0  0  0  0
    5.8413   -2.2982    0.0000 C   0  0  0  0  0  0  0  0  0  0  0  0
    5.8413   -1.4732    0.0000 C   0  0  0  0  0  0  0  0  0  0  0  0
    5.1268   -0.2357    0.0000 S   0  0  0  0  0  0  0  0  0  0  0  0
    5.9518   -0.2357    0.0000 O   0  0  0  0  0  0  0  0  0  0  0  0
    5.1268    0.5893    0.0000 O   0  0  0  0  0  0  0  0  0  0  0  0
    4.3018   -0.2357    0.0000 O   0  0  0  0  0  0  0  0  0  0  0  0
   -5.5098   -0.7955    0.0000 C   0  0  0  0  0  0  0  0  0  0  0  0
   -6.2243   -1.2080    0.0000 C   0  0  0  0  0  0  0  0  0  0  0  0
   -6.2243   -2.0330    0.0000 C   0  0  0  0  0  0  0  0  0  0  0  0
   -5.5098   -2.4455    0.0000 C   0  0  0  0  0  0  0  0  0  0  0  0
   -4.7953   -2.0330    0.0000 C   0  0  0  0  0  0  0  0  0  0  0  0
   -4.7953   -1.2080    0.0000 C   0  0  0  0  0  0  0  0  0  0  0  0
   -6.9388   -2.4455    0.0000 Cl  0  0  0  0  0  0  0  0  0  0  0  0
   -4.0809   -0.7955    0.0000 C   0  0  0  0  0  0  0  0  0  0  0  0
   -3.3664   -1.2080    0.0000 O   0  0  0  0  0  0  0  0  0  0  0  0
   -4.4934   -0.0811    0.0000 C   0  0  0  0  0  0  0  0  0  0  0  0
   -4.0808    0.6334    0.0000 N   0  0  0  0  0  0  0  0  0  0  0  0
   -4.4933    1.3479    0.0000 C   0  0  0  0  0  0  0  0  0  0  0  0
   -5.3184    1.3479    0.0000 C   0  0  0  0  0  0  0  0  0  0  0  0
   -5.7309    0.6334    0.0000 C   0  0  0  0  0  0  0  0  0  0  0  0
   -5.3184   -0.0811    0.0000 C   0  0  0  0  0  0  0  0  0  0  0  0
   -2.6519   -0.7955    0.0000 C   0  0  0  0  0  0  0  0  0  0  0  0
   -1.9374   -1.2080    0.0000 C   0  0  0  0  0  0  0  0  0  0  0  0
   -1.2229   -0.7955    0.0000 C   0  0  0  0  0  0  0  0  0  0  0  0
   -1.2229    0.0295    0.0000 N   0  0  0  0  0  0  0  0  0  0  0  0
   -1.9374    0.4420    0.0000 C   0  0  0  0  0  0  0  0  0  0  0  0
   -2.6519    0.0295    0.0000 C   0  0  0  0  0  0  0  0  0  0  0  0
   -0.5085    0.4420    0.0000 C   0  0  0  0  0  0  0  0  0  0  0  0
    0.2060    0.0295    0.0000 C   0  0  0  0  0  0  0  0  0  0  0  0
    0.9205    0.4420    0.0000 C   0  0  0  0  0  0  0  0  0  0  0  0
    1.6349    0.0295    0.0000 C   0  0  0  0  0  0  0  0  0  0  0  0
    2.3494    0.4420    0.0000 O   0  0  0  0  0  0  0  0  0  0  0  0
    1.6349   -0.7955    0.0000 O   0  0  0  0  0  0  0  0  0  0  0  0
  1  2  1  0
  1  6  2  0
  2  3  2  0
  3  4  1  0
  4  5  2  0
  5  6  1  0
  1  7  1  0
  7  8  1  0
  7  9  2  0
  7 10  2  0
 11 12  1  0
 11 16  2  0
 12 13  2  0
 13 14  1  0
 14 15  2  0
 15 16  1  0
 13 17  1  0
 16 18  1  0
 18 19  1  1
 18 20  1  0
 20 21  1  0
 20 25  2  0
 21 22  2  0
 22 23  1  0
 23 24  2  0
 24 25  1  0
 19 26  1  0
 26 27  1  0
 31 26  1  0
 27 28  1  0
 28 29  1  0
 29 30  1  0
 30 31  1  0
 29 32  1  0
 32 33  1  0
 33 34  1  0
 34 35  1  0
 35 36  1  0
 35 37  2  0
M  END
> <chembl_id>
CHEMBL1201759

> <chembl_pref_name>
BEPOTASTINE BESYLATE
