
     RDKit          2D

 78 85  0  0  1  0  0  0  0  0999 V2000
    5.5256   -4.3721    0.0000 N   0  0  0  0  0  0  0  0  0  0  0  0
    6.3000   -4.0890    0.0000 C   0  0  0  0  0  0  0  0  0  0  0  0
    3.2895   -3.5601    0.0000 N   0  0  0  0  0  0  0  0  0  0  0  0
    3.9224   -4.0890    0.0000 C   0  0  0  0  0  0  0  0  0  0  0  0
    4.7011   -4.3721    0.0000 C   0  0  0  0  0  0  0  0  0  0  0  0
    2.7274   -2.0278    0.0000 C   0  0  0  0  0  0  0  0  0  0  0  0
    7.3493   -2.8399    0.0000 N   0  0  0  0  0  0  0  0  0  0  0  0
    2.8731   -1.2159    0.0000 N   0  0  0  0  0  0  0  0  0  0  0  0
    6.9329   -0.4997    0.0000 N   0  0  0  0  0  0  0  0  0  0  0  0
    6.9329   -3.5601    0.0000 C   0  0  0  0  0  0  0  0  0  0  0  0
    4.7011    0.3206    0.0000 N   0  0  0  0  0  0  0  0  0  0  0  0
    7.4868   -2.0278    0.0000 C   0  0  0  0  0  0  0  0  0  0  0  0
    3.9224    0.0333    0.0000 C   0  0  0  0  0  0  0  0  0  0  0  0
    2.2402    0.7495    0.0000 C   0  0  0  0  0  0  0  0  0  0  0  0
    6.3000    0.0333    0.0000 C   0  0  0  0  0  0  0  0  0  0  0  0
    2.8731   -2.8399    0.0000 C   0  0  0  0  0  0  0  0  0  0  0  0
    3.2895   -0.4997    0.0000 C   0  0  0  0  0  0  0  0  0  0  0  0
    7.3493   -1.2159    0.0000 C   0  0  0  0  0  0  0  0  0  0  0  0
    1.0660    1.3949    0.0000 N   0  0  0  0  0  0  0  0  0  0  0  0
    1.4158    0.6453    0.0000 C   0  0  0  0  0  0  0  0  0  0  0  0
    4.3971   -6.8746    0.0000 C   0  0  0  0  0  0  0  0  0  0  0  0
    5.5256    0.3206    0.0000 C   0  0  0  0  0  0  0  0  0  0  0  0
    2.6525    0.0333    0.0000 C   0  0  0  0  0  0  0  0  0  0  0  0
    2.3901    1.5573    0.0000 C   0  0  0  0  0  0  0  0  0  0  0  0
    5.7836   -5.1591    0.0000 C   0  0  0  0  0  0  0  0  0  0  0  0
    4.4387   -5.1591    0.0000 C   0  0  0  0  0  0  0  0  0  0  0  0
    5.1133   -5.6462    0.0000 C   0  0  0  0  0  0  0  0  0  0  0  0
    1.6656    1.9570    0.0000 C   0  0  0  0  0  0  0  0  0  0  0  0
    6.7123   -4.8010    0.0000 O   0  0  0  0  0  0  0  0  0  0  0  0
    5.1133   -6.4625    0.0000 O   0  0  0  0  0  0  0  0  0  0  0  0
    3.5019   -4.8010    0.0000 O   0  0  0  0  0  0  0  0  0  0  0  0
    1.9029   -2.0278    0.0000 O   0  0  0  0  0  0  0  0  0  0  0  0
    7.5617   -4.0890    0.0000 C   0  0  0  0  0  0  0  0  0  0  0  0
    8.3195   -2.0278    0.0000 O   0  0  0  0  0  0  0  0  0  0  0  0
    3.5019    0.7495    0.0000 O   0  0  0  0  0  0  0  0  0  0  0  0
    6.7123    0.7495    0.0000 O   0  0  0  0  0  0  0  0  0  0  0  0
    8.1238   -0.9286    0.0000 C   0  0  0  0  0  0  0  0  0  0  0  0
    3.6851   -6.4625    0.0000 O   0  0  0  0  0  0  0  0  0  0  0  0
    2.0986   -3.1271    0.0000 C   0  0  0  0  0  0  0  0  0  0  0  0
    4.3971   -7.6991    0.0000 N   0  0  0  0  0  0  0  0  0  0  0  0
   11.2843   -1.7781    0.0000 O   0  0  0  0  0  0  0  0  0  0  0  0
    8.9191   -1.1409    0.0000 C   0  0  0  0  0  0  0  0  0  0  0  0
   10.4973   -1.5657    0.0000 C   0  0  0  0  0  0  0  0  0  0  0  0
    7.4243   -4.9010    0.0000 C   0  0  0  0  0  0  0  0  0  0  0  0
   11.8713   -1.1992    0.0000 C   0  0  0  0  0  0  0  0  0  0  0  0
    9.4937   -0.5664    0.0000 C   0  0  0  0  0  0  0  0  0  0  0  0
    9.1232   -1.9362    0.0000 C   0  0  0  0  0  0  0  0  0  0  0  0
    9.9185   -2.1486    0.0000 C   0  0  0  0  0  0  0  0  0  0  0  0
   10.2807   -0.7745    0.0000 C   0  0  0  0  0  0  0  0  0  0  0  0
    5.8211   -9.3605    0.0000 N   0  0  0  0  0  0  0  0  0  0  0  0
    7.5076    3.3311    0.0000 N   0  0  0  0  0  0  0  0  0  0  0  0
   12.6709   -1.4116    0.0000 C   0  0  0  0  0  0  0  0  0  0  0  0
    3.0979    1.9861    0.0000 C   0  0  0  0  0  0  0  0  0  0  0  0
    5.6712    1.1325    0.0000 C   0  0  0  0  0  0  0  0  0  0  0  0
    1.6531    2.7857    0.0000 C   0  0  0  0  0  0  0  0  0  0  0  0
    5.1133   -8.1113    0.0000 C   0  0  0  0  0  0  0  0  0  0  0  0
    1.4658   -2.5900    0.0000 C   0  0  0  0  0  0  0  0  0  0  0  0
    1.9612   -3.9391    0.0000 C   0  0  0  0  0  0  0  0  0  0  0  0
    5.1133   -8.9358    0.0000 C   0  0  0  0  0  0  0  0  0  0  0  0
    7.3618    2.5066    0.0000 C   0  0  0  0  0  0  0  0  0  0  0  0
    8.0571   -5.4340    0.0000 C   0  0  0  0  0  0  0  0  0  0  0  0
    6.6456   -5.1841    0.0000 C   0  0  0  0  0  0  0  0  0  0  0  0
   12.8790   -2.2027    0.0000 C   0  0  0  0  0  0  0  0  0  0  0  0
   13.2454   -0.8286    0.0000 C   0  0  0  0  0  0  0  0  0  0  0  0
    6.4458    1.4116    0.0000 C   0  0  0  0  0  0  0  0  0  0  0  0
    6.5874    2.2235    0.0000 C   0  0  0  0  0  0  0  0  0  0  0  0
    3.0855    2.8107    0.0000 C   0  0  0  0  0  0  0  0  0  0  0  0
    2.3651    3.2103    0.0000 C   0  0  0  0  0  0  0  0  0  0  0  0
    1.1867   -4.2265    0.0000 C   0  0  0  0  0  0  0  0  0  0  0  0
    0.6870   -2.8773    0.0000 C   0  0  0  0  0  0  0  0  0  0  0  0
    6.4999   -6.0002    0.0000 C   0  0  0  0  0  0  0  0  0  0  0  0
   13.6702   -2.4151    0.0000 C   0  0  0  0  0  0  0  0  0  0  0  0
   14.0408   -1.0368    0.0000 C   0  0  0  0  0  0  0  0  0  0  0  0
    7.9115   -6.2459    0.0000 C   0  0  0  0  0  0  0  0  0  0  0  0
    0.5414   -3.6893    0.0000 C   0  0  0  0  0  0  0  0  0  0  0  0
    7.1370   -6.5332    0.0000 C   0  0  0  0  0  0  0  0  0  0  0  0
   14.2572   -1.8363    0.0000 C   0  0  0  0  0  0  0  0  0  0  0  0
    3.8008   -4.8072    0.0000 H   0  0  0  0  0  0  0  0  0  0  0  0
  2  1  1  0
  3  4  1  0
  4  5  1  0
  5  1  1  0
  6 16  1  0
  7 10  1  0
  8  6  1  0
  9 18  1  0
 10  2  1  0
 11 13  1  0
 12  7  1  0
 13 17  1  0
 14 23  1  0
 15  9  1  0
 16  3  1  0
 17  8  1  0
 18 12  1  0
 19 20  1  0
 20 14  2  0
 21 30  1  0
 22 15  1  0
 17 23  1  6
 24 14  1  0
 25  1  1  0
  5 26  1  0
 27 25  1  0
 28 24  2  0
 29  2  2  0
 27 30  1  6
 31  4  2  0
 32  6  2  0
 10 33  1  1
 34 12  2  0
 35 13  2  0
 36 15  2  0
 18 37  1  1
 38 21  2  0
 16 39  1  1
 40 21  1  0
 41 43  1  0
 42 37  1  0
 43 48  2  0
 44 33  1  0
 45 41  1  0
 46 42  1  0
 47 42  2  0
 48 47  1  0
 49 46  2  0
 50 59  1  0
 51 60  1  0
 52 45  1  0
 53 24  1  0
 22 54  1  1
 55 28  1  0
 56 40  1  0
 57 39  2  0
 58 39  1  0
 59 56  1  0
 60 66  1  0
 61 44  1  0
 62 44  2  0
 63 52  2  0
 64 52  1  0
 65 54  1  0
 66 65  1  0
 67 53  2  0
 68 67  1  0
 69 58  2  0
 70 57  1  0
 71 62  1  0
 72 63  1  0
 73 64  2  0
 74 61  2  0
 75 69  1  0
 76 71  2  0
 77 73  1  0
 27 26  1  0
 74 76  1  0
 70 75  2  0
 11 22  1  0
 49 43  1  0
 28 19  1  0
 55 68  2  0
 72 77  2  0
  5 78  1  6
M  END
> <chembl_id>
CHEMBL3349607

> <chembl_pref_name>
PASIREOTIDE
