
     RDKit          2D

 33 38  0  0  1  0  0  0  0  0999 V2000
   -0.4458   -2.2750    0.0000 C   0  0  0  0  0  0  0  0  0  0  0  0
   -1.0583   -1.9250    0.0000 O   0  0  0  0  0  0  0  0  0  0  0  0
   -0.4458   -1.5667    0.0000 C   0  0  0  0  0  0  0  0  0  0  0  0
    0.1750   -2.6250    0.0000 C   0  0  0  0  0  0  0  0  0  0  0  0
   -1.0583   -2.6375    0.0000 C   0  0  0  0  0  0  0  0  0  0  0  0
    0.7792   -1.5625    0.0000 C   0  0  0  0  0  0  0  0  0  0  0  0
   -1.0500   -3.3500    0.0000 C   0  0  0  0  0  0  0  0  0  0  0  0
    0.7792   -2.2625    0.0000 C   0  0  0  0  0  0  0  0  0  0  0  0
    0.1792   -3.3500    0.0000 C   0  0  0  0  0  0  0  0  0  0  0  0
    1.4542   -1.3417    0.0000 C   0  0  0  0  0  0  0  0  0  0  0  0
    0.1667   -1.2042    0.0000 C   0  0  0  0  0  0  0  0  0  0  0  0
   -0.4375   -3.7000    0.0000 C   0  0  0  0  0  0  0  0  0  0  0  0
    2.1250   -1.1250    0.0000 O   0  0  0  0  0  0  0  0  0  0  0  0
   -1.6708   -3.7000    0.0000 C   0  0  0  0  0  0  0  0  0  0  0  0
    0.7917   -3.7000    0.0000 C   0  0  0  0  0  0  0  0  0  0  0  0
    2.1333   -0.4125    0.0000 C   0  0  0  0  0  0  0  0  0  0  0  0
    1.4500   -2.4875    0.0000 C   0  0  0  0  0  0  0  0  0  0  0  0
   -1.6708   -2.2792    0.0000 C   0  0  0  0  0  0  0  0  0  0  0  0
    1.8667   -1.9167    0.0000 C   0  0  0  0  0  0  0  0  0  0  0  0
   -2.2833   -3.3500    0.0000 C   0  0  0  0  0  0  0  0  0  0  0  0
    1.0417   -0.7667    0.0000 C   0  0  0  0  0  0  0  0  0  0  0  0
    0.8042   -4.4042    0.0000 O   0  0  0  0  0  0  0  0  0  0  0  0
    2.7167   -0.0042    0.0000 O   0  0  0  0  0  0  0  0  0  0  0  0
   -2.9000   -3.7000    0.0000 O   0  0  0  0  0  0  0  0  0  0  0  0
    1.4792   -0.1875    0.0000 C   0  0  0  0  0  0  0  0  0  0  0  0
   -2.2833   -2.6375    0.0000 C   0  0  0  0  0  0  0  0  0  0  0  0
    0.7792   -0.8500    0.0000 C   0  0  0  0  0  0  0  0  0  0  0  0
    1.4042   -3.3375    0.0000 O   0  0  0  0  0  0  0  0  0  0  0  0
   -0.4458   -2.9917    0.0000 C   0  0  0  0  0  0  0  0  0  0  0  0
    2.0250   -3.6875    0.0000 C   0  0  0  0  0  0  0  0  0  0  0  0
    0.7792   -2.9750    0.0000 H   0  0  0  0  0  0  0  0  0  0  0  0
    0.1750   -1.9125    0.0000 H   0  0  0  0  0  0  0  0  0  0  0  0
   -0.4458   -0.8625    0.0000 H   0  0  0  0  0  0  0  0  0  0  0  0
  1  2  1  6
  3  1  1  0
  4  1  1  0
  5  1  1  0
  6  8  1  0
  7  5  1  0
  8  4  1  0
  9  4  1  0
 10  6  1  0
 11  3  1  0
 12  7  1  0
 10 13  1  1
 14  7  2  0
  9 15  1  6
 16 13  1  0
 17  8  1  0
 18  5  1  0
 19 17  1  0
 20 26  1  0
 21 10  1  0
 22 15  2  0
 23 16  2  0
 24 20  2  0
 25 21  1  0
 26 18  1  0
  6 27  1  1
 28 15  1  0
  5 29  1  1
 30 28  1  0
  8 31  1  6
  4 32  1  1
  3 33  1  1
  2  3  1  0
  6 11  1  0
 12  9  1  0
 20 14  1  0
 10 19  1  0
 16 25  1  0
M  END
> <chembl_id>
CHEMBL1095097

> <chembl_pref_name>
EPLERENONE
