
     RDKit          2D

 27 28  0  0  0  0  0  0  0  0999 V2000
    9.5917   -7.4167    0.0000 C   0  0  0  0  0  0  0  0  0  0  0  0
    9.9417   -6.8000    0.0000 N   0  0  0  0  0  0  0  0  0  0  0  0
    9.2375   -6.8000    0.0000 C   0  0  0  0  0  0  0  0  0  0  0  0
   10.2042   -7.7750    0.0000 C   0  0  0  0  0  0  0  0  0  0  0  0
    8.9792   -7.7750    0.0000 C   0  0  0  0  0  0  0  0  0  0  0  0
    9.5875   -6.1792    0.0000 O   0  0  0  0  0  0  0  0  0  0  0  0
    8.3667   -7.4167    0.0000 O   0  0  0  0  0  0  0  0  0  0  0  0
   10.8167   -7.4167    0.0000 O   0  0  0  0  0  0  0  0  0  0  0  0
    4.9000   -6.5667    0.0000 N   0  0  0  0  0  0  0  0  0  0  0  0
    5.4708   -6.9833    0.0000 C   0  0  0  0  0  0  0  0  0  0  0  0
    4.3250   -6.9875    0.0000 C   0  0  0  0  0  0  0  0  0  0  0  0
    6.0417   -6.5708    0.0000 C   0  0  0  0  0  0  0  0  0  0  0  0
    5.2542   -7.6583    0.0000 C   0  0  0  0  0  0  0  0  0  0  0  0
    4.5458   -7.6583    0.0000 C   0  0  0  0  0  0  0  0  0  0  0  0
    3.7125   -6.6333    0.0000 C   0  0  0  0  0  0  0  0  0  0  0  0
    6.6542   -6.9250    0.0000 C   0  0  0  0  0  0  0  0  0  0  0  0
    5.1208   -5.8958    0.0000 C   0  0  0  0  0  0  0  0  0  0  0  0
    5.8250   -5.8958    0.0000 C   0  0  0  0  0  0  0  0  0  0  0  0
    3.7083   -5.9250    0.0000 O   0  0  0  0  0  0  0  0  0  0  0  0
    3.1000   -6.9917    0.0000 C   0  0  0  0  0  0  0  0  0  0  0  0
    6.6500   -7.6292    0.0000 O   0  0  0  0  0  0  0  0  0  0  0  0
    7.2667   -6.5708    0.0000 O   0  0  0  0  0  0  0  0  0  0  0  0
    3.1000   -7.7042    0.0000 C   0  0  0  0  0  0  0  0  0  0  0  0
    2.4875   -6.6375    0.0000 C   0  0  0  0  0  0  0  0  0  0  0  0
    2.4875   -8.0583    0.0000 C   0  0  0  0  0  0  0  0  0  0  0  0
    1.8750   -6.9917    0.0000 C   0  0  0  0  0  0  0  0  0  0  0  0
    1.8750   -7.7042    0.0000 C   0  0  0  0  0  0  0  0  0  0  0  0
  2  1  1  0
  3  1  1  0
  4  1  1  0
  5  1  1  0
  6  3  1  0
  7  5  1  0
  8  4  1  0
 10  9  1  0
 11  9  1  0
 12 10  1  0
 13 10  2  0
 14 11  2  0
 15 11  1  0
 16 12  1  0
 17  9  1  0
 18 17  1  0
 19 15  2  0
 20 15  1  0
 21 16  2  0
 22 16  1  0
 23 20  1  0
 24 20  2  0
 25 23  2  0
 26 24  1  0
 27 26  2  0
 18 12  1  0
 13 14  1  0
 25 27  1  0
M  END
> <chembl_id>
CHEMBL1201124

> <chembl_pref_name>
KETOROLAC TROMETHAMINE
