
     RDKit          2D

 69 74  0  0  0  0  0  0  0  0999 V2000
   -3.4566   -4.6938    0.0000 N   0  0  0  0  0  0  0  0  0  0  0  0
   -4.4364   -4.6938    0.0000 C   0  0  0  0  0  0  0  0  0  0  0  0
   -4.4364   -3.9042    0.0000 C   0  0  0  0  0  0  0  0  0  0  0  0
   -3.4566   -3.9042    0.0000 C   0  0  0  0  0  0  0  0  0  0  0  0
    0.1845   -5.1471    0.0000 C   0  0  0  0  0  0  0  0  0  0  0  0
   -2.7255   -5.1471    0.0000 C   0  0  0  0  0  0  0  0  0  0  0  0
   -7.3171   -3.9431    0.0000 C   0  0  0  0  0  0  0  0  0  0  0  0
    0.8425   -4.6499    0.0000 N   0  0  0  0  0  0  0  0  0  0  0  0
    0.4331   -5.9318    0.0000 N   0  0  0  0  0  0  0  0  0  0  0  0
    1.2812   -5.9318    0.0000 N   0  0  0  0  0  0  0  0  0  0  0  0
   -6.6298   -3.5240    0.0000 C   0  0  0  0  0  0  0  0  0  0  0  0
   -8.0044   -3.4947    0.0000 N   0  0  0  0  0  0  0  0  0  0  0  0
    1.5152   -5.1471    0.0000 N   0  0  0  0  0  0  0  0  0  0  0  0
   -5.2114   -3.4947    0.0000 N   0  0  0  0  0  0  0  0  0  0  0  0
   -5.9279   -3.9042    0.0000 C   0  0  0  0  0  0  0  0  0  0  0  0
   -2.7255   -3.5093    0.0000 S   0  0  0  0  0  0  0  0  0  0  0  0
   -1.9943   -4.6938    0.0000 C   0  0  0  0  0  0  0  0  0  0  0  0
   -8.6624   -3.9431    0.0000 C   0  0  0  0  0  0  0  0  0  0  0  0
   -7.5657   -4.7620    0.0000 C   0  0  0  0  0  0  0  0  0  0  0  0
   -8.4284   -4.7620    0.0000 S   0  0  0  0  0  0  0  0  0  0  0  0
   -2.7255   -5.9514    0.0000 C   0  0  0  0  0  0  0  0  0  0  0  0
   -0.5466   -4.7084    0.0000 S   0  0  0  0  0  0  0  0  0  0  0  0
   -1.9943   -3.9042    0.0000 C   0  0  0  0  0  0  0  0  0  0  0  0
   -6.6298   -2.7343    0.0000 N   0  0  0  0  0  0  0  0  0  0  0  0
   -5.0066   -5.0837    0.0000 O   0  0  0  0  0  0  0  0  0  0  0  0
   -1.2632   -5.1325    0.0000 C   0  0  0  0  0  0  0  0  0  0  0  0
   -5.9279   -4.7377    0.0000 O   0  0  0  0  0  0  0  0  0  0  0  0
   -3.4712   -6.3754    0.0000 O   0  0  0  0  0  0  0  0  0  0  0  0
   -9.4082   -3.4947    0.0000 N   0  0  0  0  0  0  0  0  0  0  0  0
    0.8425   -3.8311    0.0000 C   0  0  0  0  0  0  0  0  0  0  0  0
   -2.0089   -6.3852    0.0000 O   0  0  0  0  0  0  0  0  0  0  0  0
   -5.9571   -2.3249    0.0000 O   0  0  0  0  0  0  0  0  0  0  0  0
   -5.9571   -1.5206    0.0000 C   0  0  0  0  0  0  0  0  0  0  0  0
   -3.4566   -3.0804    0.0000 H   0  0  0  0  0  0  0  0  0  0  0  0
    1.0724   -1.3502    0.0000 N   0  0  0  0  0  0  0  0  0  0  0  0
    0.0927   -1.3502    0.0000 C   0  0  0  0  0  0  0  0  0  0  0  0
    0.0927   -0.5606    0.0000 C   0  0  0  0  0  0  0  0  0  0  0  0
    1.0724   -0.5606    0.0000 C   0  0  0  0  0  0  0  0  0  0  0  0
    4.7135   -1.8035    0.0000 C   0  0  0  0  0  0  0  0  0  0  0  0
    1.8035   -1.8035    0.0000 C   0  0  0  0  0  0  0  0  0  0  0  0
   -2.7881   -0.5995    0.0000 C   0  0  0  0  0  0  0  0  0  0  0  0
    5.3715   -1.3064    0.0000 N   0  0  0  0  0  0  0  0  0  0  0  0
    4.9621   -2.5883    0.0000 N   0  0  0  0  0  0  0  0  0  0  0  0
    5.8102   -2.5883    0.0000 N   0  0  0  0  0  0  0  0  0  0  0  0
   -2.1008   -0.1804    0.0000 C   0  0  0  0  0  0  0  0  0  0  0  0
   -3.4754   -0.1511    0.0000 N   0  0  0  0  0  0  0  0  0  0  0  0
    6.0442   -1.8035    0.0000 N   0  0  0  0  0  0  0  0  0  0  0  0
   -0.6824   -0.1511    0.0000 N   0  0  0  0  0  0  0  0  0  0  0  0
   -1.3989   -0.5606    0.0000 C   0  0  0  0  0  0  0  0  0  0  0  0
    1.8035   -0.1658    0.0000 S   0  0  0  0  0  0  0  0  0  0  0  0
    2.5347   -1.3502    0.0000 C   0  0  0  0  0  0  0  0  0  0  0  0
   -4.1334   -0.5995    0.0000 C   0  0  0  0  0  0  0  0  0  0  0  0
   -3.0367   -1.4184    0.0000 C   0  0  0  0  0  0  0  0  0  0  0  0
   -3.8994   -1.4184    0.0000 S   0  0  0  0  0  0  0  0  0  0  0  0
    1.8035   -2.6078    0.0000 C   0  0  0  0  0  0  0  0  0  0  0  0
    3.9824   -1.3648    0.0000 S   0  0  0  0  0  0  0  0  0  0  0  0
    2.5347   -0.5606    0.0000 C   0  0  0  0  0  0  0  0  0  0  0  0
   -2.1008    0.6093    0.0000 N   0  0  0  0  0  0  0  0  0  0  0  0
   -0.4776   -1.7401    0.0000 O   0  0  0  0  0  0  0  0  0  0  0  0
    3.2658   -1.7889    0.0000 C   0  0  0  0  0  0  0  0  0  0  0  0
   -1.3989   -1.3941    0.0000 O   0  0  0  0  0  0  0  0  0  0  0  0
    1.0578   -3.0319    0.0000 O   0  0  0  0  0  0  0  0  0  0  0  0
   -4.8792   -0.1511    0.0000 N   0  0  0  0  0  0  0  0  0  0  0  0
    5.3715   -0.4875    0.0000 C   0  0  0  0  0  0  0  0  0  0  0  0
    2.5201   -3.0416    0.0000 O   0  0  0  0  0  0  0  0  0  0  0  0
   -1.4281    1.0187    0.0000 O   0  0  0  0  0  0  0  0  0  0  0  0
   -1.4281    1.8230    0.0000 C   0  0  0  0  0  0  0  0  0  0  0  0
    1.0724    0.2632    0.0000 H   0  0  0  0  0  0  0  0  0  0  0  0
    3.6314    0.5118    0.0000 Cl  0  0  0  0  0  0  0  0  0  0  0  0
  2  1  1  0
  3  4  1  0
  4  1  1  0
  5 22  1  0
  6  1  1  0
  7 11  1  0
  8  5  1  0
  9  5  2  0
 10  9  1  0
 11 15  1  0
 12  7  1  0
 13  8  1  0
  3 14  1  1
 15 14  1  0
 16  4  1  0
 17  6  2  0
 18 12  2  0
 19  7  2  0
 20 19  1  0
 21  6  1  0
 22 26  1  0
 23 17  1  0
 24 11  2  0
 25  2  2  0
 26 17  1  0
 27 15  2  0
 28 21  2  0
 29 18  1  0
 30  8  1  0
 31 21  1  0
 32 24  1  0
 33 32  1  0
  4 34  1  6
  2  3  1  0
 16 23  1  0
 13 10  2  0
 20 18  1  0
 36 35  1  0
 37 38  1  0
 38 35  1  0
 39 56  1  0
 40 35  1  0
 41 45  1  0
 42 39  1  0
 43 39  2  0
 44 43  1  0
 45 49  1  0
 46 41  1  0
 47 42  1  0
 37 48  1  1
 49 48  1  0
 50 38  1  0
 51 40  2  0
 52 46  2  0
 53 41  2  0
 54 53  1  0
 55 40  1  0
 56 60  1  0
 57 51  1  0
 58 45  2  0
 59 36  2  0
 60 51  1  0
 61 49  2  0
 62 55  2  0
 63 52  1  0
 64 42  1  0
 65 55  1  0
 66 58  1  0
 67 66  1  0
 38 68  1  6
 36 37  1  0
 50 57  1  0
 47 44  2  0
 54 52  1  0
M  END
> <chembl_id>
CHEMBL3183193

> <chembl_pref_name>
CEFMENOXIME HYDROCHLORIDE
