
     RDKit          2D

 24 26  0  0  0  0  0  0  0  0999 V2000
    3.3625   -5.3583    0.0000 N   0  0  0  0  0  0  0  0  0  0  0  0
    3.9792   -5.7167    0.0000 C   0  0  0  0  0  0  0  0  0  0  0  0
    3.3625   -6.7833    0.0000 S   0  0  0  0  0  0  0  0  0  0  0  0
    5.8167   -5.3667    0.0000 C   0  0  0  0  0  0  0  0  0  0  0  0
    3.9750   -6.4250    0.0000 C   0  0  0  0  0  0  0  0  0  0  0  0
    2.7500   -5.7167    0.0000 C   0  0  0  0  0  0  0  0  0  0  0  0
    2.7500   -6.4292    0.0000 C   0  0  0  0  0  0  0  0  0  0  0  0
    4.5917   -5.3667    0.0000 C   0  0  0  0  0  0  0  0  0  0  0  0
    5.2042   -5.7167    0.0000 C   0  0  0  0  0  0  0  0  0  0  0  0
    4.5875   -6.7833    0.0000 C   0  0  0  0  0  0  0  0  0  0  0  0
    5.2042   -6.4292    0.0000 C   0  0  0  0  0  0  0  0  0  0  0  0
    6.4292   -5.7208    0.0000 F   0  0  0  0  0  0  0  0  0  0  0  0
    6.1667   -4.7500    0.0000 F   0  0  0  0  0  0  0  0  0  0  0  0
    5.4542   -4.7500    0.0000 F   0  0  0  0  0  0  0  0  0  0  0  0
    3.3625   -4.6500    0.0000 C   0  0  0  0  0  0  0  0  0  0  0  0
    3.9750   -4.2958    0.0000 C   0  0  0  0  0  0  0  0  0  0  0  0
    4.5875   -3.2333    0.0000 N   0  0  0  0  0  0  0  0  0  0  0  0
    2.1375   -5.3625    0.0000 C   0  0  0  0  0  0  0  0  0  0  0  0
    2.1375   -6.7833    0.0000 C   0  0  0  0  0  0  0  0  0  0  0  0
    3.9750   -3.5875    0.0000 C   0  0  0  0  0  0  0  0  0  0  0  0
    4.5875   -2.5250    0.0000 C   0  0  0  0  0  0  0  0  0  0  0  0
    5.2000   -3.5875    0.0000 C   0  0  0  0  0  0  0  0  0  0  0  0
    1.5250   -5.7167    0.0000 C   0  0  0  0  0  0  0  0  0  0  0  0
    1.5250   -6.4292    0.0000 C   0  0  0  0  0  0  0  0  0  0  0  0
  2  1  1  0
  3  5  1  0
  4  9  1  0
  5  2  2  0
  6  1  1  0
  7  6  1  0
  8  2  1  0
  9  8  2  0
 10  5  1  0
 11 10  2  0
 12  4  1  0
 13  4  1  0
 14  4  1  0
 15  1  1  0
 16 15  1  0
 17 20  1  0
 18  6  2  0
 19  7  2  0
 20 16  1  0
 21 17  1  0
 22 17  1  0
 23 18  1  0
 24 19  1  0
  3  7  1  0
  9 11  1  0
 24 23  2  0
M  END
> <chembl_id>
CHEMBL570

> <chembl_pref_name>
TRIFLUPROMAZINE
