
     RDKit          2D

 28 30  0  0  0  0  0  0  0  0999 V2000
    4.0561   -1.7115    0.0000 C   0  0  0  0  0  0  0  0  0  0  0  0
    3.3417   -1.2990    0.0000 C   0  0  0  0  0  0  0  0  0  0  0  0
    4.0561   -2.5365    0.0000 C   0  0  0  0  0  0  0  0  0  0  0  0
    3.3417   -3.7740    0.0000 C   0  0  0  0  0  0  0  0  0  0  0  0
    4.0561   -4.1865    0.0000 C   0  0  0  0  0  0  0  0  0  0  0  0
    4.7706   -3.7740    0.0000 C   0  0  0  0  0  0  0  0  0  0  0  0
    4.7706   -2.9490    0.0000 O   0  0  0  0  0  0  0  0  0  0  0  0
    5.4851   -4.1865    0.0000 N   0  0  0  0  0  0  0  0  0  0  0  0
    4.0561   -5.0115    0.0000 C   0  0  0  0  0  0  0  0  0  0  0  0
    4.7706   -5.4240    0.0000 C   0  0  0  0  0  0  0  0  0  0  0  0
    5.4851   -5.0115    0.0000 C   0  0  0  0  0  0  0  0  0  0  0  0
    4.7706   -6.2490    0.0000 C   0  0  0  0  0  0  0  0  0  0  0  0
    3.3417   -5.4240    0.0000 N   0  0  0  0  0  0  0  0  0  0  0  0
    2.6272   -5.0115    0.0000 C   0  0  0  0  0  0  0  0  0  0  0  0
    2.6272   -4.1865    0.0000 C   0  0  0  0  0  0  0  0  0  0  0  0
    1.9127   -5.4240    0.0000 C   0  0  0  0  0  0  0  0  0  0  0  0
    1.9127   -3.7740    0.0000 C   0  0  0  0  0  0  0  0  0  0  0  0
    1.4278   -3.1066    0.0000 N   0  0  0  0  0  0  0  0  0  0  0  0
    1.1982   -4.1865    0.0000 O   0  0  0  0  0  0  0  0  0  0  0  0
    3.3417   -2.9490    0.0000 C   0  0  0  0  0  0  0  0  0  0  0  0
    2.6272   -2.5365    0.0000 C   0  0  0  0  0  0  0  0  0  0  0  0
    1.1982   -2.5365    0.0000 C   0  0  0  0  0  0  0  0  0  0  0  0
    1.9127   -2.9490    0.0000 O   0  0  0  0  0  0  0  0  0  0  0  0
    2.6272   -1.7115    0.0000 C   0  0  0  0  0  0  0  0  0  0  0  0
    3.3417    0.3510    0.0000 N   0  0  0  0  0  0  0  0  0  0  0  0
    3.3417   -0.4740    0.0000 C   0  0  0  0  0  0  0  0  0  0  0  0
    5.4851   -2.5365    0.0000 C   0  0  0  0  0  0  0  0  0  0  0  0
    6.1995   -2.9490    0.0000 C   0  0  0  0  0  0  0  0  0  0  0  0
  1  2  1  0
  2 24  2  0
  3  1  2  0
  3 20  1  0
  4 20  1  1
  5  6  1  0
  5  4  1  0
  6  7  1  0
  7 27  1  0
  8  6  2  0
  8 11  1  0
  9  5  2  0
 10  9  1  0
 10 12  1  0
 11 10  2  0
 13  9  1  0
 13 14  1  0
 14 15  2  0
 15  4  1  0
 16 14  1  0
 17 15  1  0
 17 18  1  0
 19 17  2  0
 20 21  2  0
 21 23  1  0
 23 22  1  0
 24 21  1  0
 26 25  3  0
 26  2  1  0
 27 28  1  0
M  END
> <chembl_id>
CHEMBL2181927

> <chembl_pref_name>
FINERENONE
