
     RDKit          2D

 22 24  0  0  0  0  0  0  0  0999 V2000
    4.0792   -5.7292    0.0000 C   0  0  0  0  0  0  0  0  0  0  0  0
    3.4667   -6.0917    0.0000 C   0  0  0  0  0  0  0  0  0  0  0  0
    4.0750   -5.0250    0.0000 C   0  0  0  0  0  0  0  0  0  0  0  0
    5.9125   -4.6625    0.0000 C   0  0  0  0  0  0  0  0  0  0  0  0
    6.5292   -5.0125    0.0000 C   0  0  0  0  0  0  0  0  0  0  0  0
    4.6875   -4.6667    0.0000 N   0  0  0  0  0  0  0  0  0  0  0  0
    3.4667   -6.8000    0.0000 C   0  0  0  0  0  0  0  0  0  0  0  0
    7.1417   -4.6542    0.0000 C   0  0  0  0  0  0  0  0  0  0  0  0
    5.3042   -5.0167    0.0000 C   0  0  0  0  0  0  0  0  0  0  0  0
    4.6917   -6.0792    0.0000 C   0  0  0  0  0  0  0  0  0  0  0  0
    4.7000   -6.7917    0.0000 C   0  0  0  0  0  0  0  0  0  0  0  0
    2.8542   -5.7375    0.0000 C   0  0  0  0  0  0  0  0  0  0  0  0
    4.0875   -7.1542    0.0000 C   0  0  0  0  0  0  0  0  0  0  0  0
    4.6792   -3.9542    0.0000 C   0  0  0  0  0  0  0  0  0  0  0  0
    2.8542   -7.1542    0.0000 C   0  0  0  0  0  0  0  0  0  0  0  0
    7.1292   -3.9500    0.0000 C   0  0  0  0  0  0  0  0  0  0  0  0
    7.7542   -5.0042    0.0000 C   0  0  0  0  0  0  0  0  0  0  0  0
    2.2417   -6.0917    0.0000 C   0  0  0  0  0  0  0  0  0  0  0  0
    2.2417   -6.8042    0.0000 C   0  0  0  0  0  0  0  0  0  0  0  0
    8.3667   -4.6500    0.0000 C   0  0  0  0  0  0  0  0  0  0  0  0
    7.7417   -3.5917    0.0000 C   0  0  0  0  0  0  0  0  0  0  0  0
    8.3625   -3.9417    0.0000 C   0  0  0  0  0  0  0  0  0  0  0  0
  2  1  1  0
  3  1  1  0
  4  9  1  0
  5  4  2  0
  6  3  1  0
  7  2  1  0
  8  5  1  0
  9  6  1  0
 10  1  2  0
 11 10  1  0
 12  2  2  0
 13 11  2  0
 14  6  1  0
 15  7  2  0
 16  8  1  0
 17  8  2  0
 18 12  1  0
 19 18  2  0
 20 17  1  0
 21 16  2  0
 22 21  1  0
 13  7  1  0
 15 19  1  0
 22 20  2  0
M  END
> <chembl_id>
CHEMBL626

> <chembl_pref_name>
NAFTIFINE
