
     RDKit          2D

 19 21  0  0  0  0  0  0  0  0999 V2000
    0.1875    0.7083    0.0000 C   0  0  0  0  0  0  0  0  0  0  0  0
    2.3167    0.2625    0.0000 N   0  0  0  0  0  0  0  0  0  0  0  0
    1.1375   -0.0292    0.0000 C   0  0  0  0  0  0  0  0  0  0  0  0
    1.1125    2.7083    0.0000 N   0  0  0  0  0  0  0  0  0  0  0  0
    0.1792    1.9458    0.0000 C   0  0  0  0  0  0  0  0  0  0  0  0
    2.3000    2.4708    0.0000 C   0  0  0  0  0  0  0  0  0  0  0  0
    0.9000   -1.2125    0.0000 C   0  0  0  0  0  0  0  0  0  0  0  0
   -0.8458    0.1208    0.0000 C   0  0  0  0  0  0  0  0  0  0  0  0
    2.8542    1.3500    0.0000 C   0  0  0  0  0  0  0  0  0  0  0  0
   -0.2458   -1.5625    0.0000 N   0  0  0  0  0  0  0  0  0  0  0  0
   -0.8708    2.5458    0.0000 C   0  0  0  0  0  0  0  0  0  0  0  0
    3.0500    3.4583    0.0000 O   0  0  0  0  0  0  0  0  0  0  0  0
   -1.9208    0.7000    0.0000 C   0  0  0  0  0  0  0  0  0  0  0  0
   -1.9375    1.9208    0.0000 C   0  0  0  0  0  0  0  0  0  0  0  0
   -2.9875    0.0750    0.0000 Br  0  0  0  0  0  0  0  0  0  0  0  0
   -0.5208   -2.7417    0.0000 C   0  0  0  0  0  0  0  0  0  0  0  0
    1.7792   -2.0292    0.0000 C   0  0  0  0  0  0  0  0  0  0  0  0
    0.3625   -3.5917    0.0000 C   0  0  0  0  0  0  0  0  0  0  0  0
    1.5000   -3.2042    0.0000 C   0  0  0  0  0  0  0  0  0  0  0  0
  2  3  2  0
  3  1  1  0
  4  5  1  0
  5  1  2  0
  6  4  1  0
  7  3  1  0
  8  1  1  0
  9  2  1  0
 10  7  2  0
 11  5  1  0
 12  6  2  0
 13  8  2  0
 14 13  1  0
 15 13  1  0
 16 10  1  0
 17  7  1  0
 18 19  1  0
 19 17  2  0
 11 14  2  0
  9  6  1  0
 16 18  2  0
M  END
> <chembl_id>
CHEMBL277062

> <chembl_pref_name>
BROMAZEPAM
