
     RDKit          2D

  5  3  0  0  0  0  0  0  0  0999 V2000
    4.9917   -2.4375    0.0000 Mg  0  0  0  0  0 15  0  0  0  0  0  0
    3.6125   -2.4958    0.0000 C   0  0  0  0  0  0  0  0  0  0  0  0
    3.9792   -3.1042    0.0000 O   0  0  0  0  0  0  0  0  0  0  0  0
    3.9708   -1.8958    0.0000 O   0  0  0  0  0  0  0  0  0  0  0  0
    2.8917   -2.5125    0.0000 O   0  0  0  0  0  0  0  0  0  0  0  0
  3  2  1  0
  4  2  1  0
  5  2  2  0
M  CHG  3   1   2   3  -1   4  -1
M  END
> <chembl_id>
CHEMBL1200736

> <chembl_pref_name>
MAGNESIUM CARBONATE
