
     RDKit          2D

 28 29  0  0  1  0  0  0  0  0999 V2000
    0.7875    1.5375    0.0000 N   0  0  0  0  0  0  0  0  0  0  0  0
    1.2875    2.2333    0.0000 C   0  0  0  0  0  0  0  0  0  0  0  0
    1.0500    0.7208    0.0000 C   0  0  0  0  0  0  0  0  0  0  0  0
   -0.0208    1.8000    0.0000 C   0  0  0  0  0  0  0  0  0  0  0  0
    0.7875    2.9125    0.0000 C   0  0  0  0  0  0  0  0  0  0  0  0
    2.1292    2.2333    0.0000 C   0  0  0  0  0  0  0  0  0  0  0  0
    0.7500   -0.7167    0.0000 N   0  0  0  0  0  0  0  0  0  0  0  0
   -0.0208    2.6500    0.0000 C   0  0  0  0  0  0  0  0  0  0  0  0
    0.4875    0.0958    0.0000 C   0  0  0  0  0  0  0  0  0  0  0  0
   -0.6583   -1.1542    0.0000 C   0  0  0  0  0  0  0  0  0  0  0  0
    0.1792   -1.3375    0.0000 C   0  0  0  0  0  0  0  0  0  0  0  0
    1.8792    0.5500    0.0000 O   0  0  0  0  0  0  0  0  0  0  0  0
    2.5625    1.5000    0.0000 O   0  0  0  0  0  0  0  0  0  0  0  0
   -0.8625   -0.5375    0.0000 O   0  0  0  0  0  0  0  0  0  0  0  0
    2.5625    2.9708    0.0000 O   0  0  0  0  0  0  0  0  0  0  0  0
   -1.2250   -1.7917    0.0000 O   0  0  0  0  0  0  0  0  0  0  0  0
   -0.7583    1.3750    0.0000 C   0  0  0  0  0  0  0  0  0  0  0  0
   -0.7583    3.0833    0.0000 C   0  0  0  0  0  0  0  0  0  0  0  0
   -0.3458    0.2708    0.0000 C   0  0  0  0  0  0  0  0  0  0  0  0
    0.4375   -2.1500    0.0000 C   0  0  0  0  0  0  0  0  0  0  0  0
   -2.0625   -1.6250    0.0000 C   0  0  0  0  0  0  0  0  0  0  0  0
   -0.1333   -2.7792    0.0000 C   0  0  0  0  0  0  0  0  0  0  0  0
   -1.4958    1.8000    0.0000 C   0  0  0  0  0  0  0  0  0  0  0  0
   -1.4958    2.6500    0.0000 C   0  0  0  0  0  0  0  0  0  0  0  0
   -2.6333   -2.2542    0.0000 C   0  0  0  0  0  0  0  0  0  0  0  0
    0.1250   -3.5917    0.0000 C   0  0  0  0  0  0  0  0  0  0  0  0
   -0.0083    0.9625    0.0000 H   0  0  0  0  0  0  0  0  0  0  0  0
   -0.0208    3.4958    0.0000 H   0  0  0  0  0  0  0  0  0  0  0  0
  2  1  1  0
  3  1  1  0
  4  1  1  0
  5  2  1  0
  2  6  1  1
  7  9  1  0
  8  4  1  0
  9  3  1  0
 11 10  1  1
 11  7  1  0
 12  3  2  0
 13  6  2  0
 14 10  2  0
 15  6  1  0
 16 10  1  0
 17  4  1  0
 18  8  1  0
  9 19  1  1
 20 11  1  0
 21 16  1  0
 22 20  1  0
 23 17  1  0
 24 23  1  0
 25 21  1  0
 26 22  1  0
  4 27  1  6
  8 28  1  6
  8  5  1  0
 18 24  1  0
M  END
> <chembl_id>
CHEMBL1581

> <chembl_pref_name>
PERINDOPRIL
