
     RDKit          2D

  2  0  0  0  0  0  0  0  0  0999 V2000
    4.2042   -6.3292    0.0000 K   0  0  0  0  0 15  0  0  0  0  0  0
    5.0500   -6.3250    0.0000 Cl  0  0  0  0  0  0  0  0  0  0  0  0
M  CHG  2   1   1   2  -1
M  END
> <chembl_id>
CHEMBL1200731

> <chembl_pref_name>
POTASSIUM CHLORIDE
