
     RDKit          2D

 21 23  0  0  0  0  0  0  0  0999 V2000
    1.0167   -3.9542    0.0000 C   0  0  0  0  0  0  0  0  0  0  0  0
    1.3667   -3.3375    0.0000 C   0  0  0  0  0  0  0  0  0  0  0  0
    2.4250   -2.7125    0.0000 N   0  0  0  0  0  0  0  0  0  0  0  0
    0.4042   -4.3125    0.0000 C   0  0  0  0  0  0  0  0  0  0  0  0
    2.0708   -3.3292    0.0000 C   0  0  0  0  0  0  0  0  0  0  0  0
    1.6292   -4.3042    0.0000 C   0  0  0  0  0  0  0  0  0  0  0  0
    0.6625   -3.3375    0.0000 O   0  0  0  0  0  0  0  0  0  0  0  0
    2.2042   -2.0417    0.0000 C   0  0  0  0  0  0  0  0  0  0  0  0
    3.1292   -2.7125    0.0000 C   0  0  0  0  0  0  0  0  0  0  0  0
    0.4042   -5.0250    0.0000 C   0  0  0  0  0  0  0  0  0  0  0  0
   -0.2083   -3.9542    0.0000 C   0  0  0  0  0  0  0  0  0  0  0  0
    1.6292   -5.0167    0.0000 C   0  0  0  0  0  0  0  0  0  0  0  0
    2.2417   -3.9500    0.0000 C   0  0  0  0  0  0  0  0  0  0  0  0
    3.3542   -2.0417    0.0000 C   0  0  0  0  0  0  0  0  0  0  0  0
    2.7792   -1.6167    0.0000 C   0  0  0  0  0  0  0  0  0  0  0  0
   -0.2083   -5.3792    0.0000 C   0  0  0  0  0  0  0  0  0  0  0  0
   -0.8208   -4.3125    0.0000 C   0  0  0  0  0  0  0  0  0  0  0  0
    2.8542   -4.3042    0.0000 C   0  0  0  0  0  0  0  0  0  0  0  0
    2.2417   -5.3667    0.0000 C   0  0  0  0  0  0  0  0  0  0  0  0
   -0.8208   -5.0250    0.0000 C   0  0  0  0  0  0  0  0  0  0  0  0
    2.8542   -5.0125    0.0000 C   0  0  0  0  0  0  0  0  0  0  0  0
  2  1  1  0
  3  5  1  0
  4  1  1  0
  5  2  1  0
  6  1  1  0
  7  1  1  0
  8  3  1  0
  9  3  1  0
 10  4  1  0
 11  4  2  0
 12  6  1  0
 13  6  1  0
 14  9  1  0
 15  8  1  0
 16 10  2  0
 17 11  1  0
 18 13  1  0
 19 12  1  0
 20 16  1  0
 21 19  1  0
 21 18  1  0
 20 17  2  0
 15 14  1  0
M  END
> <chembl_id>
CHEMBL86715

> <chembl_pref_name>
PROCYCLIDINE
