
     RDKit          2D

 23 25  0  0  0  0  0  0  0  0999 V2000
    2.1458   -3.9917    0.0000 C   0  0  0  0  0  0  0  0  0  0  0  0
    4.5958   -3.2792    0.0000 N   0  0  0  0  0  0  0  0  0  0  0  0
    3.3708   -3.9917    0.0000 N   0  0  0  0  0  0  0  0  0  0  0  0
    2.7583   -4.3500    0.0000 C   0  0  0  0  0  0  0  0  0  0  0  0
    1.5333   -4.3542    0.0000 C   0  0  0  0  0  0  0  0  0  0  0  0
    1.7875   -3.3792    0.0000 C   0  0  0  0  0  0  0  0  0  0  0  0
    3.9750   -2.9292    0.0000 C   0  0  0  0  0  0  0  0  0  0  0  0
    4.5875   -3.9917    0.0000 C   0  0  0  0  0  0  0  0  0  0  0  0
    2.4875   -3.3792    0.0000 O   0  0  0  0  0  0  0  0  0  0  0  0
    3.3625   -3.2875    0.0000 C   0  0  0  0  0  0  0  0  0  0  0  0
    3.9833   -4.3417    0.0000 C   0  0  0  0  0  0  0  0  0  0  0  0
    5.3000   -3.2792    0.0000 C   0  0  0  0  0  0  0  0  0  0  0  0
    4.9375   -2.6667    0.0000 C   0  0  0  0  0  0  0  0  0  0  0  0
    0.9208   -4.0000    0.0000 C   0  0  0  0  0  0  0  0  0  0  0  0
    1.5333   -5.0667    0.0000 C   0  0  0  0  0  0  0  0  0  0  0  0
    2.1458   -2.7542    0.0000 C   0  0  0  0  0  0  0  0  0  0  0  0
    1.0708   -3.3792    0.0000 C   0  0  0  0  0  0  0  0  0  0  0  0
    0.9208   -5.4167    0.0000 C   0  0  0  0  0  0  0  0  0  0  0  0
    0.3083   -4.3542    0.0000 C   0  0  0  0  0  0  0  0  0  0  0  0
    1.7875   -2.1375    0.0000 C   0  0  0  0  0  0  0  0  0  0  0  0
    0.7125   -2.7542    0.0000 C   0  0  0  0  0  0  0  0  0  0  0  0
    1.0708   -2.1375    0.0000 C   0  0  0  0  0  0  0  0  0  0  0  0
    0.3083   -5.0667    0.0000 C   0  0  0  0  0  0  0  0  0  0  0  0
  2  8  1  0
  3  4  1  0
  4  1  1  0
  5  1  1  0
  6  1  1  0
  7 10  1  0
  8 11  1  0
  9  1  1  0
 10  3  1  0
 11  3  1  0
 12  2  1  0
 13  2  1  0
 14  5  2  0
 15  5  1  0
 16  6  1  0
 17  6  1  0
 18 15  2  0
 19 14  1  0
 20 16  1  0
 21 17  1  0
 22 21  1  0
 23 18  1  0
 20 22  1  0
 19 23  2  0
  7  2  1  0
M  CHG  1   2   1
M  END
> <chembl_id>
CHEMBL1201325

> <chembl_pref_name>
HEXOCYCLIUM
