
     RDKit          2D

 27 28  0  0  0  0  0  0  0  0999 V2000
    5.1865   -3.9558    0.0000 Na  0  0  0  0  0 15  0  0  0  0  0  0
    0.0718   -4.3335    0.0000 O   0  0  0  0  0  0  0  0  0  0  0  0
    0.7863   -4.7460    0.0000 C   0  0  0  0  0  0  0  0  0  0  0  0
    0.3013   -5.4135    0.0000 O   0  0  0  0  0  0  0  0  0  0  0  0
    1.5007   -4.3335    0.0000 C   0  0  0  0  0  0  0  0  0  0  0  0
    1.5007   -3.5085    0.0000 C   0  0  0  0  0  0  0  0  0  0  0  0
    2.2152   -3.0960    0.0000 C   0  0  0  0  0  0  0  0  0  0  0  0
    2.9297   -3.5085    0.0000 C   0  0  0  0  0  0  0  0  0  0  0  0
    2.9297   -4.3335    0.0000 C   0  0  0  0  0  0  0  0  0  0  0  0
    2.2152   -4.7460    0.0000 C   0  0  0  0  0  0  0  0  0  0  0  0
    2.2152   -5.5710    0.0000 C   0  0  0  0  0  0  0  0  0  0  0  0
    2.9297   -5.9835    0.0000 C   0  0  0  0  0  0  0  0  0  0  0  0
    3.6441   -5.5710    0.0000 C   0  0  0  0  0  0  0  0  0  0  0  0
    4.3586   -5.9835    0.0000 C   0  0  0  0  0  0  0  0  0  0  0  0
    4.3586   -6.8085    0.0000 C   0  0  0  0  0  0  0  0  0  0  0  0
    5.0731   -7.2210    0.0000 O   0  0  0  0  0  0  0  0  0  0  0  0
    3.6441   -7.2210    0.0000 C   0  0  0  0  0  0  0  0  0  0  0  0
    2.9297   -6.8085    0.0000 C   0  0  0  0  0  0  0  0  0  0  0  0
    2.2152   -7.2210    0.0000 O   0  0  0  0  0  0  0  0  0  0  0  0
    1.5007   -6.8085    0.0000 C   0  0  0  0  0  0  0  0  0  0  0  0
    0.7863   -7.2210    0.0000 C   0  0  0  0  0  0  0  0  0  0  0  0
    0.0718   -6.8085    0.0000 C   0  0  0  0  0  0  0  0  0  0  0  0
   -0.6427   -7.2210    0.0000 O   0  0  0  0  0  0  0  0  0  0  0  0
    0.0718   -5.9835    0.0000 C   0  0  0  0  0  0  0  0  0  0  0  0
    0.7863   -5.5710    0.0000 C   0  0  0  0  0  0  0  0  0  0  0  0
    1.5007   -5.9835    0.0000 C   0  0  0  0  0  0  0  0  0  0  0  0
    4.1847   -3.9558    0.0000 Na  0  0  0  0  0 15  0  0  0  0  0  0
  2  3  1  0
  3  4  2  0
  3  5  1  0
  5  6  2  0
  6  7  1  0
  7  8  2  0
  8  9  1  0
  9 10  2  0
  5 10  1  0
 10 11  1  0
 11 12  2  0
 12 13  1  0
 13 14  2  0
 14 15  1  0
 15 16  2  0
 15 17  1  0
 17 18  2  0
 12 18  1  0
 18 19  1  0
 19 20  1  0
 20 21  2  0
 21 22  1  0
 22 23  1  0
 22 24  2  0
 24 25  1  0
 25 26  2  0
 11 26  1  0
 20 26  1  0
M  CHG  4   1   1   2  -1  23  -1  27   1
M  END
> <chembl_id>
CHEMBL1628233

> <chembl_pref_name>
FLUORESCEIN SODIUM
