
     RDKit          2D

 12 12  0  0  0  0  0  0  0  0999 V2000
    4.2125   -5.1542    0.0000 C   0  0  0  0  0  0  0  0  0  0  0  0
    5.7167   -5.0917    0.0000 C   0  0  0  0  0  0  0  0  0  0  0  0
    6.1667   -5.6520    0.0000 C   0  0  0  0  0  0  0  0  0  0  0  0
    5.2750   -4.5417    0.0000 C   0  0  0  0  0  0  0  0  0  0  0  0
    4.9167   -5.1542    0.0000 O   0  0  0  0  0  0  0  0  0  0  0  0
    3.8542   -5.7667    0.0000 O   0  0  0  0  0  0  0  0  0  0  0  0
    3.8542   -4.5375    0.0000 N   0  0  0  0  0  0  0  0  0  0  0  0
    5.8917   -4.1917    0.0000 C   0  0  0  0  0  0  0  0  0  0  0  0
    4.6667   -4.1792    0.0000 C   0  0  0  0  0  0  0  0  0  0  0  0
    5.9042   -3.4792    0.0000 C   0  0  0  0  0  0  0  0  0  0  0  0
    4.6667   -3.4667    0.0000 C   0  0  0  0  0  0  0  0  0  0  0  0
    5.2917   -3.1167    0.0000 C   0  0  0  0  0  0  0  0  0  0  0  0
  2  4  1  0
  3  2  3  0
  4  5  1  0
  5  1  1  0
  6  1  2  0
  7  1  1  0
  8  4  1  0
  9  4  1  0
 10  8  1  0
 11  9  1  0
 12 11  1  0
 12 10  1  0
M  END
> <chembl_id>
CHEMBL1576

> <chembl_pref_name>
ETHINAMATE
