
     RDKit          2D

  5  3  0  0  0  0  0  0  0  0999 V2000
    3.7750   -0.0042    0.0000 Ca  0  0  0  0  0 15  0  0  0  0  0  0
    2.2917   -0.0167    0.0000 C   0  0  0  0  0  0  0  0  0  0  0  0
    2.6500   -0.6292    0.0000 O   0  0  0  0  0  0  0  0  0  0  0  0
    2.6500    0.5958    0.0000 O   0  0  0  0  0  0  0  0  0  0  0  0
    1.5875   -0.0167    0.0000 O   0  0  0  0  0  0  0  0  0  0  0  0
  3  2  1  0
  4  2  1  0
  5  2  2  0
M  CHG  3   1   2   3  -1   4  -1
M  END
> <chembl_id>
CHEMBL1200539

> <chembl_pref_name>
CALCIUM CARBONATE
