
     RDKit          2D

 25 27  0  0  0  0  0  0  0  0999 V2000
  -20.5071  -11.4911    0.0000 C   0  0  0  0  0  0  0  0  0  0  0  0
  -21.2216  -11.9036    0.0000 C   0  0  0  0  0  0  0  0  0  0  0  0
  -21.2216  -12.7286    0.0000 C   0  0  0  0  0  0  0  0  0  0  0  0
  -20.5071  -13.1411    0.0000 C   0  0  0  0  0  0  0  0  0  0  0  0
  -19.7926  -12.7286    0.0000 C   0  0  0  0  0  0  0  0  0  0  0  0
  -19.7926  -11.9036    0.0000 C   0  0  0  0  0  0  0  0  0  0  0  0
  -21.9361  -11.4911    0.0000 O   0  0  0  0  0  0  0  0  0  0  0  0
  -22.6506  -11.9036    0.0000 C   0  0  0  0  0  0  0  0  0  0  0  0
  -21.9361  -13.1411    0.0000 O   0  0  0  0  0  0  0  0  0  0  0  0
  -21.9361  -13.9661    0.0000 C   0  0  0  0  0  0  0  0  0  0  0  0
  -19.0782  -13.1411    0.0000 C   0  0  0  0  0  0  0  0  0  0  0  0
  -18.3637  -12.7286    0.0000 C   0  0  0  0  0  0  0  0  0  0  0  0
  -17.6492  -13.1411    0.0000 O   0  0  0  0  0  0  0  0  0  0  0  0
  -16.9348  -12.7286    0.0000 C   0  0  0  0  0  0  0  0  0  0  0  0
  -15.6972  -12.0141    0.0000 C   0  0  0  0  0  0  0  0  0  0  0  0
  -16.1097  -11.2997    0.0000 C   0  0  0  0  0  0  0  0  0  0  0  0
  -16.9348  -11.2997    0.0000 C   0  0  0  0  0  0  0  0  0  0  0  0
  -17.3473  -12.0141    0.0000 C   0  0  0  0  0  0  0  0  0  0  0  0
  -16.1097  -12.7286    0.0000 C   0  0  0  0  0  0  0  0  0  0  0  0
  -15.6972  -13.4431    0.0000 N   0  0  0  0  0  0  0  0  0  0  0  0
  -16.0328  -14.1968    0.0000 C   0  0  0  0  0  0  0  0  0  0  0  0
  -15.4197  -14.7488    0.0000 C   0  0  0  0  0  0  0  0  0  0  0  0
  -14.7053  -14.3363    0.0000 C   0  0  0  0  0  0  0  0  0  0  0  0
  -14.8768  -13.5293    0.0000 C   0  0  0  0  0  0  0  0  0  0  0  0
  -13.9516  -14.6718    0.0000 O   0  0  0  0  0  0  0  0  0  0  0  0
  1  2  1  0
  1  6  2  0
  2  3  2  0
  3  4  1  0
  4  5  2  0
  5  6  1  0
  2  7  1  0
  7  8  1  0
  3  9  1  0
  9 10  1  0
  5 11  1  0
 11 12  1  0
 12 13  1  0
 14 13  1  6
 18 14  1  0
 14 19  1  0
 15 16  1  0
 19 15  1  0
 16 17  1  0
 17 18  1  0
 19 20  1  1
 20 21  1  0
 20 24  1  0
 21 22  1  0
 22 23  1  0
 23 24  1  0
 23 25  1  6
M  END
> <chembl_id>
CHEMBL2111112

> <chembl_pref_name>
VERNAKALANT
