
     RDKit          2D

 19 19  0  0  1  0  0  0  0  0999 V2000
   -1.6688   -6.1708    0.0000 O   0  0  0  0  0  0  0  0  0  0  0  0
   -3.0978   -5.3458    0.0000 O   0  0  0  0  0  0  0  0  0  0  0  0
    2.6180   -7.8208    0.0000 O   0  0  0  0  0  0  0  0  0  0  0  0
   -4.5267   -6.1708    0.0000 N   0  0  0  0  0  0  0  0  0  0  0  0
   -0.9544   -6.5833    0.0000 C   0  0  0  0  0  0  0  0  0  0  0  0
    0.4746   -7.4083    0.0000 C   0  0  0  0  0  0  0  0  0  0  0  0
   -0.9544   -7.4083    0.0000 C   0  0  0  0  0  0  0  0  0  0  0  0
   -0.2399   -6.1708    0.0000 C   0  0  0  0  0  0  0  0  0  0  0  0
   -0.2399   -7.8208    0.0000 C   0  0  0  0  0  0  0  0  0  0  0  0
    0.4746   -6.5833    0.0000 C   0  0  0  0  0  0  0  0  0  0  0  0
    1.1891   -7.8208    0.0000 C   0  0  0  0  0  0  0  0  0  0  0  0
   -2.3833   -6.5833    0.0000 C   0  0  0  0  0  0  0  0  0  0  0  0
   -3.0978   -6.1708    0.0000 C   0  0  0  0  0  0  0  0  0  0  0  0
    1.9035   -7.4083    0.0000 C   0  0  0  0  0  0  0  0  0  0  0  0
   -3.8122   -6.5833    0.0000 C   0  0  0  0  0  0  0  0  0  0  0  0
   -5.2412   -6.5833    0.0000 C   0  0  0  0  0  0  0  0  0  0  0  0
    3.3325   -7.4083    0.0000 C   0  0  0  0  0  0  0  0  0  0  0  0
   -5.9557   -6.1708    0.0000 C   0  0  0  0  0  0  0  0  0  0  0  0
   -5.2412   -7.4083    0.0000 C   0  0  0  0  0  0  0  0  0  0  0  0
  1  5  1  0
  1 12  1  0
  2 13  1  0
  3 14  1  0
  3 17  1  0
  4 15  1  0
  4 16  1  0
  5  7  2  0
  5  8  1  0
  6  9  2  0
  6 10  1  0
  6 11  1  0
  7  9  1  0
  8 10  2  0
 11 14  1  0
 12 13  1  0
 13 15  1  0
 16 18  1  0
 16 19  1  0
M  END
> <chembl_id>
CHEMBL13

> <chembl_pref_name>
METOPROLOL
