
     RDKit          2D

 29 32  0  0  0  0  0  0  0  0999 V2000
    2.0440    1.7885    0.0000 C   0  0  0  0  0  0  0  0  0  0  0  0
   -1.6790   -0.3832    0.0000 C   0  0  0  0  0  0  0  0  0  0  0  0
    3.3032    2.5367    0.0000 C   0  0  0  0  0  0  0  0  0  0  0  0
   -0.4380    0.3285    0.0000 C   0  0  0  0  0  0  0  0  0  0  0  0
    0.8030   -0.3650    0.0000 C   0  0  0  0  0  0  0  0  0  0  0  0
    2.0440    0.3467    0.0000 C   0  0  0  0  0  0  0  0  0  0  0  0
   -0.4562    1.7885    0.0000 C   0  0  0  0  0  0  0  0  0  0  0  0
   -1.6790   -1.8250    0.0000 C   0  0  0  0  0  0  0  0  0  0  0  0
    0.8030    2.5185    0.0000 C   0  0  0  0  0  0  0  0  0  0  0  0
   -2.9565    0.3102    0.0000 C   0  0  0  0  0  0  0  0  0  0  0  0
   -2.9382   -2.5732    0.0000 C   0  0  0  0  0  0  0  0  0  0  0  0
    4.5993    3.2532    0.0000 C   0  0  0  0  0  0  0  0  0  0  0  0
    4.5625    1.8067    0.0000 C   0  0  0  0  0  0  0  0  0  0  0  0
    4.5625    0.3285    0.0000 C   0  0  0  0  0  0  0  0  0  0  0  0
    0.8212   -1.8067    0.0000 C   0  0  0  0  0  0  0  0  0  0  0  0
   -4.1792   -0.4015    0.0000 C   0  0  0  0  0  0  0  0  0  0  0  0
   -4.1792   -1.8432    0.0000 C   0  0  0  0  0  0  0  0  0  0  0  0
   -0.4197   -2.5550    0.0000 C   0  0  0  0  0  0  0  0  0  0  0  0
   -1.4997    2.3811    0.0000 O   0  0  0  0  0  0  0  0  0  0  0  0
    4.5927    4.4532    0.0000 O   0  0  0  0  0  0  0  0  0  0  0  0
   -5.2209   -2.4390    0.0000 O   0  0  0  0  0  0  0  0  0  0  0  0
    2.2469    3.1060    0.0000 O   0  0  0  0  0  0  0  0  0  0  0  0
    1.0061    1.1862    0.0000 C   0  0  0  0  0  0  0  0  0  0  0  0
   -1.6930    0.8167    0.0000 C   0  0  0  0  0  0  0  0  0  0  0  0
    5.9034    2.5103    0.0000 C   0  0  0  0  0  0  0  0  0  0  0  0
    6.9395    3.1157    0.0000 O   0  0  0  0  0  0  0  0  0  0  0  0
   -0.4332   -0.6715    0.0000 H   0  0  0  0  0  0  0  0  0  0  0  0
    1.6715   -0.8608    0.0000 H   0  0  0  0  0  0  0  0  0  0  0  0
    2.2979   -0.6205    0.0000 H   0  0  0  0  0  0  0  0  0  0  0  0
  2  4  1  0
  3  1  1  0
  4  7  1  0
  5  6  1  0
  6  1  1  0
  7  9  1  0
  8  2  1  0
  9  1  1  0
 10  2  1  0
 11  8  2  0
  3 12  1  1
 13  3  1  0
 14  6  1  0
 15  5  1  0
 16 10  2  0
 17 11  1  0
 18 15  1  0
 19  7  2  0
 20 12  2  0
 21 17  2  0
 22  3  1  0
  1 23  1  1
  2 24  1  1
 25 12  1  0
 26 25  1  0
  4 27  1  6
  5 28  1  1
  6 29  1  6
 13 14  1  0
  4  5  1  0
 18  8  1  0
 16 17  1  0
M  END
> <chembl_id>
CHEMBL635

> <chembl_pref_name>
PREDNISONE
