
     RDKit          2D

 10 12  0  0  0  0  0  0  0  0999 V2000
    0.3542    1.5500    0.0000 N   0  0  0  0  0  0  0  0  0  0  0  0
   -0.1208   -0.6000    0.0000 N   0  0  0  0  0  0  0  0  0  0  0  0
   -0.9583   -0.4625    0.0000 N   0  0  0  0  0  0  0  0  0  0  0  0
    1.2167   -0.3792    0.0000 N   0  0  0  0  0  0  0  0  0  0  0  0
   -0.1208    0.6583    0.0000 C   0  0  0  0  0  0  0  0  0  0  0  0
   -0.9583    0.7083    0.0000 C   0  0  0  0  0  0  0  0  0  0  0  0
    1.2167    0.6833    0.0000 C   0  0  0  0  0  0  0  0  0  0  0  0
   -1.7458   -1.5792    0.0000 C   0  0  0  0  0  0  0  0  0  0  0  0
    1.7375   -1.7167    0.0000 C   0  0  0  0  0  0  0  0  0  0  0  0
   -0.0833   -1.4792    0.0000 C   0  0  0  0  0  0  0  0  0  0  0  0
  2  5  1  0
  3  6  1  0
  4  7  1  0
  5  1  1  0
  6  1  1  0
  7  1  1  0
  8  3  1  0
  9  4  1  0
 10  4  1  0
  3 10  1  0
  2  9  1  0
  2  8  1  0
M  END
> <chembl_id>
CHEMBL1201270

> <chembl_pref_name>
METHENAMINE
