
     RDKit          2D

 50 56  0  0  1  0  0  0  0  0999 V2000
    0.6042   -2.0375    0.0000 C   0  0  0  0  0  0  0  0  0  0  0  0
    1.1792   -1.7292    0.0000 C   0  0  0  0  0  0  0  0  0  0  0  0
   -0.0125   -1.6792    0.0000 C   0  0  0  0  0  0  0  0  0  0  0  0
   -0.7750   -1.9667    0.0000 N   0  0  0  0  0  0  0  0  0  0  0  0
    1.5750    2.0875    0.0000 N   0  0  0  0  0  0  0  0  0  0  0  0
    0.2375    2.0458    0.0000 C   0  0  0  0  0  0  0  0  0  0  0  0
    0.9500    1.5958    0.0000 C   0  0  0  0  0  0  0  0  0  0  0  0
    1.7542   -2.0542    0.0000 C   0  0  0  0  0  0  0  0  0  0  0  0
    0.6042   -2.6542    0.0000 C   0  0  0  0  0  0  0  0  0  0  0  0
   -1.3875    1.6208    0.0000 O   0  0  0  0  0  0  0  0  0  0  0  0
   -0.8708    2.0458    0.0000 C   0  0  0  0  0  0  0  0  0  0  0  0
    1.7542   -1.2167    0.0000 O   0  0  0  0  0  0  0  0  0  0  0  0
   -0.3083    1.7333    0.0000 C   0  0  0  0  0  0  0  0  0  0  0  0
    0.2375    2.6625    0.0000 C   0  0  0  0  0  0  0  0  0  0  0  0
   -1.3875    0.9833    0.0000 C   0  0  0  0  0  0  0  0  0  0  0  0
    1.7542   -2.6792    0.0000 C   0  0  0  0  0  0  0  0  0  0  0  0
    1.1792   -2.9917    0.0000 C   0  0  0  0  0  0  0  0  0  0  0  0
   -0.8708    2.6625    0.0000 C   0  0  0  0  0  0  0  0  0  0  0  0
   -0.3083    2.9833    0.0000 C   0  0  0  0  0  0  0  0  0  0  0  0
   -0.0458   -0.6375    0.0000 C   0  0  0  0  0  0  0  0  0  0  0  0
   -0.7750   -2.7625    0.0000 C   0  0  0  0  0  0  0  0  0  0  0  0
    1.5750    2.7833    0.0000 C   0  0  0  0  0  0  0  0  0  0  0  0
    1.6042    1.1583    0.0000 C   0  0  0  0  0  0  0  0  0  0  0  0
   -0.8333    0.6625    0.0000 C   0  0  0  0  0  0  0  0  0  0  0  0
   -1.9208    0.6625    0.0000 C   0  0  0  0  0  0  0  0  0  0  0  0
   -0.0708   -3.0542    0.0000 C   0  0  0  0  0  0  0  0  0  0  0  0
   -0.8333    0.0333    0.0000 C   0  0  0  0  0  0  0  0  0  0  0  0
    0.8167    3.1333    0.0000 C   0  0  0  0  0  0  0  0  0  0  0  0
    1.6542   -0.6542    0.0000 C   0  0  0  0  0  0  0  0  0  0  0  0
   -1.9208    0.0333    0.0000 C   0  0  0  0  0  0  0  0  0  0  0  0
    2.3125   -1.7750    0.0000 O   0  0  0  0  0  0  0  0  0  0  0  0
    1.6042    0.5750    0.0000 C   0  0  0  0  0  0  0  0  0  0  0  0
   -1.3875   -0.2792    0.0000 C   0  0  0  0  0  0  0  0  0  0  0  0
    2.3000   -2.9792    0.0000 O   0  0  0  0  0  0  0  0  0  0  0  0
   -1.5375   -1.5417    0.0000 C   0  0  0  0  0  0  0  0  0  0  0  0
   -1.7458   -2.3875    0.0000 C   0  0  0  0  0  0  0  0  0  0  0  0
    2.2917    2.6208    0.0000 C   0  0  0  0  0  0  0  0  0  0  0  0
    2.2417    1.7583    0.0000 C   0  0  0  0  0  0  0  0  0  0  0  0
   -1.4208    2.9708    0.0000 O   0  0  0  0  0  0  0  0  0  0  0  0
    1.0750   -0.3542    0.0000 C   0  0  0  0  0  0  0  0  0  0  0  0
    2.1625   -0.2792    0.0000 C   0  0  0  0  0  0  0  0  0  0  0  0
    1.0750    0.2708    0.0000 C   0  0  0  0  0  0  0  0  0  0  0  0
    2.1625    0.2875    0.0000 C   0  0  0  0  0  0  0  0  0  0  0  0
   -2.4708    0.9958    0.0000 O   0  0  0  0  0  0  0  0  0  0  0  0
    2.8167   -2.1042    0.0000 C   0  0  0  0  0  0  0  0  0  0  0  0
    2.3125   -3.5917    0.0000 C   0  0  0  0  0  0  0  0  0  0  0  0
   -1.4333    3.5958    0.0000 C   0  0  0  0  0  0  0  0  0  0  0  0
   -2.4708    1.6208    0.0000 C   0  0  0  0  0  0  0  0  0  0  0  0
    1.9493    1.6344    0.0000 H   0  0  0  0  0  0  0  0  0  0  0  0
   -0.8439   -1.1236    0.0000 H   0  0  0  0  0  0  0  0  0  0  0  0
  2  1  2  0
  3  1  1  0
  4  3  1  0
  5  7  1  0
  6 13  2  0
  7 23  1  0
  8  2  1  0
  9  1  1  0
 10 15  1  0
 11 10  1  0
 12  2  1  0
 13 11  1  0
 14 19  2  0
 15 24  1  0
 16 17  1  0
 17  9  2  0
 18 11  2  0
 19 18  1  0
  3 20  1  0
 21 26  1  0
 22  5  1  0
 23 32  1  0
 24 27  2  0
 25 30  1  0
 26  9  1  0
 27 20  1  0
 28 14  1  0
 29 12  1  0
 30 33  2  0
 31  8  1  0
 32 43  2  0
 33 27  1  0
 34 16  1  0
 35  4  1  0
 36  4  1  0
 37  5  1  0
 38  5  1  0
 39 18  1  0
 40 29  1  0
 41 29  2  0
 42 40  2  0
 43 41  1  0
 44 25  1  0
 45 31  1  0
 46 34  1  0
 47 39  1  0
 48 44  1  0
  7 49  1  6
  4 21  1  0
  8 16  2  0
 42 32  1  0
 15 25  2  0
  7  6  1  0
  6 14  1  0
 22 28  1  0
  3 50  1  1
M  CHG  2   4   1   5   1
M  END
> <chembl_id>
CHEMBL1259

> <chembl_pref_name>
METOCURINE
