
     RDKit          2D

 16 15  0  0  0  0  0  0  0  0999 V2000
    4.1167   -0.2375    0.0000 C   0  0  0  0  0  0  0  0  0  0  0  0
    0.4375   -0.2375    0.0000 C   0  0  0  0  0  0  0  0  0  0  0  0
    2.2792   -0.5917    0.0000 C   0  0  0  0  0  0  0  0  0  0  0  0
    1.6625   -0.2375    0.0000 C   0  0  0  0  0  0  0  0  0  0  0  0
    2.8917   -0.2375    0.0000 C   0  0  0  0  0  0  0  0  0  0  0  0
    1.0500   -0.5917    0.0000 O   0  0  0  0  0  0  0  0  0  0  0  0
    3.5042   -0.5917    0.0000 O   0  0  0  0  0  0  0  0  0  0  0  0
    4.1167    0.4708    0.0000 O   0  0  0  0  0  0  0  0  0  0  0  0
    0.4375    0.4708    0.0000 O   0  0  0  0  0  0  0  0  0  0  0  0
   -0.1750   -0.5917    0.0000 N   0  0  0  0  0  0  0  0  0  0  0  0
    4.7292   -0.5917    0.0000 N   0  0  0  0  0  0  0  0  0  0  0  0
    1.9167   -1.2042    0.0000 C   0  0  0  0  0  0  0  0  0  0  0  0
    2.6292   -1.2042    0.0000 C   0  0  0  0  0  0  0  0  0  0  0  0
    1.2125   -1.2000    0.0000 C   0  0  0  0  0  0  0  0  0  0  0  0
    2.2708   -1.8167    0.0000 C   0  0  0  0  0  0  0  0  0  0  0  0
    0.8542   -1.8083    0.0000 C   0  0  0  0  0  0  0  0  0  0  0  0
  2  6  1  0
  3  5  1  0
  4  3  1  0
  5  7  1  0
  6  4  1  0
  7  1  1  0
  8  1  2  0
  9  2  2  0
 10  2  1  0
 11  1  1  0
 12  3  1  0
 13  3  1  0
 14 12  1  0
 15 12  1  0
 16 14  1  0
M  END
> <chembl_id>
CHEMBL1200922

> <chembl_pref_name>
MEBUTAMATE
