
     RDKit          2D

 21 22  0  0  1  0  0  0  0  0999 V2000
    7.2875   -3.2333    0.0000 C   0  0  0  0  0  0  0  0  0  0  0  0
    7.2875   -2.5292    0.0000 C   0  0  0  0  0  0  0  0  0  0  0  0
    6.6750   -3.5917    0.0000 C   0  0  0  0  0  0  0  0  0  0  0  0
    7.8958   -2.1750    0.0000 C   0  0  0  0  0  0  0  0  0  0  0  0
    7.8958   -1.4667    0.0000 O   0  0  0  0  0  0  0  0  0  0  0  0
   10.3500   -1.4625    0.0000 N   0  0  0  0  0  0  0  0  0  0  0  0
    6.6792   -4.3000    0.0000 O   0  0  0  0  0  0  0  0  0  0  0  0
   10.9625   -1.1042    0.0000 C   0  0  0  0  0  0  0  0  0  0  0  0
    9.1208   -1.4625    0.0000 C   0  0  0  0  0  0  0  0  0  0  0  0
    8.5083   -1.1125    0.0000 C   0  0  0  0  0  0  0  0  0  0  0  0
    9.7333   -1.1083    0.0000 C   0  0  0  0  0  0  0  0  0  0  0  0
    7.8958   -3.5875    0.0000 C   0  0  0  0  0  0  0  0  0  0  0  0
    6.6750   -2.1750    0.0000 C   0  0  0  0  0  0  0  0  0  0  0  0
    9.1250   -2.1708    0.0000 O   0  0  0  0  0  0  0  0  0  0  0  0
    6.0667   -3.2375    0.0000 C   0  0  0  0  0  0  0  0  0  0  0  0
    6.0667   -2.5292    0.0000 C   0  0  0  0  0  0  0  0  0  0  0  0
    8.5083   -3.2333    0.0000 C   0  0  0  0  0  0  0  0  0  0  0  0
    8.5083   -2.5250    0.0000 C   0  0  0  0  0  0  0  0  0  0  0  0
   11.3125   -0.4875    0.0000 C   0  0  0  0  0  0  0  0  0  0  0  0
   10.6042   -0.4875    0.0000 C   0  0  0  0  0  0  0  0  0  0  0  0
   11.5750   -1.4583    0.0000 C   0  0  0  0  0  0  0  0  0  0  0  0
  2  1  2  0
  3  1  1  0
  4  2  1  0
  5  4  1  0
  6 11  1  0
  7  3  2  0
  8  6  1  0
  9 10  1  0
 10  5  1  0
 11  9  1  0
 12  1  1  0
 13  2  1  0
  9 14  1  6
 15  3  1  0
 16 15  1  0
 17 12  2  0
 18 17  1  0
 19  8  1  0
 20  8  1  0
 21  8  1  0
 13 16  1  0
  4 18  2  0
M  END
> <chembl_id>
CHEMBL1201237

> <chembl_pref_name>
LEVOBUNOLOL
