
     RDKit          2D

 15 14  0  0  0  0  0  0  0  0999 V2000
    8.0000   -8.6750    0.0000 Cl  0  0  0  0  0  0  0  0  0  0  0  0
    2.0750   -7.6125    0.0000 I   0  0  0  0  0  0  0  0  0  0  0  0
    5.7750   -9.0125    0.0000 N   0  0  0  0  0  0  0  0  0  0  0  0
    2.6833   -7.9667    0.0000 C   0  0  0  0  0  0  0  0  0  0  0  0
    5.1667   -8.6583    0.0000 C   0  0  0  0  0  0  0  0  0  0  0  0
    4.5375   -9.0125    0.0000 C   0  0  0  0  0  0  0  0  0  0  0  0
    3.9167   -8.6375    0.0000 C   0  0  0  0  0  0  0  0  0  0  0  0
    3.2875   -7.6125    0.0000 C   0  0  0  0  0  0  0  0  0  0  0  0
    2.6833   -8.6833    0.0000 C   0  0  0  0  0  0  0  0  0  0  0  0
    3.3000   -9.0125    0.0000 C   0  0  0  0  0  0  0  0  0  0  0  0
    3.9167   -7.9458    0.0000 C   0  0  0  0  0  0  0  0  0  0  0  0
    6.3750   -8.6583    0.0000 C   0  0  0  0  0  0  0  0  0  0  0  0
    5.1667   -7.9333    0.0000 C   0  0  0  0  0  0  0  0  0  0  0  0
    7.0083   -8.9875    0.0000 C   0  0  0  0  0  0  0  0  0  0  0  0
    6.3750   -7.9333    0.0000 C   0  0  0  0  0  0  0  0  0  0  0  0
  3  5  1  0
  4  2  1  0
  5  6  1  0
  6  7  1  0
  7 10  2  0
  8  4  1  0
  9  4  2  0
 10  9  1  0
 11  8  2  0
 12  3  1  0
 13  5  1  0
 14 12  1  0
 15 12  1  0
 11  7  1  0
M  ISO  1   2 123
M  END
> <chembl_id>
CHEMBL1200360

> <chembl_pref_name>
IOFETAMINE HYDROCHLORIDE I 123
