
     RDKit          2D

 33 36  0  0  0  0  0  0  0  0999 V2000
    2.1000   -0.0042    0.0000 C   0  0  0  0  0  0  0  0  0  0  0  0
    2.1000    0.7000    0.0000 C   0  0  0  0  0  0  0  0  0  0  0  0
   -1.5375   -0.0042    0.0000 S   0  0  0  0  0  0  0  0  0  0  0  0
    1.4917   -0.3667    0.0000 N   0  0  0  0  0  0  0  0  0  0  0  0
    0.8792   -0.0042    0.0000 C   0  0  0  0  0  0  0  0  0  0  0  0
    2.8042    0.9083    0.0000 N   0  0  0  0  0  0  0  0  0  0  0  0
    1.4917    1.0625    0.0000 C   0  0  0  0  0  0  0  0  0  0  0  0
    0.8792    0.6833    0.0000 N   0  0  0  0  0  0  0  0  0  0  0  0
    3.2042    0.3458    0.0000 N   0  0  0  0  0  0  0  0  0  0  0  0
    2.8042   -0.2417    0.0000 C   0  0  0  0  0  0  0  0  0  0  0  0
    0.2875   -0.3750    0.0000 C   0  0  0  0  0  0  0  0  0  0  0  0
   -2.1583   -0.3750    0.0000 N   0  0  0  0  0  0  0  0  0  0  0  0
   -0.9333   -0.3750    0.0000 C   0  0  0  0  0  0  0  0  0  0  0  0
   -0.3208   -0.0333    0.0000 C   0  0  0  0  0  0  0  0  0  0  0  0
   -1.1875    0.6083    0.0000 O   0  0  0  0  0  0  0  0  0  0  0  0
   -1.8958    0.6083    0.0000 O   0  0  0  0  0  0  0  0  0  0  0  0
   -3.3958   -1.0917    0.0000 N   0  0  0  0  0  0  0  0  0  0  0  0
   -2.7833   -0.0042    0.0000 C   0  0  0  0  0  0  0  0  0  0  0  0
   -2.1583   -1.0917    0.0000 C   0  0  0  0  0  0  0  0  0  0  0  0
    0.2875   -1.1125    0.0000 C   0  0  0  0  0  0  0  0  0  0  0  0
    1.4917    1.7708    0.0000 O   0  0  0  0  0  0  0  0  0  0  0  0
   -0.9333   -1.1125    0.0000 C   0  0  0  0  0  0  0  0  0  0  0  0
   -0.3208   -1.4542    0.0000 C   0  0  0  0  0  0  0  0  0  0  0  0
   -3.3958   -0.3750    0.0000 C   0  0  0  0  0  0  0  0  0  0  0  0
   -2.7833   -1.4417    0.0000 C   0  0  0  0  0  0  0  0  0  0  0  0
    3.0750    1.5750    0.0000 C   0  0  0  0  0  0  0  0  0  0  0  0
    2.8042   -0.9500    0.0000 C   0  0  0  0  0  0  0  0  0  0  0  0
    0.8792   -1.4542    0.0000 O   0  0  0  0  0  0  0  0  0  0  0  0
   -3.9958   -1.4292    0.0000 C   0  0  0  0  0  0  0  0  0  0  0  0
    1.4958   -1.1000    0.0000 C   0  0  0  0  0  0  0  0  0  0  0  0
    3.4167   -1.3125    0.0000 C   0  0  0  0  0  0  0  0  0  0  0  0
    2.1125   -1.4500    0.0000 C   0  0  0  0  0  0  0  0  0  0  0  0
    4.0375   -0.9542    0.0000 C   0  0  0  0  0  0  0  0  0  0  0  0
  2  1  2  0
  3 13  1  0
  4  1  1  0
  5  4  2  0
  6  2  1  0
  7  2  1  0
  8  5  1  0
  9 10  2  0
 10  1  1  0
 11  5  1  0
 12  3  1  0
 13 14  2  0
 14 11  1  0
 15  3  2  0
 16  3  2  0
 17 25  1  0
 18 12  1  0
 19 12  1  0
 20 11  2  0
 21  7  2  0
 22 23  2  0
 23 20  1  0
 24 18  1  0
 25 19  1  0
 26  6  1  0
 27 10  1  0
 28 20  1  0
 29 17  1  0
 30 28  1  0
 31 27  1  0
 32 30  1  0
 33 31  1  0
  9  6  1  0
  8  7  1  0
 22 13  1  0
 17 24  1  0
M  END
> <chembl_id>
CHEMBL192

> <chembl_pref_name>
SILDENAFIL
