
     RDKit          2D

 30 33  0  0  1  0  0  0  0  0999 V2000
   -0.3583    0.1000    0.0000 N   0  0  0  0  0  0  0  0  0  0  0  0
   -0.9958    0.1208    0.0000 C   0  0  0  0  0  0  0  0  0  0  0  0
   -0.3708   -0.5250    0.0000 C   0  0  0  0  0  0  0  0  0  0  0  0
   -1.0208   -0.5042    0.0000 C   0  0  0  0  0  0  0  0  0  0  0  0
    0.1917    0.4208    0.0000 C   0  0  0  0  0  0  0  0  0  0  0  0
    3.2042    0.3208    0.0000 S   0  0  0  0  0  0  0  0  0  0  0  0
   -4.2708   -1.0375    0.0000 N   0  0  0  0  0  0  0  0  0  0  0  0
    0.1792   -0.8625    0.0000 S   0  0  0  0  0  0  0  0  0  0  0  0
   -3.7333   -1.4042    0.0000 N   0  0  0  0  0  0  0  0  0  0  0  0
   -3.2083   -1.0167    0.0000 N   0  0  0  0  0  0  0  0  0  0  0  0
    0.7542    0.0958    0.0000 C   0  0  0  0  0  0  0  0  0  0  0  0
    2.5542    0.5625    0.0000 C   0  0  0  0  0  0  0  0  0  0  0  0
   -4.0833   -0.4167    0.0000 N   0  0  0  0  0  0  0  0  0  0  0  0
    2.5792    1.2708    0.0000 N   0  0  0  0  0  0  0  0  0  0  0  0
    3.2542    1.4583    0.0000 N   0  0  0  0  0  0  0  0  0  0  0  0
   -1.4958   -0.9500    0.0000 N   0  0  0  0  0  0  0  0  0  0  0  0
    3.6417    0.8750    0.0000 C   0  0  0  0  0  0  0  0  0  0  0  0
   -3.4208   -0.4042    0.0000 C   0  0  0  0  0  0  0  0  0  0  0  0
    0.1875    1.0458    0.0000 C   0  0  0  0  0  0  0  0  0  0  0  0
   -2.1208   -0.7625    0.0000 C   0  0  0  0  0  0  0  0  0  0  0  0
   -2.5875   -1.2042    0.0000 C   0  0  0  0  0  0  0  0  0  0  0  0
    0.7375   -0.5375    0.0000 C   0  0  0  0  0  0  0  0  0  0  0  0
   -1.5208    0.5333    0.0000 O   0  0  0  0  0  0  0  0  0  0  0  0
    1.9667    0.1750    0.0000 S   0  0  0  0  0  0  0  0  0  0  0  0
    1.3375    0.4833    0.0000 C   0  0  0  0  0  0  0  0  0  0  0  0
   -0.3625    1.3583    0.0000 O   0  0  0  0  0  0  0  0  0  0  0  0
   -2.2625   -0.1292    0.0000 O   0  0  0  0  0  0  0  0  0  0  0  0
    0.7292    1.3625    0.0000 O   0  0  0  0  0  0  0  0  0  0  0  0
    4.3417    0.8458    0.0000 C   0  0  0  0  0  0  0  0  0  0  0  0
   -0.3833   -1.1667    0.0000 H   0  0  0  0  0  0  0  0  0  0  0  0
  2  1  1  0
  3  1  1  0
  4  3  1  0
  5  1  1  0
  6 12  1  0
  7  9  2  0
  8  3  1  0
  9 10  1  0
 10 21  1  0
 11  5  2  0
 12 24  1  0
 13 18  2  0
 14 12  2  0
 15 14  1  0
  4 16  1  6
 17  6  1  0
 18 10  1  0
 19  5  1  0
 20 16  1  0
 21 20  1  0
 22 11  1  0
 23  2  2  0
 24 25  1  0
 25 11  1  0
 26 19  2  0
 27 20  2  0
 28 19  1  0
 29 17  1  0
  3 30  1  1
  2  4  1  0
  8 22  1  0
 17 15  2  0
 13  7  1  0
M  END
> <chembl_id>
CHEMBL1435

> <chembl_pref_name>
CEFAZOLIN
