
     RDKit          2D

 23 26  0  0  0  0  0  0  0  0999 V2000
    5.7667   -3.9167    0.0000 N   0  0  0  0  0  0  0  0  0  0  0  0
    5.2000   -5.0750    0.0000 C   0  0  0  0  0  0  0  0  0  0  0  0
    5.7750   -5.5250    0.0000 C   0  0  0  0  0  0  0  0  0  0  0  0
    5.2000   -4.3542    0.0000 C   0  0  0  0  0  0  0  0  0  0  0  0
    6.4625   -5.3542    0.0000 N   0  0  0  0  0  0  0  0  0  0  0  0
    6.3542   -2.9417    0.0000 N   0  0  0  0  0  0  0  0  0  0  0  0
    6.4542   -4.0667    0.0000 C   0  0  0  0  0  0  0  0  0  0  0  0
    5.6917   -3.2167    0.0000 C   0  0  0  0  0  0  0  0  0  0  0  0
    5.4250   -6.1292    0.0000 C   0  0  0  0  0  0  0  0  0  0  0  0
    6.8042   -3.4667    0.0000 C   0  0  0  0  0  0  0  0  0  0  0  0
    6.7542   -4.7292    0.0000 C   0  0  0  0  0  0  0  0  0  0  0  0
    4.5875   -4.0167    0.0000 C   0  0  0  0  0  0  0  0  0  0  0  0
    4.5917   -5.4375    0.0000 C   0  0  0  0  0  0  0  0  0  0  0  0
    5.7667   -6.7500    0.0000 C   0  0  0  0  0  0  0  0  0  0  0  0
    3.9750   -5.0792    0.0000 C   0  0  0  0  0  0  0  0  0  0  0  0
    3.9750   -4.3625    0.0000 C   0  0  0  0  0  0  0  0  0  0  0  0
    6.4875   -6.7625    0.0000 F   0  0  0  0  0  0  0  0  0  0  0  0
    3.3667   -5.4375    0.0000 Cl  0  0  0  0  0  0  0  0  0  0  0  0
    4.6917   -6.1292    0.0000 C   0  0  0  0  0  0  0  0  0  0  0  0
    5.0792   -2.8625    0.0000 C   0  0  0  0  0  0  0  0  0  0  0  0
    5.4167   -7.3500    0.0000 C   0  0  0  0  0  0  0  0  0  0  0  0
    4.3375   -6.7417    0.0000 C   0  0  0  0  0  0  0  0  0  0  0  0
    4.7042   -7.3542    0.0000 C   0  0  0  0  0  0  0  0  0  0  0  0
  2  4  2  0
  3  2  1  0
  4  1  1  0
  5 11  1  0
  6  8  2  0
  7  1  1  0
  8  1  1  0
  9  3  1  0
 10  7  2  0
 11  7  1  0
 12  4  1  0
 13  2  1  0
 14  9  1  0
 15 16  1  0
 16 12  2  0
 17 14  1  0
 18 15  1  0
 19  9  2  0
 20  8  1  0
 21 14  2  0
 22 19  1  0
 23 22  2  0
  6 10  1  0
  5  3  2  0
 15 13  2  0
 23 21  1  0
M  END
> <chembl_id>
CHEMBL655

> <chembl_pref_name>
MIDAZOLAM
