
     RDKit          2D

 51 57  0  0  0  0  0  0  0  0999 V2000
    7.0917  -11.7917    0.0000 S   0  0  0  0  0  0  0  0  0  0  0  0
    7.4417  -11.1667    0.0000 O   0  0  0  0  0  0  0  0  0  0  0  0
    6.7292  -11.1667    0.0000 O   0  0  0  0  0  0  0  0  0  0  0  0
    7.7042  -12.1417    0.0000 O   0  0  0  0  0  0  0  0  0  0  0  0
    6.4792  -12.1417    0.0000 C   0  0  0  0  0  0  0  0  0  0  0  0
    8.1792   -7.9042    0.0000 C   0  0  0  0  0  0  0  0  0  0  0  0
    7.9667   -8.5625    0.0000 N   0  0  0  0  0  0  0  0  0  0  0  0
    7.6000   -7.4750    0.0000 O   0  0  0  0  0  0  0  0  0  0  0  0
    7.0250   -7.9000    0.0000 C   0  0  0  0  0  0  0  0  0  0  0  0
    7.2542   -8.5625    0.0000 C   0  0  0  0  0  0  0  0  0  0  0  0
    9.1125   -8.9375    0.0000 C   0  0  0  0  0  0  0  0  0  0  0  0
    8.4292   -9.0750    0.0000 C   0  0  0  0  0  0  0  0  0  0  0  0
    9.3250   -8.2750    0.0000 N   0  0  0  0  0  0  0  0  0  0  0  0
    5.1875   -9.7000    0.0000 C   0  0  0  0  0  0  0  0  0  0  0  0
    5.1875  -11.1250    0.0000 C   0  0  0  0  0  0  0  0  0  0  0  0
    8.8625   -7.7625    0.0000 C   0  0  0  0  0  0  0  0  0  0  0  0
    5.8042  -10.0542    0.0000 C   0  0  0  0  0  0  0  0  0  0  0  0
    4.5750  -10.0625    0.0000 C   0  0  0  0  0  0  0  0  0  0  0  0
    6.4167   -7.5750    0.0000 N   0  0  0  0  0  0  0  0  0  0  0  0
    6.4167   -9.7000    0.0000 N   0  0  0  0  0  0  0  0  0  0  0  0
    5.8042   -8.6375    0.0000 C   0  0  0  0  0  0  0  0  0  0  0  0
    4.5750  -10.7625    0.0000 C   0  0  0  0  0  0  0  0  0  0  0  0
    5.8042   -7.9292    0.0000 C   0  0  0  0  0  0  0  0  0  0  0  0
    5.8042  -10.7625    0.0000 C   0  0  0  0  0  0  0  0  0  0  0  0
    5.1875   -8.9917    0.0000 C   0  0  0  0  0  0  0  0  0  0  0  0
    4.8917  -11.8375    0.0000 C   0  0  0  0  0  0  0  0  0  0  0  0
    4.1875  -11.8375    0.0000 N   0  0  0  0  0  0  0  0  0  0  0  0
    6.4167   -8.9917    0.0000 C   0  0  0  0  0  0  0  0  0  0  0  0
    3.9542  -11.1250    0.0000 C   0  0  0  0  0  0  0  0  0  0  0  0
    8.0750   -9.7000    0.0000 C   0  0  0  0  0  0  0  0  0  0  0  0
    9.5875   -9.4625    0.0000 O   0  0  0  0  0  0  0  0  0  0  0  0
    8.3625   -7.2167    0.0000 O   0  0  0  0  0  0  0  0  0  0  0  0
    6.8417   -9.1375    0.0000 O   0  0  0  0  0  0  0  0  0  0  0  0
    5.1875   -7.5750    0.0000 O   0  0  0  0  0  0  0  0  0  0  0  0
    9.9500   -7.9917    0.0000 C   0  0  0  0  0  0  0  0  0  0  0  0
    7.0250   -7.1000    0.0000 C   0  0  0  0  0  0  0  0  0  0  0  0
    3.9542   -9.7000    0.0000 C   0  0  0  0  0  0  0  0  0  0  0  0
    7.0292  -10.0542    0.0000 C   0  0  0  0  0  0  0  0  0  0  0  0
    8.4250  -10.3125    0.0000 C   0  0  0  0  0  0  0  0  0  0  0  0
    9.2000   -7.1625    0.0000 C   0  0  0  0  0  0  0  0  0  0  0  0
    9.8792   -7.3042    0.0000 C   0  0  0  0  0  0  0  0  0  0  0  0
    3.3417  -10.0625    0.0000 C   0  0  0  0  0  0  0  0  0  0  0  0
    3.3417  -10.7625    0.0000 C   0  0  0  0  0  0  0  0  0  0  0  0
    8.0750  -10.9250    0.0000 C   0  0  0  0  0  0  0  0  0  0  0  0
    9.1375  -10.3125    0.0000 C   0  0  0  0  0  0  0  0  0  0  0  0
    9.4875  -10.9250    0.0000 C   0  0  0  0  0  0  0  0  0  0  0  0
    8.4250  -11.5375    0.0000 C   0  0  0  0  0  0  0  0  0  0  0  0
    9.1375  -11.5375    0.0000 C   0  0  0  0  0  0  0  0  0  0  0  0
    8.6750   -8.4417    0.0000 H   0  0  0  0  0  0  0  0  0  0  0  0
    6.4167  -10.4125    0.0000 H   0  0  0  0  0  0  0  0  0  0  0  0
    4.5667   -9.3500    0.0000 H   0  0  0  0  0  0  0  0  0  0  0  0
  2  1  2  0
  3  1  2  0
  4  1  1  0
  5  1  1  0
  7  6  1  0
  8  6  1  0
  9  8  1  0
 10  7  1  0
 11 13  1  0
 12  7  1  0
 13 16  1  0
 14 25  1  0
 15 24  1  0
 16  6  1  0
 17 20  1  0
 18 14  1  0
 19  9  1  0
 20 28  1  0
 21 23  1  1
 22 18  2  0
 23 19  1  0
 24 17  1  0
 25 21  1  0
 26 15  2  0
 27 29  1  0
 28 21  1  0
 29 22  1  0
 12 30  1  6
 31 11  2  0
  6 32  1  6
 33 10  2  0
 34 23  2  0
 35 13  1  0
  9 36  1  1
 37 18  1  0
 38 20  1  0
 39 30  1  0
 40 16  1  0
 41 40  1  0
 42 37  2  0
 43 42  1  0
 44 39  1  0
 45 39  2  0
 46 45  1  0
 47 44  2  0
 48 46  2  0
 16 49  1  1
 17 50  1  1
 14 51  1  6
 11 12  1  0
 10  9  1  0
 41 35  1  0
 48 47  1  0
 17 14  1  0
 15 22  1  0
 43 29  2  0
 26 27  1  0
M  END
> <chembl_id>
CHEMBL1200517

> <chembl_pref_name>
DIHYDROERGOTAMINE MESYLATE
