
     RDKit          2D

 40 44  0  0  0  0  0  0  0  0999 V2000
    4.5671    0.2243    0.0000 C   0  0  0  0  0  0  0  0  0  0  0  0
    4.5671   -1.2660    0.0000 C   0  0  0  0  0  0  0  0  0  0  0  0
    3.2691   -2.0191    0.0000 C   0  0  0  0  0  0  0  0  0  0  0  0
    3.2691    0.9935    0.0000 C   0  0  0  0  0  0  0  0  0  0  0  0
    1.9711    0.2243    0.0000 C   0  0  0  0  0  0  0  0  0  0  0  0
    1.9711   -1.2660    0.0000 C   0  0  0  0  0  0  0  0  0  0  0  0
    0.6891   -2.0191    0.0000 C   0  0  0  0  0  0  0  0  0  0  0  0
    0.6891    0.9935    0.0000 C   0  0  0  0  0  0  0  0  0  0  0  0
   -0.6089    0.2243    0.0000 C   0  0  0  0  0  0  0  0  0  0  0  0
   -0.6089   -1.2660    0.0000 C   0  0  0  0  0  0  0  0  0  0  0  0
   -1.9070   -2.0191    0.0000 C   0  0  0  0  0  0  0  0  0  0  0  0
   -1.9070    0.9935    0.0000 C   0  0  0  0  0  0  0  0  0  0  0  0
    0.6923    2.1935    0.0000 O   0  0  0  0  0  0  0  0  0  0  0  0
    0.6923   -3.2191    0.0000 O   0  0  0  0  0  0  0  0  0  0  0  0
    3.2722   -3.5199    0.0000 O   0  0  0  0  0  0  0  0  0  0  0  0
    4.3122   -4.1184    0.0000 C   0  0  0  0  0  0  0  0  0  0  0  0
   -1.9070    2.1935    0.0000 O   0  0  0  0  0  0  0  0  0  0  0  0
   -1.9070   -3.2191    0.0000 O   0  0  0  0  0  0  0  0  0  0  0  0
   -3.2050    0.2243    0.0000 C   0  0  0  0  0  0  0  0  0  0  0  0
   -3.2050   -1.2660    0.0000 C   0  0  0  0  0  0  0  0  0  0  0  0
   -4.5030   -2.0191    0.0000 C   0  0  0  0  0  0  0  0  0  0  0  0
   -5.8010   -1.2660    0.0000 C   0  0  0  0  0  0  0  0  0  0  0  0
   -5.8010    0.2243    0.0000 C   0  0  0  0  0  0  0  0  0  0  0  0
   -4.5030    0.9935    0.0000 C   0  0  0  0  0  0  0  0  0  0  0  0
   -5.7778    1.4241    0.0000 O   0  0  0  0  0  0  0  0  0  0  0  0
   -7.0594   -0.5548    0.0000 C   0  0  0  0  0  0  0  0  0  0  0  0
   -7.0515   -2.0556    0.0000 C   0  0  0  0  0  0  0  0  0  0  0  0
   -7.9282   -0.0596    0.0000 O   0  0  0  0  0  0  0  0  0  0  0  0
   -7.9145   -2.5607    0.0000 O   0  0  0  0  0  0  0  0  0  0  0  0
   -5.8029   -2.7279    0.0000 O   0  0  0  0  0  0  0  0  0  0  0  0
   -5.8769   -4.2269    0.0000 C   0  0  0  0  0  0  0  0  0  0  0  0
   -7.1972   -4.9363    0.0000 O   0  0  0  0  0  0  0  0  0  0  0  0
   -7.2428   -6.4356    0.0000 C   0  0  0  0  0  0  0  0  0  0  0  0
   -5.9671   -7.2248    0.0000 C   0  0  0  0  0  0  0  0  0  0  0  0
   -4.6459   -6.5146    0.0000 C   0  0  0  0  0  0  0  0  0  0  0  0
   -4.6003   -5.0153    0.0000 C   0  0  0  0  0  0  0  0  0  0  0  0
   -8.2998   -7.0038    0.0000 C   0  0  0  0  0  0  0  0  0  0  0  0
   -6.0036   -8.4242    0.0000 O   0  0  0  0  0  0  0  0  0  0  0  0
   -3.6254   -7.1459    0.0000 N   0  0  0  0  0  0  0  0  0  0  0  0
   -3.6251   -2.4979    0.0000 H   0  0  0  0  0  0  0  0  0  0  0  0
  7 10  1  0
  9  8  1  0
  5  4  2  0
  9 10  2  0
  4  1  1  0
 19 24  1  0
 20 21  1  0
 21 22  1  0
 22 23  1  0
 23 24  1  0
 10 11  1  0
 23 25  1  1
 11 20  2  0
 23 26  1  0
  5  6  1  0
 26 27  1  0
 19 12  2  0
 26 28  2  0
 12  9  1  0
 27 29  1  0
  1  2  2  0
 21 30  1  0
  8 13  2  0
 31 30  1  1
 31 32  1  0
  7 14  2  0
  2  3  1  0
  3 15  1  0
  3  6  2  0
 31 36  1  0
 32 33  1  0
 33 34  1  0
 34 35  1  0
 35 36  1  0
 15 16  1  0
 33 37  1  6
  5  8  1  0
 34 38  1  6
 12 17  1  0
 35 39  1  6
  6  7  1  0
 21 40  1  6
 11 18  1  0
 19 20  1  0
M  END
> <chembl_id>
CHEMBL53463

> <chembl_pref_name>
DOXORUBICIN
