
     RDKit          2D

 33 35  0  0  0  0  0  0  0  0999 V2000
    8.3676  -10.3047    0.0000 O   0  0  0  0  0  0  0  0  0  0  0  0
    9.0553  -11.4957    0.0000 O   0  0  0  0  0  0  0  0  0  0  0  0
    9.7390   -9.5084    0.0000 O   0  0  0  0  0  0  0  0  0  0  0  0
   10.4236  -11.4939    0.0000 O   0  0  0  0  0  0  0  0  0  0  0  0
   11.1170   -9.5089    0.0000 O   0  0  0  0  0  0  0  0  0  0  0  0
   11.8028  -10.7019    0.0000 O   0  0  0  0  0  0  0  0  0  0  0  0
    9.0125  -10.7083    0.0000 C   0  0  0  0  0  0  0  0  0  0  0  0
    9.7270  -10.2958    0.0000 C   0  0  0  0  0  0  0  0  0  0  0  0
   10.4414  -10.7083    0.0000 C   0  0  0  0  0  0  0  0  0  0  0  0
   11.1559  -10.2958    0.0000 C   0  0  0  0  0  0  0  0  0  0  0  0
    5.5609  -10.3986    0.0000 C   0  0  0  0  0  0  0  0  0  0  0  0
    4.7646  -10.4058    0.0000 C   0  0  0  0  0  0  0  0  0  0  0  0
    4.7640   -9.0242    0.0000 C   0  0  0  0  0  0  0  0  0  0  0  0
    4.3713   -9.7140    0.0000 C   0  0  0  0  0  0  0  0  0  0  0  0
    3.5794   -9.7178    0.0000 C   0  0  0  0  0  0  0  0  0  0  0  0
    3.1793   -9.0325    0.0000 C   0  0  0  0  0  0  0  0  0  0  0  0
    3.5768   -8.3421    0.0000 C   0  0  0  0  0  0  0  0  0  0  0  0
    4.3675   -8.3417    0.0000 C   0  0  0  0  0  0  0  0  0  0  0  0
    5.9635  -11.0858    0.0000 N   0  0  0  0  0  0  0  0  0  0  0  0
    5.5695  -11.7779    0.0000 C   0  0  0  0  0  0  0  0  0  0  0  0
    5.9722  -12.4651    0.0000 C   0  0  0  0  0  0  0  0  0  0  0  0
    5.5781  -13.1573    0.0000 C   0  0  0  0  0  0  0  0  0  0  0  0
    5.9567   -9.7076    0.0000 C   0  0  0  0  0  0  0  0  0  0  0  0
    5.5560   -9.0279    0.0000 C   0  0  0  0  0  0  0  0  0  0  0  0
    5.9419   -8.3446    0.0000 C   0  0  0  0  0  0  0  0  0  0  0  0
    6.7304   -8.3352    0.0000 C   0  0  0  0  0  0  0  0  0  0  0  0
    7.1314   -9.0148    0.0000 C   0  0  0  0  0  0  0  0  0  0  0  0
    6.7436   -9.7041    0.0000 C   0  0  0  0  0  0  0  0  0  0  0  0
    6.6108  -10.6676    0.0000 C   0  0  0  0  0  0  0  0  0  0  0  0
    6.6114   -9.0135    0.0000 C   0  0  0  0  0  0  0  0  0  0  0  0
    5.1568   -9.7112    0.0000 H   0  0  0  0  0  0  0  0  0  0  0  0
    3.1780   -7.6527    0.0000 O   0  0  0  0  0  0  0  0  0  0  0  0
    5.1583  -11.0912    0.0000 H   0  0  0  0  0  0  0  0  0  0  0  0
  7  2  2  0
  8  3  1  0
  9  4  1  0
  7  1  1  0
  9 10  1  0
  8  9  1  0
 10  6  1  0
  7  8  1  0
 10  5  2  0
 19 29  1  0
 13 24  1  0
 24 30  1  6
 29 30  1  0
 17 18  2  0
 23 31  1  6
 18 13  1  0
 17 32  1  0
 23 11  1  0
 11 19  1  0
 11 12  1  0
 19 20  1  0
 20 21  1  0
 21 22  2  0
 23 24  1  0
 13 14  2  0
 11 33  1  1
 14 15  1  0
 15 16  2  0
 14 12  1  0
 23 28  1  0
 24 25  1  0
 25 26  1  0
 26 27  1  0
 27 28  1  0
 16 17  1  0
M  END
> <chembl_id>
CHEMBL2062276

> <chembl_pref_name>
LEVALLORPHAN TARTRATE
