
     RDKit          2D

 25 26  0  0  0  0  0  0  0  0999 V2000
    0.1542    0.4375    0.0000 Cl  0  0  0  0  0  0  0  0  0  0  0  0
   -1.8458   -1.2667    0.0000 N   0  0  0  0  0  0  0  0  0  0  0  0
   -1.2333   -1.6292    0.0000 C   0  0  0  0  0  0  0  0  0  0  0  0
   -1.8458   -2.6917    0.0000 S   0  0  0  0  0  0  0  0  0  0  0  0
   -2.4583   -1.6292    0.0000 C   0  0  0  0  0  0  0  0  0  0  0  0
   -1.2333   -2.3375    0.0000 C   0  0  0  0  0  0  0  0  0  0  0  0
   -1.8458   -0.5625    0.0000 C   0  0  0  0  0  0  0  0  0  0  0  0
   -2.4583   -2.3375    0.0000 C   0  0  0  0  0  0  0  0  0  0  0  0
   -0.6208   -1.2750    0.0000 C   0  0  0  0  0  0  0  0  0  0  0  0
   -0.0083   -1.6250    0.0000 C   0  0  0  0  0  0  0  0  0  0  0  0
   -1.2333   -0.2042    0.0000 C   0  0  0  0  0  0  0  0  0  0  0  0
    0.6042   -1.2667    0.0000 C   0  0  0  0  0  0  0  0  0  0  0  0
   -1.2375    0.5000    0.0000 N   0  0  0  0  0  0  0  0  0  0  0  0
   -0.6208   -2.6917    0.0000 C   0  0  0  0  0  0  0  0  0  0  0  0
   -0.0083   -2.3375    0.0000 C   0  0  0  0  0  0  0  0  0  0  0  0
    0.6042   -0.5625    0.0000 O   0  0  0  0  0  0  0  0  0  0  0  0
   -3.0708   -1.2750    0.0000 C   0  0  0  0  0  0  0  0  0  0  0  0
   -3.0708   -2.6917    0.0000 C   0  0  0  0  0  0  0  0  0  0  0  0
    1.2167   -1.6167    0.0000 C   0  0  0  0  0  0  0  0  0  0  0  0
   -0.6250    0.8583    0.0000 C   0  0  0  0  0  0  0  0  0  0  0  0
   -1.8500    0.8583    0.0000 C   0  0  0  0  0  0  0  0  0  0  0  0
   -0.6208   -0.5625    0.0000 C   0  0  0  0  0  0  0  0  0  0  0  0
    1.8250   -1.2500    0.0000 C   0  0  0  0  0  0  0  0  0  0  0  0
   -3.6833   -1.6292    0.0000 C   0  0  0  0  0  0  0  0  0  0  0  0
   -3.6833   -2.3375    0.0000 C   0  0  0  0  0  0  0  0  0  0  0  0
  3  2  1  0
  4  8  1  0
  5  2  1  0
  6  3  2  0
  7  2  1  0
  8  5  1  0
  9  3  1  0
 10  9  2  0
 11  7  1  0
 12 10  1  0
 13 11  1  0
 14  6  1  0
 15 10  1  0
 16 12  2  0
 17  5  2  0
 18  8  2  0
 19 12  1  0
 20 13  1  0
 21 13  1  0
 22 11  1  0
 23 19  1  0
 24 17  1  0
 25 24  2  0
  4  6  1  0
 18 25  1  0
 15 14  2  0
M  END
> <chembl_id>
CHEMBL1201068

> <chembl_pref_name>
PROPIOMAZINE HYDROCHLORIDE
