
     RDKit          2D

 18 19  0  0  1  0  0  0  0  0999 V2000
   -1.0875    0.2000    0.0000 C   0  0  0  0  0  0  0  0  0  0  0  0
   -1.0875   -0.9667    0.0000 C   0  0  0  0  0  0  0  0  0  0  0  0
   -2.1083   -1.5875    0.0000 N   0  0  0  0  0  0  0  0  0  0  0  0
   -0.0708    0.7833    0.0000 N   0  0  0  0  0  0  0  0  0  0  0  0
   -3.1333    0.2000    0.0000 N   0  0  0  0  0  0  0  0  0  0  0  0
   -2.1083    0.7833    0.0000 C   0  0  0  0  0  0  0  0  0  0  0  0
   -3.1333   -0.9667    0.0000 C   0  0  0  0  0  0  0  0  0  0  0  0
    0.9542    0.2000    0.0000 C   0  0  0  0  0  0  0  0  0  0  0  0
   -0.0708   -1.5875    0.0000 N   0  0  0  0  0  0  0  0  0  0  0  0
    2.3375    0.2000    0.0000 C   0  0  0  0  0  0  0  0  0  0  0  0
    0.9542   -0.9667    0.0000 C   0  0  0  0  0  0  0  0  0  0  0  0
   -2.1083    1.9833    0.0000 O   0  0  0  0  0  0  0  0  0  0  0  0
   -4.1833   -1.5542    0.0000 N   0  0  0  0  0  0  0  0  0  0  0  0
    2.7917   -0.7667    0.0000 C   0  0  0  0  0  0  0  0  0  0  0  0
    3.7542    0.8000    0.0000 O   0  0  0  0  0  0  0  0  0  0  0  0
    1.9375   -1.7542    0.0000 O   0  0  0  0  0  0  0  0  0  0  0  0
    4.3417   -0.7667    0.0000 C   0  0  0  0  0  0  0  0  0  0  0  0
    0.0897   -0.3027    0.0000 H   0  0  0  0  0  0  0  0  0  0  0  0
  2  1  2  0
  3  2  1  0
  4  1  1  0
  5  6  1  0
  6  1  1  0
  7  5  1  0
  8  4  1  0
  9  2  1  0
 10  8  1  0
 11  8  1  0
 12  6  2  0
 13  7  1  0
 14 10  1  0
 10 15  1  1
 14 16  1  6
 17 14  1  0
  3  7  2  0
  9 11  1  0
  8 18  1  6
M  END
> <chembl_id>
CHEMBL1201774

> <chembl_pref_name>
SAPROPTERIN
