
     RDKit          2D

 33 36  0  0  0  0  0  0  0  0999 V2000
   -6.6000   -3.9482    0.0000 N   0  0  0  0  0  0  0  0  0  0  0  0
   -7.3145   -4.3607    0.0000 C   0  0  0  0  0  0  0  0  0  0  0  0
   -7.3145   -5.1857    0.0000 C   0  0  0  0  0  0  0  0  0  0  0  0
   -6.6000   -5.5982    0.0000 N   0  0  0  0  0  0  0  0  0  0  0  0
   -5.8855   -5.1857    0.0000 C   0  0  0  0  0  0  0  0  0  0  0  0
   -5.8855   -4.3607    0.0000 C   0  0  0  0  0  0  0  0  0  0  0  0
   -5.1710   -5.5982    0.0000 C   0  0  0  0  0  0  0  0  0  0  0  0
   -4.4565   -5.1857    0.0000 C   0  0  0  0  0  0  0  0  0  0  0  0
   -4.4565   -4.3606    0.0000 C   0  0  0  0  0  0  0  0  0  0  0  0
   -5.1710   -3.9482    0.0000 C   0  0  0  0  0  0  0  0  0  0  0  0
   -8.0290   -3.9482    0.0000 C   0  0  0  0  0  0  0  0  0  0  0  0
   -8.1152   -3.1277    0.0000 C   0  0  0  0  0  0  0  0  0  0  0  0
   -8.9221   -2.9562    0.0000 N   0  0  0  0  0  0  0  0  0  0  0  0
   -9.3346   -3.6707    0.0000 N   0  0  0  0  0  0  0  0  0  0  0  0
   -8.7827   -4.2837    0.0000 C   0  0  0  0  0  0  0  0  0  0  0  0
   -3.7421   -3.9481    0.0000 N   0  0  0  0  0  0  0  0  0  0  0  0
   -3.7421   -3.1231    0.0000 C   0  0  0  0  0  0  0  0  0  0  0  0
   -3.0276   -4.3606    0.0000 C   0  0  0  0  0  0  0  0  0  0  0  0
   -3.0276   -2.7106    0.0000 C   0  0  0  0  0  0  0  0  0  0  0  0
   -3.0276   -1.8856    0.0000 C   0  0  0  0  0  0  0  0  0  0  0  0
   -3.7421   -1.4731    0.0000 C   0  0  0  0  0  0  0  0  0  0  0  0
   -4.4566   -1.8856    0.0000 C   0  0  0  0  0  0  0  0  0  0  0  0
   -4.4566   -2.7106    0.0000 C   0  0  0  0  0  0  0  0  0  0  0  0
   -2.3131   -3.9481    0.0000 C   0  0  0  0  0  0  0  0  0  0  0  0
   -1.5987   -4.3606    0.0000 N   0  0  0  0  0  0  0  0  0  0  0  0
   -0.8842   -3.9481    0.0000 C   0  0  0  0  0  0  0  0  0  0  0  0
   -0.1697   -4.3606    0.0000 C   0  0  0  0  0  0  0  0  0  0  0  0
   -0.8842   -3.1231    0.0000 C   0  0  0  0  0  0  0  0  0  0  0  0
   -2.3131   -1.4731    0.0000 O   0  0  0  0  0  0  0  0  0  0  0  0
   -2.3131   -0.6481    0.0000 C   0  0  0  0  0  0  0  0  0  0  0  0
   -5.1711   -1.4731    0.0000 O   0  0  0  0  0  0  0  0  0  0  0  0
   -5.8855   -1.8856    0.0000 C   0  0  0  0  0  0  0  0  0  0  0  0
  -10.1551   -3.7569    0.0000 C   0  0  0  0  0  0  0  0  0  0  0  0
  1  2  1  0
  1  6  2  0
  2  3  2  0
  3  4  1  0
  4  5  2  0
  5  7  1  0
  5  6  1  0
  6 10  1  0
  7  8  2  0
  8  9  1  0
  9 10  2  0
  2 11  1  0
 11 12  1  0
 11 15  2  0
 12 13  2  0
 13 14  1  0
 14 15  1  0
  9 16  1  0
 16 17  1  0
 16 18  1  0
 17 19  1  0
 17 23  2  0
 19 20  2  0
 20 21  1  0
 21 22  2  0
 22 23  1  0
 18 24  1  0
 24 25  1  0
 25 26  1  0
 26 27  1  0
 26 28  1  0
 20 29  1  0
 29 30  1  0
 22 31  1  0
 31 32  1  0
 14 33  1  0
M  END
> <chembl_id>
CHEMBL3545376

> <chembl_pref_name>
ERDAFITINIB
