
     RDKit          2D

 16 12  0  0  0  0  0  0  0  0999 V2000
    1.2581    1.4639    0.0000 Na  0  0  0  0  0 15  0  0  0  0  0  0
    2.4508   -0.1124    0.0000 Na  0  0  0  0  0 15  0  0  0  0  0  0
   -2.4508   -1.1209    0.0000 Na  0  0  0  0  0 15  0  0  0  0  0  0
    1.0068   -0.3020    0.0000 C   0  0  0  0  0  0  0  0  0  0  0  0
    0.5943    0.4125    0.0000 C   0  0  0  0  0  0  0  0  0  0  0  0
   -0.2307    0.4125    0.0000 C   0  0  0  0  0  0  0  0  0  0  0  0
   -1.0557    0.4125    0.0000 O   0  0  0  0  0  0  0  0  0  0  0  0
   -0.2307    1.2375    0.0000 C   0  0  0  0  0  0  0  0  0  0  0  0
   -0.2307   -0.4125    0.0000 C   0  0  0  0  0  0  0  0  0  0  0  0
   -0.9452   -0.8250    0.0000 C   0  0  0  0  0  0  0  0  0  0  0  0
    0.5943   -1.0164    0.0000 O   0  0  0  0  0  0  0  0  0  0  0  0
    1.8318   -0.3020    0.0000 O   0  0  0  0  0  0  0  0  0  0  0  0
   -0.9452    1.6500    0.0000 O   0  0  0  0  0  0  0  0  0  0  0  0
    0.4838    1.6500    0.0000 O   0  0  0  0  0  0  0  0  0  0  0  0
   -0.9452   -1.6500    0.0000 O   0  0  0  0  0  0  0  0  0  0  0  0
   -1.6596   -0.4125    0.0000 O   0  0  0  0  0  0  0  0  0  0  0  0
  4  5  1  0
  5  6  1  0
  6  7  1  0
  6  8  1  0
  6  9  1  0
  9 10  1  0
  4 11  2  0
  4 12  1  0
  8 13  2  0
  8 14  1  0
 10 15  2  0
 10 16  1  0
M  CHG  6   1   1   2   1   3   1  12  -1  14  -1  16  -1
M  END
> <chembl_id>
CHEMBL1355

> <chembl_pref_name>
SODIUM CITRATE
