
     RDKit          2D

 48 47  0  0  0  0  0  0  0  0999 V2000
   14.0671  -12.7001    0.0000 N   0  0  0  0  0  0  0  0  0  0  0  0
   16.9309  -12.6999    0.0000 O   0  0  0  0  0  0  0  0  0  0  0  0
   15.5038  -12.7000    0.0000 C   0  0  0  0  0  0  0  0  0  0  0  0
   17.6420  -13.1208    0.0000 C   0  0  0  0  0  0  0  0  0  0  0  0
   14.7831  -13.1162    0.0000 C   0  0  0  0  0  0  0  0  0  0  0  0
   16.2149  -13.1161    0.0000 C   0  0  0  0  0  0  0  0  0  0  0  0
   19.0788  -13.9479    0.0000 C   0  0  0  0  0  0  0  0  0  0  0  0
   17.6421  -13.9480    0.0000 C   0  0  0  0  0  0  0  0  0  0  0  0
   18.3627  -12.7241    0.0000 C   0  0  0  0  0  0  0  0  0  0  0  0
   18.3628  -14.3495    0.0000 C   0  0  0  0  0  0  0  0  0  0  0  0
   19.0739  -13.1207    0.0000 C   0  0  0  0  0  0  0  0  0  0  0  0
   15.5038  -11.8873    0.0000 O   0  0  0  0  0  0  0  0  0  0  0  0
   13.3464  -13.1163    0.0000 C   0  0  0  0  0  0  0  0  0  0  0  0
   21.2363  -14.3396    0.0000 O   0  0  0  0  0  0  0  0  0  0  0  0
   19.7996  -14.3397    0.0000 C   0  0  0  0  0  0  0  0  0  0  0  0
   20.5252  -13.9430    0.0000 C   0  0  0  0  0  0  0  0  0  0  0  0
   21.9474  -13.9187    0.0000 C   0  0  0  0  0  0  0  0  0  0  0  0
   12.6207  -12.7002    0.0000 C   0  0  0  0  0  0  0  0  0  0  0  0
   13.3416  -13.9337    0.0000 C   0  0  0  0  0  0  0  0  0  0  0  0
   14.2935  -10.0881    0.0000 N   0  0  0  0  0  0  0  0  0  0  0  0
   17.1573  -10.0879    0.0000 O   0  0  0  0  0  0  0  0  0  0  0  0
   15.7302  -10.0880    0.0000 C   0  0  0  0  0  0  0  0  0  0  0  0
   17.8684  -10.5088    0.0000 C   0  0  0  0  0  0  0  0  0  0  0  0
   15.0095  -10.5042    0.0000 C   0  0  0  0  0  0  0  0  0  0  0  0
   16.4413  -10.5041    0.0000 C   0  0  0  0  0  0  0  0  0  0  0  0
   19.3052  -11.3359    0.0000 C   0  0  0  0  0  0  0  0  0  0  0  0
   17.8685  -11.3360    0.0000 C   0  0  0  0  0  0  0  0  0  0  0  0
   18.5891  -10.1121    0.0000 C   0  0  0  0  0  0  0  0  0  0  0  0
   18.5892  -11.7375    0.0000 C   0  0  0  0  0  0  0  0  0  0  0  0
   19.3003  -10.5087    0.0000 C   0  0  0  0  0  0  0  0  0  0  0  0
   15.7302   -9.2753    0.0000 O   0  0  0  0  0  0  0  0  0  0  0  0
   13.5728  -10.5043    0.0000 C   0  0  0  0  0  0  0  0  0  0  0  0
   21.4627  -11.7276    0.0000 O   0  0  0  0  0  0  0  0  0  0  0  0
   20.0260  -11.7277    0.0000 C   0  0  0  0  0  0  0  0  0  0  0  0
   20.7516  -11.3310    0.0000 C   0  0  0  0  0  0  0  0  0  0  0  0
   22.1738  -11.3067    0.0000 C   0  0  0  0  0  0  0  0  0  0  0  0
   12.8471  -10.0882    0.0000 C   0  0  0  0  0  0  0  0  0  0  0  0
   13.5680  -11.3217    0.0000 C   0  0  0  0  0  0  0  0  0  0  0  0
    8.2940  -10.2966    0.0000 O   0  0  0  0  0  0  0  0  0  0  0  0
    9.0111  -11.5349    0.0000 O   0  0  0  0  0  0  0  0  0  0  0  0
   11.8744  -10.7075    0.0000 O   0  0  0  0  0  0  0  0  0  0  0  0
   11.1573   -9.4692    0.0000 O   0  0  0  0  0  0  0  0  0  0  0  0
    9.7280   -9.4693    0.0000 O   0  0  0  0  0  0  0  0  0  0  0  0
   10.4404  -11.5348    0.0000 O   0  0  0  0  0  0  0  0  0  0  0  0
    9.0125  -10.7083    0.0000 C   0  0  0  0  0  0  0  0  0  0  0  0
    9.7270  -10.2958    0.0000 C   0  0  0  0  0  0  0  0  0  0  0  0
   10.4414  -10.7083    0.0000 C   0  0  0  0  0  0  0  0  0  0  0  0
   11.1559  -10.2958    0.0000 C   0  0  0  0  0  0  0  0  0  0  0  0
 10  8  2  0
 11  9  1  0
 12  3  1  0
 13  1  1  0
 14 16  1  0
 15  7  1  0
 16 15  1  0
 17 14  1  0
 18 13  1  0
 19 13  1  0
  7 10  1  0
  2  6  1  0
  3  5  1  0
  4  2  1  0
  5  1  1  0
  6  3  1  0
  7 11  2  0
  8  4  1  0
  9  4  2  0
 29 27  2  0
 30 28  1  0
 31 22  1  0
 32 20  1  0
 33 35  1  0
 34 26  1  0
 35 34  1  0
 36 33  1  0
 37 32  1  0
 38 32  1  0
 26 29  1  0
 21 25  1  0
 22 24  1  0
 23 21  1  0
 24 20  1  0
 25 22  1  0
 26 30  2  0
 27 23  1  0
 28 23  2  0
 45 40  2  0
 46 43  1  0
 47 44  1  0
 45 39  1  0
 47 48  1  0
 46 47  1  0
 48 41  1  0
 45 46  1  0
 48 42  2  0
M  END
> <chembl_id>
CHEMBL2062335

> <chembl_pref_name>
METOPROLOL TARTRATE
