
     RDKit          2D

101106  0  0  1  0  0  0  0  0999 V2000
   12.6083   -9.9375    0.0000 N   0  0  0  0  0  0  0  0  0  0  0  0
   11.9958  -10.2958    0.0000 C   0  0  0  0  0  0  0  0  0  0  0  0
    4.6292  -10.2958    0.0000 C   0  0  0  0  0  0  0  0  0  0  0  0
    5.2417   -9.9375    0.0000 N   0  0  0  0  0  0  0  0  0  0  0  0
    6.4708   -9.9375    0.0000 C   0  0  0  0  0  0  0  0  0  0  0  0
   13.1792  -11.0625    0.0000 C   0  0  0  0  0  0  0  0  0  0  0  0
    4.0125   -9.9416    0.0000 C   0  0  0  0  0  0  0  0  0  0  0  0
    5.8542  -10.2958    0.0000 C   0  0  0  0  0  0  0  0  0  0  0  0
   13.1833  -10.3583    0.0000 C   0  0  0  0  0  0  0  0  0  0  0  0
    2.7875   -9.9375    0.0000 C   0  0  0  0  0  0  0  0  0  0  0  0
    8.3125  -10.2958    0.0000 C   0  0  0  0  0  0  0  0  0  0  0  0
    0.9500  -10.2958    0.0000 C   0  0  0  0  0  0  0  0  0  0  0  0
   10.1542   -9.9375    0.0000 C   0  0  0  0  0  0  0  0  0  0  0  0
   -0.8917   -9.9541    0.0000 C   0  0  0  0  0  0  0  0  0  0  0  0
    3.4000  -10.2958    0.0000 N   0  0  0  0  0  0  0  0  0  0  0  0
    7.0833  -10.2958    0.0000 N   0  0  0  0  0  0  0  0  0  0  0  0
   -0.2750  -10.3041    0.0000 N   0  0  0  0  0  0  0  0  0  0  0  0
    8.9250   -9.9375    0.0000 N   0  0  0  0  0  0  0  0  0  0  0  0
    1.5625   -9.9375    0.0000 N   0  0  0  0  0  0  0  0  0  0  0  0
   10.7667  -10.2958    0.0000 N   0  0  0  0  0  0  0  0  0  0  0  0
   13.7875  -11.4208    0.0000 N   0  0  0  0  0  0  0  0  0  0  0  0
    7.6958   -9.9416    0.0000 C   0  0  0  0  0  0  0  0  0  0  0  0
    7.6958   -9.2333    0.0000 C   0  0  0  0  0  0  0  0  0  0  0  0
    2.1708  -10.2958    0.0000 C   0  0  0  0  0  0  0  0  0  0  0  0
    0.3333   -9.9458    0.0000 C   0  0  0  0  0  0  0  0  0  0  0  0
    9.5375  -10.2958    0.0000 C   0  0  0  0  0  0  0  0  0  0  0  0
   11.3792   -9.9416    0.0000 C   0  0  0  0  0  0  0  0  0  0  0  0
   -1.5042  -10.3125    0.0000 C   0  0  0  0  0  0  0  0  0  0  0  0
   15.0167  -11.4291    0.0000 C   0  0  0  0  0  0  0  0  0  0  0  0
   -1.4958  -11.0208    0.0000 N   0  0  0  0  0  0  0  0  0  0  0  0
    8.3125   -8.8791    0.0000 C   0  0  0  0  0  0  0  0  0  0  0  0
   -0.8833  -11.3708    0.0000 C   0  0  0  0  0  0  0  0  0  0  0  0
   14.4042  -11.0708    0.0000 C   0  0  0  0  0  0  0  0  0  0  0  0
   11.9958  -11.0041    0.0000 O   0  0  0  0  0  0  0  0  0  0  0  0
    4.6292  -11.0041    0.0000 O   0  0  0  0  0  0  0  0  0  0  0  0
    5.8542  -11.0000    0.0000 C   0  0  0  0  0  0  0  0  0  0  0  0
    6.4708   -9.2333    0.0000 O   0  0  0  0  0  0  0  0  0  0  0  0
   12.5625  -11.4166    0.0000 O   0  0  0  0  0  0  0  0  0  0  0  0
   -2.1167   -9.9625    0.0000 C   0  0  0  0  0  0  0  0  0  0  0  0
   10.1542   -9.2333    0.0000 O   0  0  0  0  0  0  0  0  0  0  0  0
   -0.8958   -9.2458    0.0000 O   0  0  0  0  0  0  0  0  0  0  0  0
    0.9542  -11.0041    0.0000 O   0  0  0  0  0  0  0  0  0  0  0  0
    8.3125  -11.0041    0.0000 O   0  0  0  0  0  0  0  0  0  0  0  0
    2.7875   -9.2333    0.0000 O   0  0  0  0  0  0  0  0  0  0  0  0
   -3.9542  -10.3291    0.0000 C   0  0  0  0  0  0  0  0  0  0  0  0
    0.3292   -9.2375    0.0000 C   0  0  0  0  0  0  0  0  0  0  0  0
   -2.7292  -10.3208    0.0000 C   0  0  0  0  0  0  0  0  0  0  0  0
    2.1708  -11.0000    0.0000 C   0  0  0  0  0  0  0  0  0  0  0  0
   -3.3458   -9.9708    0.0000 C   0  0  0  0  0  0  0  0  0  0  0  0
   15.0125  -12.1375    0.0000 O   0  0  0  0  0  0  0  0  0  0  0  0
    9.5375  -11.0000    0.0000 C   0  0  0  0  0  0  0  0  0  0  0  0
    3.4000  -12.4208    0.0000 N   0  0  0  0  0  0  0  0  0  0  0  0
    8.3125   -8.1708    0.0000 O   0  0  0  0  0  0  0  0  0  0  0  0
   -0.8792  -12.0791    0.0000 O   0  0  0  0  0  0  0  0  0  0  0  0
   -3.9542  -11.0375    0.0000 C   0  0  0  0  0  0  0  0  0  0  0  0
   -3.3375  -11.3916    0.0000 C   0  0  0  0  0  0  0  0  0  0  0  0
   15.6292  -11.0791    0.0000 N   0  0  0  0  0  0  0  0  0  0  0  0
   12.8292   -9.2666    0.0000 C   0  0  0  0  0  0  0  0  0  0  0  0
    8.9250   -9.2333    0.0000 N   0  0  0  0  0  0  0  0  0  0  0  0
    6.4708  -11.3583    0.0000 C   0  0  0  0  0  0  0  0  0  0  0  0
    0.9417   -8.8791    0.0000 C   0  0  0  0  0  0  0  0  0  0  0  0
   -2.7250  -11.0333    0.0000 C   0  0  0  0  0  0  0  0  0  0  0  0
    2.1625   -8.1666    0.0000 C   0  0  0  0  0  0  0  0  0  0  0  0
    7.6958  -12.0625    0.0000 C   0  0  0  0  0  0  0  0  0  0  0  0
    4.0125   -9.2333    0.0000 C   0  0  0  0  0  0  0  0  0  0  0  0
    2.7875  -11.3583    0.0000 C   0  0  0  0  0  0  0  0  0  0  0  0
   12.6083   -7.1083    0.0000 N   0  0  0  0  0  0  0  0  0  0  0  0
    5.2417   -9.2333    0.0000 C   0  0  0  0  0  0  0  0  0  0  0  0
    2.7708   -7.8083    0.0000 Cl  0  0  0  0  0  0  0  0  0  0  0  0
    6.4708  -12.0625    0.0000 C   0  0  0  0  0  0  0  0  0  0  0  0
    1.5542   -9.2333    0.0000 C   0  0  0  0  0  0  0  0  0  0  0  0
    7.0833  -11.0000    0.0000 C   0  0  0  0  0  0  0  0  0  0  0  0
    0.9333   -8.1750    0.0000 C   0  0  0  0  0  0  0  0  0  0  0  0
    1.5417   -7.8166    0.0000 C   0  0  0  0  0  0  0  0  0  0  0  0
    2.1667   -8.8750    0.0000 C   0  0  0  0  0  0  0  0  0  0  0  0
    7.6958  -11.3583    0.0000 C   0  0  0  0  0  0  0  0  0  0  0  0
    7.0833  -12.4208    0.0000 C   0  0  0  0  0  0  0  0  0  0  0  0
   13.7542   -9.9375    0.0000 C   0  0  0  0  0  0  0  0  0  0  0  0
    8.3125  -12.4208    0.0000 O   0  0  0  0  0  0  0  0  0  0  0  0
    4.6292   -8.8791    0.0000 O   0  0  0  0  0  0  0  0  0  0  0  0
    2.7875  -12.0625    0.0000 C   0  0  0  0  0  0  0  0  0  0  0  0
   13.5375   -9.2666    0.0000 C   0  0  0  0  0  0  0  0  0  0  0  0
   11.3792   -9.2333    0.0000 C   0  0  0  0  0  0  0  0  0  0  0  0
   10.1542  -11.3583    0.0000 C   0  0  0  0  0  0  0  0  0  0  0  0
   -0.2708  -11.0125    0.0000 C   0  0  0  0  0  0  0  0  0  0  0  0
    4.0125  -12.0625    0.0000 C   0  0  0  0  0  0  0  0  0  0  0  0
   13.2208   -6.7541    0.0000 C   0  0  0  0  0  0  0  0  0  0  0  0
   14.4083  -10.3625    0.0000 C   0  0  0  0  0  0  0  0  0  0  0  0
   -4.5667   -9.9750    0.0000 C   0  0  0  0  0  0  0  0  0  0  0  0
   12.6083   -7.8166    0.0000 C   0  0  0  0  0  0  0  0  0  0  0  0
   -4.5667  -11.3958    0.0000 C   0  0  0  0  0  0  0  0  0  0  0  0
    3.4000  -11.0000    0.0000 C   0  0  0  0  0  0  0  0  0  0  0  0
   11.9958   -8.8791    0.0000 C   0  0  0  0  0  0  0  0  0  0  0  0
   11.9958   -8.1708    0.0000 C   0  0  0  0  0  0  0  0  0  0  0  0
   10.1542  -12.0625    0.0000 C   0  0  0  0  0  0  0  0  0  0  0  0
   10.7667  -11.0000    0.0000 C   0  0  0  0  0  0  0  0  0  0  0  0
   13.2208   -6.0458    0.0000 C   0  0  0  0  0  0  0  0  0  0  0  0
   13.8333   -7.1083    0.0000 C   0  0  0  0  0  0  0  0  0  0  0  0
    4.0125  -11.3583    0.0000 C   0  0  0  0  0  0  0  0  0  0  0  0
   -5.1792  -10.3333    0.0000 C   0  0  0  0  0  0  0  0  0  0  0  0
   -5.1792  -11.0416    0.0000 C   0  0  0  0  0  0  0  0  0  0  0  0
  2  1  1  0
  3  4  1  0
  4  8  1  0
  5 16  1  0
  9  6  1  1
  7  3  1  0
  8  5  1  0
  9  1  1  0
 10 15  1  0
 11 18  1  0
 12 19  1  0
 13 20  1  0
 14 17  1  0
  7 15  1  1
 22 16  1  6
 25 17  1  6
 26 18  1  6
 24 19  1  1
 27 20  1  1
 21  6  1  0
 22 11  1  0
 22 23  1  0
 24 10  1  0
 25 12  1  0
 26 13  1  0
 27  2  1  0
 28 14  1  0
 29 33  1  0
 28 30  1  6
 31 23  1  0
 32 30  1  0
 33 21  1  0
 34  2  2  0
 35  3  2  0
  8 36  1  6
 37  5  2  0
 38  6  2  0
 39 28  1  0
 40 13  2  0
 41 14  2  0
 42 12  2  0
 43 11  2  0
 44 10  2  0
 45 49  1  0
 25 46  1  0
 47 39  1  0
 24 48  1  0
 49 47  2  0
 50 29  2  0
 26 51  1  0
 52 81  2  0
 53 31  2  0
 54 32  2  0
 55 45  1  0
 56 62  2  0
 57 29  1  0
 58  1  1  0
 59 31  1  0
 60 36  1  0
 61 46  1  0
 62 47  1  0
 63 74  1  0
 64 76  2  0
  7 65  1  0
 66 48  1  0
 67 90  1  0
 68  4  1  0
 69 63  1  0
 70 60  1  0
 71 61  2  0
 72 60  2  0
 73 61  1  0
 74 73  2  0
 75 71  1  0
 76 72  1  0
 77 70  2  0
 78  9  1  0
 79 64  1  0
 80 65  1  0
 81 66  1  0
 82 58  1  0
 27 83  1  0
 84 51  1  0
 85 32  1  0
 86 99  2  0
 87 67  1  0
 33 88  1  6
 89 45  2  0
 90 94  1  0
 91 55  2  0
 92 66  2  0
 93 83  1  0
 94 93  1  0
 95 84  1  0
 96 84  1  0
 97 87  1  0
 98 87  1  0
 99 92  1  0
100 89  1  0
101 91  1  0
 78 82  1  0
 64 77  1  0
 86 52  1  0
 63 75  2  0
 56 55  1  0
101100  2  0
M  END
> <chembl_id>
CHEMBL1252

> <chembl_pref_name>
ABARELIX
