
     RDKit          2D

 26 27  0  0  0  0  0  0  0  0999 V2000
    1.0250   -6.7500    0.0000 Br  0  0  0  0  0  0  0  0  0  0  0  0
    3.5500   -8.1417    0.0000 C   0  0  0  0  0  0  0  0  0  0  0  0
    3.5500   -9.5667    0.0000 O   0  0  0  0  0  0  0  0  0  0  0  0
    4.1375   -8.5042    0.0000 C   0  0  0  0  0  0  0  0  0  0  0  0
    2.9250   -8.5125    0.0000 C   0  0  0  0  0  0  0  0  0  0  0  0
    4.1375   -9.2167    0.0000 C   0  0  0  0  0  0  0  0  0  0  0  0
    2.9250   -9.2167    0.0000 C   0  0  0  0  0  0  0  0  0  0  0  0
    3.5542   -7.4375    0.0000 C   0  0  0  0  0  0  0  0  0  0  0  0
    1.1292   -7.5792    0.0000 N   0  0  0  0  0  0  0  0  0  0  0  0
    4.1667   -7.0792    0.0000 O   0  0  0  0  0  0  0  0  0  0  0  0
    2.9542   -7.1167    0.0000 O   0  0  0  0  0  0  0  0  0  0  0  0
    2.3417   -7.5000    0.0000 C   0  0  0  0  0  0  0  0  0  0  0  0
    2.3042   -8.1500    0.0000 C   0  0  0  0  0  0  0  0  0  0  0  0
    4.7542   -8.1542    0.0000 C   0  0  0  0  0  0  0  0  0  0  0  0
    1.7167   -7.1917    0.0000 C   0  0  0  0  0  0  0  0  0  0  0  0
    2.3042   -9.5750    0.0000 C   0  0  0  0  0  0  0  0  0  0  0  0
    4.7625   -9.5667    0.0000 C   0  0  0  0  0  0  0  0  0  0  0  0
    0.7667   -8.1917    0.0000 C   0  0  0  0  0  0  0  0  0  0  0  0
    0.4917   -7.2667    0.0000 C   0  0  0  0  0  0  0  0  0  0  0  0
    1.4792   -8.1917    0.0000 C   0  0  0  0  0  0  0  0  0  0  0  0
    0.0625   -8.1875    0.0000 C   0  0  0  0  0  0  0  0  0  0  0  0
   -0.0958   -7.6542    0.0000 C   0  0  0  0  0  0  0  0  0  0  0  0
    1.6917   -8.5042    0.0000 C   0  0  0  0  0  0  0  0  0  0  0  0
    5.3667   -8.5042    0.0000 C   0  0  0  0  0  0  0  0  0  0  0  0
    5.3667   -9.2167    0.0000 C   0  0  0  0  0  0  0  0  0  0  0  0
    1.6917   -9.2167    0.0000 C   0  0  0  0  0  0  0  0  0  0  0  0
  3  7  1  0
  4  2  1  0
  5  2  1  0
  6  4  2  0
  7  5  2  0
  8  2  1  0
  9 15  1  0
 10  8  2  0
 11  8  1  0
 12 11  1  0
 13  5  1  0
 14  4  1  0
 15 12  1  0
 16  7  1  0
 17  6  1  0
 18  9  1  0
 19  9  1  0
 20  9  1  0
 21 18  1  0
 22 19  1  0
 23 13  2  0
 24 14  2  0
 25 24  1  0
 26 23  1  0
  3  6  1  0
 26 16  2  0
 25 17  2  0
M  CHG  2   1  -1   9   1
M  END
> <chembl_id>
CHEMBL1200988

> <chembl_pref_name>
METHANTHELINE BROMIDE
