
     RDKit          2D

 23 25  0  0  1  0  0  0  0  0999 V2000
   -0.9583   -1.5167    0.0000 C   0  0  0  0  0  0  0  0  0  0  0  0
   -1.6708   -1.3042    0.0000 N   0  0  0  0  0  0  0  0  0  0  0  0
   -0.9583   -0.3792    0.0000 N   0  0  0  0  0  0  0  0  0  0  0  0
   -0.5708   -0.9750    0.0000 C   0  0  0  0  0  0  0  0  0  0  0  0
   -1.6708   -0.5792    0.0000 C   0  0  0  0  0  0  0  0  0  0  0  0
   -0.9500   -2.2500    0.0000 C   0  0  0  0  0  0  0  0  0  0  0  0
   -0.3375   -2.5875    0.0000 C   0  0  0  0  0  0  0  0  0  0  0  0
   -2.2875   -1.6667    0.0000 C   0  0  0  0  0  0  0  0  0  0  0  0
   -2.2875   -0.2292    0.0000 C   0  0  0  0  0  0  0  0  0  0  0  0
    0.1292   -0.9750    0.0000 C   0  0  0  0  0  0  0  0  0  0  0  0
   -2.9083   -1.3042    0.0000 C   0  0  0  0  0  0  0  0  0  0  0  0
   -2.9083   -0.5792    0.0000 C   0  0  0  0  0  0  0  0  0  0  0  0
   -0.3375   -3.3000    0.0000 N   0  0  0  0  0  0  0  0  0  0  0  0
    0.2625   -2.2417    0.0000 O   0  0  0  0  0  0  0  0  0  0  0  0
    0.4917   -0.3542    0.0000 C   0  0  0  0  0  0  0  0  0  0  0  0
    0.4917   -1.6000    0.0000 C   0  0  0  0  0  0  0  0  0  0  0  0
    1.2125   -0.3542    0.0000 C   0  0  0  0  0  0  0  0  0  0  0  0
    1.2125   -1.6000    0.0000 C   0  0  0  0  0  0  0  0  0  0  0  0
    1.5667   -1.0000    0.0000 C   0  0  0  0  0  0  0  0  0  0  0  0
   -3.5125   -1.6542    0.0000 C   0  0  0  0  0  0  0  0  0  0  0  0
    0.2625   -3.6417    0.0000 C   0  0  0  0  0  0  0  0  0  0  0  0
   -0.9500   -3.6417    0.0000 C   0  0  0  0  0  0  0  0  0  0  0  0
    2.2792   -1.0000    0.0000 C   0  0  0  0  0  0  0  0  0  0  0  0
  2  1  1  0
  3  4  1  0
  4  1  2  0
  5  2  1  0
  6  1  1  0
  7  6  1  0
  8  2  1  0
  9  5  1  0
 10  4  1  0
 11  8  2  0
 12 11  1  0
 13  7  1  0
 14  7  2  0
 15 10  2  0
 16 10  1  0
 17 15  1  0
 18 16  2  0
 19 18  1  0
 20 11  1  0
 21 13  1  0
 22 13  1  0
 23 19  1  0
  3  5  2  0
  9 12  2  0
 17 19  2  0
M  END
> <chembl_id>
CHEMBL911

> <chembl_pref_name>
ZOLPIDEM
