
     RDKit          2D

152152  0  0  0  0  0  0  0  0999 V2000
  -13.7304  -22.0982    0.0000 Na  0  0  0  0  0 15  0  0  0  0  0  0
  -14.3786  -20.3009    0.0000 C   0  0  0  0  0  0  0  0  0  0  0  0
  -14.7911  -19.5864    0.0000 C   0  0  0  0  0  0  0  0  0  0  0  0
  -15.6161  -19.5864    0.0000 C   0  0  0  0  0  0  0  0  0  0  0  0
  -16.0286  -20.3009    0.0000 C   0  0  0  0  0  0  0  0  0  0  0  0
  -15.6161  -21.0154    0.0000 O   0  0  0  0  0  0  0  0  0  0  0  0
  -14.7911  -21.0154    0.0000 C   0  0  0  0  0  0  0  0  0  0  0  0
  -16.8536  -20.3009    0.0000 O   0  0  0  0  0  0  0  0  0  0  0  0
  -13.5536  -20.3009    0.0000 O   0  0  0  0  0  0  0  0  0  0  0  0
  -17.4370  -19.7175    0.0000 C   0  0  0  0  0  0  0  0  0  0  0  0
  -12.9702  -19.7175    0.0000 C   0  0  0  0  0  0  0  0  0  0  0  0
  -17.2234  -18.9206    0.0000 C   0  0  0  0  0  0  0  0  0  0  0  0
  -17.8068  -18.3373    0.0000 C   0  0  0  0  0  0  0  0  0  0  0  0
  -18.6037  -18.5508    0.0000 C   0  0  0  0  0  0  0  0  0  0  0  0
  -18.8172  -19.3477    0.0000 O   0  0  0  0  0  0  0  0  0  0  0  0
  -18.2338  -19.9310    0.0000 C   0  0  0  0  0  0  0  0  0  0  0  0
  -12.1733  -19.9310    0.0000 O   0  0  0  0  0  0  0  0  0  0  0  0
  -11.5899  -19.3477    0.0000 C   0  0  0  0  0  0  0  0  0  0  0  0
  -11.8034  -18.5508    0.0000 C   0  0  0  0  0  0  0  0  0  0  0  0
  -12.6003  -18.3373    0.0000 C   0  0  0  0  0  0  0  0  0  0  0  0
  -13.1837  -18.9206    0.0000 C   0  0  0  0  0  0  0  0  0  0  0  0
  -10.7930  -19.5612    0.0000 C   0  0  0  0  0  0  0  0  0  0  0  0
  -11.2201  -17.9674    0.0000 O   0  0  0  0  0  0  0  0  0  0  0  0
  -11.2201  -17.1424    0.0000 C   0  0  0  0  0  0  0  0  0  0  0  0
  -10.5056  -16.7299    0.0000 O   0  0  0  0  0  0  0  0  0  0  0  0
  -10.5056  -15.9049    0.0000 C   0  0  0  0  0  0  0  0  0  0  0  0
  -11.2201  -15.4924    0.0000 C   0  0  0  0  0  0  0  0  0  0  0  0
  -11.9345  -15.9049    0.0000 C   0  0  0  0  0  0  0  0  0  0  0  0
  -11.9345  -16.7299    0.0000 C   0  0  0  0  0  0  0  0  0  0  0  0
  -11.2201  -14.6674    0.0000 O   0  0  0  0  0  0  0  0  0  0  0  0
  -11.8034  -14.0840    0.0000 C   0  0  0  0  0  0  0  0  0  0  0  0
  -11.5899  -13.2871    0.0000 O   0  0  0  0  0  0  0  0  0  0  0  0
  -12.1733  -12.7037    0.0000 C   0  0  0  0  0  0  0  0  0  0  0  0
  -12.9702  -12.9173    0.0000 C   0  0  0  0  0  0  0  0  0  0  0  0
  -13.1837  -13.7142    0.0000 C   0  0  0  0  0  0  0  0  0  0  0  0
  -12.6003  -14.2975    0.0000 C   0  0  0  0  0  0  0  0  0  0  0  0
  -13.5536  -12.3339    0.0000 O   0  0  0  0  0  0  0  0  0  0  0  0
  -14.3786  -12.3339    0.0000 C   0  0  0  0  0  0  0  0  0  0  0  0
  -14.7911  -11.6194    0.0000 O   0  0  0  0  0  0  0  0  0  0  0  0
  -15.6161  -11.6194    0.0000 C   0  0  0  0  0  0  0  0  0  0  0  0
  -16.0286  -12.3339    0.0000 C   0  0  0  0  0  0  0  0  0  0  0  0
  -15.6161  -13.0484    0.0000 C   0  0  0  0  0  0  0  0  0  0  0  0
  -14.7911  -13.0484    0.0000 C   0  0  0  0  0  0  0  0  0  0  0  0
  -16.8536  -12.3339    0.0000 O   0  0  0  0  0  0  0  0  0  0  0  0
  -19.1871  -17.9674    0.0000 O   0  0  0  0  0  0  0  0  0  0  0  0
  -19.1871  -17.1424    0.0000 C   0  0  0  0  0  0  0  0  0  0  0  0
  -18.4726  -16.7299    0.0000 C   0  0  0  0  0  0  0  0  0  0  0  0
  -18.4726  -15.9049    0.0000 C   0  0  0  0  0  0  0  0  0  0  0  0
  -19.1871  -15.4924    0.0000 C   0  0  0  0  0  0  0  0  0  0  0  0
  -19.9015  -15.9049    0.0000 O   0  0  0  0  0  0  0  0  0  0  0  0
  -19.9015  -16.7299    0.0000 C   0  0  0  0  0  0  0  0  0  0  0  0
  -19.1871  -14.6674    0.0000 O   0  0  0  0  0  0  0  0  0  0  0  0
  -17.4370  -12.9173    0.0000 C   0  0  0  0  0  0  0  0  0  0  0  0
  -18.2338  -12.7037    0.0000 O   0  0  0  0  0  0  0  0  0  0  0  0
  -18.8172  -13.2871    0.0000 C   0  0  0  0  0  0  0  0  0  0  0  0
  -18.6037  -14.0840    0.0000 C   0  0  0  0  0  0  0  0  0  0  0  0
  -17.8068  -14.2975    0.0000 C   0  0  0  0  0  0  0  0  0  0  0  0
  -17.2234  -13.7142    0.0000 C   0  0  0  0  0  0  0  0  0  0  0  0
  -17.6476  -15.9049    0.0000 O   0  0  0  0  0  0  0  0  0  0  0  0
  -17.6476  -16.7299    0.0000 O   0  0  0  0  0  0  0  0  0  0  0  0
  -12.7595  -16.7299    0.0000 O   0  0  0  0  0  0  0  0  0  0  0  0
  -12.7595  -15.9049    0.0000 O   0  0  0  0  0  0  0  0  0  0  0  0
  -13.1837  -14.8809    0.0000 O   0  0  0  0  0  0  0  0  0  0  0  0
  -13.8982  -14.1267    0.0000 O   0  0  0  0  0  0  0  0  0  0  0  0
  -14.7911  -13.8734    0.0000 O   0  0  0  0  0  0  0  0  0  0  0  0
  -15.6161  -13.8734    0.0000 O   0  0  0  0  0  0  0  0  0  0  0  0
  -17.2234  -14.8809    0.0000 O   0  0  0  0  0  0  0  0  0  0  0  0
  -16.6401  -14.2975    0.0000 O   0  0  0  0  0  0  0  0  0  0  0  0
  -17.2234  -17.7539    0.0000 O   0  0  0  0  0  0  0  0  0  0  0  0
  -16.6401  -18.3373    0.0000 O   0  0  0  0  0  0  0  0  0  0  0  0
  -15.6161  -18.7614    0.0000 O   0  0  0  0  0  0  0  0  0  0  0  0
  -14.7911  -18.7614    0.0000 O   0  0  0  0  0  0  0  0  0  0  0  0
  -13.7671  -18.3373    0.0000 O   0  0  0  0  0  0  0  0  0  0  0  0
  -13.1837  -17.7539    0.0000 O   0  0  0  0  0  0  0  0  0  0  0  0
  -19.6141  -19.5612    0.0000 C   0  0  0  0  0  0  0  0  0  0  0  0
  -19.8277  -20.3581    0.0000 C   0  0  0  0  0  0  0  0  0  0  0  0
  -19.2443  -20.9414    0.0000 S   0  0  0  0  0  0  0  0  0  0  0  0
  -18.4474  -20.7279    0.0000 C   0  0  0  0  0  0  0  0  0  0  0  0
  -10.5795  -20.3581    0.0000 S   0  0  0  0  0  0  0  0  0  0  0  0
  -11.1628  -20.9414    0.0000 C   0  0  0  0  0  0  0  0  0  0  0  0
  -11.9598  -20.7279    0.0000 C   0  0  0  0  0  0  0  0  0  0  0  0
   -9.7911  -15.4924    0.0000 C   0  0  0  0  0  0  0  0  0  0  0  0
   -9.0766  -15.9049    0.0000 S   0  0  0  0  0  0  0  0  0  0  0  0
   -9.0766  -16.7299    0.0000 C   0  0  0  0  0  0  0  0  0  0  0  0
  -11.9598  -11.9069    0.0000 C   0  0  0  0  0  0  0  0  0  0  0  0
  -11.1629  -11.6933    0.0000 S   0  0  0  0  0  0  0  0  0  0  0  0
  -10.5795  -12.2767    0.0000 C   0  0  0  0  0  0  0  0  0  0  0  0
  -10.7930  -13.0736    0.0000 C   0  0  0  0  0  0  0  0  0  0  0  0
  -16.0286  -10.9050    0.0000 C   0  0  0  0  0  0  0  0  0  0  0  0
  -15.6161  -10.1905    0.0000 S   0  0  0  0  0  0  0  0  0  0  0  0
  -14.7911  -10.1905    0.0000 C   0  0  0  0  0  0  0  0  0  0  0  0
  -14.3786  -10.9050    0.0000 C   0  0  0  0  0  0  0  0  0  0  0  0
  -18.4474  -11.9068    0.0000 C   0  0  0  0  0  0  0  0  0  0  0  0
  -19.2442  -11.6933    0.0000 C   0  0  0  0  0  0  0  0  0  0  0  0
  -19.8276  -12.2767    0.0000 S   0  0  0  0  0  0  0  0  0  0  0  0
  -19.6141  -13.0736    0.0000 C   0  0  0  0  0  0  0  0  0  0  0  0
  -21.3305  -15.9049    0.0000 C   0  0  0  0  0  0  0  0  0  0  0  0
  -21.3305  -16.7299    0.0000 S   0  0  0  0  0  0  0  0  0  0  0  0
  -20.6160  -17.1424    0.0000 C   0  0  0  0  0  0  0  0  0  0  0  0
  -16.0286  -21.7298    0.0000 C   0  0  0  0  0  0  0  0  0  0  0  0
  -15.6161  -22.4443    0.0000 C   0  0  0  0  0  0  0  0  0  0  0  0
  -14.7911  -22.4443    0.0000 S   0  0  0  0  0  0  0  0  0  0  0  0
  -14.3786  -21.7298    0.0000 C   0  0  0  0  0  0  0  0  0  0  0  0
  -20.1975  -18.9778    0.0000 C   0  0  0  0  0  0  0  0  0  0  0  0
  -19.9840  -18.1809    0.0000 O   0  0  0  0  0  0  0  0  0  0  0  0
  -20.9944  -19.1914    0.0000 O   0  0  0  0  0  0  0  0  0  0  0  0
  -22.0450  -15.4924    0.0000 C   0  0  0  0  0  0  0  0  0  0  0  0
  -22.0450  -14.6674    0.0000 C   0  0  0  0  0  0  0  0  0  0  0  0
  -22.7594  -14.2549    0.0000 O   0  0  0  0  0  0  0  0  0  0  0  0
  -21.3305  -14.2549    0.0000 O   0  0  0  0  0  0  0  0  0  0  0  0
  -17.8640  -11.3235    0.0000 C   0  0  0  0  0  0  0  0  0  0  0  0
  -17.0671  -11.5370    0.0000 O   0  0  0  0  0  0  0  0  0  0  0  0
  -18.0775  -10.5266    0.0000 O   0  0  0  0  0  0  0  0  0  0  0  0
  -13.5536  -10.9049    0.0000 C   0  0  0  0  0  0  0  0  0  0  0  0
  -13.1411  -11.6194    0.0000 O   0  0  0  0  0  0  0  0  0  0  0  0
  -13.1411  -10.1905    0.0000 O   0  0  0  0  0  0  0  0  0  0  0  0
  -10.2097  -13.6569    0.0000 C   0  0  0  0  0  0  0  0  0  0  0  0
  -10.4232  -14.4538    0.0000 O   0  0  0  0  0  0  0  0  0  0  0  0
   -9.4128  -13.4434    0.0000 O   0  0  0  0  0  0  0  0  0  0  0  0
   -8.3622  -17.1424    0.0000 C   0  0  0  0  0  0  0  0  0  0  0  0
   -8.3622  -17.9674    0.0000 C   0  0  0  0  0  0  0  0  0  0  0  0
   -7.6477  -18.3799    0.0000 O   0  0  0  0  0  0  0  0  0  0  0  0
   -9.0766  -18.3799    0.0000 O   0  0  0  0  0  0  0  0  0  0  0  0
  -12.5431  -21.3113    0.0000 C   0  0  0  0  0  0  0  0  0  0  0  0
  -13.3400  -21.0978    0.0000 O   0  0  0  0  0  0  0  0  0  0  0  0
  -12.3296  -22.1082    0.0000 O   0  0  0  0  0  0  0  0  0  0  0  0
  -16.8536  -21.7298    0.0000 C   0  0  0  0  0  0  0  0  0  0  0  0
  -17.2661  -21.0154    0.0000 O   0  0  0  0  0  0  0  0  0  0  0  0
  -17.2661  -22.4443    0.0000 O   0  0  0  0  0  0  0  0  0  0  0  0
  -19.5696  -13.8252    0.0000 H   0  0  0  0  0  0  0  0  0  0  0  0
  -17.6958  -11.9514    0.0000 H   0  0  0  0  0  0  0  0  0  0  0  0
  -18.3211  -14.9924    0.0000 H   0  0  0  0  0  0  0  0  0  0  0  0
  -18.3211  -17.6424    0.0000 H   0  0  0  0  0  0  0  0  0  0  0  0
  -16.5286  -11.4679    0.0000 H   0  0  0  0  0  0  0  0  0  0  0  0
  -13.8786  -11.4679    0.0000 H   0  0  0  0  0  0  0  0  0  0  0  0
  -12.7114  -11.9514    0.0000 H   0  0  0  0  0  0  0  0  0  0  0  0
  -10.8375  -13.8252    0.0000 H   0  0  0  0  0  0  0  0  0  0  0  0
  -10.3541  -14.9924    0.0000 H   0  0  0  0  0  0  0  0  0  0  0  0
  -10.3541  -17.6424    0.0000 H   0  0  0  0  0  0  0  0  0  0  0  0
  -10.8375  -18.8096    0.0000 H   0  0  0  0  0  0  0  0  0  0  0  0
  -18.3449  -17.5849    0.0000 H   0  0  0  0  0  0  0  0  0  0  0  0
  -12.7114  -20.6834    0.0000 H   0  0  0  0  0  0  0  0  0  0  0  0
  -16.4711  -19.4587    0.0000 H   0  0  0  0  0  0  0  0  0  0  0  0
  -16.5286  -19.4349    0.0000 H   0  0  0  0  0  0  0  0  0  0  0  0
  -13.8786  -19.4349    0.0000 H   0  0  0  0  0  0  0  0  0  0  0  0
  -21.8036  -19.5348    0.0000 Na  0  0  0  0  0 15  0  0  0  0  0  0
  -22.3929  -16.1759    0.0000 Na  0  0  0  0  0 15  0  0  0  0  0  0
  -20.6545  -11.8741    0.0000 Na  0  0  0  0  0 15  0  0  0  0  0  0
  -14.7027   -9.4875    0.0000 Na  0  0  0  0  0 15  0  0  0  0  0  0
   -9.8411  -11.6089    0.0000 Na  0  0  0  0  0 15  0  0  0  0  0  0
   -7.9259  -15.5277    0.0000 Na  0  0  0  0  0 15  0  0  0  0  0  0
   -9.6643  -20.6250    0.0000 Na  0  0  0  0  0 15  0  0  0  0  0  0
  2  3  1  0
  7  2  1  0
  3  4  1  0
  4  5  1  0
  5  6  1  0
  5  8  1  0
  2  9  1  0
 10  8  1  0
 11  9  1  0
 10 12  1  0
 16 10  1  0
 12 13  1  0
 13 14  1  0
 14 15  1  0
 11 17  1  0
 21 11  1  0
 18 19  1  0
 19 20  1  0
 20 21  1  0
 19 23  1  0
 24 23  1  0
 24 25  1  0
 29 24  1  0
 26 27  1  0
 27 28  1  0
 28 29  1  0
 27 30  1  0
 31 30  1  0
 31 32  1  0
 36 31  1  0
 33 34  1  0
 34 35  1  0
 35 36  1  0
 34 37  1  0
 38 37  1  0
 38 39  1  0
 43 38  1  0
 40 41  1  0
 41 42  1  0
 42 43  1  0
 41 44  1  0
 14 45  1  0
 46 45  1  0
 46 47  1  0
 51 46  1  0
 47 48  1  0
 48 49  1  0
 49 50  1  0
 49 52  1  0
 53 44  1  0
 53 54  1  0
 58 53  1  0
 55 56  1  0
 56 57  1  0
 57 58  1  0
 56 52  1  0
 48 59  1  6
 47 60  1  1
 29 61  1  6
 28 62  1  1
 36 63  1  6
 35 64  1  1
 43 65  1  6
 42 66  1  1
 57 67  1  1
 58 68  1  6
 13 69  1  6
 12 70  1  1
  4 71  1  0
  3 72  1  1
 21 73  1  6
 20 74  1  1
 16 15  1  0
 16 78  1  1
 75 76  1  0
 76 77  1  0
 77 78  1  0
 17 18  1  0
 18 22  1  1
 22 79  1  0
 79 80  1  0
 80 81  1  0
 25 26  1  0
 26 82  1  1
 82 83  1  0
 83 84  1  0
 32 33  1  0
 33 85  1  1
 85 86  1  0
 86 87  1  0
 87 88  1  0
 39 40  1  0
 40 89  1  1
 89 90  1  0
 90 91  1  0
 91 92  1  0
 55 54  1  0
 55 96  1  1
 93 94  1  0
 94 95  1  0
 95 96  1  0
 51 50  1  0
 51 99  1  1
 97 98  1  0
 98 99  1  0
  7  6  1  0
  7103  1  1
100101  1  0
101102  1  0
102103  1  0
 75104  1  0
104105  2  0
104106  1  0
 97107  1  0
107108  1  0
108109  2  0
108110  1  0
 93111  1  0
111112  1  0
111113  2  0
 92114  1  0
114115  1  0
114116  2  0
 88117  1  0
117118  1  0
117119  2  0
 84120  1  0
120121  1  0
121122  1  0
121123  2  0
 81124  1  0
124125  1  0
124126  2  0
100127  1  0
127128  2  0
127129  1  0
 56130  1  1
 53131  1  1
 49132  1  1
 46133  1  1
 41134  1  1
 38135  1  1
 34136  1  1
 31137  1  1
 27138  1  1
 24139  1  1
 19140  1  1
 14141  1  1
 11142  1  1
 10143  1  1
  5144  1  1
  2145  1  1
M  CHG  8   1   1 106  -1 110  -1 112  -1 115  -1 118  -1 122  -1 125  -1
M  CHG  8 129  -1 146   1 147   1 148   1 149   1 150   1 151   1 152   1
M  END
> <chembl_id>
CHEMBL2107374

> <chembl_pref_name>
SUGAMMADEX SODIUM
