
     RDKit          2D

 11 11  0  0  0  0  0  0  0  0999 V2000
   -0.8625    1.2208    0.0000 C   0  0  0  0  0  0  0  0  0  0  0  0
   -0.8625   -0.2125    0.0000 C   0  0  0  0  0  0  0  0  0  0  0  0
    0.3792   -0.9292    0.0000 C   0  0  0  0  0  0  0  0  0  0  0  0
    0.3792    1.9125    0.0000 C   0  0  0  0  0  0  0  0  0  0  0  0
   -2.1083   -0.9292    0.0000 C   0  0  0  0  0  0  0  0  0  0  0  0
   -2.1083    1.9583    0.0000 O   0  0  0  0  0  0  0  0  0  0  0  0
    1.6000   -0.2375    0.0000 C   0  0  0  0  0  0  0  0  0  0  0  0
    1.6000    1.1958    0.0000 C   0  0  0  0  0  0  0  0  0  0  0  0
   -2.8250    0.3083    0.0000 C   0  0  0  0  0  0  0  0  0  0  0  0
   -1.3958   -2.1750    0.0000 C   0  0  0  0  0  0  0  0  0  0  0  0
    2.8167    1.9583    0.0000 C   0  0  0  0  0  0  0  0  0  0  0  0
  2  1  1  0
  3  2  2  0
  4  1  2  0
  5  2  1  0
  6  1  1  0
  7  8  2  0
  8  4  1  0
  9  5  1  0
 10  5  1  0
 11  8  1  0
  3  7  1  0
M  END
> <chembl_id>
CHEMBL29411

> <chembl_pref_name>
THYMOL
