
     RDKit          2D

 34 35  0  0  0  0  0  0  0  0999 V2000
    0.0292   -7.0292    0.0000 Cl  0  0  0  0  0  0  0  0  0  0  0  0
    2.7708   -5.8958    0.0000 N   0  0  0  0  0  0  0  0  0  0  0  0
    2.7667   -5.1875    0.0000 C   0  0  0  0  0  0  0  0  0  0  0  0
    2.0625   -5.9000    0.0000 C   0  0  0  0  0  0  0  0  0  0  0  0
    2.0625   -5.1875    0.0000 C   0  0  0  0  0  0  0  0  0  0  0  0
    3.4458   -6.1125    0.0000 C   0  0  0  0  0  0  0  0  0  0  0  0
    3.4417   -4.9667    0.0000 S   0  0  0  0  0  0  0  0  0  0  0  0
    3.8625   -5.5375    0.0000 C   0  0  0  0  0  0  0  0  0  0  0  0
    3.4417   -6.8167    0.0000 C   0  0  0  0  0  0  0  0  0  0  0  0
    1.4417   -4.8292    0.0000 N   0  0  0  0  0  0  0  0  0  0  0  0
    0.8250   -5.1875    0.0000 C   0  0  0  0  0  0  0  0  0  0  0  0
    4.0500   -7.1792    0.0000 O   0  0  0  0  0  0  0  0  0  0  0  0
    5.2750   -7.1917    0.0000 O   0  0  0  0  0  0  0  0  0  0  0  0
    5.8917   -6.8458    0.0000 C   0  0  0  0  0  0  0  0  0  0  0  0
    0.2125   -4.8333    0.0000 C   0  0  0  0  0  0  0  0  0  0  0  0
    4.6667   -6.8333    0.0000 C   0  0  0  0  0  0  0  0  0  0  0  0
    1.5583   -6.4000    0.0000 O   0  0  0  0  0  0  0  0  0  0  0  0
    2.8208   -7.1667    0.0000 O   0  0  0  0  0  0  0  0  0  0  0  0
    0.8250   -5.8958    0.0000 O   0  0  0  0  0  0  0  0  0  0  0  0
    5.9000   -6.1375    0.0000 O   0  0  0  0  0  0  0  0  0  0  0  0
   -0.4000   -5.1875    0.0000 C   0  0  0  0  0  0  0  0  0  0  0  0
    0.2125   -4.1250    0.0000 N   0  0  0  0  0  0  0  0  0  0  0  0
    6.5042   -7.2083    0.0000 O   0  0  0  0  0  0  0  0  0  0  0  0
    4.4750   -5.8917    0.0000 C   0  0  0  0  0  0  0  0  0  0  0  0
    4.4750   -5.1792    0.0000 C   0  0  0  0  0  0  0  0  0  0  0  0
    4.6750   -6.1250    0.0000 C   0  0  0  0  0  0  0  0  0  0  0  0
   -0.4000   -5.8875    0.0000 C   0  0  0  0  0  0  0  0  0  0  0  0
   -1.0125   -4.8292    0.0000 C   0  0  0  0  0  0  0  0  0  0  0  0
    7.1208   -6.8583    0.0000 C   0  0  0  0  0  0  0  0  0  0  0  0
    7.7292   -7.2208    0.0000 C   0  0  0  0  0  0  0  0  0  0  0  0
   -1.6250   -5.1833    0.0000 C   0  0  0  0  0  0  0  0  0  0  0  0
   -1.0083   -6.2458    0.0000 C   0  0  0  0  0  0  0  0  0  0  0  0
   -1.6250   -5.8917    0.0000 C   0  0  0  0  0  0  0  0  0  0  0  0
    2.7625   -4.4792    0.0000 H   0  0  0  0  0  0  0  0  0  0  0  0
  3  2  1  0
  4  2  1  0
  5  4  1  0
  6  2  1  0
  7  3  1  0
  8  6  1  0
  6  9  1  6
  5 10  1  1
 11 10  1  0
 12  9  1  0
 13 16  1  0
 14 13  1  0
 15 11  1  0
 16 12  1  0
 17  4  2  0
 18  9  2  0
 19 11  2  0
 20 14  2  0
 21 15  1  0
 15 22  1  1
 23 14  1  0
 24  8  1  0
 25  8  1  0
 26 16  1  0
 27 21  1  0
 28 21  2  0
 29 23  1  0
 30 29  1  0
 31 28  1  0
 32 27  2  0
 33 32  1  0
  3 34  1  6
  7  8  1  0
  5  3  1  0
 33 31  2  0
M  END
> <chembl_id>
CHEMBL1200965

> <chembl_pref_name>
BACAMPICILLIN HYDROCHLORIDE
