
     RDKit          2D

 37 40  0  0  1  0  0  0  0  0999 V2000
   -1.6833   -1.4375    0.0000 C   0  0  0  0  0  0  0  0  0  0  0  0
    0.6000   -0.1417    0.0000 C   0  0  0  0  0  0  0  0  0  0  0  0
    1.4042    0.1375    0.0000 C   0  0  0  0  0  0  0  0  0  0  0  0
   -1.6833   -2.3042    0.0000 C   0  0  0  0  0  0  0  0  0  0  0  0
   -0.9208   -1.0125    0.0000 C   0  0  0  0  0  0  0  0  0  0  0  0
   -0.1708   -1.4375    0.0000 C   0  0  0  0  0  0  0  0  0  0  0  0
    0.6000   -1.0125    0.0000 C   0  0  0  0  0  0  0  0  0  0  0  0
   -2.4208   -1.0125    0.0000 C   0  0  0  0  0  0  0  0  0  0  0  0
   -0.1708    0.2958    0.0000 C   0  0  0  0  0  0  0  0  0  0  0  0
   -0.9208   -0.1417    0.0000 C   0  0  0  0  0  0  0  0  0  0  0  0
   -0.1708   -2.3042    0.0000 C   0  0  0  0  0  0  0  0  0  0  0  0
   -2.4208   -2.7417    0.0000 C   0  0  0  0  0  0  0  0  0  0  0  0
   -0.9208   -2.7417    0.0000 C   0  0  0  0  0  0  0  0  0  0  0  0
    1.4292    0.9833    0.0000 C   0  0  0  0  0  0  0  0  0  0  0  0
    1.9042   -0.5792    0.0000 C   0  0  0  0  0  0  0  0  0  0  0  0
    2.2250    0.2833    0.0000 O   0  0  0  0  0  0  0  0  0  0  0  0
    1.4042   -1.2542    0.0000 C   0  0  0  0  0  0  0  0  0  0  0  0
   -3.1833   -1.4375    0.0000 C   0  0  0  0  0  0  0  0  0  0  0  0
   -3.1833   -2.3042    0.0000 C   0  0  0  0  0  0  0  0  0  0  0  0
    2.8875    0.5333    0.0000 C   0  0  0  0  0  0  0  0  0  0  0  0
   -0.0875    2.7250    0.0000 C   0  0  0  0  0  0  0  0  0  0  0  0
    0.6750    1.4208    0.0000 C   0  0  0  0  0  0  0  0  0  0  0  0
    2.2250    1.4000    0.0000 O   0  0  0  0  0  0  0  0  0  0  0  0
    0.6750    2.2958    0.0000 O   0  0  0  0  0  0  0  0  0  0  0  0
    3.5292    0.0125    0.0000 O   0  0  0  0  0  0  0  0  0  0  0  0
   -0.8500    2.2958    0.0000 O   0  0  0  0  0  0  0  0  0  0  0  0
   -3.9208   -2.7625    0.0000 O   0  0  0  0  0  0  0  0  0  0  0  0
   -1.6875   -0.5417    0.0000 C   0  0  0  0  0  0  0  0  0  0  0  0
    0.6292    0.6833    0.0000 C   0  0  0  0  0  0  0  0  0  0  0  0
   -1.7333    0.4875    0.0000 O   0  0  0  0  0  0  0  0  0  0  0  0
   -0.9208   -3.5917    0.0000 C   0  0  0  0  0  0  0  0  0  0  0  0
    3.2542    1.3833    0.0000 C   0  0  0  0  0  0  0  0  0  0  0  0
   -0.0875    3.5958    0.0000 C   0  0  0  0  0  0  0  0  0  0  0  0
    4.0292    1.3833    0.0000 C   0  0  0  0  0  0  0  0  0  0  0  0
    0.9167   -1.8375    0.0000 H   0  0  0  0  0  0  0  0  0  0  0  0
   -0.1833   -0.5250    0.0000 H   0  0  0  0  0  0  0  0  0  0  0  0
   -0.9208   -1.8667    0.0000 H   0  0  0  0  0  0  0  0  0  0  0  0
  2  9  1  0
  3  2  1  0
  4  1  1  0
  5  1  1  0
  6  5  1  0
  7  6  1  0
  8  1  1  0
  9 10  1  0
 10  5  1  0
 11  6  1  0
 12  4  2  0
 13  4  1  0
  3 14  1  1
 15 17  1  0
  3 16  1  6
 17  7  1  0
 18  8  2  0
 19 18  1  0
 20 16  1  0
 21 24  1  0
 22 14  1  0
 23 14  2  0
 24 22  1  0
 25 20  2  0
 26 21  2  0
 27 19  2  0
  1 28  1  1
  2 29  1  1
 10 30  1  1
 13 31  1  6
 32 20  1  0
 33 21  1  0
 34 32  1  0
  7 35  1  6
  6 36  1  1
  5 37  1  6
 13 11  1  0
 12 19  1  0
  2  7  1  0
  3 15  1  0
M  END
> <chembl_id>
CHEMBL1697782

> <chembl_pref_name>
METHYLPREDNISOLONE ACEPONATE
