
     RDKit          2D

 57 66  0  0  0  0  0  0  0  0999 V2000
   -0.5699    3.7202    0.0000 C   0  0  0  0  0  0  0  0  0  0  0  0
   -1.2844    3.3076    0.0000 N   0  0  0  0  0  0  0  0  0  0  0  0
   -1.2844    2.4826    0.0000 C   0  0  0  0  0  0  0  0  0  0  0  0
   -0.5699    2.0701    0.0000 C   0  0  0  0  0  0  0  0  0  0  0  0
    0.1446    2.4826    0.0000 C   0  0  0  0  0  0  0  0  0  0  0  0
    0.1446    3.3076    0.0000 C   0  0  0  0  0  0  0  0  0  0  0  0
    0.8590    3.7202    0.0000 C   0  0  0  0  0  0  0  0  0  0  0  0
    0.8590    2.0701    0.0000 C   0  0  0  0  0  0  0  0  0  0  0  0
    1.5735    2.4826    0.0000 C   0  0  0  0  0  0  0  0  0  0  0  0
    1.5735    3.3076    0.0000 C   0  0  0  0  0  0  0  0  0  0  0  0
    0.8590    1.2451    0.0000 O   0  0  0  0  0  0  0  0  0  0  0  0
    1.5735    0.8326    0.0000 C   0  0  0  0  0  0  0  0  0  0  0  0
    2.2880    1.2451    0.0000 C   0  0  0  0  0  0  0  0  0  0  0  0
    2.2880    2.0701    0.0000 C   0  0  0  0  0  0  0  0  0  0  0  0
   -0.9802   -0.3376    0.0000 C   0  0  0  0  0  0  0  0  0  0  0  0
   -1.6719   -0.7957    0.0000 C   0  0  0  0  0  0  0  0  0  0  0  0
   -1.6719   -1.6207    0.0000 C   0  0  0  0  0  0  0  0  0  0  0  0
   -0.9574   -2.0332    0.0000 C   0  0  0  0  0  0  0  0  0  0  0  0
   -0.2430   -1.6207    0.0000 C   0  0  0  0  0  0  0  0  0  0  0  0
   -0.2430   -0.7957    0.0000 N   0  0  0  0  0  0  0  0  0  0  0  0
   -6.8845    0.8022    0.0000 C   0  0  0  0  0  0  0  0  0  0  0  0
   -7.5990    0.3897    0.0000 C   0  0  0  0  0  0  0  0  0  0  0  0
   -7.5990   -0.4353    0.0000 C   0  0  0  0  0  0  0  0  0  0  0  0
   -6.8845   -0.8478    0.0000 C   0  0  0  0  0  0  0  0  0  0  0  0
   -6.1700   -0.4353    0.0000 C   0  0  0  0  0  0  0  0  0  0  0  0
   -6.1700    0.3897    0.0000 C   0  0  0  0  0  0  0  0  0  0  0  0
    1.0305    4.5271    0.0000 O   0  0  0  0  0  0  0  0  0  0  0  0
    1.8510    4.6133    0.0000 C   0  0  0  0  0  0  0  0  0  0  0  0
    2.1866    3.8597    0.0000 O   0  0  0  0  0  0  0  0  0  0  0  0
   -2.4565   -1.8756    0.0000 C   0  0  0  0  0  0  0  0  0  0  0  0
   -2.9414   -1.2082    0.0000 C   0  0  0  0  0  0  0  0  0  0  0  0
   -2.4565   -0.5408    0.0000 N   0  0  0  0  0  0  0  0  0  0  0  0
   -3.7619   -1.2945    0.0000 C   0  0  0  0  0  0  0  0  0  0  0  0
   -4.0975   -2.0481    0.0000 C   0  0  0  0  0  0  0  0  0  0  0  0
   -3.6125   -2.7156    0.0000 C   0  0  0  0  0  0  0  0  0  0  0  0
   -2.7920   -2.6293    0.0000 C   0  0  0  0  0  0  0  0  0  0  0  0
    1.5735    0.0076    0.0000 O   0  0  0  0  0  0  0  0  0  0  0  0
   -3.8675   -3.5002    0.0000 O   0  0  0  0  0  0  0  0  0  0  0  0
   -4.6880   -3.5864    0.0000 C   0  0  0  0  0  0  0  0  0  0  0  0
   -6.8845   -1.6728    0.0000 O   0  0  0  0  0  0  0  0  0  0  0  0
   -8.2401   -0.9545    0.0000 C   0  0  0  0  0  0  0  0  0  0  0  0
   -7.6382   -2.0084    0.0000 C   0  0  0  0  0  0  0  0  0  0  0  0
   -5.5569   -0.9873    0.0000 O   0  0  0  0  0  0  0  0  0  0  0  0
    0.0135    1.4868    0.0000 S   0  0  0  0  0  0  0  0  0  0  0  0
   -0.0297    0.6629    0.0000 C   0  0  0  0  0  0  0  0  0  0  0  0
   -1.3668    3.9337    0.0000 C   0  0  0  0  0  0  0  0  0  0  0  0
   -2.5779    3.0725    0.0000 O   0  0  0  0  0  0  0  0  0  0  0  0
   -2.0808    0.8540    0.0000 C   0  0  0  0  0  0  0  0  0  0  0  0
   -2.8117    0.5185    0.0000 O   0  0  0  0  0  0  0  0  0  0  0  0
   -2.5838    4.0371    0.0000 C   0  0  0  0  0  0  0  0  0  0  0  0
   -2.5838    4.8621    0.0000 O   0  0  0  0  0  0  0  0  0  0  0  0
   -4.9146    2.7507    0.0000 C   0  0  0  0  0  0  0  0  0  0  0  0
   -6.8845    1.6272    0.0000 C   0  0  0  0  0  0  0  0  0  0  0  0
   -4.8284    1.9303    0.0000 N   0  0  0  0  0  0  0  0  0  0  0  0
   -4.0437    1.6753    0.0000 C   0  0  0  0  0  0  0  0  0  0  0  0
   -5.5820    1.5947    0.0000 C   0  0  0  0  0  0  0  0  0  0  0  0
   -1.5393    1.6980    0.0000 H   0  0  0  0  0  0  0  0  0  0  0  0
 55  3  1  0
 50  2  1  0
  1  2  1  0
  2  3  1  0
  3  4  1  0
  4  5  1  0
  5  6  2  0
  1  6  1  0
  8  9  2  0
  9 10  1  0
  7 10  2  0
  5  8  1  0
  7  6  1  0
 11 12  1  0
 12 13  1  0
  8 11  1  0
  9 14  1  0
 15 16  1  0
 16 17  2  0
 17 18  1  0
 18 19  1  0
 19 20  1  0
 15 20  1  0
 21 22  1  0
 22 23  2  0
 23 24  1  0
 24 25  2  0
 25 26  1  0
 21 26  2  0
 27 28  1  0
 28 29  1  0
  7 27  1  0
 10 29  1  0
 30 31  2  0
 31 32  1  0
 16 32  1  0
 17 30  1  0
 33 34  2  0
 34 35  1  0
 35 36  2  0
 30 36  1  0
 31 33  1  0
 12 37  2  0
 35 38  1  0
 38 39  1  0
 24 40  1  0
 23 41  1  0
 40 42  1  0
 25 43  1  0
  4 44  1  1
 44 45  1  0
 15 45  1  0
  1 46  1  1
 46 47  1  0
 15 48  1  6
 48 49  2  0
 50 51  1  6
 47 48  1  0
 50 52  1  0
 21 53  1  0
 52 53  1  1
 52 54  1  0
 54 55  1  0
 54 56  1  0
 55 26  1  1
  3 57  1  6
M  END
> <chembl_id>
CHEMBL4297516

> <chembl_pref_name>
LURBINECTEDIN
