
     RDKit          2D

 27 28  0  0  0  0  0  0  0  0999 V2000
    0.5792   -9.1250    0.0000 Cl  0  0  0  0  0  0  0  0  0  0  0  0
    0.5917   -6.1042    0.0000 C   0  0  0  0  0  0  0  0  0  0  0  0
    1.2000   -6.4625    0.0000 C   0  0  0  0  0  0  0  0  0  0  0  0
    1.8125   -7.5292    0.0000 N   0  0  0  0  0  0  0  0  0  0  0  0
    1.2000   -7.1750    0.0000 C   0  0  0  0  0  0  0  0  0  0  0  0
   -0.0208   -6.4625    0.0000 C   0  0  0  0  0  0  0  0  0  0  0  0
    0.0792   -5.6042    0.0000 C   0  0  0  0  0  0  0  0  0  0  0  0
    1.1292   -5.6542    0.0000 C   0  0  0  0  0  0  0  0  0  0  0  0
   -0.6333   -6.1167    0.0000 O   0  0  0  0  0  0  0  0  0  0  0  0
    2.4250   -7.1750    0.0000 C   0  0  0  0  0  0  0  0  0  0  0  0
    1.8125   -8.2292    0.0000 C   0  0  0  0  0  0  0  0  0  0  0  0
   -0.0208   -7.1750    0.0000 C   0  0  0  0  0  0  0  0  0  0  0  0
    0.5917   -7.5250    0.0000 C   0  0  0  0  0  0  0  0  0  0  0  0
    1.8125   -5.8667    0.0000 C   0  0  0  0  0  0  0  0  0  0  0  0
    0.9750   -4.9667    0.0000 C   0  0  0  0  0  0  0  0  0  0  0  0
    0.2667   -4.9125    0.0000 C   0  0  0  0  0  0  0  0  0  0  0  0
   -0.6083   -5.7875    0.0000 C   0  0  0  0  0  0  0  0  0  0  0  0
    3.0375   -7.5292    0.0000 C   0  0  0  0  0  0  0  0  0  0  0  0
    2.4167   -8.5917    0.0000 C   0  0  0  0  0  0  0  0  0  0  0  0
   -0.6375   -7.5250    0.0000 C   0  0  0  0  0  0  0  0  0  0  0  0
    2.3292   -5.3792    0.0000 C   0  0  0  0  0  0  0  0  0  0  0  0
    1.4917   -4.4792    0.0000 C   0  0  0  0  0  0  0  0  0  0  0  0
   -0.2375   -4.4042    0.0000 C   0  0  0  0  0  0  0  0  0  0  0  0
   -1.1125   -5.2917    0.0000 C   0  0  0  0  0  0  0  0  0  0  0  0
   -0.9333   -4.5917    0.0000 C   0  0  0  0  0  0  0  0  0  0  0  0
    2.1667   -4.6917    0.0000 C   0  0  0  0  0  0  0  0  0  0  0  0
    3.0375   -8.2417    0.0000 C   0  0  0  0  0  0  0  0  0  0  0  0
  3  2  1  0
  4  5  1  0
  5  3  1  0
  6  2  1  0
  7  2  1  0
  8  2  1  0
  9  6  2  0
 10  4  1  0
 11  4  1  0
 12  6  1  0
 13  5  1  0
 14  8  2  0
 15  8  1  0
 16  7  2  0
 17  7  1  0
 18 10  1  0
 19 11  1  0
 20 12  1  0
 21 14  1  0
 22 15  2  0
 23 16  1  0
 24 17  2  0
 25 23  2  0
 26 22  1  0
 27 18  1  0
 26 21  2  0
 24 25  1  0
 19 27  1  0
M  END
> <chembl_id>
CHEMBL2107606

> <chembl_pref_name>
DIPIPANONE HYDROCHLORIDE
