
     RDKit          2D

 33 36  0  0  0  0  0  0  0  0999 V2000
   56.3678  -20.8910    0.0000 C   0  0  0  0  0  0  0  0  0  0  0  0
   56.8996  -21.5217    0.0000 C   0  0  0  0  0  0  0  0  0  0  0  0
   57.7117  -21.3765    0.0000 C   0  0  0  0  0  0  0  0  0  0  0  0
   57.9920  -20.6005    0.0000 C   0  0  0  0  0  0  0  0  0  0  0  0
   57.4602  -19.9698    0.0000 C   0  0  0  0  0  0  0  0  0  0  0  0
   56.6481  -20.1150    0.0000 C   0  0  0  0  0  0  0  0  0  0  0  0
   56.1163  -19.4843    0.0000 C   0  0  0  0  0  0  0  0  0  0  0  0
   55.3042  -19.6295    0.0000 C   0  0  0  0  0  0  0  0  0  0  0  0
   55.0239  -20.4055    0.0000 C   0  0  0  0  0  0  0  0  0  0  0  0
   55.5557  -21.0362    0.0000 C   0  0  0  0  0  0  0  0  0  0  0  0
   53.9314  -21.3266    0.0000 C   0  0  0  0  0  0  0  0  0  0  0  0
   54.4633  -21.9573    0.0000 C   0  0  0  0  0  0  0  0  0  0  0  0
   55.2754  -21.8121    0.0000 C   0  0  0  0  0  0  0  0  0  0  0  0
   53.1069  -21.2998    0.0000 C   0  0  0  0  0  0  0  0  0  0  0  0
   54.2117  -20.5507    0.0000 C   0  0  0  0  0  0  0  0  0  0  0  0
   53.5604  -20.0443    0.0000 C   0  0  0  0  0  0  0  0  0  0  0  0
   52.8776  -20.5073    0.0000 C   0  0  0  0  0  0  0  0  0  0  0  0
   58.8042  -20.4553    0.0000 O   0  0  0  0  0  0  0  0  0  0  0  0
   53.1808  -22.1215    0.0000 H   0  0  0  0  0  0  0  0  0  0  0  0
   52.6005  -21.9511    0.0000 C   0  0  0  0  0  0  0  0  0  0  0  0
   51.7833  -21.8383    0.0000 C   0  0  0  0  0  0  0  0  0  0  0  0
   51.2769  -22.4896    0.0000 C   0  0  0  0  0  0  0  0  0  0  0  0
   50.4597  -22.3768    0.0000 C   0  0  0  0  0  0  0  0  0  0  0  0
   49.9533  -23.0281    0.0000 O   0  0  0  0  0  0  0  0  0  0  0  0
   50.1488  -21.6126    0.0000 O   0  0  0  0  0  0  0  0  0  0  0  0
   53.5716  -22.0690    0.0000 C   0  0  0  0  0  0  0  0  0  0  0  0
   54.3084  -19.9947    0.0000 H   0  0  0  0  0  0  0  0  0  0  0  0
   56.0875  -21.6669    0.0000 C   0  0  0  0  0  0  0  0  0  0  0  0
   56.9284  -19.3391    0.0000 H   0  0  0  0  0  0  0  0  0  0  0  0
   55.8397  -21.8107    0.0000 H   0  0  0  0  0  0  0  0  0  0  0  0
   54.1235  -19.7304    0.0000 H   0  0  0  0  0  0  0  0  0  0  0  0
   54.1830  -22.7332    0.0000 O   0  0  0  0  0  0  0  0  0  0  0  0
   52.9114  -22.7153    0.0000 C   0  0  0  0  0  0  0  0  0  0  0  0
  1  2  1  0
  2  3  1  0
  3  4  1  0
  4  5  1  0
  5  6  1  0
  7  8  1  0
  8  9  1  0
  1  6  1  0
  1 10  1  0
  6  7  1  0
 13 10  1  0
  9 10  1  0
  9 15  1  0
 11 12  1  0
 12 13  1  0
 14 11  1  0
 15 16  1  0
 16 17  1  0
 14 17  1  0
 11 15  1  0
  4 18  1  6
 14 19  1  6
 14 20  1  0
 20 21  1  0
 21 22  1  0
 22 23  1  0
 23 24  2  0
 23 25  1  0
 11 26  1  1
  9 27  1  1
  1 28  1  1
  6 29  1  1
 10 30  1  6
 15 31  1  6
 12 32  1  6
 20 33  1  6
M  END
> <chembl_id>
CHEMBL406393

> <chembl_pref_name>
DEOXYCHOLIC ACID
