
     RDKit          2D

 88 95  0  0  0  0  0  0  0  0999 V2000
   -1.9827  -11.5603    0.0000 C   0  0  0  0  0  0  0  0  0  0  0  0
   -2.6971  -11.9728    0.0000 C   0  0  0  0  0  0  0  0  0  0  0  0
   -2.6971  -12.7978    0.0000 N   0  0  0  0  0  0  0  0  0  0  0  0
   -1.9827  -13.2103    0.0000 C   0  0  0  0  0  0  0  0  0  0  0  0
   -1.2682  -12.7978    0.0000 C   0  0  0  0  0  0  0  0  0  0  0  0
   -1.2682  -11.9728    0.0000 N   0  0  0  0  0  0  0  0  0  0  0  0
   -3.4116  -11.5603    0.0000 C   0  0  0  0  0  0  0  0  0  0  0  0
   -3.4116  -10.7353    0.0000 O   0  0  0  0  0  0  0  0  0  0  0  0
   -4.1261  -11.9728    0.0000 N   0  0  0  0  0  0  0  0  0  0  0  0
   -0.5537  -13.2103    0.0000 N   0  0  0  0  0  0  0  0  0  0  0  0
   -0.5537  -15.6853    0.0000 O   0  0  0  0  0  0  0  0  0  0  0  0
   -1.2682  -15.2728    0.0000 C   0  0  0  0  0  0  0  0  0  0  0  0
   -1.2682  -14.4478    0.0000 C   0  0  0  0  0  0  0  0  0  0  0  0
   -0.5537  -14.0353    0.0000 C   0  0  0  0  0  0  0  0  0  0  0  0
    0.1608  -14.4478    0.0000 C   0  0  0  0  0  0  0  0  0  0  0  0
    0.1608  -15.2728    0.0000 C   0  0  0  0  0  0  0  0  0  0  0  0
   -1.9827  -10.7353    0.0000 N   0  0  0  0  0  0  0  0  0  0  0  0
   -1.2682  -10.3228    0.0000 C   0  0  0  0  0  0  0  0  0  0  0  0
   -1.2682   -9.4978    0.0000 C   0  0  0  0  0  0  0  0  0  0  0  0
   -0.5537   -9.0853    0.0000 C   0  0  0  0  0  0  0  0  0  0  0  0
    0.1608   -9.4978    0.0000 C   0  0  0  0  0  0  0  0  0  0  0  0
    0.1608  -10.3228    0.0000 C   0  0  0  0  0  0  0  0  0  0  0  0
   -0.5537  -10.7353    0.0000 C   0  0  0  0  0  0  0  0  0  0  0  0
    2.3042   -8.2603    0.0000 C   0  0  0  0  0  0  0  0  0  0  0  0
    2.3042   -9.0853    0.0000 C   0  0  0  0  0  0  0  0  0  0  0  0
    1.5897   -9.4978    0.0000 C   0  0  0  0  0  0  0  0  0  0  0  0
    0.8752   -9.0853    0.0000 N   0  0  0  0  0  0  0  0  0  0  0  0
    0.8752   -8.2603    0.0000 C   0  0  0  0  0  0  0  0  0  0  0  0
    1.5897   -7.8478    0.0000 C   0  0  0  0  0  0  0  0  0  0  0  0
    3.0186   -7.0228    0.0000 C   0  0  0  0  0  0  0  0  0  0  0  0
    3.7331   -6.6103    0.0000 C   0  0  0  0  0  0  0  0  0  0  0  0
    4.4476   -7.0228    0.0000 N   0  0  0  0  0  0  0  0  0  0  0  0
    4.4476   -7.8478    0.0000 C   0  0  0  0  0  0  0  0  0  0  0  0
    3.7331   -8.2603    0.0000 C   0  0  0  0  0  0  0  0  0  0  0  0
    3.0186   -7.8478    0.0000 N   0  0  0  0  0  0  0  0  0  0  0  0
    5.1621   -6.6103    0.0000 C   0  0  0  0  0  0  0  0  0  0  0  0
   -0.5537   -8.2603    0.0000 O   0  0  0  0  0  0  0  0  0  0  0  0
    0.1608   -7.8478    0.0000 C   0  0  0  0  0  0  0  0  0  0  0  0
   -1.9827  -14.0353    0.0000 C   0  0  0  0  0  0  0  0  0  0  0  0
   -2.6971  -14.4478    0.0000 C   0  0  0  0  0  0  0  0  0  0  0  0
   -1.9827   -0.8353    0.0000 C   0  0  0  0  0  0  0  0  0  0  0  0
   -2.6971   -1.2478    0.0000 C   0  0  0  0  0  0  0  0  0  0  0  0
   -2.6971   -2.0728    0.0000 N   0  0  0  0  0  0  0  0  0  0  0  0
   -1.9827   -2.4853    0.0000 C   0  0  0  0  0  0  0  0  0  0  0  0
   -1.2682   -2.0728    0.0000 C   0  0  0  0  0  0  0  0  0  0  0  0
   -1.2682   -1.2478    0.0000 N   0  0  0  0  0  0  0  0  0  0  0  0
   -3.4116   -0.8353    0.0000 C   0  0  0  0  0  0  0  0  0  0  0  0
   -3.4116   -0.0103    0.0000 O   0  0  0  0  0  0  0  0  0  0  0  0
   -4.1261   -1.2478    0.0000 N   0  0  0  0  0  0  0  0  0  0  0  0
   -0.5537   -2.4853    0.0000 N   0  0  0  0  0  0  0  0  0  0  0  0
   -0.5537   -4.9603    0.0000 O   0  0  0  0  0  0  0  0  0  0  0  0
   -1.2682   -4.5478    0.0000 C   0  0  0  0  0  0  0  0  0  0  0  0
   -1.2682   -3.7228    0.0000 C   0  0  0  0  0  0  0  0  0  0  0  0
   -0.5537   -3.3103    0.0000 C   0  0  0  0  0  0  0  0  0  0  0  0
    0.1608   -3.7228    0.0000 C   0  0  0  0  0  0  0  0  0  0  0  0
    0.1608   -4.5478    0.0000 C   0  0  0  0  0  0  0  0  0  0  0  0
   -1.9827   -0.0103    0.0000 N   0  0  0  0  0  0  0  0  0  0  0  0
   -1.2682    0.4022    0.0000 C   0  0  0  0  0  0  0  0  0  0  0  0
   -1.2682    1.2272    0.0000 C   0  0  0  0  0  0  0  0  0  0  0  0
   -0.5537    1.6397    0.0000 C   0  0  0  0  0  0  0  0  0  0  0  0
    0.1608    1.2272    0.0000 C   0  0  0  0  0  0  0  0  0  0  0  0
    0.1608    0.4022    0.0000 C   0  0  0  0  0  0  0  0  0  0  0  0
   -0.5537   -0.0103    0.0000 C   0  0  0  0  0  0  0  0  0  0  0  0
    2.3042    2.4647    0.0000 C   0  0  0  0  0  0  0  0  0  0  0  0
    2.3042    1.6397    0.0000 C   0  0  0  0  0  0  0  0  0  0  0  0
    1.5897    1.2272    0.0000 C   0  0  0  0  0  0  0  0  0  0  0  0
    0.8752    1.6397    0.0000 N   0  0  0  0  0  0  0  0  0  0  0  0
    0.8752    2.4647    0.0000 C   0  0  0  0  0  0  0  0  0  0  0  0
    1.5897    2.8772    0.0000 C   0  0  0  0  0  0  0  0  0  0  0  0
    3.0186    3.7022    0.0000 C   0  0  0  0  0  0  0  0  0  0  0  0
    3.7331    4.1147    0.0000 C   0  0  0  0  0  0  0  0  0  0  0  0
    4.4476    3.7022    0.0000 N   0  0  0  0  0  0  0  0  0  0  0  0
    4.4476    2.8772    0.0000 C   0  0  0  0  0  0  0  0  0  0  0  0
    3.7331    2.4647    0.0000 C   0  0  0  0  0  0  0  0  0  0  0  0
    3.0186    2.8772    0.0000 N   0  0  0  0  0  0  0  0  0  0  0  0
    5.1621    4.1147    0.0000 C   0  0  0  0  0  0  0  0  0  0  0  0
   -0.5537    2.4647    0.0000 O   0  0  0  0  0  0  0  0  0  0  0  0
    0.1608    2.8772    0.0000 C   0  0  0  0  0  0  0  0  0  0  0  0
   -1.9827   -3.3103    0.0000 C   0  0  0  0  0  0  0  0  0  0  0  0
   -2.6971   -3.7228    0.0000 C   0  0  0  0  0  0  0  0  0  0  0  0
    9.7585    0.7145    0.0000 C   0  0  0  0  0  0  0  0  0  0  0  0
    9.3460    0.0000    0.0000 C   0  0  0  0  0  0  0  0  0  0  0  0
    8.5210    0.0000    0.0000 C   0  0  0  0  0  0  0  0  0  0  0  0
    8.1085   -0.7145    0.0000 C   0  0  0  0  0  0  0  0  0  0  0  0
    7.2835   -0.7145    0.0000 O   0  0  0  0  0  0  0  0  0  0  0  0
    8.5210   -1.4289    0.0000 O   0  0  0  0  0  0  0  0  0  0  0  0
    9.3460    1.4289    0.0000 O   0  0  0  0  0  0  0  0  0  0  0  0
   10.5835    0.7145    0.0000 O   0  0  0  0  0  0  0  0  0  0  0  0
  1  2  2  0
  1  6  1  0
  1 17  1  0
  2  3  1  0
  2  7  1  0
  3  4  2  0
  4  5  1  0
  4 39  1  0
  5  6  2  0
  5 10  1  0
  7  8  2  0
  7  9  1  0
 10 14  1  0
 11 12  1  0
 11 16  1  0
 12 13  1  0
 13 14  1  0
 14 15  1  0
 15 16  1  0
 17 18  1  0
 18 19  2  0
 18 23  1  0
 19 20  1  0
 20 21  2  0
 20 37  1  0
 21 22  1  0
 21 27  1  0
 22 23  2  0
 24 25  1  0
 24 29  1  0
 24 35  1  0
 25 26  1  0
 26 27  1  0
 27 28  1  0
 28 29  1  0
 30 31  1  0
 30 35  1  0
 31 32  1  0
 32 33  1  0
 32 36  1  0
 33 34  1  0
 34 35  1  0
 37 38  1  0
 39 40  1  0
 41 42  2  0
 42 43  1  0
 43 44  2  0
 44 45  1  0
 45 46  2  0
 41 46  1  0
 47 48  2  0
 47 49  1  0
 42 47  1  0
 51 52  1  0
 52 53  1  0
 53 54  1  0
 54 55  1  0
 55 56  1  0
 51 56  1  0
 50 54  1  0
 45 50  1  0
 58 59  2  0
 59 60  1  0
 60 61  2  0
 61 62  1  0
 62 63  2  0
 58 63  1  0
 64 65  1  0
 65 66  1  0
 66 67  1  0
 67 68  1  0
 68 69  1  0
 64 69  1  0
 70 71  1  0
 71 72  1  0
 72 73  1  0
 73 74  1  0
 74 75  1  0
 70 75  1  0
 72 76  1  0
 64 75  1  0
 61 67  1  0
 77 78  1  0
 60 77  1  0
 57 58  1  0
 41 57  1  0
 79 80  1  0
 44 79  1  0
 81 82  1  0
 82 83  2  0
 83 84  1  0
 84 85  1  0
 84 86  2  0
 81 87  1  0
 81 88  2  0
M  END
> <chembl_id>
CHEMBL3301603

> <chembl_pref_name>
GILTERITINIB FUMARATE
