
     RDKit          2D

 38 41  0  0  1  0  0  0  0  0999 V2000
    2.2542   -8.7167    0.0000 N   0  0  0  0  0  0  0  0  0  0  0  0
    1.5500   -8.7125    0.0000 C   0  0  0  0  0  0  0  0  0  0  0  0
    1.5500   -8.0042    0.0000 C   0  0  0  0  0  0  0  0  0  0  0  0
    2.2583   -8.0083    0.0000 C   0  0  0  0  0  0  0  0  0  0  0  0
    2.8667   -9.0667    0.0000 C   0  0  0  0  0  0  0  0  0  0  0  0
    3.4792   -8.7167    0.0000 C   0  0  0  0  0  0  0  0  0  0  0  0
   -0.9083   -8.0125    0.0000 C   0  0  0  0  0  0  0  0  0  0  0  0
   -0.2958   -7.6542    0.0000 C   0  0  0  0  0  0  0  0  0  0  0  0
   -1.4833   -7.5917    0.0000 N   0  0  0  0  0  0  0  0  0  0  0  0
    0.9292   -7.6542    0.0000 N   0  0  0  0  0  0  0  0  0  0  0  0
    0.3167   -8.0083    0.0000 C   0  0  0  0  0  0  0  0  0  0  0  0
    2.8667   -7.6542    0.0000 S   0  0  0  0  0  0  0  0  0  0  0  0
   -0.2958   -6.9458    0.0000 N   0  0  0  0  0  0  0  0  0  0  0  0
   -2.0542   -8.0125    0.0000 C   0  0  0  0  0  0  0  0  0  0  0  0
    0.3125   -5.8833    0.0000 C   0  0  0  0  0  0  0  0  0  0  0  0
    4.7083   -8.7125    0.0000 N   0  0  0  0  0  0  0  0  0  0  0  0
    2.8667   -9.7792    0.0000 C   0  0  0  0  0  0  0  0  0  0  0  0
   -1.1292   -8.6833    0.0000 C   0  0  0  0  0  0  0  0  0  0  0  0
   -1.8375   -8.6833    0.0000 S   0  0  0  0  0  0  0  0  0  0  0  0
    4.0958   -9.0667    0.0000 C   0  0  0  0  0  0  0  0  0  0  0  0
    0.9250   -5.5292    0.0000 C   0  0  0  0  0  0  0  0  0  0  0  0
    3.4792   -8.0042    0.0000 C   0  0  0  0  0  0  0  0  0  0  0  0
    0.3167   -6.5917    0.0000 O   0  0  0  0  0  0  0  0  0  0  0  0
    1.0458   -9.2167    0.0000 O   0  0  0  0  0  0  0  0  0  0  0  0
    0.3208   -8.7167    0.0000 O   0  0  0  0  0  0  0  0  0  0  0  0
    3.4833  -10.1292    0.0000 O   0  0  0  0  0  0  0  0  0  0  0  0
    2.2542  -10.1292    0.0000 O   0  0  0  0  0  0  0  0  0  0  0  0
    0.9250   -4.8167    0.0000 O   0  0  0  0  0  0  0  0  0  0  0  0
   -2.6708   -7.6542    0.0000 N   0  0  0  0  0  0  0  0  0  0  0  0
    1.5417   -5.8792    0.0000 O   0  0  0  0  0  0  0  0  0  0  0  0
    4.7000   -8.0083    0.0000 C   0  0  0  0  0  0  0  0  0  0  0  0
    5.3167   -9.0708    0.0000 C   0  0  0  0  0  0  0  0  0  0  0  0
   -0.3958   -5.8792    0.0000 C   0  0  0  0  0  0  0  0  0  0  0  0
   -0.0458   -5.2667    0.0000 C   0  0  0  0  0  0  0  0  0  0  0  0
    5.9292   -8.7167    0.0000 C   0  0  0  0  0  0  0  0  0  0  0  0
    5.3125   -7.6542    0.0000 C   0  0  0  0  0  0  0  0  0  0  0  0
    5.9292   -8.0083    0.0000 C   0  0  0  0  0  0  0  0  0  0  0  0
    2.2542   -7.3000    0.0000 H   0  0  0  0  0  0  0  0  0  0  0  0
  2  1  1  0
  3  2  1  0
  4  1  1  0
  5  1  1  0
  6  5  2  0
  7  8  1  0
  8 11  1  0
  9  7  1  0
  3 10  1  1
 11 10  1  0
 12  4  1  0
 13  8  2  0
 14  9  2  0
 15 23  1  0
 16 20  1  0
 17  5  1  0
 18  7  2  0
 19 18  1  0
 20  6  1  0
 21 15  1  0
 22  6  1  0
 23 13  1  0
 24  2  2  0
 25 11  2  0
 26 17  1  0
 27 17  2  0
 28 21  2  0
 29 14  1  0
 30 21  1  0
 31 16  1  0
 32 16  2  0
 33 15  1  0
 34 15  1  0
 35 32  1  0
 36 31  2  0
 37 36  1  0
  4 38  1  6
  3  4  1  0
 12 22  1  0
 37 35  2  0
 19 14  1  0
M  CHG  2  16   1  26  -1
M  END
> <chembl_id>
CHEMBL44354

> <chembl_pref_name>
CEFTAZIDIME
