
     RDKit          2D

 28 29  0  0  0  0  0  0  0  0999 V2000
    1.6019    1.4825    0.0000 C   0  0  0  0  0  0  0  0  0  0  0  0
   -1.7340   -2.6605    0.0000 S   0  0  0  0  0  0  0  0  0  0  0  0
    1.6019   -1.3342    0.0000 O   0  0  0  0  0  0  0  0  0  0  0  0
    0.1935   -1.3548    0.0000 O   0  0  0  0  0  0  0  0  0  0  0  0
   -1.0440    0.7886    0.0000 O   0  0  0  0  0  0  0  0  0  0  0  0
    2.1852    0.0742    0.0000 N   0  0  0  0  0  0  0  0  0  0  0  0
    0.1935    0.0742    0.0000 N   0  0  0  0  0  0  0  0  0  0  0  0
   -1.4565    0.0742    0.0000 N   0  0  0  0  0  0  0  0  0  0  0  0
   -2.2770   -1.4410    0.0000 N   0  0  0  0  0  0  0  0  0  0  0  0
   -3.2022   -2.5835    0.0000 N   0  0  0  0  0  0  0  0  0  0  0  0
    3.0102    0.0742    0.0000 S   0  0  0  0  0  0  0  0  0  0  0  0
    1.6019    0.6575    0.0000 C   0  0  0  0  0  0  0  0  0  0  0  0
    1.0185    0.0742    0.0000 C   0  0  0  0  0  0  0  0  0  0  0  0
    1.6019   -0.5092    0.0000 C   0  0  0  0  0  0  0  0  0  0  0  0
   -0.2190   -0.6403    0.0000 C   0  0  0  0  0  0  0  0  0  0  0  0
   -1.0440   -0.6403    0.0000 C   0  0  0  0  0  0  0  0  0  0  0  0
   -1.4565    1.5031    0.0000 C   0  0  0  0  0  0  0  0  0  0  0  0
   -1.4565   -1.3548    0.0000 C   0  0  0  0  0  0  0  0  0  0  0  0
   -1.1209   -2.1084    0.0000 C   0  0  0  0  0  0  0  0  0  0  0  0
   -2.4485   -2.2480    0.0000 C   0  0  0  0  0  0  0  0  0  0  0  0
   -2.1710    1.0906    0.0000 C   0  0  0  0  0  0  0  0  0  0  0  0
   -0.7420    1.9156    0.0000 C   0  0  0  0  0  0  0  0  0  0  0  0
   -1.8690    2.2176    0.0000 C   0  0  0  0  0  0  0  0  0  0  0  0
   -1.4565    2.9321    0.0000 O   0  0  0  0  0  0  0  0  0  0  0  0
   -2.6940    2.2176    0.0000 O   0  0  0  0  0  0  0  0  0  0  0  0
    3.8352    0.0742    0.0000 O   0  0  0  0  0  0  0  0  0  0  0  0
    3.0102   -0.7508    0.0000 O   0  0  0  0  0  0  0  0  0  0  0  0
    3.0102    0.8992    0.0000 O   0  0  0  0  0  0  0  0  0  0  0  0
 12  1  1  6
 19  2  1  0
 20  2  1  0
 14  3  2  0
 15  4  2  0
  8  5  1  0
 17  5  1  0
  6 11  1  0
 12  6  1  0
 14  6  1  0
 13  7  1  1
 15  7  1  0
 16  8  2  0
 18  9  1  0
 20  9  2  0
 20 10  1  0
 26 11  2  0
 27 11  2  0
 28 11  1  0
 12 13  1  0
 13 14  1  0
 15 16  1  0
 16 18  1  0
 17 21  1  0
 17 22  1  0
 17 23  1  0
 18 19  2  0
 23 24  1  0
 23 25  2  0
M  END
> <chembl_id>
CHEMBL158

> <chembl_pref_name>
AZTREONAM
