
     RDKit          2D

 23 26  0  0  1  0  0  0  0  0999 V2000
    5.9917   -4.2167    0.0000 C   0  0  0  0  0  0  0  0  0  0  0  0
    5.9750   -4.9375    0.0000 C   0  0  0  0  0  0  0  0  0  0  0  0
    5.3500   -5.2917    0.0000 C   0  0  0  0  0  0  0  0  0  0  0  0
    4.7417   -4.9375    0.0000 C   0  0  0  0  0  0  0  0  0  0  0  0
    4.1167   -5.2917    0.0000 C   0  0  0  0  0  0  0  0  0  0  0  0
    4.1042   -5.9875    0.0000 C   0  0  0  0  0  0  0  0  0  0  0  0
    5.3667   -3.8667    0.0000 C   0  0  0  0  0  0  0  0  0  0  0  0
    4.7417   -4.2125    0.0000 C   0  0  0  0  0  0  0  0  0  0  0  0
    5.3500   -6.0000    0.0000 C   0  0  0  0  0  0  0  0  0  0  0  0
    6.6542   -5.1667    0.0000 C   0  0  0  0  0  0  0  0  0  0  0  0
    3.5125   -4.9292    0.0000 C   0  0  0  0  0  0  0  0  0  0  0  0
    6.6625   -4.0167    0.0000 C   0  0  0  0  0  0  0  0  0  0  0  0
    4.7292   -6.3500    0.0000 C   0  0  0  0  0  0  0  0  0  0  0  0
    3.4917   -6.3375    0.0000 C   0  0  0  0  0  0  0  0  0  0  0  0
    7.0792   -4.5792    0.0000 C   0  0  0  0  0  0  0  0  0  0  0  0
    2.9000   -5.9792    0.0000 C   0  0  0  0  0  0  0  0  0  0  0  0
    2.9000   -5.2792    0.0000 C   0  0  0  0  0  0  0  0  0  0  0  0
    6.0625   -3.5167    0.0000 C   0  0  0  0  0  0  0  0  0  0  0  0
    6.9000   -3.3417    0.0000 O   0  0  0  0  0  0  0  0  0  0  0  0
    2.2792   -6.3125    0.0000 O   0  0  0  0  0  0  0  0  0  0  0  0
    5.9750   -5.6292    0.0000 H   0  0  0  0  0  0  0  0  0  0  0  0
    5.3292   -4.5417    0.0000 H   0  0  0  0  0  0  0  0  0  0  0  0
    4.7042   -5.6042    0.0000 H   0  0  0  0  0  0  0  0  0  0  0  0
  2  1  1  0
  3  2  1  0
  4  8  1  0
  5  4  1  0
  6  5  2  0
  7  1  1  0
  8  7  1  0
  9  3  1  0
 10  2  1  0
 11  5  1  0
 12  1  1  0
 13  9  1  0
 14  6  1  0
 15 12  1  0
 16 17  1  0
 17 11  2  0
  1 18  1  1
 12 19  1  1
 20 16  1  0
  2 21  1  6
  3 22  1  1
  4 23  1  6
 15 10  1  0
  4  3  1  0
  6 13  1  0
 16 14  2  0
M  END
> <chembl_id>
CHEMBL135

> <chembl_pref_name>
ESTRADIOL
