
     RDKit          2D

 22 22  0  0  1  0  0  0  0  0999 V2000
    4.2042   -4.2875    0.0000 C   0  0  0  0  0  0  0  0  0  0  0  0
    2.9667   -5.0167    0.0000 C   0  0  0  0  0  0  0  0  0  0  0  0
    2.9667   -4.3042    0.0000 C   0  0  0  0  0  0  0  0  0  0  0  0
    3.5875   -3.9292    0.0000 C   0  0  0  0  0  0  0  0  0  0  0  0
    4.8125   -3.9292    0.0000 C   0  0  0  0  0  0  0  0  0  0  0  0
    3.5875   -5.3750    0.0000 C   0  0  0  0  0  0  0  0  0  0  0  0
    2.3542   -5.3750    0.0000 N   0  0  0  0  0  0  0  0  0  0  0  0
    4.2042   -5.0167    0.0000 C   0  0  0  0  0  0  0  0  0  0  0  0
    2.3417   -6.0750    0.0000 C   0  0  0  0  0  0  0  0  0  0  0  0
    2.3667   -3.9542    0.0000 O   0  0  0  0  0  0  0  0  0  0  0  0
    4.8250   -3.2167    0.0000 O   0  0  0  0  0  0  0  0  0  0  0  0
    2.9667   -6.4292    0.0000 O   0  0  0  0  0  0  0  0  0  0  0  0
    3.5875   -6.0792    0.0000 N   0  0  0  0  0  0  0  0  0  0  0  0
    5.4500   -4.2875    0.0000 O   0  0  0  0  0  0  0  0  0  0  0  0
    1.7542   -4.3042    0.0000 C   0  0  0  0  0  0  0  0  0  0  0  0
    1.7500   -6.4125    0.0000 C   0  0  0  0  0  0  0  0  0  0  0  0
    6.0542   -3.9292    0.0000 C   0  0  0  0  0  0  0  0  0  0  0  0
    1.7625   -5.0167    0.0000 C   0  0  0  0  0  0  0  0  0  0  0  0
    1.1375   -3.9667    0.0000 C   0  0  0  0  0  0  0  0  0  0  0  0
    6.6792   -4.2875    0.0000 C   0  0  0  0  0  0  0  0  0  0  0  0
    0.5292   -4.3167    0.0000 C   0  0  0  0  0  0  0  0  0  0  0  0
    1.1792   -5.3417    0.0000 C   0  0  0  0  0  0  0  0  0  0  0  0
  2  6  1  0
  3  4  1  0
  4  1  2  0
  5  1  1  0
  6  8  1  0
  2  7  1  1
  8  1  1  0
  9  7  1  0
  3 10  1  6
 11  5  2  0
 12  9  2  0
  6 13  1  6
 14  5  1  0
 15 10  1  0
 16  9  1  0
 17 14  1  0
 18 15  1  0
 19 15  1  0
 20 17  1  0
 21 19  1  0
 22 18  1  0
  2  3  1  0
M  END
> <chembl_id>
CHEMBL1229

> <chembl_pref_name>
OSELTAMIVIR
