
     RDKit          2D

 21 23  0  0  1  0  0  0  0  0999 V2000
   -9.0275   -0.5426    0.0000 C   0  0  0  0  0  0  0  0  0  0  0  0
   -9.7420   -0.1301    0.0000 C   0  0  0  0  0  0  0  0  0  0  0  0
  -10.4565   -0.5426    0.0000 C   0  0  0  0  0  0  0  0  0  0  0  0
  -10.4565   -1.3676    0.0000 C   0  0  0  0  0  0  0  0  0  0  0  0
   -9.7420   -1.7801    0.0000 C   0  0  0  0  0  0  0  0  0  0  0  0
   -9.0275   -1.3676    0.0000 C   0  0  0  0  0  0  0  0  0  0  0  0
   -8.3130   -0.1301    0.0000 C   0  0  0  0  0  0  0  0  0  0  0  0
   -7.5986   -0.5426    0.0000 C   0  0  0  0  0  0  0  0  0  0  0  0
   -7.5986   -1.3676    0.0000 C   0  0  0  0  0  0  0  0  0  0  0  0
   -8.3131   -1.7801    0.0000 C   0  0  0  0  0  0  0  0  0  0  0  0
   -6.0884   -0.4837    0.0000 N   0  0  0  0  0  0  0  0  0  0  0  0
   -5.3518   -1.7507    0.0000 C   0  0  0  0  0  0  0  0  0  0  0  0
   -6.5009   -2.7524    0.0000 C   0  0  0  0  0  0  0  0  0  0  0  0
   -6.8841   -1.7801    0.0000 C   0  0  0  0  0  0  0  0  0  0  0  0
   -8.7144   -2.5009    0.0000 C   0  0  0  0  0  0  0  0  0  0  0  0
   -5.6910    0.2393    0.0000 C   0  0  0  0  0  0  0  0  0  0  0  0
   -4.8660    0.2393    0.0000 C   0  0  0  0  0  0  0  0  0  0  0  0
   -4.4535    0.9538    0.0000 C   0  0  0  0  0  0  0  0  0  0  0  0
   -3.6285    0.9538    0.0000 C   0  0  0  0  0  0  0  0  0  0  0  0
   -4.8660    1.6682    0.0000 C   0  0  0  0  0  0  0  0  0  0  0  0
  -11.1710   -1.7801    0.0000 O   0  0  0  0  0  0  0  0  0  0  0  0
  1  2  1  0
  2  3  2  0
  3  4  1  0
  4  5  2  0
  5  6  1  0
 10  6  1  0
  6  1  2  0
  1  7  1  0
  7  8  1  0
  8  9  1  0
  9 10  1  0
 10 13  1  0
 13 12  1  0
 12 11  1  0
  8 11  1  0
  9 14  1  0
 10 15  1  0
 11 16  1  0
 16 17  1  0
 17 18  2  0
 18 19  1  0
 18 20  1  0
  4 21  1  0
M  END
> <chembl_id>
CHEMBL100116

> <chembl_pref_name>
PENTAZOCINE
