
     RDKit          2D

 23 24  0  0  0  0  0  0  0  0999 V2000
   12.1574  -13.5500    0.0000 C   0  0  0  0  0  0  0  0  0  0  0  0
   11.7451  -14.2600    0.0000 N   0  0  0  0  0  0  0  0  0  0  0  0
   13.0186  -13.2476    0.0000 N   0  0  0  0  0  0  0  0  0  0  0  0
   12.2261  -12.1711    0.0000 N   0  0  0  0  0  0  0  0  0  0  0  0
   11.7451  -12.8445    0.0000 C   0  0  0  0  0  0  0  0  0  0  0  0
   13.0094  -12.4231    0.0000 C   0  0  0  0  0  0  0  0  0  0  0  0
   10.9343  -14.2600    0.0000 C   0  0  0  0  0  0  0  0  0  0  0  0
   10.5220  -13.5500    0.0000 N   0  0  0  0  0  0  0  0  0  0  0  0
   10.9298  -12.8445    0.0000 C   0  0  0  0  0  0  0  0  0  0  0  0
   17.3108  -13.2339    0.0000 C   0  0  0  0  0  0  0  0  0  0  0  0
   15.8678  -15.7350    0.0000 C   0  0  0  0  0  0  0  0  0  0  0  0
   13.7332  -13.6599    0.0000 C   0  0  0  0  0  0  0  0  0  0  0  0
   17.3063  -12.4094    0.0000 O   0  0  0  0  0  0  0  0  0  0  0  0
   15.1532  -16.1473    0.0000 O   0  0  0  0  0  0  0  0  0  0  0  0
   15.8678  -14.9105    0.0000 O   0  0  0  0  0  0  0  0  0  0  0  0
   16.5962  -13.6553    0.0000 O   0  0  0  0  0  0  0  0  0  0  0  0
   10.5175  -14.9792    0.0000 N   0  0  0  0  0  0  0  0  0  0  0  0
   15.1670  -13.6599    0.0000 C   0  0  0  0  0  0  0  0  0  0  0  0
   14.4478  -13.2476    0.0000 C   0  0  0  0  0  0  0  0  0  0  0  0
   15.1624  -14.4936    0.0000 C   0  0  0  0  0  0  0  0  0  0  0  0
   15.8771  -13.2476    0.0000 C   0  0  0  0  0  0  0  0  0  0  0  0
   16.5824  -16.1473    0.0000 C   0  0  0  0  0  0  0  0  0  0  0  0
   18.0346  -13.6462    0.0000 C   0  0  0  0  0  0  0  0  0  0  0  0
  2  1  1  0
  3  1  1  0
  4  5  1  0
  5  1  2  0
  6  3  1  0
  7  2  2  0
  8  9  2  0
  9  5  1  0
 10 16  1  0
 11 15  1  0
 12  3  1  0
 13 10  2  0
 14 11  2  0
 15 20  1  0
 16 21  1  0
 17  7  1  0
 18 19  1  0
 19 12  1  0
 20 18  1  0
 21 18  1  0
 22 11  1  0
 23 10  1  0
  4  6  2  0
  7  8  1  0
M  END
> <chembl_id>
CHEMBL880

> <chembl_pref_name>
FAMCICLOVIR
