
     RDKit          2D

 13 12  0  0  0  0  0  0  0  0999 V2000
    5.0292   -5.5167    0.0000 C   0  0  0  0  0  0  0  0  0  0  0  0
    5.6417   -5.8750    0.0000 C   0  0  0  0  0  0  0  0  0  0  0  0
    4.4167   -5.8750    0.0000 C   0  0  0  0  0  0  0  0  0  0  0  0
    4.6667   -4.9042    0.0000 C   0  0  0  0  0  0  0  0  0  0  0  0
    4.4125   -6.5792    0.0000 C   0  0  0  0  0  0  0  0  0  0  0  0
    6.2542   -5.5167    0.0000 C   0  0  0  0  0  0  0  0  0  0  0  0
    3.9625   -4.9042    0.0000 O   0  0  0  0  0  0  0  0  0  0  0  0
    6.2542   -4.8125    0.0000 O   0  0  0  0  0  0  0  0  0  0  0  0
    5.0167   -6.9417    0.0000 O   0  0  0  0  0  0  0  0  0  0  0  0
    5.3792   -4.9042    0.0000 O   0  0  0  0  0  0  0  0  0  0  0  0
    5.0167   -4.2875    0.0000 O   0  0  0  0  0  0  0  0  0  0  0  0
    6.8667   -5.8750    0.0000 O   0  0  0  0  0  0  0  0  0  0  0  0
    3.7917   -6.9292    0.0000 O   0  0  0  0  0  0  0  0  0  0  0  0
  2  1  1  0
  3  1  1  0
  4  1  1  0
  5  3  1  0
  6  2  1  0
  7  4  2  0
  8  6  2  0
  9  5  2  0
 10  1  1  0
 11  4  1  0
 12  6  1  0
 13  5  1  0
M  END
> <chembl_id>
CHEMBL1261

> <chembl_pref_name>
CITRIC ACID
