
     RDKit          2D

  6  5  0  0  0  0  0  0  0  0999 V2000
    0.0292    0.4833    0.0000 C   0  0  0  0  0  0  0  0  0  0  0  0
    0.0292   -0.9375    0.0000 O   0  0  0  0  0  0  0  0  0  0  0  0
   -2.4500    0.4833    0.0000 O   0  0  0  0  0  0  0  0  0  0  0  0
    2.5250    0.4833    0.0000 O   0  0  0  0  0  0  0  0  0  0  0  0
    1.2667    1.2000    0.0000 C   0  0  0  0  0  0  0  0  0  0  0  0
   -1.2000    1.2000    0.0000 C   0  0  0  0  0  0  0  0  0  0  0  0
  2  1  2  0
  3  6  1  0
  4  5  1  0
  5  1  1  0
  6  1  1  0
M  END
> <chembl_id>
CHEMBL1229937

> <chembl_pref_name>
DIHYDROXYACETONE
