
     RDKit          2D

 25 28  0  0  0  0  0  0  0  0999 V2000
    7.8339   -0.9532    0.0000 Br  0  0  0  0  0  0  0  0  0  0  0  0
    0.8121   -4.0605    0.0000 N   0  0  0  0  0  0  0  0  0  0  0  0
    1.5888   -3.5360    0.0000 C   0  0  0  0  0  0  0  0  0  0  0  0
    0.8337   -2.4096    0.0000 C   0  0  0  0  0  0  0  0  0  0  0  0
    1.5671   -2.8193    0.0000 C   0  0  0  0  0  0  0  0  0  0  0  0
    0.8121   -1.5566    0.0000 N   0  0  0  0  0  0  0  0  0  0  0  0
    2.3014   -2.4081    0.0000 C   0  0  0  0  0  0  0  0  0  0  0  0
    2.2930   -1.5653    0.0000 C   0  0  0  0  0  0  0  0  0  0  0  0
    1.5721   -1.1641    0.0000 C   0  0  0  0  0  0  0  0  0  0  0  0
    2.9778   -2.8085    0.0000 N   0  0  0  0  0  0  0  0  0  0  0  0
    2.2671   -4.0605    0.0000 O   0  0  0  0  0  0  0  0  0  0  0  0
    3.7528   -2.4094    0.0000 C   0  0  0  0  0  0  0  0  0  0  0  0
    3.7475   -1.5534    0.0000 C   0  0  0  0  0  0  0  0  0  0  0  0
    4.4820   -1.1239    0.0000 C   0  0  0  0  0  0  0  0  0  0  0  0
    5.1819   -1.5776    0.0000 C   0  0  0  0  0  0  0  0  0  0  0  0
    6.0907   -1.1166    0.0000 O   0  0  0  0  0  0  0  0  0  0  0  0
    4.4821   -2.7886    0.0000 C   0  0  0  0  0  0  0  0  0  0  0  0
    4.4630   -1.4794    0.0000 C   0  0  0  0  0  0  0  0  0  0  0  0
    4.5127   -1.9411    0.0000 C   0  0  0  0  0  0  0  0  0  0  0  0
    5.1641   -2.3468    0.0000 C   0  0  0  0  0  0  0  0  0  0  0  0
    4.1390   -2.3656    0.0000 C   0  0  0  0  0  0  0  0  0  0  0  0
    4.8840   -2.1360    0.0000 C   0  0  0  0  0  0  0  0  0  0  0  0
    1.7308   -0.3546    0.0000 N   0  0  0  0  0  0  0  0  0  0  0  0
    2.5499   -0.2553    0.0000 C   0  0  0  0  0  0  0  0  0  0  0  0
    2.8973   -1.0036    0.0000 C   0  0  0  0  0  0  0  0  0  0  0  0
  2  3  1  0
  3 11  2  0
  4  5  2  0
  5  7  1  0
  5  3  1  0
  6  4  1  0
  6  9  2  0
  7  8  2  0
  7 10  1  0
  9  8  1  0
 12 13  1  0
 13 14  1  0
 14 15  1  0
 15 16  1  0
 15 20  1  0
 20 17  1  0
 17 12  1  0
 12 10  1  1
 18 19  1  0
 19 21  1  0
 13 18  1  1
 17 21  1  1
 15 22  1  1
 19 22  1  0
 23 24  1  0
 24 25  2  0
  8 25  1  0
  9 23  1  0
M  END
> <chembl_id>
CHEMBL3137329

> <chembl_pref_name>
PEFICITINIB HYDROBROMIDE
