
     RDKit          2D

 16 16  0  0  0  0  0  0  0  0999 V2000
    5.6750   -8.1500    0.0000 C   0  0  0  0  0  0  0  0  0  0  0  0
    5.0542   -7.0792    0.0000 C   0  0  0  0  0  0  0  0  0  0  0  0
    5.0292   -7.7917    0.0000 C   0  0  0  0  0  0  0  0  0  0  0  0
    6.2792   -7.7917    0.0000 N   0  0  0  0  0  0  0  0  0  0  0  0
    5.6750   -6.7375    0.0000 N   0  0  0  0  0  0  0  0  0  0  0  0
    6.2750   -7.0917    0.0000 C   0  0  0  0  0  0  0  0  0  0  0  0
    4.4417   -6.7125    0.0000 O   0  0  0  0  0  0  0  0  0  0  0  0
    5.6792   -8.8667    0.0000 O   0  0  0  0  0  0  0  0  0  0  0  0
    6.8917   -6.7417    0.0000 O   0  0  0  0  0  0  0  0  0  0  0  0
    4.6792   -8.4125    0.0000 C   0  0  0  0  0  0  0  0  0  0  0  0
    3.9667   -7.1792    0.0000 C   0  0  0  0  0  0  0  0  0  0  0  0
    4.3292   -7.7917    0.0000 C   0  0  0  0  0  0  0  0  0  0  0  0
    3.2625   -7.1875    0.0000 C   0  0  0  0  0  0  0  0  0  0  0  0
    3.9792   -8.4167    0.0000 C   0  0  0  0  0  0  0  0  0  0  0  0
    5.0500   -9.0167    0.0000 C   0  0  0  0  0  0  0  0  0  0  0  0
    3.6292   -9.0375    0.0000 C   0  0  0  0  0  0  0  0  0  0  0  0
  2  3  1  0
  3  1  1  0
  4  1  1  0
  5  6  1  0
  6  4  1  0
  7  2  2  0
  8  1  2  0
  9  6  2  0
 10  3  1  0
 11 12  1  0
 12  3  1  0
 13 11  2  0
 14 10  1  0
 15 10  1  0
 16 14  1  0
  5  2  1  0
M  END
> <chembl_id>
CHEMBL1200802

> <chembl_pref_name>
TALBUTAL
