
     RDKit          2D

 23 25  0  0  0  0  0  0  0  0999 V2000
    1.0292    0.4583    0.0000 C   0  0  0  0  0  0  0  0  0  0  0  0
    0.4125    0.1000    0.0000 C   0  0  0  0  0  0  0  0  0  0  0  0
    1.0292    1.1708    0.0000 C   0  0  0  0  0  0  0  0  0  0  0  0
    1.6375    0.1000    0.0000 C   0  0  0  0  0  0  0  0  0  0  0  0
    0.4125    1.5250    0.0000 O   0  0  0  0  0  0  0  0  0  0  0  0
   -0.2083    0.4583    0.0000 C   0  0  0  0  0  0  0  0  0  0  0  0
   -0.2083    1.1708    0.0000 C   0  0  0  0  0  0  0  0  0  0  0  0
    0.4125   -0.6042    0.0000 O   0  0  0  0  0  0  0  0  0  0  0  0
    1.6375    1.5250    0.0000 O   0  0  0  0  0  0  0  0  0  0  0  0
    2.2542    0.4583    0.0000 C   0  0  0  0  0  0  0  0  0  0  0  0
    1.6375   -0.6042    0.0000 C   0  0  0  0  0  0  0  0  0  0  0  0
    2.8625    0.1083    0.0000 C   0  0  0  0  0  0  0  0  0  0  0  0
    2.8417   -0.6042    0.0000 O   0  0  0  0  0  0  0  0  0  0  0  0
   -0.8208    0.1000    0.0000 C   0  0  0  0  0  0  0  0  0  0  0  0
   -0.8208    1.5250    0.0000 C   0  0  0  0  0  0  0  0  0  0  0  0
    2.2542   -0.9667    0.0000 C   0  0  0  0  0  0  0  0  0  0  0  0
    1.0292   -0.9667    0.0000 C   0  0  0  0  0  0  0  0  0  0  0  0
    3.4792    0.4500    0.0000 C   0  0  0  0  0  0  0  0  0  0  0  0
   -1.4333    0.4583    0.0000 C   0  0  0  0  0  0  0  0  0  0  0  0
   -1.4333    1.1708    0.0000 C   0  0  0  0  0  0  0  0  0  0  0  0
    2.2542   -1.6792    0.0000 C   0  0  0  0  0  0  0  0  0  0  0  0
    1.0292   -1.6792    0.0000 C   0  0  0  0  0  0  0  0  0  0  0  0
    1.6375   -2.0292    0.0000 C   0  0  0  0  0  0  0  0  0  0  0  0
  2  1  2  0
  3  1  1  0
  4  1  1  0
  5  3  1  0
  6  2  1  0
  7  5  1  0
  8  2  1  0
  9  3  2  0
 10  4  1  0
 11  4  1  0
 12 10  1  0
 13 12  2  0
 14  6  1  0
 15  7  1  0
 16 11  2  0
 17 11  1  0
 18 12  1  0
 19 14  2  0
 20 15  2  0
 21 16  1  0
 22 17  2  0
 23 21  2  0
  6  7  2  0
 22 23  1  0
 19 20  1  0
M  END
> <chembl_id>
CHEMBL1464

> <chembl_pref_name>
WARFARIN
