
     RDKit          2D

 26 28  0  0  0  0  0  0  0  0999 V2000
    3.4375   -5.0917    0.0000 C   0  0  0  0  0  0  0  0  0  0  0  0
    2.8292   -4.7542    0.0000 N   0  0  0  0  0  0  0  0  0  0  0  0
    1.5667   -2.6500    0.0000 N   0  0  0  0  0  0  0  0  0  0  0  0
    2.2042   -5.1125    0.0000 C   0  0  0  0  0  0  0  0  0  0  0  0
    4.0417   -4.7625    0.0000 C   0  0  0  0  0  0  0  0  0  0  0  0
    3.4042   -5.8125    0.0000 O   0  0  0  0  0  0  0  0  0  0  0  0
    0.9667   -3.0042    0.0000 C   0  0  0  0  0  0  0  0  0  0  0  0
    1.6125   -4.7667    0.0000 C   0  0  0  0  0  0  0  0  0  0  0  0
    1.6000   -4.0667    0.0000 C   0  0  0  0  0  0  0  0  0  0  0  0
    0.9750   -3.7167    0.0000 C   0  0  0  0  0  0  0  0  0  0  0  0
    4.0500   -4.0667    0.0000 C   0  0  0  0  0  0  0  0  0  0  0  0
    4.6542   -5.1167    0.0000 C   0  0  0  0  0  0  0  0  0  0  0  0
    5.2792   -4.0667    0.0000 C   0  0  0  0  0  0  0  0  0  0  0  0
    5.2542   -4.7875    0.0000 C   0  0  0  0  0  0  0  0  0  0  0  0
    4.6667   -3.7167    0.0000 C   0  0  0  0  0  0  0  0  0  0  0  0
    2.1792   -2.9917    0.0000 C   0  0  0  0  0  0  0  0  0  0  0  0
    1.5375   -1.9292    0.0000 C   0  0  0  0  0  0  0  0  0  0  0  0
    5.9000   -3.7542    0.0000 O   0  0  0  0  0  0  0  0  0  0  0  0
    2.2042   -5.8167    0.0000 C   0  0  0  0  0  0  0  0  0  0  0  0
    0.9792   -5.1292    0.0000 C   0  0  0  0  0  0  0  0  0  0  0  0
    0.2625   -2.6042    0.0000 C   0  0  0  0  0  0  0  0  0  0  0  0
    6.5042   -4.1125    0.0000 C   0  0  0  0  0  0  0  0  0  0  0  0
    0.8750   -1.5542    0.0000 C   0  0  0  0  0  0  0  0  0  0  0  0
    1.6000   -6.1750    0.0000 C   0  0  0  0  0  0  0  0  0  0  0  0
    0.9917   -5.8292    0.0000 C   0  0  0  0  0  0  0  0  0  0  0  0
    0.2292   -1.9250    0.0000 C   0  0  0  0  0  0  0  0  0  0  0  0
  2  1  1  0
  3  7  1  0
  4  2  1  0
  5  1  1  0
  6  1  2  0
  7 10  1  0
  8  4  2  0
  9  8  1  0
 10  9  1  0
 11  5  2  0
 12  5  1  0
 13 14  1  0
 14 12  2  0
 15 11  1  0
 16  3  1  0
 17  3  1  0
 18 13  1  0
 19  4  1  0
 20  8  1  0
 21  7  1  0
 22 18  1  0
 23 26  1  0
 24 19  2  0
 25 24  1  0
 26 21  1  0
 15 13  2  0
 20 25  2  0
 17 23  1  0
M  END
> <chembl_id>
CHEMBL315838

> <chembl_pref_name>
ENCAINIDE
