
     RDKit          2D

 20 21  0  0  0  0  0  0  0  0999 V2000
   -4.8045    1.0511    0.0000 C   0  0  0  0  0  0  0  0  0  0  0  0
   -5.2894    0.3837    0.0000 C   0  0  0  0  0  0  0  0  0  0  0  0
   -4.8045   -0.2837    0.0000 C   0  0  0  0  0  0  0  0  0  0  0  0
   -4.0199   -0.0288    0.0000 C   0  0  0  0  0  0  0  0  0  0  0  0
   -4.0199    0.7962    0.0000 S   0  0  0  0  0  0  0  0  0  0  0  0
   -3.3524   -0.5137    0.0000 C   0  0  0  0  0  0  0  0  0  0  0  0
   -2.5987   -0.1781    0.0000 C   0  0  0  0  0  0  0  0  0  0  0  0
   -2.5987    0.6469    0.0000 O   0  0  0  0  0  0  0  0  0  0  0  0
   -1.9068   -0.6275    0.0000 N   0  0  0  0  0  0  0  0  0  0  0  0
   -1.1532   -0.2919    0.0000 C   0  0  0  0  0  0  0  0  0  0  0  0
   -0.4387    0.9456    0.0000 C   0  0  0  0  0  0  0  0  0  0  0  0
   -1.1532    0.5331    0.0000 C   0  0  0  0  0  0  0  0  0  0  0  0
   -0.4387   -0.7044    0.0000 B   0  0  0  0  0  0  0  0  0  0  0  0
    0.2758   -0.2919    0.0000 O   0  0  0  0  0  0  0  0  0  0  0  0
    0.2758    0.5331    0.0000 C   0  0  0  0  0  0  0  0  0  0  0  0
    0.9902    0.9456    0.0000 C   0  0  0  0  0  0  0  0  0  0  0  0
    1.6821    0.4963    0.0000 C   0  0  0  0  0  0  0  0  0  0  0  0
   -0.3955   -1.5283    0.0000 O   0  0  0  0  0  0  0  0  0  0  0  0
    2.4172    0.8708    0.0000 O   0  0  0  0  0  0  0  0  0  0  0  0
    1.6390   -0.3276    0.0000 O   0  0  0  0  0  0  0  0  0  0  0  0
  1  2  2  0
  2  3  1  0
  3  4  2  0
  4  5  1  0
  1  5  1  0
  4  6  1  0
  6  7  1  0
  7  8  2  0
  7  9  1  0
 10  9  1  1
 11 12  1  0
 13 14  1  0
 14 15  1  0
 11 15  1  0
 12 10  1  0
 10 13  1  0
 15 16  1  1
 16 17  1  0
 13 18  1  0
 17 19  2  0
 17 20  1  0
M  END
> <chembl_id>
CHEMBL3317857

> <chembl_pref_name>
VABORBACTAM
