
     RDKit          2D

 14 15  0  0  0  0  0  0  0  0999 V2000
    0.7042    0.1750    0.0000 N   0  0  0  0  0  0  0  0  0  0  0  0
    1.4167   -1.0542    0.0000 C   0  0  0  0  0  0  0  0  0  0  0  0
    1.4167    1.4125    0.0000 C   0  0  0  0  0  0  0  0  0  0  0  0
    2.8542   -1.0542    0.0000 C   0  0  0  0  0  0  0  0  0  0  0  0
    2.8542    1.4125    0.0000 C   0  0  0  0  0  0  0  0  0  0  0  0
    3.5792    0.1750    0.0000 C   0  0  0  0  0  0  0  0  0  0  0  0
   -0.7083    0.1750    0.0000 C   0  0  0  0  0  0  0  0  0  0  0  0
    0.7042   -2.3000    0.0000 O   0  0  0  0  0  0  0  0  0  0  0  0
    3.5625    2.6583    0.0000 C   0  0  0  0  0  0  0  0  0  0  0  0
   -1.4250    1.4125    0.0000 C   0  0  0  0  0  0  0  0  0  0  0  0
   -1.4250   -1.0542    0.0000 C   0  0  0  0  0  0  0  0  0  0  0  0
   -2.8625   -1.0542    0.0000 C   0  0  0  0  0  0  0  0  0  0  0  0
   -2.8625    1.4125    0.0000 C   0  0  0  0  0  0  0  0  0  0  0  0
   -3.5875    0.1750    0.0000 C   0  0  0  0  0  0  0  0  0  0  0  0
  2  1  1  0
  3  1  1  0
  4  2  1  0
  5  3  2  0
  6  5  1  0
  7  1  1  0
  8  2  2  0
  9  5  1  0
 10  7  2  0
 11  7  1  0
 12 11  2  0
 13 10  1  0
 14 12  1  0
  4  6  2  0
 13 14  2  0
M  END
> <chembl_id>
CHEMBL1256391

> <chembl_pref_name>
PIRFENIDONE
