
     RDKit          2D

 28 31  0  0  0  0  0  0  0  0999 V2000
    0.1167   -0.1667    0.0000 C   0  0  0  0  0  0  0  0  0  0  0  0
    0.7250   -0.6125    0.0000 N   0  0  0  0  0  0  0  0  0  0  0  0
    1.3292   -0.1667    0.0000 C   0  0  0  0  0  0  0  0  0  0  0  0
    0.3500    0.5458    0.0000 N   0  0  0  0  0  0  0  0  0  0  0  0
    1.1000    0.5458    0.0000 N   0  0  0  0  0  0  0  0  0  0  0  0
   -0.5583   -0.5542    0.0000 C   0  0  0  0  0  0  0  0  0  0  0  0
    2.0000   -0.5542    0.0000 C   0  0  0  0  0  0  0  0  0  0  0  0
   -0.3250    0.9333    0.0000 C   0  0  0  0  0  0  0  0  0  0  0  0
   -2.3458    2.1083    0.0000 C   0  0  0  0  0  0  0  0  0  0  0  0
   -0.5625   -1.3292    0.0000 C   0  0  0  0  0  0  0  0  0  0  0  0
   -1.6750    1.7208    0.0000 C   0  0  0  0  0  0  0  0  0  0  0  0
    1.9917   -1.3292    0.0000 C   0  0  0  0  0  0  0  0  0  0  0  0
   -2.3458    2.8958    0.0000 O   0  0  0  0  0  0  0  0  0  0  0  0
   -1.0000    0.5458    0.0000 C   0  0  0  0  0  0  0  0  0  0  0  0
   -0.3208    1.7208    0.0000 C   0  0  0  0  0  0  0  0  0  0  0  0
   -1.6708    0.9333    0.0000 C   0  0  0  0  0  0  0  0  0  0  0  0
   -0.9958    2.1083    0.0000 C   0  0  0  0  0  0  0  0  0  0  0  0
   -3.0208    1.7208    0.0000 O   0  0  0  0  0  0  0  0  0  0  0  0
   -1.2333   -0.1542    0.0000 C   0  0  0  0  0  0  0  0  0  0  0  0
    0.1167   -1.7167    0.0000 O   0  0  0  0  0  0  0  0  0  0  0  0
    1.3167   -1.7167    0.0000 O   0  0  0  0  0  0  0  0  0  0  0  0
    2.6625   -0.1750    0.0000 C   0  0  0  0  0  0  0  0  0  0  0  0
   -1.2333   -1.7167    0.0000 C   0  0  0  0  0  0  0  0  0  0  0  0
    2.6625   -1.7167    0.0000 C   0  0  0  0  0  0  0  0  0  0  0  0
   -1.9083   -0.5417    0.0000 C   0  0  0  0  0  0  0  0  0  0  0  0
    3.3292   -0.5542    0.0000 C   0  0  0  0  0  0  0  0  0  0  0  0
   -1.9125   -1.3292    0.0000 C   0  0  0  0  0  0  0  0  0  0  0  0
    3.3292   -1.3292    0.0000 C   0  0  0  0  0  0  0  0  0  0  0  0
  2  1  2  0
  3  2  1  0
  4  1  1  0
  5  4  1  0
  6  1  1  0
  7  3  1  0
  8  4  1  0
  9 11  1  0
 10  6  1  0
 11 17  2  0
 12  7  2  0
 13  9  2  0
 14  8  1  0
 15  8  2  0
 16 14  2  0
 17 15  1  0
 18  9  1  0
 19  6  2  0
 20 10  1  0
 21 12  1  0
 22  7  1  0
 23 10  2  0
 24 12  1  0
 25 19  1  0
 26 22  2  0
 27 25  2  0
 28 26  1  0
  5  3  2  0
 23 27  1  0
 16 11  1  0
 24 28  2  0
M  END
> <chembl_id>
CHEMBL550348

> <chembl_pref_name>
DEFERASIROX
