
     RDKit          2D

 29 32  0  0  0  0  0  0  0  0999 V2000
   -2.1708    0.7708    0.0000 N   0  0  0  0  0  0  0  0  0  0  0  0
   -2.6958    1.7375    0.0000 C   0  0  0  0  0  0  0  0  0  0  0  0
   -1.1000   -1.0792    0.0000 N   0  0  0  0  0  0  0  0  0  0  0  0
    2.1792    0.8000    0.0000 C   0  0  0  0  0  0  0  0  0  0  0  0
    1.0792    0.8000    0.0000 C   0  0  0  0  0  0  0  0  0  0  0  0
    0.5292   -0.1500    0.0000 O   0  0  0  0  0  0  0  0  0  0  0  0
   -1.0458    0.7708    0.0000 C   0  0  0  0  0  0  0  0  0  0  0  0
   -2.7125   -0.1792    0.0000 C   0  0  0  0  0  0  0  0  0  0  0  0
   -2.2208    2.6458    0.0000 C   0  0  0  0  0  0  0  0  0  0  0  0
   -0.5375   -2.2167    0.0000 C   0  0  0  0  0  0  0  0  0  0  0  0
   -2.1500   -1.1167    0.0000 C   0  0  0  0  0  0  0  0  0  0  0  0
   -0.5708   -0.1667    0.0000 C   0  0  0  0  0  0  0  0  0  0  0  0
    2.6750    1.7375    0.0000 C   0  0  0  0  0  0  0  0  0  0  0  0
    0.7875   -2.2167    0.0000 C   0  0  0  0  0  0  0  0  0  0  0  0
    1.3000   -1.0667    0.0000 C   0  0  0  0  0  0  0  0  0  0  0  0
   -1.0333    2.6208    0.0000 O   0  0  0  0  0  0  0  0  0  0  0  0
    1.7042   -3.2917    0.0000 O   0  0  0  0  0  0  0  0  0  0  0  0
   -3.8000    1.7375    0.0000 C   0  0  0  0  0  0  0  0  0  0  0  0
    1.0542    2.6875    0.0000 C   0  0  0  0  0  0  0  0  0  0  0  0
    0.5000    1.7000    0.0000 C   0  0  0  0  0  0  0  0  0  0  0  0
    2.7417   -0.1500    0.0000 C   0  0  0  0  0  0  0  0  0  0  0  0
    2.1125    2.7083    0.0000 C   0  0  0  0  0  0  0  0  0  0  0  0
   -2.6625    3.5708    0.0000 C   0  0  0  0  0  0  0  0  0  0  0  0
    3.7792    1.7583    0.0000 C   0  0  0  0  0  0  0  0  0  0  0  0
   -0.5375    3.5708    0.0000 C   0  0  0  0  0  0  0  0  0  0  0  0
   -4.3458    2.6458    0.0000 C   0  0  0  0  0  0  0  0  0  0  0  0
    3.8000   -0.1292    0.0000 C   0  0  0  0  0  0  0  0  0  0  0  0
   -3.8208    3.5583    0.0000 C   0  0  0  0  0  0  0  0  0  0  0  0
    4.3417    0.8500    0.0000 C   0  0  0  0  0  0  0  0  0  0  0  0
  2  1  1  0
  3 11  1  0
  4  5  1  0
  5  6  1  0
  6 15  1  0
  7  1  1  0
  8  1  1  0
  9  2  2  0
 10  3  1  0
 11  8  1  0
 12  7  1  0
 13  4  1  0
 14 10  1  0
 15 14  1  0
 16  9  1  0
 17 14  1  0
 18  2  1  0
 19 20  1  0
 20  5  2  0
 21  4  2  0
 22 19  2  0
 23  9  1  0
 24 13  2  0
 25 16  1  0
 26 18  2  0
 27 21  1  0
 28 26  1  0
 29 27  2  0
  3 12  1  0
 23 28  2  0
 13 22  1  0
 24 29  1  0
M  END
> <chembl_id>
CHEMBL142635

> <chembl_pref_name>
NAFTOPIDIL
