
     RDKit          2D

 18 15  0  0  0  0  0  0  0  0999 V2000
    3.2946   -0.8571    0.0000 O   0  0  0  0  0  0  0  0  0  0  0  0
   -2.0348    1.2167    0.0000 C   0  0  0  0  0  0  0  0  0  0  0  0
   -2.0359    0.3893    0.0000 C   0  0  0  0  0  0  0  0  0  0  0  0
   -1.3211   -0.0235    0.0000 C   0  0  0  0  0  0  0  0  0  0  0  0
   -0.6047    0.3898    0.0000 C   0  0  0  0  0  0  0  0  0  0  0  0
   -0.6075    1.2203    0.0000 C   0  0  0  0  0  0  0  0  0  0  0  0
   -1.3229    1.6295    0.0000 C   0  0  0  0  0  0  0  0  0  0  0  0
    0.1054    1.6355    0.0000 C   0  0  0  0  0  0  0  0  0  0  0  0
    0.8214    1.2257    0.0000 C   0  0  0  0  0  0  0  0  0  0  0  0
    0.1023    2.4605    0.0000 C   0  0  0  0  0  0  0  0  0  0  0  0
    0.8245    0.4007    0.0000 O   0  0  0  0  0  0  0  0  0  0  0  0
    1.5343    1.6409    0.0000 O   0  0  0  0  0  0  0  0  0  0  0  0
   -2.7507   -0.0226    0.0000 C   0  0  0  0  0  0  0  0  0  0  0  0
   -3.4649    0.3905    0.0000 C   0  0  0  0  0  0  0  0  0  0  0  0
   -4.1797   -0.0215    0.0000 C   0  0  0  0  0  0  0  0  0  0  0  0
   -3.4642    1.2155    0.0000 C   0  0  0  0  0  0  0  0  0  0  0  0
    2.2083    1.0333    0.0000 Na  0  0  0  0  0 15  0  0  0  0  0  0
    1.8750   -1.1518    0.0000 O   0  0  0  0  0  0  0  0  0  0  0  0
  8  9  1  0
  4  5  2  0
  8 10  1  0
  2  3  2  0
  9 11  2  0
  5  6  1  0
  9 12  1  0
  3 13  1  0
  6  7  2  0
 13 14  1  0
  7  2  1  0
 14 15  1  0
  3  4  1  0
 14 16  1  0
  6  8  1  0
M  CHG  2  12  -1  17   1
M  END
> <chembl_id>
CHEMBL3989408

> <chembl_pref_name>
IBUPROFEN SODIUM
