
     RDKit          2D

 25 29  0  0  0  0  0  0  0  0999 V2000
    0.3276   -0.2204    0.0000 C   0  0  0  0  0  0  0  0  0  0  0  0
    1.0417    1.0173    0.0000 C   0  0  0  0  0  0  0  0  0  0  0  0
    1.0420    0.1923    0.0000 C   0  0  0  0  0  0  0  0  0  0  0  0
   -0.3397   -0.7055    0.0000 C   0  0  0  0  0  0  0  0  0  0  0  0
    0.3271    1.4296    0.0000 O   0  0  0  0  0  0  0  0  0  0  0  0
   -0.3872    1.0169    0.0000 C   0  0  0  0  0  0  0  0  0  0  0  0
   -0.3870    0.1919    0.0000 C   0  0  0  0  0  0  0  0  0  0  0  0
    1.7561    1.4300    0.0000 C   0  0  0  0  0  0  0  0  0  0  0  0
    1.7566   -0.2200    0.0000 C   0  0  0  0  0  0  0  0  0  0  0  0
   -0.0845   -1.4900    0.0000 C   0  0  0  0  0  0  0  0  0  0  0  0
    0.7405   -1.4898    0.0000 C   0  0  0  0  0  0  0  0  0  0  0  0
   -1.1018    1.4292    0.0000 C   0  0  0  0  0  0  0  0  0  0  0  0
    2.4709    0.1928    0.0000 C   0  0  0  0  0  0  0  0  0  0  0  0
    2.4707    1.0178    0.0000 C   0  0  0  0  0  0  0  0  0  0  0  0
   -1.1013   -0.2208    0.0000 C   0  0  0  0  0  0  0  0  0  0  0  0
    0.9952   -0.7051    0.0000 O   0  0  0  0  0  0  0  0  0  0  0  0
    1.2256   -2.1571    0.0000 O   0  0  0  0  0  0  0  0  0  0  0  0
   -1.8162    1.0165    0.0000 C   0  0  0  0  0  0  0  0  0  0  0  0
   -2.5307    1.4288    0.0000 O   0  0  0  0  0  0  0  0  0  0  0  0
    3.1850    1.4305    0.0000 O   0  0  0  0  0  0  0  0  0  0  0  0
   -1.8159    0.1915    0.0000 C   0  0  0  0  0  0  0  0  0  0  0  0
   -1.1467   -0.5342    0.0000 C   0  0  0  0  0  0  0  0  0  0  0  0
   -0.6364   -2.1033    0.0000 C   0  0  0  0  0  0  0  0  0  0  0  0
   -1.6986   -1.1474    0.0000 C   0  0  0  0  0  0  0  0  0  0  0  0
   -1.4434   -1.9320    0.0000 C   0  0  0  0  0  0  0  0  0  0  0  0
  2  3  1  0
  3  1  1  0
  4  1  1  0
  5  6  1  0
  6  7  2  0
  7  1  1  0
  8  2  2  0
  9  3  1  0
 10  4  2  0
 11 10  1  0
 12  6  1  0
 13  9  2  0
 14 13  1  0
 15  7  1  0
 16 11  1  0
 17 11  2  0
 18 21  1  0
 19 18  1  0
 20 14  2  0
 21 15  2  0
 22  4  1  0
 23 10  1  0
 24 22  2  0
 25 24  1  0
  2  5  1  0
 12 18  2  0
 23 25  2  0
  8 14  1  0
 16  1  1  0
M  END
> <chembl_id>
CHEMBL4297067

> <chembl_pref_name>
FLUORESCEIN
