
     RDKit          2D

 20 22  0  0  0  0  0  0  0  0999 V2000
   17.5036    0.6953    0.0000 C   0  0  0  0  0  0  0  0  0  0  0  0
   17.9308    1.4011    0.0000 C   0  0  0  0  0  0  0  0  0  0  0  0
   18.3293    0.6905    0.0000 C   0  0  0  0  0  0  0  0  0  0  0  0
   16.8697    0.2872    0.0000 C   0  0  0  0  0  0  0  0  0  0  0  0
   19.0496    0.2728    0.0000 N   0  0  0  0  0  0  0  0  0  0  0  0
   16.1685    0.7097    0.0000 C   0  0  0  0  0  0  0  0  0  0  0  0
   16.8504   -0.5388    0.0000 C   0  0  0  0  0  0  0  0  0  0  0  0
   16.1446   -0.9517    0.0000 C   0  0  0  0  0  0  0  0  0  0  0  0
   15.4387    0.3063    0.0000 C   0  0  0  0  0  0  0  0  0  0  0  0
   15.4387   -0.5293    0.0000 C   0  0  0  0  0  0  0  0  0  0  0  0
   16.8741    3.3179    0.0000 C   0  0  0  0  0  0  0  0  0  0  0  0
   17.3013    4.0237    0.0000 C   0  0  0  0  0  0  0  0  0  0  0  0
   17.7000    3.3132    0.0000 C   0  0  0  0  0  0  0  0  0  0  0  0
   16.2403    2.9098    0.0000 C   0  0  0  0  0  0  0  0  0  0  0  0
   18.4201    2.8954    0.0000 N   0  0  0  0  0  0  0  0  0  0  0  0
   15.5391    3.3323    0.0000 C   0  0  0  0  0  0  0  0  0  0  0  0
   16.2210    2.0839    0.0000 C   0  0  0  0  0  0  0  0  0  0  0  0
   15.5152    1.6709    0.0000 C   0  0  0  0  0  0  0  0  0  0  0  0
   14.8092    2.9289    0.0000 C   0  0  0  0  0  0  0  0  0  0  0  0
   14.8092    2.0934    0.0000 C   0  0  0  0  0  0  0  0  0  0  0  0
  2  1  1  0
  3  1  1  0
  1  4  1  1
  3  5  1  6
  6  4  2  0
  7  4  1  0
  8  7  2  0
  9  6  1  0
 10  9  2  0
  3  2  1  0
  8 10  1  0
 12 11  1  0
 13 11  1  0
 11 14  1  6
 13 15  1  1
 16 14  2  0
 17 14  1  0
 18 17  2  0
 19 16  1  0
 20 19  2  0
 13 12  1  0
 18 20  1  0
M  END
> <chembl_id>
CHEMBL3989843

> <chembl_pref_name>
TRANYLCYPROMINE
