
     RDKit          2D

 26 27  0  0  0  0  0  0  0  0999 V2000
   -6.1286    3.4179    0.0000 C   0  0  0  0  0  0  0  0  0  0  0  0
   -6.8431    3.0054    0.0000 C   0  0  0  0  0  0  0  0  0  0  0  0
   -6.8431    2.1804    0.0000 C   0  0  0  0  0  0  0  0  0  0  0  0
   -6.1286    1.7679    0.0000 C   0  0  0  0  0  0  0  0  0  0  0  0
   -5.4141    2.1804    0.0000 C   0  0  0  0  0  0  0  0  0  0  0  0
   -5.4141    3.0054    0.0000 C   0  0  0  0  0  0  0  0  0  0  0  0
   -7.5575    3.4179    0.0000 N   0  0  0  0  0  0  0  0  0  0  0  0
   -8.2720    3.0054    0.0000 C   0  0  0  0  0  0  0  0  0  0  0  0
   -4.6996    1.7679    0.0000 C   0  0  0  0  0  0  0  0  0  0  0  0
   -3.9851    2.1804    0.0000 C   0  0  0  0  0  0  0  0  0  0  0  0
   -3.2707    1.7679    0.0000 C   0  0  0  0  0  0  0  0  0  0  0  0
   -3.2707    0.9428    0.0000 C   0  0  0  0  0  0  0  0  0  0  0  0
   -2.5562    0.5303    0.0000 N   0  0  0  0  0  0  0  0  0  0  0  0
   -1.8417    0.9429    0.0000 C   0  0  0  0  0  0  0  0  0  0  0  0
   -1.8417    1.7679    0.0000 C   0  0  0  0  0  0  0  0  0  0  0  0
   -2.5562    2.1804    0.0000 C   0  0  0  0  0  0  0  0  0  0  0  0
   -1.1272    0.5304    0.0000 O   0  0  0  0  0  0  0  0  0  0  0  0
   -0.4128    0.9429    0.0000 C   0  0  0  0  0  0  0  0  0  0  0  0
    0.3017    0.5304    0.0000 C   0  0  0  0  0  0  0  0  0  0  0  0
    1.0162    0.9429    0.0000 O   0  0  0  0  0  0  0  0  0  0  0  0
    1.7306    0.5304    0.0000 C   0  0  0  0  0  0  0  0  0  0  0  0
    2.4451    0.9429    0.0000 C   0  0  0  0  0  0  0  0  0  0  0  0
    3.1596    0.5304    0.0000 O   0  0  0  0  0  0  0  0  0  0  0  0
    3.8740    0.9429    0.0000 C   0  0  0  0  0  0  0  0  0  0  0  0
    4.5885    0.5304    0.0000 C   0  0  0  0  0  0  0  0  0  0  0  0
    5.3030    0.9429    0.0000 F   0  0  0  0  0  0  0  0  0  0  0  0
  1  2  1  0
  1  6  2  0
  2  3  2  0
  3  4  1  0
  4  5  2  0
  5  6  1  0
  2  7  1  0
  7  8  1  0
  5  9  1  0
  9 10  2  0
 10 11  1  0
 11 12  1  0
 11 16  2  0
 12 13  2  0
 13 14  1  0
 14 15  2  0
 15 16  1  0
 14 17  1  0
 17 18  1  0
 18 19  1  0
 19 20  1  0
 20 21  1  0
 21 22  1  0
 22 23  1  0
 23 24  1  0
 24 25  1  0
 25 26  1  0
M  END
> <chembl_id>
CHEMBL1908919

> <chembl_pref_name>
FLORBETAPIR
