
     RDKit          2D

 16 17  0  0  0  0  0  0  0  0999 V2000
   -0.2333   -3.7042    0.0000 C   0  0  0  0  0  0  0  0  0  0  0  0
   -0.8500   -3.3417    0.0000 N   0  0  0  0  0  0  0  0  0  0  0  0
    3.3292   -3.6000    0.0000 C   0  0  0  0  0  0  0  0  0  0  0  0
    2.7500   -3.1917    0.0000 N   0  0  0  0  0  0  0  0  0  0  0  0
    0.3292   -3.2667    0.0000 O   0  0  0  0  0  0  0  0  0  0  0  0
    2.1500   -3.5792    0.0000 N   0  0  0  0  0  0  0  0  0  0  0  0
    0.0167   -4.3667    0.0000 C   0  0  0  0  0  0  0  0  0  0  0  0
    0.9292   -3.6542    0.0000 C   0  0  0  0  0  0  0  0  0  0  0  0
    1.5042   -3.2667    0.0000 C   0  0  0  0  0  0  0  0  0  0  0  0
    0.7375   -4.3375    0.0000 C   0  0  0  0  0  0  0  0  0  0  0  0
   -0.8458   -2.6292    0.0000 O   0  0  0  0  0  0  0  0  0  0  0  0
    3.9042   -3.1917    0.0000 O   0  0  0  0  0  0  0  0  0  0  0  0
   -1.4708   -3.6792    0.0000 O   0  0  0  0  0  0  0  0  0  0  0  0
    3.3292   -4.3167    0.0000 O   0  0  0  0  0  0  0  0  0  0  0  0
    2.9750   -2.5042    0.0000 C   0  0  0  0  0  0  0  0  0  0  0  0
    3.6875   -2.5125    0.0000 C   0  0  0  0  0  0  0  0  0  0  0  0
  2  1  1  0
  3  4  1  0
  4  6  1  0
  5  1  1  0
  6  9  2  0
  7  1  2  0
  8  5  1  0
  9  8  1  0
 10  7  1  0
 11  2  1  0
 12  3  1  0
 13  2  2  0
 14  3  2  0
 15  4  1  0
 16 15  1  0
 10  8  2  0
 16 12  1  0
M  CHG  2   2   1  11  -1
M  END
> <chembl_id>
CHEMBL1103

> <chembl_pref_name>
FURAZOLIDONE
