
     RDKit          2D

 32 34  0  0  0  0  0  0  0  0999 V2000
    0.1042    0.9208    0.0000 C   0  0  0  0  0  0  0  0  0  0  0  0
   -0.6125    1.3333    0.0000 C   0  0  0  0  0  0  0  0  0  0  0  0
   -0.6125   -0.3167    0.0000 C   0  0  0  0  0  0  0  0  0  0  0  0
    0.1042    0.0958    0.0000 N   0  0  0  0  0  0  0  0  0  0  0  0
   -1.3250    0.0958    0.0000 N   0  0  0  0  0  0  0  0  0  0  0  0
   -1.3250    0.9208    0.0000 C   0  0  0  0  0  0  0  0  0  0  0  0
   -1.3250   -3.2042    0.0000 C   0  0  0  0  0  0  0  0  0  0  0  0
   -1.9917   -3.6917    0.0000 N   0  0  0  0  0  0  0  0  0  0  0  0
   -0.6583   -3.6917    0.0000 O   0  0  0  0  0  0  0  0  0  0  0  0
   -1.3250   -2.3792    0.0000 C   0  0  0  0  0  0  0  0  0  0  0  0
   -0.6125   -1.1417    0.0000 C   0  0  0  0  0  0  0  0  0  0  0  0
   -1.7375   -4.4750    0.0000 N   0  0  0  0  0  0  0  0  0  0  0  0
    0.8167    1.3333    0.0000 C   0  0  0  0  0  0  0  0  0  0  0  0
   -0.6125   -1.9667    0.0000 N   0  0  0  0  0  0  0  0  0  0  0  0
   -0.9125   -4.4750    0.0000 C   0  0  0  0  0  0  0  0  0  0  0  0
    1.5333    0.9208    0.0000 N   0  0  0  0  0  0  0  0  0  0  0  0
   -2.0375    1.3333    0.0000 O   0  0  0  0  0  0  0  0  0  0  0  0
   -2.0375   -1.9667    0.0000 O   0  0  0  0  0  0  0  0  0  0  0  0
   -0.6125    2.1583    0.0000 O   0  0  0  0  0  0  0  0  0  0  0  0
    0.8167    2.1583    0.0000 O   0  0  0  0  0  0  0  0  0  0  0  0
   -2.0375   -0.3167    0.0000 C   0  0  0  0  0  0  0  0  0  0  0  0
    2.2458    1.3333    0.0000 C   0  0  0  0  0  0  0  0  0  0  0  0
    2.2458    3.8083    0.0000 C   0  0  0  0  0  0  0  0  0  0  0  0
    2.2458    2.1583    0.0000 C   0  0  0  0  0  0  0  0  0  0  0  0
    2.2458    4.6292    0.0000 F   0  0  0  0  0  0  0  0  0  0  0  0
    1.5333    3.3958    0.0000 C   0  0  0  0  0  0  0  0  0  0  0  0
    2.9625    3.3958    0.0000 C   0  0  0  0  0  0  0  0  0  0  0  0
    1.5333    2.5708    0.0000 C   0  0  0  0  0  0  0  0  0  0  0  0
    2.9625    2.5708    0.0000 C   0  0  0  0  0  0  0  0  0  0  0  0
    0.2125   -1.1417    0.0000 C   0  0  0  0  0  0  0  0  0  0  0  0
   -1.4375   -1.1417    0.0000 C   0  0  0  0  0  0  0  0  0  0  0  0
   -0.4292   -5.1417    0.0000 C   0  0  0  0  0  0  0  0  0  0  0  0
  2  1  2  0
  3  4  2  0
  4  1  1  0
  5  6  1  0
  6  2  1  0
  7 10  1  0
  8  7  2  0
  9  7  1  0
 10 14  1  0
 11  3  1  0
 12  8  1  0
 13  1  1  0
 14 11  1  0
 15  9  1  0
 16 13  1  0
 17  6  2  0
 18 10  2  0
 19  2  1  0
 20 13  2  0
 21  5  1  0
 22 16  1  0
 23 26  1  0
 24 22  1  0
 25 23  1  0
 26 28  2  0
 27 29  1  0
 28 24  1  0
 29 24  2  0
 30 11  1  0
 31 11  1  0
 32 15  1  0
  5  3  1  0
 27 23  2  0
 12 15  2  0
M  END
> <chembl_id>
CHEMBL254316

> <chembl_pref_name>
RALTEGRAVIR
