
     RDKit          2D

 23 24  0  0  0  0  0  0  0  0999 V2000
    6.2042   -6.9042    0.0000 Cl  0  0  0  0  0  0  0  0  0  0  0  0
    5.5750   -5.4625    0.0000 N   0  0  0  0  0  0  0  0  0  0  0  0
    5.5750   -4.0417    0.0000 S   0  0  0  0  0  0  0  0  0  0  0  0
    6.1875   -5.1042    0.0000 C   0  0  0  0  0  0  0  0  0  0  0  0
    4.9667   -5.1042    0.0000 C   0  0  0  0  0  0  0  0  0  0  0  0
    5.5750   -6.1625    0.0000 C   0  0  0  0  0  0  0  0  0  0  0  0
    6.1875   -4.3917    0.0000 C   0  0  0  0  0  0  0  0  0  0  0  0
    4.9667   -4.3917    0.0000 C   0  0  0  0  0  0  0  0  0  0  0  0
    4.9542   -6.5167    0.0000 C   0  0  0  0  0  0  0  0  0  0  0  0
    4.9542   -7.2250    0.0000 N   0  0  0  0  0  0  0  0  0  0  0  0
    4.3542   -5.4625    0.0000 C   0  0  0  0  0  0  0  0  0  0  0  0
    6.8042   -5.4542    0.0000 C   0  0  0  0  0  0  0  0  0  0  0  0
    4.3500   -4.0375    0.0000 C   0  0  0  0  0  0  0  0  0  0  0  0
    6.8042   -4.0417    0.0000 C   0  0  0  0  0  0  0  0  0  0  0  0
    4.3417   -7.5792    0.0000 C   0  0  0  0  0  0  0  0  0  0  0  0
    5.5750   -7.5792    0.0000 C   0  0  0  0  0  0  0  0  0  0  0  0
    4.3542   -6.1667    0.0000 C   0  0  0  0  0  0  0  0  0  0  0  0
    4.3417   -8.2917    0.0000 C   0  0  0  0  0  0  0  0  0  0  0  0
    5.5750   -8.2875    0.0000 C   0  0  0  0  0  0  0  0  0  0  0  0
    7.4167   -5.1042    0.0000 C   0  0  0  0  0  0  0  0  0  0  0  0
    3.7375   -5.1000    0.0000 C   0  0  0  0  0  0  0  0  0  0  0  0
    7.4167   -4.3917    0.0000 C   0  0  0  0  0  0  0  0  0  0  0  0
    3.7375   -4.3917    0.0000 C   0  0  0  0  0  0  0  0  0  0  0  0
  3  8  1  0
  4  2  1  0
  5  2  1  0
  6  2  1  0
  7  4  2  0
  8  5  1  0
  9  6  1  0
 10  9  1  0
 11  5  2  0
 12  4  1  0
 13  8  2  0
 14  7  1  0
 15 10  1  0
 16 10  1  0
 17  9  1  0
 18 15  1  0
 19 16  1  0
 20 12  2  0
 21 11  1  0
 22 20  1  0
 23 21  2  0
  3  7  1  0
 23 13  1  0
 22 14  2  0
M  END
> <chembl_id>
CHEMBL1200970

> <chembl_pref_name>
ETHOPROPAZINE HYDROCHLORIDE
