
     RDKit          2D

 40 41  0  0  0  0  0  0  0  0999 V2000
   -0.0583   -6.2042    0.0000 C   0  0  0  0  0  0  0  0  0  0  0  0
    5.4667   -5.8250    0.0000 C   0  0  0  0  0  0  0  0  0  0  0  0
   -1.9125   -7.9875    0.0000 N   0  0  0  0  0  0  0  0  0  0  0  0
    8.5417   -6.1750    0.0000 N   0  0  0  0  0  0  0  0  0  0  0  0
    6.0875   -6.1875    0.0000 O   0  0  0  0  0  0  0  0  0  0  0  0
   -0.6833   -5.8500    0.0000 O   0  0  0  0  0  0  0  0  0  0  0  0
    7.9292   -5.8250    0.0000 C   0  0  0  0  0  0  0  0  0  0  0  0
   -1.9125   -7.2792    0.0000 C   0  0  0  0  0  0  0  0  0  0  0  0
   -1.2958   -6.9167    0.0000 C   0  0  0  0  0  0  0  0  0  0  0  0
    7.3042   -6.1750    0.0000 C   0  0  0  0  0  0  0  0  0  0  0  0
    4.8542   -6.1875    0.0000 N   0  0  0  0  0  0  0  0  0  0  0  0
    0.5500   -5.8417    0.0000 N   0  0  0  0  0  0  0  0  0  0  0  0
    5.4667   -5.1167    0.0000 O   0  0  0  0  0  0  0  0  0  0  0  0
   -0.0583   -6.9167    0.0000 O   0  0  0  0  0  0  0  0  0  0  0  0
    6.7000   -5.8250    0.0000 C   0  0  0  0  0  0  0  0  0  0  0  0
   -1.2958   -6.2125    0.0000 C   0  0  0  0  0  0  0  0  0  0  0  0
   -1.5625   -8.6000    0.0000 C   0  0  0  0  0  0  0  0  0  0  0  0
    9.1500   -5.8167    0.0000 C   0  0  0  0  0  0  0  0  0  0  0  0
    8.8917   -6.7875    0.0000 C   0  0  0  0  0  0  0  0  0  0  0  0
    8.1792   -6.7875    0.0000 C   0  0  0  0  0  0  0  0  0  0  0  0
   -2.5208   -8.3500    0.0000 C   0  0  0  0  0  0  0  0  0  0  0  0
   -1.2083   -7.9875    0.0000 C   0  0  0  0  0  0  0  0  0  0  0  0
    7.9167   -5.1125    0.0000 C   0  0  0  0  0  0  0  0  0  0  0  0
   -2.5208   -6.9292    0.0000 C   0  0  0  0  0  0  0  0  0  0  0  0
   -2.5208   -6.2167    0.0000 C   0  0  0  0  0  0  0  0  0  0  0  0
    7.2917   -4.7542    0.0000 C   0  0  0  0  0  0  0  0  0  0  0  0
    1.1542   -6.2000    0.0000 C   0  0  0  0  0  0  0  0  0  0  0  0
    4.8542   -6.8917    0.0000 C   0  0  0  0  0  0  0  0  0  0  0  0
    0.5500   -5.1417    0.0000 C   0  0  0  0  0  0  0  0  0  0  0  0
    4.2417   -5.8292    0.0000 C   0  0  0  0  0  0  0  0  0  0  0  0
   -1.9125   -5.8625    0.0000 C   0  0  0  0  0  0  0  0  0  0  0  0
    6.6875   -5.1167    0.0000 C   0  0  0  0  0  0  0  0  0  0  0  0
    4.2417   -7.2542    0.0000 C   0  0  0  0  0  0  0  0  0  0  0  0
    1.1667   -6.9042    0.0000 C   0  0  0  0  0  0  0  0  0  0  0  0
    3.6292   -8.3250    0.0000 C   0  0  0  0  0  0  0  0  0  0  0  0
    4.2417   -7.9625    0.0000 C   0  0  0  0  0  0  0  0  0  0  0  0
    1.7792   -7.2667    0.0000 C   0  0  0  0  0  0  0  0  0  0  0  0
    1.7875   -7.9750    0.0000 C   0  0  0  0  0  0  0  0  0  0  0  0
    2.4042   -8.3292    0.0000 C   0  0  0  0  0  0  0  0  0  0  0  0
    3.0167   -7.9667    0.0000 C   0  0  0  0  0  0  0  0  0  0  0  0
  2 11  1  0
  3  8  1  0
  4  7  1  0
  5  2  1  0
  6  1  1  0
  7 10  1  0
  8  9  2  0
  9 16  1  0
 10 15  2  0
 11 28  1  0
 12  1  1  0
 13  2  2  0
 14  1  2  0
 15  5  1  0
 16  6  1  0
 17  3  1  0
 18  4  1  0
 19  4  1  0
 20  4  1  0
 21  3  1  0
 22  3  1  0
 23 26  1  0
 24 25  2  0
 25 31  1  0
 26 32  2  0
 27 12  1  0
 28 33  1  0
 29 12  1  0
 30 11  1  0
 31 16  2  0
 32 15  1  0
 33 36  1  0
 34 27  1  0
 35 40  1  0
 36 35  1  0
 37 34  1  0
 38 37  1  0
 39 38  1  0
 40 39  1  0
  8 24  1  0
  7 23  2  0
M  CHG  2   3   1   4   1
M  END
> <chembl_id>
CHEMBL1201229

> <chembl_pref_name>
DEMECARIUM
