
     RDKit          2D

 68 73  0  0  0  0  0  0  0  0999 V2000
    1.0214   -6.5091    0.0000 C   0  0  0  0  0  0  0  0  0  0  0  0
    1.6048   -7.0925    0.0000 C   0  0  0  0  0  0  0  0  0  0  0  0
    1.0214   -7.6758    0.0000 N   0  0  0  0  0  0  0  0  0  0  0  0
    0.4380   -7.0925    0.0000 C   0  0  0  0  0  0  0  0  0  0  0  0
    0.4380   -5.9257    0.0000 O   0  0  0  0  0  0  0  0  0  0  0  0
    1.6048   -5.9257    0.0000 C   0  0  0  0  0  0  0  0  0  0  0  0
   -0.4075   -8.5008    0.0000 C   0  0  0  0  0  0  0  0  0  0  0  0
    0.3069   -8.9133    0.0000 C   0  0  0  0  0  0  0  0  0  0  0  0
   -0.4075   -7.6758    0.0000 N   0  0  0  0  0  0  0  0  0  0  0  0
   -1.1220   -8.9133    0.0000 C   0  0  0  0  0  0  0  0  0  0  0  0
   -1.8365   -8.5008    0.0000 F   0  0  0  0  0  0  0  0  0  0  0  0
   -1.1220   -9.7383    0.0000 C   0  0  0  0  0  0  0  0  0  0  0  0
   -1.8365  -10.1508    0.0000 F   0  0  0  0  0  0  0  0  0  0  0  0
   -0.4075  -10.1508    0.0000 C   0  0  0  0  0  0  0  0  0  0  0  0
    0.3069   -9.7383    0.0000 C   0  0  0  0  0  0  0  0  0  0  0  0
    1.0214   -8.5008    0.0000 C   0  0  0  0  0  0  0  0  0  0  0  0
    1.7359   -8.9133    0.0000 O   0  0  0  0  0  0  0  0  0  0  0  0
   -1.8365   -6.0258    0.0000 C   0  0  0  0  0  0  0  0  0  0  0  0
   -1.1220   -6.4383    0.0000 C   0  0  0  0  0  0  0  0  0  0  0  0
   -2.5510   -6.4383    0.0000 C   0  0  0  0  0  0  0  0  0  0  0  0
   -2.5510   -7.2633    0.0000 C   0  0  0  0  0  0  0  0  0  0  0  0
   -1.8365   -7.6758    0.0000 C   0  0  0  0  0  0  0  0  0  0  0  0
   -1.1220   -7.2633    0.0000 C   0  0  0  0  0  0  0  0  0  0  0  0
   -0.4075   -6.0258    0.0000 F   0  0  0  0  0  0  0  0  0  0  0  0
   -3.2654   -6.0258    0.0000 I   0  0  0  0  0  0  0  0  0  0  0  0
    1.9746   -4.5455    0.0000 C   0  0  0  0  0  0  0  0  0  0  0  0
    1.3912   -5.1289    0.0000 C   0  0  0  0  0  0  0  0  0  0  0  0
    2.4017   -6.1393    0.0000 N   0  0  0  0  0  0  0  0  0  0  0  0
    2.9850   -5.5559    0.0000 C   0  0  0  0  0  0  0  0  0  0  0  0
    2.7715   -4.7590    0.0000 C   0  0  0  0  0  0  0  0  0  0  0  0
    1.0214    0.7462    0.0000 C   0  0  0  0  0  0  0  0  0  0  0  0
    1.6048    0.1629    0.0000 C   0  0  0  0  0  0  0  0  0  0  0  0
    1.0214   -0.4205    0.0000 N   0  0  0  0  0  0  0  0  0  0  0  0
    0.4380    0.1629    0.0000 C   0  0  0  0  0  0  0  0  0  0  0  0
    0.4380    1.3296    0.0000 O   0  0  0  0  0  0  0  0  0  0  0  0
    1.6048    1.3296    0.0000 C   0  0  0  0  0  0  0  0  0  0  0  0
   -0.4075   -1.2455    0.0000 C   0  0  0  0  0  0  0  0  0  0  0  0
    0.3069   -1.6580    0.0000 C   0  0  0  0  0  0  0  0  0  0  0  0
   -0.4075   -0.4205    0.0000 N   0  0  0  0  0  0  0  0  0  0  0  0
   -1.1220   -1.6580    0.0000 C   0  0  0  0  0  0  0  0  0  0  0  0
   -1.8365   -1.2455    0.0000 F   0  0  0  0  0  0  0  0  0  0  0  0
   -1.1220   -2.4830    0.0000 C   0  0  0  0  0  0  0  0  0  0  0  0
   -1.8365   -2.8955    0.0000 F   0  0  0  0  0  0  0  0  0  0  0  0
   -0.4075   -2.8955    0.0000 C   0  0  0  0  0  0  0  0  0  0  0  0
    0.3069   -2.4830    0.0000 C   0  0  0  0  0  0  0  0  0  0  0  0
    1.0214   -1.2455    0.0000 C   0  0  0  0  0  0  0  0  0  0  0  0
    1.7359   -1.6580    0.0000 O   0  0  0  0  0  0  0  0  0  0  0  0
   -1.8365    1.2295    0.0000 C   0  0  0  0  0  0  0  0  0  0  0  0
   -1.1220    0.8170    0.0000 C   0  0  0  0  0  0  0  0  0  0  0  0
   -2.5510    0.8170    0.0000 C   0  0  0  0  0  0  0  0  0  0  0  0
   -2.5510   -0.0080    0.0000 C   0  0  0  0  0  0  0  0  0  0  0  0
   -1.8365   -0.4205    0.0000 C   0  0  0  0  0  0  0  0  0  0  0  0
   -1.1220   -0.0080    0.0000 C   0  0  0  0  0  0  0  0  0  0  0  0
   -0.4075    1.2295    0.0000 F   0  0  0  0  0  0  0  0  0  0  0  0
   -3.2654    1.2295    0.0000 I   0  0  0  0  0  0  0  0  0  0  0  0
    1.9746    2.7098    0.0000 C   0  0  0  0  0  0  0  0  0  0  0  0
    1.3912    2.1265    0.0000 C   0  0  0  0  0  0  0  0  0  0  0  0
    2.4017    1.1161    0.0000 N   0  0  0  0  0  0  0  0  0  0  0  0
    2.9850    1.6994    0.0000 C   0  0  0  0  0  0  0  0  0  0  0  0
    2.7715    2.4963    0.0000 C   0  0  0  0  0  0  0  0  0  0  0  0
    7.4636    0.7145    0.0000 C   0  0  0  0  0  0  0  0  0  0  0  0
    7.0511    0.0000    0.0000 C   0  0  0  0  0  0  0  0  0  0  0  0
    6.2261    0.0000    0.0000 C   0  0  0  0  0  0  0  0  0  0  0  0
    5.8136   -0.7145    0.0000 C   0  0  0  0  0  0  0  0  0  0  0  0
    8.2886    0.7145    0.0000 O   0  0  0  0  0  0  0  0  0  0  0  0
    7.0511    1.4289    0.0000 O   0  0  0  0  0  0  0  0  0  0  0  0
    6.2261   -1.4289    0.0000 O   0  0  0  0  0  0  0  0  0  0  0  0
    4.9886   -0.7145    0.0000 O   0  0  0  0  0  0  0  0  0  0  0  0
  1  2  1  0
  1  5  1  0
  4  1  1  0
  6  1  1  6
  2  3  1  0
  3  4  1  0
 16  3  1  0
 27  6  1  0
  6 28  1  0
  7  8  2  0
  7 10  1  0
  9  7  1  0
 15  8  1  0
 16  8  1  0
 23  9  1  0
 10 12  2  0
 11 10  1  0
 12 13  1  0
 12 14  1  0
 14 15  2  0
 17 16  2  0
 18 19  1  0
 18 20  2  0
 19 23  2  0
 24 19  1  0
 20 21  1  0
 20 25  1  0
 21 22  2  0
 23 22  1  0
 26 27  1  0
 26 30  1  0
 28 29  1  0
 29 30  1  0
 31 32  1  0
 31 35  1  0
 32 33  1  0
 33 34  1  0
 34 31  1  0
 36 31  1  6
 37 38  2  0
 37 40  1  0
 39 37  1  0
 40 42  2  0
 41 40  1  0
 42 43  1  0
 42 44  1  0
 44 45  2  0
 45 38  1  0
 46 38  1  0
 46 33  1  0
 47 46  2  0
 48 49  1  0
 48 50  2  0
 49 53  2  0
 50 51  1  0
 51 52  2  0
 53 52  1  0
 53 39  1  0
 54 49  1  0
 50 55  1  0
 57 36  1  0
 36 58  1  0
 56 57  1  0
 58 59  1  0
 59 60  1  0
 56 60  1  0
 61 62  1  0
 62 63  2  0
 63 64  1  0
 61 65  1  0
 61 66  2  0
 64 67  1  0
 64 68  2  0
M  END
> <chembl_id>
CHEMBL2364607

> <chembl_pref_name>
COBIMETINIB FUMARATE
