
     RDKit          2D

 70 72  0  0  1  0  0  0  0  0999 V2000
    2.9292   -7.6250    0.0000 N   0  0  0  0  0  0  0  0  0  0  0  0
    2.3167   -7.2708    0.0000 C   0  0  0  0  0  0  0  0  0  0  0  0
   -0.1208  -10.8042    0.0000 N   0  0  0  0  0  0  0  0  0  0  0  0
    1.7042   -7.6292    0.0000 C   0  0  0  0  0  0  0  0  0  0  0  0
   -0.7333   -9.7500    0.0000 C   0  0  0  0  0  0  0  0  0  0  0  0
    1.0917   -7.2792    0.0000 N   0  0  0  0  0  0  0  0  0  0  0  0
   -0.7375   -7.6375    0.0000 N   0  0  0  0  0  0  0  0  0  0  0  0
    1.7042  -10.4417    0.0000 N   0  0  0  0  0  0  0  0  0  0  0  0
   -1.3458   -9.4000    0.0000 N   0  0  0  0  0  0  0  0  0  0  0  0
    0.4875  -10.4500    0.0000 C   0  0  0  0  0  0  0  0  0  0  0  0
    0.4792   -7.6292    0.0000 C   0  0  0  0  0  0  0  0  0  0  0  0
    2.3167  -10.7917    0.0000 C   0  0  0  0  0  0  0  0  0  0  0  0
    3.5042   -6.4958    0.0000 C   0  0  0  0  0  0  0  0  0  0  0  0
   -0.7375   -8.3417    0.0000 C   0  0  0  0  0  0  0  0  0  0  0  0
   -0.7333  -10.4542    0.0000 C   0  0  0  0  0  0  0  0  0  0  0  0
   -0.1333   -7.2792    0.0000 C   0  0  0  0  0  0  0  0  0  0  0  0
    3.5042   -7.2042    0.0000 C   0  0  0  0  0  0  0  0  0  0  0  0
    1.1000  -10.8000    0.0000 C   0  0  0  0  0  0  0  0  0  0  0  0
    4.1167   -6.1417    0.0000 N   0  0  0  0  0  0  0  0  0  0  0  0
   -0.1333   -6.5750    0.0000 C   0  0  0  0  0  0  0  0  0  0  0  0
   -1.3458   -8.6917    0.0000 C   0  0  0  0  0  0  0  0  0  0  0  0
    2.9292  -10.4417    0.0000 C   0  0  0  0  0  0  0  0  0  0  0  0
    5.3417   -6.1417    0.0000 C   0  0  0  0  0  0  0  0  0  0  0  0
    4.7292   -6.4958    0.0000 C   0  0  0  0  0  0  0  0  0  0  0  0
    0.4792   -6.2167    0.0000 C   0  0  0  0  0  0  0  0  0  0  0  0
    5.9542   -6.4958    0.0000 N   0  0  0  0  0  0  0  0  0  0  0  0
    2.3167   -8.6792    0.0000 S   0  0  0  0  0  0  0  0  0  0  0  0
    2.3167   -9.3875    0.0000 S   0  0  0  0  0  0  0  0  0  0  0  0
    7.1833   -6.4958    0.0000 C   0  0  0  0  0  0  0  0  0  0  0  0
   -3.1875   -8.3333    0.0000 C   0  0  0  0  0  0  0  0  0  0  0  0
    2.3125   -6.5625    0.0000 O   0  0  0  0  0  0  0  0  0  0  0  0
   -0.1208   -9.3917    0.0000 O   0  0  0  0  0  0  0  0  0  0  0  0
    2.8875   -6.1417    0.0000 O   0  0  0  0  0  0  0  0  0  0  0  0
    0.4833   -9.7417    0.0000 O   0  0  0  0  0  0  0  0  0  0  0  0
    2.3208  -11.5042    0.0000 O   0  0  0  0  0  0  0  0  0  0  0  0
    0.4833   -8.3417    0.0000 O   0  0  0  0  0  0  0  0  0  0  0  0
   -0.1250   -8.6958    0.0000 O   0  0  0  0  0  0  0  0  0  0  0  0
    1.7042   -8.3292    0.0000 C   0  0  0  0  0  0  0  0  0  0  0  0
    1.1000  -11.5042    0.0000 C   0  0  0  0  0  0  0  0  0  0  0  0
    5.3417   -5.4333    0.0000 O   0  0  0  0  0  0  0  0  0  0  0  0
    4.7292   -7.2042    0.0000 C   0  0  0  0  0  0  0  0  0  0  0  0
    2.9292   -9.7375    0.0000 C   0  0  0  0  0  0  0  0  0  0  0  0
    0.4750   -5.5083    0.0000 O   0  0  0  0  0  0  0  0  0  0  0  0
    7.1833   -7.2042    0.0000 O   0  0  0  0  0  0  0  0  0  0  0  0
   -3.1875   -7.6250    0.0000 O   0  0  0  0  0  0  0  0  0  0  0  0
   -1.9625   -8.3333    0.0000 C   0  0  0  0  0  0  0  0  0  0  0  0
    6.5708   -6.1417    0.0000 C   0  0  0  0  0  0  0  0  0  0  0  0
    3.5417  -10.7917    0.0000 N   0  0  0  0  0  0  0  0  0  0  0  0
   -1.3500  -10.8083    0.0000 C   0  0  0  0  0  0  0  0  0  0  0  0
    3.1500   -8.2958    0.0000 C   0  0  0  0  0  0  0  0  0  0  0  0
    1.0917   -6.5667    0.0000 N   0  0  0  0  0  0  0  0  0  0  0  0
   -2.5750   -8.6875    0.0000 C   0  0  0  0  0  0  0  0  0  0  0  0
    0.4875  -11.8625    0.0000 C   0  0  0  0  0  0  0  0  0  0  0  0
   -3.8000   -8.6875    0.0000 N   0  0  0  0  0  0  0  0  0  0  0  0
    7.7958   -6.1417    0.0000 N   0  0  0  0  0  0  0  0  0  0  0  0
   -0.7333  -12.5750    0.0000 C   0  0  0  0  0  0  0  0  0  0  0  0
   -0.1250  -11.5083    0.0000 C   0  0  0  0  0  0  0  0  0  0  0  0
    0.4958  -12.5708    0.0000 C   0  0  0  0  0  0  0  0  0  0  0  0
   -0.1125  -12.9250    0.0000 C   0  0  0  0  0  0  0  0  0  0  0  0
   -0.7375  -11.8667    0.0000 C   0  0  0  0  0  0  0  0  0  0  0  0
    4.0750   -7.6250    0.0000 C   0  0  0  0  0  0  0  0  0  0  0  0
   -1.3458  -12.9333    0.0000 O   0  0  0  0  0  0  0  0  0  0  0  0
    3.8583   -8.2958    0.0000 C   0  0  0  0  0  0  0  0  0  0  0  0
    5.3417   -7.5583    0.0000 C   0  0  0  0  0  0  0  0  0  0  0  0
   -1.9625  -10.4542    0.0000 C   0  0  0  0  0  0  0  0  0  0  0  0
   -1.3458  -11.5167    0.0000 C   0  0  0  0  0  0  0  0  0  0  0  0
    5.3417   -8.2667    0.0000 C   0  0  0  0  0  0  0  0  0  0  0  0
    5.9542   -7.2042    0.0000 C   0  0  0  0  0  0  0  0  0  0  0  0
   -2.5750  -10.8083    0.0000 C   0  0  0  0  0  0  0  0  0  0  0  0
   -0.7323  -11.4542    0.0000 H   0  0  0  0  0  0  0  0  0  0  0  0
  2  1  1  0
  3 10  1  0
  4  2  1  6
  5  9  1  0
  6  4  1  0
  7 16  1  0
  8 12  1  0
  9 21  1  0
 10 18  1  0
 11  6  1  0
 12 22  1  0
 17 13  1  6
 14  7  1  0
 15  5  1  0
 16 11  1  0
 17  1  1  0
 18  8  1  0
 19 13  1  0
 16 20  1  1
 21 14  1  0
 22 42  1  0
 23 24  1  0
 24 19  1  6
 25 20  1  0
 26 23  1  0
 27 38  1  0
 28 27  1  0
 29 47  1  0
 30 52  1  0
 31  2  2  0
 32  5  2  0
 33 13  2  0
 34 10  2  0
 35 12  2  0
 36 11  2  0
 37 14  2  0
  4 38  1  0
 18 39  1  1
 40 23  2  0
 24 41  1  0
 42 28  1  0
 43 25  2  0
 44 29  2  0
 45 30  2  0
 21 46  1  1
 47 26  1  0
 22 48  1  6
 49 15  1  0
 50  1  1  0
 51 25  1  0
 52 46  1  0
 53 39  1  0
 54 30  1  0
 55 29  1  0
 56 59  1  0
 57 53  2  0
 58 53  1  0
 59 58  2  0
 60 57  1  0
 61 17  1  0
 62 56  1  0
 63 50  1  0
 64 41  1  0
 65 49  1  0
 49 66  1  1
 67 64  1  0
 68 64  1  0
 69 65  1  0
 61 63  1  0
  3 15  1  0
 56 60  2  0
 15 70  1  6
M  END
> <chembl_id>
CHEMBL395429

> <chembl_pref_name>
OXYTOCIN
