
     RDKit          2D

 18 18  0  0  0  0  0  0  0  0999 V2000
   -0.3000    0.6208    0.0000 C   0  0  0  0  0  0  0  0  0  0  0  0
    0.4292   -0.6292    0.0000 C   0  0  0  0  0  0  0  0  0  0  0  0
    0.9250    1.3583    0.0000 C   0  0  0  0  0  0  0  0  0  0  0  0
    2.1750    2.0958    0.0000 N   0  0  0  0  0  0  0  0  0  0  0  0
    1.8667   -0.6125    0.0000 C   0  0  0  0  0  0  0  0  0  0  0  0
   -1.5583   -0.1167    0.0000 C   0  0  0  0  0  0  0  0  0  0  0  0
    2.5667   -1.8417    0.0000 N   0  0  0  0  0  0  0  0  0  0  0  0
   -1.0458    1.8458    0.0000 C   0  0  0  0  0  0  0  0  0  0  0  0
    4.0042   -1.8417    0.0000 C   0  0  0  0  0  0  0  0  0  0  0  0
    1.8667   -3.0750    0.0000 C   0  0  0  0  0  0  0  0  0  0  0  0
    2.5667    0.6208    0.0000 C   0  0  0  0  0  0  0  0  0  0  0  0
   -1.5583   -1.5542    0.0000 C   0  0  0  0  0  0  0  0  0  0  0  0
   -2.7833    0.5833    0.0000 C   0  0  0  0  0  0  0  0  0  0  0  0
   -2.5000    1.8250    0.0000 C   0  0  0  0  0  0  0  0  0  0  0  0
   -0.3458    3.0833    0.0000 C   0  0  0  0  0  0  0  0  0  0  0  0
   -2.7833   -2.2792    0.0000 C   0  0  0  0  0  0  0  0  0  0  0  0
   -4.0208   -0.1167    0.0000 C   0  0  0  0  0  0  0  0  0  0  0  0
   -4.0208   -1.5542    0.0000 C   0  0  0  0  0  0  0  0  0  0  0  0
  2  1  1  0
  3  1  1  0
  4  3  3  0
  5  2  1  0
  6  1  1  0
  7  5  1  0
  8  1  1  0
  9  7  1  0
 10  7  1  0
 11  5  1  0
 12  6  1  0
 13  6  2  0
 14  8  1  0
 15  8  1  0
 16 12  2  0
 17 13  1  0
 18 17  2  0
 16 18  1  0
M  END
> <chembl_id>
CHEMBL2105002

> <chembl_pref_name>
ISOAMINILE
