
     RDKit          2D

 10  6  0  0  0  0  0  0  0  0999 V2000
    0.4625   -3.8417    0.0000 Na  0  0  0  0  0 15  0  0  0  0  0  0
    2.6375   -3.7667    0.0000 P   0  0  0  0  0  0  0  0  0  0  0  0
    2.0250   -4.1250    0.0000 C   0  0  0  0  0  0  0  0  0  0  0  0
    3.2500   -4.1250    0.0000 O   0  0  0  0  0  0  0  0  0  0  0  0
    2.9875   -3.1500    0.0000 O   0  0  0  0  0  0  0  0  0  0  0  0
    2.2792   -3.1500    0.0000 O   0  0  0  0  0  0  0  0  0  0  0  0
    1.4083   -3.7667    0.0000 O   0  0  0  0  0  0  0  0  0  0  0  0
    2.0250   -4.8292    0.0000 O   0  0  0  0  0  0  0  0  0  0  0  0
    3.9292   -3.1250    0.0000 Na  0  0  0  0  0 15  0  0  0  0  0  0
    3.9292   -4.1250    0.0000 Na  0  0  0  0  0 15  0  0  0  0  0  0
  3  2  1  0
  4  2  1  0
  5  2  1  0
  6  2  2  0
  7  3  1  0
  8  3  2  0
M  CHG  6   1   1   4  -1   5  -1   7  -1   9   1  10   1
M  END
> <chembl_id>
CHEMBL754

> <chembl_pref_name>
FOSCARNET SODIUM
