
     RDKit          2D

 21 23  0  0  1  0  0  0  0  0999 V2000
    0.6375    0.3875    0.0000 N   0  0  0  0  0  0  0  0  0  0  0  0
   -0.5333    0.7833    0.0000 C   0  0  0  0  0  0  0  0  0  0  0  0
    1.0417   -0.8417    0.0000 C   0  0  0  0  0  0  0  0  0  0  0  0
   -0.5208    2.2458    0.0000 C   0  0  0  0  0  0  0  0  0  0  0  0
   -1.6833    0.0958    0.0000 N   0  0  0  0  0  0  0  0  0  0  0  0
    0.6167    2.6458    0.0000 N   0  0  0  0  0  0  0  0  0  0  0  0
    2.3292   -1.2750    0.0000 C   0  0  0  0  0  0  0  0  0  0  0  0
    1.4375    1.5458    0.0000 C   0  0  0  0  0  0  0  0  0  0  0  0
   -2.8833    2.1833    0.0000 N   0  0  0  0  0  0  0  0  0  0  0  0
    0.3375   -1.8625    0.0000 O   0  0  0  0  0  0  0  0  0  0  0  0
   -1.6458    2.9000    0.0000 C   0  0  0  0  0  0  0  0  0  0  0  0
   -2.8833    0.7708    0.0000 C   0  0  0  0  0  0  0  0  0  0  0  0
    2.3167   -2.6167    0.0000 C   0  0  0  0  0  0  0  0  0  0  0  0
    1.0292   -2.9042    0.0000 C   0  0  0  0  0  0  0  0  0  0  0  0
    3.4042   -0.4917    0.0000 O   0  0  0  0  0  0  0  0  0  0  0  0
   -4.0000    0.1125    0.0000 N   0  0  0  0  0  0  0  0  0  0  0  0
    3.3542   -3.4417    0.0000 O   0  0  0  0  0  0  0  0  0  0  0  0
   -1.6458    4.1875    0.0000 O   0  0  0  0  0  0  0  0  0  0  0  0
    0.5417   -4.1292    0.0000 C   0  0  0  0  0  0  0  0  0  0  0  0
    1.3500   -5.1667    0.0000 O   0  0  0  0  0  0  0  0  0  0  0  0
   -2.6500    4.9542    0.0000 C   0  0  0  0  0  0  0  0  0  0  0  0
  2  1  1  0
  3  1  1  1
  4  2  2  0
  5  2  1  0
  6  8  2  0
  7  3  1  0
  8  1  1  0
  9 12  1  0
 10  3  1  0
 11  4  1  0
 12  5  2  0
 13  7  1  0
 14 10  1  0
  7 15  1  1
 16 12  1  0
 13 17  1  6
 18 11  1  0
 14 19  1  1
 20 19  1  0
 21 18  1  0
  4  6  1  0
 14 13  1  0
 11  9  2  0
M  END
> <chembl_id>
CHEMBL1201112

> <chembl_pref_name>
NELARABINE
