
     RDKit          2D

 23 22  0  0  0  0  0  0  0  0999 V2000
    6.6964   -7.1250    0.0000 O   0  0  0  0  0  0  0  0  0  0  0  0
    3.0292   -5.5625    0.0000 C   0  0  0  0  0  0  0  0  0  0  0  0
    2.7750   -4.7750    0.0000 C   0  0  0  0  0  0  0  0  0  0  0  0
    3.8542   -5.5625    0.0000 C   0  0  0  0  0  0  0  0  0  0  0  0
    4.1083   -4.7750    0.0000 N   0  0  0  0  0  0  0  0  0  0  0  0
    3.4417   -4.2917    0.0000 N   0  0  0  0  0  0  0  0  0  0  0  0
    2.3958   -7.6500    0.0000 S   0  0  0  0  0  0  0  0  0  0  0  0
    2.5458   -6.2292    0.0000 N   0  0  0  0  0  0  0  0  0  0  0  0
    2.8792   -6.9833    0.0000 C   0  0  0  0  0  0  0  0  0  0  0  0
    1.9875   -4.5208    0.0000 O   0  0  0  0  0  0  0  0  0  0  0  0
    3.4417   -3.4667    0.0000 C   0  0  0  0  0  0  0  0  0  0  0  0
    1.9083   -8.3167    0.0000 O   0  0  0  0  0  0  0  0  0  0  0  0
    3.0625   -8.1333    0.0000 O   0  0  0  0  0  0  0  0  0  0  0  0
    1.7292   -7.1667    0.0000 O   0  0  0  0  0  0  0  0  0  0  0  0
    4.8917   -4.5208    0.0000 C   0  0  0  0  0  0  0  0  0  0  0  0
    4.3375   -6.2292    0.0000 C   0  0  0  0  0  0  0  0  0  0  0  0
    1.7250   -6.1417    0.0000 C   0  0  0  0  0  0  0  0  0  0  0  0
    2.7250   -3.0542    0.0000 C   0  0  0  0  0  0  0  0  0  0  0  0
    4.1542   -3.0542    0.0000 C   0  0  0  0  0  0  0  0  0  0  0  0
    4.1542   -2.2292    0.0000 C   0  0  0  0  0  0  0  0  0  0  0  0
    2.7250   -2.2292    0.0000 C   0  0  0  0  0  0  0  0  0  0  0  0
    3.4417   -1.8167    0.0000 C   0  0  0  0  0  0  0  0  0  0  0  0
    7.0167   -5.0833    0.0000 Na  0  0  0  0  0 15  0  0  0  0  0  0
  3  2  1  0
  4  2  2  0
  5  4  1  0
  6  3  1  0
  7  9  1  0
  8  2  1  0
  9  8  1  0
 10  3  2  0
 11  6  1  0
 12  7  2  0
 13  7  2  0
 14  7  1  0
 15  5  1  0
 16  4  1  0
 17  8  1  0
 18 11  2  0
 19 11  1  0
 20 19  2  0
 21 18  1  0
 22 20  1  0
  5  6  1  0
 22 21  2  0
M  CHG  2  14  -1  23   1
M  END
> <chembl_id>
CHEMBL3989803

> <chembl_pref_name>
DIPYRONE
