
     RDKit          2D

 32 34  0  0  1  0  0  0  0  0999 V2000
    0.3167    1.4250    0.0000 C   0  0  0  0  0  0  0  0  0  0  0  0
   -2.2833   -0.5000    0.0000 C   0  0  0  0  0  0  0  0  0  0  0  0
   -1.9208   -1.1375    0.0000 C   0  0  0  0  0  0  0  0  0  0  0  0
    0.0292    0.8125    0.0000 C   0  0  0  0  0  0  0  0  0  0  0  0
    1.2000    1.3375    0.0000 C   0  0  0  0  0  0  0  0  0  0  0  0
   -1.9208    0.1250    0.0000 C   0  0  0  0  0  0  0  0  0  0  0  0
   -2.2875   -1.7917    0.0000 C   0  0  0  0  0  0  0  0  0  0  0  0
   -0.7750    0.8208    0.0000 C   0  0  0  0  0  0  0  0  0  0  0  0
   -1.1708    0.1250    0.0000 C   0  0  0  0  0  0  0  0  0  0  0  0
    0.5792    0.1625    0.0000 C   0  0  0  0  0  0  0  0  0  0  0  0
    1.3000    0.4833    0.0000 C   0  0  0  0  0  0  0  0  0  0  0  0
   -3.0375   -1.7917    0.0000 C   0  0  0  0  0  0  0  0  0  0  0  0
   -3.0250   -0.5000    0.0000 C   0  0  0  0  0  0  0  0  0  0  0  0
   -3.4208   -1.1375    0.0000 C   0  0  0  0  0  0  0  0  0  0  0  0
   -1.1083   -1.1375    0.0000 C   0  0  0  0  0  0  0  0  0  0  0  0
    1.4542    2.0333    0.0000 C   0  0  0  0  0  0  0  0  0  0  0  0
    2.2750    1.8958    0.0000 C   0  0  0  0  0  0  0  0  0  0  0  0
    2.5792    1.1458    0.0000 C   0  0  0  0  0  0  0  0  0  0  0  0
    3.4500    1.1458    0.0000 C   0  0  0  0  0  0  0  0  0  0  0  0
   -0.0625    2.0625    0.0000 C   0  0  0  0  0  0  0  0  0  0  0  0
   -2.3000   -2.7292    0.0000 O   0  0  0  0  0  0  0  0  0  0  0  0
    0.6542    2.0333    0.0000 C   0  0  0  0  0  0  0  0  0  0  0  0
    3.4500    0.3958    0.0000 C   0  0  0  0  0  0  0  0  0  0  0  0
   -4.2458   -1.4125    0.0000 O   0  0  0  0  0  0  0  0  0  0  0  0
    4.2792    1.1750    0.0000 O   0  0  0  0  0  0  0  0  0  0  0  0
   -1.1833    1.4250    0.0000 C   0  0  0  0  0  0  0  0  0  0  0  0
   -0.8000    2.0625    0.0000 C   0  0  0  0  0  0  0  0  0  0  0  0
    0.9042    2.8208    0.0000 C   0  0  0  0  0  0  0  0  0  0  0  0
    2.9917   -0.0792    0.0000 C   0  0  0  0  0  0  0  0  0  0  0  0
    4.0917   -0.0417    0.0000 C   0  0  0  0  0  0  0  0  0  0  0  0
    2.1932    1.2209    0.0000 H   0  0  0  0  0  0  0  0  0  0  0  0
   -0.3962   -0.0925    0.0000 H   0  0  0  0  0  0  0  0  0  0  0  0
  2  6  2  0
  3  2  1  0
  4  1  1  0
  5  1  1  0
  6  9  1  0
  7  3  1  0
  8  4  1  0
  9  8  2  0
 10  4  1  0
 11  5  1  0
 12 14  1  0
 13  2  1  0
 14 13  1  0
 15  3  2  0
 16  5  1  0
 17 16  1  0
 18 17  1  0
 19 18  1  0
 20  1  1  0
  7 21  1  1
  1 22  1  1
 23 19  1  0
 14 24  1  6
 19 25  1  1
 26 27  1  0
 27 20  1  0
 16 28  1  6
 29 23  1  0
 30 23  1  0
 10 11  1  0
  8 26  1  0
  7 12  1  0
  5 31  1  6
  4 32  1  6
M  END
> <chembl_id>
CHEMBL2105611

> <chembl_pref_name>
TACALCITOL
