
     RDKit          2D

 32 36  0  0  0  0  0  0  0  0999 V2000
    1.7667    0.0875    0.0000 C   0  0  0  0  0  0  0  0  0  0  0  0
   -0.3792   -1.1500    0.0000 C   0  0  0  0  0  0  0  0  0  0  0  0
    2.5500    0.3417    0.0000 C   0  0  0  0  0  0  0  0  0  0  0  0
    1.7667   -0.7375    0.0000 C   0  0  0  0  0  0  0  0  0  0  0  0
   -0.3792   -1.9750    0.0000 C   0  0  0  0  0  0  0  0  0  0  0  0
    0.3375   -0.7375    0.0000 C   0  0  0  0  0  0  0  0  0  0  0  0
    1.0500   -1.1500    0.0000 C   0  0  0  0  0  0  0  0  0  0  0  0
    3.0333   -0.3250    0.0000 C   0  0  0  0  0  0  0  0  0  0  0  0
    0.3375   -2.3875    0.0000 C   0  0  0  0  0  0  0  0  0  0  0  0
    1.0500    0.5000    0.0000 C   0  0  0  0  0  0  0  0  0  0  0  0
    2.5500   -0.9958    0.0000 C   0  0  0  0  0  0  0  0  0  0  0  0
    1.0500   -1.9750    0.0000 C   0  0  0  0  0  0  0  0  0  0  0  0
    0.3375    0.0875    0.0000 C   0  0  0  0  0  0  0  0  0  0  0  0
   -1.0917   -0.7375    0.0000 C   0  0  0  0  0  0  0  0  0  0  0  0
   -1.0917   -2.3875    0.0000 C   0  0  0  0  0  0  0  0  0  0  0  0
   -3.0458   -1.2625    0.0000 C   0  0  0  0  0  0  0  0  0  0  0  0
    2.8042    1.1250    0.0000 C   0  0  0  0  0  0  0  0  0  0  0  0
   -2.6333   -1.9750    0.0000 O   0  0  0  0  0  0  0  0  0  0  0  0
    3.8667    2.0833    0.0000 N   0  0  0  0  0  0  0  0  0  0  0  0
   -1.8083   -1.9750    0.0000 C   0  0  0  0  0  0  0  0  0  0  0  0
   -2.6333   -0.5458    0.0000 O   0  0  0  0  0  0  0  0  0  0  0  0
   -1.8083   -1.1500    0.0000 C   0  0  0  0  0  0  0  0  0  0  0  0
    1.7667    0.9125    0.0000 C   0  0  0  0  0  0  0  0  0  0  0  0
   -0.3792   -0.3250    0.0000 C   0  0  0  0  0  0  0  0  0  0  0  0
    3.6125    1.2958    0.0000 C   0  0  0  0  0  0  0  0  0  0  0  0
   -3.8708   -1.2625    0.0000 C   0  0  0  0  0  0  0  0  0  0  0  0
    3.3125    2.6958    0.0000 C   0  0  0  0  0  0  0  0  0  0  0  0
    2.2542    1.7375    0.0000 C   0  0  0  0  0  0  0  0  0  0  0  0
    2.5083    2.5250    0.0000 C   0  0  0  0  0  0  0  0  0  0  0  0
    1.9157   -1.6506    0.0000 H   0  0  0  0  0  0  0  0  0  0  0  0
   -0.5282   -0.2369    0.0000 H   0  0  0  0  0  0  0  0  0  0  0  0
    1.8684   -1.7323    0.0000 H   0  0  0  0  0  0  0  0  0  0  0  0
  2  6  1  0
  3  1  1  0
  4  1  1  0
  5  2  1  0
  6 13  1  0
  7  4  1  0
  8  3  2  0
  9 12  1  0
 10  1  1  0
 11  4  1  0
 12  7  1  0
 13 10  1  0
 14  2  1  0
 15  5  1  0
 16 18  1  0
 17  3  1  0
 20 18  1  1
 19 25  2  0
 20 22  1  0
 21 16  2  0
 22 14  1  0
  1 23  1  1
  2 24  1  1
 25 17  1  0
 26 16  1  0
 27 29  2  0
 28 17  2  0
 29 28  1  0
  8 11  1  0
  6  7  1  0
  9  5  2  0
 27 19  1  0
 15 20  1  0
  7 30  1  1
  6 31  1  6
  4 32  1  6
M  END
> <chembl_id>
CHEMBL271227

> <chembl_pref_name>
ABIRATERONE ACETATE
