
     RDKit          2D

 39 38  0  0  0  0  0  0  0  0999 V2000
   -1.6761    1.0974    0.0000 C   0  0  0  0  0  0  0  0  0  0  0  0
   -1.1042    1.4262    0.0000 N   0  0  0  0  0  0  0  0  0  0  0  0
   -2.3897    1.5113    0.0000 C   0  0  0  0  0  0  0  0  0  0  0  0
   -3.1021    2.7503    0.0000 C   0  0  0  0  0  0  0  0  0  0  0  0
   -4.5303    3.5748    0.0000 C   0  0  0  0  0  0  0  0  0  0  0  0
   -2.3885    2.3363    0.0000 C   0  0  0  0  0  0  0  0  0  0  0  0
   -3.1021    3.5748    0.0000 C   0  0  0  0  0  0  0  0  0  0  0  0
   -3.8162    2.3380    0.0000 C   0  0  0  0  0  0  0  0  0  0  0  0
   -3.8162    3.9871    0.0000 C   0  0  0  0  0  0  0  0  0  0  0  0
   -4.5303    2.7503    0.0000 C   0  0  0  0  0  0  0  0  0  0  0  0
   -1.6772    0.2724    0.0000 C   0  0  0  0  0  0  0  0  0  0  0  0
   -1.6734    1.9384    0.0000 C   0  0  0  0  0  0  0  0  0  0  0  0
   -1.1013    2.2667    0.0000 O   0  0  0  0  0  0  0  0  0  0  0  0
   -1.1066   -0.0585    0.0000 O   0  0  0  0  0  0  0  0  0  0  0  0
   -5.2456    3.9859    0.0000 C   0  0  0  0  0  0  0  0  0  0  0  0
   -5.9595    3.5724    0.0000 C   0  0  0  0  0  0  0  0  0  0  0  0
   -9.5332    3.9784    0.0000 C   0  0  0  0  0  0  0  0  0  0  0  0
   -8.8179    3.5674    0.0000 C   0  0  0  0  0  0  0  0  0  0  0  0
   -6.6748    3.9834    0.0000 C   0  0  0  0  0  0  0  0  0  0  0  0
   -7.3887    3.5698    0.0000 C   0  0  0  0  0  0  0  0  0  0  0  0
   -8.1040    3.9809    0.0000 C   0  0  0  0  0  0  0  0  0  0  0  0
  -10.1040    3.6477    0.0000 C   0  0  0  0  0  0  0  0  0  0  0  0
   -9.1751   -1.4062    0.0000 S   0  0  0  0  0  0  0  0  0  0  0  0
   -8.4606   -0.9937    0.0000 O   0  0  0  0  0  0  0  0  0  0  0  0
   -9.8896   -1.8187    0.0000 O   0  0  0  0  0  0  0  0  0  0  0  0
   -8.7626   -2.1207    0.0000 O   0  0  0  0  0  0  0  0  0  0  0  0
   -9.5876   -0.6917    0.0000 O   0  0  0  0  0  0  0  0  0  0  0  0
   -7.7462   -1.4062    0.0000 C   0  0  0  0  0  0  0  0  0  0  0  0
   -7.0317   -0.9937    0.0000 C   0  0  0  0  0  0  0  0  0  0  0  0
   -6.3172   -1.4062    0.0000 C   0  0  0  0  0  0  0  0  0  0  0  0
   -5.6027   -0.9937    0.0000 C   0  0  0  0  0  0  0  0  0  0  0  0
   -4.8883   -1.4062    0.0000 C   0  0  0  0  0  0  0  0  0  0  0  0
   -4.1738   -0.9937    0.0000 C   0  0  0  0  0  0  0  0  0  0  0  0
   -3.4593   -1.4062    0.0000 C   0  0  0  0  0  0  0  0  0  0  0  0
   -2.7449   -0.9937    0.0000 C   0  0  0  0  0  0  0  0  0  0  0  0
   -2.0304   -1.4062    0.0000 C   0  0  0  0  0  0  0  0  0  0  0  0
   -1.3159   -0.9937    0.0000 C   0  0  0  0  0  0  0  0  0  0  0  0
   -0.6014   -1.4062    0.0000 C   0  0  0  0  0  0  0  0  0  0  0  0
    0.1129   -0.9937    0.0000 C   0  0  0  0  0  0  0  0  0  0  0  0
  1  2  1  0
  1  3  1  0
  3  6  1  0
  4  6  1  0
  4  7  2  0
  4  8  1  0
  5  9  2  0
  7  9  1  0
  5 10  1  0
  8 10  2  0
  1 11  1  0
  1 12  1  0
 12 13  1  0
 11 14  1  0
  5 15  1  0
 15 16  1  0
 17 18  1  0
 16 19  1  0
 19 20  1  0
 18 21  1  0
 20 21  1  0
 17 22  1  0
 23 24  1  0
 23 25  1  0
 23 26  2  0
 23 27  2  0
 24 28  1  0
 28 29  1  0
 29 30  1  0
 30 31  1  0
 31 32  1  0
 32 33  1  0
 33 34  1  0
 34 35  1  0
 35 36  1  0
 36 37  1  0
 37 38  1  0
 38 39  1  0
M  END
> <chembl_id>
CHEMBL5095050

> <chembl_pref_name>
FINGOLIMOD LAURYL SULFATE
