
     RDKit          2D

 37 39  0  0  0  0  0  0  0  0999 V2000
   -2.3438  -17.3563    0.0000 C   0  0  0  0  0  0  0  0  0  0  0  0
   -2.3438  -16.5313    0.0000 S   0  0  0  0  0  0  0  0  0  0  0  0
   -3.1687  -16.5313    0.0000 O   0  0  0  0  0  0  0  0  0  0  0  0
   -1.5188  -16.5313    0.0000 O   0  0  0  0  0  0  0  0  0  0  0  0
   -2.3438  -15.7063    0.0000 O   0  0  0  0  0  0  0  0  0  0  0  0
   -5.2558  -20.9741    0.0000 C   0  0  0  0  0  0  0  0  0  0  0  0
   -4.5481  -20.5567    0.0000 S   0  0  0  0  0  0  0  0  0  0  0  0
   -4.1306  -21.2644    0.0000 O   0  0  0  0  0  0  0  0  0  0  0  0
   -4.9676  -19.8453    0.0000 O   0  0  0  0  0  0  0  0  0  0  0  0
   -3.8367  -20.1371    0.0000 N   0  0  0  0  0  0  0  0  0  0  0  0
   -0.8984  -21.6003    0.0000 N   0  0  0  0  0  0  0  0  0  0  0  0
   -0.4184  -20.9268    0.0000 C   0  0  0  0  0  0  0  0  0  0  0  0
   -0.9108  -20.2663    0.0000 C   0  0  0  0  0  0  0  0  0  0  0  0
   -1.6931  -20.5284    0.0000 C   0  0  0  0  0  0  0  0  0  0  0  0
   -2.4092  -20.1230    0.0000 C   0  0  0  0  0  0  0  0  0  0  0  0
   -3.1206  -20.5425    0.0000 C   0  0  0  0  0  0  0  0  0  0  0  0
   -3.1122  -21.3654    0.0000 C   0  0  0  0  0  0  0  0  0  0  0  0
   -2.3940  -21.7744    0.0000 C   0  0  0  0  0  0  0  0  0  0  0  0
   -1.6827  -21.3549    0.0000 C   0  0  0  0  0  0  0  0  0  0  0  0
    0.4066  -20.9220    0.0000 C   0  0  0  0  0  0  0  0  0  0  0  0
    0.8240  -21.6298    0.0000 O   0  0  0  0  0  0  0  0  0  0  0  0
    0.8099  -20.2024    0.0000 N   0  0  0  0  0  0  0  0  0  0  0  0
    1.6348  -20.1976    0.0000 C   0  0  0  0  0  0  0  0  0  0  0  0
    2.0417  -19.4758    0.0000 C   0  0  0  0  0  0  0  0  0  0  0  0
    1.6243  -18.7680    0.0000 N   0  0  0  0  0  0  0  0  0  0  0  0
    0.7957  -18.7749    0.0000 C   0  0  0  0  0  0  0  0  0  0  0  0
    0.3924  -19.4945    0.0000 C   0  0  0  0  0  0  0  0  0  0  0  0
    2.0276  -18.0483    0.0000 C   0  0  0  0  0  0  0  0  0  0  0  0
    2.8526  -18.0435    0.0000 C   0  0  0  0  0  0  0  0  0  0  0  0
    3.2558  -17.3238    0.0000 C   0  0  0  0  0  0  0  0  0  0  0  0
    2.8384  -16.6161    0.0000 C   0  0  0  0  0  0  0  0  0  0  0  0
    2.0134  -16.6208    0.0000 C   0  0  0  0  0  0  0  0  0  0  0  0
    1.6101  -17.3406    0.0000 N   0  0  0  0  0  0  0  0  0  0  0  0
    3.2700  -18.7513    0.0000 N   0  0  0  0  0  0  0  0  0  0  0  0
    4.5124  -19.4543    0.0000 C   0  0  0  0  0  0  0  0  0  0  0  0
    4.0950  -18.7465    0.0000 C   0  0  0  0  0  0  0  0  0  0  0  0
    4.4983  -18.0269    0.0000 C   0  0  0  0  0  0  0  0  0  0  0  0
  1  2  1  0
  2  3  2  0
  2  4  2  0
  2  5  1  0
  7  8  2  0
  7  9  2  0
  7 10  1  0
  6  7  1  0
 11 12  1  0
 12 13  2  0
 13 14  1  0
 14 15  1  0
 15 16  2  0
 16 17  1  0
 17 18  2  0
 18 19  1  0
 11 19  1  0
 14 19  2  0
 20 21  2  0
 22 23  1  0
 23 24  1  0
 24 25  1  0
 25 26  1  0
 26 27  1  0
 22 27  1  0
 28 29  1  0
 29 30  2  0
 30 31  1  0
 31 32  2  0
 32 33  1  0
 28 33  2  0
 35 36  1  0
 36 37  1  0
 34 36  1  0
 29 34  1  0
 25 28  1  0
 20 22  1  0
 12 20  1  0
 10 16  1  0
M  END
> <chembl_id>
CHEMBL929

> <chembl_pref_name>
DELAVIRDINE MESYLATE
