
     RDKit          2D

 25 27  0  0  0  0  0  0  0  0999 V2000
    7.6998   -4.3902    0.0000 C   0  0  0  0  0  0  0  0  0  0  0  0
    7.2876   -5.1122    0.0000 C   0  0  0  0  0  0  0  0  0  0  0  0
    6.4582   -5.1152    0.0000 C   0  0  0  0  0  0  0  0  0  0  0  0
    7.2852   -3.6749    0.0000 C   0  0  0  0  0  0  0  0  0  0  0  0
    6.4572   -3.6744    0.0000 C   0  0  0  0  0  0  0  0  0  0  0  0
    6.0420   -4.3988    0.0000 C   0  0  0  0  0  0  0  0  0  0  0  0
    5.2247   -4.2278    0.0000 N   0  0  0  0  0  0  0  0  0  0  0  0
    5.1348   -3.3976    0.0000 C   0  0  0  0  0  0  0  0  0  0  0  0
    5.8965   -3.0557    0.0000 N   0  0  0  0  0  0  0  0  0  0  0  0
    4.4157   -2.9854    0.0000 S   0  0  0  0  0  0  0  0  0  0  0  0
    3.6990   -3.4021    0.0000 C   0  0  0  0  0  0  0  0  0  0  0  0
    4.4130   -2.1565    0.0000 O   0  0  0  0  0  0  0  0  0  0  0  0
    2.9799   -2.9899    0.0000 C   0  0  0  0  0  0  0  0  0  0  0  0
    2.2646   -3.4103    0.0000 C   0  0  0  0  0  0  0  0  0  0  0  0
    1.5458   -2.9987    0.0000 C   0  0  0  0  0  0  0  0  0  0  0  0
    1.5429   -2.1690    0.0000 C   0  0  0  0  0  0  0  0  0  0  0  0
    2.2644   -1.7524    0.0000 C   0  0  0  0  0  0  0  0  0  0  0  0
    2.9801   -2.1664    0.0000 N   0  0  0  0  0  0  0  0  0  0  0  0
    2.2692   -4.2391    0.0000 C   0  0  0  0  0  0  0  0  0  0  0  0
    0.8295   -3.4158    0.0000 O   0  0  0  0  0  0  0  0  0  0  0  0
    0.1102   -3.0039    0.0000 C   0  0  0  0  0  0  0  0  0  0  0  0
   -0.6062   -3.4209    0.0000 C   0  0  0  0  0  0  0  0  0  0  0  0
   -1.3255   -3.0091    0.0000 F   0  0  0  0  0  0  0  0  0  0  0  0
   -0.6032   -4.2499    0.0000 F   0  0  0  0  0  0  0  0  0  0  0  0
   -1.3163   -3.8386    0.0000 F   0  0  0  0  0  0  0  0  0  0  0  0
 10 12  1  0
  2  3  1  0
 11 13  1  0
  3  6  2  0
 13 14  2  0
  1  2  2  0
 14 15  1  0
  5  4  2  0
 15 16  2  0
  6  7  1  0
 16 17  1  0
  7  8  1  0
 17 18  2  0
 18 13  1  0
  8  9  2  0
 14 19  1  0
  9  5  1  0
 15 20  1  0
  4  1  1  0
 20 21  1  0
  8 10  1  0
 21 22  1  0
  5  6  1  0
 22 23  1  0
 10 11  1  0
 22 24  1  0
 22 25  1  0
M  CHG  2  10   1  12  -1
M  END
> <chembl_id>
CHEMBL480

> <chembl_pref_name>
LANSOPRAZOLE
