
     RDKit          2D

 22 21  0  0  0  0  0  0  0  0999 V2000
    6.2667  -11.6542    0.0000 Cl  0  0  0  0  0  0  0  0  0  0  0  0
    7.4917   -9.4167    0.0000 C   0  0  0  0  0  0  0  0  0  0  0  0
    7.4917   -8.7083    0.0000 O   0  0  0  0  0  0  0  0  0  0  0  0
    1.3625  -10.8458    0.0000 N   0  0  0  0  0  0  0  0  0  0  0  0
    3.8167  -10.8458    0.0000 O   0  0  0  0  0  0  0  0  0  0  0  0
    2.5875  -10.8458    0.0000 C   0  0  0  0  0  0  0  0  0  0  0  0
    4.4292  -10.4917    0.0000 C   0  0  0  0  0  0  0  0  0  0  0  0
    6.8792   -9.7750    0.0000 C   0  0  0  0  0  0  0  0  0  0  0  0
    1.9750  -10.4917    0.0000 C   0  0  0  0  0  0  0  0  0  0  0  0
    5.6542   -9.7792    0.0000 C   0  0  0  0  0  0  0  0  0  0  0  0
    3.2000  -10.4917    0.0000 C   0  0  0  0  0  0  0  0  0  0  0  0
    8.1083   -9.7708    0.0000 O   0  0  0  0  0  0  0  0  0  0  0  0
    6.2667   -9.4208    0.0000 C   0  0  0  0  0  0  0  0  0  0  0  0
    5.0417  -10.8458    0.0000 C   0  0  0  0  0  0  0  0  0  0  0  0
    4.4292   -9.7792    0.0000 C   0  0  0  0  0  0  0  0  0  0  0  0
    5.6542  -10.4917    0.0000 C   0  0  0  0  0  0  0  0  0  0  0  0
    5.0417   -9.4250    0.0000 C   0  0  0  0  0  0  0  0  0  0  0  0
    2.5875  -11.5542    0.0000 O   0  0  0  0  0  0  0  0  0  0  0  0
    0.7500  -10.4917    0.0000 C   0  0  0  0  0  0  0  0  0  0  0  0
    8.7208   -9.4125    0.0000 C   0  0  0  0  0  0  0  0  0  0  0  0
    0.1333  -10.8417    0.0000 C   0  0  0  0  0  0  0  0  0  0  0  0
    0.7500   -9.7833    0.0000 C   0  0  0  0  0  0  0  0  0  0  0  0
  3  2  2  0
  4  9  1  0
  5  7  1  0
  6 11  1  0
  7 15  2  0
  8  2  1  0
  9  6  1  0
 10 13  1  0
 11  5  1  0
 12  2  1  0
 13  8  1  0
 14 16  2  0
 15 17  1  0
 16 10  1  0
 17 10  2  0
 18  6  1  0
 19  4  1  0
 20 12  1  0
 21 19  1  0
 22 19  1  0
 14  7  1  0
M  END
> <chembl_id>
CHEMBL1201115

> <chembl_pref_name>
ESMOLOL HYDROCHLORIDE
