
     RDKit          2D

 41 44  0  0  0  0  0  0  0  0999 V2000
    2.3986   -5.3458    0.0000 C   0  0  0  0  0  0  0  0  0  0  0  0
    2.3974   -6.1732    0.0000 C   0  0  0  0  0  0  0  0  0  0  0  0
    3.1122   -6.5860    0.0000 C   0  0  0  0  0  0  0  0  0  0  0  0
    3.8287   -6.1727    0.0000 C   0  0  0  0  0  0  0  0  0  0  0  0
    3.8258   -5.3422    0.0000 C   0  0  0  0  0  0  0  0  0  0  0  0
    3.1104   -4.9330    0.0000 C   0  0  0  0  0  0  0  0  0  0  0  0
    1.6840   -4.9335    0.0000 C   0  0  0  0  0  0  0  0  0  0  0  0
    1.6838   -4.1085    0.0000 F   0  0  0  0  0  0  0  0  0  0  0  0
    0.9696   -5.3461    0.0000 F   0  0  0  0  0  0  0  0  0  0  0  0
    2.2672   -4.3500    0.0000 F   0  0  0  0  0  0  0  0  0  0  0  0
    3.1120   -7.4110    0.0000 C   0  0  0  0  0  0  0  0  0  0  0  0
    2.3974   -7.8234    0.0000 F   0  0  0  0  0  0  0  0  0  0  0  0
    3.8264   -7.8237    0.0000 F   0  0  0  0  0  0  0  0  0  0  0  0
    2.3152   -7.1973    0.0000 F   0  0  0  0  0  0  0  0  0  0  0  0
    4.5387   -4.9270    0.0000 C   0  0  0  0  0  0  0  0  0  0  0  0
    5.2547   -5.3368    0.0000 O   0  0  0  0  0  0  0  0  0  0  0  0
    4.5356   -4.1020    0.0000 C   0  0  0  0  0  0  0  0  0  0  0  0
    5.9677   -4.9216    0.0000 C   0  0  0  0  0  0  0  0  0  0  0  0
    6.6862   -5.3364    0.0000 C   0  0  0  0  0  0  0  0  0  0  0  0
    7.3970   -4.9247    0.0000 N   0  0  0  0  0  0  0  0  0  0  0  0
    7.3982   -4.0994    0.0000 C   0  0  0  0  0  0  0  0  0  0  0  0
    6.6823   -3.6874    0.0000 C   0  0  0  0  0  0  0  0  0  0  0  0
    5.9653   -4.1007    0.0000 O   0  0  0  0  0  0  0  0  0  0  0  0
    8.1115   -5.3372    0.0000 C   0  0  0  0  0  0  0  0  0  0  0  0
    6.6868   -6.1614    0.0000 C   0  0  0  0  0  0  0  0  0  0  0  0
    5.9733   -6.5716    0.0000 C   0  0  0  0  0  0  0  0  0  0  0  0
    5.9735   -7.3958    0.0000 C   0  0  0  0  0  0  0  0  0  0  0  0
    6.6888   -7.8086    0.0000 C   0  0  0  0  0  0  0  0  0  0  0  0
    7.4054   -7.3912    0.0000 C   0  0  0  0  0  0  0  0  0  0  0  0
    7.4016   -6.5683    0.0000 C   0  0  0  0  0  0  0  0  0  0  0  0
    6.6905   -8.6336    0.0000 F   0  0  0  0  0  0  0  0  0  0  0  0
    8.8260   -4.9247    0.0000 C   0  0  0  0  0  0  0  0  0  0  0  0
    9.5785   -5.2601    0.0000 N   0  0  0  0  0  0  0  0  0  0  0  0
   10.1306   -4.6470    0.0000 C   0  0  0  0  0  0  0  0  0  0  0  0
    9.7180   -3.9325    0.0000 N   0  0  0  0  0  0  0  0  0  0  0  0
    8.9111   -4.1041    0.0000 N   0  0  0  0  0  0  0  0  0  0  0  0
   10.0535   -3.1788    0.0000 P   0  0  0  0  0  0  0  0  0  0  0  0
    9.4625   -2.5875    0.0000 O   0  0  0  0  0  0  0  0  0  0  0  0
   10.6333   -2.5875    0.0000 O   0  0  0  0  0  0  0  0  0  0  0  0
   10.8750   -3.1750    0.0000 O   0  0  0  0  0  0  0  0  0  0  0  0
   10.9510   -4.7333    0.0000 O   0  0  0  0  0  0  0  0  0  0  0  0
  6  1  1  0
 24 32  1  0
 32 33  1  0
  5 15  1  0
 15 16  1  0
  1  7  1  0
 33 34  1  0
 34 35  1  0
 35 36  1  0
 36 32  2  0
 15 17  1  1
 35 37  1  0
  2  3  1  0
 37 38  2  0
 18 16  1  1
 37 39  1  0
 18 19  1  0
 37 40  1  0
  7  8  1  0
 34 41  2  0
  7  9  1  0
  3  4  2  0
  7 10  1  0
 18 23  1  0
 19 20  1  0
 20 21  1  0
 21 22  1  0
 22 23  1  0
 20 24  1  0
  3 11  1  0
 19 25  1  1
  4  5  1  0
 25 26  2  0
 11 12  1  0
 26 27  1  0
  1  2  2  0
 27 28  2  0
 11 13  1  0
 28 29  1  0
  5  6  2  0
 29 30  2  0
 30 25  1  0
 11 14  1  0
 28 31  1  0
M  END
> <chembl_id>
CHEMBL1199324

> <chembl_pref_name>
FOSAPREPITANT
