
     RDKit          2D

 38 41  0  0  1  0  0  0  0  0999 V2000
    2.4375   -3.1417    0.0000 C   0  0  0  0  0  0  0  0  0  0  0  0
    3.1125   -2.9292    0.0000 C   0  0  0  0  0  0  0  0  0  0  0  0
    0.5917   -4.1917    0.0000 C   0  0  0  0  0  0  0  0  0  0  0  0
    1.8167   -4.1917    0.0000 C   0  0  0  0  0  0  0  0  0  0  0  0
    2.4292   -3.8417    0.0000 C   0  0  0  0  0  0  0  0  0  0  0  0
    1.2042   -3.8375    0.0000 C   0  0  0  0  0  0  0  0  0  0  0  0
    0.5917   -4.9000    0.0000 C   0  0  0  0  0  0  0  0  0  0  0  0
    1.8250   -2.7792    0.0000 C   0  0  0  0  0  0  0  0  0  0  0  0
    1.2042   -3.1292    0.0000 C   0  0  0  0  0  0  0  0  0  0  0  0
   -0.0208   -3.8375    0.0000 C   0  0  0  0  0  0  0  0  0  0  0  0
    3.1042   -2.2167    0.0000 C   0  0  0  0  0  0  0  0  0  0  0  0
   -0.0208   -5.2542    0.0000 C   0  0  0  0  0  0  0  0  0  0  0  0
    3.7250   -2.5667    0.0000 O   0  0  0  0  0  0  0  0  0  0  0  0
    4.3417   -2.9167    0.0000 C   0  0  0  0  0  0  0  0  0  0  0  0
    3.5167   -3.5042    0.0000 C   0  0  0  0  0  0  0  0  0  0  0  0
    3.1000   -4.0708    0.0000 C   0  0  0  0  0  0  0  0  0  0  0  0
    1.8125   -4.9042    0.0000 C   0  0  0  0  0  0  0  0  0  0  0  0
   -0.6333   -4.1917    0.0000 C   0  0  0  0  0  0  0  0  0  0  0  0
   -0.6333   -4.9000    0.0000 C   0  0  0  0  0  0  0  0  0  0  0  0
    1.2000   -5.2542    0.0000 C   0  0  0  0  0  0  0  0  0  0  0  0
    4.9417   -1.8500    0.0000 C   0  0  0  0  0  0  0  0  0  0  0  0
    3.7167   -1.8542    0.0000 C   0  0  0  0  0  0  0  0  0  0  0  0
    4.3417   -3.6250    0.0000 O   0  0  0  0  0  0  0  0  0  0  0  0
    2.4917   -1.8667    0.0000 O   0  0  0  0  0  0  0  0  0  0  0  0
    4.3292   -2.2042    0.0000 O   0  0  0  0  0  0  0  0  0  0  0  0
    4.9375   -1.1417    0.0000 O   0  0  0  0  0  0  0  0  0  0  0  0
   -1.2458   -5.2500    0.0000 O   0  0  0  0  0  0  0  0  0  0  0  0
    2.4292   -2.4292    0.0000 C   0  0  0  0  0  0  0  0  0  0  0  0
    0.5917   -2.7667    0.0000 O   0  0  0  0  0  0  0  0  0  0  0  0
    4.9500   -2.5542    0.0000 O   0  0  0  0  0  0  0  0  0  0  0  0
    0.5875   -3.4792    0.0000 C   0  0  0  0  0  0  0  0  0  0  0  0
    5.5542   -2.2000    0.0000 C   0  0  0  0  0  0  0  0  0  0  0  0
    5.5667   -2.9042    0.0000 C   0  0  0  0  0  0  0  0  0  0  0  0
    6.1667   -1.8417    0.0000 C   0  0  0  0  0  0  0  0  0  0  0  0
    6.1750   -2.5417    0.0000 C   0  0  0  0  0  0  0  0  0  0  0  0
    1.2000   -4.5417    0.0000 H   0  0  0  0  0  0  0  0  0  0  0  0
    2.4250   -4.5542    0.0000 H   0  0  0  0  0  0  0  0  0  0  0  0
    1.8125   -3.4875    0.0000 H   0  0  0  0  0  0  0  0  0  0  0  0
  2  1  1  0
  3  6  1  0
  4  5  1  0
  5  1  1  0
  6  9  1  0
  7  3  1  0
  8  1  1  0
  9  8  1  0
 10  3  1  0
 11  2  1  0
 12  7  2  0
  2 13  1  6
 14 13  1  0
 15  2  1  0
 16  5  1  0
 17  4  1  0
 18 10  2  0
 19 18  1  0
 20 17  1  0
 21 25  1  0
 22 11  1  0
 23 14  2  0
 24 11  2  0
 25 22  1  0
 26 21  2  0
 27 19  2  0
  1 28  1  1
  9 29  1  1
 30 14  1  0
  3 31  1  1
 32 21  1  0
 33 30  1  0
 34 32  1  0
 35 33  1  0
  6 36  1  6
  5 37  1  6
  4 38  1  1
 15 16  1  0
  6  4  1  0
 20  7  1  0
 19 12  1  0
M  END
> <chembl_id>
CHEMBL1200386

> <chembl_pref_name>
PREDNICARBATE
