
     RDKit          2D

 12 11  0  0  0  0  0  0  0  0999 V2000
    0.0042   -6.1875    0.0000 C   0  0  0  0  0  0  0  0  0  0  0  0
    1.2417   -6.1875    0.0000 C   0  0  0  0  0  0  0  0  0  0  0  0
    0.6250   -5.8292    0.0000 C   0  0  0  0  0  0  0  0  0  0  0  0
   -0.6000   -5.8292    0.0000 F   0  0  0  0  0  0  0  0  0  0  0  0
    1.8542   -5.8292    0.0000 F   0  0  0  0  0  0  0  0  0  0  0  0
    1.5917   -6.8000    0.0000 F   0  0  0  0  0  0  0  0  0  0  0  0
    0.8875   -6.8000    0.0000 F   0  0  0  0  0  0  0  0  0  0  0  0
    0.3542   -6.8000    0.0000 F   0  0  0  0  0  0  0  0  0  0  0  0
   -0.3500   -6.8000    0.0000 F   0  0  0  0  0  0  0  0  0  0  0  0
    0.6167   -5.1750    0.0000 O   0  0  0  0  0  0  0  0  0  0  0  0
    0.0042   -4.8375    0.0000 C   0  0  0  0  0  0  0  0  0  0  0  0
   -0.5875   -5.2250    0.0000 F   0  0  0  0  0  0  0  0  0  0  0  0
  2  3  1  0
  3  1  1  0
  4  1  1  0
  5  2  1  0
  6  2  1  0
  7  2  1  0
  8  1  1  0
  9  1  1  0
 10  3  1  0
 11 10  1  0
 12 11  1  0
M  END
> <chembl_id>
CHEMBL1200694

> <chembl_pref_name>
SEVOFLURANE
