
     RDKit          2D

 39 42  0  0  0  0  0  0  0  0999 V2000
    9.0125   -3.5125    0.0000 S   0  0  0  0  0  0  0  0  0  0  0  0
    8.3958   -2.4542    0.0000 C   0  0  0  0  0  0  0  0  0  0  0  0
    9.0125   -2.8042    0.0000 N   0  0  0  0  0  0  0  0  0  0  0  0
    8.3958   -1.7458    0.0000 C   0  0  0  0  0  0  0  0  0  0  0  0
    7.7875   -2.8083    0.0000 N   0  0  0  0  0  0  0  0  0  0  0  0
    7.1667   -1.7500    0.0000 N   0  0  0  0  0  0  0  0  0  0  0  0
    7.1708   -2.4542    0.0000 C   0  0  0  0  0  0  0  0  0  0  0  0
    7.7750   -1.3917    0.0000 C   0  0  0  0  0  0  0  0  0  0  0  0
    9.0083   -1.3875    0.0000 O   0  0  0  0  0  0  0  0  0  0  0  0
    6.5625   -2.8125    0.0000 C   0  0  0  0  0  0  0  0  0  0  0  0
    9.6292   -3.8667    0.0000 C   0  0  0  0  0  0  0  0  0  0  0  0
    9.6208   -1.7375    0.0000 C   0  0  0  0  0  0  0  0  0  0  0  0
    8.6542   -4.1250    0.0000 O   0  0  0  0  0  0  0  0  0  0  0  0
    8.3042   -3.5125    0.0000 O   0  0  0  0  0  0  0  0  0  0  0  0
    5.9500   -2.4583    0.0000 N   0  0  0  0  0  0  0  0  0  0  0  0
    6.5625   -3.5250    0.0000 N   0  0  0  0  0  0  0  0  0  0  0  0
   11.4667   -4.9208    0.0000 C   0  0  0  0  0  0  0  0  0  0  0  0
   10.8542   -4.5708    0.0000 C   0  0  0  0  0  0  0  0  0  0  0  0
   10.2292   -1.3792    0.0000 C   0  0  0  0  0  0  0  0  0  0  0  0
   10.2333   -3.5083    0.0000 C   0  0  0  0  0  0  0  0  0  0  0  0
    9.6250   -4.5750    0.0000 C   0  0  0  0  0  0  0  0  0  0  0  0
   10.2417   -4.9250    0.0000 C   0  0  0  0  0  0  0  0  0  0  0  0
   10.8500   -3.8583    0.0000 C   0  0  0  0  0  0  0  0  0  0  0  0
    7.7708   -0.6833    0.0000 O   0  0  0  0  0  0  0  0  0  0  0  0
   10.2250   -0.6708    0.0000 O   0  0  0  0  0  0  0  0  0  0  0  0
    5.3375   -3.5250    0.0000 C   0  0  0  0  0  0  0  0  0  0  0  0
    5.9500   -3.8792    0.0000 C   0  0  0  0  0  0  0  0  0  0  0  0
    5.3375   -2.8125    0.0000 C   0  0  0  0  0  0  0  0  0  0  0  0
    8.9875    0.7417    0.0000 O   0  0  0  0  0  0  0  0  0  0  0  0
    9.6250   -2.4458    0.0000 C   0  0  0  0  0  0  0  0  0  0  0  0
   12.0792   -4.5667    0.0000 C   0  0  0  0  0  0  0  0  0  0  0  0
   11.1042   -5.5292    0.0000 C   0  0  0  0  0  0  0  0  0  0  0  0
   11.8167   -5.5292    0.0000 C   0  0  0  0  0  0  0  0  0  0  0  0
   10.8458   -1.7292    0.0000 C   0  0  0  0  0  0  0  0  0  0  0  0
    8.3833   -0.3250    0.0000 C   0  0  0  0  0  0  0  0  0  0  0  0
    8.3792    0.3833    0.0000 C   0  0  0  0  0  0  0  0  0  0  0  0
   10.8333   -0.3125    0.0000 C   0  0  0  0  0  0  0  0  0  0  0  0
   10.2375   -2.7958    0.0000 C   0  0  0  0  0  0  0  0  0  0  0  0
   10.8500   -2.4375    0.0000 C   0  0  0  0  0  0  0  0  0  0  0  0
  2  3  1  0
  3  1  1  0
  4  2  2  0
  5  2  1  0
  6  7  1  0
  7  5  2  0
  8  4  1  0
  9  4  1  0
 10  7  1  0
 11  1  1  0
 12  9  1  0
 13  1  2  0
 14  1  2  0
 15 10  2  0
 16 10  1  0
 17 18  1  0
 18 23  1  0
 19 12  1  0
 20 11  1  0
 21 11  2  0
 22 21  1  0
 23 20  2  0
 24  8  1  0
 25 19  1  0
 26 27  1  0
 27 16  2  0
 28 15  1  0
 29 36  1  0
 30 12  2  0
 31 17  1  0
 32 17  1  0
 33 17  1  0
 34 19  2  0
 35 24  1  0
 36 35  1  0
 37 25  1  0
 38 30  1  0
 39 38  2  0
 18 22  2  0
  6  8  2  0
 26 28  2  0
 34 39  1  0
M  END
> <chembl_id>
CHEMBL957

> <chembl_pref_name>
BOSENTAN
