
     RDKit          2D

 35 39  0  0  0  0  0  0  0  0999 V2000
   -1.0550   -3.7508    0.0000 C   0  0  0  0  0  0  0  0  0  0  0  0
   -1.8800   -3.7508    0.0000 C   0  0  0  0  0  0  0  0  0  0  0  0
   -2.2925   -4.4653    0.0000 C   0  0  0  0  0  0  0  0  0  0  0  0
   -1.8800   -5.1798    0.0000 C   0  0  0  0  0  0  0  0  0  0  0  0
   -1.0550   -5.1797    0.0000 C   0  0  0  0  0  0  0  0  0  0  0  0
   -0.6425   -4.4653    0.0000 C   0  0  0  0  0  0  0  0  0  0  0  0
   -0.6425   -5.8942    0.0000 C   0  0  0  0  0  0  0  0  0  0  0  0
    0.1825   -5.8942    0.0000 C   0  0  0  0  0  0  0  0  0  0  0  0
    0.5950   -5.1797    0.0000 C   0  0  0  0  0  0  0  0  0  0  0  0
    0.1825   -4.4653    0.0000 C   0  0  0  0  0  0  0  0  0  0  0  0
    0.5950   -3.7508    0.0000 C   0  0  0  0  0  0  0  0  0  0  0  0
    1.4200   -3.7508    0.0000 C   0  0  0  0  0  0  0  0  0  0  0  0
    1.8325   -4.4652    0.0000 C   0  0  0  0  0  0  0  0  0  0  0  0
    1.4200   -5.1797    0.0000 C   0  0  0  0  0  0  0  0  0  0  0  0
    1.9720   -5.7928    0.0000 C   0  0  0  0  0  0  0  0  0  0  0  0
    2.7257   -5.4572    0.0000 C   0  0  0  0  0  0  0  0  0  0  0  0
    2.6394   -4.6368    0.0000 C   0  0  0  0  0  0  0  0  0  0  0  0
    4.5011   -2.8972    0.0000 N   0  0  0  0  0  0  0  0  0  0  0  0
    3.6941   -2.7257    0.0000 N   0  0  0  0  0  0  0  0  0  0  0  0
    3.6078   -1.9052    0.0000 C   0  0  0  0  0  0  0  0  0  0  0  0
    4.3615   -1.5697    0.0000 C   0  0  0  0  0  0  0  0  0  0  0  0
    4.9136   -2.1827    0.0000 C   0  0  0  0  0  0  0  0  0  0  0  0
   -3.0210   -4.0780    0.0000 C   0  0  0  0  0  0  0  0  0  0  0  0
   -3.0210   -4.8526    0.0000 O   0  0  0  0  0  0  0  0  0  0  0  0
   -0.2300   -5.1797    0.0000 H   0  0  0  0  0  0  0  0  0  0  0  0
   -0.2300   -3.7508    0.0000 H   0  0  0  0  0  0  0  0  0  0  0  0
    1.0075   -4.4653    0.0000 H   0  0  0  0  0  0  0  0  0  0  0  0
    1.0075   -5.8942    0.0000 H   0  0  0  0  0  0  0  0  0  0  0  0
    2.2405   -5.0935    0.0000 H   0  0  0  0  0  0  0  0  0  0  0  0
    2.3174   -3.7978    0.0000 C   0  0  0  0  0  0  0  0  0  0  0  0
    3.2525   -4.0847    0.0000 C   0  0  0  0  0  0  0  0  0  0  0  0
    4.0372   -4.3396    0.0000 O   0  0  0  0  0  0  0  0  0  0  0  0
    3.0810   -3.2777    0.0000 C   0  0  0  0  0  0  0  0  0  0  0  0
    4.5330   -0.7627    0.0000 C   0  0  0  0  0  0  0  0  0  0  0  0
    4.7045    0.0443    0.0000 N   0  0  0  0  0  0  0  0  0  0  0  0
  1  2  1  0
  2  3  1  0
  3  4  1  0
  4  5  1  0
  5  6  1  0
  1  6  1  0
  7  8  1  0
  8  9  1  0
  9 10  1  0
  5  7  1  0
  6 10  1  0
 11 12  1  0
 12 13  1  0
 13 14  1  0
  9 14  1  0
 10 11  1  0
 15 16  1  0
 16 17  1  0
 13 17  1  0
 14 15  1  0
 18 19  1  0
 19 20  1  0
 20 21  2  0
 21 22  1  0
 18 22  2  0
  3 23  1  0
  3 24  1  6
  5 25  1  1
  6 26  1  1
 10 27  1  6
  9 28  1  1
 14 29  1  6
 13 30  1  1
 17 31  1  1
 31 32  2  0
 31 33  1  0
 33 19  1  0
 21 34  1  0
 34 35  3  0
M  END
> <chembl_id>
CHEMBL4105630

> <chembl_pref_name>
ZURANOLONE
