
     RDKit          2D

 36 38  0  0  0  0  0  0  0  0999 V2000
   13.0544  -10.3371    0.0000 C   0  0  0  0  0  0  0  0  0  0  0  0
   14.4838  -10.3335    0.0000 C   0  0  0  0  0  0  0  0  0  0  0  0
   13.7674   -9.9236    0.0000 N   0  0  0  0  0  0  0  0  0  0  0  0
   14.4867  -11.1652    0.0000 C   0  0  0  0  0  0  0  0  0  0  0  0
   15.2019  -12.4016    0.0000 N   0  0  0  0  0  0  0  0  0  0  0  0
   15.2000  -11.5768    0.0000 C   0  0  0  0  0  0  0  0  0  0  0  0
   13.0532  -11.1657    0.0000 C   0  0  0  0  0  0  0  0  0  0  0  0
   12.3417  -11.5792    0.0000 N   0  0  0  0  0  0  0  0  0  0  0  0
   12.3439  -12.4039    0.0000 C   0  0  0  0  0  0  0  0  0  0  0  0
   14.4828  -12.8184    0.0000 C   0  0  0  0  0  0  0  0  0  0  0  0
   13.0558  -12.7999    0.0000 C   0  0  0  0  0  0  0  0  0  0  0  0
   13.0461  -13.6247    0.0000 C   0  0  0  0  0  0  0  0  0  0  0  0
   13.7600  -14.0448    0.0000 N   0  0  0  0  0  0  0  0  0  0  0  0
   14.4749  -13.6390    0.0000 C   0  0  0  0  0  0  0  0  0  0  0  0
   11.6250  -11.1680    0.0000 C   0  0  0  0  0  0  0  0  0  0  0  0
   10.9106  -11.5831    0.0000 C   0  0  0  0  0  0  0  0  0  0  0  0
    5.9062  -10.3454    0.0000 C   0  0  0  0  0  0  0  0  0  0  0  0
    7.3355  -10.3418    0.0000 C   0  0  0  0  0  0  0  0  0  0  0  0
    6.6191   -9.9321    0.0000 N   0  0  0  0  0  0  0  0  0  0  0  0
    7.3384  -11.1735    0.0000 C   0  0  0  0  0  0  0  0  0  0  0  0
    8.0536  -12.4099    0.0000 N   0  0  0  0  0  0  0  0  0  0  0  0
    8.0517  -11.5852    0.0000 C   0  0  0  0  0  0  0  0  0  0  0  0
    5.9050  -11.1740    0.0000 C   0  0  0  0  0  0  0  0  0  0  0  0
    5.1934  -11.5876    0.0000 N   0  0  0  0  0  0  0  0  0  0  0  0
    5.1956  -12.4122    0.0000 C   0  0  0  0  0  0  0  0  0  0  0  0
    7.3345  -12.8267    0.0000 C   0  0  0  0  0  0  0  0  0  0  0  0
    5.9076  -12.8082    0.0000 C   0  0  0  0  0  0  0  0  0  0  0  0
    5.8979  -13.6331    0.0000 C   0  0  0  0  0  0  0  0  0  0  0  0
    6.6117  -14.0531    0.0000 N   0  0  0  0  0  0  0  0  0  0  0  0
    7.3266  -13.6474    0.0000 C   0  0  0  0  0  0  0  0  0  0  0  0
    8.7701  -12.8216    0.0000 C   0  0  0  0  0  0  0  0  0  0  0  0
    9.4848  -12.4070    0.0000 C   0  0  0  0  0  0  0  0  0  0  0  0
   10.2001  -12.8223    0.0000 C   0  0  0  0  0  0  0  0  0  0  0  0
   10.9144  -12.4084    0.0000 C   0  0  0  0  0  0  0  0  0  0  0  0
   10.1916  -11.1698    0.0000 C   0  0  0  0  0  0  0  0  0  0  0  0
    9.4804  -11.5861    0.0000 C   0  0  0  0  0  0  0  0  0  0  0  0
 20 18  1  0
  8  9  1  0
 18 19  1  0
 19 17  1  0
  9 11  1  0
  4  2  1  0
 26 21  1  0
 10  5  1  0
 21 22  1  0
 22 20  1  0
  1  7  1  0
 11 12  1  0
 23 24  1  0
  5  6  1  0
 24 25  1  0
 25 27  1  0
 12 13  1  0
  6  4  1  0
 13 14  1  0
 27 28  1  0
 14 10  1  0
 28 29  1  0
  2  3  1  0
 29 30  1  0
 30 26  1  0
  8 15  1  0
 21 31  1  0
  3  1  1  0
 31 32  1  0
 15 16  1  0
 32 33  2  0
  7  8  1  0
 33 34  1  0
 34 16  2  0
 17 23  1  0
 16 35  1  0
 35 36  2  0
 36 32  1  0
M  END
> <chembl_id>
CHEMBL18442

> <chembl_pref_name>
PLERIXAFOR
