
     RDKit          2D

  7  4  0  0  0  0  0  0  0  0999 V2000
   -1.6458   -2.0792    0.0000 K   0  0  0  0  0 15  0  0  0  0  0  0
    1.5500    0.6958    0.0000 S   0  0  0  0  0  0  0  0  0  0  0  0
    0.0667    0.6458    0.0000 O   0  0  0  0  0  0  0  0  0  0  0  0
    2.8542    0.6458    0.0000 O   0  0  0  0  0  0  0  0  0  0  0  0
    1.5875    2.1750    0.0000 O   0  0  0  0  0  0  0  0  0  0  0  0
    1.6792   -0.7625    0.0000 O   0  0  0  0  0  0  0  0  0  0  0  0
   -3.0625    1.9708    0.0000 K   0  0  0  0  0 15  0  0  0  0  0  0
  3  2  1  0
  4  2  1  0
  5  2  2  0
  6  2  2  0
M  CHG  4   1   1   3  -1   4  -1   7   1
M  END
> <chembl_id>
CHEMBL2021424

> <chembl_pref_name>
POTASSIUM SULFATE
