
     RDKit          2D

 22 24  0  0  0  0  0  0  0  0999 V2000
    3.7375   -4.3833    0.0000 C   0  0  0  0  0  0  0  0  0  0  0  0
    4.1625   -4.9542    0.0000 N   0  0  0  0  0  0  0  0  0  0  0  0
    4.1542   -3.8042    0.0000 N   0  0  0  0  0  0  0  0  0  0  0  0
    3.0250   -4.3917    0.0000 N   0  0  0  0  0  0  0  0  0  0  0  0
    4.8375   -4.7375    0.0000 C   0  0  0  0  0  0  0  0  0  0  0  0
    2.6667   -5.0125    0.0000 C   0  0  0  0  0  0  0  0  0  0  0  0
    4.8375   -4.0167    0.0000 C   0  0  0  0  0  0  0  0  0  0  0  0
    6.0667   -4.7292    0.0000 C   0  0  0  0  0  0  0  0  0  0  0  0
    6.6792   -5.0667    0.0000 C   0  0  0  0  0  0  0  0  0  0  0  0
    5.4500   -5.0750    0.0000 C   0  0  0  0  0  0  0  0  0  0  0  0
    3.0292   -5.6167    0.0000 O   0  0  0  0  0  0  0  0  0  0  0  0
    6.0625   -4.0083    0.0000 C   0  0  0  0  0  0  0  0  0  0  0  0
    6.6917   -5.7792    0.0000 O   0  0  0  0  0  0  0  0  0  0  0  0
    5.4417   -3.6625    0.0000 C   0  0  0  0  0  0  0  0  0  0  0  0
    7.3000   -4.7042    0.0000 C   0  0  0  0  0  0  0  0  0  0  0  0
    1.9542   -5.0167    0.0000 O   0  0  0  0  0  0  0  0  0  0  0  0
    7.9250   -5.0542    0.0000 C   0  0  0  0  0  0  0  0  0  0  0  0
    7.3000   -4.0000    0.0000 C   0  0  0  0  0  0  0  0  0  0  0  0
    1.6042   -5.6292    0.0000 C   0  0  0  0  0  0  0  0  0  0  0  0
    7.9125   -3.6417    0.0000 C   0  0  0  0  0  0  0  0  0  0  0  0
    8.5375   -4.7000    0.0000 C   0  0  0  0  0  0  0  0  0  0  0  0
    8.5375   -4.0000    0.0000 C   0  0  0  0  0  0  0  0  0  0  0  0
  2  1  2  0
  3  1  1  0
  4  1  1  0
  5  2  1  0
  6  4  1  0
  7  3  1  0
  8 10  2  0
  9  8  1  0
 10  5  1  0
 11  6  2  0
 12 14  2  0
 13  9  2  0
 14  7  1  0
 15  9  1  0
 16  6  1  0
 17 15  2  0
 18 15  1  0
 19 16  1  0
 20 18  2  0
 21 17  1  0
 22 20  1  0
  7  5  2  0
 12  8  1  0
 22 21  2  0
M  END
> <chembl_id>
CHEMBL685

> <chembl_pref_name>
MEBENDAZOLE
