
     RDKit          2D

 14 13  0  0  0  0  0  0  0  0999 V2000
   -0.0500   -1.2542    0.0000 C   0  0  0  0  0  0  0  0  0  0  0  0
   -1.2375   -1.9417    0.0000 P   0  0  0  0  0  0  0  0  0  0  0  0
    1.1542   -1.9375    0.0000 P   0  0  0  0  0  0  0  0  0  0  0  0
   -2.0708   -0.8667    0.0000 O   0  0  0  0  0  0  0  0  0  0  0  0
    1.9292   -0.8042    0.0000 O   0  0  0  0  0  0  0  0  0  0  0  0
    0.4417    0.0458    0.0000 O   0  0  0  0  0  0  0  0  0  0  0  0
   -1.0625   -3.3250    0.0000 O   0  0  0  0  0  0  0  0  0  0  0  0
    1.1667   -3.3375    0.0000 O   0  0  0  0  0  0  0  0  0  0  0  0
    2.1417   -2.9042    0.0000 O   0  0  0  0  0  0  0  0  0  0  0  0
   -2.0708   -3.0542    0.0000 O   0  0  0  0  0  0  0  0  0  0  0  0
   -0.4000    0.0833    0.0000 C   0  0  0  0  0  0  0  0  0  0  0  0
    1.2625    3.4333    0.0000 N   0  0  0  0  0  0  0  0  0  0  0  0
    0.2667    2.4333    0.0000 C   0  0  0  0  0  0  0  0  0  0  0  0
    0.5792    1.0708    0.0000 C   0  0  0  0  0  0  0  0  0  0  0  0
  2  1  1  0
  3  1  1  0
  4  2  2  0
  5  3  2  0
  6  1  1  0
  7  2  1  0
  8  3  1  0
  9  3  1  0
 10  2  1  0
 11  1  1  0
 12 13  1  0
 13 14  1  0
 14 11  1  0
M  END
> <chembl_id>
CHEMBL870

> <chembl_pref_name>
ALENDRONIC ACID
