
     RDKit          2D

 22 24  0  0  0  0  0  0  0  0999 V2000
    0.6292    0.0208    0.0000 S   0  0  0  0  0  0  0  0  0  0  0  0
   -0.1958    0.4333    0.0000 N   0  0  0  0  0  0  0  0  0  0  0  0
   -0.2458    1.3583    0.0000 C   0  0  0  0  0  0  0  0  0  0  0  0
   -1.8750    1.3208    0.0000 N   0  0  0  0  0  0  0  0  0  0  0  0
   -1.0708    1.7833    0.0000 N   0  0  0  0  0  0  0  0  0  0  0  0
    1.6167   -0.4792    0.0000 C   0  0  0  0  0  0  0  0  0  0  0  0
    1.0000    0.7458    0.0000 O   0  0  0  0  0  0  0  0  0  0  0  0
    0.2375   -0.7542    0.0000 O   0  0  0  0  0  0  0  0  0  0  0  0
   -2.7208    1.7000    0.0000 C   0  0  0  0  0  0  0  0  0  0  0  0
   -1.9833    0.4000    0.0000 C   0  0  0  0  0  0  0  0  0  0  0  0
   -3.3458    1.0125    0.0000 C   0  0  0  0  0  0  0  0  0  0  0  0
   -2.8875    0.2125    0.0000 C   0  0  0  0  0  0  0  0  0  0  0  0
    0.5292    1.8625    0.0000 O   0  0  0  0  0  0  0  0  0  0  0  0
    2.4667    0.0833    0.0000 C   0  0  0  0  0  0  0  0  0  0  0  0
    1.6667   -1.5000    0.0000 C   0  0  0  0  0  0  0  0  0  0  0  0
    3.3875   -0.3875    0.0000 C   0  0  0  0  0  0  0  0  0  0  0  0
    2.5792   -1.9667    0.0000 C   0  0  0  0  0  0  0  0  0  0  0  0
    3.4292   -1.3792    0.0000 C   0  0  0  0  0  0  0  0  0  0  0  0
   -4.2458    0.8250    0.0000 C   0  0  0  0  0  0  0  0  0  0  0  0
   -3.5083   -0.4667    0.0000 C   0  0  0  0  0  0  0  0  0  0  0  0
   -4.3458   -0.0875    0.0000 C   0  0  0  0  0  0  0  0  0  0  0  0
    4.3417   -1.8542    0.0000 C   0  0  0  0  0  0  0  0  0  0  0  0
  2  1  1  0
  3  2  1  0
  4  5  1  0
  5  3  1  0
  6  1  1  0
  7  1  2  0
  8  1  2  0
  9  4  1  0
 10  4  1  0
 11  9  1  0
 12 10  1  0
 13  3  2  0
 14  6  1  0
 15  6  2  0
 16 14  2  0
 17 15  1  0
 18 17  2  0
 19 11  1  0
 20 12  1  0
 21 20  1  0
 22 18  1  0
 16 18  1  0
 11 12  1  0
 19 21  1  0
M  END
> <chembl_id>
CHEMBL427216

> <chembl_pref_name>
GLICLAZIDE
