
     RDKit          2D

 34 37  0  0  1  0  0  0  0  0999 V2000
    0.8167    0.6875    0.0000 C   0  0  0  0  0  0  0  0  0  0  0  0
   -0.9000    0.6875    0.0000 C   0  0  0  0  0  0  0  0  0  0  0  0
    0.8167   -0.3042    0.0000 C   0  0  0  0  0  0  0  0  0  0  0  0
    2.5375    0.6875    0.0000 C   0  0  0  0  0  0  0  0  0  0  0  0
   -0.0458    1.1875    0.0000 C   0  0  0  0  0  0  0  0  0  0  0  0
    1.6792    1.1875    0.0000 C   0  0  0  0  0  0  0  0  0  0  0  0
    2.5375   -0.3042    0.0000 C   0  0  0  0  0  0  0  0  0  0  0  0
   -0.9000   -0.3042    0.0000 C   0  0  0  0  0  0  0  0  0  0  0  0
   -1.7625    1.1875    0.0000 C   0  0  0  0  0  0  0  0  0  0  0  0
   -1.7625   -0.8000    0.0000 C   0  0  0  0  0  0  0  0  0  0  0  0
    1.6792   -0.8000    0.0000 C   0  0  0  0  0  0  0  0  0  0  0  0
   -2.6250    0.6875    0.0000 C   0  0  0  0  0  0  0  0  0  0  0  0
   -0.0458   -0.8000    0.0000 C   0  0  0  0  0  0  0  0  0  0  0  0
   -2.6250   -0.3042    0.0000 C   0  0  0  0  0  0  0  0  0  0  0  0
    3.4042    1.1833    0.0000 C   0  0  0  0  0  0  0  0  0  0  0  0
    1.6792   -1.7917    0.0000 N   0  0  0  0  0  0  0  0  0  0  0  0
    1.6792    2.1833    0.0000 O   0  0  0  0  0  0  0  0  0  0  0  0
   -1.7625    2.1833    0.0000 O   0  0  0  0  0  0  0  0  0  0  0  0
   -3.4833    1.1875    0.0000 C   0  0  0  0  0  0  0  0  0  0  0  0
   -1.7583   -1.6042    0.0000 C   0  0  0  0  0  0  0  0  0  0  0  0
    0.8167    1.6875    0.0000 O   0  0  0  0  0  0  0  0  0  0  0  0
    3.4167    2.1833    0.0000 O   0  0  0  0  0  0  0  0  0  0  0  0
   -0.0458    2.1833    0.0000 O   0  0  0  0  0  0  0  0  0  0  0  0
    3.4042   -0.8125    0.0000 O   0  0  0  0  0  0  0  0  0  0  0  0
   -0.0458   -1.7917    0.0000 O   0  0  0  0  0  0  0  0  0  0  0  0
    4.2667    0.6833    0.0000 N   0  0  0  0  0  0  0  0  0  0  0  0
   -3.4833   -0.8000    0.0000 C   0  0  0  0  0  0  0  0  0  0  0  0
   -3.4833    2.1833    0.0000 O   0  0  0  0  0  0  0  0  0  0  0  0
   -4.3458   -0.3042    0.0000 C   0  0  0  0  0  0  0  0  0  0  0  0
   -4.3458    0.6875    0.0000 C   0  0  0  0  0  0  0  0  0  0  0  0
    0.8167   -2.2917    0.0000 C   0  0  0  0  0  0  0  0  0  0  0  0
    2.5375   -2.2917    0.0000 C   0  0  0  0  0  0  0  0  0  0  0  0
    0.8042   -1.3000    0.0000 H   0  0  0  0  0  0  0  0  0  0  0  0
   -0.9000   -1.2542    0.0000 H   0  0  0  0  0  0  0  0  0  0  0  0
  2  5  2  0
  3  1  1  0
  4  6  1  0
  5  1  1  0
  6  1  1  0
  7  4  2  0
  8  2  1  0
  9  2  1  0
 10  8  1  0
 11  3  1  0
 12  9  1  0
 13  3  1  0
 14 12  2  0
 15  4  1  0
 11 16  1  1
 17  6  2  0
 18  9  2  0
 19 12  1  0
 20 10  2  0
  1 21  1  1
 22 15  2  0
 23  5  1  0
 24  7  1  0
 13 25  1  1
 26 15  1  0
 27 14  1  0
 28 19  1  0
 29 30  1  0
 30 19  2  0
 31 16  1  0
 32 16  1  0
  3 33  1  1
  8 34  1  1
 13  8  1  0
 11  7  1  0
 10 14  1  0
 29 27  2  0
M  END
> <chembl_id>
CHEMBL249837

> <chembl_pref_name>
METHACYCLINE
