
     RDKit          2D

 21 24  0  0  0  0  0  0  0  0999 V2000
    8.9018  -41.0382    0.0000 C   0  0  0  0  0  0  0  0  0  0  0  0
   10.3233  -41.8781    0.0000 C   0  0  0  0  0  0  0  0  0  0  0  0
    9.6080  -42.2731    0.0000 C   0  0  0  0  0  0  0  0  0  0  0  0
    8.8876  -41.8530    0.0000 C   0  0  0  0  0  0  0  0  0  0  0  0
   10.3375  -41.0632    0.0000 C   0  0  0  0  0  0  0  0  0  0  0  0
    9.6364  -40.6435    0.0000 C   0  0  0  0  0  0  0  0  0  0  0  0
    8.1912  -40.6183    0.0000 N   0  0  0  0  0  0  0  0  0  0  0  0
   11.0384  -42.3175    0.0000 C   0  0  0  0  0  0  0  0  0  0  0  0
    8.1627  -42.2479    0.0000 C   0  0  0  0  0  0  0  0  0  0  0  0
   11.7536  -41.9225    0.0000 C   0  0  0  0  0  0  0  0  0  0  0  0
   11.0672  -40.6685    0.0000 C   0  0  0  0  0  0  0  0  0  0  0  0
    7.4614  -41.0131    0.0000 C   0  0  0  0  0  0  0  0  0  0  0  0
    7.4471  -41.8279    0.0000 C   0  0  0  0  0  0  0  0  0  0  0  0
   11.7681  -41.0882    0.0000 C   0  0  0  0  0  0  0  0  0  0  0  0
   11.0240  -43.1420    0.0000 O   0  0  0  0  0  0  0  0  0  0  0  0
    9.5936  -43.0976    0.0000 C   0  0  0  0  0  0  0  0  0  0  0  0
   12.4594  -42.3423    0.0000 O   0  0  0  0  0  0  0  0  0  0  0  0
    8.2053  -39.8132    0.0000 C   0  0  0  0  0  0  0  0  0  0  0  0
    8.8589  -43.4923    0.0000 C   0  0  0  0  0  0  0  0  0  0  0  0
    8.1484  -43.0723    0.0000 C   0  0  0  0  0  0  0  0  0  0  0  0
    8.9081  -40.1263    0.0000 H   0  0  0  0  0  0  0  0  0  0  0  0
  2  5  2  0
  3  4  2  0
  4  1  1  0
  5  6  1  0
  6  1  1  0
  7  1  1  0
  8  2  1  0
  9  4  1  0
 10 14  1  0
 11  5  1  0
 12  7  1  0
 13 12  1  0
 14 11  2  0
 15  8  1  0
 16  3  1  0
 17 10  1  0
 18  7  1  0
 19 20  1  0
 20  9  2  0
  1 21  1  1
  2  3  1  0
 13  9  1  0
 19 16  2  0
 10  8  2  0
M  END
> <chembl_id>
CHEMBL53

> <chembl_pref_name>
APOMORPHINE
