
     RDKit          2D

 38 39  0  0  0  0  0  0  0  0999 V2000
    3.7977   -2.6494    0.0000 Cl  0  0  0  0  0  0  0  0  0  0  0  0
   -4.1122   -2.9550    0.0000 F   0  0  0  0  0  0  0  0  0  0  0  0
   -0.0499   -4.9353    0.0000 O   0  0  0  0  0  0  0  0  0  0  0  0
    0.1983   -6.3425    0.0000 O   0  0  0  0  0  0  0  0  0  0  0  0
   -1.4267   -6.6291    0.0000 O   0  0  0  0  0  0  0  0  0  0  0  0
    1.5632   -3.8908    0.0000 N   0  0  0  0  0  0  0  0  0  0  0  0
    3.0392   -5.6132    0.0000 N   0  0  0  0  0  0  0  0  0  0  0  0
    4.3741   -5.6132    0.0000 N   0  0  0  0  0  0  0  0  0  0  0  0
   -0.5802   -4.3033    0.0000 C   0  0  0  0  0  0  0  0  0  0  0  0
   -0.8623   -3.5281    0.0000 C   0  0  0  0  0  0  0  0  0  0  0  0
   -1.6748   -3.3848    0.0000 C   0  0  0  0  0  0  0  0  0  0  0  0
   -2.2051   -4.0168    0.0000 C   0  0  0  0  0  0  0  0  0  0  0  0
   -1.1105   -4.9353    0.0000 C   0  0  0  0  0  0  0  0  0  0  0  0
   -0.3320   -2.8961    0.0000 C   0  0  0  0  0  0  0  0  0  0  0  0
    0.1343   -3.8908    0.0000 C   0  0  0  0  0  0  0  0  0  0  0  0
   -1.9229   -4.7920    0.0000 C   0  0  0  0  0  0  0  0  0  0  0  0
   -1.9570   -2.6096    0.0000 C   0  0  0  0  0  0  0  0  0  0  0  0
   -3.0176   -3.8735    0.0000 C   0  0  0  0  0  0  0  0  0  0  0  0
   -3.2997   -3.0983    0.0000 C   0  0  0  0  0  0  0  0  0  0  0  0
   -0.3320   -5.7105    0.0000 C   0  0  0  0  0  0  0  0  0  0  0  0
   -2.7694   -2.4663    0.0000 C   0  0  0  0  0  0  0  0  0  0  0  0
    0.8488   -4.3033    0.0000 C   0  0  0  0  0  0  0  0  0  0  0  0
   -0.6142   -2.1208    0.0000 C   0  0  0  0  0  0  0  0  0  0  0  0
    0.4804   -3.0393    0.0000 C   0  0  0  0  0  0  0  0  0  0  0  0
    3.2942   -6.3979    0.0000 C   0  0  0  0  0  0  0  0  0  0  0  0
    4.1192   -6.3979    0.0000 C   0  0  0  0  0  0  0  0  0  0  0  0
   -1.1445   -5.8538    0.0000 C   0  0  0  0  0  0  0  0  0  0  0  0
    3.7067   -5.1283    0.0000 C   0  0  0  0  0  0  0  0  0  0  0  0
    2.2777   -4.3033    0.0000 C   0  0  0  0  0  0  0  0  0  0  0  0
    2.8817   -7.1123    0.0000 C   0  0  0  0  0  0  0  0  0  0  0  0
    4.5317   -7.1123    0.0000 C   0  0  0  0  0  0  0  0  0  0  0  0
    3.7067   -4.3033    0.0000 C   0  0  0  0  0  0  0  0  0  0  0  0
    2.9922   -3.8908    0.0000 C   0  0  0  0  0  0  0  0  0  0  0  0
    1.5632   -3.0658    0.0000 C   0  0  0  0  0  0  0  0  0  0  0  0
    3.2942   -7.8268    0.0000 C   0  0  0  0  0  0  0  0  0  0  0  0
    4.1192   -7.8268    0.0000 C   0  0  0  0  0  0  0  0  0  0  0  0
   -2.2391   -6.7723    0.0000 C   0  0  0  0  0  0  0  0  0  0  0  0
    3.7987   -3.4481    0.0000 Cl  0  0  0  0  0  0  0  0  0  0  0  0
  2 19  1  0
  9  3  1  6
  3 20  1  0
  4 20  2  0
  5 27  1  0
  5 37  1  0
  6 22  1  0
  6 29  1  0
  6 34  1  0
  7 25  1  0
  7 28  2  0
  8 26  1  0
  8 28  1  0
  9 10  1  0
  9 13  1  0
  9 15  1  0
 10 11  1  0
 10 14  1  6
 11 12  1  0
 11 17  2  0
 12 16  1  0
 12 18  2  0
 13 16  1  0
 14 23  1  0
 14 24  1  0
 15 22  1  0
 17 21  1  0
 18 19  1  0
 19 21  2  0
 20 27  1  0
 25 26  2  0
 25 30  1  0
 26 31  1  0
 28 32  1  0
 29 33  1  0
 30 35  2  0
 31 36  2  0
 32 33  1  0
 35 36  1  0
M  END
> <chembl_id>
CHEMBL1534525

> <chembl_pref_name>
MIBEFRADIL DIHYDROCHLORIDE
