
     RDKit          2D

 28 31  0  0  0  0  0  0  0  0999 V2000
   -1.5636   -1.7441    0.0000 C   0  0  0  0  0  0  0  0  0  0  0  0
   -2.2781   -1.3316    0.0000 C   0  0  0  0  0  0  0  0  0  0  0  0
   -2.9925   -1.7441    0.0000 C   0  0  0  0  0  0  0  0  0  0  0  0
   -2.9925   -2.5691    0.0000 C   0  0  0  0  0  0  0  0  0  0  0  0
   -2.2781   -2.9816    0.0000 C   0  0  0  0  0  0  0  0  0  0  0  0
   -1.5636   -2.5691    0.0000 C   0  0  0  0  0  0  0  0  0  0  0  0
   -0.8491   -1.3315    0.0000 C   0  0  0  0  0  0  0  0  0  0  0  0
   -0.1346   -1.7440    0.0000 C   0  0  0  0  0  0  0  0  0  0  0  0
   -0.1346   -2.5690    0.0000 C   0  0  0  0  0  0  0  0  0  0  0  0
   -0.8491   -2.9815    0.0000 C   0  0  0  0  0  0  0  0  0  0  0  0
   -0.8491   -0.5065    0.0000 C   0  0  0  0  0  0  0  0  0  0  0  0
   -0.1347   -0.0940    0.0000 C   0  0  0  0  0  0  0  0  0  0  0  0
    0.5798   -0.5065    0.0000 C   0  0  0  0  0  0  0  0  0  0  0  0
    0.5798   -1.3315    0.0000 C   0  0  0  0  0  0  0  0  0  0  0  0
    1.3644   -1.5864    0.0000 C   0  0  0  0  0  0  0  0  0  0  0  0
    1.8493   -0.9190    0.0000 C   0  0  0  0  0  0  0  0  0  0  0  0
    1.3644   -0.2516    0.0000 C   0  0  0  0  0  0  0  0  0  0  0  0
    1.6194    0.5331    0.0000 C   0  0  0  0  0  0  0  0  0  0  0  0
    1.0674    1.1462    0.0000 O   0  0  0  0  0  0  0  0  0  0  0  0
    2.4264    0.7046    0.0000 C   0  0  0  0  0  0  0  0  0  0  0  0
    3.0097    0.1212    0.0000 C   0  0  0  0  0  0  0  0  0  0  0  0
    0.6661    0.3140    0.0000 C   0  0  0  0  0  0  0  0  0  0  0  0
    2.1613   -0.0380    0.0000 O   0  0  0  0  0  0  0  0  0  0  0  0
    2.6743   -0.9190    0.0000 C   0  0  0  0  0  0  0  0  0  0  0  0
    0.6661   -2.1520    0.0000 H   0  0  0  0  0  0  0  0  0  0  0  0
   -0.1346   -0.9190    0.0000 H   0  0  0  0  0  0  0  0  0  0  0  0
   -1.5636   -0.9191    0.0000 C   0  0  0  0  0  0  0  0  0  0  0  0
   -3.7070   -2.9816    0.0000 O   0  0  0  0  0  0  0  0  0  0  0  0
  1  2  1  0
  2  3  2  0
  3  4  1  0
  4  5  1  0
  5  6  2  0
 10  6  1  0
  6  1  1  0
  1  7  1  0
  8  9  1  0
  9 10  1  0
  7 11  2  0
  8  7  1  0
 14  8  1  0
 11 12  1  0
 12 13  1  0
 13 17  1  0
 13 14  1  0
 14 15  1  0
 15 16  1  0
 16 17  1  0
 17 18  1  1
 18 19  2  0
 18 20  1  0
 20 21  1  0
 13 22  1  1
 17 23  1  0
 16 24  1  6
 14 25  1  6
  8 26  1  1
  1 27  1  1
  4 28  2  0
M  END
> <chembl_id>
CHEMBL3707311

> <chembl_pref_name>
VAMOROLONE
