
     RDKit          2D

 33 37  0  0  1  0  0  0  0  0999 V2000
   -0.3958   -2.8542    0.0000 C   0  0  0  0  0  0  0  0  0  0  0  0
    1.4542   -1.8000    0.0000 C   0  0  0  0  0  0  0  0  0  0  0  0
   -0.3958   -3.5625    0.0000 C   0  0  0  0  0  0  0  0  0  0  0  0
    0.2167   -2.5042    0.0000 C   0  0  0  0  0  0  0  0  0  0  0  0
    1.4417   -2.5125    0.0000 C   0  0  0  0  0  0  0  0  0  0  0  0
    0.8292   -2.8542    0.0000 C   0  0  0  0  0  0  0  0  0  0  0  0
    2.1167   -1.5875    0.0000 C   0  0  0  0  0  0  0  0  0  0  0  0
   -1.0083   -3.9167    0.0000 C   0  0  0  0  0  0  0  0  0  0  0  0
    0.8500   -1.4417    0.0000 C   0  0  0  0  0  0  0  0  0  0  0  0
    0.2292   -1.7917    0.0000 C   0  0  0  0  0  0  0  0  0  0  0  0
   -1.0083   -2.5042    0.0000 C   0  0  0  0  0  0  0  0  0  0  0  0
    0.8167   -3.5667    0.0000 C   0  0  0  0  0  0  0  0  0  0  0  0
    2.1125   -2.7250    0.0000 C   0  0  0  0  0  0  0  0  0  0  0  0
    2.3500   -0.9125    0.0000 O   0  0  0  0  0  0  0  0  0  0  0  0
    2.9667   -0.5667    0.0000 C   0  0  0  0  0  0  0  0  0  0  0  0
    0.2167   -3.9167    0.0000 C   0  0  0  0  0  0  0  0  0  0  0  0
   -1.6208   -3.5625    0.0000 C   0  0  0  0  0  0  0  0  0  0  0  0
    2.5167   -2.1500    0.0000 C   0  0  0  0  0  0  0  0  0  0  0  0
    2.9500    0.1333    0.0000 O   0  0  0  0  0  0  0  0  0  0  0  0
   -2.2458   -3.9167    0.0000 O   0  0  0  0  0  0  0  0  0  0  0  0
   -1.6208   -2.8542    0.0000 C   0  0  0  0  0  0  0  0  0  0  0  0
    3.5792   -0.9167    0.0000 C   0  0  0  0  0  0  0  0  0  0  0  0
   -0.3583   -2.1500    0.0000 C   0  0  0  0  0  0  0  0  0  0  0  0
    1.4542   -1.0917    0.0000 C   0  0  0  0  0  0  0  0  0  0  0  0
    3.5792   -1.6125    0.0000 C   0  0  0  0  0  0  0  0  0  0  0  0
    4.2042   -1.9500    0.0000 C   0  0  0  0  0  0  0  0  0  0  0  0
    4.7917   -1.5167    0.0000 C   0  0  0  0  0  0  0  0  0  0  0  0
    4.4375   -2.6000    0.0000 C   0  0  0  0  0  0  0  0  0  0  0  0
    5.3542   -1.9417    0.0000 C   0  0  0  0  0  0  0  0  0  0  0  0
    5.1417   -2.5917    0.0000 C   0  0  0  0  0  0  0  0  0  0  0  0
    0.8375   -2.1167    0.0000 H   0  0  0  0  0  0  0  0  0  0  0  0
    0.2292   -3.2792    0.0000 H   0  0  0  0  0  0  0  0  0  0  0  0
    1.4542   -3.2750    0.0000 H   0  0  0  0  0  0  0  0  0  0  0  0
  2  9  1  0
  3  1  1  0
  4  1  1  0
  5  6  1  0
  6  4  1  0
  7  2  1  0
  8  3  2  0
  9 10  1  0
 10  4  1  0
 11  1  1  0
 12  6  1  0
 13  5  1  0
  7 14  1  1
 15 14  1  0
 16  3  1  0
 17 21  1  0
 18 13  1  0
 19 15  2  0
 20 17  2  0
 21 11  1  0
 22 15  1  0
  1 23  1  1
  2 24  1  1
 25 22  1  0
 26 25  1  0
 27 26  1  0
 28 26  1  0
 29 27  1  0
 30 28  1  0
  6 31  1  1
  4 32  1  6
  5 33  1  6
 12 16  1  0
 17  8  1  0
  2  5  1  0
 18  7  1  0
 30 29  1  0
M  END
> <chembl_id>
CHEMBL1201101

> <chembl_pref_name>
TESTOSTERONE CYPIONATE
