
     RDKit          2D

 30 31  0  0  0  0  0  0  0  0999 V2000
    5.2062   -4.8454    0.0000 C   0  0  0  0  0  0  0  0  0  0  0  0
    5.6979   -4.1830    0.0000 O   0  0  0  0  0  0  0  0  0  0  0  0
    4.3866   -4.7508    0.0000 C   0  0  0  0  0  0  0  0  0  0  0  0
    4.0588   -3.9937    0.0000 C   0  0  0  0  0  0  0  0  0  0  0  0
    3.2393   -3.8991    0.0000 C   0  0  0  0  0  0  0  0  0  0  0  0
    2.7475   -4.5615    0.0000 N   0  0  0  0  0  0  0  0  0  0  0  0
    5.5340   -5.6025    0.0000 O   0  0  0  0  0  0  0  0  0  0  0  0
   -0.6946   -5.6025    0.0000 O   0  0  0  0  0  0  0  0  0  0  0  0
    0.1249   -5.6972    0.0000 C   0  0  0  0  0  0  0  0  0  0  0  0
    0.4528   -6.4542    0.0000 O   0  0  0  0  0  0  0  0  0  0  0  0
    0.6167   -5.0347    0.0000 C   0  0  0  0  0  0  0  0  0  0  0  0
    1.4362   -5.1293    0.0000 C   0  0  0  0  0  0  0  0  0  0  0  0
    4.2227   -2.5742    0.0000 C   0  0  0  0  0  0  0  0  0  0  0  0
    6.3536   -5.6972    0.0000 C   0  0  0  0  0  0  0  0  0  0  0  0
    6.8453   -5.0347    0.0000 C   0  0  0  0  0  0  0  0  0  0  0  0
    4.7144   -1.9118    0.0000 C   0  0  0  0  0  0  0  0  0  0  0  0
    4.3866   -1.1547    0.0000 C   0  0  0  0  0  0  0  0  0  0  0  0
    6.1896    0.0755    0.0000 C   0  0  0  0  0  0  0  0  0  0  0  0
    5.6979   -0.5869    0.0000 C   0  0  0  0  0  0  0  0  0  0  0  0
    5.8618    0.8326    0.0000 C   0  0  0  0  0  0  0  0  0  0  0  0
    5.0423    0.9272    0.0000 C   0  0  0  0  0  0  0  0  0  0  0  0
    4.5505    0.2648    0.0000 C   0  0  0  0  0  0  0  0  0  0  0  0
    4.8784   -0.4923    0.0000 C   0  0  0  0  0  0  0  0  0  0  0  0
    3.5671   -1.0601    0.0000 C   0  0  0  0  0  0  0  0  0  0  0  0
    3.0753   -1.7225    0.0000 C   0  0  0  0  0  0  0  0  0  0  0  0
    3.4032   -2.4796    0.0000 C   0  0  0  0  0  0  0  0  0  0  0  0
    2.9114   -3.1420    0.0000 C   0  0  0  0  0  0  0  0  0  0  0  0
    1.9280   -4.4669    0.0000 C   0  0  0  0  0  0  0  0  0  0  0  0
    1.6001   -3.7098    0.0000 O   0  0  0  0  0  0  0  0  0  0  0  0
    3.8949   -5.4133    0.0000 C   0  0  0  0  0  0  0  0  0  0  0  0
  1  2  2  0
  3  4  1  0
  3  1  1  0
  5 27  1  6
  5  4  1  0
  6  5  1  0
  7  1  1  0
  7 14  1  0
  8  9  2  0
  9 11  1  0
 10  9  1  0
 11 12  1  0
 13 26  1  0
 14 15  1  0
 16 17  1  0
 16 13  2  0
 17 24  2  0
 18 19  1  0
 18 20  2  0
 19 23  2  0
 20 21  1  0
 21 22  2  0
 23 22  1  0
 23 17  1  0
 24 25  1  0
 26 25  2  0
 27 26  1  0
 12 28  1  0
 28  6  1  0
 28 29  2  0
  3 30  1  6
M  END
> <chembl_id>
CHEMBL3137301

> <chembl_pref_name>
SACUBITRIL
