
     RDKit          2D

 25 29  0  0  0  0  0  0  0  0999 V2000
   14.8172  -11.0315    0.0000 C   0  0  0  0  0  0  0  0  0  0  0  0
   15.6156  -11.0412    0.0000 C   0  0  0  0  0  0  0  0  0  0  0  0
   14.4351  -11.7236    0.0000 C   0  0  0  0  0  0  0  0  0  0  0  0
   16.0124  -11.7235    0.0000 C   0  0  0  0  0  0  0  0  0  0  0  0
   14.4205  -10.3493    0.0000 C   0  0  0  0  0  0  0  0  0  0  0  0
   15.2528  -12.1590    0.0000 O   0  0  0  0  0  0  0  0  0  0  0  0
   14.8124   -9.6670    0.0000 C   0  0  0  0  0  0  0  0  0  0  0  0
   16.0123  -10.3492    0.0000 C   0  0  0  0  0  0  0  0  0  0  0  0
   15.6155   -9.6622    0.0000 C   0  0  0  0  0  0  0  0  0  0  0  0
   14.4204   -8.9752    0.0000 N   0  0  0  0  0  0  0  0  0  0  0  0
   15.2236  -10.3396    0.0000 C   0  0  0  0  0  0  0  0  0  0  0  0
   13.6367  -11.7332    0.0000 C   0  0  0  0  0  0  0  0  0  0  0  0
   13.6317  -10.3542    0.0000 C   0  0  0  0  0  0  0  0  0  0  0  0
   16.8059  -11.7234    0.0000 C   0  0  0  0  0  0  0  0  0  0  0  0
   15.2139   -8.9751    0.0000 C   0  0  0  0  0  0  0  0  0  0  0  0
   16.8058  -10.3492    0.0000 C   0  0  0  0  0  0  0  0  0  0  0  0
   13.2350  -11.0461    0.0000 C   0  0  0  0  0  0  0  0  0  0  0  0
   13.2399  -12.4300    0.0000 O   0  0  0  0  0  0  0  0  0  0  0  0
   17.2027  -11.0411    0.0000 C   0  0  0  0  0  0  0  0  0  0  0  0
   17.2124  -12.4153    0.0000 O   0  0  0  0  0  0  0  0  0  0  0  0
   13.7283   -8.5736    0.0000 C   0  0  0  0  0  0  0  0  0  0  0  0
   18.0060  -12.4152    0.0000 C   0  0  0  0  0  0  0  0  0  0  0  0
   15.3133   -8.8015    0.0000 H   0  0  0  0  0  0  0  0  0  0  0  0
   13.9168   -9.4854    0.0000 H   0  0  0  0  0  0  0  0  0  0  0  0
   14.1987  -12.6952    0.0000 H   0  0  0  0  0  0  0  0  0  0  0  0
 10 15  1  0
  1 11  1  6
 12  3  1  0
 13  5  1  0
 14  4  2  0
 15 11  1  0
 16  8  1  0
 17 13  1  0
 18 12  2  0
 19 16  2  0
 20 14  1  0
 21 10  1  0
 22 20  1  0
  6  4  1  0
  7 10  1  0
 17 12  1  0
  9  8  1  0
 14 19  1  0
  2  1  1  0
  3  1  1  0
  4  2  1  0
  5  1  1  0
  3  6  1  0
  7  5  1  0
  8  2  2  0
  9  7  1  0
  7 23  1  1
  5 24  1  6
  3 25  1  6
M  END
> <chembl_id>
CHEMBL1457

> <chembl_pref_name>
HYDROCODONE
