
     RDKit          2D

 24 26  0  0  0  0  0  0  0  0999 V2000
    1.7792    1.7625    0.0000 S   0  0  0  0  0  0  0  0  0  0  0  0
   -1.0708   -0.7250    0.0000 C   0  0  0  0  0  0  0  0  0  0  0  0
   -1.7833   -1.1375    0.0000 N   0  0  0  0  0  0  0  0  0  0  0  0
   -1.0708    0.1083    0.0000 C   0  0  0  0  0  0  0  0  0  0  0  0
   -0.3583   -1.1375    0.0000 C   0  0  0  0  0  0  0  0  0  0  0  0
    1.0667    1.3458    0.0000 C   0  0  0  0  0  0  0  0  0  0  0  0
    0.3542   -2.3750    0.0000 N   0  0  0  0  0  0  0  0  0  0  0  0
   -0.3583    0.5208    0.0000 C   0  0  0  0  0  0  0  0  0  0  0  0
    2.4875    2.1833    0.0000 O   0  0  0  0  0  0  0  0  0  0  0  0
    1.3625    2.4750    0.0000 O   0  0  0  0  0  0  0  0  0  0  0  0
   -1.7833    0.5125    0.0000 C   0  0  0  0  0  0  0  0  0  0  0  0
   -0.3583   -1.9625    0.0000 C   0  0  0  0  0  0  0  0  0  0  0  0
    1.0667    0.5208    0.0000 C   0  0  0  0  0  0  0  0  0  0  0  0
    0.3417    1.7583    0.0000 C   0  0  0  0  0  0  0  0  0  0  0  0
    0.3542   -0.7167    0.0000 C   0  0  0  0  0  0  0  0  0  0  0  0
   -0.3625    1.3458    0.0000 C   0  0  0  0  0  0  0  0  0  0  0  0
    0.3542    0.1083    0.0000 C   0  0  0  0  0  0  0  0  0  0  0  0
   -2.5000   -0.7250    0.0000 C   0  0  0  0  0  0  0  0  0  0  0  0
    1.0750   -1.9542    0.0000 C   0  0  0  0  0  0  0  0  0  0  0  0
   -2.5000    0.1000    0.0000 C   0  0  0  0  0  0  0  0  0  0  0  0
    2.1917    1.0500    0.0000 C   0  0  0  0  0  0  0  0  0  0  0  0
    1.0667   -1.1292    0.0000 C   0  0  0  0  0  0  0  0  0  0  0  0
   -3.2125    0.5125    0.0000 Cl  0  0  0  0  0  0  0  0  0  0  0  0
    1.7875   -2.3667    0.0000 C   0  0  0  0  0  0  0  0  0  0  0  0
  2  4  1  0
  3  2  2  0
  4  8  1  0
  5  2  1  0
  6  1  1  0
  7 12  1  0
  8 16  1  0
  9  1  2  0
 10  1  2  0
 11  4  2  0
 12  5  2  0
 13  6  2  0
 14  6  1  0
 15  5  1  0
 16 14  2  0
 17 13  1  0
 18 20  2  0
 19 22  1  0
 20 11  1  0
 21  1  1  0
 22 15  2  0
 23 20  1  0
 24 19  1  0
  8 17  2  0
  3 18  1  0
  7 19  2  0
M  END
> <chembl_id>
CHEMBL416146

> <chembl_pref_name>
ETORICOXIB
