
     RDKit          2D

 25 28  0  0  1  0  0  0  0  0999 V2000
    0.2250   -1.1250    0.0000 C   0  0  0  0  0  0  0  0  0  0  0  0
    2.0625   -0.0625    0.0000 C   0  0  0  0  0  0  0  0  0  0  0  0
    2.0625   -0.7750    0.0000 C   0  0  0  0  0  0  0  0  0  0  0  0
    0.8375   -0.7750    0.0000 C   0  0  0  0  0  0  0  0  0  0  0  0
    0.2250   -1.8417    0.0000 C   0  0  0  0  0  0  0  0  0  0  0  0
    1.4417   -1.1250    0.0000 C   0  0  0  0  0  0  0  0  0  0  0  0
    2.7375    0.1500    0.0000 C   0  0  0  0  0  0  0  0  0  0  0  0
    3.3500    0.5083    0.0000 C   0  0  0  0  0  0  0  0  0  0  0  0
    1.4417    0.2875    0.0000 C   0  0  0  0  0  0  0  0  0  0  0  0
    0.8375   -0.0625    0.0000 C   0  0  0  0  0  0  0  0  0  0  0  0
   -0.4000   -0.7750    0.0000 C   0  0  0  0  0  0  0  0  0  0  0  0
    1.4417   -1.8417    0.0000 C   0  0  0  0  0  0  0  0  0  0  0  0
    2.7375   -0.9875    0.0000 C   0  0  0  0  0  0  0  0  0  0  0  0
    3.9625    0.8708    0.0000 C   0  0  0  0  0  0  0  0  0  0  0  0
   -0.4000   -2.1917    0.0000 C   0  0  0  0  0  0  0  0  0  0  0  0
    0.8375   -2.1917    0.0000 C   0  0  0  0  0  0  0  0  0  0  0  0
    3.1417   -0.4125    0.0000 C   0  0  0  0  0  0  0  0  0  0  0  0
   -1.0125   -1.8417    0.0000 C   0  0  0  0  0  0  0  0  0  0  0  0
   -1.6375   -2.2000    0.0000 O   0  0  0  0  0  0  0  0  0  0  0  0
   -1.0125   -1.1250    0.0000 C   0  0  0  0  0  0  0  0  0  0  0  0
    2.7292    0.8583    0.0000 O   0  0  0  0  0  0  0  0  0  0  0  0
    2.0625    0.6458    0.0000 C   0  0  0  0  0  0  0  0  0  0  0  0
    2.0625   -1.4792    0.0000 H   0  0  0  0  0  0  0  0  0  0  0  0
    1.4417   -0.4250    0.0000 H   0  0  0  0  0  0  0  0  0  0  0  0
    0.8375   -1.4792    0.0000 H   0  0  0  0  0  0  0  0  0  0  0  0
  2  3  1  0
  3  6  1  0
  4  1  1  0
  5  1  2  0
  6  4  1  0
  7  2  1  0
  8  7  1  0
  9 10  1  0
 10  4  1  0
 11  1  1  0
 12 16  1  0
 13  3  1  0
 14  8  3  0
 15  5  1  0
 16  5  1  0
 17 13  1  0
 18 15  1  0
 19 18  2  0
 20 11  1  0
  7 21  1  1
  2 22  1  1
  3 23  1  6
  6 24  1  1
  4 25  1  6
 20 18  1  0
  6 12  1  0
  2  9  1  0
  7 17  1  0
M  END
> <chembl_id>
CHEMBL1387

> <chembl_pref_name>
NORETHYNODREL
