
     RDKit          2D

 68 71  0  0  1  0  0  0  0  0999 V2000
   -1.7083  -10.6250    0.0000 C   0  0  0  0  0  0  0  0  0  0  0  0
   -1.7083  -11.3292    0.0000 C   0  0  0  0  0  0  0  0  0  0  0  0
   -1.0958  -10.2667    0.0000 C   0  0  0  0  0  0  0  0  0  0  0  0
   -1.0958   -9.5625    0.0000 N   0  0  0  0  0  0  0  0  0  0  0  0
    0.1292   -9.5625    0.0000 C   0  0  0  0  0  0  0  0  0  0  0  0
    3.1958  -13.4542    0.0000 C   0  0  0  0  0  0  0  0  0  0  0  0
    0.7417   -9.2042    0.0000 O   0  0  0  0  0  0  0  0  0  0  0  0
    3.8083  -13.8125    0.0000 C   0  0  0  0  0  0  0  0  0  0  0  0
    2.5833  -12.3917    0.0000 C   0  0  0  0  0  0  0  0  0  0  0  0
   -0.4833   -9.2042    0.0000 C   0  0  0  0  0  0  0  0  0  0  0  0
   -1.0958  -11.6792    0.0000 O   0  0  0  0  0  0  0  0  0  0  0  0
    3.1958  -12.7500    0.0000 C   0  0  0  0  0  0  0  0  0  0  0  0
    2.5833  -11.6875    0.0000 C   0  0  0  0  0  0  0  0  0  0  0  0
    1.3542   -9.5625    0.0000 C   0  0  0  0  0  0  0  0  0  0  0  0
    1.9708  -10.6250    0.0000 C   0  0  0  0  0  0  0  0  0  0  0  0
    1.3542  -10.2667    0.0000 C   0  0  0  0  0  0  0  0  0  0  0  0
    3.8083  -14.5167    0.0000 C   0  0  0  0  0  0  0  0  0  0  0  0
    1.9708  -11.3292    0.0000 C   0  0  0  0  0  0  0  0  0  0  0  0
    0.1292  -13.7875    0.0000 C   0  0  0  0  0  0  0  0  0  0  0  0
   -0.4833  -13.4375    0.0000 C   0  0  0  0  0  0  0  0  0  0  0  0
   -2.3250  -10.2708    0.0000 O   0  0  0  0  0  0  0  0  0  0  0  0
   -2.3167  -11.6792    0.0000 C   0  0  0  0  0  0  0  0  0  0  0  0
   -0.4833  -12.7292    0.0000 C   0  0  0  0  0  0  0  0  0  0  0  0
   -0.4833  -10.6208    0.0000 O   0  0  0  0  0  0  0  0  0  0  0  0
   -1.0917  -12.3792    0.0000 C   0  0  0  0  0  0  0  0  0  0  0  0
    0.1292  -10.2667    0.0000 O   0  0  0  0  0  0  0  0  0  0  0  0
    3.8042   -8.1458    0.0000 C   0  0  0  0  0  0  0  0  0  0  0  0
    1.9708   -9.2042    0.0000 C   0  0  0  0  0  0  0  0  0  0  0  0
    4.4250  -13.4542    0.0000 O   0  0  0  0  0  0  0  0  0  0  0  0
    0.1292  -14.4917    0.0000 C   0  0  0  0  0  0  0  0  0  0  0  0
   -1.0958  -10.9667    0.0000 O   0  0  0  0  0  0  0  0  0  0  0  0
    3.0542  -14.8667    0.0000 C   0  0  0  0  0  0  0  0  0  0  0  0
    3.1917   -8.5000    0.0000 C   0  0  0  0  0  0  0  0  0  0  0  0
    2.5833  -10.2667    0.0000 O   0  0  0  0  0  0  0  0  0  0  0  0
    1.9708   -8.5000    0.0000 C   0  0  0  0  0  0  0  0  0  0  0  0
    3.8083   -7.4375    0.0000 C   0  0  0  0  0  0  0  0  0  0  0  0
    0.7417  -14.8417    0.0000 C   0  0  0  0  0  0  0  0  0  0  0  0
    2.5833   -8.1417    0.0000 C   0  0  0  0  0  0  0  0  0  0  0  0
    0.7417  -15.5500    0.0000 C   0  0  0  0  0  0  0  0  0  0  0  0
    1.3583  -15.9000    0.0000 C   0  0  0  0  0  0  0  0  0  0  0  0
    1.9708  -15.5417    0.0000 C   0  0  0  0  0  0  0  0  0  0  0  0
   -2.3167  -12.3875    0.0000 C   0  0  0  0  0  0  0  0  0  0  0  0
    3.1958   -7.0833    0.0000 C   0  0  0  0  0  0  0  0  0  0  0  0
    2.5833  -13.8125    0.0000 O   0  0  0  0  0  0  0  0  0  0  0  0
   -1.7125   -9.2083    0.0000 C   0  0  0  0  0  0  0  0  0  0  0  0
    3.8083  -12.3917    0.0000 O   0  0  0  0  0  0  0  0  0  0  0  0
   -1.7042  -12.7375    0.0000 C   0  0  0  0  0  0  0  0  0  0  0  0
    2.6792  -15.5417    0.0000 C   0  0  0  0  0  0  0  0  0  0  0  0
    2.5750   -7.4375    0.0000 C   0  0  0  0  0  0  0  0  0  0  0  0
   -1.1000  -13.7917    0.0000 O   0  0  0  0  0  0  0  0  0  0  0  0
    4.4167   -8.5042    0.0000 O   0  0  0  0  0  0  0  0  0  0  0  0
    1.9708  -12.7500    0.0000 C   0  0  0  0  0  0  0  0  0  0  0  0
    4.4208   -7.0875    0.0000 O   0  0  0  0  0  0  0  0  0  0  0  0
   -0.4833   -8.5000    0.0000 C   0  0  0  0  0  0  0  0  0  0  0  0
    0.7417  -13.4292    0.0000 C   0  0  0  0  0  0  0  0  0  0  0  0
    4.4042  -14.9000    0.0000 C   0  0  0  0  0  0  0  0  0  0  0  0
    1.3542  -11.6875    0.0000 C   0  0  0  0  0  0  0  0  0  0  0  0
    2.5833   -9.5625    0.0000 C   0  0  0  0  0  0  0  0  0  0  0  0
   -2.9292  -11.3292    0.0000 C   0  0  0  0  0  0  0  0  0  0  0  0
    1.9708  -13.4542    0.0000 C   0  0  0  0  0  0  0  0  0  0  0  0
    5.0292   -8.1542    0.0000 C   0  0  0  0  0  0  0  0  0  0  0  0
   -1.7125  -13.4375    0.0000 C   0  0  0  0  0  0  0  0  0  0  0  0
    3.0375  -16.1500    0.0000 C   0  0  0  0  0  0  0  0  0  0  0  0
   -1.7083   -8.5000    0.0000 C   0  0  0  0  0  0  0  0  0  0  0  0
   -1.0958   -8.1458    0.0000 C   0  0  0  0  0  0  0  0  0  0  0  0
   -1.0881  -13.3792    0.0000 H   0  0  0  0  0  0  0  0  0  0  0  0
    0.4868  -10.0600    0.0000 H   0  0  0  0  0  0  0  0  0  0  0  0
    0.3841   -8.7067    0.0000 H   0  0  0  0  0  0  0  0  0  0  0  0
  2  1  1  0
  3  1  1  0
  4  3  1  0
  5 10  1  0
  6 12  1  0
  7  5  1  0
  8  6  1  0
  9 13  2  0
 10  4  1  0
 11  2  1  0
 12  9  1  0
 13 18  1  0
 14  7  1  0
 15 16  1  0
 16 14  1  0
 17 32  1  0
 18 15  1  0
 19 20  1  0
 20 23  1  0
 21  1  2  0
 22  2  1  0
 23 25  1  0
 24  3  2  0
 25 11  1  0
 26  5  2  0
 27 33  1  0
 28 14  1  0
 29  8  2  0
 30 19  2  0
  2 31  1  1
 32 48  1  0
 33 38  1  0
 34 15  2  0
 35 28  1  0
 36 43  1  0
 37 30  1  0
 38 35  1  6
 39 37  2  0
 40 39  1  0
 41 40  2  0
 42 22  1  0
 43 49  1  0
  6 44  1  6
 45  4  1  0
 12 46  1  1
 47 42  1  0
 48 41  1  0
 49 38  1  0
 20 50  1  1
 27 51  1  6
 52  9  1  0
 36 53  1  1
 54 10  1  0
 55 19  1  0
 17 56  1  6
 18 57  1  1
 28 58  1  1
 22 59  1  1
 60 44  1  0
 61 51  1  0
 62 50  1  0
 48 63  1  6
 64 45  1  0
 65 64  1  0
 25 66  1  1
 25 47  1  0
 65 54  1  0
 36 27  1  0
 17  8  1  0
 14 67  1  1
 10 68  1  6
M  END
> <chembl_id>
CHEMBL413

> <chembl_pref_name>
SIROLIMUS
