
     RDKit          2D

 26 28  0  0  1  0  0  0  0  0999 V2000
    0.7542   -2.5167    0.0000 C   0  0  0  0  0  0  0  0  0  0  0  0
   -0.4583   -2.5167    0.0000 C   0  0  0  0  0  0  0  0  0  0  0  0
   -0.4583   -1.8292    0.0000 C   0  0  0  0  0  0  0  0  0  0  0  0
    0.7542   -1.8292    0.0000 C   0  0  0  0  0  0  0  0  0  0  0  0
    0.1542   -2.8667    0.0000 O   0  0  0  0  0  0  0  0  0  0  0  0
    0.1542   -1.4792    0.0000 O   0  0  0  0  0  0  0  0  0  0  0  0
   -1.0583   -2.8667    0.0000 C   0  0  0  0  0  0  0  0  0  0  0  0
   -1.0583   -1.4792    0.0000 C   0  0  0  0  0  0  0  0  0  0  0  0
   -1.6708   -1.8292    0.0000 C   0  0  0  0  0  0  0  0  0  0  0  0
   -1.6708   -2.5167    0.0000 C   0  0  0  0  0  0  0  0  0  0  0  0
    1.3667   -2.8667    0.0000 C   0  0  0  0  0  0  0  0  0  0  0  0
    1.3667   -1.4792    0.0000 O   0  0  0  0  0  0  0  0  0  0  0  0
    1.9792   -2.5167    0.0000 C   0  0  0  0  0  0  0  0  0  0  0  0
    1.9792   -1.8292    0.0000 C   0  0  0  0  0  0  0  0  0  0  0  0
    0.7542   -3.3792    0.0000 O   0  0  0  0  0  0  0  0  0  0  0  0
    1.3667   -3.5542    0.0000 O   0  0  0  0  0  0  0  0  0  0  0  0
   -1.0583   -3.5542    0.0000 N   0  0  0  0  0  0  0  0  0  0  0  0
   -2.2833   -1.4792    0.0000 N   0  0  0  0  0  0  0  0  0  0  0  0
   -1.0583   -0.7792    0.0000 O   0  0  0  0  0  0  0  0  0  0  0  0
   -2.2833   -2.8667    0.0000 O   0  0  0  0  0  0  0  0  0  0  0  0
    2.5875   -1.4792    0.0000 C   0  0  0  0  0  0  0  0  0  0  0  0
   -0.4625   -3.9042    0.0000 C   0  0  0  0  0  0  0  0  0  0  0  0
   -2.8750   -1.8292    0.0000 C   0  0  0  0  0  0  0  0  0  0  0  0
   -0.4583   -3.2417    0.0000 H   0  0  0  0  0  0  0  0  0  0  0  0
   -0.4583   -1.1167    0.0000 H   0  0  0  0  0  0  0  0  0  0  0  0
    0.7750   -0.9542    0.0000 H   0  0  0  0  0  0  0  0  0  0  0  0
  2  5  1  0
  3  2  1  0
  4  1  1  0
  5  1  1  0
  6  4  1  0
  7  2  1  0
  8  3  1  0
  9 10  1  0
 10  7  1  0
 11  1  1  0
 12  4  1  0
 13 11  1  0
 14 13  1  0
  1 15  1  1
 16 11  2  0
  7 17  1  1
  9 18  1  1
  8 19  1  6
 10 20  1  1
 14 21  1  6
 22 17  1  0
 23 18  1  0
  2 24  1  1
  3 25  1  6
  4 26  1  1
  3  6  1  0
 14 12  1  0
  8  9  1  0
M  END
> <chembl_id>
CHEMBL1167

> <chembl_pref_name>
SPECTINOMYCIN
