
     RDKit          2D

 46 48  0  0  0  0  0  0  0  0999 V2000
    6.2667   -0.4375    0.0000 C   0  0  0  0  0  0  0  0  0  0  0  0
    6.8792   -0.7917    0.0000 C   0  0  0  0  0  0  0  0  0  0  0  0
    5.6542   -0.7917    0.0000 C   0  0  0  0  0  0  0  0  0  0  0  0
    5.9042    0.1750    0.0000 C   0  0  0  0  0  0  0  0  0  0  0  0
    7.4917   -0.4375    0.0000 C   0  0  0  0  0  0  0  0  0  0  0  0
    5.6542   -1.5000    0.0000 C   0  0  0  0  0  0  0  0  0  0  0  0
    5.2000    0.1708    0.0000 O   0  0  0  0  0  0  0  0  0  0  0  0
    7.4917    0.2708    0.0000 O   0  0  0  0  0  0  0  0  0  0  0  0
    6.2667   -1.8542    0.0000 O   0  0  0  0  0  0  0  0  0  0  0  0
    6.6125    0.1750    0.0000 O   0  0  0  0  0  0  0  0  0  0  0  0
    6.2542    0.7958    0.0000 O   0  0  0  0  0  0  0  0  0  0  0  0
    5.0417   -1.8542    0.0000 O   0  0  0  0  0  0  0  0  0  0  0  0
    8.1042   -0.7917    0.0000 O   0  0  0  0  0  0  0  0  0  0  0  0
    2.1000   -0.0042    0.0000 C   0  0  0  0  0  0  0  0  0  0  0  0
    2.1000    0.7000    0.0000 C   0  0  0  0  0  0  0  0  0  0  0  0
   -1.5375   -0.0042    0.0000 S   0  0  0  0  0  0  0  0  0  0  0  0
    1.4917   -0.3667    0.0000 N   0  0  0  0  0  0  0  0  0  0  0  0
    0.8792   -0.0042    0.0000 C   0  0  0  0  0  0  0  0  0  0  0  0
    2.8042    0.9083    0.0000 N   0  0  0  0  0  0  0  0  0  0  0  0
    1.4917    1.0625    0.0000 C   0  0  0  0  0  0  0  0  0  0  0  0
    0.8792    0.6833    0.0000 N   0  0  0  0  0  0  0  0  0  0  0  0
    3.2042    0.3458    0.0000 N   0  0  0  0  0  0  0  0  0  0  0  0
    2.8042   -0.2417    0.0000 C   0  0  0  0  0  0  0  0  0  0  0  0
    0.2875   -0.3750    0.0000 C   0  0  0  0  0  0  0  0  0  0  0  0
   -2.1583   -0.3750    0.0000 N   0  0  0  0  0  0  0  0  0  0  0  0
   -0.9333   -0.3750    0.0000 C   0  0  0  0  0  0  0  0  0  0  0  0
   -0.3208   -0.0333    0.0000 C   0  0  0  0  0  0  0  0  0  0  0  0
   -1.1875    0.6083    0.0000 O   0  0  0  0  0  0  0  0  0  0  0  0
   -1.8958    0.6083    0.0000 O   0  0  0  0  0  0  0  0  0  0  0  0
   -3.3958   -1.0917    0.0000 N   0  0  0  0  0  0  0  0  0  0  0  0
   -2.7833   -0.0042    0.0000 C   0  0  0  0  0  0  0  0  0  0  0  0
   -2.1583   -1.0917    0.0000 C   0  0  0  0  0  0  0  0  0  0  0  0
    0.2875   -1.1125    0.0000 C   0  0  0  0  0  0  0  0  0  0  0  0
    1.4917    1.7708    0.0000 O   0  0  0  0  0  0  0  0  0  0  0  0
   -0.9333   -1.1125    0.0000 C   0  0  0  0  0  0  0  0  0  0  0  0
   -0.3208   -1.4542    0.0000 C   0  0  0  0  0  0  0  0  0  0  0  0
   -3.3958   -0.3750    0.0000 C   0  0  0  0  0  0  0  0  0  0  0  0
   -2.7833   -1.4417    0.0000 C   0  0  0  0  0  0  0  0  0  0  0  0
    3.0750    1.5750    0.0000 C   0  0  0  0  0  0  0  0  0  0  0  0
    2.8042   -0.9500    0.0000 C   0  0  0  0  0  0  0  0  0  0  0  0
    0.8792   -1.4542    0.0000 O   0  0  0  0  0  0  0  0  0  0  0  0
   -3.9958   -1.4292    0.0000 C   0  0  0  0  0  0  0  0  0  0  0  0
    1.4958   -1.1000    0.0000 C   0  0  0  0  0  0  0  0  0  0  0  0
    3.4167   -1.3125    0.0000 C   0  0  0  0  0  0  0  0  0  0  0  0
    2.1125   -1.4500    0.0000 C   0  0  0  0  0  0  0  0  0  0  0  0
    4.0375   -0.9542    0.0000 C   0  0  0  0  0  0  0  0  0  0  0  0
  2  1  1  0
  3  1  1  0
  4  1  1  0
  5  2  1  0
  6  3  1  0
  7  4  2  0
  8  5  2  0
  9  6  2  0
 10  1  1  0
 11  4  1  0
 12  6  1  0
 13  5  1  0
 15 14  2  0
 16 26  1  0
 17 14  1  0
 18 17  2  0
 19 15  1  0
 20 15  1  0
 21 18  1  0
 22 23  2  0
 23 14  1  0
 24 18  1  0
 25 16  1  0
 26 27  2  0
 27 24  1  0
 28 16  2  0
 29 16  2  0
 30 38  1  0
 31 25  1  0
 32 25  1  0
 33 24  2  0
 34 20  2  0
 35 36  2  0
 36 33  1  0
 37 31  1  0
 38 32  1  0
 39 19  1  0
 40 23  1  0
 41 33  1  0
 42 30  1  0
 43 41  1  0
 44 40  1  0
 45 43  1  0
 46 44  1  0
 22 19  1  0
 21 20  1  0
 35 26  1  0
 30 37  1  0
M  END
> <chembl_id>
CHEMBL1737

> <chembl_pref_name>
SILDENAFIL CITRATE
