
     RDKit          2D

 28 31  0  0  0  0  0  0  0  0999 V2000
    1.3101   -6.7369    0.0000 O   0  0  0  0  0  0  0  0  0  0  0  0
    0.8969   -7.4509    0.0000 C   0  0  0  0  0  0  0  0  0  0  0  0
    0.0719   -7.4501    0.0000 O   0  0  0  0  0  0  0  0  0  0  0  0
    1.3087   -8.1658    0.0000 C   0  0  0  0  0  0  0  0  0  0  0  0
    0.8955   -8.8799    0.0000 C   0  0  0  0  0  0  0  0  0  0  0  0
    1.3073   -9.5948    0.0000 C   0  0  0  0  0  0  0  0  0  0  0  0
    0.8941  -10.3088    0.0000 C   0  0  0  0  0  0  0  0  0  0  0  0
    0.0691  -10.3080    0.0000 C   0  0  0  0  0  0  0  0  0  0  0  0
   -0.3427   -9.5931    0.0000 C   0  0  0  0  0  0  0  0  0  0  0  0
    0.0705   -8.8791    0.0000 C   0  0  0  0  0  0  0  0  0  0  0  0
    2.1337   -8.1666    0.0000 C   0  0  0  0  0  0  0  0  0  0  0  0
    2.5455   -8.8815    0.0000 O   0  0  0  0  0  0  0  0  0  0  0  0
    0.4851   -6.7369    0.0000 C   0  0  0  0  0  0  0  0  0  0  0  0
    0.0726   -6.0224    0.0000 C   0  0  0  0  0  0  0  0  0  0  0  0
   -0.7243   -6.2359    0.0000 C   0  0  0  0  0  0  0  0  0  0  0  0
   -0.3118   -6.5234    0.0000 C   0  0  0  0  0  0  0  0  0  0  0  0
   -1.0263   -6.9359    0.0000 C   0  0  0  0  0  0  0  0  0  0  0  0
   -0.9378   -5.4390    0.0000 N   0  0  0  0  0  0  0  0  0  0  0  0
   -1.7407   -6.5234    0.0000 C   0  0  0  0  0  0  0  0  0  0  0  0
   -1.5212   -6.0224    0.0000 C   0  0  0  0  0  0  0  0  0  0  0  0
   -2.3241   -5.9400    0.0000 O   0  0  0  0  0  0  0  0  0  0  0  0
   -1.5212   -4.8557    0.0000 C   0  0  0  0  0  0  0  0  0  0  0  0
   -0.7243   -4.6422    0.0000 C   0  0  0  0  0  0  0  0  0  0  0  0
    0.0726   -4.4286    0.0000 C   0  0  0  0  0  0  0  0  0  0  0  0
   -0.5420   -5.4547    0.0000 H   0  0  0  0  0  0  0  0  0  0  0  0
   -1.1540   -7.3948    0.0000 H   0  0  0  0  0  0  0  0  0  0  0  0
   -1.5746   -5.4922    0.0000 H   0  0  0  0  0  0  0  0  0  0  0  0
   -1.9344   -6.9884    0.0000 H   0  0  0  0  0  0  0  0  0  0  0  0
  1  2  1  0
  2  3  2  0
  2  4  1  0
  4  5  1  0
  5  6  2  0
  6  7  1  0
  7  8  2  0
  8  9  1  0
  9 10  2  0
  5 10  1  0
  4 11  1  6
 11 12  1  0
 13  1  1  0
 13 14  1  0
 14 15  1  0
 13 16  1  0
 16 17  1  0
 15 18  1  0
 17 19  1  0
 15 20  1  0
 20 19  1  0
 19 21  1  0
 20 21  1  0
 18 22  1  0
 18 23  1  0
 23 24  1  0
 15 25  1  6
 17 26  1  1
 20 27  1  6
 19 28  1  6
 18 17  1  0
M  CHG  1  18   1
M  END
> <chembl_id>
CHEMBL4297364

> <chembl_pref_name>
OXITROPIUM
