
     RDKit          2D

 18 17  0  0  0  0  0  0  0  0999 V2000
    2.9538   -0.2062    0.0000 N   0  0  0  0  0  0  0  0  0  0  0  0
   10.8129    0.2062    0.0000 N   0  0  0  0  0  0  0  0  0  0  0  0
    3.6682    0.2063    0.0000 C   0  0  0  0  0  0  0  0  0  0  0  0
   10.0985   -0.2063    0.0000 C   0  0  0  0  0  0  0  0  0  0  0  0
    4.3827   -0.2062    0.0000 C   0  0  0  0  0  0  0  0  0  0  0  0
    9.3840    0.2062    0.0000 C   0  0  0  0  0  0  0  0  0  0  0  0
    2.2393   -0.6187    0.0000 C   0  0  0  0  0  0  0  0  0  0  0  0
    3.3663   -0.9207    0.0000 C   0  0  0  0  0  0  0  0  0  0  0  0
    2.5413    0.5082    0.0000 C   0  0  0  0  0  0  0  0  0  0  0  0
   11.5274    0.6187    0.0000 C   0  0  0  0  0  0  0  0  0  0  0  0
   11.2254   -0.5082    0.0000 C   0  0  0  0  0  0  0  0  0  0  0  0
   10.4004    0.9207    0.0000 C   0  0  0  0  0  0  0  0  0  0  0  0
    5.0972    0.2063    0.0000 C   0  0  0  0  0  0  0  0  0  0  0  0
    8.6695   -0.2063    0.0000 C   0  0  0  0  0  0  0  0  0  0  0  0
    5.8116   -0.2062    0.0000 C   0  0  0  0  0  0  0  0  0  0  0  0
    7.9551    0.2062    0.0000 C   0  0  0  0  0  0  0  0  0  0  0  0
    6.5261    0.2063    0.0000 C   0  0  0  0  0  0  0  0  0  0  0  0
    7.2406   -0.2063    0.0000 C   0  0  0  0  0  0  0  0  0  0  0  0
  1  3  1  0
  1  7  1  0
  1  8  1  0
  1  9  1  0
  2  4  1  0
  2 10  1  0
  2 11  1  0
  2 12  1  0
  3  5  1  0
  4  6  1  0
  5 13  1  0
  6 14  1  0
 13 15  1  0
 14 16  1  0
 15 17  1  0
 16 18  1  0
 17 18  1  0
M  CHG  2   1   1   2   1
M  END
> <chembl_id>
CHEMBL1190

> <chembl_pref_name>
DECAMETHONIUM
