
     RDKit          2D

 61 63  0  0  0  0  0  0  0  0999 V2000
    4.5670   -5.8045    0.0000 O   0  0  0  0  0  0  0  0  0  0  0  0
    2.2943   -1.1222    0.0000 C   0  0  0  0  0  0  0  0  0  0  0  0
    1.5798   -0.7097    0.0000 C   0  0  0  0  0  0  0  0  0  0  0  0
    0.8654   -1.1222    0.0000 C   0  0  0  0  0  0  0  0  0  0  0  0
    0.8653   -1.9472    0.0000 C   0  0  0  0  0  0  0  0  0  0  0  0
    3.0088   -0.7097    0.0000 C   0  0  0  0  0  0  0  0  0  0  0  0
    3.7233   -1.1222    0.0000 C   0  0  0  0  0  0  0  0  0  0  0  0
    3.7233   -1.9472    0.0000 C   0  0  0  0  0  0  0  0  0  0  0  0
    3.0088   -3.1847    0.0000 C   0  0  0  0  0  0  0  0  0  0  0  0
    3.7232   -3.5972    0.0000 C   0  0  0  0  0  0  0  0  0  0  0  0
    4.4377   -3.1847    0.0000 C   0  0  0  0  0  0  0  0  0  0  0  0
    4.4377   -2.3597    0.0000 C   0  0  0  0  0  0  0  0  0  0  0  0
    2.2943   -3.5972    0.0000 C   0  0  0  0  0  0  0  0  0  0  0  0
    5.1522   -1.9472    0.0000 C   0  0  0  0  0  0  0  0  0  0  0  0
    4.4377   -0.7097    0.0000 C   0  0  0  0  0  0  0  0  0  0  0  0
    5.1522   -1.1222    0.0000 C   0  0  0  0  0  0  0  0  0  0  0  0
    5.8667   -0.7097    0.0000 C   0  0  0  0  0  0  0  0  0  0  0  0
    3.0088    0.1153    0.0000 O   0  0  0  0  0  0  0  0  0  0  0  0
    1.5798    0.1153    0.0000 O   0  0  0  0  0  0  0  0  0  0  0  0
    0.1509   -0.7097    0.0000 C   0  0  0  0  0  0  0  0  0  0  0  0
   -0.5636   -1.1222    0.0000 O   0  0  0  0  0  0  0  0  0  0  0  0
    0.1509    0.1153    0.0000 C   0  0  0  0  0  0  0  0  0  0  0  0
   -0.5636    0.5278    0.0000 C   0  0  0  0  0  0  0  0  0  0  0  0
    0.8654    0.5278    0.0000 C   0  0  0  0  0  0  0  0  0  0  0  0
   -0.5636    1.3528    0.0000 C   0  0  0  0  0  0  0  0  0  0  0  0
    0.1509    1.7653    0.0000 C   0  0  0  0  0  0  0  0  0  0  0  0
    0.1509    2.5903    0.0000 C   0  0  0  0  0  0  0  0  0  0  0  0
   -0.5636    3.0028    0.0000 C   0  0  0  0  0  0  0  0  0  0  0  0
   -1.2780    2.5903    0.0000 C   0  0  0  0  0  0  0  0  0  0  0  0
   -1.2780    1.7653    0.0000 C   0  0  0  0  0  0  0  0  0  0  0  0
   -1.9925    3.0028    0.0000 O   0  0  0  0  0  0  0  0  0  0  0  0
   -2.7070    2.5903    0.0000 C   0  0  0  0  0  0  0  0  0  0  0  0
   -0.5636    3.8278    0.0000 O   0  0  0  0  0  0  0  0  0  0  0  0
   -1.2781   -0.7097    0.0000 C   0  0  0  0  0  0  0  0  0  0  0  0
   -1.9925   -1.1222    0.0000 C   0  0  0  0  0  0  0  0  0  0  0  0
   -1.2781    0.1153    0.0000 O   0  0  0  0  0  0  0  0  0  0  0  0
   -2.7070   -0.7097    0.0000 C   0  0  0  0  0  0  0  0  0  0  0  0
   -3.4215   -1.1222    0.0000 C   0  0  0  0  0  0  0  0  0  0  0  0
   -3.4215   -1.9472    0.0000 C   0  0  0  0  0  0  0  0  0  0  0  0
   -2.7070   -2.3597    0.0000 C   0  0  0  0  0  0  0  0  0  0  0  0
   -1.9925   -1.9472    0.0000 N   0  0  0  0  0  0  0  0  0  0  0  0
   -1.2781   -2.3597    0.0000 C   0  0  0  0  0  0  0  0  0  0  0  0
   -0.5636   -1.9472    0.0000 O   0  0  0  0  0  0  0  0  0  0  0  0
   -1.2781   -3.1847    0.0000 C   0  0  0  0  0  0  0  0  0  0  0  0
   -0.5636   -3.5972    0.0000 C   0  0  0  0  0  0  0  0  0  0  0  0
   -1.9926   -3.5972    0.0000 O   0  0  0  0  0  0  0  0  0  0  0  0
   -0.5636   -4.4222    0.0000 C   0  0  0  0  0  0  0  0  0  0  0  0
    0.1509   -4.8347    0.0000 C   0  0  0  0  0  0  0  0  0  0  0  0
    0.8653   -4.4222    0.0000 C   0  0  0  0  0  0  0  0  0  0  0  0
    0.8653   -3.5972    0.0000 C   0  0  0  0  0  0  0  0  0  0  0  0
    0.1509   -3.1847    0.0000 O   0  0  0  0  0  0  0  0  0  0  0  0
    2.2943   -4.4222    0.0000 O   0  0  0  0  0  0  0  0  0  0  0  0
    3.0088   -4.8347    0.0000 C   0  0  0  0  0  0  0  0  0  0  0  0
    1.5798   -4.8347    0.0000 O   0  0  0  0  0  0  0  0  0  0  0  0
    1.5798   -5.6597    0.0000 C   0  0  0  0  0  0  0  0  0  0  0  0
   -1.2781   -4.8347    0.0000 C   0  0  0  0  0  0  0  0  0  0  0  0
    0.8653   -2.7722    0.0000 H   0  0  0  0  0  0  0  0  0  0  0  0
    3.7232   -4.4222    0.0000 C   0  0  0  0  0  0  0  0  0  0  0  0
   -1.9925   -0.2972    0.0000 H   0  0  0  0  0  0  0  0  0  0  0  0
    0.1509    0.9403    0.0000 H   0  0  0  0  0  0  0  0  0  0  0  0
   -0.5636   -2.7722    0.0000 O   0  0  0  0  0  0  0  0  0  0  0  0
  2  3  1  0
  3  4  1  0
  4  5  1  1
  2  6  1  0
  6  7  1  0
  7  8  1  0
 12  8  2  0
  9 10  1  0
 10 11  1  0
 11 12  1  0
  9 13  1  0
 12 14  1  0
  7 15  1  6
 15 16  1  0
 16 17  2  0
  6 18  2  0
  3 19  1  1
  4 20  1  0
 20 21  1  0
 20 22  1  6
 22 23  2  0
 22 24  1  0
 23 25  1  0
 25 26  1  0
 30 25  1  0
 26 27  1  0
 27 28  1  0
 28 29  1  0
 29 30  1  0
 29 31  1  1
 31 32  1  0
 28 33  1  6
 21 34  1  0
 34 35  1  0
 34 36  2  0
 35 37  1  0
 41 35  1  0
 37 38  1  0
 38 39  1  0
 39 40  1  0
 40 41  1  0
 41 42  1  0
 42 43  2  0
 42 44  1  0
 44 45  1  0
 44 46  2  0
 45 47  1  0
 51 45  1  0
 47 48  1  0
 48 49  1  0
 49 50  1  0
 50 51  1  0
 50 13  1  0
 13 52  1  6
 52 53  1  0
 49 54  1  1
 54 55  1  0
 47 56  1  1
 50 57  1  1
 10 58  1  6
 35 59  1  6
 25 60  1  6
 45 61  1  1
M  END
> <chembl_id>
CHEMBL3989887

> <chembl_pref_name>
TACROLIMUS
