
     RDKit          2D

 37 39  0  0  0  0  0  0  0  0999 V2000
   -0.1309    0.9843    0.0000 S   0  0  0  0  0  0  0  0  0  0  0  0
    2.7397   -0.6692    0.0000 S   0  0  0  0  0  0  0  0  0  0  0  0
    0.5868   -0.2570    0.0000 C   0  0  0  0  0  0  0  0  0  0  0  0
    0.5722    0.5673    0.0000 C   0  0  0  0  0  0  0  0  0  0  0  0
   -0.1115   -0.6546    0.0000 C   0  0  0  0  0  0  0  0  0  0  0  0
   -0.8388   -0.2328    0.0000 C   0  0  0  0  0  0  0  0  0  0  0  0
    2.0366   -0.2522    0.0000 C   0  0  0  0  0  0  0  0  0  0  0  0
    1.3141   -0.6741    0.0000 C   0  0  0  0  0  0  0  0  0  0  0  0
   -2.9918    1.0280    0.0000 N   0  0  0  0  0  0  0  0  0  0  0  0
   -2.2693    0.6061    0.0000 C   0  0  0  0  0  0  0  0  0  0  0  0
   -1.5516   -0.6304    0.0000 C   0  0  0  0  0  0  0  0  0  0  0  0
   -0.8388    0.5770    0.0000 C   0  0  0  0  0  0  0  0  0  0  0  0
   -1.5953    1.0037    0.0000 C   0  0  0  0  0  0  0  0  0  0  0  0
   -2.2790   -0.2085    0.0000 C   0  0  0  0  0  0  0  0  0  0  0  0
   -0.8679    1.4062    0.0000 O   0  0  0  0  0  0  0  0  0  0  0  0
    3.4573   -0.2570    0.0000 O   0  0  0  0  0  0  0  0  0  0  0  0
    1.2947    0.9989    0.0000 C   0  0  0  0  0  0  0  0  0  0  0  0
    0.2958    1.7117    0.0000 O   0  0  0  0  0  0  0  0  0  0  0  0
   -0.5479    0.2715    0.0000 O   0  0  0  0  0  0  0  0  0  0  0  0
    3.1470   -1.3820    0.0000 O   0  0  0  0  0  0  0  0  0  0  0  0
    2.3275   -1.3820    0.0000 O   0  0  0  0  0  0  0  0  0  0  0  0
   -0.1406   -1.5032    0.0000 C   0  0  0  0  0  0  0  0  0  0  0  0
   -0.0969   -3.1470    0.0000 C   0  0  0  0  0  0  0  0  0  0  0  0
    2.0560    0.5479    0.0000 C   0  0  0  0  0  0  0  0  0  0  0  0
   -0.0678   -3.9908    0.0000 N   0  0  0  0  0  0  0  0  0  0  0  0
   -0.8534   -1.9105    0.0000 C   0  0  0  0  0  0  0  0  0  0  0  0
    0.5868   -1.9251    0.0000 C   0  0  0  0  0  0  0  0  0  0  0  0
    0.5868   -2.7543    0.0000 C   0  0  0  0  0  0  0  0  0  0  0  0
   -0.8388   -2.7348    0.0000 C   0  0  0  0  0  0  0  0  0  0  0  0
   -3.6949    0.6401    0.0000 C   0  0  0  0  0  0  0  0  0  0  0  0
   -2.9773    1.8620    0.0000 C   0  0  0  0  0  0  0  0  0  0  0  0
    0.6450   -4.3981    0.0000 C   0  0  0  0  0  0  0  0  0  0  0  0
   -0.7516   -4.4368    0.0000 C   0  0  0  0  0  0  0  0  0  0  0  0
   -3.6804    2.2935    0.0000 C   0  0  0  0  0  0  0  0  0  0  0  0
   -4.4029    1.0716    0.0000 C   0  0  0  0  0  0  0  0  0  0  0  0
    1.3965   -4.0586    0.0000 C   0  0  0  0  0  0  0  0  0  0  0  0
   -1.4838   -4.0635    0.0000 C   0  0  0  0  0  0  0  0  0  0  0  0
  2  7  1  0
  3  4  1  0
  4  1  1  0
  5  3  1  0
  6  5  2  0
  7  8  1  0
  8  3  2  0
  9 10  2  0
 10 13  1  0
 11  6  1  0
 12  6  1  0
 13 12  2  0
 14 11  2  0
 15  1  1  0
 16  2  1  0
 17  4  2  0
 18  1  2  0
 19  1  2  0
 20  2  2  0
 21  2  2  0
 22  5  1  0
 23 29  2  0
 24 17  1  0
 25 23  1  0
 26 22  2  0
 27 22  1  0
 28 27  2  0
 29 26  1  0
 30  9  1  0
 31  9  1  0
 32 25  1  0
 33 25  1  0
 34 31  1  0
 35 30  1  0
 36 32  1  0
 37 33  1  0
 24  7  2  0
 23 28  1  0
 10 14  1  0
M  CHG  2   9   1  16  -1
M  END
> <chembl_id>
CHEMBL1201275

> <chembl_pref_name>
ISOSULFAN BLUE
