
     RDKit          2D

 38 39  0  0  0  0  0  0  0  0999 V2000
    2.4052  -24.2985    0.0000 C   0  0  0  0  0  0  0  0  0  0  0  0
    0.9763  -24.2985    0.0000 S   0  0  0  0  0  0  0  0  0  0  0  0
    0.9763  -25.1235    0.0000 S   0  0  0  0  0  0  0  0  0  0  0  0
    1.6907  -25.5360    0.0000 C   0  0  0  0  0  0  0  0  0  0  0  0
    2.4052  -25.1235    0.0000 C   0  0  0  0  0  0  0  0  0  0  0  0
    3.1197  -23.0609    0.0000 C   0  0  0  0  0  0  0  0  0  0  0  0
    3.1197  -23.8860    0.0000 C   0  0  0  0  0  0  0  0  0  0  0  0
    0.2618  -23.8860    0.0000 C   0  0  0  0  0  0  0  0  0  0  0  0
    0.2618  -23.0610    0.0000 C   0  0  0  0  0  0  0  0  0  0  0  0
    2.4052  -22.6484    0.0000 C   0  0  0  0  0  0  0  0  0  0  0  0
    0.9762  -22.6485    0.0000 N   0  0  0  0  0  0  0  0  0  0  0  0
    0.5637  -21.9340    0.0000 C   0  0  0  0  0  0  0  0  0  0  0  0
    1.1471  -21.3507    0.0000 C   0  0  0  0  0  0  0  0  0  0  0  0
    2.8177  -21.9340    0.0000 C   0  0  0  0  0  0  0  0  0  0  0  0
    2.2343  -21.3506    0.0000 N   0  0  0  0  0  0  0  0  0  0  0  0
    3.6356  -21.8263    0.0000 O   0  0  0  0  0  0  0  0  0  0  0  0
   -0.2542  -21.8263    0.0000 O   0  0  0  0  0  0  0  0  0  0  0  0
    0.8314  -20.5885    0.0000 C   0  0  0  0  0  0  0  0  0  0  0  0
    1.3336  -19.9339    0.0000 C   0  0  0  0  0  0  0  0  0  0  0  0
    0.0134  -20.4808    0.0000 C   0  0  0  0  0  0  0  0  0  0  0  0
   -0.5632  -23.0610    0.0000 C   0  0  0  0  0  0  0  0  0  0  0  0
    3.9447  -23.0609    0.0000 O   0  0  0  0  0  0  0  0  0  0  0  0
   -0.6178  -28.1575    0.0000 N   0  0  0  0  0  0  0  0  0  0  0  0
    3.8367  -28.2226    0.0000 C   0  0  0  0  0  0  0  0  0  0  0  0
   -1.1435  -22.4745    0.0000 O   0  0  0  0  0  0  0  0  0  0  0  0
    0.0967  -28.5700    0.0000 C   0  0  0  0  0  0  0  0  0  0  0  0
    0.0967  -29.3950    0.0000 C   0  0  0  0  0  0  0  0  0  0  0  0
    0.8112  -28.1575    0.0000 C   0  0  0  0  0  0  0  0  0  0  0  0
    1.5256  -28.5700    0.0000 N   0  0  0  0  0  0  0  0  0  0  0  0
    0.8112  -27.3325    0.0000 O   0  0  0  0  0  0  0  0  0  0  0  0
    2.6662  -28.0275    0.0000 C   0  0  0  0  0  0  0  0  0  0  0  0
    2.5515  -27.2105    0.0000 C   0  0  0  0  0  0  0  0  0  0  0  0
    3.2017  -26.7027    0.0000 C   0  0  0  0  0  0  0  0  0  0  0  0
    1.7867  -26.9013    0.0000 C   0  0  0  0  0  0  0  0  0  0  0  0
    4.3634  -28.8576    0.0000 O   0  0  0  0  0  0  0  0  0  0  0  0
   -0.6178  -29.8075    0.0000 C   0  0  0  0  0  0  0  0  0  0  0  0
   -0.1507  -22.3465    0.0000 H   0  0  0  0  0  0  0  0  0  0  0  0
    3.5322  -22.3465    0.0000 H   0  0  0  0  0  0  0  0  0  0  0  0
  2  3  1  0
  3  4  1  0
  4  5  1  0
  5  1  1  0
  7  1  2  0
  6  7  1  0
  2  8  1  0
  8  9  1  0
  6 10  1  0
  9 11  1  0
 11 12  1  0
 12 13  1  0
 10 14  1  0
 14 15  1  0
 13 15  1  0
 14 16  2  0
 12 17  2  0
 13 18  1  1
 18 19  1  0
 18 20  1  0
  9 21  1  0
  6 22  1  0
 21 23  1  0
 21 25  2  0
 22 24  1  0
 23 26  1  0
 26 27  2  0
 26 28  1  0
 28 29  1  0
 28 30  2  0
 29 31  1  0
 31 24  1  0
 31 32  1  1
 32 33  1  0
 32 34  1  0
 24 35  2  0
 27 36  1  0
  9 37  1  1
  6 38  1  1
M  END
> <chembl_id>
CHEMBL343448

> <chembl_pref_name>
ROMIDEPSIN
