
     RDKit          2D

 43 47  0  0  0  0  0  0  0  0999 V2000
    0.0000    1.5933    0.0000 C   0  0  0  0  0  0  0  0  0  0  0  0
   -0.7873    2.0057    0.0000 C   0  0  0  0  0  0  0  0  0  0  0  0
   -1.5183    1.5933    0.0000 C   0  0  0  0  0  0  0  0  0  0  0  0
   -1.5183    0.7685    0.0000 C   0  0  0  0  0  0  0  0  0  0  0  0
   -0.7873    0.3749    0.0000 C   0  0  0  0  0  0  0  0  0  0  0  0
    0.0000    0.7685    0.0000 C   0  0  0  0  0  0  0  0  0  0  0  0
    0.6373    1.9870    0.0000 C   0  0  0  0  0  0  0  0  0  0  0  0
    1.3684    1.5933    0.0000 C   0  0  0  0  0  0  0  0  0  0  0  0
    1.3684    0.7685    0.0000 C   0  0  0  0  0  0  0  0  0  0  0  0
    0.6373    0.3561    0.0000 C   0  0  0  0  0  0  0  0  0  0  0  0
    0.6373    2.8305    0.0000 C   0  0  0  0  0  0  0  0  0  0  0  0
    1.3871    3.2241    0.0000 C   0  0  0  0  0  0  0  0  0  0  0  0
    2.0994    2.8118    0.0000 C   0  0  0  0  0  0  0  0  0  0  0  0
    2.0807    1.9682    0.0000 C   0  0  0  0  0  0  0  0  0  0  0  0
    2.8305    3.2054    0.0000 C   0  0  0  0  0  0  0  0  0  0  0  0
    3.5428    2.7742    0.0000 C   0  0  0  0  0  0  0  0  0  0  0  0
    3.5240    1.9494    0.0000 C   0  0  0  0  0  0  0  0  0  0  0  0
    2.7930    1.5558    0.0000 C   0  0  0  0  0  0  0  0  0  0  0  0
    2.8492    4.0302    0.0000 C   0  0  0  0  0  0  0  0  0  0  0  0
    3.5803    4.4238    0.0000 C   0  0  0  0  0  0  0  0  0  0  0  0
    4.2926    3.9927    0.0000 C   0  0  0  0  0  0  0  0  0  0  0  0
    4.2926    3.1679    0.0000 C   0  0  0  0  0  0  0  0  0  0  0  0
    4.1702    4.7268    0.0000 C   0  0  0  0  0  0  0  0  0  0  0  0
    3.0064    4.7561    0.0000 C   0  0  0  0  0  0  0  0  0  0  0  0
    4.2494    2.3396    0.0000 N   0  0  0  0  0  0  0  0  0  0  0  0
    4.9792    2.7338    0.0000 C   0  0  0  0  0  0  0  0  0  0  0  0
    5.6857    2.2993    0.0000 C   0  0  0  0  0  0  0  0  0  0  0  0
    4.9978    3.3967    0.0000 O   0  0  0  0  0  0  0  0  0  0  0  0
    6.2692    2.6145    0.0000 C   0  0  0  0  0  0  0  0  0  0  0  0
    6.2505    1.9517    0.0000 F   0  0  0  0  0  0  0  0  0  0  0  0
    5.6671    1.6364    0.0000 F   0  0  0  0  0  0  0  0  0  0  0  0
    2.8836    2.4911    0.0000 H   0  0  0  0  0  0  0  0  0  0  0  0
    2.1079    3.6151    0.0000 H   0  0  0  0  0  0  0  0  0  0  0  0
    1.4008    3.8872    0.0000 O   0  0  0  0  0  0  0  0  0  0  0  0
    1.3628    2.4475    0.0000 C   0  0  0  0  0  0  0  0  0  0  0  0
    2.0861    1.2546    0.0000 C   0  0  0  0  0  0  0  0  0  0  0  0
   -0.0235    2.2561    0.0000 C   0  0  0  0  0  0  0  0  0  0  0  0
   -0.0078    0.2623    0.0000 H   0  0  0  0  0  0  0  0  0  0  0  0
   -0.3053    0.1045    0.0000 C   0  0  0  0  0  0  0  0  0  0  0  0
   -1.3752    0.0680    0.0000 C   0  0  0  0  0  0  0  0  0  0  0  0
   -2.0877    0.4285    0.0000 O   0  0  0  0  0  0  0  0  0  0  0  0
   -2.2364    2.0082    0.0000 C   0  0  0  0  0  0  0  0  0  0  0  0
   -2.8107    2.3400    0.0000 N   0  0  0  0  0  0  0  0  0  0  0  0
  1  2  1  0
  2  3  2  0
  3  4  1  0
  4  5  1  0
  5  6  1  0
 10  6  1  0
  6  1  1  0
  1  7  1  0
  8  9  1  0
  9 10  1  0
 14  8  1  0
  8  7  1  0
  7 11  2  0
 11 12  1  0
 12 13  1  0
 13 15  1  0
 14 13  1  0
 18 14  1  0
 16 17  1  0
 17 18  1  0
 22 16  1  0
 16 15  1  0
 15 19  1  0
 19 20  1  0
 20 21  1  0
 21 22  1  0
 20 23  1  0
 20 24  1  0
 16 25  1  1
 25 26  1  0
 26 27  1  0
 26 28  2  0
 27 29  1  0
 27 30  1  0
 27 31  1  0
 15 32  1  1
 13 33  1  1
 12 34  2  0
  8 35  1  1
 14 36  1  6
  1 37  1  1
  6 38  1  6
  5 39  1  0
  5 40  1  0
  4 41  2  0
  3 42  1  0
 42 43  3  0
M  END
> <chembl_id>
CHEMBL4303525

> <chembl_pref_name>
OMAVELOXOLONE
