
     RDKit          2D

 21 23  0  0  1  0  0  0  0  0999 V2000
    0.5042   -0.8375    0.0000 O   0  0  0  0  0  0  0  0  0  0  0  0
    1.4375   -0.3000    0.0000 C   0  0  0  0  0  0  0  0  0  0  0  0
    1.4375    0.7833    0.0000 C   0  0  0  0  0  0  0  0  0  0  0  0
   -0.4208   -0.3000    0.0000 C   0  0  0  0  0  0  0  0  0  0  0  0
    0.5042    1.3333    0.0000 C   0  0  0  0  0  0  0  0  0  0  0  0
    2.3792    1.3333    0.0000 C   0  0  0  0  0  0  0  0  0  0  0  0
   -1.3958   -0.8250    0.0000 C   0  0  0  0  0  0  0  0  0  0  0  0
   -0.4208    0.7833    0.0000 C   0  0  0  0  0  0  0  0  0  0  0  0
    2.3792   -0.8375    0.0000 C   0  0  0  0  0  0  0  0  0  0  0  0
    3.3292    0.7833    0.0000 C   0  0  0  0  0  0  0  0  0  0  0  0
   -2.2875   -0.2542    0.0000 C   0  0  0  0  0  0  0  0  0  0  0  0
   -3.2625   -0.7542    0.0000 C   0  0  0  0  0  0  0  0  0  0  0  0
    3.3292   -0.3000    0.0000 C   0  0  0  0  0  0  0  0  0  0  0  0
   -3.2625   -1.8417    0.0000 C   0  0  0  0  0  0  0  0  0  0  0  0
   -1.3833   -1.9125    0.0000 C   0  0  0  0  0  0  0  0  0  0  0  0
   -2.3458   -2.4250    0.0000 C   0  0  0  0  0  0  0  0  0  0  0  0
    2.3792    2.4000    0.0000 O   0  0  0  0  0  0  0  0  0  0  0  0
   -1.3583    1.3333    0.0000 O   0  0  0  0  0  0  0  0  0  0  0  0
   -4.1583   -0.2167    0.0000 O   0  0  0  0  0  0  0  0  0  0  0  0
   -4.2083   -2.3250    0.0000 O   0  0  0  0  0  0  0  0  0  0  0  0
    4.2625   -0.8250    0.0000 O   0  0  0  0  0  0  0  0  0  0  0  0
  2  1  1  0
  3  2  1  0
  4  1  1  0
  5  8  1  0
  6  3  2  0
  4  7  1  6
  8  4  1  0
  9  2  2  0
 10 13  2  0
 11  7  1  0
 12 11  2  0
 13  9  1  0
 14 16  2  0
 15  7  2  0
 16 15  1  0
 17  6  1  0
  8 18  1  1
 19 12  1  0
 20 14  1  0
 21 13  1  0
  3  5  1  0
  6 10  1  0
 12 14  1  0
M  END
> <chembl_id>
CHEMBL311498

> <chembl_pref_name>
CIANIDANOL
