
     RDKit          2D

 18 19  0  0  0  0  0  0  0  0999 V2000
   -0.7292   -0.6917    0.0000 S   0  0  0  0  0  0  0  0  0  0  0  0
   -0.1125   -1.0417    0.0000 C   0  0  0  0  0  0  0  0  0  0  0  0
    1.0917   -1.0417    0.0000 C   0  0  0  0  0  0  0  0  0  0  0  0
    1.7042   -0.6917    0.0000 C   0  0  0  0  0  0  0  0  0  0  0  0
    1.0917   -1.7542    0.0000 C   0  0  0  0  0  0  0  0  0  0  0  0
    2.3167   -1.0417    0.0000 N   0  0  0  0  0  0  0  0  0  0  0  0
    0.4875   -0.6917    0.0000 C   0  0  0  0  0  0  0  0  0  0  0  0
    1.7042   -2.1167    0.0000 N   0  0  0  0  0  0  0  0  0  0  0  0
   -0.1125   -1.7542    0.0000 C   0  0  0  0  0  0  0  0  0  0  0  0
    0.4875   -2.1167    0.0000 C   0  0  0  0  0  0  0  0  0  0  0  0
    2.3167   -1.7542    0.0000 C   0  0  0  0  0  0  0  0  0  0  0  0
   -0.3833   -0.0750    0.0000 O   0  0  0  0  0  0  0  0  0  0  0  0
   -1.0875   -0.0750    0.0000 O   0  0  0  0  0  0  0  0  0  0  0  0
    1.7042    0.0208    0.0000 O   0  0  0  0  0  0  0  0  0  0  0  0
   -1.3417   -1.0500    0.0000 N   0  0  0  0  0  0  0  0  0  0  0  0
   -0.7250   -2.1167    0.0000 Cl  0  0  0  0  0  0  0  0  0  0  0  0
    2.9292   -2.1167    0.0000 C   0  0  0  0  0  0  0  0  0  0  0  0
    3.5500   -1.7667    0.0000 C   0  0  0  0  0  0  0  0  0  0  0  0
  2  1  1  0
  3  7  1  0
  4  3  1  0
  5 10  1  0
  6  4  1  0
  7  2  2  0
  8  5  1  0
  9  2  1  0
 10  9  2  0
 11  8  1  0
 12  1  2  0
 13  1  2  0
 14  4  2  0
 15  1  1  0
 16  9  1  0
 17 11  1  0
 18 17  1  0
  3  5  2  0
  6 11  1  0
M  END
> <chembl_id>
CHEMBL1532

> <chembl_pref_name>
QUINETHAZONE
