
     RDKit          2D

 32 32  0  0  0  0  0  0  0  0999 V2000
    4.1292   -5.1917    0.0000 C   0  0  0  0  0  0  0  0  0  0  0  0
    4.7625   -4.1042    0.0000 C   0  0  0  0  0  0  0  0  0  0  0  0
    5.3750   -5.1917    0.0000 C   0  0  0  0  0  0  0  0  0  0  0  0
    4.1292   -4.4792    0.0000 C   0  0  0  0  0  0  0  0  0  0  0  0
    4.7625   -5.5542    0.0000 C   0  0  0  0  0  0  0  0  0  0  0  0
    5.3750   -4.4792    0.0000 C   0  0  0  0  0  0  0  0  0  0  0  0
    3.5167   -5.5417    0.0000 N   0  0  0  0  0  0  0  0  0  0  0  0
    4.7625   -3.4042    0.0000 C   0  0  0  0  0  0  0  0  0  0  0  0
    6.0000   -5.5417    0.0000 C   0  0  0  0  0  0  0  0  0  0  0  0
    2.9000   -5.1917    0.0000 C   0  0  0  0  0  0  0  0  0  0  0  0
    5.3667   -3.0542    0.0000 N   0  0  0  0  0  0  0  0  0  0  0  0
    3.5167   -6.2542    0.0000 C   0  0  0  0  0  0  0  0  0  0  0  0
    4.1417   -3.0417    0.0000 O   0  0  0  0  0  0  0  0  0  0  0  0
    6.0042   -6.2542    0.0000 O   0  0  0  0  0  0  0  0  0  0  0  0
    2.9042   -4.5000    0.0000 O   0  0  0  0  0  0  0  0  0  0  0  0
    3.5167   -4.1250    0.0000 I   0  0  0  0  0  0  0  0  0  0  0  0
    4.7625   -6.2667    0.0000 I   0  0  0  0  0  0  0  0  0  0  0  0
    6.0000   -4.1250    0.0000 I   0  0  0  0  0  0  0  0  0  0  0  0
    6.6125   -5.1875    0.0000 N   0  0  0  0  0  0  0  0  0  0  0  0
    2.9042   -6.6042    0.0000 C   0  0  0  0  0  0  0  0  0  0  0  0
    5.9792   -3.4042    0.0000 C   0  0  0  0  0  0  0  0  0  0  0  0
    6.6042   -3.0625    0.0000 C   0  0  0  0  0  0  0  0  0  0  0  0
    2.9042   -7.3042    0.0000 O   0  0  0  0  0  0  0  0  0  0  0  0
    6.6042   -2.3417    0.0000 O   0  0  0  0  0  0  0  0  0  0  0  0
    2.3000   -5.5042    0.0000 C   0  0  0  0  0  0  0  0  0  0  0  0
    1.6917   -6.5917    0.0000 O   0  0  0  0  0  0  0  0  0  0  0  0
    7.8292   -3.0625    0.0000 O   0  0  0  0  0  0  0  0  0  0  0  0
    8.4542   -5.5292    0.0000 O   0  0  0  0  0  0  0  0  0  0  0  0
    2.3042   -6.2542    0.0000 C   0  0  0  0  0  0  0  0  0  0  0  0
    7.2125   -3.4167    0.0000 C   0  0  0  0  0  0  0  0  0  0  0  0
    7.2250   -5.5375    0.0000 C   0  0  0  0  0  0  0  0  0  0  0  0
    7.8417   -5.1750    0.0000 C   0  0  0  0  0  0  0  0  0  0  0  0
  2  4  2  0
  3  5  1  0
  4  1  1  0
  5  1  2  0
  6  3  2  0
  7  1  1  0
  8  2  1  0
  9  3  1  0
 10  7  1  0
 11  8  1  0
 12  7  1  0
 13  8  2  0
 14  9  2  0
 15 10  2  0
 16  4  1  0
 17  5  1  0
 18  6  1  0
 19  9  1  0
 20 12  1  0
 21 11  1  0
 22 21  1  0
 23 20  1  0
 24 22  1  0
 25 10  1  0
 26 29  1  0
 27 30  1  0
 28 32  1  0
 29 20  1  0
 30 22  1  0
 31 19  1  0
 32 31  1  0
  6  2  1  0
M  END
> <chembl_id>
CHEMBL1201075

> <chembl_pref_name>
IOXILAN
