
     RDKit          2D

 23 26  0  0  1  0  0  0  0  0999 V2000
    3.4417   -3.9875    0.0000 C   0  0  0  0  0  0  0  0  0  0  0  0
    3.4417   -4.7000    0.0000 C   0  0  0  0  0  0  0  0  0  0  0  0
    2.8167   -5.0417    0.0000 C   0  0  0  0  0  0  0  0  0  0  0  0
    2.1917   -4.6875    0.0000 C   0  0  0  0  0  0  0  0  0  0  0  0
    1.5917   -5.0375    0.0000 C   0  0  0  0  0  0  0  0  0  0  0  0
    1.5792   -5.7500    0.0000 C   0  0  0  0  0  0  0  0  0  0  0  0
    4.1292   -3.7667    0.0000 C   0  0  0  0  0  0  0  0  0  0  0  0
    2.8167   -3.6250    0.0000 C   0  0  0  0  0  0  0  0  0  0  0  0
    2.2042   -3.9875    0.0000 C   0  0  0  0  0  0  0  0  0  0  0  0
    4.1042   -4.9250    0.0000 C   0  0  0  0  0  0  0  0  0  0  0  0
    2.8042   -5.7625    0.0000 C   0  0  0  0  0  0  0  0  0  0  0  0
    0.9667   -4.6750    0.0000 C   0  0  0  0  0  0  0  0  0  0  0  0
    2.1917   -6.1125    0.0000 C   0  0  0  0  0  0  0  0  0  0  0  0
    0.9542   -6.1000    0.0000 C   0  0  0  0  0  0  0  0  0  0  0  0
    4.5417   -4.3417    0.0000 C   0  0  0  0  0  0  0  0  0  0  0  0
    4.3542   -3.0917    0.0000 O   0  0  0  0  0  0  0  0  0  0  0  0
    0.3417   -5.7500    0.0000 C   0  0  0  0  0  0  0  0  0  0  0  0
    0.3417   -5.0375    0.0000 C   0  0  0  0  0  0  0  0  0  0  0  0
    3.4292   -3.2792    0.0000 C   0  0  0  0  0  0  0  0  0  0  0  0
   -0.2875   -6.0917    0.0000 O   0  0  0  0  0  0  0  0  0  0  0  0
    3.4917   -5.3250    0.0000 H   0  0  0  0  0  0  0  0  0  0  0  0
    2.8042   -4.2750    0.0000 H   0  0  0  0  0  0  0  0  0  0  0  0
    2.1667   -5.3417    0.0000 H   0  0  0  0  0  0  0  0  0  0  0  0
  2  1  1  0
  3  2  1  0
  4  9  1  0
  5  4  1  0
  6  5  2  0
  7  1  1  0
  8  1  1  0
  9  8  1  0
 10  2  1  0
 11  3  1  0
 12  5  1  0
 13 11  1  0
 14  6  1  0
 15  7  1  0
 16  7  2  0
 17 18  1  0
 18 12  2  0
  1 19  1  1
 20 17  1  0
  2 21  1  6
  3 22  1  1
  4 23  1  6
 10 15  1  0
  3  4  1  0
 13  6  1  0
 14 17  2  0
M  END
> <chembl_id>
CHEMBL1405

> <chembl_pref_name>
ESTRONE
