
     RDKit          2D

 89 93  0  0  0  0  0  0  0  0999 V2000
    4.6667   -6.3292    0.0000 C   0  0  0  0  0  0  0  0  0  0  0  0
    4.6667   -5.6250    0.0000 O   0  0  0  0  0  0  0  0  0  0  0  0
    5.2792   -6.6875    0.0000 O   0  0  0  0  0  0  0  0  0  0  0  0
    4.0542   -6.6875    0.0000 C   0  0  0  0  0  0  0  0  0  0  0  0
   11.7750   -3.1542    0.0000 N   0  0  0  0  0  0  0  0  0  0  0  0
   11.1625   -2.8000    0.0000 C   0  0  0  0  0  0  0  0  0  0  0  0
    1.9625   -1.7333    0.0000 C   0  0  0  0  0  0  0  0  0  0  0  0
    3.8042   -2.7917    0.0000 C   0  0  0  0  0  0  0  0  0  0  0  0
    1.9625   -3.1500    0.0000 C   0  0  0  0  0  0  0  0  0  0  0  0
    0.1250   -2.7958    0.0000 C   0  0  0  0  0  0  0  0  0  0  0  0
    9.3250   -3.1542    0.0000 C   0  0  0  0  0  0  0  0  0  0  0  0
   -1.7125   -3.1542    0.0000 C   0  0  0  0  0  0  0  0  0  0  0  0
   -2.9042   -3.2208    0.0000 N   0  0  0  0  0  0  0  0  0  0  0  0
   12.3500   -2.7333    0.0000 C   0  0  0  0  0  0  0  0  0  0  0  0
    2.5750   -2.7917    0.0000 N   0  0  0  0  0  0  0  0  0  0  0  0
    3.1875   -3.1458    0.0000 C   0  0  0  0  0  0  0  0  0  0  0  0
    3.1083   -1.7500    0.0000 N   0  0  0  0  0  0  0  0  0  0  0  0
    0.7375   -3.1500    0.0000 N   0  0  0  0  0  0  0  0  0  0  0  0
   -1.1042   -2.7958    0.0000 N   0  0  0  0  0  0  0  0  0  0  0  0
    4.4167   -3.1542    0.0000 N   0  0  0  0  0  0  0  0  0  0  0  0
    9.9375   -2.8000    0.0000 N   0  0  0  0  0  0  0  0  0  0  0  0
    2.5292   -2.1583    0.0000 C   0  0  0  0  0  0  0  0  0  0  0  0
   -0.4917   -3.1500    0.0000 C   0  0  0  0  0  0  0  0  0  0  0  0
    1.3458   -2.7917    0.0000 C   0  0  0  0  0  0  0  0  0  0  0  0
   12.3500   -2.0250    0.0000 C   0  0  0  0  0  0  0  0  0  0  0  0
    5.6417   -3.1542    0.0000 C   0  0  0  0  0  0  0  0  0  0  0  0
   10.5458   -3.1542    0.0000 C   0  0  0  0  0  0  0  0  0  0  0  0
    1.2708   -4.1833    0.0000 N   0  0  0  0  0  0  0  0  0  0  0  0
    5.0250   -2.8000    0.0000 C   0  0  0  0  0  0  0  0  0  0  0  0
    8.7083   -2.8000    0.0000 C   0  0  0  0  0  0  0  0  0  0  0  0
   -2.3292   -2.8042    0.0000 C   0  0  0  0  0  0  0  0  0  0  0  0
   11.7750   -5.9875    0.0000 C   0  0  0  0  0  0  0  0  0  0  0  0
   -3.4750   -2.8042    0.0000 C   0  0  0  0  0  0  0  0  0  0  0  0
    2.1958   -1.0625    0.0000 C   0  0  0  0  0  0  0  0  0  0  0  0
    1.3458   -2.0875    0.0000 C   0  0  0  0  0  0  0  0  0  0  0  0
    8.0958   -3.1542    0.0000 N   0  0  0  0  0  0  0  0  0  0  0  0
    0.1250   -4.2125    0.0000 C   0  0  0  0  0  0  0  0  0  0  0  0
   -0.4917   -3.8583    0.0000 C   0  0  0  0  0  0  0  0  0  0  0  0
    0.3625   -4.8792    0.0000 N   0  0  0  0  0  0  0  0  0  0  0  0
    7.4833   -2.7958    0.0000 C   0  0  0  0  0  0  0  0  0  0  0  0
   12.9625   -1.6708    0.0000 N   0  0  0  0  0  0  0  0  0  0  0  0
    6.2542   -2.7958    0.0000 N   0  0  0  0  0  0  0  0  0  0  0  0
    1.0667   -4.8583    0.0000 C   0  0  0  0  0  0  0  0  0  0  0  0
    2.9000   -1.0750    0.0000 C   0  0  0  0  0  0  0  0  0  0  0  0
   14.1917   -1.6708    0.0000 C   0  0  0  0  0  0  0  0  0  0  0  0
   11.1625   -6.3417    0.0000 N   0  0  0  0  0  0  0  0  0  0  0  0
    0.6875   -3.7792    0.0000 C   0  0  0  0  0  0  0  0  0  0  0  0
   11.1625   -2.0917    0.0000 O   0  0  0  0  0  0  0  0  0  0  0  0
    3.8042   -2.0833    0.0000 O   0  0  0  0  0  0  0  0  0  0  0  0
    0.1250   -2.0875    0.0000 O   0  0  0  0  0  0  0  0  0  0  0  0
    1.9625   -3.8542    0.0000 O   0  0  0  0  0  0  0  0  0  0  0  0
    9.3250   -3.8625    0.0000 O   0  0  0  0  0  0  0  0  0  0  0  0
   -1.7083   -3.8625    0.0000 O   0  0  0  0  0  0  0  0  0  0  0  0
    5.0250   -2.0917    0.0000 C   0  0  0  0  0  0  0  0  0  0  0  0
   11.7375   -1.6708    0.0000 O   0  0  0  0  0  0  0  0  0  0  0  0
    5.6417   -3.8625    0.0000 O   0  0  0  0  0  0  0  0  0  0  0  0
    8.7083   -2.0917    0.0000 C   0  0  0  0  0  0  0  0  0  0  0  0
   -4.0958   -3.1542    0.0000 O   0  0  0  0  0  0  0  0  0  0  0  0
    7.4833   -2.0875    0.0000 O   0  0  0  0  0  0  0  0  0  0  0  0
   14.1917   -0.9625    0.0000 O   0  0  0  0  0  0  0  0  0  0  0  0
   -2.5500   -2.1333    0.0000 C   0  0  0  0  0  0  0  0  0  0  0  0
   11.7750   -5.2792    0.0000 N   0  0  0  0  0  0  0  0  0  0  0  0
    6.8667   -3.1500    0.0000 C   0  0  0  0  0  0  0  0  0  0  0  0
   13.5750   -2.0250    0.0000 C   0  0  0  0  0  0  0  0  0  0  0  0
   12.3875   -6.3417    0.0000 N   0  0  0  0  0  0  0  0  0  0  0  0
   11.9958   -3.8250    0.0000 C   0  0  0  0  0  0  0  0  0  0  0  0
   -3.2542   -2.1333    0.0000 C   0  0  0  0  0  0  0  0  0  0  0  0
   14.8042   -2.0250    0.0000 N   0  0  0  0  0  0  0  0  0  0  0  0
    5.6417   -1.7375    0.0000 C   0  0  0  0  0  0  0  0  0  0  0  0
    6.8667   -1.0292    0.0000 C   0  0  0  0  0  0  0  0  0  0  0  0
    3.1875   -3.8542    0.0000 C   0  0  0  0  0  0  0  0  0  0  0  0
    5.6417   -1.0292    0.0000 C   0  0  0  0  0  0  0  0  0  0  0  0
    6.2542   -2.0917    0.0000 C   0  0  0  0  0  0  0  0  0  0  0  0
    6.8667   -1.7375    0.0000 C   0  0  0  0  0  0  0  0  0  0  0  0
    6.2542   -0.6750    0.0000 C   0  0  0  0  0  0  0  0  0  0  0  0
   12.9250   -3.1542    0.0000 C   0  0  0  0  0  0  0  0  0  0  0  0
    7.4833   -0.6750    0.0000 O   0  0  0  0  0  0  0  0  0  0  0  0
    3.8042   -4.2083    0.0000 O   0  0  0  0  0  0  0  0  0  0  0  0
   12.7042   -3.8250    0.0000 C   0  0  0  0  0  0  0  0  0  0  0  0
   10.5458   -3.8625    0.0000 C   0  0  0  0  0  0  0  0  0  0  0  0
    1.8458   -0.4417    0.0000 C   0  0  0  0  0  0  0  0  0  0  0  0
    9.3250   -1.7375    0.0000 C   0  0  0  0  0  0  0  0  0  0  0  0
    3.2667   -0.4667    0.0000 C   0  0  0  0  0  0  0  0  0  0  0  0
   11.1625   -4.9250    0.0000 C   0  0  0  0  0  0  0  0  0  0  0  0
   11.1625   -4.2167    0.0000 C   0  0  0  0  0  0  0  0  0  0  0  0
    9.9375   -2.0917    0.0000 C   0  0  0  0  0  0  0  0  0  0  0  0
    9.3250   -1.0292    0.0000 C   0  0  0  0  0  0  0  0  0  0  0  0
    2.2125    0.1625    0.0000 C   0  0  0  0  0  0  0  0  0  0  0  0
    2.9250    0.1542    0.0000 C   0  0  0  0  0  0  0  0  0  0  0  0
  2  1  2  0
  3  1  1  0
  4  1  1  0
  6  5  1  0
  7 35  1  0
  8 20  1  0
  9 15  1  0
 10 18  1  0
 11 21  1  0
 12 19  1  0
 13 31  1  0
 14  5  1  0
 16 15  1  6
 16  8  1  0
 17 22  1  0
 24 18  1  1
 23 19  1  6
 29 20  1  1
 27 21  1  6
 22  7  2  0
 23 10  1  0
 24  9  1  0
 14 25  1  6
 26 42  1  0
 27  6  1  0
 28 47  1  0
 29 26  1  0
 30 11  1  0
 31 12  1  1
 32 62  1  0
 33 13  1  0
 34  7  1  0
 24 35  1  0
 30 36  1  1
 37 38  1  0
 23 38  1  0
 39 37  1  0
 40 36  1  0
 41 25  1  0
 42 63  1  0
 43 39  1  0
 44 34  2  0
 45 64  1  0
 46 32  2  0
 47 37  2  0
 48  6  2  0
 49  8  2  0
 50 10  2  0
 51  9  2  0
 52 11  2  0
 53 12  2  0
 29 54  1  0
 55 25  2  0
 56 26  2  0
 30 57  1  0
 58 33  2  0
 59 40  2  0
 60 45  2  0
 61 31  1  0
 62 84  1  0
 63 40  1  0
 64 41  1  0
 65 32  1  0
 66  5  1  0
 67 61  1  0
 68 45  1  0
 69 54  1  0
 70 74  2  0
 16 71  1  0
 72 69  1  0
 73 69  2  0
 74 73  1  0
 75 72  2  0
 76 14  1  0
 77 70  1  0
 78 71  1  0
 79 66  1  0
 27 80  1  0
 81 34  1  0
 82 57  1  0
 83 44  1  0
 84 85  1  0
 85 80  1  0
 86 82  1  0
 87 82  1  0
 88 81  2  0
 89 88  1  0
 76 79  1  0
 70 75  1  0
 17 44  1  0
 83 89  2  0
 43 28  2  0
 33 67  1  0
M  END
> <chembl_id>
CHEMBL1200511

> <chembl_pref_name>
GONADORELIN ACETATE
