
     RDKit          2D

 18 19  0  0  0  0  0  0  0  0999 V2000
    6.5167   -4.5500    0.0000 C   0  0  0  0  0  0  0  0  0  0  0  0
    5.2792   -4.5417    0.0000 N   0  0  0  0  0  0  0  0  0  0  0  0
    5.8917   -4.8917    0.0000 C   0  0  0  0  0  0  0  0  0  0  0  0
    6.5125   -3.8375    0.0000 C   0  0  0  0  0  0  0  0  0  0  0  0
    4.6750   -4.8875    0.0000 C   0  0  0  0  0  0  0  0  0  0  0  0
    4.0542   -4.5417    0.0000 C   0  0  0  0  0  0  0  0  0  0  0  0
    7.1292   -3.4792    0.0000 O   0  0  0  0  0  0  0  0  0  0  0  0
    3.4417   -4.8917    0.0000 C   0  0  0  0  0  0  0  0  0  0  0  0
    5.8917   -3.4792    0.0000 O   0  0  0  0  0  0  0  0  0  0  0  0
    7.1292   -4.8917    0.0000 C   0  0  0  0  0  0  0  0  0  0  0  0
    4.6667   -5.5917    0.0000 C   0  0  0  0  0  0  0  0  0  0  0  0
    5.8917   -5.6042    0.0000 C   0  0  0  0  0  0  0  0  0  0  0  0
    4.0500   -5.9542    0.0000 C   0  0  0  0  0  0  0  0  0  0  0  0
    4.0625   -3.8292    0.0000 C   0  0  0  0  0  0  0  0  0  0  0  0
    3.4417   -5.5917    0.0000 C   0  0  0  0  0  0  0  0  0  0  0  0
    2.8250   -4.5292    0.0000 C   0  0  0  0  0  0  0  0  0  0  0  0
    7.1250   -5.6125    0.0000 C   0  0  0  0  0  0  0  0  0  0  0  0
    6.5042   -5.9625    0.0000 C   0  0  0  0  0  0  0  0  0  0  0  0
  2  3  1  0
  3  1  2  0
  4  1  1  0
  5  2  1  0
  6  5  2  0
  7  4  2  0
  8  6  1  0
  9  4  1  0
 10  1  1  0
 11  5  1  0
 12  3  1  0
 13 11  2  0
 14  6  1  0
 15 13  1  0
 16  8  1  0
 17 10  2  0
 18 17  1  0
 18 12  2  0
 15  8  2  0
M  END
> <chembl_id>
CHEMBL686

> <chembl_pref_name>
MEFENAMIC ACID
