
     RDKit          2D

 32 36  0  0  1  0  0  0  0  0999 V2000
    4.1542   -6.2875    0.0000 C   0  0  0  0  0  0  0  0  0  0  0  0
    4.1542   -6.9792    0.0000 C   0  0  0  0  0  0  0  0  0  0  0  0
    3.5417   -7.3417    0.0000 C   0  0  0  0  0  0  0  0  0  0  0  0
    2.9250   -6.9917    0.0000 C   0  0  0  0  0  0  0  0  0  0  0  0
    2.3125   -7.3500    0.0000 C   0  0  0  0  0  0  0  0  0  0  0  0
    4.8375   -6.0750    0.0000 C   0  0  0  0  0  0  0  0  0  0  0  0
    2.3125   -8.0625    0.0000 C   0  0  0  0  0  0  0  0  0  0  0  0
    3.5417   -5.9292    0.0000 C   0  0  0  0  0  0  0  0  0  0  0  0
    2.9250   -6.2875    0.0000 C   0  0  0  0  0  0  0  0  0  0  0  0
    4.8375   -7.2000    0.0000 C   0  0  0  0  0  0  0  0  0  0  0  0
    3.5417   -8.0625    0.0000 C   0  0  0  0  0  0  0  0  0  0  0  0
    4.8542   -5.3375    0.0000 O   0  0  0  0  0  0  0  0  0  0  0  0
    5.4792   -5.0167    0.0000 C   0  0  0  0  0  0  0  0  0  0  0  0
    1.6875   -6.9917    0.0000 C   0  0  0  0  0  0  0  0  0  0  0  0
    2.9250   -8.4167    0.0000 C   0  0  0  0  0  0  0  0  0  0  0  0
    5.2500   -6.6167    0.0000 C   0  0  0  0  0  0  0  0  0  0  0  0
    1.6875   -8.4167    0.0000 C   0  0  0  0  0  0  0  0  0  0  0  0
    5.4667   -4.3000    0.0000 O   0  0  0  0  0  0  0  0  0  0  0  0
    1.0750   -8.0542    0.0000 C   0  0  0  0  0  0  0  0  0  0  0  0
    1.0750   -7.3667    0.0000 C   0  0  0  0  0  0  0  0  0  0  0  0
    6.0792   -5.3625    0.0000 C   0  0  0  0  0  0  0  0  0  0  0  0
    4.1500   -5.5792    0.0000 C   0  0  0  0  0  0  0  0  0  0  0  0
    6.6917   -4.9875    0.0000 C   0  0  0  0  0  0  0  0  0  0  0  0
    0.4292   -8.4042    0.0000 O   0  0  0  0  0  0  0  0  0  0  0  0
    7.3000   -5.3292    0.0000 C   0  0  0  0  0  0  0  0  0  0  0  0
    7.8375   -4.9125    0.0000 C   0  0  0  0  0  0  0  0  0  0  0  0
    7.5292   -5.9750    0.0000 C   0  0  0  0  0  0  0  0  0  0  0  0
    8.4417   -5.3042    0.0000 C   0  0  0  0  0  0  0  0  0  0  0  0
    8.2125   -5.9875    0.0000 C   0  0  0  0  0  0  0  0  0  0  0  0
    4.1542   -7.6917    0.0000 H   0  0  0  0  0  0  0  0  0  0  0  0
    3.5417   -6.6250    0.0000 H   0  0  0  0  0  0  0  0  0  0  0  0
    2.9250   -7.7000    0.0000 H   0  0  0  0  0  0  0  0  0  0  0  0
  2  1  1  0
  3  2  1  0
  4  9  1  0
  5  4  1  0
  6  1  1  0
  7  5  2  0
  8  1  1  0
  9  8  1  0
 10  2  1  0
 11  3  1  0
  6 12  1  1
 13 12  1  0
 14  5  1  0
 15 11  1  0
 16  6  1  0
 17  7  1  0
 18 13  2  0
 19 20  1  0
 20 14  2  0
 21 13  1  0
  1 22  1  1
 23 21  1  0
 24 19  1  0
 25 23  1  0
 26 25  1  0
 27 25  1  0
 28 26  1  0
 29 27  1  0
  2 30  1  6
  3 31  1  1
  4 32  1  6
 10 16  1  0
  3  4  1  0
 15  7  1  0
 17 19  2  0
 28 29  1  0
M  END
> <chembl_id>
CHEMBL1200973

> <chembl_pref_name>
ESTRADIOL CYPIONATE
