
     RDKit          2D

 38 41  0  0  0  0  0  0  0  0999 V2000
    2.2897   -2.1231    0.0000 C   0  0  0  0  0  0  0  0  0  0  0  0
    3.0042   -1.7106    0.0000 C   0  0  0  0  0  0  0  0  0  0  0  0
    2.2897   -2.9481    0.0000 C   0  0  0  0  0  0  0  0  0  0  0  0
    3.0042   -3.3606    0.0000 C   0  0  0  0  0  0  0  0  0  0  0  0
    3.0042   -4.1856    0.0000 O   0  0  0  0  0  0  0  0  0  0  0  0
    3.7187   -2.9481    0.0000 C   0  0  0  0  0  0  0  0  0  0  0  0
    4.4331   -3.3606    0.0000 C   0  0  0  0  0  0  0  0  0  0  0  0
    4.4331   -4.1856    0.0000 O   0  0  0  0  0  0  0  0  0  0  0  0
    5.1476   -2.9481    0.0000 C   0  0  0  0  0  0  0  0  0  0  0  0
    5.8621   -3.3606    0.0000 C   0  0  0  0  0  0  0  0  0  0  0  0
    5.8621   -4.1856    0.0000 O   0  0  0  0  0  0  0  0  0  0  0  0
    6.5765   -2.9481    0.0000 C   0  0  0  0  0  0  0  0  0  0  0  0
    6.5765   -3.7731    0.0000 O   0  0  0  0  0  0  0  0  0  0  0  0
    7.2910   -3.3606    0.0000 C   0  0  0  0  0  0  0  0  0  0  0  0
    9.4344   -2.9481    0.0000 O   0  0  0  0  0  0  0  0  0  0  0  0
    8.7200   -3.3606    0.0000 C   0  0  0  0  0  0  0  0  0  0  0  0
    8.7200   -4.1856    0.0000 N   0  0  0  0  0  0  0  0  0  0  0  0
    8.0055   -2.9481    0.0000 C   0  0  0  0  0  0  0  0  0  0  0  0
    8.7200   -1.7106    0.0000 O   0  0  0  0  0  0  0  0  0  0  0  0
    8.0055   -2.1231    0.0000 C   0  0  0  0  0  0  0  0  0  0  0  0
    6.5765   -2.1231    0.0000 C   0  0  0  0  0  0  0  0  0  0  0  0
    6.2944   -1.3478    0.0000 H   0  0  0  0  0  0  0  0  0  0  0  0
    5.1476   -2.1231    0.0000 C   0  0  0  0  0  0  0  0  0  0  0  0
    5.1476   -1.2981    0.0000 H   0  0  0  0  0  0  0  0  0  0  0  0
    4.4331   -1.7106    0.0000 C   0  0  0  0  0  0  0  0  0  0  0  0
    3.7187   -2.1231    0.0000 C   0  0  0  0  0  0  0  0  0  0  0  0
    3.0042   -0.8856    0.0000 C   0  0  0  0  0  0  0  0  0  0  0  0
    2.2897   -0.4731    0.0000 N   0  0  0  0  0  0  0  0  0  0  0  0
    5.8621   -1.7106    0.0000 C   0  0  0  0  0  0  0  0  0  0  0  0
    7.2910   -1.7106    0.0000 C   0  0  0  0  0  0  0  0  0  0  0  0
    8.0055   -0.4731    0.0000 C   0  0  0  0  0  0  0  0  0  0  0  0
    7.2910   -0.8856    0.0000 N   0  0  0  0  0  0  0  0  0  0  0  0
    1.5753   -0.8856    0.0000 C   0  0  0  0  0  0  0  0  0  0  0  0
    6.5765   -0.4731    0.0000 C   0  0  0  0  0  0  0  0  0  0  0  0
    1.5753    0.7644    0.0000 C   0  0  0  0  0  0  0  0  0  0  0  0
    2.2897    0.3519    0.0000 O   0  0  0  0  0  0  0  0  0  0  0  0
    6.7607   -1.0786    0.0000 H   0  0  0  0  0  0  0  0  0  0  0  0
    7.2910   -4.1856    0.0000 O   0  0  0  0  0  0  0  0  0  0  0  0
  1  2  2  0
  1  3  1  0
  2 26  1  0
  2 27  1  0
  3  4  2  0
  4  5  1  0
  6  4  1  0
  6  7  1  0
  7  8  2  0
  7  9  1  0
  9 10  2  0
 10 11  1  0
 10 12  1  0
 12 13  1  6
 12 21  1  0
 14 12  1  0
 15 16  2  0
 16 17  1  0
 18 16  1  0
 18 14  1  0
 19 20  1  0
 20 18  2  0
 21 22  1  6
 21 30  1  0
 23 24  1  6
 23  9  1  0
 23 29  1  0
 25 26  1  0
 25 23  1  0
 26  6  2  0
 27 28  1  0
 28 33  1  0
 29 21  1  0
 30 20  1  0
 30 37  1  1
 30 32  1  6
 31 32  1  0
 32 34  1  0
 35 36  1  0
 36 28  1  0
 14 38  2  0
M  END
> <chembl_id>
CHEMBL2364632

> <chembl_pref_name>
SARECYCLINE
