
     RDKit          2D

 23 21  0  0  0  0  0  0  0  0999 V2000
   12.4696  -12.7888    0.0000 O   0  0  0  0  0  0  0  0  0  0  0  0
   10.4414  -11.5334    0.0000 O   0  0  0  0  0  0  0  0  0  0  0  0
    9.7270   -9.4708    0.0000 O   0  0  0  0  0  0  0  0  0  0  0  0
   11.8704  -10.7083    0.0000 O   0  0  0  0  0  0  0  0  0  0  0  0
   11.1559   -9.4708    0.0000 O   0  0  0  0  0  0  0  0  0  0  0  0
    8.2980  -10.2958    0.0000 O   0  0  0  0  0  0  0  0  0  0  0  0
    9.0125  -11.5333    0.0000 O   0  0  0  0  0  0  0  0  0  0  0  0
    9.0125  -10.7083    0.0000 C   0  0  0  0  0  0  0  0  0  0  0  0
    9.7270  -10.2958    0.0000 C   0  0  0  0  0  0  0  0  0  0  0  0
   10.4414  -10.7083    0.0000 C   0  0  0  0  0  0  0  0  0  0  0  0
   11.1559  -10.2958    0.0000 C   0  0  0  0  0  0  0  0  0  0  0  0
   13.9918  -11.8428    0.0000 O   0  0  0  0  0  0  0  0  0  0  0  0
   15.4206  -12.6678    0.0000 O   0  0  0  0  0  0  0  0  0  0  0  0
   16.1352   -8.9553    0.0000 O   0  0  0  0  0  0  0  0  0  0  0  0
   14.7064   -8.1303    0.0000 N   0  0  0  0  0  0  0  0  0  0  0  0
   15.4207  -10.1928    0.0000 C   0  0  0  0  0  0  0  0  0  0  0  0
   14.7063  -11.4303    0.0000 C   0  0  0  0  0  0  0  0  0  0  0  0
   15.4207  -11.8428    0.0000 C   0  0  0  0  0  0  0  0  0  0  0  0
   14.7063  -10.6053    0.0000 C   0  0  0  0  0  0  0  0  0  0  0  0
   15.4207   -9.3678    0.0000 C   0  0  0  0  0  0  0  0  0  0  0  0
   16.1352  -10.6053    0.0000 C   0  0  0  0  0  0  0  0  0  0  0  0
   16.1352  -11.4303    0.0000 C   0  0  0  0  0  0  0  0  0  0  0  0
   14.7063   -8.9553    0.0000 C   0  0  0  0  0  0  0  0  0  0  0  0
  8  6  2  0
  9  3  1  0
 10  2  1  0
  8  7  1  0
 10 11  1  0
  9 10  1  0
 11  5  1  0
  8  9  1  0
 11  4  2  0
 12 17  1  0
 13 18  1  0
 20 14  1  6
 15 23  1  0
 16 19  2  0
 16 20  1  0
 16 21  1  0
 17 18  2  0
 17 19  1  0
 18 22  1  0
 20 23  1  0
 21 22  2  0
M  END
> <chembl_id>
CHEMBL1434513

> <chembl_pref_name>
NOREPINEPHRINE BITARTRATE
