
     RDKit          2D

 21 21  0  0  0  0  0  0  0  0999 V2000
    9.4814   -2.7661    0.0000 N   0  0  0  0  0  0  0  0  0  0  0  0
    8.7774   -3.1994    0.0000 C   0  0  0  0  0  0  0  0  0  0  0  0
    8.8024   -4.0200    0.0000 C   0  0  0  0  0  0  0  0  0  0  0  0
    3.1702   -4.3949    0.0000 C   0  0  0  0  0  0  0  0  0  0  0  0
    3.8284   -4.8948    0.0000 O   0  0  0  0  0  0  0  0  0  0  0  0
    4.5033   -4.4241    0.0000 C   0  0  0  0  0  0  0  0  0  0  0  0
    3.4451   -3.6160    0.0000 C   0  0  0  0  0  0  0  0  0  0  0  0
    4.2699   -3.6326    0.0000 C   0  0  0  0  0  0  0  0  0  0  0  0
   10.2104   -3.1536    0.0000 O   0  0  0  0  0  0  0  0  0  0  0  0
    9.4606   -1.9371    0.0000 O   0  0  0  0  0  0  0  0  0  0  0  0
    2.4411   -4.7753    0.0000 C   0  0  0  0  0  0  0  0  0  0  0  0
    9.5273   -4.4116    0.0000 N   0  0  0  0  0  0  0  0  0  0  0  0
    8.0984   -4.4533    0.0000 N   0  0  0  0  0  0  0  0  0  0  0  0
    1.7418   -4.3317    0.0000 N   0  0  0  0  0  0  0  0  0  0  0  0
    5.9238   -4.2741    0.0000 S   0  0  0  0  0  0  0  0  0  0  0  0
    5.2572   -4.7573    0.0000 C   0  0  0  0  0  0  0  0  0  0  0  0
    7.3443   -4.1200    0.0000 C   0  0  0  0  0  0  0  0  0  0  0  0
    6.6778   -4.6074    0.0000 C   0  0  0  0  0  0  0  0  0  0  0  0
    1.0127   -4.7121    0.0000 C   0  0  0  0  0  0  0  0  0  0  0  0
    1.7798   -3.5061    0.0000 C   0  0  0  0  0  0  0  0  0  0  0  0
   10.2312   -3.9825    0.0000 C   0  0  0  0  0  0  0  0  0  0  0  0
  2  1  1  0
  3  2  2  3
  4  5  1  0
  5  6  1  0
  6 16  1  0
  7  8  1  0
  8  6  2  0
  9  1  1  0
 10  1  2  0
 11  4  1  0
 12  3  1  0
 13  3  1  0
 14 11  1  0
 15 18  1  0
 16 15  1  0
 17 13  1  0
 18 17  1  0
 19 14  1  0
 20 14  1  0
 21 12  1  0
  4  7  2  0
M  CHG  2   1   1   9  -1
M  END
> <chembl_id>
CHEMBL1790041

> <chembl_pref_name>
RANITIDINE
