
     RDKit          2D

 14 14  0  0  1  0  0  0  0  0999 V2000
    4.6750   -7.2375    0.0000 C   0  0  0  0  0  0  0  0  0  0  0  0
    5.2875   -6.8792    0.0000 C   0  0  0  0  0  0  0  0  0  0  0  0
    4.0625   -6.8792    0.0000 C   0  0  0  0  0  0  0  0  0  0  0  0
    5.2875   -6.1750    0.0000 O   0  0  0  0  0  0  0  0  0  0  0  0
    5.0292   -7.8542    0.0000 N   0  0  0  0  0  0  0  0  0  0  0  0
    3.4417   -7.2292    0.0000 C   0  0  0  0  0  0  0  0  0  0  0  0
    5.9042   -7.2375    0.0000 O   0  0  0  0  0  0  0  0  0  0  0  0
    2.2167   -7.9417    0.0000 C   0  0  0  0  0  0  0  0  0  0  0  0
    3.4417   -7.9417    0.0000 C   0  0  0  0  0  0  0  0  0  0  0  0
    2.8292   -6.8792    0.0000 C   0  0  0  0  0  0  0  0  0  0  0  0
    2.8292   -8.2917    0.0000 C   0  0  0  0  0  0  0  0  0  0  0  0
    2.2167   -7.2292    0.0000 C   0  0  0  0  0  0  0  0  0  0  0  0
    1.6042   -8.2917    0.0000 O   0  0  0  0  0  0  0  0  0  0  0  0
    4.3167   -7.8542    0.0000 C   0  0  0  0  0  0  0  0  0  0  0  0
  2  1  1  0
  3  1  1  0
  4  2  2  0
  1  5  1  1
  6  3  1  0
  7  2  1  0
  8 12  2  0
  9  6  1  0
 10  6  2  0
 11  9  2  0
 12 10  1  0
 13  8  1  0
 14  1  1  0
  8 11  1  0
M  END
> <chembl_id>
CHEMBL1200862

> <chembl_pref_name>
METYROSINE
