
     RDKit          2D

417428  0  0  1  0  0  0  0  0999 V2000
   13.9667   -3.6125    0.0000 C   0  0  0  0  0  0  0  0  0  0  0  0
   13.9917   -3.2000    0.0000 N   0  0  0  0  0  0  0  0  0  0  0  0
   -0.0708   -1.5542    0.0000 N   0  0  0  0  0  0  0  0  0  0  0  0
   13.5667   -3.7917    0.0000 C   0  0  0  0  0  0  0  0  0  0  0  0
    1.9250   -1.0792    0.0000 N   0  0  0  0  0  0  0  0  0  0  0  0
    0.3042   -1.7917    0.0000 C   0  0  0  0  0  0  0  0  0  0  0  0
    3.4000   -6.9167    0.0000 N   0  0  0  0  0  0  0  0  0  0  0  0
    9.2292   -6.6750    0.0000 N   0  0  0  0  0  0  0  0  0  0  0  0
    0.7042   -1.6042    0.0000 C   0  0  0  0  0  0  0  0  0  0  0  0
    1.6042   -0.4167    0.0000 C   0  0  0  0  0  0  0  0  0  0  0  0
   10.0042   -6.7292    0.0000 C   0  0  0  0  0  0  0  0  0  0  0  0
    1.6417   -0.0042    0.0000 N   0  0  0  0  0  0  0  0  0  0  0  0
    3.7292   -7.5542    0.0000 C   0  0  0  0  0  0  0  0  0  0  0  0
    1.0792   -1.8417    0.0000 N   0  0  0  0  0  0  0  0  0  0  0  0
   10.4125   -6.5417    0.0000 N   0  0  0  0  0  0  0  0  0  0  0  0
   -0.8000   -1.0792    0.0000 N   0  0  0  0  0  0  0  0  0  0  0  0
   -0.4708   -1.7292    0.0000 C   0  0  0  0  0  0  0  0  0  0  0  0
    1.7042    0.8375    0.0000 N   0  0  0  0  0  0  0  0  0  0  0  0
    8.9792   -0.2500    0.0000 N   0  0  0  0  0  0  0  0  0  0  0  0
    1.5167   -1.2542    0.0000 C   0  0  0  0  0  0  0  0  0  0  0  0
   13.5292   -4.1917    0.0000 N   0  0  0  0  0  0  0  0  0  0  0  0
    1.3042    0.6500    0.0000 C   0  0  0  0  0  0  0  0  0  0  0  0
    1.9292   -5.5875    0.0000 N   0  0  0  0  0  0  0  0  0  0  0  0
    2.4875    1.2083    0.0000 N   0  0  0  0  0  0  0  0  0  0  0  0
    7.5125    1.0875    0.0000 N   0  0  0  0  0  0  0  0  0  0  0  0
    8.2292    0.2208    0.0000 N   0  0  0  0  0  0  0  0  0  0  0  0
    7.2750   -7.1792    0.0000 N   0  0  0  0  0  0  0  0  0  0  0  0
    3.6625    1.3208    0.0000 N   0  0  0  0  0  0  0  0  0  0  0  0
    2.6792   -6.0375    0.0000 N   0  0  0  0  0  0  0  0  0  0  0  0
    8.4375   -7.0625    0.0000 N   0  0  0  0  0  0  0  0  0  0  0  0
    4.1292   -7.3792    0.0000 N   0  0  0  0  0  0  0  0  0  0  0  0
   -1.1708   -0.8417    0.0000 C   0  0  0  0  0  0  0  0  0  0  0  0
    6.4625   -7.5417    0.0000 N   0  0  0  0  0  0  0  0  0  0  0  0
    5.6292    1.8333    0.0000 N   0  0  0  0  0  0  0  0  0  0  0  0
    2.1042    1.4333    0.0000 C   0  0  0  0  0  0  0  0  0  0  0  0
    1.5625   -5.3542    0.0000 C   0  0  0  0  0  0  0  0  0  0  0  0
    3.0292   -6.6875    0.0000 C   0  0  0  0  0  0  0  0  0  0  0  0
    9.2042   -7.0917    0.0000 C   0  0  0  0  0  0  0  0  0  0  0  0
   -4.0958    1.8250    0.0000 C   0  0  0  0  0  0  0  0  0  0  0  0
    6.7750    1.5583    0.0000 N   0  0  0  0  0  0  0  0  0  0  0  0
    4.4542    1.6958    0.0000 N   0  0  0  0  0  0  0  0  0  0  0  0
    5.2917   -7.6417    0.0000 N   0  0  0  0  0  0  0  0  0  0  0  0
   -0.8375   -1.4917    0.0000 C   0  0  0  0  0  0  0  0  0  0  0  0
    1.2750    0.2375    0.0000 C   0  0  0  0  0  0  0  0  0  0  0  0
    7.8625    0.4500    0.0000 C   0  0  0  0  0  0  0  0  0  0  0  0
    8.5792   -0.4292    0.0000 C   0  0  0  0  0  0  0  0  0  0  0  0
    2.2917   -6.2250    0.0000 C   0  0  0  0  0  0  0  0  0  0  0  0
    8.0417   -7.2292    0.0000 C   0  0  0  0  0  0  0  0  0  0  0  0
    7.2417   -7.6000    0.0000 C   0  0  0  0  0  0  0  0  0  0  0  0
    3.2667    1.1458    0.0000 C   0  0  0  0  0  0  0  0  0  0  0  0
    4.4375    1.2750    0.0000 C   0  0  0  0  0  0  0  0  0  0  0  0
    6.4042    1.7833    0.0000 C   0  0  0  0  0  0  0  0  0  0  0  0
   14.8000   -3.1250    0.0000 C   0  0  0  0  0  0  0  0  0  0  0  0
    7.5417   -3.2917    0.0000 C   0  0  0  0  0  0  0  0  0  0  0  0
   -3.3750    0.9500    0.0000 C   0  0  0  0  0  0  0  0  0  0  0  0
   -3.7208    1.6000    0.0000 N   0  0  0  0  0  0  0  0  0  0  0  0
    7.5417    1.5083    0.0000 C   0  0  0  0  0  0  0  0  0  0  0  0
    5.2375    1.6500    0.0000 C   0  0  0  0  0  0  0  0  0  0  0  0
    9.3417   -0.4792    0.0000 C   0  0  0  0  0  0  0  0  0  0  0  0
    4.9042   -7.4250    0.0000 C   0  0  0  0  0  0  0  0  0  0  0  0
    6.0667   -7.7125    0.0000 C   0  0  0  0  0  0  0  0  0  0  0  0
    1.4792   -1.6625    0.0000 C   0  0  0  0  0  0  0  0  0  0  0  0
    1.7250    1.2458    0.0000 C   0  0  0  0  0  0  0  0  0  0  0  0
    8.4792   -3.5292    0.0000 N   0  0  0  0  0  0  0  0  0  0  0  0
   10.7792   -6.7750    0.0000 C   0  0  0  0  0  0  0  0  0  0  0  0
   -1.1458   -0.4292    0.0000 C   0  0  0  0  0  0  0  0  0  0  0  0
    9.3042   -0.9042    0.0000 C   0  0  0  0  0  0  0  0  0  0  0  0
    1.5917   -4.9417    0.0000 C   0  0  0  0  0  0  0  0  0  0  0  0
    9.6292   -6.4917    0.0000 C   0  0  0  0  0  0  0  0  0  0  0  0
    3.4250   -7.3375    0.0000 C   0  0  0  0  0  0  0  0  0  0  0  0
    1.9625   -0.6625    0.0000 C   0  0  0  0  0  0  0  0  0  0  0  0
    1.2167   -4.7125    0.0000 N   0  0  0  0  0  0  0  0  0  0  0  0
    7.8917    0.8583    0.0000 C   0  0  0  0  0  0  0  0  0  0  0  0
   13.9250   -4.4250    0.0000 C   0  0  0  0  0  0  0  0  0  0  0  0
    2.0917   -3.1042    0.0000 C   0  0  0  0  0  0  0  0  0  0  0  0
   14.3750   -2.9792    0.0000 C   0  0  0  0  0  0  0  0  0  0  0  0
    2.0667   -3.5167    0.0000 C   0  0  0  0  0  0  0  0  0  0  0  0
    1.9042   -6.0042    0.0000 C   0  0  0  0  0  0  0  0  0  0  0  0
    8.8875   -3.3375    0.0000 C   0  0  0  0  0  0  0  0  0  0  0  0
    2.8792   -3.1417    0.0000 C   0  0  0  0  0  0  0  0  0  0  0  0
    6.4042   -3.0375    0.0000 C   0  0  0  0  0  0  0  0  0  0  0  0
    4.0542   -2.9750    0.0000 C   0  0  0  0  0  0  0  0  0  0  0  0
   13.5125   -5.4542    0.0000 C   0  0  0  0  0  0  0  0  0  0  0  0
   13.4917   -6.2875    0.0000 C   0  0  0  0  0  0  0  0  0  0  0  0
   -1.5250   -0.2042    0.0000 N   0  0  0  0  0  0  0  0  0  0  0  0
    2.5042   -2.9167    0.0000 N   0  0  0  0  0  0  0  0  0  0  0  0
    3.0625   -6.2750    0.0000 C   0  0  0  0  0  0  0  0  0  0  0  0
    8.8167   -7.2792    0.0000 C   0  0  0  0  0  0  0  0  0  0  0  0
    4.0417    1.0958    0.0000 C   0  0  0  0  0  0  0  0  0  0  0  0
    8.2042   -0.1917    0.0000 C   0  0  0  0  0  0  0  0  0  0  0  0
    7.6667   -7.0042    0.0000 C   0  0  0  0  0  0  0  0  0  0  0  0
   -1.9208   -0.3792    0.0000 C   0  0  0  0  0  0  0  0  0  0  0  0
    6.8375   -7.7792    0.0000 C   0  0  0  0  0  0  0  0  0  0  0  0
    2.8917    1.3833    0.0000 C   0  0  0  0  0  0  0  0  0  0  0  0
    6.0000    1.6083    0.0000 C   0  0  0  0  0  0  0  0  0  0  0  0
    5.2167   -3.2125    0.0000 C   0  0  0  0  0  0  0  0  0  0  0  0
   -2.6250    0.4833    0.0000 C   0  0  0  0  0  0  0  0  0  0  0  0
   11.4375   -8.4667    0.0000 C   0  0  0  0  0  0  0  0  0  0  0  0
    7.1667   -3.0667    0.0000 N   0  0  0  0  0  0  0  0  0  0  0  0
    9.6667   -1.1417    0.0000 N   0  0  0  0  0  0  0  0  0  0  0  0
    4.8292   -2.9875    0.0000 N   0  0  0  0  0  0  0  0  0  0  0  0
   -2.9708    1.1333    0.0000 N   0  0  0  0  0  0  0  0  0  0  0  0
   13.5167   -5.0375    0.0000 N   0  0  0  0  0  0  0  0  0  0  0  0
   -3.7458    1.1875    0.0000 C   0  0  0  0  0  0  0  0  0  0  0  0
   13.1042   -6.0542    0.0000 N   0  0  0  0  0  0  0  0  0  0  0  0
    3.6542   -3.1625    0.0000 N   0  0  0  0  0  0  0  0  0  0  0  0
    7.9417   -3.1167    0.0000 C   0  0  0  0  0  0  0  0  0  0  0  0
   15.1292   -2.8750    0.0000 N   0  0  0  0  0  0  0  0  0  0  0  0
    6.7875   -3.2667    0.0000 C   0  0  0  0  0  0  0  0  0  0  0  0
    1.6750   -3.7000    0.0000 N   0  0  0  0  0  0  0  0  0  0  0  0
   10.7500   -7.1917    0.0000 C   0  0  0  0  0  0  0  0  0  0  0  0
    6.0000   -3.2375    0.0000 N   0  0  0  0  0  0  0  0  0  0  0  0
   -2.2500    0.2583    0.0000 N   0  0  0  0  0  0  0  0  0  0  0  0
   11.8167   -8.6917    0.0000 N   0  0  0  0  0  0  0  0  0  0  0  0
    9.6625   -1.5417    0.0000 C   0  0  0  0  0  0  0  0  0  0  0  0
    8.2792    1.0458    0.0000 C   0  0  0  0  0  0  0  0  0  0  0  0
    4.4417   -3.1917    0.0000 C   0  0  0  0  0  0  0  0  0  0  0  0
    4.5167   -7.6042    0.0000 C   0  0  0  0  0  0  0  0  0  0  0  0
    6.7750   -3.6667    0.0000 C   0  0  0  0  0  0  0  0  0  0  0  0
    7.1792    1.7333    0.0000 C   0  0  0  0  0  0  0  0  0  0  0  0
    4.8542    1.8833    0.0000 C   0  0  0  0  0  0  0  0  0  0  0  0
   10.0417   -1.7542    0.0000 C   0  0  0  0  0  0  0  0  0  0  0  0
   -4.0625    2.2458    0.0000 C   0  0  0  0  0  0  0  0  0  0  0  0
    1.1250   -6.8375    0.0000 N   0  0  0  0  0  0  0  0  0  0  0  0
    3.9750   -4.2167    0.0000 N   0  0  0  0  0  0  0  0  0  0  0  0
   13.9167   -4.8292    0.0000 C   0  0  0  0  0  0  0  0  0  0  0  0
   13.1167   -5.6417    0.0000 C   0  0  0  0  0  0  0  0  0  0  0  0
    3.2667   -2.9417    0.0000 C   0  0  0  0  0  0  0  0  0  0  0  0
   12.2375   -8.0875    0.0000 C   0  0  0  0  0  0  0  0  0  0  0  0
   13.4667   -6.7042    0.0000 C   0  0  0  0  0  0  0  0  0  0  0  0
   13.2792  -10.0292    0.0000 C   0  0  0  0  0  0  0  0  0  0  0  0
    5.6917   -7.4792    0.0000 C   0  0  0  0  0  0  0  0  0  0  0  0
    1.2417   -4.2917    0.0000 C   0  0  0  0  0  0  0  0  0  0  0  0
    9.2750   -1.7542    0.0000 C   0  0  0  0  0  0  0  0  0  0  0  0
   -4.4458    2.4750    0.0000 N   0  0  0  0  0  0  0  0  0  0  0  0
    1.4917   -6.6125    0.0000 C   0  0  0  0  0  0  0  0  0  0  0  0
    4.0292   -3.8000    0.0000 C   0  0  0  0  0  0  0  0  0  0  0  0
   13.0792   -6.9000    0.0000 N   0  0  0  0  0  0  0  0  0  0  0  0
   15.4042   -2.2042    0.0000 C   0  0  0  0  0  0  0  0  0  0  0  0
    1.5167   -6.1917    0.0000 C   0  0  0  0  0  0  0  0  0  0  0  0
   10.6667   -8.4292    0.0000 N   0  0  0  0  0  0  0  0  0  0  0  0
   -2.5958    0.8958    0.0000 C   0  0  0  0  0  0  0  0  0  0  0  0
    5.6125   -3.0125    0.0000 C   0  0  0  0  0  0  0  0  0  0  0  0
   -2.2875   -0.1542    0.0000 C   0  0  0  0  0  0  0  0  0  0  0  0
    4.4167   -3.6000    0.0000 C   0  0  0  0  0  0  0  0  0  0  0  0
    8.6667    0.8208    0.0000 C   0  0  0  0  0  0  0  0  0  0  0  0
   10.0417   -2.1667    0.0000 C   0  0  0  0  0  0  0  0  0  0  0  0
    6.3750   -3.8667    0.0000 C   0  0  0  0  0  0  0  0  0  0  0  0
   11.0417   -8.6542    0.0000 C   0  0  0  0  0  0  0  0  0  0  0  0
   13.0542   -7.3125    0.0000 C   0  0  0  0  0  0  0  0  0  0  0  0
   10.6917   -8.0167    0.0000 C   0  0  0  0  0  0  0  0  0  0  0  0
   11.1250   -7.4250    0.0000 N   0  0  0  0  0  0  0  0  0  0  0  0
   12.6292   -7.9042    0.0000 N   0  0  0  0  0  0  0  0  0  0  0  0
    3.3167   -3.9167    0.0000 N   0  0  0  0  0  0  0  0  0  0  0  0
    1.6917   -7.2500    0.0000 N   0  0  0  0  0  0  0  0  0  0  0  0
    3.5375   -4.2792    0.0000 C   0  0  0  0  0  0  0  0  0  0  0  0
    1.2375   -7.2417    0.0000 C   0  0  0  0  0  0  0  0  0  0  0  0
    0.8167   -0.3417    0.0000 S   0  0  0  0  0  0  0  0  0  0  0  0
   -1.2708   -2.0792    0.0000 S   0  0  0  0  0  0  0  0  0  0  0  0
   10.4292   -0.8250    0.0000 S   0  0  0  0  0  0  0  0  0  0  0  0
   -0.3708   -0.4875    0.0000 S   0  0  0  0  0  0  0  0  0  0  0  0
    1.3167   -3.0625    0.0000 S   0  0  0  0  0  0  0  0  0  0  0  0
   11.1917   -6.0750    0.0000 S   0  0  0  0  0  0  0  0  0  0  0  0
   -4.8458    2.2875    0.0000 C   0  0  0  0  0  0  0  0  0  0  0  0
   12.2042   -8.5000    0.0000 C   0  0  0  0  0  0  0  0  0  0  0  0
   15.0542   -2.4542    0.0000 C   0  0  0  0  0  0  0  0  0  0  0  0
    9.2667   -3.5625    0.0000 C   0  0  0  0  0  0  0  0  0  0  0  0
   14.3417   -3.8542    0.0000 O   0  0  0  0  0  0  0  0  0  0  0  0
   -3.1250   -0.9250    0.0000 C   0  0  0  0  0  0  0  0  0  0  0  0
    5.3125    2.8958    0.0000 C   0  0  0  0  0  0  0  0  0  0  0  0
    6.0292   -1.9542    0.0000 C   0  0  0  0  0  0  0  0  0  0  0  0
   13.6792   -9.8542    0.0000 N   0  0  0  0  0  0  0  0  0  0  0  0
   10.6042   -9.6625    0.0000 C   0  0  0  0  0  0  0  0  0  0  0  0
    4.8417   -8.6667    0.0000 C   0  0  0  0  0  0  0  0  0  0  0  0
    7.6250    2.7458    0.0000 C   0  0  0  0  0  0  0  0  0  0  0  0
   -1.7708    1.6958    0.0000 C   0  0  0  0  0  0  0  0  0  0  0  0
    0.7375   -1.2000    0.0000 O   0  0  0  0  0  0  0  0  0  0  0  0
    1.1917   -0.5875    0.0000 O   0  0  0  0  0  0  0  0  0  0  0  0
    9.9792   -7.1417    0.0000 O   0  0  0  0  0  0  0  0  0  0  0  0
    3.7167   -7.9667    0.0000 O   0  0  0  0  0  0  0  0  0  0  0  0
   13.0375   -2.1167    0.0000 C   0  0  0  0  0  0  0  0  0  0  0  0
   -4.4958    1.6458    0.0000 O   0  0  0  0  0  0  0  0  0  0  0  0
   14.8542   -3.5417    0.0000 O   0  0  0  0  0  0  0  0  0  0  0  0
   -3.4083    0.5458    0.0000 O   0  0  0  0  0  0  0  0  0  0  0  0
    7.5042   -3.7042    0.0000 O   0  0  0  0  0  0  0  0  0  0  0  0
   -0.5083   -2.1417    0.0000 O   0  0  0  0  0  0  0  0  0  0  0  0
    1.1500   -1.0167    0.0000 O   0  0  0  0  0  0  0  0  0  0  0  0
    0.9167    0.8875    0.0000 O   0  0  0  0  0  0  0  0  0  0  0  0
    1.1625   -5.5375    0.0000 O   0  0  0  0  0  0  0  0  0  0  0  0
    2.1292    1.8458    0.0000 O   0  0  0  0  0  0  0  0  0  0  0  0
   -1.5833   -1.0292    0.0000 O   0  0  0  0  0  0  0  0  0  0  0  0
    2.6250   -6.8625    0.0000 O   0  0  0  0  0  0  0  0  0  0  0  0
    9.5875   -7.3125    0.0000 O   0  0  0  0  0  0  0  0  0  0  0  0
    7.4625    0.2708    0.0000 O   0  0  0  0  0  0  0  0  0  0  0  0
    8.5417   -0.8417    0.0000 O   0  0  0  0  0  0  0  0  0  0  0  0
    3.2250    0.7333    0.0000 O   0  0  0  0  0  0  0  0  0  0  0  0
    7.6125   -7.8250    0.0000 O   0  0  0  0  0  0  0  0  0  0  0  0
    2.2667   -6.6417    0.0000 O   0  0  0  0  0  0  0  0  0  0  0  0
    8.0125   -7.6500    0.0000 O   0  0  0  0  0  0  0  0  0  0  0  0
    6.4375    2.1958    0.0000 O   0  0  0  0  0  0  0  0  0  0  0  0
    4.8167    1.0500    0.0000 O   0  0  0  0  0  0  0  0  0  0  0  0
    5.2125    1.2333    0.0000 O   0  0  0  0  0  0  0  0  0  0  0  0
    4.9417   -7.0042    0.0000 O   0  0  0  0  0  0  0  0  0  0  0  0
    7.9542    1.6833    0.0000 O   0  0  0  0  0  0  0  0  0  0  0  0
    6.0250   -8.1250    0.0000 O   0  0  0  0  0  0  0  0  0  0  0  0
    3.6167   -3.6167    0.0000 C   0  0  0  0  0  0  0  0  0  0  0  0
    1.8417   -6.8750    0.0000 C   0  0  0  0  0  0  0  0  0  0  0  0
    4.0167    0.6833    0.0000 C   0  0  0  0  0  0  0  0  0  0  0  0
    7.6917   -6.5792    0.0000 C   0  0  0  0  0  0  0  0  0  0  0  0
    7.7875   -0.3500    0.0000 C   0  0  0  0  0  0  0  0  0  0  0  0
    8.9000   -1.0667    0.0000 O   0  0  0  0  0  0  0  0  0  0  0  0
   14.3167   -4.2167    0.0000 O   0  0  0  0  0  0  0  0  0  0  0  0
    8.9042   -2.9250    0.0000 O   0  0  0  0  0  0  0  0  0  0  0  0
   13.8917   -5.6667    0.0000 O   0  0  0  0  0  0  0  0  0  0  0  0
   13.8875   -6.0917    0.0000 O   0  0  0  0  0  0  0  0  0  0  0  0
    2.8667   -3.5625    0.0000 O   0  0  0  0  0  0  0  0  0  0  0  0
    6.4000   -2.6167    0.0000 O   0  0  0  0  0  0  0  0  0  0  0  0
    4.0625   -2.5542    0.0000 O   0  0  0  0  0  0  0  0  0  0  0  0
    5.2042   -3.6292    0.0000 O   0  0  0  0  0  0  0  0  0  0  0  0
   11.4542   -8.0542    0.0000 O   0  0  0  0  0  0  0  0  0  0  0  0
   -3.0375    0.3083    0.0000 O   0  0  0  0  0  0  0  0  0  0  0  0
   -1.9458   -0.7917    0.0000 O   0  0  0  0  0  0  0  0  0  0  0  0
    2.4417   -3.7500    0.0000 O   0  0  0  0  0  0  0  0  0  0  0  0
   -1.2458   -1.6625    0.0000 C   0  0  0  0  0  0  0  0  0  0  0  0
    0.8625    0.0750    0.0000 C   0  0  0  0  0  0  0  0  0  0  0  0
   14.3000   -5.0542    0.0000 C   0  0  0  0  0  0  0  0  0  0  0  0
   12.7292   -5.4250    0.0000 C   0  0  0  0  0  0  0  0  0  0  0  0
    9.7500   -0.3042    0.0000 C   0  0  0  0  0  0  0  0  0  0  0  0
   13.8542   -6.9292    0.0000 C   0  0  0  0  0  0  0  0  0  0  0  0
   11.2292   -6.5417    0.0000 C   0  0  0  0  0  0  0  0  0  0  0  0
   -0.7458   -0.2542    0.0000 C   0  0  0  0  0  0  0  0  0  0  0  0
    1.7167   -2.8667    0.0000 C   0  0  0  0  0  0  0  0  0  0  0  0
    2.9292    1.8000    0.0000 C   0  0  0  0  0  0  0  0  0  0  0  0
    3.4542   -6.0875    0.0000 C   0  0  0  0  0  0  0  0  0  0  0  0
    5.9667    1.1875    0.0000 C   0  0  0  0  0  0  0  0  0  0  0  0
    6.8000   -8.1875    0.0000 C   0  0  0  0  0  0  0  0  0  0  0  0
    8.7917   -7.6917    0.0000 C   0  0  0  0  0  0  0  0  0  0  0  0
   13.1917   -3.5542    0.0000 C   0  0  0  0  0  0  0  0  0  0  0  0
   10.3542   -7.3667    0.0000 O   0  0  0  0  0  0  0  0  0  0  0  0
   11.8542   -7.8667    0.0000 O   0  0  0  0  0  0  0  0  0  0  0  0
    0.2750   -2.2042    0.0000 C   0  0  0  0  0  0  0  0  0  0  0  0
    8.9000   -1.5375    0.0000 O   0  0  0  0  0  0  0  0  0  0  0  0
    1.6417   -4.1167    0.0000 C   0  0  0  0  0  0  0  0  0  0  0  0
   15.8292   -2.3625    0.0000 O   0  0  0  0  0  0  0  0  0  0  0  0
    3.2792   -2.5292    0.0000 C   0  0  0  0  0  0  0  0  0  0  0  0
    0.8667   -4.0667    0.0000 O   0  0  0  0  0  0  0  0  0  0  0  0
    9.2542   -4.1625    0.0000 C   0  0  0  0  0  0  0  0  0  0  0  0
    9.0625    0.9958    0.0000 O   0  0  0  0  0  0  0  0  0  0  0  0
   10.4292   -2.3792    0.0000 O   0  0  0  0  0  0  0  0  0  0  0  0
    6.3667   -4.2792    0.0000 O   0  0  0  0  0  0  0  0  0  0  0  0
   10.3250   -7.7917    0.0000 O   0  0  0  0  0  0  0  0  0  0  0  0
   13.4167   -7.5417    0.0000 O   0  0  0  0  0  0  0  0  0  0  0  0
   -4.8708    1.8750    0.0000 O   0  0  0  0  0  0  0  0  0  0  0  0
   -3.5000   -0.6917    0.0000 O   0  0  0  0  0  0  0  0  0  0  0  0
    4.9292    3.1208    0.0000 O   0  0  0  0  0  0  0  0  0  0  0  0
    5.6417   -1.7292    0.0000 O   0  0  0  0  0  0  0  0  0  0  0  0
    4.4417   -8.8417    0.0000 O   0  0  0  0  0  0  0  0  0  0  0  0
   -1.7458    2.0958    0.0000 O   0  0  0  0  0  0  0  0  0  0  0  0
   10.9792   -9.8917    0.0000 O   0  0  0  0  0  0  0  0  0  0  0  0
    7.2625    2.9708    0.0000 O   0  0  0  0  0  0  0  0  0  0  0  0
   13.1042   -2.5250    0.0000 O   0  0  0  0  0  0  0  0  0  0  0  0
    4.4875   -8.0167    0.0000 C   0  0  0  0  0  0  0  0  0  0  0  0
    4.8792    2.2958    0.0000 C   0  0  0  0  0  0  0  0  0  0  0  0
    7.2042    2.1458    0.0000 C   0  0  0  0  0  0  0  0  0  0  0  0
   -2.6958   -0.3292    0.0000 C   0  0  0  0  0  0  0  0  0  0  0  0
    5.6375   -2.6000    0.0000 C   0  0  0  0  0  0  0  0  0  0  0  0
   -2.2000    1.0875    0.0000 C   0  0  0  0  0  0  0  0  0  0  0  0
   11.0167   -9.0750    0.0000 C   0  0  0  0  0  0  0  0  0  0  0  0
   12.9000   -9.7875    0.0000 N   0  0  0  0  0  0  0  0  0  0  0  0
   12.6542   -7.4917    0.0000 C   0  0  0  0  0  0  0  0  0  0  0  0
   11.1000   -7.8417    0.0000 C   0  0  0  0  0  0  0  0  0  0  0  0
   13.2375  -10.4375    0.0000 N   0  0  0  0  0  0  0  0  0  0  0  0
   13.6417   -2.9292    0.0000 C   0  0  0  0  0  0  0  0  0  0  0  0
    9.6542   -6.0792    0.0000 C   0  0  0  0  0  0  0  0  0  0  0  0
    3.0167   -7.5167    0.0000 C   0  0  0  0  0  0  0  0  0  0  0  0
    2.3625   -0.4875    0.0000 C   0  0  0  0  0  0  0  0  0  0  0  0
   13.3792   -1.8542    0.0000 N   0  0  0  0  0  0  0  0  0  0  0  0
    7.9792   -2.6792    0.0000 C   0  0  0  0  0  0  0  0  0  0  0  0
   -4.1583    1.0083    0.0000 C   0  0  0  0  0  0  0  0  0  0  0  0
    8.6417    0.4083    0.0000 N   0  0  0  0  0  0  0  0  0  0  0  0
    9.6542   -2.3792    0.0000 N   0  0  0  0  0  0  0  0  0  0  0  0
    5.9917   -3.6417    0.0000 N   0  0  0  0  0  0  0  0  0  0  0  0
    5.2792    2.4750    0.0000 C   0  0  0  0  0  0  0  0  0  0  0  0
    7.6000    2.3333    0.0000 C   0  0  0  0  0  0  0  0  0  0  0  0
    4.8667   -8.2417    0.0000 C   0  0  0  0  0  0  0  0  0  0  0  0
    6.0042   -2.3750    0.0000 C   0  0  0  0  0  0  0  0  0  0  0  0
   -2.7250   -0.7417    0.0000 C   0  0  0  0  0  0  0  0  0  0  0  0
   -3.6708    2.4333    0.0000 C   0  0  0  0  0  0  0  0  0  0  0  0
   -2.1708    1.5000    0.0000 C   0  0  0  0  0  0  0  0  0  0  0  0
   10.6167   -9.2542    0.0000 C   0  0  0  0  0  0  0  0  0  0  0  0
    7.3250   -6.3417    0.0000 C   0  0  0  0  0  0  0  0  0  0  0  0
    4.3917    0.4500    0.0000 C   0  0  0  0  0  0  0  0  0  0  0  0
    7.7542   -0.7500    0.0000 C   0  0  0  0  0  0  0  0  0  0  0  0
    5.7042    3.0708    0.0000 N   0  0  0  0  0  0  0  0  0  0  0  0
    6.4042   -1.7250    0.0000 N   0  0  0  0  0  0  0  0  0  0  0  0
   -3.1583   -1.3292    0.0000 N   0  0  0  0  0  0  0  0  0  0  0  0
   14.6917   -4.8542    0.0000 C   0  0  0  0  0  0  0  0  0  0  0  0
    9.6542   -3.3792    0.0000 N   0  0  0  0  0  0  0  0  0  0  0  0
    9.2667   -2.2042    0.0000 O   0  0  0  0  0  0  0  0  0  0  0  0
   15.3417   -1.7917    0.0000 O   0  0  0  0  0  0  0  0  0  0  0  0
   15.4792   -4.4417    0.0000 C   0  0  0  0  0  0  0  0  0  0  0  0
    5.1417   -0.0042    0.0000 C   0  0  0  0  0  0  0  0  0  0  0  0
    7.7000   -1.5750    0.0000 C   0  0  0  0  0  0  0  0  0  0  0  0
    6.5875   -5.8792    0.0000 C   0  0  0  0  0  0  0  0  0  0  0  0
    5.2167   -8.8875    0.0000 O   0  0  0  0  0  0  0  0  0  0  0  0
    8.0375    2.9250    0.0000 O   0  0  0  0  0  0  0  0  0  0  0  0
   10.2042   -9.8667    0.0000 O   0  0  0  0  0  0  0  0  0  0  0  0
   -1.3958    1.4583    0.0000 O   0  0  0  0  0  0  0  0  0  0  0  0
    1.3417    1.4708    0.0000 C   0  0  0  0  0  0  0  0  0  0  0  0
    1.8542   -1.9042    0.0000 C   0  0  0  0  0  0  0  0  0  0  0  0
    1.9917   -4.7667    0.0000 C   0  0  0  0  0  0  0  0  0  0  0  0
   12.3292   -5.6167    0.0000 C   0  0  0  0  0  0  0  0  0  0  0  0
   14.2417   -6.7292    0.0000 C   0  0  0  0  0  0  0  0  0  0  0  0
    9.6417   -4.3500    0.0000 C   0  0  0  0  0  0  0  0  0  0  0  0
   -5.6125    2.3375    0.0000 N   0  0  0  0  0  0  0  0  0  0  0  0
    7.3625   -5.9292    0.0000 C   0  0  0  0  0  0  0  0  0  0  0  0
    4.3750    0.0375    0.0000 C   0  0  0  0  0  0  0  0  0  0  0  0
    4.7875    0.6375    0.0000 C   0  0  0  0  0  0  0  0  0  0  0  0
    6.9167   -6.5167    0.0000 C   0  0  0  0  0  0  0  0  0  0  0  0
   14.7000   -4.4417    0.0000 C   0  0  0  0  0  0  0  0  0  0  0  0
   15.0792   -5.0667    0.0000 C   0  0  0  0  0  0  0  0  0  0  0  0
    7.3625   -0.9292    0.0000 C   0  0  0  0  0  0  0  0  0  0  0  0
    8.1292   -0.9792    0.0000 C   0  0  0  0  0  0  0  0  0  0  0  0
   15.4667   -4.8667    0.0000 C   0  0  0  0  0  0  0  0  0  0  0  0
   15.1000   -4.2417    0.0000 C   0  0  0  0  0  0  0  0  0  0  0  0
    6.9917   -5.6917    0.0000 C   0  0  0  0  0  0  0  0  0  0  0  0
    6.5542   -6.2875    0.0000 C   0  0  0  0  0  0  0  0  0  0  0  0
    7.3250   -1.3375    0.0000 C   0  0  0  0  0  0  0  0  0  0  0  0
    4.7417   -0.1917    0.0000 C   0  0  0  0  0  0  0  0  0  0  0  0
    5.1667    0.4083    0.0000 C   0  0  0  0  0  0  0  0  0  0  0  0
    8.1000   -1.4000    0.0000 C   0  0  0  0  0  0  0  0  0  0  0  0
   13.2250   -3.1500    0.0000 O   0  0  0  0  0  0  0  0  0  0  0  0
    0.6375   -2.4417    0.0000 O   0  0  0  0  0  0  0  0  0  0  0  0
   14.2667   -2.5667    0.0000 C   0  0  0  0  0  0  0  0  0  0  0  0
    6.2125   -5.6375    0.0000 O   0  0  0  0  0  0  0  0  0  0  0  0
    5.5167   -0.2292    0.0000 O   0  0  0  0  0  0  0  0  0  0  0  0
   15.8667   -4.2542    0.0000 O   0  0  0  0  0  0  0  0  0  0  0  0
    7.6625   -1.9875    0.0000 O   0  0  0  0  0  0  0  0  0  0  0  0
   -5.2208    2.5208    0.0000 C   0  0  0  0  0  0  0  0  0  0  0  0
    2.2542   -1.7292    0.0000 O   0  0  0  0  0  0  0  0  0  0  0  0
    1.3542    1.8833    0.0000 O   0  0  0  0  0  0  0  0  0  0  0  0
    2.3750   -5.0042    0.0000 O   0  0  0  0  0  0  0  0  0  0  0  0
   13.8125   -2.5417    0.0000 C   0  0  0  0  0  0  0  0  0  0  0  0
    9.1667   -7.9125    0.0000 C   0  0  0  0  0  0  0  0  0  0  0  0
    7.1750   -8.4167    0.0000 C   0  0  0  0  0  0  0  0  0  0  0  0
    3.3375    1.9708    0.0000 C   0  0  0  0  0  0  0  0  0  0  0  0
    6.3417    0.9583    0.0000 C   0  0  0  0  0  0  0  0  0  0  0  0
    3.4792   -5.6792    0.0000 C   0  0  0  0  0  0  0  0  0  0  0  0
    2.8917   -2.3167    0.0000 C   0  0  0  0  0  0  0  0  0  0  0  0
    5.7375   -7.0625    0.0000 C   0  0  0  0  0  0  0  0  0  0  0  0
   12.6042   -1.9625    0.0000 C   0  0  0  0  0  0  0  0  0  0  0  0
   12.5917   -8.7292    0.0000 C   0  0  0  0  0  0  0  0  0  0  0  0
   14.6375   -2.3042    0.0000 C   0  0  0  0  0  0  0  0  0  0  0  0
   12.9417   -9.3750    0.0000 C   0  0  0  0  0  0  0  0  0  0  0  0
   13.8042   -2.0042    0.0000 C   0  0  0  0  0  0  0  0  0  0  0  0
    2.4167   -0.0667    0.0000 C   0  0  0  0  0  0  0  0  0  0  0  0
   12.7917   -3.7375    0.0000 C   0  0  0  0  0  0  0  0  0  0  0  0
   -3.6458    2.8458    0.0000 C   0  0  0  0  0  0  0  0  0  0  0  0
   -0.1458   -2.3750    0.0000 C   0  0  0  0  0  0  0  0  0  0  0  0
    2.5917   -7.2792    0.0000 C   0  0  0  0  0  0  0  0  0  0  0  0
   10.0625   -5.9000    0.0000 C   0  0  0  0  0  0  0  0  0  0  0  0
    9.2875   -5.8500    0.0000 C   0  0  0  0  0  0  0  0  0  0  0  0
    2.9292   -7.9250    0.0000 C   0  0  0  0  0  0  0  0  0  0  0  0
    2.7250   -0.7292    0.0000 C   0  0  0  0  0  0  0  0  0  0  0  0
    7.6167   -2.4667    0.0000 C   0  0  0  0  0  0  0  0  0  0  0  0
    8.3792   -2.4875    0.0000 C   0  0  0  0  0  0  0  0  0  0  0  0
   -4.5333    1.2333    0.0000 C   0  0  0  0  0  0  0  0  0  0  0  0
   -4.1833    0.5958    0.0000 C   0  0  0  0  0  0  0  0  0  0  0  0
   -3.2875    2.2083    0.0000 C   0  0  0  0  0  0  0  0  0  0  0  0
   14.2667   -6.3125    0.0000 C   0  0  0  0  0  0  0  0  0  0  0  0
   11.9542   -5.3917    0.0000 C   0  0  0  0  0  0  0  0  0  0  0  0
   12.3167   -6.0167    0.0000 C   0  0  0  0  0  0  0  0  0  0  0  0
   14.6292   -6.9542    0.0000 C   0  0  0  0  0  0  0  0  0  0  0  0
    9.6417   -4.7667    0.0000 C   0  0  0  0  0  0  0  0  0  0  0  0
   10.0292   -4.1417    0.0000 C   0  0  0  0  0  0  0  0  0  0  0  0
   12.5667   -9.1417    0.0000 C   0  0  0  0  0  0  0  0  0  0  0  0
   12.2625   -2.2292    0.0000 C   0  0  0  0  0  0  0  0  0  0  0  0
   14.5667   -1.9042    0.0000 C   0  0  0  0  0  0  0  0  0  0  0  0
   14.1500   -1.7417    0.0000 C   0  0  0  0  0  0  0  0  0  0  0  0
   12.3292   -0.3292    0.0000 C   0  0  0  0  0  0  0  0  0  0  0  0
    6.7417    1.1333    0.0000 C   0  0  0  0  0  0  0  0  0  0  0  0
    9.5667   -7.7250    0.0000 C   0  0  0  0  0  0  0  0  0  0  0  0
    9.1542   -8.3167    0.0000 C   0  0  0  0  0  0  0  0  0  0  0  0
    7.1417   -8.8292    0.0000 C   0  0  0  0  0  0  0  0  0  0  0  0
    7.5792   -8.2375    0.0000 C   0  0  0  0  0  0  0  0  0  0  0  0
    6.3125    0.5500    0.0000 C   0  0  0  0  0  0  0  0  0  0  0  0
    3.3667    2.3833    0.0000 C   0  0  0  0  0  0  0  0  0  0  0  0
    2.9125   -1.9000    0.0000 C   0  0  0  0  0  0  0  0  0  0  0  0
    2.5042   -2.5125    0.0000 C   0  0  0  0  0  0  0  0  0  0  0  0
    3.7000    1.7333    0.0000 C   0  0  0  0  0  0  0  0  0  0  0  0
    3.8875   -5.4917    0.0000 C   0  0  0  0  0  0  0  0  0  0  0  0
    3.1167   -5.4417    0.0000 C   0  0  0  0  0  0  0  0  0  0  0  0
   11.9167   -0.1792    0.0000 C   0  0  0  0  0  0  0  0  0  0  0  0
   11.0792   -2.1792    0.0000 C   0  0  0  0  0  0  0  0  0  0  0  0
   11.5542   -0.4417    0.0000 C   0  0  0  0  0  0  0  0  0  0  0  0
   11.8500   -2.0792    0.0000 C   0  0  0  0  0  0  0  0  0  0  0  0
   11.2875   -1.1042    0.0000 C   0  0  0  0  0  0  0  0  0  0  0  0
   11.0167   -1.7792    0.0000 C   0  0  0  0  0  0  0  0  0  0  0  0
   11.5000   -2.3292    0.0000 C   0  0  0  0  0  0  0  0  0  0  0  0
   11.6292   -0.8417    0.0000 C   0  0  0  0  0  0  0  0  0  0  0  0
   11.3625   -1.5167    0.0000 C   0  0  0  0  0  0  0  0  0  0  0  0
   -3.2458    3.0250    0.0000 C   0  0  0  0  0  0  0  0  0  0  0  0
    2.8167    0.0833    0.0000 C   0  0  0  0  0  0  0  0  0  0  0  0
   12.6792   -0.0667    0.0000 C   0  0  0  0  0  0  0  0  0  0  0  0
   15.0250   -6.7542    0.0000 C   0  0  0  0  0  0  0  0  0  0  0  0
   14.6625   -6.1167    0.0000 C   0  0  0  0  0  0  0  0  0  0  0  0
   11.9292   -6.2167    0.0000 C   0  0  0  0  0  0  0  0  0  0  0  0
   11.5542   -5.5875    0.0000 C   0  0  0  0  0  0  0  0  0  0  0  0
   10.0375   -4.9750    0.0000 C   0  0  0  0  0  0  0  0  0  0  0  0
   10.4292   -4.3542    0.0000 C   0  0  0  0  0  0  0  0  0  0  0  0
   11.5417   -6.0042    0.0000 C   0  0  0  0  0  0  0  0  0  0  0  0
   15.0417   -6.3417    0.0000 C   0  0  0  0  0  0  0  0  0  0  0  0
   10.4167   -4.7625    0.0000 C   0  0  0  0  0  0  0  0  0  0  0  0
    2.7740   -1.2468    0.0000 H   0  0  0  0  0  0  0  0  0  0  0  0
    2.1716    0.6803    0.0000 H   0  0  0  0  0  0  0  0  0  0  0  0
   -0.9266   -2.4877    0.0000 H   0  0  0  0  0  0  0  0  0  0  0  0
   -0.5884   -2.2426    0.0000 H   0  0  0  0  0  0  0  0  0  0  0  0
  2  1  1  0
  3 17  1  0
  4  1  1  0
 71  5  1  0
  6  9  1  0
  7 70  1  0
  8 69  1  0
  9 14  1  0
 10 12  1  0
 11 15  1  0
 12 44  1  0
 13 31  1  0
 14 62  1  0
 15 65  1  0
 16 32  1  0
 17 43  1  0
 18 63  1  0
 19 59  1  0
 20  5  1  0
  4 21  1  1
 22 18  1  0
 23 78  1  0
 24 94  1  0
 25 73  1  0
 26 90  1  0
 27 91  1  0
 28 89  1  0
 29 87  1  0
 30 88  1  0
 31118  1  0
 32 66  1  0
 33 93  1  0
 34 95  1  0
 35 24  1  0
 36 23  1  0
 37  7  1  0
 38  8  1  0
 39 56  1  0
 40120  1  0
 41121  1  0
 42132  1  0
 43 16  1  0
 44 22  1  0
 45 26  1  0
 46 19  1  0
 47 29  1  0
 48 30  1  0
 49 27  1  0
 50 28  1  0
 51 41  1  0
 52 40  1  0
 76 53  1  1
 54 99  1  0
 55102  1  0
104 56  1  6
 57 25  1  0
 58 34  1  0
 59228  1  0
 60 42  1  0
 61 33  1  0
 62 20  1  0
 63 35  1  0
107 64  1  6
 65111  1  1
 66231  1  0
 59 67  1  1
 68 36  1  0
 69 11  1  0
 70 13  1  0
 71 10  1  0
 72 68  1  0
 73 45  1  0
 74 21  1  0
 75 77  1  0
 76  2  1  0
 77110  1  0
 78 47  1  0
 79 64  1  0
 80 86  1  0
 81112  1  0
 82106  1  0
 83103  1  0
 84105  1  0
 66 85  1  1
 75 86  1  6
 87 37  1  0
 88 38  1  0
 89 51  1  0
 90 46  1  0
 91 48  1  0
 92 85  1  0
 93 49  1  0
 94 50  1  0
 95 52  1  0
 96101  1  0
 97113  1  0
 98114  1  0
109 99  1  1
100 67  1  0
117101  1  1
142102  1  1
126103  1  6
104 55  1  0
127105  1  1
128106  1  6
107 54  1  0
108 53  1  0
109 81  1  0
110243  1  0
111152  1  0
143112  1  6
144113  1  6
165114  1  6
115100  1  1
 73116  1  1
117 82  1  0
118 60  1  0
109119  1  0
120 57  1  0
121 58  1  0
115122  1  0
123 39  1  0
124136  1  0
125137  1  0
126 74  1  0
127 83  1  0
128 80  1  0
129153  1  0
130 84  1  0
131269  1  0
132 61  1  0
133 72  1  0
134115  1  0
123135  1  1
136140  1  0
137145  1  0
130138  1  6
139166  1  0
 78140  1  6
149141  1  6
142 97  1  0
143 96  1  0
144 92  1  0
117145  1  0
146116  1  0
147122  1  0
148119  1  0
149 98  1  0
150138  1  0
151141  1  0
152271  1  0
153270  1  0
154206  1  0
155207  1  0
156125  2  0
157124  2  0
158225  1  0
159162  1  0
160163  1  0
161158  1  0
162232  1  0
163230  1  0
164135  1  0
165129  1  0
166108  1  1
167 79  1  0
168  1  2  0
169287  1  0
170283  1  0
171286  1  0
172131  2  0
173290  1  0
174285  1  0
175284  1  0
176289  1  0
177  9  2  0
178 10  2  0
179 11  2  0
180 13  2  0
181277  1  0
182 39  2  0
183 53  2  0
184 55  2  0
185 54  2  0
186 17  2  0
187 20  2  0
188 22  2  0
189 36  2  0
190 35  2  0
191 32  2  0
192 37  2  0
193 38  2  0
194 45  2  0
195 46  2  0
196 50  2  0
197 49  2  0
198 47  2  0
199 48  2  0
200 52  2  0
201 51  2  0
202 58  2  0
203 60  2  0
204 57  2  0
205 61  2  0
206137  2  0
207136  2  0
 89208  1  6
 91209  1  1
 90210  1  6
211 67  2  0
212 74  2  0
213 79  2  0
214 83  2  0
215 84  2  0
216 80  2  0
217 81  2  0
218 82  2  0
219 96  2  0
220 98  2  0
221 97  2  0
222 92  2  0
223 77  2  0
224159  1  0
 44225  1  0
126226  1  0
127227  1  0
228160  1  0
130229  1  0
 65230  1  0
231161  1  0
 75232  1  0
 94233  1  1
 87234  1  1
 95235  1  6
 93236  1  6
 88237  1  6
238  4  1  0
239111  2  0
240129  2  0
241  6  1  0
242134  2  0
243133  1  0
244139  2  0
128245  1  0
246133  2  0
167247  1  0
248146  2  0
249147  2  0
250148  2  0
251151  2  0
252150  2  0
253164  2  0
254169  2  0
255170  2  0
256171  2  0
257174  2  0
258176  2  0
259173  2  0
260175  2  0
261181  2  0
118262  1  6
121263  1  1
120264  1  1
144265  1  0
143266  1  0
142267  1  0
149268  1  0
269354  1  0
270150  1  0
271151  1  0
272131  1  0
273  2  1  0
 69274  1  1
 70275  1  6
276 71  1  0
277355  1  0
107278  1  0
104279  1  0
280146  1  0
281147  1  0
282148  1  0
283263  1  0
284264  1  0
285262  1  0
286266  1  0
287265  1  0
288123  1  0
289267  1  0
290268  1  0
291209  1  0
292208  1  0
293210  1  0
294170  1  0
295171  1  0
296169  1  0
297226  1  0
167298  1  1
299134  1  0
300139  1  0
301324  1  0
302330  2  0
303331  2  0
304327  2  0
305174  1  0
306175  1  0
307173  1  0
308176  1  0
 63309  1  1
 62310  1  6
 68311  1  1
312227  1  0
313229  1  0
314247  1  0
315339  1  0
316291  1  0
317292  1  0
318292  2  0
319291  2  0
320297  2  0
321297  1  0
322293  1  0
323293  2  0
324321  2  0
325320  1  0
326316  2  0
327319  1  0
328322  2  0
329317  2  0
330318  1  0
331323  1  0
238332  1  1
241333  1  6
 76334  1  0
335304  1  0
336302  1  0
337301  1  0
338303  1  0
339164  1  0
340310  1  0
341309  1  0
342311  1  0
343273  1  0
344237  1  0
345236  1  0
346233  1  0
347235  1  0
348234  1  0
349245  1  0
132350  1  1
351181  1  0
165352  1  0
166353  1  0
354376  1  0
355379  1  0
356276  1  0
357238  1  0
358288  1  0
359241  1  0
360275  1  0
361274  1  0
362274  1  0
363275  1  0
276364  1  6
365278  1  0
366278  1  0
367279  1  0
368279  1  0
288369  1  6
370313  2  0
371312  1  0
372312  2  0
373313  1  0
374314  1  0
375314  2  0
376352  1  0
377351  1  0
378353  1  0
379378  1  0
380393  1  0
381347  1  0
382344  1  0
383344  1  0
384345  1  0
385345  1  0
386347  1  0
387346  1  0
388349  1  0
389349  1  0
390346  1  0
391348  1  0
392348  1  0
393395  1  0
394399  1  0
395400  1  0
396377  1  0
397401  1  0
398394  1  0
399396  1  0
400397  1  0
401398  1  0
402358  1  0
403356  1  0
404380  1  0
405373  2  0
406370  1  0
407372  1  0
408371  2  0
409374  2  0
410375  1  0
411407  2  0
412405  1  0
413410  2  0
334343  1  0
325301  2  0
408411  1  0
406412  2  0
328303  1  0
326304  1  0
329302  1  0
155157  1  0
 43224  1  0
  6  3  1  0
154156  1  0
409413  1  0
 71414  1  1
 44415  1  6
 43416  1  1
  6417  1  1
M  END
> <chembl_id>
CHEMBL2104391

> <chembl_pref_name>
INSULIN DETEMIR
