
     RDKit          2D

 27 29  0  0  0  0  0  0  0  0999 V2000
    3.6500   -3.6542    0.0000 S   0  0  0  0  0  0  0  0  0  0  0  0
    3.0250   -4.0042    0.0000 C   0  0  0  0  0  0  0  0  0  0  0  0
    4.2750   -4.0167    0.0000 N   0  0  0  0  0  0  0  0  0  0  0  0
    1.1292   -3.6792    0.0000 S   0  0  0  0  0  0  0  0  0  0  0  0
    1.7542   -4.7167    0.0000 C   0  0  0  0  0  0  0  0  0  0  0  0
    1.7542   -4.0167    0.0000 C   0  0  0  0  0  0  0  0  0  0  0  0
    3.0250   -4.7292    0.0000 C   0  0  0  0  0  0  0  0  0  0  0  0
    1.1292   -5.0542    0.0000 C   0  0  0  0  0  0  0  0  0  0  0  0
    2.4000   -3.6542    0.0000 C   0  0  0  0  0  0  0  0  0  0  0  0
    3.6500   -5.0792    0.0000 N   0  0  0  0  0  0  0  0  0  0  0  0
    4.2750   -4.7167    0.0000 C   0  0  0  0  0  0  0  0  0  0  0  0
    2.4000   -5.0792    0.0000 C   0  0  0  0  0  0  0  0  0  0  0  0
    3.1667   -3.1042    0.0000 O   0  0  0  0  0  0  0  0  0  0  0  0
    4.1792   -3.1542    0.0000 O   0  0  0  0  0  0  0  0  0  0  0  0
    1.4792   -3.0667    0.0000 O   0  0  0  0  0  0  0  0  0  0  0  0
    0.7750   -3.0667    0.0000 O   0  0  0  0  0  0  0  0  0  0  0  0
    0.5292   -4.0542    0.0000 N   0  0  0  0  0  0  0  0  0  0  0  0
    0.5292   -4.8042    0.0000 F   0  0  0  0  0  0  0  0  0  0  0  0
    1.4792   -5.6667    0.0000 F   0  0  0  0  0  0  0  0  0  0  0  0
    0.7750   -5.6667    0.0000 F   0  0  0  0  0  0  0  0  0  0  0  0
    4.9250   -5.0667    0.0000 C   0  0  0  0  0  0  0  0  0  0  0  0
    5.5500   -4.6792    0.0000 C   0  0  0  0  0  0  0  0  0  0  0  0
    5.5125   -3.9667    0.0000 C   0  0  0  0  0  0  0  0  0  0  0  0
    6.1875   -5.0167    0.0000 C   0  0  0  0  0  0  0  0  0  0  0  0
    6.1292   -3.5792    0.0000 C   0  0  0  0  0  0  0  0  0  0  0  0
    6.8000   -4.6167    0.0000 C   0  0  0  0  0  0  0  0  0  0  0  0
    6.7625   -3.9167    0.0000 C   0  0  0  0  0  0  0  0  0  0  0  0
  2  1  1  0
  3  1  1  0
  4  6  1  0
  5  6  1  0
  6  9  2  0
  7  2  2  0
  8  5  1  0
  9  2  1  0
 10 11  1  0
 11  3  1  0
 12  7  1  0
 13  1  2  0
 14  1  2  0
 15  4  2  0
 16  4  2  0
 17  4  1  0
 18  8  1  0
 19  8  1  0
 20  8  1  0
 21 11  1  0
 22 21  1  0
 23 22  1  0
 24 22  2  0
 25 23  2  0
 26 24  1  0
 27 25  1  0
  7 10  1  0
 12  5  2  0
 26 27  2  0
M  END
> <chembl_id>
CHEMBL1684

> <chembl_pref_name>
BENDROFLUMETHIAZIDE
