
     RDKit          2D

 20 21  0  0  0  0  0  0  0  0999 V2000
    6.3000   -5.5167    0.0000 C   0  0  0  0  0  0  0  0  0  0  0  0
    6.3000   -6.2292    0.0000 N   0  0  0  0  0  0  0  0  0  0  0  0
    6.9167   -5.1542    0.0000 C   0  0  0  0  0  0  0  0  0  0  0  0
    5.6875   -4.4542    0.0000 C   0  0  0  0  0  0  0  0  0  0  0  0
    5.6875   -5.1542    0.0000 C   0  0  0  0  0  0  0  0  0  0  0  0
    6.9167   -4.4542    0.0000 C   0  0  0  0  0  0  0  0  0  0  0  0
    5.0667   -4.1042    0.0000 C   0  0  0  0  0  0  0  0  0  0  0  0
    6.3000   -4.0792    0.0000 C   0  0  0  0  0  0  0  0  0  0  0  0
    6.9167   -6.5750    0.0000 O   0  0  0  0  0  0  0  0  0  0  0  0
    5.6875   -6.5667    0.0000 O   0  0  0  0  0  0  0  0  0  0  0  0
    4.4500   -4.4792    0.0000 C   0  0  0  0  0  0  0  0  0  0  0  0
    5.0667   -3.4125    0.0000 O   0  0  0  0  0  0  0  0  0  0  0  0
    3.8375   -4.1167    0.0000 C   0  0  0  0  0  0  0  0  0  0  0  0
    4.4500   -5.1875    0.0000 C   0  0  0  0  0  0  0  0  0  0  0  0
    7.5375   -5.4917    0.0000 O   0  0  0  0  0  0  0  0  0  0  0  0
    7.5375   -4.1042    0.0000 O   0  0  0  0  0  0  0  0  0  0  0  0
    3.2167   -4.4792    0.0000 C   0  0  0  0  0  0  0  0  0  0  0  0
    3.8375   -5.5500    0.0000 C   0  0  0  0  0  0  0  0  0  0  0  0
    3.2167   -5.1875    0.0000 C   0  0  0  0  0  0  0  0  0  0  0  0
    2.6042   -5.5292    0.0000 C   0  0  0  0  0  0  0  0  0  0  0  0
  2  1  1  0
  3  1  2  0
  4  5  2  0
  5  1  1  0
  6  3  1  0
  7  4  1  0
  8  4  1  0
  9  2  1  0
 10  2  2  0
 11  7  1  0
 12  7  2  0
 13 11  2  0
 14 11  1  0
 15  3  1  0
 16  6  1  0
 17 13  1  0
 18 14  2  0
 19 18  1  0
 20 19  1  0
  8  6  2  0
 19 17  2  0
M  CHG  2   2   1   9  -1
M  END
> <chembl_id>
CHEMBL1324

> <chembl_pref_name>
TOLCAPONE
