
     RDKit          2D

 48 51  0  0  0  0  0  0  0  0999 V2000
    7.4281   -3.4196    0.0000 C   0  0  0  0  0  0  0  0  0  0  0  0
    6.7136   -3.8321    0.0000 C   0  0  0  0  0  0  0  0  0  0  0  0
    6.7136   -4.6571    0.0000 C   0  0  0  0  0  0  0  0  0  0  0  0
    7.4281   -5.0696    0.0000 C   0  0  0  0  0  0  0  0  0  0  0  0
    8.1426   -4.6571    0.0000 C   0  0  0  0  0  0  0  0  0  0  0  0
    8.1426   -3.8321    0.0000 C   0  0  0  0  0  0  0  0  0  0  0  0
    7.4281   -2.5946    0.0000 S   0  0  0  0  0  0  0  0  0  0  0  0
    8.2531   -2.5946    0.0000 O   0  0  0  0  0  0  0  0  0  0  0  0
    6.6031   -2.5946    0.0000 O   0  0  0  0  0  0  0  0  0  0  0  0
    7.4281   -1.7696    0.0000 O   0  0  0  0  0  0  0  0  0  0  0  0
    7.4281   -5.8946    0.0000 C   0  0  0  0  0  0  0  0  0  0  0  0
    3.7292    0.3096    0.0000 C   0  0  0  0  0  0  0  0  0  0  0  0
    3.0147   -0.1029    0.0000 C   0  0  0  0  0  0  0  0  0  0  0  0
    3.0147   -0.9279    0.0000 C   0  0  0  0  0  0  0  0  0  0  0  0
    3.7292   -1.3404    0.0000 N   0  0  0  0  0  0  0  0  0  0  0  0
    4.4437   -0.9279    0.0000 C   0  0  0  0  0  0  0  0  0  0  0  0
    4.4437   -0.1029    0.0000 C   0  0  0  0  0  0  0  0  0  0  0  0
    5.1582    0.3096    0.0000 Cl  0  0  0  0  0  0  0  0  0  0  0  0
    2.3002   -1.3404    0.0000 N   0  0  0  0  0  0  0  0  0  0  0  0
    1.5858   -0.9279    0.0000 C   0  0  0  0  0  0  0  0  0  0  0  0
    0.8713   -1.3404    0.0000 C   0  0  0  0  0  0  0  0  0  0  0  0
    1.5858   -0.1029    0.0000 O   0  0  0  0  0  0  0  0  0  0  0  0
    0.1568   -0.9279    0.0000 N   0  0  0  0  0  0  0  0  0  0  0  0
    0.8713   -2.1654    0.0000 O   0  0  0  0  0  0  0  0  0  0  0  0
    0.1568   -0.1029    0.0000 C   0  0  0  0  0  0  0  0  0  0  0  0
    0.8713    0.3096    0.0000 C   0  0  0  0  0  0  0  0  0  0  0  0
    0.8713    1.1346    0.0000 C   0  0  0  0  0  0  0  0  0  0  0  0
    0.1568    1.5471    0.0000 C   0  0  0  0  0  0  0  0  0  0  0  0
   -0.5576    1.1346    0.0000 C   0  0  0  0  0  0  0  0  0  0  0  0
   -0.5576    0.3096    0.0000 C   0  0  0  0  0  0  0  0  0  0  0  0
    0.5693    2.2616    0.0000 C   0  0  0  0  0  0  0  0  0  0  0  0
    0.1568    2.9761    0.0000 O   0  0  0  0  0  0  0  0  0  0  0  0
    1.3943    2.2616    0.0000 N   0  0  0  0  0  0  0  0  0  0  0  0
    1.8068    2.9761    0.0000 C   0  0  0  0  0  0  0  0  0  0  0  0
    1.8068    1.5471    0.0000 C   0  0  0  0  0  0  0  0  0  0  0  0
   -1.2721   -0.1029    0.0000 N   0  0  0  0  0  0  0  0  0  0  0  0
   -1.9866    0.3096    0.0000 C   0  0  0  0  0  0  0  0  0  0  0  0
   -2.7011   -0.1029    0.0000 C   0  0  0  0  0  0  0  0  0  0  0  0
   -1.9866    1.1346    0.0000 O   0  0  0  0  0  0  0  0  0  0  0  0
   -3.4547    0.2326    0.0000 N   0  0  0  0  0  0  0  0  0  0  0  0
   -4.0067   -0.3804    0.0000 C   0  0  0  0  0  0  0  0  0  0  0  0
   -3.5942   -1.0949    0.0000 C   0  0  0  0  0  0  0  0  0  0  0  0
   -2.7873   -0.9234    0.0000 S   0  0  0  0  0  0  0  0  0  0  0  0
   -4.8318   -0.3804    0.0000 C   0  0  0  0  0  0  0  0  0  0  0  0
   -5.2443   -1.0949    0.0000 C   0  0  0  0  0  0  0  0  0  0  0  0
   -4.8318   -1.8094    0.0000 N   0  0  0  0  0  0  0  0  0  0  0  0
   -4.0068   -1.8094    0.0000 C   0  0  0  0  0  0  0  0  0  0  0  0
   -5.2443   -2.5238    0.0000 C   0  0  0  0  0  0  0  0  0  0  0  0
  1  2  1  0
  1  6  2  0
  2  3  2  0
  3  4  1  0
  4  5  2  0
  5  6  1  0
  1  7  1  0
  7  8  1  0
  7  9  2  0
  7 10  2  0
  4 11  1  0
 12 13  1  0
 12 17  2  0
 13 14  2  0
 14 15  1  0
 15 16  2  0
 16 17  1  0
 17 18  1  0
 14 19  1  0
 19 20  1  0
 20 21  1  0
 20 22  2  0
 21 23  1  0
 21 24  2  0
 25 23  1  6
 25 26  1  0
 30 25  1  0
 26 27  1  0
 27 28  1  0
 28 29  1  0
 29 30  1  0
 28 31  1  1
 31 32  2  0
 31 33  1  0
 33 34  1  0
 33 35  1  0
 30 36  1  6
 36 37  1  0
 37 38  1  0
 37 39  2  0
 38 40  2  0
 38 43  1  0
 40 41  1  0
 42 43  1  0
 41 44  1  0
 42 41  2  0
 47 42  1  0
 44 45  1  0
 45 46  1  0
 46 47  1  0
 46 48  1  0
M  END
> <chembl_id>
CHEMBL2105682

> <chembl_pref_name>
EDOXABAN TOSYLATE
