
     RDKit          2D

 19 21  0  0  0  0  0  0  0  0999 V2000
   -3.2208    1.3458    0.0000 C   0  0  0  0  0  0  0  0  0  0  0  0
   -2.4208    0.7125    0.0000 O   0  0  0  0  0  0  0  0  0  0  0  0
   -2.8833    2.2708    0.0000 N   0  0  0  0  0  0  0  0  0  0  0  0
   -1.6458    1.3125    0.0000 C   0  0  0  0  0  0  0  0  0  0  0  0
    0.3167    0.5958    0.0000 N   0  0  0  0  0  0  0  0  0  0  0  0
   -4.2208    1.0583    0.0000 O   0  0  0  0  0  0  0  0  0  0  0  0
   -0.7958    1.9833    0.0000 C   0  0  0  0  0  0  0  0  0  0  0  0
   -1.4083    0.2833    0.0000 C   0  0  0  0  0  0  0  0  0  0  0  0
   -1.8708    2.2708    0.0000 C   0  0  0  0  0  0  0  0  0  0  0  0
   -0.4458   -0.0500    0.0000 C   0  0  0  0  0  0  0  0  0  0  0  0
    0.1417    1.6250    0.0000 C   0  0  0  0  0  0  0  0  0  0  0  0
    1.2792    0.2625    0.0000 C   0  0  0  0  0  0  0  0  0  0  0  0
    1.4542   -0.7167    0.0000 C   0  0  0  0  0  0  0  0  0  0  0  0
    2.4042   -1.0750    0.0000 C   0  0  0  0  0  0  0  0  0  0  0  0
    3.1667   -0.4042    0.0000 C   0  0  0  0  0  0  0  0  0  0  0  0
    2.5792   -2.0542    0.0000 C   0  0  0  0  0  0  0  0  0  0  0  0
    4.1375   -0.7417    0.0000 C   0  0  0  0  0  0  0  0  0  0  0  0
    3.5542   -2.3792    0.0000 C   0  0  0  0  0  0  0  0  0  0  0  0
    4.3417   -1.7375    0.0000 C   0  0  0  0  0  0  0  0  0  0  0  0
  2  1  1  0
  3  1  1  0
  4  2  1  0
  5 10  1  0
  6  1  2  0
  7  4  1  0
  8  4  1  0
  9  3  1  0
 10  8  1  0
 11  7  1  0
 12  5  1  0
 13 12  1  0
 14 13  1  0
 15 14  1  0
 16 14  2  0
 17 15  2  0
 18 16  1  0
 19 17  1  0
  4  9  1  0
 11  5  1  0
 18 19  2  0
M  END
> <chembl_id>
CHEMBL576127

> <chembl_pref_name>
FENSPIRIDE
