
     RDKit          2D

 44 43  0  0  0  0  0  0  0  0999 V2000
   -2.0093   -2.2168    0.0000 C   0  0  0  0  0  0  0  0  0  0  0  0
   -2.0093   -1.3918    0.0000 C   0  0  0  0  0  0  0  0  0  0  0  0
   -2.7237   -0.9793    0.0000 C   0  0  0  0  0  0  0  0  0  0  0  0
   -2.7237   -2.6293    0.0000 C   0  0  0  0  0  0  0  0  0  0  0  0
   -3.4382    1.0832    0.0000 N   0  0  0  0  0  0  0  0  0  0  0  0
   -3.4382   -1.3918    0.0000 C   0  0  0  0  0  0  0  0  0  0  0  0
   -4.1527    1.4957    0.0000 C   0  0  0  0  0  0  0  0  0  0  0  0
   -3.4382   -2.2168    0.0000 C   0  0  0  0  0  0  0  0  0  0  0  0
   -3.4382    0.2582    0.0000 C   0  0  0  0  0  0  0  0  0  0  0  0
   -2.7237   -0.1543    0.0000 C   0  0  0  0  0  0  0  0  0  0  0  0
   -2.7237   -3.4543    0.0000 O   0  0  0  0  0  0  0  0  0  0  0  0
   -1.2948   -2.6293    0.0000 C   0  0  0  0  0  0  0  0  0  0  0  0
   -2.0093    0.2582    0.0000 O   0  0  0  0  0  0  0  0  0  0  0  0
   -1.2948   -3.4543    0.0000 O   0  0  0  0  0  0  0  0  0  0  0  0
   -4.8671    1.9082    0.0000 C   0  0  0  0  0  0  0  0  0  0  0  0
   -3.7402    2.2102    0.0000 C   0  0  0  0  0  0  0  0  0  0  0  0
   -4.5652    0.7813    0.0000 C   0  0  0  0  0  0  0  0  0  0  0  0
    0.9666   -1.4801    0.0000 C   0  0  0  0  0  0  0  0  0  0  0  0
    0.9666   -0.6551    0.0000 C   0  0  0  0  0  0  0  0  0  0  0  0
    0.2522   -0.2426    0.0000 C   0  0  0  0  0  0  0  0  0  0  0  0
    0.2522   -1.8926    0.0000 C   0  0  0  0  0  0  0  0  0  0  0  0
   -0.4623    1.8199    0.0000 N   0  0  0  0  0  0  0  0  0  0  0  0
   -0.4623   -0.6551    0.0000 C   0  0  0  0  0  0  0  0  0  0  0  0
   -1.1768    2.2324    0.0000 C   0  0  0  0  0  0  0  0  0  0  0  0
   -0.4623   -1.4801    0.0000 C   0  0  0  0  0  0  0  0  0  0  0  0
   -0.4623    0.9949    0.0000 C   0  0  0  0  0  0  0  0  0  0  0  0
    0.2522    0.5824    0.0000 C   0  0  0  0  0  0  0  0  0  0  0  0
    0.2522   -2.7176    0.0000 O   0  0  0  0  0  0  0  0  0  0  0  0
    1.6811   -1.8926    0.0000 C   0  0  0  0  0  0  0  0  0  0  0  0
    0.9666    0.9949    0.0000 O   0  0  0  0  0  0  0  0  0  0  0  0
    1.6811   -2.7176    0.0000 O   0  0  0  0  0  0  0  0  0  0  0  0
   -1.8912    2.6449    0.0000 C   0  0  0  0  0  0  0  0  0  0  0  0
   -0.7643    2.9468    0.0000 C   0  0  0  0  0  0  0  0  0  0  0  0
   -1.5893    1.5179    0.0000 C   0  0  0  0  0  0  0  0  0  0  0  0
    2.1820    0.3241    0.0000 O   0  0  0  0  0  0  0  0  0  0  0  0
    2.8965    1.5616    0.0000 O   0  0  0  0  0  0  0  0  0  0  0  0
    5.7544    0.7366    0.0000 O   0  0  0  0  0  0  0  0  0  0  0  0
    5.0399   -0.5009    0.0000 O   0  0  0  0  0  0  0  0  0  0  0  0
    3.6109   -0.5009    0.0000 O   0  0  0  0  0  0  0  0  0  0  0  0
    4.3254    1.5616    0.0000 O   0  0  0  0  0  0  0  0  0  0  0  0
    2.8965    0.7366    0.0000 C   0  0  0  0  0  0  0  0  0  0  0  0
    3.6109    0.3241    0.0000 C   0  0  0  0  0  0  0  0  0  0  0  0
    4.3254    0.7366    0.0000 C   0  0  0  0  0  0  0  0  0  0  0  0
    5.0399    0.3241    0.0000 C   0  0  0  0  0  0  0  0  0  0  0  0
 10  3  1  0
 11  4  1  0
 12  1  1  0
 10 13  1  6
 14 12  1  0
 15  7  1  0
 16  7  1  0
 17  7  1  0
  6  8  2  0
  2  1  1  0
  3  2  2  0
  4  1  2  0
  5  9  1  0
  6  3  1  0
  7  5  1  0
  8  4  1  0
  9 10  1  0
 27 20  1  0
 28 21  1  0
 29 18  1  0
 27 30  1  6
 31 29  1  0
 32 24  1  0
 33 24  1  0
 34 24  1  0
 23 25  2  0
 19 18  1  0
 20 19  2  0
 21 18  2  0
 22 26  1  0
 23 20  1  0
 24 22  1  0
 25 21  1  0
 26 27  1  0
 41 36  2  0
 42 39  1  0
 43 40  1  0
 41 35  1  0
 43 44  1  0
 42 43  1  0
 44 37  1  0
 41 42  1  0
 44 38  2  0
M  END
> <chembl_id>
CHEMBL3989693

> <chembl_pref_name>
LEVALBUTEROL TARTRATE
