
     RDKit          2D

 32 33  0  0  0  0  0  0  0  0999 V2000
    5.7125    0.8250    0.0000 C   0  0  0  0  0  0  0  0  0  0  0  0
   -5.7167   -0.8250    0.0000 C   0  0  0  0  0  0  0  0  0  0  0  0
   -5.0042   -0.4125    0.0000 C   0  0  0  0  0  0  0  0  0  0  0  0
   -5.0042    0.4125    0.0000 C   0  0  0  0  0  0  0  0  0  0  0  0
   -6.4292   -0.4125    0.0000 C   0  0  0  0  0  0  0  0  0  0  0  0
    6.4292    0.4125    0.0000 C   0  0  0  0  0  0  0  0  0  0  0  0
    5.7125    1.6500    0.0000 C   0  0  0  0  0  0  0  0  0  0  0  0
   -5.7167    0.8250    0.0000 C   0  0  0  0  0  0  0  0  0  0  0  0
   -6.4292    0.4125    0.0000 C   0  0  0  0  0  0  0  0  0  0  0  0
   -4.2875    0.8250    0.0000 C   0  0  0  0  0  0  0  0  0  0  0  0
    5.0000    2.0625    0.0000 Cl  0  0  0  0  0  0  0  0  0  0  0  0
    6.4292   -0.4125    0.0000 Cl  0  0  0  0  0  0  0  0  0  0  0  0
    5.0000    0.4125    0.0000 C   0  0  0  0  0  0  0  0  0  0  0  0
   -2.8583    0.8250    0.0000 N   0  0  0  0  0  0  0  0  0  0  0  0
   -7.1417   -0.8250    0.0000 O   0  0  0  0  0  0  0  0  0  0  0  0
   -5.7167   -1.6500    0.0000 C   0  0  0  0  0  0  0  0  0  0  0  0
   -3.8750    1.5417    0.0000 O   0  0  0  0  0  0  0  0  0  0  0  0
   -5.0042   -2.0625    0.0000 O   0  0  0  0  0  0  0  0  0  0  0  0
    4.2833    0.8250    0.0000 O   0  0  0  0  0  0  0  0  0  0  0  0
    7.1417    1.6500    0.0000 C   0  0  0  0  0  0  0  0  0  0  0  0
    2.1417    0.4125    0.0000 O   0  0  0  0  0  0  0  0  0  0  0  0
    6.4292    2.0625    0.0000 C   0  0  0  0  0  0  0  0  0  0  0  0
    7.1417    0.8250    0.0000 C   0  0  0  0  0  0  0  0  0  0  0  0
   -3.5750    0.4125    0.0000 C   0  0  0  0  0  0  0  0  0  0  0  0
   -2.1458    0.4125    0.0000 C   0  0  0  0  0  0  0  0  0  0  0  0
    3.5708    0.4125    0.0000 C   0  0  0  0  0  0  0  0  0  0  0  0
    2.8542    0.8250    0.0000 C   0  0  0  0  0  0  0  0  0  0  0  0
    1.4250    0.8250    0.0000 C   0  0  0  0  0  0  0  0  0  0  0  0
   -1.4292    0.8250    0.0000 C   0  0  0  0  0  0  0  0  0  0  0  0
    0.7125    0.4125    0.0000 C   0  0  0  0  0  0  0  0  0  0  0  0
   -0.7167    0.4125    0.0000 C   0  0  0  0  0  0  0  0  0  0  0  0
    0.0000    0.8250    0.0000 C   0  0  0  0  0  0  0  0  0  0  0  0
  2  3  1  0
  3  4  2  0
  4 10  1  0
  5  9  1  0
  6  1  1  0
  7  1  2  0
  8  4  1  0
  9  8  2  0
 10 24  1  0
 11  7  1  0
 12  6  1  0
 13  1  1  0
 14 25  1  0
 15  5  1  0
 16  2  1  0
 10 17  1  1
 18 16  1  0
 19 13  1  0
 20 22  2  0
 21 27  1  0
 22  7  1  0
 23  6  2  0
 24 14  1  0
 25 29  1  0
 26 19  1  0
 27 26  1  0
 28 21  1  0
 29 31  1  0
 30 28  1  0
 31 32  1  0
 32 30  1  0
 20 23  1  0
  2  5  2  0
M  END
> <chembl_id>
CHEMBL1198857

> <chembl_pref_name>
VILANTEROL
