
     RDKit          2D

 17 17  0  0  0  0  0  0  0  0999 V2000
   -1.1458    0.1708    0.0000 C   0  0  0  0  0  0  0  0  0  0  0  0
   -0.5333    0.5333    0.0000 C   0  0  0  0  0  0  0  0  0  0  0  0
    0.0875    0.1708    0.0000 C   0  0  0  0  0  0  0  0  0  0  0  0
   -1.1458   -0.5417    0.0000 C   0  0  0  0  0  0  0  0  0  0  0  0
    1.9292    0.5333    0.0000 N   0  0  0  0  0  0  0  0  0  0  0  0
    0.0875   -0.5417    0.0000 C   0  0  0  0  0  0  0  0  0  0  0  0
    2.5417    0.1833    0.0000 C   0  0  0  0  0  0  0  0  0  0  0  0
   -0.5333   -0.9000    0.0000 C   0  0  0  0  0  0  0  0  0  0  0  0
    1.3167    0.1750    0.0000 C   0  0  0  0  0  0  0  0  0  0  0  0
    0.7042    0.5333    0.0000 C   0  0  0  0  0  0  0  0  0  0  0  0
   -1.7625   -0.9000    0.0000 O   0  0  0  0  0  0  0  0  0  0  0  0
   -1.7583    0.5250    0.0000 C   0  0  0  0  0  0  0  0  0  0  0  0
    0.7000    1.2375    0.0000 O   0  0  0  0  0  0  0  0  0  0  0  0
   -2.3750    0.1708    0.0000 O   0  0  0  0  0  0  0  0  0  0  0  0
    3.1500    0.5417    0.0000 C   0  0  0  0  0  0  0  0  0  0  0  0
    2.8917   -0.4292    0.0000 C   0  0  0  0  0  0  0  0  0  0  0  0
    2.1792   -0.4292    0.0000 C   0  0  0  0  0  0  0  0  0  0  0  0
  2  1  1  0
  3  2  2  0
  4  1  2  0
  5  9  1  0
  6  3  1  0
  7  5  1  0
  8  4  1  0
  9 10  1  0
 10  3  1  0
 11  4  1  0
 12  1  1  0
 13 10  1  0
 14 12  1  0
 15  7  1  0
 16  7  1  0
 17  7  1  0
  8  6  2  0
M  END
> <chembl_id>
CHEMBL714

> <chembl_pref_name>
ALBUTEROL
