
     RDKit          2D

 17 18  0  0  0  0  0  0  0  0999 V2000
    4.5875   -5.8792    0.0000 C   0  0  0  0  0  0  0  0  0  0  0  0
    5.1917   -6.2375    0.0000 C   0  0  0  0  0  0  0  0  0  0  0  0
    3.9792   -6.2292    0.0000 C   0  0  0  0  0  0  0  0  0  0  0  0
    5.8167   -5.8792    0.0000 O   0  0  0  0  0  0  0  0  0  0  0  0
    4.5917   -5.1667    0.0000 C   0  0  0  0  0  0  0  0  0  0  0  0
    3.3542   -5.8750    0.0000 C   0  0  0  0  0  0  0  0  0  0  0  0
    5.2042   -6.9417    0.0000 O   0  0  0  0  0  0  0  0  0  0  0  0
    3.3542   -5.1667    0.0000 C   0  0  0  0  0  0  0  0  0  0  0  0
    3.9750   -6.9417    0.0000 O   0  0  0  0  0  0  0  0  0  0  0  0
    3.9750   -4.8125    0.0000 C   0  0  0  0  0  0  0  0  0  0  0  0
    6.4375   -6.2292    0.0000 C   0  0  0  0  0  0  0  0  0  0  0  0
    2.7292   -4.8167    0.0000 N   0  0  0  0  0  0  0  0  0  0  0  0
    6.4417   -6.9292    0.0000 C   0  0  0  0  0  0  0  0  0  0  0  0
    7.0500   -5.8792    0.0000 C   0  0  0  0  0  0  0  0  0  0  0  0
    7.6667   -6.2292    0.0000 C   0  0  0  0  0  0  0  0  0  0  0  0
    7.0542   -7.2917    0.0000 C   0  0  0  0  0  0  0  0  0  0  0  0
    7.6667   -6.9417    0.0000 C   0  0  0  0  0  0  0  0  0  0  0  0
  2  1  1  0
  3  1  2  0
  4  2  1  0
  5  1  1  0
  6  3  1  0
  7  2  2  0
  8 10  1  0
  9  3  1  0
 10  5  2  0
 11  4  1  0
 12  8  1  0
 13 11  2  0
 14 11  1  0
 15 14  2  0
 16 13  1  0
 17 15  1  0
  8  6  2  0
 17 16  2  0
M  END
> <chembl_id>
CHEMBL1200868

> <chembl_pref_name>
PHENYL AMINOSALICYLATE
