
     RDKit          2D

 29 31  0  0  0  0  0  0  0  0999 V2000
    3.0875   -8.0750    0.0000 K   0  0  0  0  0 15  0  0  0  0  0  0
   -0.2458   -5.7375    0.0000 N   0  0  0  0  0  0  0  0  0  0  0  0
    1.0833   -6.8000    0.0000 N   0  0  0  0  0  0  0  0  0  0  0  0
    0.3750   -6.0917    0.0000 C   0  0  0  0  0  0  0  0  0  0  0  0
    1.0792   -6.0917    0.0000 C   0  0  0  0  0  0  0  0  0  0  0  0
    0.3750   -6.8000    0.0000 C   0  0  0  0  0  0  0  0  0  0  0  0
   -0.4667   -5.0625    0.0000 C   0  0  0  0  0  0  0  0  0  0  0  0
   -0.8208   -6.1542    0.0000 C   0  0  0  0  0  0  0  0  0  0  0  0
    1.7583   -7.0167    0.0000 C   0  0  0  0  0  0  0  0  0  0  0  0
    1.7542   -5.8708    0.0000 S   0  0  0  0  0  0  0  0  0  0  0  0
   -1.3958   -5.7375    0.0000 N   0  0  0  0  0  0  0  0  0  0  0  0
    2.1750   -6.4417    0.0000 C   0  0  0  0  0  0  0  0  0  0  0  0
   -1.1750   -5.0625    0.0000 C   0  0  0  0  0  0  0  0  0  0  0  0
    1.7542   -7.7250    0.0000 C   0  0  0  0  0  0  0  0  0  0  0  0
   -0.1292   -7.3042    0.0000 O   0  0  0  0  0  0  0  0  0  0  0  0
   -0.0500   -4.4917    0.0000 O   0  0  0  0  0  0  0  0  0  0  0  0
    2.3625   -8.0833    0.0000 O   0  0  0  0  0  0  0  0  0  0  0  0
   -1.7958   -4.7042    0.0000 C   0  0  0  0  0  0  0  0  0  0  0  0
    1.1333   -8.0708    0.0000 O   0  0  0  0  0  0  0  0  0  0  0  0
   -0.4708   -6.7667    0.0000 C   0  0  0  0  0  0  0  0  0  0  0  0
   -1.1833   -6.7667    0.0000 C   0  0  0  0  0  0  0  0  0  0  0  0
    2.7875   -6.7917    0.0000 C   0  0  0  0  0  0  0  0  0  0  0  0
    2.7875   -6.0792    0.0000 C   0  0  0  0  0  0  0  0  0  0  0  0
   -1.7917   -3.9917    0.0000 C   0  0  0  0  0  0  0  0  0  0  0  0
   -2.4083   -5.0625    0.0000 C   0  0  0  0  0  0  0  0  0  0  0  0
   -3.0250   -4.7083    0.0000 C   0  0  0  0  0  0  0  0  0  0  0  0
   -2.4083   -3.6333    0.0000 C   0  0  0  0  0  0  0  0  0  0  0  0
   -3.0292   -3.9917    0.0000 C   0  0  0  0  0  0  0  0  0  0  0  0
    1.0750   -5.3792    0.0000 H   0  0  0  0  0  0  0  0  0  0  0  0
  3  6  1  0
  4  2  1  1
  5  4  1  0
  6  4  1  0
  7  2  1  0
  8  2  1  0
  9  3  1  0
 10  5  1  0
 11  8  1  0
 12 10  1  0
 13  7  1  0
  9 14  1  6
 15  6  2  0
 16  7  2  0
 17 14  1  0
 13 18  1  6
 19 14  2  0
 20  8  1  0
 21  8  1  0
 22 12  1  0
 23 12  1  0
 24 18  2  0
 25 18  1  0
 26 25  2  0
 27 24  1  0
 28 26  1  0
  5 29  1  6
 13 11  1  0
  3  5  1  0
 12  9  1  0
 28 27  2  0
M  CHG  2   1   1  17  -1
M  END
> <chembl_id>
CHEMBL1201121

> <chembl_pref_name>
HETACILLIN POTASSIUM
