
     RDKit          2D

 22 24  0  0  0  0  0  0  0  0999 V2000
    5.2292   -4.4875    0.0000 C   0  0  0  0  0  0  0  0  0  0  0  0
    4.5167   -4.3208    0.0000 N   0  0  0  0  0  0  0  0  0  0  0  0
    5.6125   -3.8542    0.0000 C   0  0  0  0  0  0  0  0  0  0  0  0
    3.9500   -5.4875    0.0000 C   0  0  0  0  0  0  0  0  0  0  0  0
    5.1292   -3.3042    0.0000 N   0  0  0  0  0  0  0  0  0  0  0  0
    4.5042   -5.9417    0.0000 C   0  0  0  0  0  0  0  0  0  0  0  0
    3.9500   -4.7667    0.0000 C   0  0  0  0  0  0  0  0  0  0  0  0
    5.2042   -5.7875    0.0000 N   0  0  0  0  0  0  0  0  0  0  0  0
    4.4542   -3.5917    0.0000 C   0  0  0  0  0  0  0  0  0  0  0  0
    5.5292   -5.1417    0.0000 C   0  0  0  0  0  0  0  0  0  0  0  0
    6.2917   -3.6125    0.0000 C   0  0  0  0  0  0  0  0  0  0  0  0
    3.3292   -5.8417    0.0000 C   0  0  0  0  0  0  0  0  0  0  0  0
    3.3292   -4.4125    0.0000 C   0  0  0  0  0  0  0  0  0  0  0  0
    4.3417   -6.6500    0.0000 O   0  0  0  0  0  0  0  0  0  0  0  0
    6.2917   -2.9625    0.0000 O   0  0  0  0  0  0  0  0  0  0  0  0
    2.7042   -5.4875    0.0000 C   0  0  0  0  0  0  0  0  0  0  0  0
    2.7125   -4.7667    0.0000 C   0  0  0  0  0  0  0  0  0  0  0  0
    6.8625   -3.9292    0.0000 O   0  0  0  0  0  0  0  0  0  0  0  0
    5.6250   -6.3250    0.0000 C   0  0  0  0  0  0  0  0  0  0  0  0
    2.0875   -5.8417    0.0000 F   0  0  0  0  0  0  0  0  0  0  0  0
    7.4250   -3.6042    0.0000 C   0  0  0  0  0  0  0  0  0  0  0  0
    7.9917   -3.9292    0.0000 C   0  0  0  0  0  0  0  0  0  0  0  0
  2  1  1  0
  3  1  2  0
  4  7  2  0
  5  3  1  0
  6  8  1  0
  7  2  1  0
  8 10  1  0
  9  2  1  0
 10  1  1  0
 11  3  1  0
 12  4  1  0
 13  7  1  0
 14  6  2  0
 15 11  2  0
 16 17  1  0
 17 13  2  0
 18 11  1  0
 19  8  1  0
 20 16  1  0
 21 18  1  0
 22 21  1  0
  5  9  2  0
  6  4  1  0
 16 12  2  0
M  END
> <chembl_id>
CHEMBL407

> <chembl_pref_name>
FLUMAZENIL
