
     RDKit          2D

 20 20  0  0  0  0  0  0  0  0999 V2000
    0.8500   -0.8000    0.0000 C   0  0  0  0  0  0  0  0  0  0  0  0
   -0.1333    0.9458    0.0000 C   0  0  0  0  0  0  0  0  0  0  0  0
   -1.1583   -0.8000    0.0000 C   0  0  0  0  0  0  0  0  0  0  0  0
   -0.1333   -1.3917    0.0000 C   0  0  0  0  0  0  0  0  0  0  0  0
   -1.1583    0.3833    0.0000 C   0  0  0  0  0  0  0  0  0  0  0  0
    0.8500    0.3458    0.0000 C   0  0  0  0  0  0  0  0  0  0  0  0
    1.8667   -1.3917    0.0000 C   0  0  0  0  0  0  0  0  0  0  0  0
   -0.1333    2.0958    0.0000 C   0  0  0  0  0  0  0  0  0  0  0  0
   -2.1458   -1.4250    0.0000 N   0  0  0  0  0  0  0  0  0  0  0  0
   -3.1333   -0.8667    0.0000 C   0  0  0  0  0  0  0  0  0  0  0  0
    1.8667   -2.5417    0.0000 O   0  0  0  0  0  0  0  0  0  0  0  0
    0.8500    2.6583    0.0000 O   0  0  0  0  0  0  0  0  0  0  0  0
   -2.1458    0.9750    0.0000 I   0  0  0  0  0  0  0  0  0  0  0  0
    1.8667    0.9750    0.0000 I   0  0  0  0  0  0  0  0  0  0  0  0
   -0.1333   -2.5417    0.0000 I   0  0  0  0  0  0  0  0  0  0  0  0
   -4.1208   -1.4917    0.0000 O   0  0  0  0  0  0  0  0  0  0  0  0
    3.0542   -0.7500    0.0000 N   0  0  0  0  0  0  0  0  0  0  0  0
   -1.1208    2.6583    0.0000 O   0  0  0  0  0  0  0  0  0  0  0  0
   -3.1625    0.2833    0.0000 C   0  0  0  0  0  0  0  0  0  0  0  0
    4.3375   -0.7500    0.0000 C   0  0  0  0  0  0  0  0  0  0  0  0
  2  6  1  0
  3  4  2  0
  4  1  1  0
  5  2  2  0
  6  1  2  0
  7  1  1  0
  8  2  1  0
  9  3  1  0
 10  9  1  0
 11  7  2  0
 12  8  2  0
 13  5  1  0
 14  6  1  0
 15  4  1  0
 16 10  2  0
 17  7  1  0
 18  8  1  0
 19 10  1  0
 20 17  1  0
  3  5  1  0
M  END
> <chembl_id>
CHEMBL1201300

> <chembl_pref_name>
IOTHALAMIC ACID
