
     RDKit          2D

 37 39  0  0  0  0  0  0  0  0999 V2000
   -4.7180   -2.9401    0.0000 S   0  0  0  0  0  0  0  0  0  0  0  0
   -5.5027   -2.6852    0.0000 C   0  0  0  0  0  0  0  0  0  0  0  0
   -4.9730   -3.7247    0.0000 O   0  0  0  0  0  0  0  0  0  0  0  0
   -4.4631   -2.1555    0.0000 O   0  0  0  0  0  0  0  0  0  0  0  0
   -3.9334   -3.1950    0.0000 N   0  0  0  0  0  0  0  0  0  0  0  0
   -3.3203   -2.6430    0.0000 C   0  0  0  0  0  0  0  0  0  0  0  0
   -2.8788   -1.2840    0.0000 C   0  0  0  0  0  0  0  0  0  0  0  0
   -3.4918   -1.8360    0.0000 C   0  0  0  0  0  0  0  0  0  0  0  0
   -2.5357   -2.8979    0.0000 C   0  0  0  0  0  0  0  0  0  0  0  0
   -1.9226   -2.3459    0.0000 C   0  0  0  0  0  0  0  0  0  0  0  0
   -2.0941   -1.5389    0.0000 C   0  0  0  0  0  0  0  0  0  0  0  0
   -2.3642   -3.7049    0.0000 F   0  0  0  0  0  0  0  0  0  0  0  0
   -3.0503   -0.4770    0.0000 Cl  0  0  0  0  0  0  0  0  0  0  0  0
   -1.1380   -2.6008    0.0000 C   0  0  0  0  0  0  0  0  0  0  0  0
   -0.4705   -2.1159    0.0000 C   0  0  0  0  0  0  0  0  0  0  0  0
   -0.8830   -3.3855    0.0000 N   0  0  0  0  0  0  0  0  0  0  0  0
   -0.0580   -3.3855    0.0000 N   0  0  0  0  0  0  0  0  0  0  0  0
    0.1969   -2.6008    0.0000 C   0  0  0  0  0  0  0  0  0  0  0  0
    0.4269   -4.0529    0.0000 C   0  0  0  0  0  0  0  0  0  0  0  0
    1.2474   -3.9667    0.0000 C   0  0  0  0  0  0  0  0  0  0  0  0
    0.0913   -4.8066    0.0000 C   0  0  0  0  0  0  0  0  0  0  0  0
   -0.4705   -1.2909    0.0000 C   0  0  0  0  0  0  0  0  0  0  0  0
   -0.4705    0.3591    0.0000 N   0  0  0  0  0  0  0  0  0  0  0  0
   -1.1850   -0.0534    0.0000 C   0  0  0  0  0  0  0  0  0  0  0  0
   -1.1850   -0.8784    0.0000 C   0  0  0  0  0  0  0  0  0  0  0  0
    0.2439   -0.8784    0.0000 N   0  0  0  0  0  0  0  0  0  0  0  0
    0.2439   -0.0534    0.0000 C   0  0  0  0  0  0  0  0  0  0  0  0
    0.9584    0.3591    0.0000 N   0  0  0  0  0  0  0  0  0  0  0  0
    1.6729   -0.0534    0.0000 C   0  0  0  0  0  0  0  0  0  0  0  0
    2.3873    0.3591    0.0000 C   0  0  0  0  0  0  0  0  0  0  0  0
    3.1018   -0.0534    0.0000 N   0  0  0  0  0  0  0  0  0  0  0  0
    3.8163    0.3591    0.0000 C   0  0  0  0  0  0  0  0  0  0  0  0
    3.8163    1.1841    0.0000 O   0  0  0  0  0  0  0  0  0  0  0  0
    4.5308   -0.0534    0.0000 O   0  0  0  0  0  0  0  0  0  0  0  0
    5.2452    0.3591    0.0000 C   0  0  0  0  0  0  0  0  0  0  0  0
    3.1018    0.7716    0.0000 H   0  0  0  0  0  0  0  0  0  0  0  0
    2.3873    1.1841    0.0000 C   0  0  0  0  0  0  0  0  0  0  0  0
  1  2  1  0
  1  3  2  0
  1  4  2  0
  1  5  1  0
  5  6  1  0
  7  8  1  0
  9 10  2  0
 10 11  1  0
  7 11  2  0
  8  6  2  0
  6  9  1  0
  9 12  1  0
  7 13  1  0
 10 14  1  0
 16 17  1  0
 17 18  1  0
 15 18  2  0
 15 14  1  0
 14 16  2  0
 17 19  1  0
 19 20  1  0
 19 21  1  0
 15 22  1  0
 23 24  1  0
 24 25  2  0
 26 27  1  0
 23 27  2  0
 25 22  1  0
 22 26  2  0
 27 28  1  0
 28 29  1  0
 29 30  1  0
 30 31  1  0
 31 32  1  0
 32 33  2  0
 32 34  1  0
 34 35  1  0
 30 36  1  1
 30 37  1  6
M  END
> <chembl_id>
CHEMBL3301612

> <chembl_pref_name>
ENCORAFENIB
