
     RDKit          2D

 17 16  0  0  0  0  0  0  0  0999 V2000
    7.3917   -8.1792    0.0000 Br  0  0  0  0  0  0  0  0  0  0  0  0
    3.8917   -4.5500    0.0000 C   0  0  0  0  0  0  0  0  0  0  0  0
    3.1792   -4.9667    0.0000 C   0  0  0  0  0  0  0  0  0  0  0  0
    4.6083   -5.7833    0.0000 N   0  0  0  0  0  0  0  0  0  0  0  0
    4.6083   -4.9583    0.0000 C   0  0  0  0  0  0  0  0  0  0  0  0
    3.1792   -5.7958    0.0000 C   0  0  0  0  0  0  0  0  0  0  0  0
    3.8875   -3.7250    0.0000 O   0  0  0  0  0  0  0  0  0  0  0  0
    5.3250   -6.1958    0.0000 C   0  0  0  0  0  0  0  0  0  0  0  0
    2.4625   -6.2083    0.0000 C   0  0  0  0  0  0  0  0  0  0  0  0
    2.4625   -7.0333    0.0000 Cl  0  0  0  0  0  0  0  0  0  0  0  0
    2.4625   -4.5542    0.0000 C   0  0  0  0  0  0  0  0  0  0  0  0
    1.7500   -4.9708    0.0000 C   0  0  0  0  0  0  0  0  0  0  0  0
    5.3208   -4.5458    0.0000 C   0  0  0  0  0  0  0  0  0  0  0  0
    6.0375   -5.7792    0.0000 C   0  0  0  0  0  0  0  0  0  0  0  0
    6.0333   -6.6083    0.0000 C   0  0  0  0  0  0  0  0  0  0  0  0
    5.3292   -7.0208    0.0000 C   0  0  0  0  0  0  0  0  0  0  0  0
    1.7500   -5.7958    0.0000 C   0  0  0  0  0  0  0  0  0  0  0  0
  3  2  1  0
  4  5  1  0
  5  2  1  0
  6  3  1  0
  7  2  2  0
  8  4  1  0
  9  6  2  0
 10  9  1  0
 11  3  2  0
 12 11  1  0
 13  5  1  0
 14  8  1  0
 15  8  1  0
 16  8  1  0
 17 12  2  0
  9 17  1  0
M  END
> <chembl_id>
CHEMBL1201735

> <chembl_pref_name>
BUPROPION HYDROBROMIDE
