
     RDKit          2D

 17 17  0  0  0  0  0  0  0  0999 V2000
    4.0042   -0.1750    0.0000 Cl  0  0  0  0  0  0  0  0  0  0  0  0
   -2.2333    0.0375    0.0000 C   0  0  0  0  0  0  0  0  0  0  0  0
   -1.1625    0.6375    0.0000 O   0  0  0  0  0  0  0  0  0  0  0  0
    0.9417    0.6208    0.0000 C   0  0  0  0  0  0  0  0  0  0  0  0
    1.9875   -0.0917    0.0000 N   0  0  0  0  0  0  0  0  0  0  0  0
   -0.1083    0.0333    0.0000 C   0  0  0  0  0  0  0  0  0  0  0  0
    1.3542    1.8083    0.0000 N   0  0  0  0  0  0  0  0  0  0  0  0
   -2.2333   -1.1875    0.0000 C   0  0  0  0  0  0  0  0  0  0  0  0
   -3.2958    0.6583    0.0000 C   0  0  0  0  0  0  0  0  0  0  0  0
   -3.2958    1.8750    0.0000 Cl  0  0  0  0  0  0  0  0  0  0  0  0
   -1.1625   -1.7875    0.0000 Cl  0  0  0  0  0  0  0  0  0  0  0  0
    2.9917    0.6208    0.0000 C   0  0  0  0  0  0  0  0  0  0  0  0
    2.5750    1.8083    0.0000 C   0  0  0  0  0  0  0  0  0  0  0  0
   -4.3458   -1.1875    0.0000 C   0  0  0  0  0  0  0  0  0  0  0  0
   -4.3458    0.0375    0.0000 C   0  0  0  0  0  0  0  0  0  0  0  0
   -3.2958   -1.8125    0.0000 C   0  0  0  0  0  0  0  0  0  0  0  0
   -0.1083   -1.1875    0.0000 C   0  0  0  0  0  0  0  0  0  0  0  0
  3  2  1  0
  4  6  1  0
  5  4  2  0
  6  3  1  0
  7  4  1  0
  8  2  1  0
  9  2  2  0
 10  9  1  0
 11  8  1  0
 12  5  1  0
 13  7  1  0
 14 15  2  0
 15  9  1  0
 16  8  2  0
 17  6  1  0
 16 14  1  0
 13 12  1  0
M  END
> <chembl_id>
CHEMBL1788132

> <chembl_pref_name>
LOFEXIDINE HYDROCHLORIDE
