
     RDKit          2D

 29 31  0  0  0  0  0  0  0  0999 V2000
   -0.8250   -0.2946    0.0000 O   0  0  0  0  0  0  0  0  0  0  0  0
   -5.9223   -0.5230    0.0000 C   0  0  0  0  0  0  0  0  0  0  0  0
   -6.3348   -1.2375    0.0000 C   0  0  0  0  0  0  0  0  0  0  0  0
   -5.9223   -1.9520    0.0000 C   0  0  0  0  0  0  0  0  0  0  0  0
   -5.0973   -1.9520    0.0000 C   0  0  0  0  0  0  0  0  0  0  0  0
   -4.6848   -1.2375    0.0000 C   0  0  0  0  0  0  0  0  0  0  0  0
   -5.0973   -0.5230    0.0000 O   0  0  0  0  0  0  0  0  0  0  0  0
   -6.3348   -2.6664    0.0000 O   0  0  0  0  0  0  0  0  0  0  0  0
   -4.1015   -0.6541    0.0000 C   0  0  0  0  0  0  0  0  0  0  0  0
   -4.3103   -1.9726    0.0000 O   0  0  0  0  0  0  0  0  0  0  0  0
   -3.4955   -1.8435    0.0000 C   0  0  0  0  0  0  0  0  0  0  0  0
   -3.3664   -1.0287    0.0000 C   0  0  0  0  0  0  0  0  0  0  0  0
   -3.4527    0.6191    0.0000 C   0  0  0  0  0  0  0  0  0  0  0  0
   -4.1446    0.1697    0.0000 C   0  0  0  0  0  0  0  0  0  0  0  0
   -2.6745   -0.5794    0.0000 C   0  0  0  0  0  0  0  0  0  0  0  0
   -2.7176    0.2445    0.0000 C   0  0  0  0  0  0  0  0  0  0  0  0
   -3.4527    1.4441    0.0000 C   0  0  0  0  0  0  0  0  0  0  0  0
   -7.1598   -1.2375    0.0000 O   0  0  0  0  0  0  0  0  0  0  0  0
   -4.6848   -2.6665    0.0000 O   0  0  0  0  0  0  0  0  0  0  0  0
   -6.5057    0.0603    0.0000 C   0  0  0  0  0  0  0  0  0  0  0  0
   -7.3307    0.0603    0.0000 O   0  0  0  0  0  0  0  0  0  0  0  0
   -2.7382    1.8566    0.0000 C   0  0  0  0  0  0  0  0  0  0  0  0
   -2.0238    3.0941    0.0000 C   0  0  0  0  0  0  0  0  0  0  0  0
   -2.7382    2.6816    0.0000 C   0  0  0  0  0  0  0  0  0  0  0  0
   -2.0238    1.4441    0.0000 C   0  0  0  0  0  0  0  0  0  0  0  0
   -1.3093    1.8566    0.0000 C   0  0  0  0  0  0  0  0  0  0  0  0
   -1.3093    2.6816    0.0000 C   0  0  0  0  0  0  0  0  0  0  0  0
   -0.5948    3.0941    0.0000 C   0  0  0  0  0  0  0  0  0  0  0  0
   -0.5948    3.9191    0.0000 C   0  0  0  0  0  0  0  0  0  0  0  0
  2  3  1  0
  2  7  1  0
  3  4  1  0
  4  5  1  0
  5  6  1  0
  7  6  1  0
  4  8  1  1
  6 10  1  6
  6  9  1  1
 10 11  1  0
 11 12  1  0
 14  9  2  0
  9 12  1  0
 12 15  2  0
 13 14  1  0
 13 16  2  0
 15 16  1  0
 13 17  1  0
  3 18  1  6
  5 19  1  6
  2 20  1  1
 20 21  1  0
 17 22  1  0
 24 22  2  0
 22 25  1  0
 23 24  1  0
 25 26  2  0
 26 27  1  0
 23 27  2  0
 27 28  1  0
 28 29  1  0
M  END
> <chembl_id>
CHEMBL2105711

> <chembl_pref_name>
TOFOGLIFLOZIN
