
     RDKit          2D

 15 16  0  0  1  0  0  0  0  0999 V2000
   -0.1000   -0.8917    0.0000 C   0  0  0  0  0  0  0  0  0  0  0  0
   -0.2500   -3.2000    0.0000 N   0  0  0  0  0  0  0  0  0  0  0  0
    0.7375   -2.1125    0.0000 C   0  0  0  0  0  0  0  0  0  0  0  0
   -1.5250   -1.3167    0.0000 C   0  0  0  0  0  0  0  0  0  0  0  0
    2.3417    2.1708    0.0000 C   0  0  0  0  0  0  0  0  0  0  0  0
    0.3917    0.5000    0.0000 C   0  0  0  0  0  0  0  0  0  0  0  0
   -1.5250   -2.6792    0.0000 C   0  0  0  0  0  0  0  0  0  0  0  0
    1.8417    0.7750    0.0000 C   0  0  0  0  0  0  0  0  0  0  0  0
    1.3792    3.2958    0.0000 O   0  0  0  0  0  0  0  0  0  0  0  0
    2.8125   -0.3542    0.0000 N   0  0  0  0  0  0  0  0  0  0  0  0
    3.7917    2.4458    0.0000 O   0  0  0  0  0  0  0  0  0  0  0  0
   -2.7208   -0.6292    0.0000 C   0  0  0  0  0  0  0  0  0  0  0  0
   -2.7208   -3.3667    0.0000 C   0  0  0  0  0  0  0  0  0  0  0  0
   -3.9000   -1.3167    0.0000 C   0  0  0  0  0  0  0  0  0  0  0  0
   -3.9000   -2.6792    0.0000 C   0  0  0  0  0  0  0  0  0  0  0  0
  2  3  1  0
  3  1  2  0
  4  1  1  0
  5  8  1  0
  6  1  1  0
  7  4  2  0
  8  6  1  0
  9  5  2  0
  8 10  1  1
 11  5  1  0
 12  4  1  0
 13  7  1  0
 14 12  2  0
 15 14  1  0
  7  2  1  0
 13 15  2  0
M  END
> <chembl_id>
CHEMBL54976

> <chembl_pref_name>
TRYPTOPHAN
