
     RDKit          2D

 29 28  0  0  0  0  0  0  0  0999 V2000
    0.9875   -1.3375    0.0000 C   0  0  0  0  0  0  0  0  0  0  0  0
    1.8625   -1.8417    0.0000 C   0  0  0  0  0  0  0  0  0  0  0  0
    0.1042   -1.8542    0.0000 C   0  0  0  0  0  0  0  0  0  0  0  0
   -0.7458   -1.3417    0.0000 N   0  0  0  0  0  0  0  0  0  0  0  0
    0.9792   -0.3292    0.0000 O   0  0  0  0  0  0  0  0  0  0  0  0
    2.7500   -1.3417    0.0000 C   0  0  0  0  0  0  0  0  0  0  0  0
    1.8625   -2.8667    0.0000 C   0  0  0  0  0  0  0  0  0  0  0  0
   -1.6250   -1.8542    0.0000 C   0  0  0  0  0  0  0  0  0  0  0  0
    0.1042   -2.8750    0.0000 C   0  0  0  0  0  0  0  0  0  0  0  0
    3.6292   -1.8417    0.0000 C   0  0  0  0  0  0  0  0  0  0  0  0
    2.7417   -3.3750    0.0000 C   0  0  0  0  0  0  0  0  0  0  0  0
    3.6375   -2.8542    0.0000 C   0  0  0  0  0  0  0  0  0  0  0  0
   -3.3958   -1.4167    0.0000 S   0  0  0  0  0  0  0  0  0  0  0  0
   -2.4833   -0.9542    0.0000 O   0  0  0  0  0  0  0  0  0  0  0  0
   -4.0625   -0.6542    0.0000 O   0  0  0  0  0  0  0  0  0  0  0  0
   -4.2208   -2.0167    0.0000 O   0  0  0  0  0  0  0  0  0  0  0  0
   -2.8625   -2.2792    0.0000 O   0  0  0  0  0  0  0  0  0  0  0  0
    1.6917    2.2458    0.0000 C   0  0  0  0  0  0  0  0  0  0  0  0
    2.5750    1.7458    0.0000 C   0  0  0  0  0  0  0  0  0  0  0  0
    0.8167    1.7333    0.0000 C   0  0  0  0  0  0  0  0  0  0  0  0
   -0.0458    2.2333    0.0000 N   0  0  0  0  0  0  0  0  0  0  0  0
    1.6917    3.2583    0.0000 O   0  0  0  0  0  0  0  0  0  0  0  0
    2.5750    0.7083    0.0000 C   0  0  0  0  0  0  0  0  0  0  0  0
    3.4542    2.2458    0.0000 C   0  0  0  0  0  0  0  0  0  0  0  0
   -0.9208    1.7333    0.0000 C   0  0  0  0  0  0  0  0  0  0  0  0
    0.8125    0.7083    0.0000 C   0  0  0  0  0  0  0  0  0  0  0  0
    3.4542    0.2083    0.0000 C   0  0  0  0  0  0  0  0  0  0  0  0
    4.3292    1.7333    0.0000 C   0  0  0  0  0  0  0  0  0  0  0  0
    4.3417    0.7208    0.0000 C   0  0  0  0  0  0  0  0  0  0  0  0
  2  1  1  0
  3  1  1  0
  3  4  1  6
  1  5  1  6
  6  2  1  0
  7  2  2  0
  8  4  1  0
  9  3  1  0
 10  6  2  0
 11  7  1  0
 12 11  2  0
 10 12  1  0
 14 13  2  0
 15 13  2  0
 16 13  1  0
 17 13  1  0
 19 18  1  0
 20 18  1  0
 20 21  1  6
 18 22  1  6
 23 19  2  0
 24 19  1  0
 25 21  1  0
 26 20  1  0
 27 23  1  0
 28 24  2  0
 29 27  2  0
 28 29  1  0
M  END
> <chembl_id>
CHEMBL1523964

> <chembl_pref_name>
EPHEDRINE SULFATE
