
     RDKit          2D

 35 36  0  0  0  0  0  0  0  0999 V2000
    8.0167   -5.3125    0.0000 Na  0  0  0  0  0 15  0  0  0  0  0  0
    4.8667   -7.3125    0.0000 C   0  0  0  0  0  0  0  0  0  0  0  0
    5.5417   -7.1000    0.0000 C   0  0  0  0  0  0  0  0  0  0  0  0
    3.0042   -8.3750    0.0000 C   0  0  0  0  0  0  0  0  0  0  0  0
    4.2292   -8.3750    0.0000 C   0  0  0  0  0  0  0  0  0  0  0  0
    4.8667   -8.0167    0.0000 C   0  0  0  0  0  0  0  0  0  0  0  0
    3.6292   -8.0167    0.0000 C   0  0  0  0  0  0  0  0  0  0  0  0
    3.0042   -9.0792    0.0000 C   0  0  0  0  0  0  0  0  0  0  0  0
    6.7542   -4.9667    0.0000 P   0  0  0  0  0  0  0  0  0  0  0  0
    4.2292   -6.9542    0.0000 C   0  0  0  0  0  0  0  0  0  0  0  0
    3.6292   -7.3125    0.0000 C   0  0  0  0  0  0  0  0  0  0  0  0
    5.5375   -6.3917    0.0000 C   0  0  0  0  0  0  0  0  0  0  0  0
    2.3792   -9.4167    0.0000 C   0  0  0  0  0  0  0  0  0  0  0  0
    5.9292   -7.6542    0.0000 C   0  0  0  0  0  0  0  0  0  0  0  0
    5.5417   -8.2292    0.0000 C   0  0  0  0  0  0  0  0  0  0  0  0
    4.2292   -9.0792    0.0000 C   0  0  0  0  0  0  0  0  0  0  0  0
    2.3792   -8.0167    0.0000 C   0  0  0  0  0  0  0  0  0  0  0  0
    6.1417   -6.0292    0.0000 C   0  0  0  0  0  0  0  0  0  0  0  0
    6.1417   -5.3250    0.0000 O   0  0  0  0  0  0  0  0  0  0  0  0
    7.3667   -5.3167    0.0000 O   0  0  0  0  0  0  0  0  0  0  0  0
    7.1042   -4.3500    0.0000 O   0  0  0  0  0  0  0  0  0  0  0  0
    3.6292   -9.4375    0.0000 C   0  0  0  0  0  0  0  0  0  0  0  0
    1.7667   -9.0792    0.0000 C   0  0  0  0  0  0  0  0  0  0  0  0
    6.3917   -4.3500    0.0000 O   0  0  0  0  0  0  0  0  0  0  0  0
    4.9167   -6.0375    0.0000 O   0  0  0  0  0  0  0  0  0  0  0  0
    1.1292   -9.4167    0.0000 O   0  0  0  0  0  0  0  0  0  0  0  0
    6.1542   -6.7417    0.0000 O   0  0  0  0  0  0  0  0  0  0  0  0
    4.8667   -6.5917    0.0000 C   0  0  0  0  0  0  0  0  0  0  0  0
    1.7667   -8.3750    0.0000 C   0  0  0  0  0  0  0  0  0  0  0  0
    3.0042   -6.9542    0.0000 O   0  0  0  0  0  0  0  0  0  0  0  0
    3.0042   -7.6542    0.0000 C   0  0  0  0  0  0  0  0  0  0  0  0
    4.8667   -8.7167    0.0000 H   0  0  0  0  0  0  0  0  0  0  0  0
    4.2292   -7.6667    0.0000 H   0  0  0  0  0  0  0  0  0  0  0  0
    3.6292   -8.7125    0.0000 H   0  0  0  0  0  0  0  0  0  0  0  0
    8.0542   -4.3750    0.0000 Na  0  0  0  0  0 15  0  0  0  0  0  0
  3  2  1  0
  4  7  1  0
  5  6  1  0
  6  2  1  0
  7 11  1  0
  8  4  1  0
  9 19  1  0
 10  2  1  0
 11 10  1  0
 12  3  1  0
 13  8  2  0
 14  3  1  0
 15  6  1  0
 16  5  1  0
 17  4  1  0
 18 12  1  0
 19 18  1  0
 20  9  1  0
 21  9  1  0
 22 16  1  0
 23 29  1  0
 24  9  2  0
 25 12  2  0
 26 23  2  0
  3 27  1  6
  2 28  1  1
 29 17  1  0
 11 30  1  1
  4 31  1  1
  6 32  1  6
  5 33  1  1
  7 34  1  6
 14 15  1  0
  7  5  1  0
  8 22  1  0
 23 13  1  0
M  CHG  4   1   1  20  -1  21  -1  35   1
M  END
> <chembl_id>
CHEMBL1200968

> <chembl_pref_name>
HYDROCORTISONE SODIUM PHOSPHATE
