
     RDKit          2D

 19 20  0  0  1  0  0  0  0  0999 V2000
   -1.4500    0.4833    0.0000 C   0  0  0  0  0  0  0  0  0  0  0  0
   -0.4833   -0.0750    0.0000 C   0  0  0  0  0  0  0  0  0  0  0  0
    3.3667   -0.0292    0.0000 C   0  0  0  0  0  0  0  0  0  0  0  0
    1.4542   -0.0750    0.0000 C   0  0  0  0  0  0  0  0  0  0  0  0
    0.4792    0.4833    0.0000 C   0  0  0  0  0  0  0  0  0  0  0  0
    2.4167    0.4833    0.0000 C   0  0  0  0  0  0  0  0  0  0  0  0
   -1.4500    1.5958    0.0000 O   0  0  0  0  0  0  0  0  0  0  0  0
    3.4042   -1.1167    0.0000 O   0  0  0  0  0  0  0  0  0  0  0  0
   -2.4125   -0.0750    0.0000 C   0  0  0  0  0  0  0  0  0  0  0  0
    4.2625    0.5375    0.0000 O   0  0  0  0  0  0  0  0  0  0  0  0
   -0.4833   -1.1750    0.0000 C   0  0  0  0  0  0  0  0  0  0  0  0
    1.4542   -1.1750    0.0000 C   0  0  0  0  0  0  0  0  0  0  0  0
    0.4792   -1.7167    0.0000 C   0  0  0  0  0  0  0  0  0  0  0  0
    2.4167    1.5583    0.0000 C   0  0  0  0  0  0  0  0  0  0  0  0
   -2.4125   -1.1750    0.0000 C   0  0  0  0  0  0  0  0  0  0  0  0
   -3.3833    0.4833    0.0000 C   0  0  0  0  0  0  0  0  0  0  0  0
   -3.3833   -1.7167    0.0000 C   0  0  0  0  0  0  0  0  0  0  0  0
   -4.3458   -0.0750    0.0000 C   0  0  0  0  0  0  0  0  0  0  0  0
   -4.3458   -1.1750    0.0000 C   0  0  0  0  0  0  0  0  0  0  0  0
  2  1  1  0
  3  6  1  0
  4  5  1  0
  5  2  2  0
  6  4  1  0
  7  1  2  0
  8  3  2  0
  9  1  1  0
 10  3  1  0
 11  2  1  0
 12 13  1  0
 13 11  2  0
  6 14  1  6
 15  9  2  0
 16  9  1  0
 17 15  1  0
 18 16  2  0
 19 18  1  0
 17 19  2  0
  4 12  2  0
M  END
> <chembl_id>
CHEMBL75435

> <chembl_pref_name>
DEXKETOPROFEN
