
     RDKit          2D

 32 35  0  0  1  0  0  0  0  0999 V2000
    3.3417   -3.5667    0.0000 C   0  0  0  0  0  0  0  0  0  0  0  0
    1.5042   -4.6625    0.0000 C   0  0  0  0  0  0  0  0  0  0  0  0
    4.0125   -3.3375    0.0000 C   0  0  0  0  0  0  0  0  0  0  0  0
    2.1250   -4.2875    0.0000 C   0  0  0  0  0  0  0  0  0  0  0  0
    2.7292   -4.6375    0.0000 C   0  0  0  0  0  0  0  0  0  0  0  0
    3.3500   -4.2667    0.0000 C   0  0  0  0  0  0  0  0  0  0  0  0
    2.1167   -3.5625    0.0000 C   0  0  0  0  0  0  0  0  0  0  0  0
    1.5167   -5.3667    0.0000 C   0  0  0  0  0  0  0  0  0  0  0  0
    2.7042   -3.2292    0.0000 C   0  0  0  0  0  0  0  0  0  0  0  0
    4.0167   -2.6292    0.0000 C   0  0  0  0  0  0  0  0  0  0  0  0
    0.8917   -5.7292    0.0000 C   0  0  0  0  0  0  0  0  0  0  0  0
    4.4500   -3.9000    0.0000 C   0  0  0  0  0  0  0  0  0  0  0  0
    4.0375   -4.4875    0.0000 C   0  0  0  0  0  0  0  0  0  0  0  0
    2.7500   -5.3542    0.0000 C   0  0  0  0  0  0  0  0  0  0  0  0
    0.8792   -4.3167    0.0000 C   0  0  0  0  0  0  0  0  0  0  0  0
    2.1500   -5.7250    0.0000 C   0  0  0  0  0  0  0  0  0  0  0  0
    0.2667   -5.4042    0.0000 C   0  0  0  0  0  0  0  0  0  0  0  0
    5.3125   -1.2167    0.0000 C   0  0  0  0  0  0  0  0  0  0  0  0
    1.4917   -3.2292    0.0000 O   0  0  0  0  0  0  0  0  0  0  0  0
    4.6542   -2.2917    0.0000 C   0  0  0  0  0  0  0  0  0  0  0  0
    3.4125   -2.2667    0.0000 O   0  0  0  0  0  0  0  0  0  0  0  0
    4.6625   -1.5542    0.0000 O   0  0  0  0  0  0  0  0  0  0  0  0
    5.3042   -0.5000    0.0000 O   0  0  0  0  0  0  0  0  0  0  0  0
   -0.3458   -5.7667    0.0000 O   0  0  0  0  0  0  0  0  0  0  0  0
    4.6292   -2.9750    0.0000 O   0  0  0  0  0  0  0  0  0  0  0  0
    3.3375   -2.8542    0.0000 C   0  0  0  0  0  0  0  0  0  0  0  0
    0.2667   -4.6750    0.0000 C   0  0  0  0  0  0  0  0  0  0  0  0
    1.4917   -3.9500    0.0000 C   0  0  0  0  0  0  0  0  0  0  0  0
    5.9250   -1.5792    0.0000 C   0  0  0  0  0  0  0  0  0  0  0  0
    3.3875   -4.8917    0.0000 H   0  0  0  0  0  0  0  0  0  0  0  0
    2.7292   -3.8500    0.0000 H   0  0  0  0  0  0  0  0  0  0  0  0
    2.1000   -4.9167    0.0000 H   0  0  0  0  0  0  0  0  0  0  0  0
  2  4  1  0
  3  1  1  0
  4  7  1  0
  5  6  1  0
  6  1  1  0
  7  9  1  0
  8  2  1  0
  9  1  1  0
 10  3  1  0
 11  8  2  0
 12  3  1  0
 13  6  1  0
 14  5  1  0
 15  2  1  0
 16 14  1  0
 17 27  1  0
 18 22  1  0
 19  7  2  0
 20 10  1  0
 21 10  2  0
 22 20  1  0
 23 18  2  0
 24 17  2  0
  3 25  1  6
  1 26  1  1
 27 15  1  0
  2 28  1  1
 29 18  1  0
  6 30  1  6
  5 31  1  1
  4 32  1  6
 12 13  1  0
  4  5  1  0
  8 16  1  0
 17 11  1  0
M  END
> <chembl_id>
CHEMBL1650

> <chembl_pref_name>
CORTISONE ACETATE
