
     RDKit          2D

 35 37  0  0  0  0  0  0  0  0999 V2000
    3.6459    1.5958    0.0000 N   0  0  0  0  0  0  0  0  0  0  0  0
    2.9542    0.7041    0.0000 C   0  0  0  0  0  0  0  0  0  0  0  0
    2.9542    1.3916    0.0000 C   0  0  0  0  0  0  0  0  0  0  0  0
    3.6459    0.4791    0.0000 C   0  0  0  0  0  0  0  0  0  0  0  0
    4.0584    1.0458    0.0000 C   0  0  0  0  0  0  0  0  0  0  0  0
    2.3542    0.3333    0.0000 C   0  0  0  0  0  0  0  0  0  0  0  0
    2.3417   -0.3667    0.0000 O   0  0  0  0  0  0  0  0  0  0  0  0
   -0.7458   -0.7209    0.0000 C   0  0  0  0  0  0  0  0  0  0  0  0
   -0.7458   -1.4084    0.0000 C   0  0  0  0  0  0  0  0  0  0  0  0
    2.9084   -0.6959    0.0000 C   0  0  0  0  0  0  0  0  0  0  0  0
    2.9084   -1.3959    0.0000 C   0  0  0  0  0  0  0  0  0  0  0  0
    2.3542    1.7583    0.0000 C   0  0  0  0  0  0  0  0  0  0  0  0
    1.7167   -1.3959    0.0000 N   0  0  0  0  0  0  0  0  0  0  0  0
   -0.1666   -0.3334    0.0000 O   0  0  0  0  0  0  0  0  0  0  0  0
   -0.1458   -1.7834    0.0000 O   0  0  0  0  0  0  0  0  0  0  0  0
    3.5667   -1.8209    0.0000 O   0  0  0  0  0  0  0  0  0  0  0  0
    3.9084   -0.1542    0.0000 C   0  0  0  0  0  0  0  0  0  0  0  0
    4.7584    0.9791    0.0000 C   0  0  0  0  0  0  0  0  0  0  0  0
    1.7167    1.4041    0.0000 C   0  0  0  0  0  0  0  0  0  0  0  0
    1.7167    0.6791    0.0000 C   0  0  0  0  0  0  0  0  0  0  0  0
    2.3209   -1.7709    0.0000 C   0  0  0  0  0  0  0  0  0  0  0  0
   -1.4041   -0.3667    0.0000 C   0  0  0  0  0  0  0  0  0  0  0  0
   -1.3583   -1.8042    0.0000 C   0  0  0  0  0  0  0  0  0  0  0  0
    1.1167   -1.7709    0.0000 C   0  0  0  0  0  0  0  0  0  0  0  0
    0.4834   -1.4084    0.0000 C   0  0  0  0  0  0  0  0  0  0  0  0
   -0.1916    0.3416    0.0000 C   0  0  0  0  0  0  0  0  0  0  0  0
    4.6209   -0.2417    0.0000 C   0  0  0  0  0  0  0  0  0  0  0  0
    5.0584    0.3333    0.0000 C   0  0  0  0  0  0  0  0  0  0  0  0
   -2.0041   -0.7584    0.0000 C   0  0  0  0  0  0  0  0  0  0  0  0
   -1.9833   -1.4584    0.0000 C   0  0  0  0  0  0  0  0  0  0  0  0
    6.1333   -0.5167    0.0000 O   0  0  0  0  0  0  0  0  0  0  0  0
    6.7468   -0.1625    0.0000 P   0  0  0  0  0  0  0  0  0  0  0  0
    7.3602   -0.5167    0.0000 O   0  0  0  0  0  0  0  0  0  0  0  0
    7.0958    0.4583    0.0000 O   0  0  0  0  0  0  0  0  0  0  0  0
    6.3875    0.4583    0.0000 O   0  0  0  0  0  0  0  0  0  0  0  0
  2  3  2  0
  3  1  1  0
  4  5  2  0
  5  1  1  0
  6  2  1  0
  7  6  1  0
  8  9  2  0
  9 15  1  0
 10  7  1  0
 11 10  1  0
 12  3  1  0
 13 21  1  0
 14  8  1  0
 15 25  1  0
 16 11  1  0
 17  4  1  0
 18  5  1  0
 19 12  2  0
 20 19  1  0
 21 11  1  0
 22  8  1  0
 23  9  1  0
 24 13  1  0
 25 24  1  0
 26 14  1  0
 27 28  1  0
 28 18  2  0
 29 30  1  0
 30 23  2  0
  4  2  1  0
 27 17  2  0
 20  6  2  0
 29 22  2  0
 32 33  1  0
 32 34  2  0
 31 32  1  0
 32 35  1  0
M  END
> <chembl_id>
CHEMBL1201167

> <chembl_pref_name>
CARVEDILOL PHOSPHATE
