
     RDKit          2D

 30 33  0  0  0  0  0  0  0  0999 V2000
    1.0348   -2.6127    0.0000 C   0  0  0  0  0  0  0  0  0  0  0  0
    1.0348   -1.7877    0.0000 C   0  0  0  0  0  0  0  0  0  0  0  0
    1.7493   -3.0252    0.0000 C   0  0  0  0  0  0  0  0  0  0  0  0
    2.4637   -2.6127    0.0000 C   0  0  0  0  0  0  0  0  0  0  0  0
    3.1782   -3.0252    0.0000 N   0  0  0  0  0  0  0  0  0  0  0  0
    2.4637   -1.7877    0.0000 C   0  0  0  0  0  0  0  0  0  0  0  0
    3.1782   -1.3752    0.0000 F   0  0  0  0  0  0  0  0  0  0  0  0
    1.7493   -1.3752    0.0000 C   0  0  0  0  0  0  0  0  0  0  0  0
    0.3203   -1.3752    0.0000 I   0  0  0  0  0  0  0  0  0  0  0  0
    2.4637   -5.0877    0.0000 C   0  0  0  0  0  0  0  0  0  0  0  0
    2.4637   -4.2627    0.0000 C   0  0  0  0  0  0  0  0  0  0  0  0
    1.7493   -5.5002    0.0000 F   0  0  0  0  0  0  0  0  0  0  0  0
    3.1782   -5.5002    0.0000 C   0  0  0  0  0  0  0  0  0  0  0  0
    3.8927   -5.0877    0.0000 C   0  0  0  0  0  0  0  0  0  0  0  0
    3.8927   -4.2627    0.0000 C   0  0  0  0  0  0  0  0  0  0  0  0
    5.3216   -4.2627    0.0000 O   0  0  0  0  0  0  0  0  0  0  0  0
    4.6072   -3.8502    0.0000 C   0  0  0  0  0  0  0  0  0  0  0  0
    4.6072   -3.0252    0.0000 N   0  0  0  0  0  0  0  0  0  0  0  0
    3.1782   -3.8502    0.0000 C   0  0  0  0  0  0  0  0  0  0  0  0
    1.7493   -3.8502    0.0000 F   0  0  0  0  0  0  0  0  0  0  0  0
    4.0238   -1.2751    0.0000 O   0  0  0  0  0  0  0  0  0  0  0  0
    4.6072   -1.8584    0.0000 C   0  0  0  0  0  0  0  0  0  0  0  0
    5.1905   -2.4418    0.0000 C   0  0  0  0  0  0  0  0  0  0  0  0
    4.0238   -2.4418    0.0000 C   0  0  0  0  0  0  0  0  0  0  0  0
    5.1905   -1.2751    0.0000 C   0  0  0  0  0  0  0  0  0  0  0  0
    4.9770   -0.4782    0.0000 C   0  0  0  0  0  0  0  0  0  0  0  0
    5.5604    0.1052    0.0000 C   0  0  0  0  0  0  0  0  0  0  0  0
    6.3572   -0.1083    0.0000 C   0  0  0  0  0  0  0  0  0  0  0  0
    6.5708   -0.9052    0.0000 C   0  0  0  0  0  0  0  0  0  0  0  0
    5.9874   -1.4886    0.0000 N   0  0  0  0  0  0  0  0  0  0  0  0
  1  2  2  0
  1  3  1  0
  2  9  1  0
  3  4  2  0
  4  5  1  0
  4  6  1  0
  6  8  2  0
  7  6  1  0
  8  2  1  0
 10 11  1  0
 10 13  2  0
 11 19  2  0
 12 10  1  0
 13 14  1  0
 14 15  2  0
 16 17  2  0
 17 18  1  0
 17 15  1  0
 18 24  1  0
 19 15  1  0
 19  5  1  0
 20 11  1  0
 22 21  1  0
 22 23  1  0
 25 22  1  6
 23 18  1  0
 24 22  1  0
 25 26  1  0
 25 30  1  0
 26 27  1  0
 27 28  1  0
 28 29  1  0
 29 30  1  0
M  END
> <chembl_id>
CHEMBL2146883

> <chembl_pref_name>
COBIMETINIB
