
     RDKit          2D

 55 62  0  0  0  0  0  0  0  0999 V2000
   10.6661   -5.0678    0.0000 C   0  0  0  0  0  0  0  0  0  0  0  0
    9.9516   -5.4803    0.0000 C   0  0  0  0  0  0  0  0  0  0  0  0
    9.9516   -6.3054    0.0000 C   0  0  0  0  0  0  0  0  0  0  0  0
   10.6661   -6.7179    0.0000 C   0  0  0  0  0  0  0  0  0  0  0  0
   11.3805   -6.3054    0.0000 C   0  0  0  0  0  0  0  0  0  0  0  0
   11.3805   -5.4803    0.0000 C   0  0  0  0  0  0  0  0  0  0  0  0
    9.2371   -6.7179    0.0000 C   0  0  0  0  0  0  0  0  0  0  0  0
   12.0950   -5.0678    0.0000 S   0  0  0  0  0  0  0  0  0  0  0  0
   11.6825   -4.3534    0.0000 O   0  0  0  0  0  0  0  0  0  0  0  0
   12.8095   -4.6553    0.0000 O   0  0  0  0  0  0  0  0  0  0  0  0
   12.5075   -5.7823    0.0000 O   0  0  0  0  0  0  0  0  0  0  0  0
    6.6464   -4.7753    0.0000 C   0  0  0  0  0  0  0  0  0  0  0  0
    5.6690   -4.7656    0.0000 N   0  0  0  0  0  0  0  0  0  0  0  0
    7.0498   -4.0646    0.0000 C   0  0  0  0  0  0  0  0  0  0  0  0
    6.7688   -3.2599    0.0000 O   0  0  0  0  0  0  0  0  0  0  0  0
    7.8686   -4.0456    0.0000 N   0  0  0  0  0  0  0  0  0  0  0  0
    7.5608   -4.7656    0.0000 C   0  0  0  0  0  0  0  0  0  0  0  0
    7.1549   -5.4857    0.0000 C   0  0  0  0  0  0  0  0  0  0  0  0
    0.8242   -3.3475    0.0000 C   0  0  0  0  0  0  0  0  0  0  0  0
    0.4256   -4.0596    0.0000 C   0  0  0  0  0  0  0  0  0  0  0  0
    1.6618   -3.3430    0.0000 C   0  0  0  0  0  0  0  0  0  0  0  0
    2.0688   -2.6268    0.0000 C   0  0  0  0  0  0  0  0  0  0  0  0
    2.8806   -2.5713    0.0000 C   0  0  0  0  0  0  0  0  0  0  0  0
    3.4825   -2.0293    0.0000 N   0  0  0  0  0  0  0  0  0  0  0  0
    4.1540   -3.3483    0.0000 C   0  0  0  0  0  0  0  0  0  0  0  0
    3.3025   -3.3356    0.0000 C   0  0  0  0  0  0  0  0  0  0  0  0
    3.6703   -3.8603    0.0000 C   0  0  0  0  0  0  0  0  0  0  0  0
    4.0624   -2.6043    0.0000 C   0  0  0  0  0  0  0  0  0  0  0  0
    2.9174   -4.0686    0.0000 C   0  0  0  0  0  0  0  0  0  0  0  0
    3.2720   -4.7905    0.0000 C   0  0  0  0  0  0  0  0  0  0  0  0
    4.1569   -4.7765    0.0000 C   0  0  0  0  0  0  0  0  0  0  0  0
    4.5608   -4.0572    0.0000 C   0  0  0  0  0  0  0  0  0  0  0  0
    5.3598   -4.0598    0.0000 C   0  0  0  0  0  0  0  0  0  0  0  0
    5.7868   -3.3254    0.0000 O   0  0  0  0  0  0  0  0  0  0  0  0
    4.6674   -5.4857    0.0000 O   0  0  0  0  0  0  0  0  0  0  0  0
    3.4825   -5.5642    0.0000 H   0  0  0  0  0  0  0  0  0  0  0  0
    2.0741   -4.0631    0.0000 C   0  0  0  0  0  0  0  0  0  0  0  0
    2.4614   -5.1453    0.0000 O   0  0  0  0  0  0  0  0  0  0  0  0
    1.6644   -4.7755    0.0000 C   0  0  0  0  0  0  0  0  0  0  0  0
    0.8342   -4.7816    0.0000 C   0  0  0  0  0  0  0  0  0  0  0  0
    0.2749   -5.4857    0.0000 O   0  0  0  0  0  0  0  0  0  0  0  0
    7.4495   -2.7756    0.0000 N   0  0  0  0  0  0  0  0  0  0  0  0
    8.1340   -3.2781    0.0000 C   0  0  0  0  0  0  0  0  0  0  0  0
    8.9352   -3.0038    0.0000 C   0  0  0  0  0  0  0  0  0  0  0  0
   10.4932   -2.5287    0.0000 C   0  0  0  0  0  0  0  0  0  0  0  0
    9.8732   -2.0080    0.0000 C   0  0  0  0  0  0  0  0  0  0  0  0
    9.5442   -3.5669    0.0000 C   0  0  0  0  0  0  0  0  0  0  0  0
   10.3244   -3.3031    0.0000 C   0  0  0  0  0  0  0  0  0  0  0  0
    3.4830   -1.2156    0.0000 C   0  0  0  0  0  0  0  0  0  0  0  0
    2.7493   -0.7945    0.0000 C   0  0  0  0  0  0  0  0  0  0  0  0
    1.9722   -0.7966    0.0000 C   0  0  0  0  0  0  0  0  0  0  0  0
    2.3618   -0.0994    0.0000 C   0  0  0  0  0  0  0  0  0  0  0  0
    9.0672   -2.2860    0.0000 C   0  0  0  0  0  0  0  0  0  0  0  0
    2.5792   -1.8460    0.0000 H   0  0  0  0  0  0  0  0  0  0  0  0
    2.4775   -3.3356    0.0000 O   0  0  0  0  0  0  0  0  0  0  0  0
  1  2  1  0
  2  3  2  0
  3  4  1  0
  4  5  2  0
  5  6  1  0
  1  6  2  0
  3  7  1  0
  6  8  1  0
  8  9  2  0
  8 10  1  0
  8 11  2  0
 12 13  1  0
 12 14  1  0
 12 17  1  0
 13 33  1  0
 14 16  2  0
 15 14  1  0
 15 42  1  0
 18 12  1  0
 19 20  1  0
 19 21  2  0
 20 40  2  0
 21 22  1  0
 21 37  1  0
 22 23  1  0
 23 24  1  0
 23 54  1  6
 24 49  1  0
 25 26  1  0
 26 23  1  0
 27 28  1  0
 29 27  1  1
 29 30  1  0
 29 26  1  0
 30 31  1  0
 30 36  1  1
 30 38  1  0
 31 32  2  0
 32 25  1  0
 32 33  1  0
 33 34  2  0
 35 31  1  0
 37 29  1  0
 38 39  1  0
 39 37  2  0
 40 39  1  0
 40 41  1  0
 42 43  2  0
 43 44  1  0
 43 16  1  0
 44 47  2  0
 44 53  1  0
 45 46  1  0
 47 48  1  0
 48 45  2  0
 49 50  1  0
 51 52  1  0
 51 50  1  0
 52 50  1  0
 53 46  2  0
 24 28  1  0
 26 55  1  1
M  END
> <chembl_id>
CHEMBL3039508

> <chembl_pref_name>
NALDEMEDINE TOSYLATE
