
     RDKit          2D

173171  0  0  0  0  0  0  0  0999 V2000
    8.8177  -16.8882    0.0000 N   0  0  0  0  0  0  0  0  0  0  0  0
    7.9888  -16.8882    0.0000 C   0  0  0  0  0  0  0  0  0  0  0  0
   13.3624  -16.2009    0.0000 N   0  0  0  0  0  0  0  0  0  0  0  0
   12.5502  -14.7595    0.0000 N   0  0  0  0  0  0  0  0  0  0  0  0
   12.5293  -17.6172    0.0000 N   0  0  0  0  0  0  0  0  0  0  0  0
    9.2301  -17.5922    0.0000 C   0  0  0  0  0  0  0  0  0  0  0  0
    9.4217  -12.1602    0.0000 N   0  0  0  0  0  0  0  0  0  0  0  0
   10.8797  -17.6047    0.0000 N   0  0  0  0  0  0  0  0  0  0  0  0
   13.7831  -15.4885    0.0000 C   0  0  0  0  0  0  0  0  0  0  0  0
   13.3499  -17.6255    0.0000 C   0  0  0  0  0  0  0  0  0  0  0  0
   12.1418  -14.0472    0.0000 C   0  0  0  0  0  0  0  0  0  0  0  0
   11.2837  -18.3211    0.0000 C   0  0  0  0  0  0  0  0  0  0  0  0
    9.4300  -12.9850    0.0000 C   0  0  0  0  0  0  0  0  0  0  0  0
    7.5764  -16.1676    0.0000 C   0  0  0  0  0  0  0  0  0  0  0  0
   13.7706  -16.9132    0.0000 C   0  0  0  0  0  0  0  0  0  0  0  0
   13.3749  -14.7679    0.0000 C   0  0  0  0  0  0  0  0  0  0  0  0
    3.0067  -13.3933    0.0000 C   0  0  0  0  0  0  0  0  0  0  0  0
    7.2890  -13.3933    0.0000 C   0  0  0  0  0  0  0  0  0  0  0  0
    3.7149  -12.9850    0.0000 N   0  0  0  0  0  0  0  0  0  0  0  0
    8.0013  -12.9850    0.0000 N   0  0  0  0  0  0  0  0  0  0  0  0
   10.0844  -17.8280    0.0000 C   0  0  0  0  0  0  0  0  0  0  0  0
   12.1168  -18.3253    0.0000 C   0  0  0  0  0  0  0  0  0  0  0  0
   11.3170  -14.0431    0.0000 C   0  0  0  0  0  0  0  0  0  0  0  0
    8.7177  -13.3933    0.0000 C   0  0  0  0  0  0  0  0  0  0  0  0
    4.4272  -13.3933    0.0000 C   0  0  0  0  0  0  0  0  0  0  0  0
    1.5737  -13.3933    0.0000 N   0  0  0  0  0  0  0  0  0  0  0  0
    7.9971  -15.4510    0.0000 N   0  0  0  0  0  0  0  0  0  0  0  0
    2.2861  -12.9850    0.0000 C   0  0  0  0  0  0  0  0  0  0  0  0
    0.8614  -12.9850    0.0000 C   0  0  0  0  0  0  0  0  0  0  0  0
    5.8602  -13.3933    0.0000 N   0  0  0  0  0  0  0  0  0  0  0  0
    8.8094  -18.3086    0.0000 O   0  0  0  0  0  0  0  0  0  0  0  0
   14.6080  -15.4927    0.0000 O   0  0  0  0  0  0  0  0  0  0  0  0
   13.7623  -18.3378    0.0000 O   0  0  0  0  0  0  0  0  0  0  0  0
   12.5627  -13.3349    0.0000 O   0  0  0  0  0  0  0  0  0  0  0  0
   10.8672  -19.0376    0.0000 O   0  0  0  0  0  0  0  0  0  0  0  0
   10.1424  -13.3849    0.0000 O   0  0  0  0  0  0  0  0  0  0  0  0
    6.5642  -12.9850    0.0000 C   0  0  0  0  0  0  0  0  0  0  0  0
    5.1436  -12.9850    0.0000 C   0  0  0  0  0  0  0  0  0  0  0  0
    3.0067  -14.2181    0.0000 O   0  0  0  0  0  0  0  0  0  0  0  0
    7.2890  -14.2181    0.0000 O   0  0  0  0  0  0  0  0  0  0  0  0
    6.7517  -16.1676    0.0000 O   0  0  0  0  0  0  0  0  0  0  0  0
   13.7956  -14.0556    0.0000 C   0  0  0  0  0  0  0  0  0  0  0  0
   14.5955  -16.9174    0.0000 C   0  0  0  0  0  0  0  0  0  0  0  0
    7.5764  -17.5922    0.0000 C   0  0  0  0  0  0  0  0  0  0  0  0
    0.8614  -12.1644    0.0000 O   0  0  0  0  0  0  0  0  0  0  0  0
    4.4272  -14.2181    0.0000 C   0  0  0  0  0  0  0  0  0  0  0  0
    8.7177  -14.2181    0.0000 C   0  0  0  0  0  0  0  0  0  0  0  0
    8.0013  -14.6345    0.0000 C   0  0  0  0  0  0  0  0  0  0  0  0
   12.5168  -19.0501    0.0000 C   0  0  0  0  0  0  0  0  0  0  0  0
   11.7379  -13.3308    0.0000 C   0  0  0  0  0  0  0  0  0  0  0  0
    9.9960  -18.6905    0.0000 C   0  0  0  0  0  0  0  0  0  0  0  0
    2.2861  -12.1644    0.0000 C   0  0  0  0  0  0  0  0  0  0  0  0
    6.5642  -12.1644    0.0000 C   0  0  0  0  0  0  0  0  0  0  0  0
    9.3426  -19.7804    0.0000 N   0  0  0  0  0  0  0  0  0  0  0  0
    5.8602  -10.9231    0.0000 N   0  0  0  0  0  0  0  0  0  0  0  0
    1.5737  -10.9231    0.0000 N   0  0  0  0  0  0  0  0  0  0  0  0
   11.7420  -11.8978    0.0000 N   0  0  0  0  0  0  0  0  0  0  0  0
   12.5043  -20.4706    0.0000 N   0  0  0  0  0  0  0  0  0  0  0  0
    7.9888  -18.3003    0.0000 O   0  0  0  0  0  0  0  0  0  0  0  0
    3.7149  -14.6345    0.0000 O   0  0  0  0  0  0  0  0  0  0  0  0
   14.6204  -14.0597    0.0000 C   0  0  0  0  0  0  0  0  0  0  0  0
   14.9995  -17.6380    0.0000 C   0  0  0  0  0  0  0  0  0  0  0  0
    0.1408  -13.3933    0.0000 C   0  0  0  0  0  0  0  0  0  0  0  0
   11.3254  -12.6143    0.0000 C   0  0  0  0  0  0  0  0  0  0  0  0
    9.3343  -18.8378    0.0000 C   0  0  0  0  0  0  0  0  0  0  0  0
   12.1043  -19.7625    0.0000 C   0  0  0  0  0  0  0  0  0  0  0  0
    1.5737  -11.7478    0.0000 C   0  0  0  0  0  0  0  0  0  0  0  0
    5.8602  -11.7478    0.0000 C   0  0  0  0  0  0  0  0  0  0  0  0
    6.7517  -17.5922    0.0000 C   0  0  0  0  0  0  0  0  0  0  0  0
    5.1436  -14.6345    0.0000 C   0  0  0  0  0  0  0  0  0  0  0  0
   -2.7085  -13.3933    0.0000 C   0  0  0  0  0  0  0  0  0  0  0  0
   -0.5632  -12.9850    0.0000 C   0  0  0  0  0  0  0  0  0  0  0  0
   -3.4250  -12.9850    0.0000 C   0  0  0  0  0  0  0  0  0  0  0  0
   -1.9961  -12.9850    0.0000 C   0  0  0  0  0  0  0  0  0  0  0  0
   15.0370  -13.3599    0.0000 C   0  0  0  0  0  0  0  0  0  0  0  0
   15.0245  -14.7845    0.0000 C   0  0  0  0  0  0  0  0  0  0  0  0
   14.5830  -18.3503    0.0000 C   0  0  0  0  0  0  0  0  0  0  0  0
   15.8284  -17.6422    0.0000 C   0  0  0  0  0  0  0  0  0  0  0  0
   -1.2838  -13.3933    0.0000 C   0  0  0  0  0  0  0  0  0  0  0  0
   -2.7085  -14.2347    0.0000 C   0  0  0  0  0  0  0  0  0  0  0  0
    8.4860  -17.7557    0.0000 H   0  0  0  0  0  0  0  0  0  0  0  0
    8.5811   -6.2609    0.0000 N   0  0  0  0  0  0  0  0  0  0  0  0
    7.7522   -6.2609    0.0000 C   0  0  0  0  0  0  0  0  0  0  0  0
   13.1259   -5.5736    0.0000 N   0  0  0  0  0  0  0  0  0  0  0  0
   12.3136   -4.1322    0.0000 N   0  0  0  0  0  0  0  0  0  0  0  0
   12.2927   -6.9899    0.0000 N   0  0  0  0  0  0  0  0  0  0  0  0
    8.9935   -6.9649    0.0000 C   0  0  0  0  0  0  0  0  0  0  0  0
    9.1851   -1.5329    0.0000 N   0  0  0  0  0  0  0  0  0  0  0  0
   10.6431   -6.9774    0.0000 N   0  0  0  0  0  0  0  0  0  0  0  0
   13.5465   -4.8612    0.0000 C   0  0  0  0  0  0  0  0  0  0  0  0
   13.1134   -6.9982    0.0000 C   0  0  0  0  0  0  0  0  0  0  0  0
   11.9052   -3.4199    0.0000 C   0  0  0  0  0  0  0  0  0  0  0  0
   11.0472   -7.6938    0.0000 C   0  0  0  0  0  0  0  0  0  0  0  0
    9.1934   -2.3577    0.0000 C   0  0  0  0  0  0  0  0  0  0  0  0
    7.3399   -5.5403    0.0000 C   0  0  0  0  0  0  0  0  0  0  0  0
   13.5340   -6.2859    0.0000 C   0  0  0  0  0  0  0  0  0  0  0  0
   13.1384   -4.1406    0.0000 C   0  0  0  0  0  0  0  0  0  0  0  0
    2.7701   -2.7660    0.0000 C   0  0  0  0  0  0  0  0  0  0  0  0
    7.0524   -2.7660    0.0000 C   0  0  0  0  0  0  0  0  0  0  0  0
    3.4783   -2.3577    0.0000 N   0  0  0  0  0  0  0  0  0  0  0  0
    7.7647   -2.3577    0.0000 N   0  0  0  0  0  0  0  0  0  0  0  0
    9.8478   -7.2006    0.0000 C   0  0  0  0  0  0  0  0  0  0  0  0
   11.8802   -7.6980    0.0000 C   0  0  0  0  0  0  0  0  0  0  0  0
   11.0805   -3.4158    0.0000 C   0  0  0  0  0  0  0  0  0  0  0  0
    8.4811   -2.7660    0.0000 C   0  0  0  0  0  0  0  0  0  0  0  0
    4.1906   -2.7660    0.0000 C   0  0  0  0  0  0  0  0  0  0  0  0
    1.3371   -2.7660    0.0000 N   0  0  0  0  0  0  0  0  0  0  0  0
    7.7605   -4.8237    0.0000 N   0  0  0  0  0  0  0  0  0  0  0  0
    2.0495   -2.3577    0.0000 C   0  0  0  0  0  0  0  0  0  0  0  0
    0.6248   -2.3577    0.0000 C   0  0  0  0  0  0  0  0  0  0  0  0
    5.6236   -2.7660    0.0000 N   0  0  0  0  0  0  0  0  0  0  0  0
    8.5728   -7.6813    0.0000 O   0  0  0  0  0  0  0  0  0  0  0  0
   14.3714   -4.8654    0.0000 O   0  0  0  0  0  0  0  0  0  0  0  0
   13.5257   -7.7105    0.0000 O   0  0  0  0  0  0  0  0  0  0  0  0
   12.3261   -2.7076    0.0000 O   0  0  0  0  0  0  0  0  0  0  0  0
   10.6306   -8.4103    0.0000 O   0  0  0  0  0  0  0  0  0  0  0  0
    9.9058   -2.7576    0.0000 O   0  0  0  0  0  0  0  0  0  0  0  0
    6.3276   -2.3577    0.0000 C   0  0  0  0  0  0  0  0  0  0  0  0
    4.9070   -2.3577    0.0000 C   0  0  0  0  0  0  0  0  0  0  0  0
    2.7701   -3.5908    0.0000 O   0  0  0  0  0  0  0  0  0  0  0  0
    7.0524   -3.5908    0.0000 O   0  0  0  0  0  0  0  0  0  0  0  0
    6.5151   -5.5403    0.0000 O   0  0  0  0  0  0  0  0  0  0  0  0
   13.5590   -3.4283    0.0000 C   0  0  0  0  0  0  0  0  0  0  0  0
   14.3589   -6.2901    0.0000 C   0  0  0  0  0  0  0  0  0  0  0  0
    7.3399   -6.9649    0.0000 C   0  0  0  0  0  0  0  0  0  0  0  0
    0.6248   -1.5371    0.0000 O   0  0  0  0  0  0  0  0  0  0  0  0
    4.1906   -3.5908    0.0000 C   0  0  0  0  0  0  0  0  0  0  0  0
    8.4811   -3.5908    0.0000 C   0  0  0  0  0  0  0  0  0  0  0  0
    7.7647   -4.0072    0.0000 C   0  0  0  0  0  0  0  0  0  0  0  0
   12.2802   -8.4228    0.0000 C   0  0  0  0  0  0  0  0  0  0  0  0
   11.5013   -2.7035    0.0000 C   0  0  0  0  0  0  0  0  0  0  0  0
    9.7594   -8.0632    0.0000 C   0  0  0  0  0  0  0  0  0  0  0  0
    2.0495   -1.5371    0.0000 C   0  0  0  0  0  0  0  0  0  0  0  0
    6.3276   -1.5371    0.0000 C   0  0  0  0  0  0  0  0  0  0  0  0
    9.1060   -9.1531    0.0000 N   0  0  0  0  0  0  0  0  0  0  0  0
    5.6236   -0.2958    0.0000 N   0  0  0  0  0  0  0  0  0  0  0  0
    1.3371   -0.2958    0.0000 N   0  0  0  0  0  0  0  0  0  0  0  0
   11.5054   -1.2705    0.0000 N   0  0  0  0  0  0  0  0  0  0  0  0
   12.2677   -9.8433    0.0000 N   0  0  0  0  0  0  0  0  0  0  0  0
    7.7522   -7.6730    0.0000 O   0  0  0  0  0  0  0  0  0  0  0  0
    3.4783   -4.0072    0.0000 O   0  0  0  0  0  0  0  0  0  0  0  0
   14.3838   -3.4324    0.0000 C   0  0  0  0  0  0  0  0  0  0  0  0
   14.7629   -7.0107    0.0000 C   0  0  0  0  0  0  0  0  0  0  0  0
   -0.0958   -2.7660    0.0000 C   0  0  0  0  0  0  0  0  0  0  0  0
   11.0889   -1.9870    0.0000 C   0  0  0  0  0  0  0  0  0  0  0  0
    9.0977   -8.2105    0.0000 C   0  0  0  0  0  0  0  0  0  0  0  0
   11.8677   -9.1352    0.0000 C   0  0  0  0  0  0  0  0  0  0  0  0
    1.3371   -1.1205    0.0000 C   0  0  0  0  0  0  0  0  0  0  0  0
    5.6236   -1.1205    0.0000 C   0  0  0  0  0  0  0  0  0  0  0  0
    6.5151   -6.9649    0.0000 C   0  0  0  0  0  0  0  0  0  0  0  0
    4.9070   -4.0072    0.0000 C   0  0  0  0  0  0  0  0  0  0  0  0
   -2.9451   -2.7660    0.0000 C   0  0  0  0  0  0  0  0  0  0  0  0
   -0.7998   -2.3577    0.0000 C   0  0  0  0  0  0  0  0  0  0  0  0
   -3.6616   -2.3577    0.0000 C   0  0  0  0  0  0  0  0  0  0  0  0
   -2.2327   -2.3577    0.0000 C   0  0  0  0  0  0  0  0  0  0  0  0
   14.8004   -2.7326    0.0000 C   0  0  0  0  0  0  0  0  0  0  0  0
   14.7879   -4.1572    0.0000 C   0  0  0  0  0  0  0  0  0  0  0  0
   14.3464   -7.7230    0.0000 C   0  0  0  0  0  0  0  0  0  0  0  0
   15.5918   -7.0149    0.0000 C   0  0  0  0  0  0  0  0  0  0  0  0
   -1.5204   -2.7660    0.0000 C   0  0  0  0  0  0  0  0  0  0  0  0
   -2.9451   -3.6074    0.0000 C   0  0  0  0  0  0  0  0  0  0  0  0
   -3.6616   -1.5121    0.0000 C   0  0  0  0  0  0  0  0  0  0  0  0
    8.2495   -7.1284    0.0000 H   0  0  0  0  0  0  0  0  0  0  0  0
   -2.0900   -7.4277    0.0000 S   0  0  0  0  0  0  0  0  0  0  0  0
   -1.6819   -6.7086    0.0000 O   0  0  0  0  0  0  0  0  0  0  0  0
   -2.5078   -6.7086    0.0000 O   0  0  0  0  0  0  0  0  0  0  0  0
   -2.8042   -7.8454    0.0000 O   0  0  0  0  0  0  0  0  0  0  0  0
   -1.3758   -7.8454    0.0000 O   0  0  0  0  0  0  0  0  0  0  0  0
    2.0055   -7.3982    0.0000 S   0  0  0  0  0  0  0  0  0  0  0  0
    2.4136   -6.6791    0.0000 O   0  0  0  0  0  0  0  0  0  0  0  0
    1.5877   -6.6791    0.0000 O   0  0  0  0  0  0  0  0  0  0  0  0
    1.2913   -7.8160    0.0000 O   0  0  0  0  0  0  0  0  0  0  0  0
    2.7197   -7.8160    0.0000 O   0  0  0  0  0  0  0  0  0  0  0  0
  5 22  1  0
  6  1  1  0
  7 13  1  0
  8 21  1  0
  9  3  1  0
 10  5  1  0
 11 23  1  0
 12  8  1  0
 13 24  1  0
  2 14  1  0
 15 10  1  0
 16  9  1  0
 17 19  1  0
 18 20  1  0
 25 19  1  1
 24 20  1  6
 21  6  1  0
 22 12  1  0
 23  7  1  0
 24 47  1  0
 25 38  1  0
 28 26  1  1
 27 14  1  0
 28 17  1  0
 29 26  1  0
 37 30  1  1
 31  6  2  0
 32  9  2  0
 33 10  2  0
 34 11  2  0
 35 12  2  0
 36 13  2  0
 37 18  1  0
 38 30  1  0
 39 17  2  0
 40 18  2  0
 41 14  2  0
 16 42  1  6
 15 43  1  1
 44  2  1  0
 45 29  2  0
 46 25  1  0
 47 48  1  0
 48 27  1  0
 22 49  1  1
 23 50  1  6
 21 51  1  1
 52 28  1  0
 53 37  1  0
 54 65  1  0
 55 68  1  0
 56 67  1  0
 57 64  1  0
 58 66  1  0
 44 59  1  6
 46 60  1  1
 61 42  1  0
 62 43  1  0
 63 29  1  0
 64 50  1  0
 65 51  1  0
 66 49  1  0
 67 52  1  0
 68 53  1  0
 69 44  1  0
 70 46  1  0
 71 74  1  0
 72 63  1  0
 73 71  1  0
 74 79  1  0
 75 61  1  0
 76 61  1  0
 77 62  1  0
 78 62  1  0
 79 72  1  0
 80 71  1  0
  4 16  1  0
  2  1  1  0
  3 15  1  0
  4 11  1  0
  2 81  1  6
 86103  1  0
 87 82  1  0
 88 94  1  0
 89102  1  0
 90 84  1  0
 91 86  1  0
 92104  1  0
 93 89  1  0
 94105  1  0
 83 95  1  0
 96 91  1  0
 97 90  1  0
 98100  1  0
 99101  1  0
106100  1  1
105101  1  6
102 87  1  0
103 93  1  0
104 88  1  0
105128  1  0
106119  1  0
109107  1  1
108 95  1  0
109 98  1  0
110107  1  0
118111  1  1
112 87  2  0
113 90  2  0
114 91  2  0
115 92  2  0
116 93  2  0
117 94  2  0
118 99  1  0
119111  1  0
120 98  2  0
121 99  2  0
122 95  2  0
 97123  1  6
 96124  1  1
125 83  1  0
126110  2  0
127106  1  0
128129  1  0
129108  1  0
103130  1  1
104131  1  6
102132  1  1
133109  1  0
134118  1  0
135146  1  0
136149  1  0
137148  1  0
138145  1  0
139147  1  0
125140  1  6
127141  1  1
142123  1  0
143124  1  0
144110  1  0
145131  1  0
146132  1  0
147130  1  0
148133  1  0
149134  1  0
150125  1  0
151127  1  0
152155  1  0
153144  1  0
154152  1  0
155160  1  0
156142  1  0
157142  1  0
158143  1  0
159143  1  0
160153  1  0
161152  1  0
162154  1  0
 85 97  1  0
 83 82  1  0
 84 96  1  0
 85 92  1  0
 83163  1  6
165164  2  0
166164  2  0
167164  1  0
168164  1  0
170169  2  0
171169  2  0
172169  1  0
173169  1  0
M  END
> <chembl_id>
CHEMBL2218908

> <chembl_pref_name>
COLISTIN SULFATE
