
     RDKit          2D

 23 25  0  0  0  0  0  0  0  0999 V2000
    1.5875   -3.3417    0.0000 Cl  0  0  0  0  0  0  0  0  0  0  0  0
    0.1417   -1.1958    0.0000 C   0  0  0  0  0  0  0  0  0  0  0  0
    0.1417   -1.9042    0.0000 C   0  0  0  0  0  0  0  0  0  0  0  0
   -0.5333   -2.1292    0.0000 N   0  0  0  0  0  0  0  0  0  0  0  0
    0.7583   -0.8375    0.0000 C   0  0  0  0  0  0  0  0  0  0  0  0
   -0.5375   -0.9792    0.0000 C   0  0  0  0  0  0  0  0  0  0  0  0
    1.3750   -1.1917    0.0000 N   0  0  0  0  0  0  0  0  0  0  0  0
   -0.9583   -1.5542    0.0000 C   0  0  0  0  0  0  0  0  0  0  0  0
    2.6083   -1.1958    0.0000 C   0  0  0  0  0  0  0  0  0  0  0  0
    3.1833   -0.7708    0.0000 N   0  0  0  0  0  0  0  0  0  0  0  0
    0.7583   -2.2625    0.0000 C   0  0  0  0  0  0  0  0  0  0  0  0
    1.9958   -0.8375    0.0000 C   0  0  0  0  0  0  0  0  0  0  0  0
    2.8292   -1.8708    0.0000 C   0  0  0  0  0  0  0  0  0  0  0  0
    3.7625   -1.1958    0.0000 C   0  0  0  0  0  0  0  0  0  0  0  0
    3.5417   -1.8708    0.0000 N   0  0  0  0  0  0  0  0  0  0  0  0
    1.3750   -1.9042    0.0000 C   0  0  0  0  0  0  0  0  0  0  0  0
    0.7625   -0.1250    0.0000 O   0  0  0  0  0  0  0  0  0  0  0  0
   -0.7500   -2.8083    0.0000 C   0  0  0  0  0  0  0  0  0  0  0  0
   -0.8250   -0.3333    0.0000 C   0  0  0  0  0  0  0  0  0  0  0  0
   -1.6583   -1.4833    0.0000 C   0  0  0  0  0  0  0  0  0  0  0  0
    2.4667   -2.4792    0.0000 C   0  0  0  0  0  0  0  0  0  0  0  0
   -1.5333   -0.2583    0.0000 C   0  0  0  0  0  0  0  0  0  0  0  0
   -1.9500   -0.8417    0.0000 C   0  0  0  0  0  0  0  0  0  0  0  0
  3  2  2  0
  4  3  1  0
  5  2  1  0
  6  2  1  0
  7  5  1  0
  8  6  2  0
  9 12  1  0
 10  9  1  0
 11  3  1  0
 12  7  1  0
 13  9  2  0
 14 10  2  0
 15 13  1  0
 16 11  1  0
 17  5  2  0
 18  4  1  0
 19  6  1  0
 20  8  1  0
 21 13  1  0
 22 19  2  0
 23 22  1  0
  4  8  1  0
  7 16  1  0
 20 23  2  0
 14 15  1  0
M  END
> <chembl_id>
CHEMBL1200885

> <chembl_pref_name>
ALOSETRON HYDROCHLORIDE
