
     RDKit          2D

 23 24  0  0  0  0  0  0  0  0999 V2000
    3.1000   -4.4042    0.0000 C   0  0  0  0  0  0  0  0  0  0  0  0
    2.4875   -4.0500    0.0000 C   0  0  0  0  0  0  0  0  0  0  0  0
    3.7125   -4.0458    0.0000 C   0  0  0  0  0  0  0  0  0  0  0  0
    1.8750   -4.4083    0.0000 C   0  0  0  0  0  0  0  0  0  0  0  0
    4.3292   -4.4000    0.0000 C   0  0  0  0  0  0  0  0  0  0  0  0
    0.0375   -5.4750    0.0000 C   0  0  0  0  0  0  0  0  0  0  0  0
    0.6500   -5.1208    0.0000 C   0  0  0  0  0  0  0  0  0  0  0  0
    3.7125   -3.3375    0.0000 O   0  0  0  0  0  0  0  0  0  0  0  0
    2.4833   -3.3417    0.0000 O   0  0  0  0  0  0  0  0  0  0  0  0
    1.2625   -4.0542    0.0000 C   0  0  0  0  0  0  0  0  0  0  0  0
    1.8750   -5.1208    0.0000 C   0  0  0  0  0  0  0  0  0  0  0  0
    0.6500   -4.4125    0.0000 C   0  0  0  0  0  0  0  0  0  0  0  0
    1.2625   -5.4750    0.0000 C   0  0  0  0  0  0  0  0  0  0  0  0
    4.9333   -4.0417    0.0000 C   0  0  0  0  0  0  0  0  0  0  0  0
    4.3292   -5.1083    0.0000 C   0  0  0  0  0  0  0  0  0  0  0  0
    5.5542   -5.1042    0.0000 C   0  0  0  0  0  0  0  0  0  0  0  0
    4.9417   -5.4583    0.0000 C   0  0  0  0  0  0  0  0  0  0  0  0
    5.5500   -4.3917    0.0000 C   0  0  0  0  0  0  0  0  0  0  0  0
    6.1708   -5.4542    0.0000 O   0  0  0  0  0  0  0  0  0  0  0  0
   -0.5792   -5.1208    0.0000 C   0  0  0  0  0  0  0  0  0  0  0  0
    0.3875   -6.0875    0.0000 C   0  0  0  0  0  0  0  0  0  0  0  0
   -0.3208   -6.0875    0.0000 C   0  0  0  0  0  0  0  0  0  0  0  0
    6.7792   -5.0958    0.0000 C   0  0  0  0  0  0  0  0  0  0  0  0
  2  1  1  0
  3  1  1  0
  4  2  1  0
  5  3  1  0
  6  7  1  0
  7 13  1  0
  8  3  2  0
  9  2  2  0
 10  4  2  0
 11  4  1  0
 12 10  1  0
 13 11  2  0
 14  5  1  0
 15  5  2  0
 16 18  1  0
 17 15  1  0
 18 14  2  0
 19 16  1  0
 20  6  1  0
 21  6  1  0
 22  6  1  0
 23 19  1  0
 16 17  2  0
  7 12  2  0
M  END
> <chembl_id>
CHEMBL1200522

> <chembl_pref_name>
AVOBENZONE
