
     RDKit          2D

 24 24  0  0  0  0  0  0  0  0999 V2000
    1.9625   -6.5917    0.0000 Cl  0  0  0  0  0  0  0  0  0  0  0  0
    2.6375   -4.7333    0.0000 C   0  0  0  0  0  0  0  0  0  0  0  0
    2.6375   -4.0083    0.0000 C   0  0  0  0  0  0  0  0  0  0  0  0
    2.0208   -5.0958    0.0000 N   0  0  0  0  0  0  0  0  0  0  0  0
    3.3375   -4.9458    0.0000 N   0  0  0  0  0  0  0  0  0  0  0  0
    1.4000   -4.0083    0.0000 N   0  0  0  0  0  0  0  0  0  0  0  0
    3.3500   -3.7958    0.0000 N   0  0  0  0  0  0  0  0  0  0  0  0
    2.0208   -3.6333    0.0000 C   0  0  0  0  0  0  0  0  0  0  0  0
    1.4000   -4.7208    0.0000 C   0  0  0  0  0  0  0  0  0  0  0  0
    3.7375   -4.3708    0.0000 C   0  0  0  0  0  0  0  0  0  0  0  0
    6.4250   -5.9833    0.0000 C   0  0  0  0  0  0  0  0  0  0  0  0
    7.0416   -5.6333    0.0000 C   0  0  0  0  0  0  0  0  0  0  0  0
    2.0208   -2.9458    0.0000 O   0  0  0  0  0  0  0  0  0  0  0  0
    3.3375   -5.6333    0.0000 C   0  0  0  0  0  0  0  0  0  0  0  0
    6.4250   -6.6833    0.0000 O   0  0  0  0  0  0  0  0  0  0  0  0
    0.8000   -5.0708    0.0000 N   0  0  0  0  0  0  0  0  0  0  0  0
    7.0416   -4.9249    0.0000 N   0  0  0  0  0  0  0  0  0  0  0  0
    7.6541   -5.9874    0.0000 C   0  0  0  0  0  0  0  0  0  0  0  0
    5.8125   -5.6333    0.0000 O   0  0  0  0  0  0  0  0  0  0  0  0
    3.9625   -5.9833    0.0000 O   0  0  0  0  0  0  0  0  0  0  0  0
    5.1875   -5.9833    0.0000 C   0  0  0  0  0  0  0  0  0  0  0  0
    7.6541   -6.6958    0.0000 C   0  0  0  0  0  0  0  0  0  0  0  0
    8.2666   -5.6333    0.0000 C   0  0  0  0  0  0  0  0  0  0  0  0
    4.5750   -5.6333    0.0000 C   0  0  0  0  0  0  0  0  0  0  0  0
  3  2  2  0
  4  2  1  0
  5  2  1  0
  6  9  2  0
  7  3  1  0
  8  3  1  0
  9  4  1  0
 10  5  1  0
 11 19  1  0
 12 11  1  0
 13  8  2  0
 14  5  1  0
 15 11  2  0
 16  9  1  0
 12 17  1  1
 18 12  1  0
 19 21  1  0
 20 14  1  0
 21 24  1  0
 22 18  1  0
 23 18  1  0
 24 20  1  0
  7 10  2  0
  8  6  1  0
M  END
> <chembl_id>
CHEMBL1201110

> <chembl_pref_name>
VALACYCLOVIR HYDROCHLORIDE
