
     RDKit          2D

 53 58  0  0  0  0  0  0  0  0999 V2000
   10.6079   -8.2979    0.0000 O   0  0  0  0  0  0  0  0  0  0  0  0
    6.8364   -6.2285    0.0000 N   0  0  0  0  0  0  0  0  0  0  0  0
    7.5312   -4.9983    0.0000 C   0  0  0  0  0  0  0  0  0  0  0  0
    6.1128   -5.8088    0.0000 C   0  0  0  0  0  0  0  0  0  0  0  0
    5.3891   -6.2285    0.0000 C   0  0  0  0  0  0  0  0  0  0  0  0
    6.1128   -4.9838    0.0000 C   0  0  0  0  0  0  0  0  0  0  0  0
    7.5312   -5.8039    0.0000 C   0  0  0  0  0  0  0  0  0  0  0  0
    6.8075   -4.5930    0.0000 C   0  0  0  0  0  0  0  0  0  0  0  0
    4.6654   -5.8039    0.0000 C   0  0  0  0  0  0  0  0  0  0  0  0
    5.3891   -7.0535    0.0000 O   0  0  0  0  0  0  0  0  0  0  0  0
    4.6654   -4.9983    0.0000 C   0  0  0  0  0  0  0  0  0  0  0  0
    5.3746   -4.5930    0.0000 C   0  0  0  0  0  0  0  0  0  0  0  0
    3.9562   -6.1996    0.0000 N   0  0  0  0  0  0  0  0  0  0  0  0
    8.2404   -4.5930    0.0000 C   0  0  0  0  0  0  0  0  0  0  0  0
    6.8364   -7.0535    0.0000 C   0  0  0  0  0  0  0  0  0  0  0  0
    2.5184   -7.0535    0.0000 N   0  0  0  0  0  0  0  0  0  0  0  0
    6.8075   -3.7680    0.0000 O   0  0  0  0  0  0  0  0  0  0  0  0
    6.1128   -7.4684    0.0000 C   0  0  0  0  0  0  0  0  0  0  0  0
    3.2421   -5.8039    0.0000 C   0  0  0  0  0  0  0  0  0  0  0  0
    3.9562   -7.0535    0.0000 C   0  0  0  0  0  0  0  0  0  0  0  0
    8.2404   -3.7535    0.0000 O   0  0  0  0  0  0  0  0  0  0  0  0
    3.9562   -4.5930    0.0000 F   0  0  0  0  0  0  0  0  0  0  0  0
    2.5184   -6.1996    0.0000 C   0  0  0  0  0  0  0  0  0  0  0  0
    3.2421   -7.4684    0.0000 C   0  0  0  0  0  0  0  0  0  0  0  0
    8.9641   -4.9838    0.0000 O   0  0  0  0  0  0  0  0  0  0  0  0
    1.8382   -7.4395    0.0000 C   0  0  0  0  0  0  0  0  0  0  0  0
    7.5118   -7.3961    0.0000 C   0  0  0  0  0  0  0  0  0  0  0  0
    6.0867  -11.2973    0.0000 N   0  0  0  0  0  0  0  0  0  0  0  0
    6.7814  -10.0670    0.0000 C   0  0  0  0  0  0  0  0  0  0  0  0
    5.3630  -10.8775    0.0000 C   0  0  0  0  0  0  0  0  0  0  0  0
    4.6393  -11.2973    0.0000 C   0  0  0  0  0  0  0  0  0  0  0  0
    5.3630  -10.0525    0.0000 C   0  0  0  0  0  0  0  0  0  0  0  0
    6.7814  -10.8727    0.0000 C   0  0  0  0  0  0  0  0  0  0  0  0
    6.0577   -9.6617    0.0000 C   0  0  0  0  0  0  0  0  0  0  0  0
    3.9156  -10.8727    0.0000 C   0  0  0  0  0  0  0  0  0  0  0  0
    4.6393  -12.1223    0.0000 O   0  0  0  0  0  0  0  0  0  0  0  0
    3.9156  -10.0670    0.0000 C   0  0  0  0  0  0  0  0  0  0  0  0
    4.6249   -9.6617    0.0000 C   0  0  0  0  0  0  0  0  0  0  0  0
    3.2065  -11.2683    0.0000 N   0  0  0  0  0  0  0  0  0  0  0  0
    7.4907   -9.6617    0.0000 C   0  0  0  0  0  0  0  0  0  0  0  0
    6.0867  -12.1223    0.0000 C   0  0  0  0  0  0  0  0  0  0  0  0
    1.7687  -12.1223    0.0000 N   0  0  0  0  0  0  0  0  0  0  0  0
    6.0577   -8.8367    0.0000 O   0  0  0  0  0  0  0  0  0  0  0  0
    5.3630  -12.5372    0.0000 C   0  0  0  0  0  0  0  0  0  0  0  0
    2.4923  -10.8727    0.0000 C   0  0  0  0  0  0  0  0  0  0  0  0
    3.2065  -12.1223    0.0000 C   0  0  0  0  0  0  0  0  0  0  0  0
    7.4907   -8.8223    0.0000 O   0  0  0  0  0  0  0  0  0  0  0  0
    3.2065   -9.6617    0.0000 F   0  0  0  0  0  0  0  0  0  0  0  0
    1.7687  -11.2683    0.0000 C   0  0  0  0  0  0  0  0  0  0  0  0
    2.4923  -12.5372    0.0000 C   0  0  0  0  0  0  0  0  0  0  0  0
    8.2143  -10.0525    0.0000 O   0  0  0  0  0  0  0  0  0  0  0  0
    1.0884  -12.5082    0.0000 C   0  0  0  0  0  0  0  0  0  0  0  0
    6.7621  -12.4648    0.0000 C   0  0  0  0  0  0  0  0  0  0  0  0
  3  7  2  0
  4  2  1  0
  5  4  1  0
  6  4  2  0
  7  2  1  0
  8  3  1  0
  9  5  2  0
 10 18  1  0
 11 12  2  0
 12  6  1  0
 13  9  1  0
 14  3  1  0
 15  2  1  0
 16 24  1  0
 17  8  2  0
 18 15  1  0
 19 13  1  0
 20 13  1  0
 21 14  2  0
 22 11  1  0
 23 19  1  0
 24 20  1  0
 25 14  1  0
 26 16  1  0
 15 27  1  1
 10  5  1  0
  8  6  1  0
 11  9  1  0
 16 23  1  0
 29 33  2  0
 30 28  1  0
 31 30  1  0
 32 30  2  0
 33 28  1  0
 34 29  1  0
 35 31  2  0
 36 44  1  0
 37 38  2  0
 38 32  1  0
 39 35  1  0
 40 29  1  0
 41 28  1  0
 42 50  1  0
 43 34  2  0
 44 41  1  0
 45 39  1  0
 46 39  1  0
 47 40  2  0
 48 37  1  0
 49 45  1  0
 50 46  1  0
 51 40  1  0
 52 42  1  0
 41 53  1  1
 36 31  1  0
 34 32  1  0
 37 35  1  0
 42 49  1  0
M  END
> <chembl_id>
CHEMBL5315124

> <chembl_pref_name>
LEVOFLOXACIN
