
     RDKit          2D

 32 35  0  0  1  0  0  0  0  0999 V2000
    0.0576    0.3408    0.0000 C   0  0  0  0  0  0  0  0  0  0  0  0
   -2.2131   -0.6374    0.0000 C   0  0  0  0  0  0  0  0  0  0  0  0
   -2.3193   -1.4607    0.0000 C   0  0  0  0  0  0  0  0  0  0  0  0
   -0.0487   -0.4780    0.0000 C   0  0  0  0  0  0  0  0  0  0  0  0
   -1.4562   -0.3187    0.0000 C   0  0  0  0  0  0  0  0  0  0  0  0
   -0.7967   -0.8012    0.0000 C   0  0  0  0  0  0  0  0  0  0  0  0
    0.8764    0.5046    0.0000 C   0  0  0  0  0  0  0  0  0  0  0  0
   -1.6466   -1.9520    0.0000 C   0  0  0  0  0  0  0  0  0  0  0  0
   -0.5843    0.8321    0.0000 C   0  0  0  0  0  0  0  0  0  0  0  0
   -0.8985   -1.6245    0.0000 C   0  0  0  0  0  0  0  0  0  0  0  0
   -1.3500    0.5046    0.0000 C   0  0  0  0  0  0  0  0  0  0  0  0
    0.7171   -0.8233    0.0000 C   0  0  0  0  0  0  0  0  0  0  0  0
   -2.8770   -0.1461    0.0000 C   0  0  0  0  0  0  0  0  0  0  0  0
    1.2615   -0.2125    0.0000 C   0  0  0  0  0  0  0  0  0  0  0  0
   -3.0807   -1.7838    0.0000 C   0  0  0  0  0  0  0  0  0  0  0  0
    1.2394    1.2570    0.0000 C   0  0  0  0  0  0  0  0  0  0  0  0
    0.3232    1.1154    0.0000 C   0  0  0  0  0  0  0  0  0  0  0  0
   -3.6251   -0.4780    0.0000 C   0  0  0  0  0  0  0  0  0  0  0  0
   -3.7402   -1.2925    0.0000 C   0  0  0  0  0  0  0  0  0  0  0  0
   -2.1202    0.1726    0.0000 C   0  0  0  0  0  0  0  0  0  0  0  0
   -4.5103   -1.6245    0.0000 O   0  0  0  0  0  0  0  0  0  0  0  0
    2.5274    0.6196    0.0000 C   0  0  0  0  0  0  0  0  0  0  0  0
    2.0760    1.3101    0.0000 C   0  0  0  0  0  0  0  0  0  0  0  0
    0.7746    1.9608    0.0000 C   0  0  0  0  0  0  0  0  0  0  0  0
    3.3375    0.6595    0.0000 C   0  0  0  0  0  0  0  0  0  0  0  0
    3.7845   -0.0310    0.0000 C   0  0  0  0  0  0  0  0  0  0  0  0
    4.6122    0.0000    0.0000 C   0  0  0  0  0  0  0  0  0  0  0  0
    3.4038   -0.7746    0.0000 C   0  0  0  0  0  0  0  0  0  0  0  0
    1.8762    0.5263    0.0000 H   0  0  0  0  0  0  0  0  0  0  0  0
    0.0036   -1.4008    0.0000 H   0  0  0  0  0  0  0  0  0  0  0  0
   -2.2521    0.2867    0.0000 H   0  0  0  0  0  0  0  0  0  0  0  0
   -0.0566   -1.4780    0.0000 H   0  0  0  0  0  0  0  0  0  0  0  0
  2  5  1  0
  3  2  1  0
  4  1  1  0
  5 11  1  0
  6  4  1  0
  7  1  1  0
  8 10  1  0
  9  1  1  0
 10  6  1  0
 11  9  1  0
 12  4  1  0
 13  2  1  0
  7 14  1  0
 15  3  1  0
  7 16  1  0
  1 17  1  1
 18 13  1  0
 19 18  1  0
  2 20  1  1
 19 21  1  1
 22 23  1  0
 23 16  1  0
 16 24  1  6
 25 22  1  0
 26 25  1  0
 27 26  1  0
 28 26  1  0
 12 14  1  0
  6  5  1  0
  8  3  2  0
 15 19  1  0
  7 29  1  6
  6 30  1  1
  5 31  1  6
  4 32  1  6
M  END
> <chembl_id>
CHEMBL112570

> <chembl_pref_name>
CHOLESTEROL
