
     RDKit          2D

 34 37  0  0  0  0  0  0  0  0999 V2000
  -23.0116   -2.2982    0.0000 C   0  0  0  0  0  0  0  0  0  0  0  0
  -23.7261   -2.7107    0.0000 C   0  0  0  0  0  0  0  0  0  0  0  0
  -23.7261   -3.5357    0.0000 C   0  0  0  0  0  0  0  0  0  0  0  0
  -23.0116   -3.9482    0.0000 C   0  0  0  0  0  0  0  0  0  0  0  0
  -22.2971   -3.5357    0.0000 C   0  0  0  0  0  0  0  0  0  0  0  0
  -22.2971   -2.7107    0.0000 C   0  0  0  0  0  0  0  0  0  0  0  0
  -24.4406   -3.9482    0.0000 C   0  0  0  0  0  0  0  0  0  0  0  0
  -21.5826   -3.9482    0.0000 C   0  0  0  0  0  0  0  0  0  0  0  0
  -21.5826   -2.2982    0.0000 C   0  0  0  0  0  0  0  0  0  0  0  0
  -20.8682   -2.7107    0.0000 O   0  0  0  0  0  0  0  0  0  0  0  0
  -21.5826   -1.4732    0.0000 O   0  0  0  0  0  0  0  0  0  0  0  0
  -20.1537   -2.2982    0.0000 C   0  0  0  0  0  0  0  0  0  0  0  0
  -19.4392   -2.7107    0.0000 C   0  0  0  0  0  0  0  0  0  0  0  0
  -19.4392   -3.5357    0.0000 C   0  0  0  0  0  0  0  0  0  0  0  0
  -18.7248   -3.9482    0.0000 C   0  0  0  0  0  0  0  0  0  0  0  0
  -18.0103   -3.5357    0.0000 C   0  0  0  0  0  0  0  0  0  0  0  0
  -18.0103   -2.7107    0.0000 C   0  0  0  0  0  0  0  0  0  0  0  0
  -18.7247   -2.2982    0.0000 C   0  0  0  0  0  0  0  0  0  0  0  0
  -17.2958   -3.9482    0.0000 C   0  0  0  0  0  0  0  0  0  0  0  0
  -16.5813   -3.5357    0.0000 C   0  0  0  0  0  0  0  0  0  0  0  0
  -15.8669   -3.9482    0.0000 N   0  0  0  0  0  0  0  0  0  0  0  0
  -16.5813   -2.7107    0.0000 O   0  0  0  0  0  0  0  0  0  0  0  0
  -17.2958   -4.7732    0.0000 C   0  0  0  0  0  0  0  0  0  0  0  0
  -16.5813   -5.1857    0.0000 N   0  0  0  0  0  0  0  0  0  0  0  0
  -15.1524   -3.5357    0.0000 C   0  0  0  0  0  0  0  0  0  0  0  0
  -14.4379   -3.9482    0.0000 C   0  0  0  0  0  0  0  0  0  0  0  0
  -13.7234   -3.5357    0.0000 C   0  0  0  0  0  0  0  0  0  0  0  0
  -13.7235   -2.7106    0.0000 C   0  0  0  0  0  0  0  0  0  0  0  0
  -14.4379   -2.2981    0.0000 C   0  0  0  0  0  0  0  0  0  0  0  0
  -15.1524   -2.7106    0.0000 C   0  0  0  0  0  0  0  0  0  0  0  0
  -13.0089   -3.9481    0.0000 C   0  0  0  0  0  0  0  0  0  0  0  0
  -12.2945   -3.5356    0.0000 C   0  0  0  0  0  0  0  0  0  0  0  0
  -12.2945   -2.7106    0.0000 N   0  0  0  0  0  0  0  0  0  0  0  0
  -13.0090   -2.2981    0.0000 C   0  0  0  0  0  0  0  0  0  0  0  0
  1  2  2  0
  1  6  1  0
  2  3  1  0
  3  4  2  0
  4  5  1  0
  5  6  2  0
  3  7  1  0
  5  8  1  0
  6  9  1  0
  9 10  1  0
  9 11  2  0
 10 12  1  0
 12 13  1  0
 13 14  1  0
 13 18  2  0
 14 15  2  0
 15 16  1  0
 16 17  2  0
 17 18  1  0
 16 19  1  0
 19 20  1  0
 20 21  1  0
 20 22  2  0
 19 23  1  6
 23 24  1  0
 21 25  1  0
 25 26  1  0
 25 30  2  0
 26 27  2  0
 28 29  2  0
 29 30  1  0
 27 31  1  0
 27 28  1  0
 28 34  1  0
 31 32  2  0
 32 33  1  0
 33 34  2  0
M  END
> <chembl_id>
CHEMBL4594250

> <chembl_pref_name>
NETARSUDIL
