
     RDKit          2D

 78 82  0  0  0  0  0  0  0  0999 V2000
   -3.4109   -1.2780    0.0000 C   0  0  0  0  0  0  0  0  0  0  0  0
   -2.5859   -1.2780    0.0000 N   0  0  0  0  0  0  0  0  0  0  0  0
   -0.3320   -1.2780    0.0000 N   0  0  0  0  0  0  0  0  0  0  0  0
    2.6364   -0.0405    0.0000 C   0  0  0  0  0  0  0  0  0  0  0  0
    4.1759   -1.2780    0.0000 N   0  0  0  0  0  0  0  0  0  0  0  0
    6.4298   -1.2780    0.0000 N   0  0  0  0  0  0  0  0  0  0  0  0
    8.6838   -1.2780    0.0000 N   0  0  0  0  0  0  0  0  0  0  0  0
   10.9377   -1.2780    0.0000 N   0  0  0  0  0  0  0  0  0  0  0  0
   13.1917   -1.2780    0.0000 N   0  0  0  0  0  0  0  0  0  0  0  0
   15.4456   -1.2780    0.0000 N   0  0  0  0  0  0  0  0  0  0  0  0
    0.3825   -0.8655    0.0000 C   0  0  0  0  0  0  0  0  0  0  0  0
    0.3825   -0.0405    0.0000 C   0  0  0  0  0  0  0  0  0  0  0  0
    1.0970    0.3720    0.0000 S   0  0  0  0  0  0  0  0  0  0  0  0
    1.0970   -1.2780    0.0000 C   0  0  0  0  0  0  0  0  0  0  0  0
    1.0970   -2.1030    0.0000 O   0  0  0  0  0  0  0  0  0  0  0  0
    4.8904   -0.8655    0.0000 C   0  0  0  0  0  0  0  0  0  0  0  0
    4.8904   -0.0405    0.0000 C   0  0  0  0  0  0  0  0  0  0  0  0
    5.6048    0.3720    0.0000 C   0  0  0  0  0  0  0  0  0  0  0  0
    5.6911    1.1925    0.0000 C   0  0  0  0  0  0  0  0  0  0  0  0
    6.4981    1.3640    0.0000 N   0  0  0  0  0  0  0  0  0  0  0  0
    6.9106    0.6495    0.0000 C   0  0  0  0  0  0  0  0  0  0  0  0
    6.3585    0.0365    0.0000 N   0  0  0  0  0  0  0  0  0  0  0  0
    5.6048   -1.2780    0.0000 C   0  0  0  0  0  0  0  0  0  0  0  0
    5.6048   -2.1030    0.0000 O   0  0  0  0  0  0  0  0  0  0  0  0
   11.6522   -0.8655    0.0000 C   0  0  0  0  0  0  0  0  0  0  0  0
   11.6522   -0.0405    0.0000 C   0  0  0  0  0  0  0  0  0  0  0  0
   12.3667    0.3720    0.0000 C   0  0  0  0  0  0  0  0  0  0  0  0
   13.1203    0.0365    0.0000 C   0  0  0  0  0  0  0  0  0  0  0  0
   13.6724    0.6495    0.0000 N   0  0  0  0  0  0  0  0  0  0  0  0
   13.2599    1.3640    0.0000 C   0  0  0  0  0  0  0  0  0  0  0  0
   12.4529    1.1925    0.0000 C   0  0  0  0  0  0  0  0  0  0  0  0
   11.9009    1.8056    0.0000 C   0  0  0  0  0  0  0  0  0  0  0  0
   12.1558    2.5902    0.0000 C   0  0  0  0  0  0  0  0  0  0  0  0
   12.9628    2.7617    0.0000 C   0  0  0  0  0  0  0  0  0  0  0  0
   13.5148    2.1486    0.0000 C   0  0  0  0  0  0  0  0  0  0  0  0
   12.3667   -1.2780    0.0000 C   0  0  0  0  0  0  0  0  0  0  0  0
   12.3667   -2.1030    0.0000 O   0  0  0  0  0  0  0  0  0  0  0  0
    9.3983   -0.8655    0.0000 C   0  0  0  0  0  0  0  0  0  0  0  0
    9.3983   -0.0405    0.0000 C   0  0  0  0  0  0  0  0  0  0  0  0
   10.1127    0.3720    0.0000 C   0  0  0  0  0  0  0  0  0  0  0  0
   10.1127    1.1970    0.0000 C   0  0  0  0  0  0  0  0  0  0  0  0
   10.8272    1.6095    0.0000 N   0  0  0  0  0  0  0  0  0  0  0  0
   10.8272    2.4345    0.0000 C   0  0  0  0  0  0  0  0  0  0  0  0
   10.1127    2.8470    0.0000 N   0  0  0  0  0  0  0  0  0  0  0  0
   11.5417    2.8470    0.0000 N   0  0  0  0  0  0  0  0  0  0  0  0
   10.1127   -1.2780    0.0000 C   0  0  0  0  0  0  0  0  0  0  0  0
   10.8272   -0.8655    0.0000 O   0  0  0  0  0  0  0  0  0  0  0  0
    2.6364   -0.8655    0.0000 C   0  0  0  0  0  0  0  0  0  0  0  0
    1.9220   -1.2780    0.0000 N   0  0  0  0  0  0  0  0  0  0  0  0
    3.3509   -1.2780    0.0000 C   0  0  0  0  0  0  0  0  0  0  0  0
    3.3509   -2.1030    0.0000 O   0  0  0  0  0  0  0  0  0  0  0  0
   13.9061   -0.8655    0.0000 C   0  0  0  0  0  0  0  0  0  0  0  0
   13.9061   -0.0405    0.0000 C   0  0  0  0  0  0  0  0  0  0  0  0
   14.6206    0.3720    0.0000 S   0  0  0  0  0  0  0  0  0  0  0  0
   14.6206   -1.2780    0.0000 C   0  0  0  0  0  0  0  0  0  0  0  0
   14.6206   -2.1030    0.0000 O   0  0  0  0  0  0  0  0  0  0  0  0
    7.1443   -0.8655    0.0000 C   0  0  0  0  0  0  0  0  0  0  0  0
    7.1443   -0.0405    0.0000 C   0  0  0  0  0  0  0  0  0  0  0  0
    7.8588    0.3720    0.0000 C   0  0  0  0  0  0  0  0  0  0  0  0
    7.8588    1.1970    0.0000 C   0  0  0  0  0  0  0  0  0  0  0  0
    8.5733    1.6095    0.0000 C   0  0  0  0  0  0  0  0  0  0  0  0
    9.2877    1.1970    0.0000 C   0  0  0  0  0  0  0  0  0  0  0  0
    9.2877    0.3720    0.0000 C   0  0  0  0  0  0  0  0  0  0  0  0
    8.5733   -0.0405    0.0000 C   0  0  0  0  0  0  0  0  0  0  0  0
    7.8588   -1.2780    0.0000 C   0  0  0  0  0  0  0  0  0  0  0  0
    7.8588   -2.1030    0.0000 O   0  0  0  0  0  0  0  0  0  0  0  0
   -1.8715   -0.8655    0.0000 C   0  0  0  0  0  0  0  0  0  0  0  0
   -1.8715   -0.0405    0.0000 C   0  0  0  0  0  0  0  0  0  0  0  0
   -1.1570    0.3720    0.0000 C   0  0  0  0  0  0  0  0  0  0  0  0
   -1.1570    1.1970    0.0000 C   0  0  0  0  0  0  0  0  0  0  0  0
   -0.4425    1.6095    0.0000 N   0  0  0  0  0  0  0  0  0  0  0  0
   -0.4425    2.4345    0.0000 C   0  0  0  0  0  0  0  0  0  0  0  0
   -1.1570    2.8470    0.0000 N   0  0  0  0  0  0  0  0  0  0  0  0
    0.2720    2.8470    0.0000 N   0  0  0  0  0  0  0  0  0  0  0  0
   -1.1570   -1.2780    0.0000 C   0  0  0  0  0  0  0  0  0  0  0  0
   -0.4425   -0.8655    0.0000 O   0  0  0  0  0  0  0  0  0  0  0  0
   -3.8234   -1.9925    0.0000 O   0  0  0  0  0  0  0  0  0  0  0  0
   -3.8234   -0.5635    0.0000 C   0  0  0  0  0  0  0  0  0  0  0  0
  1  2  1  0
 75  3  1  0
 14 49  1  0
 50  5  1  0
 23  6  1  0
 65  7  1  0
 46  8  1  0
 36  9  1  0
 55 10  1  0
 11  3  1  1
 11 12  1  0
 12 13  1  0
 11 14  1  0
 14 15  2  0
 16  5  1  1
 16 17  1  0
 17 18  1  0
 18 19  2  0
 19 20  1  0
 20 21  1  0
 21 22  2  0
 18 22  1  0
 16 23  1  0
 23 24  2  0
 25  8  1  1
 25 26  1  0
 26 27  1  0
 27 28  2  0
 28 29  1  0
 29 30  1  0
 30 31  2  0
 27 31  1  0
 31 32  1  0
 32 33  2  0
 33 34  1  0
 34 35  2  0
 30 35  1  0
 25 36  1  0
 36 37  2  0
 38  7  1  1
 38 39  1  0
 39 40  1  0
 40 41  1  0
 41 42  1  0
 42 43  1  0
 43 44  1  0
 43 45  2  0
 38 46  1  0
 46 47  2  0
  4 48  1  0
 48 49  1  6
 48 50  1  0
 50 51  2  0
 52  9  1  1
 52 53  1  0
 53 54  1  0
 52 55  1  0
 55 56  2  0
 57  6  1  6
 57 58  1  0
 58 59  1  0
 59 60  2  0
 60 61  1  0
 61 62  2  0
 62 63  1  0
 63 64  2  0
 59 64  1  0
 57 65  1  0
 65 66  2  0
 67  2  1  1
 67 68  1  0
 68 69  1  0
 69 70  1  0
 70 71  1  0
 71 72  1  0
 72 73  1  0
 72 74  2  0
 67 75  1  0
 75 76  2  0
  1 77  2  0
  1 78  1  0
 13 54  1  0
M  END
> <chembl_id>
CHEMBL3301624

> <chembl_pref_name>
SETMELANOTIDE
