
     RDKit          2D

 22 23  0  0  0  0  0  0  0  0999 V2000
   -0.8500   -0.3792    0.0000 C   0  0  0  0  0  0  0  0  0  0  0  0
   -1.6333   -0.6417    0.0000 C   0  0  0  0  0  0  0  0  0  0  0  0
   -0.8458   -1.7167    0.0000 N   0  0  0  0  0  0  0  0  0  0  0  0
   -0.3625   -1.0417    0.0000 C   0  0  0  0  0  0  0  0  0  0  0  0
    1.2542    1.5708    0.0000 C   0  0  0  0  0  0  0  0  0  0  0  0
   -1.6250   -1.4625    0.0000 C   0  0  0  0  0  0  0  0  0  0  0  0
    0.2042    0.5833    0.0000 N   0  0  0  0  0  0  0  0  0  0  0  0
    1.4792    2.3625    0.0000 N   0  0  0  0  0  0  0  0  0  0  0  0
   -2.3583   -0.2292    0.0000 C   0  0  0  0  0  0  0  0  0  0  0  0
    0.4542    1.3625    0.0000 N   0  0  0  0  0  0  0  0  0  0  0  0
   -0.6000    0.4000    0.0000 C   0  0  0  0  0  0  0  0  0  0  0  0
    1.8292    0.9833    0.0000 N   0  0  0  0  0  0  0  0  0  0  0  0
   -2.3458   -1.8792    0.0000 C   0  0  0  0  0  0  0  0  0  0  0  0
   -3.0625   -0.6417    0.0000 C   0  0  0  0  0  0  0  0  0  0  0  0
   -3.0625   -1.4667    0.0000 C   0  0  0  0  0  0  0  0  0  0  0  0
   -3.7833   -0.2375    0.0000 O   0  0  0  0  0  0  0  0  0  0  0  0
    2.6167    1.1875    0.0000 C   0  0  0  0  0  0  0  0  0  0  0  0
   -4.4958   -0.6542    0.0000 C   0  0  0  0  0  0  0  0  0  0  0  0
    3.1917    0.5958    0.0000 C   0  0  0  0  0  0  0  0  0  0  0  0
    4.5667    0.2000    0.0000 C   0  0  0  0  0  0  0  0  0  0  0  0
    3.9917    0.7958    0.0000 C   0  0  0  0  0  0  0  0  0  0  0  0
    5.3667    0.4000    0.0000 C   0  0  0  0  0  0  0  0  0  0  0  0
  2  1  1  0
  3  4  1  0
  4  1  2  0
  5 10  1  0
  6  2  2  0
  7 11  2  0
  8  5  2  0
  9  2  1  0
 10  7  1  0
 11  1  1  0
 12  5  1  0
 13  6  1  0
 14  9  2  0
 15 14  1  0
 16 14  1  0
 17 12  1  0
 18 16  1  0
 19 17  1  0
 20 21  1  0
 21 19  1  0
 22 20  1  0
  6  3  1  0
 13 15  2  0
M  END
> <chembl_id>
CHEMBL76370

> <chembl_pref_name>
TEGASEROD
