
     RDKit          2D

 34 37  0  0  0  0  0  0  0  0999 V2000
   -2.1333    0.7833    0.0000 N   0  0  0  0  0  0  0  0  0  0  0  0
   -2.1333    2.4958    0.0000 S   0  0  0  0  0  0  0  0  0  0  0  0
   -2.8708    1.2083    0.0000 C   0  0  0  0  0  0  0  0  0  0  0  0
   -1.3875    1.2333    0.0000 C   0  0  0  0  0  0  0  0  0  0  0  0
   -2.1333   -0.0917    0.0000 C   0  0  0  0  0  0  0  0  0  0  0  0
   -2.8708    2.0833    0.0000 C   0  0  0  0  0  0  0  0  0  0  0  0
   -1.3875    2.0458    0.0000 C   0  0  0  0  0  0  0  0  0  0  0  0
   -2.8708   -0.5167    0.0000 C   0  0  0  0  0  0  0  0  0  0  0  0
   -2.8708   -1.3542    0.0000 N   0  0  0  0  0  0  0  0  0  0  0  0
   -0.6583    0.8083    0.0000 C   0  0  0  0  0  0  0  0  0  0  0  0
   -3.6083    0.7833    0.0000 C   0  0  0  0  0  0  0  0  0  0  0  0
   -0.6583    2.4708    0.0000 C   0  0  0  0  0  0  0  0  0  0  0  0
   -3.6083    2.4958    0.0000 C   0  0  0  0  0  0  0  0  0  0  0  0
   -3.6083   -1.8042    0.0000 C   0  0  0  0  0  0  0  0  0  0  0  0
   -2.1333   -1.7792    0.0000 C   0  0  0  0  0  0  0  0  0  0  0  0
   -3.6083   -0.0917    0.0000 C   0  0  0  0  0  0  0  0  0  0  0  0
   -4.3458    1.2333    0.0000 C   0  0  0  0  0  0  0  0  0  0  0  0
    0.1167    1.2333    0.0000 C   0  0  0  0  0  0  0  0  0  0  0  0
   -4.3458    2.0458    0.0000 C   0  0  0  0  0  0  0  0  0  0  0  0
    0.1167    2.0458    0.0000 C   0  0  0  0  0  0  0  0  0  0  0  0
    2.0292   -1.2917    0.0000 C   0  0  0  0  0  0  0  0  0  0  0  0
    2.0292   -0.4167    0.0000 C   0  0  0  0  0  0  0  0  0  0  0  0
    1.2875   -1.7167    0.0000 N   0  0  0  0  0  0  0  0  0  0  0  0
    0.5542   -0.4500    0.0000 N   0  0  0  0  0  0  0  0  0  0  0  0
    0.5542   -1.2667    0.0000 C   0  0  0  0  0  0  0  0  0  0  0  0
    1.2875    0.0208    0.0000 C   0  0  0  0  0  0  0  0  0  0  0  0
    2.8167   -1.5542    0.0000 N   0  0  0  0  0  0  0  0  0  0  0  0
    2.8167   -0.1542    0.0000 N   0  0  0  0  0  0  0  0  0  0  0  0
    3.3167   -0.8875    0.0000 C   0  0  0  0  0  0  0  0  0  0  0  0
   -0.2208   -1.6875    0.0000 O   0  0  0  0  0  0  0  0  0  0  0  0
    1.2875    0.8500    0.0000 O   0  0  0  0  0  0  0  0  0  0  0  0
    1.2875   -2.5917    0.0000 C   0  0  0  0  0  0  0  0  0  0  0  0
    4.1125   -0.8875    0.0000 Cl  0  0  0  0  0  0  0  0  0  0  0  0
   -0.2208   -0.0042    0.0000 C   0  0  0  0  0  0  0  0  0  0  0  0
  2  7  1  0
  3  1  1  0
  4  1  1  0
  5  1  1  0
  6  3  2  0
  7  4  2  0
  8  5  1  0
  9  8  1  0
 10  4  1  0
 11  3  1  0
 12  7  1  0
 13  6  1  0
 14  9  1  0
 15  9  1  0
 16  8  1  0
 17 11  2  0
 18 10  2  0
 19 17  1  0
 20 18  1  0
  6  2  1  0
 12 20  2  0
 13 19  2  0
 22 21  2  0
 23 21  1  0
 24 26  1  0
 25 23  1  0
 26 22  1  0
 27 21  1  0
 28 22  1  0
 29 27  2  0
 30 25  2  0
 31 26  2  0
 32 23  1  0
 33 29  1  0
 34 24  1  0
 28 29  1  0
 25 24  1  0
M  END
> <chembl_id>
CHEMBL3833361

> <chembl_pref_name>
PROMETHAZINE TEOCLATE
