
     RDKit          2D

 11 12  0  0  0  0  0  0  0  0999 V2000
  -19.8221  -14.2607    0.0000 C   0  0  0  0  0  0  0  0  0  0  0  0
  -19.8221  -13.4357    0.0000 C   0  0  0  0  0  0  0  0  0  0  0  0
  -20.5366  -13.0232    0.0000 C   0  0  0  0  0  0  0  0  0  0  0  0
  -21.2511  -13.4357    0.0000 C   0  0  0  0  0  0  0  0  0  0  0  0
  -21.2511  -14.2607    0.0000 C   0  0  0  0  0  0  0  0  0  0  0  0
  -20.5366  -14.6732    0.0000 C   0  0  0  0  0  0  0  0  0  0  0  0
  -19.0375  -14.5157    0.0000 C   0  0  0  0  0  0  0  0  0  0  0  0
  -18.5526  -13.8482    0.0000 O   0  0  0  0  0  0  0  0  0  0  0  0
  -19.0375  -13.1808    0.0000 B   0  0  0  0  0  0  0  0  0  0  0  0
  -18.7825  -12.3962    0.0000 O   0  0  0  0  0  0  0  0  0  0  0  0
  -21.9656  -14.6732    0.0000 F   0  0  0  0  0  0  0  0  0  0  0  0
  6  1  1  0
  2  3  1  0
  3  4  2  0
  4  5  1  0
  5  6  2  0
  2  9  1  0
  2  1  2  0
  1  7  1  0
  7  8  1  0
  8  9  1  0
  9 10  1  0
  5 11  1  0
M  END
> <chembl_id>
CHEMBL443052

> <chembl_pref_name>
TAVABOROLE
