
     RDKit          2D

 29 32  0  0  0  0  0  0  0  0999 V2000
    2.1059    0.6839    0.0000 C   0  0  0  0  0  0  0  0  0  0  0  0
    0.0000    1.0964    0.0000 C   0  0  0  0  0  0  0  0  0  0  0  0
    0.6730    0.6839    0.0000 C   0  0  0  0  0  0  0  0  0  0  0  0
   -1.4763   -0.5428    0.0000 C   0  0  0  0  0  0  0  0  0  0  0  0
    0.6730   -0.1411    0.0000 C   0  0  0  0  0  0  0  0  0  0  0  0
   -2.1928   -0.1411    0.0000 C   0  0  0  0  0  0  0  0  0  0  0  0
   -0.7707    0.6839    0.0000 C   0  0  0  0  0  0  0  0  0  0  0  0
    2.1059   -0.1411    0.0000 C   0  0  0  0  0  0  0  0  0  0  0  0
    1.3895    1.0964    0.0000 C   0  0  0  0  0  0  0  0  0  0  0  0
    0.6823    1.3578    0.0000 C   0  0  0  0  0  0  0  0  0  0  0  0
   -1.4785    0.1312    0.0000 C   0  0  0  0  0  0  0  0  0  0  0  0
   -2.9201   -0.5428    0.0000 C   0  0  0  0  0  0  0  0  0  0  0  0
   -2.9201   -1.3678    0.0000 C   0  0  0  0  0  0  0  0  0  0  0  0
   -2.1928   -1.7694    0.0000 C   0  0  0  0  0  0  0  0  0  0  0  0
   -1.4763   -1.3678    0.0000 C   0  0  0  0  0  0  0  0  0  0  0  0
   -0.7707   -1.7694    0.0000 C   0  0  0  0  0  0  0  0  0  0  0  0
    0.0000   -1.3678    0.0000 C   0  0  0  0  0  0  0  0  0  0  0  0
    0.0000   -0.5428    0.0000 C   0  0  0  0  0  0  0  0  0  0  0  0
   -0.7707   -0.1411    0.0000 C   0  0  0  0  0  0  0  0  0  0  0  0
   -3.5005   -1.7103    0.0000 O   0  0  0  0  0  0  0  0  0  0  0  0
   -0.7724   -0.7028    0.0000 H   0  0  0  0  0  0  0  0  0  0  0  0
   -0.0420    0.4469    0.0000 H   0  0  0  0  0  0  0  0  0  0  0  0
    0.8223   -0.6826    0.0000 H   0  0  0  0  0  0  0  0  0  0  0  0
    1.1760    1.8933    0.0000 O   0  0  0  0  0  0  0  0  0  0  0  0
    2.1040    1.5089    0.0000 C   0  0  0  0  0  0  0  0  0  0  0  0
    2.8185    1.0964    0.0000 C   0  0  0  0  0  0  0  0  0  0  0  0
    3.5329    1.5089    0.0000 C   0  0  0  0  0  0  0  0  0  0  0  0
    4.2474    1.0964    0.0000 O   0  0  0  0  0  0  0  0  0  0  0  0
    3.5329    2.3339    0.0000 O   0  0  0  0  0  0  0  0  0  0  0  0
  8  1  1  0
  9  1  1  0
  2  3  1  0
  7  2  1  0
  3  5  1  0
  3  9  1  0
  3 10  1  1
  6  4  1  0
  4 11  1  1
  4 15  1  0
  4 19  1  0
  5  8  1  0
 18  5  1  0
  6 12  1  0
 19  7  1  0
 12 13  1  0
 13 14  1  0
 13 20  2  0
 14 15  2  0
 15 16  1  0
 16 17  2  0
 17 18  1  0
 18 19  1  0
 19 21  1  6
 18 22  1  1
  5 23  1  6
  9 24  1  1
  9 25  1  0
 25 26  1  0
 26 27  1  0
 27 28  1  0
 27 29  2  0
M  END
> <chembl_id>
CHEMBL1616951

> <chembl_pref_name>
CANRENOATE
