
     RDKit          2D

 30 33  0  0  0  0  0  0  0  0999 V2000
   -0.0125    2.3333    0.0000 C   0  0  0  0  0  0  0  0  0  0  0  0
    0.6000    1.4583    0.0000 C   0  0  0  0  0  0  0  0  0  0  0  0
    0.6000    3.1750    0.0000 N   0  0  0  0  0  0  0  0  0  0  0  0
    1.6250    1.7833    0.0000 C   0  0  0  0  0  0  0  0  0  0  0  0
    1.6250    2.8583    0.0000 C   0  0  0  0  0  0  0  0  0  0  0  0
   -0.4000    1.1208    0.0000 C   0  0  0  0  0  0  0  0  0  0  0  0
    1.1000    0.5083    0.0000 C   0  0  0  0  0  0  0  0  0  0  0  0
   -1.0958    2.3333    0.0000 O   0  0  0  0  0  0  0  0  0  0  0  0
    3.6417   -2.4250    0.0000 C   0  0  0  0  0  0  0  0  0  0  0  0
   -3.3750   -1.4000    0.0000 C   0  0  0  0  0  0  0  0  0  0  0  0
    2.5625   -2.3542    0.0000 O   0  0  0  0  0  0  0  0  0  0  0  0
   -3.3000   -0.3167    0.0000 O   0  0  0  0  0  0  0  0  0  0  0  0
    4.2250   -1.5250    0.0000 O   0  0  0  0  0  0  0  0  0  0  0  0
   -2.4875   -1.9792    0.0000 O   0  0  0  0  0  0  0  0  0  0  0  0
    0.5292   -0.3917    0.0000 C   0  0  0  0  0  0  0  0  0  0  0  0
    2.1750    0.4500    0.0000 C   0  0  0  0  0  0  0  0  0  0  0  0
   -0.4750    0.0458    0.0000 C   0  0  0  0  0  0  0  0  0  0  0  0
   -1.2875    1.7083    0.0000 C   0  0  0  0  0  0  0  0  0  0  0  0
    2.0667   -1.3792    0.0000 C   0  0  0  0  0  0  0  0  0  0  0  0
   -2.3333    0.1708    0.0000 C   0  0  0  0  0  0  0  0  0  0  0  0
    1.0250   -1.3500    0.0000 C   0  0  0  0  0  0  0  0  0  0  0  0
    2.6542   -0.5000    0.0000 C   0  0  0  0  0  0  0  0  0  0  0  0
   -1.4333   -0.4417    0.0000 C   0  0  0  0  0  0  0  0  0  0  0  0
   -2.2625    1.2333    0.0000 C   0  0  0  0  0  0  0  0  0  0  0  0
    2.5417    1.2458    0.0000 C   0  0  0  0  0  0  0  0  0  0  0  0
    2.5417    3.3833    0.0000 C   0  0  0  0  0  0  0  0  0  0  0  0
   -4.3458   -1.8792    0.0000 C   0  0  0  0  0  0  0  0  0  0  0  0
    4.1167   -3.3792    0.0000 C   0  0  0  0  0  0  0  0  0  0  0  0
    3.4667    1.7958    0.0000 C   0  0  0  0  0  0  0  0  0  0  0  0
    3.4667    2.8375    0.0000 C   0  0  0  0  0  0  0  0  0  0  0  0
  2  1  1  0
  3  1  1  0
  4  2  1  0
  5  3  1  0
  6  2  1  0
  7  2  1  0
  8  1  2  0
  9 11  1  0
 10 12  1  0
 11 19  1  0
 12 20  1  0
 13  9  2  0
 14 10  2  0
 15  7  1  0
 16  7  2  0
 17  6  1  0
 18  6  2  0
 19 22  2  0
 20 24  2  0
 21 15  2  0
 22 16  1  0
 23 17  2  0
 24 18  1  0
 25  4  1  0
 26  5  1  0
 27 10  1  0
 28  9  1  0
 29 25  2  0
 30 26  2  0
  4  5  2  0
 29 30  1  0
 21 19  1  0
 23 20  1  0
M  END
> <chembl_id>
CHEMBL1402684

> <chembl_pref_name>
OXYPHENISATIN ACETATE
