
     RDKit          2D

 43 48  0  0  1  0  0  0  0  0999 V2000
    1.7389   -1.6008    0.0000 O   0  0  0  0  0  0  0  0  0  0  0  0
   -0.7801   -2.0114    0.0000 O   0  0  0  0  0  0  0  0  0  0  0  0
    0.3411    1.0923    0.0000 O   0  0  0  0  0  0  0  0  0  0  0  0
   -0.4710    0.9470    0.0000 O   0  0  0  0  0  0  0  0  0  0  0  0
    0.0013    1.1392    0.0000 O   0  0  0  0  0  0  0  0  0  0  0  0
   -2.6558   -0.8952    0.0000 O   0  0  0  0  0  0  0  0  0  0  0  0
    4.0013    1.8560    0.0000 O   0  0  0  0  0  0  0  0  0  0  0  0
   -2.9073    0.5114    0.0000 O   0  0  0  0  0  0  0  0  0  0  0  0
    5.4452    1.5790    0.0000 O   0  0  0  0  0  0  0  0  0  0  0  0
   -4.2801   -1.1857    0.0000 O   0  0  0  0  0  0  0  0  0  0  0  0
   -5.3437    0.0757    0.0000 O   0  0  0  0  0  0  0  0  0  0  0  0
   -4.7831    1.6276    0.0000 O   0  0  0  0  0  0  0  0  0  0  0  0
    0.5927   -0.3144    0.0000 C   0  0  0  0  0  0  0  0  0  0  0  0
    1.1245   -0.9451    0.0000 C   0  0  0  0  0  0  0  0  0  0  0  0
   -0.2195   -0.4596    0.0000 C   0  0  0  0  0  0  0  0  0  0  0  0
    1.9366   -0.7999    0.0000 C   0  0  0  0  0  0  0  0  0  0  0  0
    2.2169   -0.0239    0.0000 C   0  0  0  0  0  0  0  0  0  0  0  0
   -0.4998   -1.2355    0.0000 C   0  0  0  0  0  0  0  0  0  0  0  0
    0.8730    0.4615    0.0000 C   0  0  0  0  0  0  0  0  0  0  0  0
    0.8442   -1.7210    0.0000 C   0  0  0  0  0  0  0  0  0  0  0  0
    1.6851    0.6068    0.0000 C   0  0  0  0  0  0  0  0  0  0  0  0
   -0.7513    0.1711    0.0000 C   0  0  0  0  0  0  0  0  0  0  0  0
    3.0415   -0.0508    0.0000 C   0  0  0  0  0  0  0  0  0  0  0  0
    2.5879   -1.3062    0.0000 C   0  0  0  0  0  0  0  0  0  0  0  0
    0.0321   -1.8662    0.0000 C   0  0  0  0  0  0  0  0  0  0  0  0
    0.0608    0.3163    0.0000 C   0  0  0  0  0  0  0  0  0  0  0  0
   -1.3119   -1.3807    0.0000 C   0  0  0  0  0  0  0  0  0  0  0  0
    3.2708   -0.8432    0.0000 C   0  0  0  0  0  0  0  0  0  0  0  0
    2.5768    0.7184    0.0000 C   0  0  0  0  0  0  0  0  0  0  0  0
   -1.5634    0.0259    0.0000 C   0  0  0  0  0  0  0  0  0  0  0  0
   -1.8437   -0.7500    0.0000 C   0  0  0  0  0  0  0  0  0  0  0  0
    3.5478    0.6006    0.0000 C   0  0  0  0  0  0  0  0  0  0  0  0
    4.3724    0.5738    0.0000 C   0  0  0  0  0  0  0  0  0  0  0  0
    3.3185    1.3931    0.0000 C   0  0  0  0  0  0  0  0  0  0  0  0
    4.6527    1.3497    0.0000 C   0  0  0  0  0  0  0  0  0  0  0  0
   -3.1876   -0.2645    0.0000 C   0  0  0  0  0  0  0  0  0  0  0  0
   -3.9998   -0.4097    0.0000 C   0  0  0  0  0  0  0  0  0  0  0  0
   -4.5316    0.2210    0.0000 C   0  0  0  0  0  0  0  0  0  0  0  0
   -3.4392    1.1421    0.0000 C   0  0  0  0  0  0  0  0  0  0  0  0
   -4.2513    0.9969    0.0000 C   0  0  0  0  0  0  0  0  0  0  0  0
   -3.1589    1.9180    0.0000 C   0  0  0  0  0  0  0  0  0  0  0  0
    0.3086    0.4602    0.0000 H   0  0  0  0  0  0  0  0  0  0  0  0
    1.4085   -1.7196    0.0000 H   0  0  0  0  0  0  0  0  0  0  0  0
 16  1  1  1
 18  2  1  1
 19  3  1  6
 22  4  1  1
  5 26  1  0
 31  6  1  1
 36  6  1  1
  7 34  1  0
  7 35  1  0
  8 36  1  0
  8 39  1  0
  9 35  2  0
 37 10  1  6
 38 11  1  6
 40 12  1  1
 13 14  1  0
 13 15  1  0
 13 19  1  0
 13 42  1  6
 14 16  1  0
 14 20  1  0
 14 43  1  1
 15 18  1  0
 15 22  1  0
 15 26  1  1
 16 17  1  0
 16 24  1  0
 17 21  1  0
 17 23  1  0
 17 29  1  1
 18 25  1  0
 18 27  1  0
 19 21  1  0
 20 25  1  0
 22 30  1  0
 23 28  1  0
 23 32  1  1
 24 28  1  0
 27 31  1  0
 30 31  1  0
 32 33  2  0
 32 34  1  0
 33 35  1  0
 36 37  1  0
 37 38  1  0
 38 40  1  0
 39 40  1  0
 39 41  1  6
M  END
> <chembl_id>
CHEMBL222863

> <chembl_pref_name>
OUABAIN
