
     RDKit          2D

 28 30  0  0  0  0  0  0  0  0999 V2000
    2.1911   -0.7835    0.0000 C   0  0  0  0  0  0  0  0  0  0  0  0
    2.1911    0.0415    0.0000 O   0  0  0  0  0  0  0  0  0  0  0  0
    2.9055   -1.1960    0.0000 C   0  0  0  0  0  0  0  0  0  0  0  0
    3.6200   -0.7835    0.0000 C   0  0  0  0  0  0  0  0  0  0  0  0
    2.9055   -2.0210    0.0000 C   0  0  0  0  0  0  0  0  0  0  0  0
    2.1911   -2.4335    0.0000 C   0  0  0  0  0  0  0  0  0  0  0  0
    1.4766   -2.0210    0.0000 C   0  0  0  0  0  0  0  0  0  0  0  0
    1.4766   -1.1960    0.0000 C   0  0  0  0  0  0  0  0  0  0  0  0
    0.7621   -0.7835    0.0000 C   0  0  0  0  0  0  0  0  0  0  0  0
    1.4766    0.4540    0.0000 C   0  0  0  0  0  0  0  0  0  0  0  0
    0.7621    0.0415    0.0000 N   0  0  0  0  0  0  0  0  0  0  0  0
    0.0476    0.4540    0.0000 C   0  0  0  0  0  0  0  0  0  0  0  0
   -0.6668    0.0415    0.0000 N   0  0  0  0  0  0  0  0  0  0  0  0
    0.0476    1.2790    0.0000 N   0  0  0  0  0  0  0  0  0  0  0  0
    0.7621    1.6915    0.0000 C   0  0  0  0  0  0  0  0  0  0  0  0
    0.7621    2.5165    0.0000 N   0  0  0  0  0  0  0  0  0  0  0  0
    1.4766    1.2790    0.0000 C   0  0  0  0  0  0  0  0  0  0  0  0
   -1.3813    0.4540    0.0000 C   0  0  0  0  0  0  0  0  0  0  0  0
   -2.0958    0.0415    0.0000 C   0  0  0  0  0  0  0  0  0  0  0  0
   -2.8102    0.4540    0.0000 C   0  0  0  0  0  0  0  0  0  0  0  0
   -2.8102    1.2790    0.0000 C   0  0  0  0  0  0  0  0  0  0  0  0
   -2.0958    1.6915    0.0000 C   0  0  0  0  0  0  0  0  0  0  0  0
   -1.3813    1.2790    0.0000 C   0  0  0  0  0  0  0  0  0  0  0  0
   -3.5247    1.6915    0.0000 C   0  0  0  0  0  0  0  0  0  0  0  0
   -4.2392    2.1040    0.0000 N   0  0  0  0  0  0  0  0  0  0  0  0
    2.1911   -3.2585    0.0000 C   0  0  0  0  0  0  0  0  0  0  0  0
    2.1911   -4.0835    0.0000 N   0  0  0  0  0  0  0  0  0  0  0  0
    2.1911    1.6915    0.0000 Br  0  0  0  0  0  0  0  0  0  0  0  0
  1  2  1  0
  1  3  1  0
  1  8  2  0
 10  2  1  0
  3  4  1  0
  3  5  2  0
  5  6  1  0
  6  7  2  0
  6 26  1  0
  7  8  1  0
  8  9  1  0
 10 11  1  0
 10 17  2  0
 12 11  2  0
 12 13  1  0
 12 14  1  0
 18 13  1  0
 15 14  2  0
 15 16  1  0
 17 15  1  0
 28 17  1  0
 18 19  1  0
 18 23  2  0
 19 20  2  0
 20 21  1  0
 21 22  2  0
 21 24  1  0
 22 23  1  0
 24 25  3  0
 26 27  3  0
M  END
> <chembl_id>
CHEMBL308954

> <chembl_pref_name>
ETRAVIRINE
