
     RDKit          2D

 27 30  0  0  0  0  0  0  0  0999 V2000
    4.5875   -9.0500    0.0000 N   0  0  0  0  0  0  0  0  0  0  0  0
    5.2042   -9.4042    0.0000 C   0  0  0  0  0  0  0  0  0  0  0  0
    4.5875  -10.4792    0.0000 S   0  0  0  0  0  0  0  0  0  0  0  0
    3.9542   -9.4042    0.0000 C   0  0  0  0  0  0  0  0  0  0  0  0
    5.2042  -10.1167    0.0000 C   0  0  0  0  0  0  0  0  0  0  0  0
    3.9542  -10.1167    0.0000 C   0  0  0  0  0  0  0  0  0  0  0  0
    5.8375   -9.0500    0.0000 C   0  0  0  0  0  0  0  0  0  0  0  0
    6.3792   -7.9750    0.0000 N   0  0  0  0  0  0  0  0  0  0  0  0
    7.5917   -7.2250    0.0000 N   0  0  0  0  0  0  0  0  0  0  0  0
    5.8375  -10.4792    0.0000 C   0  0  0  0  0  0  0  0  0  0  0  0
    4.5875   -8.3375    0.0000 C   0  0  0  0  0  0  0  0  0  0  0  0
    6.4667   -9.4042    0.0000 C   0  0  0  0  0  0  0  0  0  0  0  0
    7.0000   -8.3042    0.0000 C   0  0  0  0  0  0  0  0  0  0  0  0
    6.9792   -6.9042    0.0000 C   0  0  0  0  0  0  0  0  0  0  0  0
    7.6042   -7.9375    0.0000 C   0  0  0  0  0  0  0  0  0  0  0  0
    6.3667   -7.2750    0.0000 C   0  0  0  0  0  0  0  0  0  0  0  0
    5.1750   -7.9792    0.0000 C   0  0  0  0  0  0  0  0  0  0  0  0
    6.4667  -10.1167    0.0000 C   0  0  0  0  0  0  0  0  0  0  0  0
    5.7792   -8.3167    0.0000 C   0  0  0  0  0  0  0  0  0  0  0  0
    7.0792   -9.0625    0.0000 Cl  0  0  0  0  0  0  0  0  0  0  0  0
    3.3250   -9.0500    0.0000 C   0  0  0  0  0  0  0  0  0  0  0  0
    8.1792   -6.8417    0.0000 C   0  0  0  0  0  0  0  0  0  0  0  0
    3.3250  -10.4792    0.0000 C   0  0  0  0  0  0  0  0  0  0  0  0
    9.3750   -6.7792    0.0000 O   0  0  0  0  0  0  0  0  0  0  0  0
    8.7875   -7.1542    0.0000 C   0  0  0  0  0  0  0  0  0  0  0  0
    2.6917   -9.4042    0.0000 C   0  0  0  0  0  0  0  0  0  0  0  0
    2.6917  -10.1167    0.0000 C   0  0  0  0  0  0  0  0  0  0  0  0
  2  1  1  0
  3  6  1  0
  4  1  1  0
  5  2  2  0
  6  4  2  0
  7  2  1  0
  8 19  1  0
  9 14  1  0
 10  5  1  0
 11  1  1  0
 12  7  2  0
 13  8  1  0
 14 16  1  0
 15 13  1  0
 16  8  1  0
 17 11  1  0
 18 12  1  0
 19 17  1  0
 20 12  1  0
 21  4  1  0
 22  9  1  0
 23  6  1  0
 24 25  1  0
 25 22  1  0
 26 21  2  0
 27 26  1  0
  3  5  1  0
 27 23  2  0
 18 10  2  0
  9 15  1  0
M  END
> <chembl_id>
CHEMBL567

> <chembl_pref_name>
PERPHENAZINE
