
     RDKit          2D

 34 35  0  0  0  0  0  0  0  0999 V2000
    2.4976   -2.8037    0.0000 C   0  0  0  0  0  0  0  0  0  0  0  0
    1.1802   -2.3740    0.0000 C   0  0  0  0  0  0  0  0  0  0  0  0
   -3.3448    1.6263    0.0000 C   0  0  0  0  0  0  0  0  0  0  0  0
   -3.5928    0.8658    0.0000 C   0  0  0  0  0  0  0  0  0  0  0  0
    2.2111   -1.4479    0.0000 C   0  0  0  0  0  0  0  0  0  0  0  0
   -2.0275    1.1967    0.0000 C   0  0  0  0  0  0  0  0  0  0  0  0
    1.2336    1.6029    0.0000 C   0  0  0  0  0  0  0  0  0  0  0  0
    2.2521    1.9326    0.0000 C   0  0  0  0  0  0  0  0  0  0  0  0
   -0.4236   -0.5886    0.0000 C   0  0  0  0  0  0  0  0  0  0  0  0
    1.9629   -2.2085    0.0000 C   0  0  0  0  0  0  0  0  0  0  0  0
   -2.5621    1.7917    0.0000 C   0  0  0  0  0  0  0  0  0  0  0  0
   -2.2756    0.4361    0.0000 C   0  0  0  0  0  0  0  0  0  0  0  0
   -3.0583    0.2707    0.0000 C   0  0  0  0  0  0  0  0  0  0  0  0
    1.6764   -0.8529    0.0000 C   0  0  0  0  0  0  0  0  0  0  0  0
    0.3590   -0.4232    0.0000 C   0  0  0  0  0  0  0  0  0  0  0  0
    1.2344    2.4029    0.0000 C   0  0  0  0  0  0  0  0  0  0  0  0
    3.0479    2.0153    0.0000 C   0  0  0  0  0  0  0  0  0  0  0  0
   -1.7408   -0.1589    0.0000 C   0  0  0  0  0  0  0  0  0  0  0  0
    2.6865    0.9540    0.0000 C   0  0  0  0  0  0  0  0  0  0  0  0
    1.9260    1.2021    0.0000 C   0  0  0  0  0  0  0  0  0  0  0  0
    1.9244   -0.0923    0.0000 B   0  0  0  0  0  0  0  0  0  0  0  0
   -2.3141    2.5524    0.0000 Cl  0  0  0  0  0  0  0  0  0  0  0  0
   -3.3063   -0.4899    0.0000 Cl  0  0  0  0  0  0  0  0  0  0  0  0
   -0.9581    0.0064    0.0000 N   0  0  0  0  0  0  0  0  0  0  0  0
    0.8937   -1.0182    0.0000 N   0  0  0  0  0  0  0  0  0  0  0  0
    0.4157    0.3748    0.0000 O   0  0  0  0  0  0  0  0  0  0  0  0
    1.9277    2.8021    0.0000 O   0  0  0  0  0  0  0  0  0  0  0  0
    0.5420    2.8037    0.0000 O   0  0  0  0  0  0  0  0  0  0  0  0
    3.5928    1.4296    0.0000 O   0  0  0  0  0  0  0  0  0  0  0  0
    3.3740    2.7458    0.0000 O   0  0  0  0  0  0  0  0  0  0  0  0
   -1.9890   -0.9196    0.0000 O   0  0  0  0  0  0  0  0  0  0  0  0
    3.4594    1.1602    0.0000 O   0  0  0  0  0  0  0  0  0  0  0  0
    2.6856    0.1540    0.0000 O   0  0  0  0  0  0  0  0  0  0  0  0
    1.4549    0.5554    0.0000 O   0  0  0  0  0  0  0  0  0  0  0  0
  1 10  1  0
  2 10  1  0
  3  4  2  0
  3 11  1  0
  4 13  1  0
  5 10  1  0
 14  5  1  6
  6 11  2  0
  6 12  1  0
  7 16  1  0
  7 20  1  0
  8 17  1  0
  8 20  1  0
  9 15  1  0
  9 24  1  0
 11 22  1  0
 12 13  2  0
 12 18  1  0
 13 23  1  0
 14 21  1  0
 14 25  1  0
 15 25  1  0
 15 26  2  0
 16 27  2  0
 16 28  1  0
 17 29  2  0
 17 30  1  0
 18 24  1  0
 18 31  2  0
 19 20  1  0
 19 32  2  0
 19 33  1  0
 20 34  1  0
 21 33  1  0
 21 34  1  0
M  END
> <chembl_id>
CHEMBL3545432

> <chembl_pref_name>
IXAZOMIB CITRATE
