
     RDKit          2D

 41 45  0  0  0  0  0  0  0  0999 V2000
    9.8010   -4.4287    0.0000 C   0  0  0  0  0  0  0  0  0  0  0  0
    9.2176   -3.8453    0.0000 C   0  0  0  0  0  0  0  0  0  0  0  0
    8.3926   -3.8453    0.0000 C   0  0  0  0  0  0  0  0  0  0  0  0
    7.8092   -4.4287    0.0000 C   0  0  0  0  0  0  0  0  0  0  0  0
    7.8092   -5.2537    0.0000 C   0  0  0  0  0  0  0  0  0  0  0  0
    8.3926   -5.8370    0.0000 C   0  0  0  0  0  0  0  0  0  0  0  0
    9.2176   -5.8370    0.0000 C   0  0  0  0  0  0  0  0  0  0  0  0
    9.8010   -5.2537    0.0000 C   0  0  0  0  0  0  0  0  0  0  0  0
   10.5855   -5.5086    0.0000 C   0  0  0  0  0  0  0  0  0  0  0  0
   11.0705   -4.8412    0.0000 C   0  0  0  0  0  0  0  0  0  0  0  0
   10.5856   -4.1738    0.0000 C   0  0  0  0  0  0  0  0  0  0  0  0
   10.8406   -3.3892    0.0000 O   0  0  0  0  0  0  0  0  0  0  0  0
    9.5333   -3.0831    0.0000 C   0  0  0  0  0  0  0  0  0  0  0  0
   10.3843   -4.6703    0.0000 C   0  0  0  0  0  0  0  0  0  0  0  0
    9.7468   -3.8800    0.0000 C   0  0  0  0  0  0  0  0  0  0  0  0
    9.5873   -2.2599    0.0000 C   0  0  0  0  0  0  0  0  0  0  0  0
    9.0041   -3.0484    0.0000 C   0  0  0  0  0  0  0  0  0  0  0  0
    8.0769   -3.0831    0.0000 O   0  0  0  0  0  0  0  0  0  0  0  0
    7.2589   -2.9754    0.0000 C   0  0  0  0  0  0  0  0  0  0  0  0
    6.9432   -2.2132    0.0000 C   0  0  0  0  0  0  0  0  0  0  0  0
    6.7567   -3.6300    0.0000 O   0  0  0  0  0  0  0  0  0  0  0  0
    6.1253   -2.1056    0.0000 S   0  0  0  0  0  0  0  0  0  0  0  0
    5.8096   -1.3434    0.0000 C   0  0  0  0  0  0  0  0  0  0  0  0
    6.3118   -0.6888    0.0000 C   0  0  0  0  0  0  0  0  0  0  0  0
    5.9961    0.0734    0.0000 C   0  0  0  0  0  0  0  0  0  0  0  0
    5.1781    0.1811    0.0000 N   0  0  0  0  0  0  0  0  0  0  0  0
    4.6759   -0.4734    0.0000 C   0  0  0  0  0  0  0  0  0  0  0  0
    4.9916   -1.2357    0.0000 C   0  0  0  0  0  0  0  0  0  0  0  0
    4.8624    0.9433    0.0000 C   0  0  0  0  0  0  0  0  0  0  0  0
    3.7365    1.0397    0.0000 C   0  0  0  0  0  0  0  0  0  0  0  0
    4.9387    1.5921    0.0000 C   0  0  0  0  0  0  0  0  0  0  0  0
    6.7199    0.4692    0.0000 H   0  0  0  0  0  0  0  0  0  0  0  0
    3.9419   -0.8501    0.0000 H   0  0  0  0  0  0  0  0  0  0  0  0
    7.0124   -5.0402    0.0000 C   0  0  0  0  0  0  0  0  0  0  0  0
    8.3926   -6.6620    0.0000 H   0  0  0  0  0  0  0  0  0  0  0  0
    9.5333   -6.5992    0.0000 C   0  0  0  0  0  0  0  0  0  0  0  0
    9.2176   -5.0120    0.0000 H   0  0  0  0  0  0  0  0  0  0  0  0
    8.9500   -2.4998    0.0000 H   0  0  0  0  0  0  0  0  0  0  0  0
    7.8092   -6.4204    0.0000 O   0  0  0  0  0  0  0  0  0  0  0  0
    7.2259   -5.8370    0.0000 C   0  0  0  0  0  0  0  0  0  0  0  0
    6.4009   -5.8370    0.0000 C   0  0  0  0  0  0  0  0  0  0  0  0
  1  2  1  0
  2  3  1  0
  3  4  1  0
  4  5  1  0
  5  6  1  0
  6  7  1  0
  7  8  1  0
  8  9  1  0
  1  8  1  0
  1 11  1  0
  9 10  1  0
 10 11  1  0
 11 12  2  0
  2 13  1  0
  8 14  1  6
 13 15  1  0
 15 14  1  0
 13 16  1  0
  2 17  1  1
  3 18  1  1
 18 19  1  0
 19 20  1  0
 19 21  2  0
 20 22  1  0
 23 22  1  1
 23 24  1  0
 28 23  1  0
 24 25  1  0
 25 26  1  0
 26 27  1  0
 27 28  1  0
 26 29  1  0
 30 31  1  0
 25 31  1  6
 27 30  1  6
 25 32  1  1
 27 33  1  1
  5 34  1  1
  6 35  1  1
  7 36  1  1
  1 37  1  1
 13 38  1  1
  6 39  1  6
  5 40  1  6
 40 41  2  0
M  END
> <chembl_id>
CHEMBL1658

> <chembl_pref_name>
RETAPAMULIN
