
     RDKit          2D

 37 40  0  0  1  0  0  0  0  0999 V2000
   -0.2958    0.3458    0.0000 C   0  0  0  0  0  0  0  0  0  0  0  0
    0.4167    1.0458    0.0000 N   0  0  0  0  0  0  0  0  0  0  0  0
   -0.2958    1.0458    0.0000 C   0  0  0  0  0  0  0  0  0  0  0  0
    0.4167    0.3375    0.0000 C   0  0  0  0  0  0  0  0  0  0  0  0
   -2.2333   -1.7750    0.0000 C   0  0  0  0  0  0  0  0  0  0  0  0
    2.8750    2.4625    0.0000 C   0  0  0  0  0  0  0  0  0  0  0  0
    1.0250    1.4000    0.0000 C   0  0  0  0  0  0  0  0  0  0  0  0
   -0.9083   -0.0125    0.0000 N   0  0  0  0  0  0  0  0  0  0  0  0
   -2.7375   -2.2750    0.0000 C   0  0  0  0  0  0  0  0  0  0  0  0
   -2.2333   -1.0625    0.0000 S   0  0  0  0  0  0  0  0  0  0  0  0
   -1.5208   -1.7792    0.0000 S   0  0  0  0  0  0  0  0  0  0  0  0
    2.8792    3.1708    0.0000 N   0  0  0  0  0  0  0  0  0  0  0  0
    3.5417    2.2458    0.0000 N   0  0  0  0  0  0  0  0  0  0  0  0
    3.9542    2.8208    0.0000 N   0  0  0  0  0  0  0  0  0  0  0  0
   -1.5208   -1.0667    0.0000 C   0  0  0  0  0  0  0  0  0  0  0  0
    3.5417    3.3958    0.0000 N   0  0  0  0  0  0  0  0  0  0  0  0
    1.0250   -0.0167    0.0000 S   0  0  0  0  0  0  0  0  0  0  0  0
    1.6417    1.0458    0.0000 C   0  0  0  0  0  0  0  0  0  0  0  0
   -0.9083   -0.7125    0.0000 C   0  0  0  0  0  0  0  0  0  0  0  0
   -3.4208   -2.0917    0.0000 C   0  0  0  0  0  0  0  0  0  0  0  0
   -2.5583   -2.9542    0.0000 C   0  0  0  0  0  0  0  0  0  0  0  0
    1.0167    2.1083    0.0000 C   0  0  0  0  0  0  0  0  0  0  0  0
    2.2667    2.1083    0.0000 S   0  0  0  0  0  0  0  0  0  0  0  0
    1.6417    0.3458    0.0000 C   0  0  0  0  0  0  0  0  0  0  0  0
   -0.7833    1.5458    0.0000 O   0  0  0  0  0  0  0  0  0  0  0  0
    2.2542    1.4000    0.0000 C   0  0  0  0  0  0  0  0  0  0  0  0
   -0.4833   -0.3417    0.0000 O   0  0  0  0  0  0  0  0  0  0  0  0
   -0.2958   -1.0667    0.0000 O   0  0  0  0  0  0  0  0  0  0  0  0
   -3.9208   -2.5917    0.0000 O   0  0  0  0  0  0  0  0  0  0  0  0
   -1.8708   -3.1417    0.0000 O   0  0  0  0  0  0  0  0  0  0  0  0
    0.4000    2.4583    0.0000 O   0  0  0  0  0  0  0  0  0  0  0  0
   -3.6000   -1.4042    0.0000 N   0  0  0  0  0  0  0  0  0  0  0  0
   -3.0583   -3.4542    0.0000 O   0  0  0  0  0  0  0  0  0  0  0  0
    2.3000    3.5958    0.0000 C   0  0  0  0  0  0  0  0  0  0  0  0
    1.6292    2.4625    0.0000 O   0  0  0  0  0  0  0  0  0  0  0  0
    0.0042   -0.8500    0.0000 C   0  0  0  0  0  0  0  0  0  0  0  0
    0.4167   -0.3667    0.0000 H   0  0  0  0  0  0  0  0  0  0  0  0
  2  4  1  0
  3  1  1  0
  4  1  1  0
  5 11  1  0
  6 23  1  0
  7  2  1  0
  8  1  1  0
  9  5  2  0
 10 15  1  0
 11 15  1  0
 12  6  1  0
 13  6  2  0
 14 13  1  0
 15 19  1  0
 16 12  1  0
 17  4  1  0
 18 24  1  0
 19  8  1  0
 20  9  1  0
 21  9  1  0
 22  7  1  0
 23 26  1  0
 24 17  1  0
 25  3  2  0
 26 18  1  0
  1 27  1  1
 28 19  2  0
 29 20  2  0
 30 21  2  0
 31 22  2  0
 32 20  1  0
 33 21  1  0
 34 12  1  0
 35 22  1  0
 36 27  1  0
  4 37  1  1
  3  2  1  0
 10  5  1  0
 18  7  2  0
 16 14  2  0
M  END
> <chembl_id>
CHEMBL474579

> <chembl_pref_name>
CEFOTETAN
