
     RDKit          2D

 48 52  0  0  0  0  0  0  0  0999 V2000
    7.7667   -8.3417    0.0000 Br  0  0  0  0  0  0  0  0  0  0  0  0
    5.5625   -6.7917    0.0000 C   0  0  0  0  0  0  0  0  0  0  0  0
    3.7167   -7.8417    0.0000 C   0  0  0  0  0  0  0  0  0  0  0  0
    5.5542   -7.4917    0.0000 C   0  0  0  0  0  0  0  0  0  0  0  0
    6.2375   -6.5792    0.0000 C   0  0  0  0  0  0  0  0  0  0  0  0
    6.6417   -7.1542    0.0000 C   0  0  0  0  0  0  0  0  0  0  0  0
    4.3292   -7.4875    0.0000 C   0  0  0  0  0  0  0  0  0  0  0  0
    4.9417   -7.8417    0.0000 C   0  0  0  0  0  0  0  0  0  0  0  0
    7.3542   -7.1625    0.0000 N   0  0  0  0  0  0  0  0  0  0  0  0
    2.4917   -7.8417    0.0000 C   0  0  0  0  0  0  0  0  0  0  0  0
    2.4917   -8.5500    0.0000 C   0  0  0  0  0  0  0  0  0  0  0  0
    6.2250   -7.7250    0.0000 C   0  0  0  0  0  0  0  0  0  0  0  0
    3.1042   -7.4875    0.0000 C   0  0  0  0  0  0  0  0  0  0  0  0
    3.7167   -8.5500    0.0000 C   0  0  0  0  0  0  0  0  0  0  0  0
    1.8792   -7.4875    0.0000 N   0  0  0  0  0  0  0  0  0  0  0  0
    4.9500   -6.4292    0.0000 C   0  0  0  0  0  0  0  0  0  0  0  0
    6.2292   -5.8667    0.0000 O   0  0  0  0  0  0  0  0  0  0  0  0
    3.1042   -8.9042    0.0000 C   0  0  0  0  0  0  0  0  0  0  0  0
    4.3292   -6.7792    0.0000 C   0  0  0  0  0  0  0  0  0  0  0  0
    1.8792   -8.9000    0.0000 O   0  0  0  0  0  0  0  0  0  0  0  0
    4.9375   -8.5542    0.0000 C   0  0  0  0  0  0  0  0  0  0  0  0
    6.8417   -5.5042    0.0000 C   0  0  0  0  0  0  0  0  0  0  0  0
    1.8792   -9.6042    0.0000 C   0  0  0  0  0  0  0  0  0  0  0  0
    4.3250   -8.9042    0.0000 C   0  0  0  0  0  0  0  0  0  0  0  0
    2.4917   -9.9667    0.0000 O   0  0  0  0  0  0  0  0  0  0  0  0
    6.8375   -4.8000    0.0000 O   0  0  0  0  0  0  0  0  0  0  0  0
    6.7292   -8.2167    0.0000 C   0  0  0  0  0  0  0  0  0  0  0  0
    7.3500   -7.8667    0.0000 C   0  0  0  0  0  0  0  0  0  0  0  0
    6.7292   -8.9292    0.0000 C   0  0  0  0  0  0  0  0  0  0  0  0
    5.5542   -6.0792    0.0000 C   0  0  0  0  0  0  0  0  0  0  0  0
    3.7125   -7.1292    0.0000 C   0  0  0  0  0  0  0  0  0  0  0  0
    7.3542   -6.4542    0.0000 C   0  0  0  0  0  0  0  0  0  0  0  0
    7.9625   -7.5167    0.0000 C   0  0  0  0  0  0  0  0  0  0  0  0
    1.8792   -6.7750    0.0000 C   0  0  0  0  0  0  0  0  0  0  0  0
    1.2667   -7.8417    0.0000 C   0  0  0  0  0  0  0  0  0  0  0  0
    7.4542   -5.8542    0.0000 C   0  0  0  0  0  0  0  0  0  0  0  0
    1.2667   -9.9625    0.0000 C   0  0  0  0  0  0  0  0  0  0  0  0
    8.5750   -7.1625    0.0000 C   0  0  0  0  0  0  0  0  0  0  0  0
    7.9625   -6.1000    0.0000 C   0  0  0  0  0  0  0  0  0  0  0  0
    8.0667   -5.5000    0.0000 C   0  0  0  0  0  0  0  0  0  0  0  0
    1.2750   -6.4250    0.0000 C   0  0  0  0  0  0  0  0  0  0  0  0
    0.6542   -7.4792    0.0000 C   0  0  0  0  0  0  0  0  0  0  0  0
    0.6542   -6.7750    0.0000 C   0  0  0  0  0  0  0  0  0  0  0  0
    8.5750   -6.4542    0.0000 C   0  0  0  0  0  0  0  0  0  0  0  0
    3.7125   -9.2542    0.0000 H   0  0  0  0  0  0  0  0  0  0  0  0
    4.3250   -8.1917    0.0000 H   0  0  0  0  0  0  0  0  0  0  0  0
    5.5500   -8.2042    0.0000 H   0  0  0  0  0  0  0  0  0  0  0  0
    4.9375   -7.1375    0.0000 H   0  0  0  0  0  0  0  0  0  0  0  0
  3  7  1  0
  4  2  1  0
  5  2  1  0
  6  5  1  0
  7 19  1  0
  8  4  1  0
  6  9  1  1
 10 13  1  0
 11 18  1  0
 12  4  1  0
 13  3  1  0
 14  3  1  0
 10 15  1  1
 16  2  1  0
  5 17  1  1
 18 14  1  0
 19 16  1  0
 11 20  1  6
 21  8  1  0
 22 17  1  0
 23 20  1  0
 24 21  1  0
 25 23  2  0
 26 22  2  0
 27 28  1  0
 28  9  1  0
 29 27  2  0
  2 30  1  1
  3 31  1  1
 32  9  1  0
 33  9  1  0
 34 15  1  0
 35 15  1  0
 36 22  1  0
 37 23  1  0
 38 33  1  0
 39 32  1  0
 40 36  1  0
 41 34  1  0
 42 35  1  0
 43 41  1  0
 44 39  1  0
 14 45  1  6
  7 46  1  6
  4 47  1  6
  8 48  1  1
  6 12  1  0
  7  8  1  0
 24 14  1  0
 44 38  1  0
 11 10  1  0
 43 42  1  0
M  CHG  2   1  -1   9   1
M  END
> <chembl_id>
CHEMBL1200549

> <chembl_pref_name>
RAPACURONIUM BROMIDE
