
     RDKit          2D

 34 37  0  0  0  0  0  0  0  0999 V2000
   18.8068   -1.2557    0.0000 C   0  0  0  0  0  0  0  0  0  0  0  0
   17.3800   -1.2557    0.0000 C   0  0  0  0  0  0  0  0  0  0  0  0
   18.8116   -0.4307    0.0000 C   0  0  0  0  0  0  0  0  0  0  0  0
   20.2287   -1.2654    0.0000 C   0  0  0  0  0  0  0  0  0  0  0  0
   18.0885   -1.6683    0.0000 C   0  0  0  0  0  0  0  0  0  0  0  0
   19.5104   -1.6683    0.0000 C   0  0  0  0  0  0  0  0  0  0  0  0
   20.2336   -0.4404    0.0000 C   0  0  0  0  0  0  0  0  0  0  0  0
   16.6617   -1.6683    0.0000 C   0  0  0  0  0  0  0  0  0  0  0  0
   17.3800   -0.4258    0.0000 C   0  0  0  0  0  0  0  0  0  0  0  0
   19.5250   -0.0231    0.0000 C   0  0  0  0  0  0  0  0  0  0  0  0
   18.0934   -0.0085    0.0000 C   0  0  0  0  0  0  0  0  0  0  0  0
   15.9483   -1.2557    0.0000 C   0  0  0  0  0  0  0  0  0  0  0  0
   15.9483   -0.4258    0.0000 C   0  0  0  0  0  0  0  0  0  0  0  0
   16.6617   -0.0085    0.0000 C   0  0  0  0  0  0  0  0  0  0  0  0
   20.9372   -1.6828    0.0000 C   0  0  0  0  0  0  0  0  0  0  0  0
   18.0885   -2.4932    0.0000 O   0  0  0  0  0  0  0  0  0  0  0  0
   20.9518   -0.0327    0.0000 O   0  0  0  0  0  0  0  0  0  0  0  0
   19.5299    0.8068    0.0000 N   0  0  0  0  0  0  0  0  0  0  0  0
   15.2349   -1.6683    0.0000 C   0  0  0  0  0  0  0  0  0  0  0  0
   19.5056   -2.4932    0.0000 O   0  0  0  0  0  0  0  0  0  0  0  0
   16.6617   -2.4932    0.0000 O   0  0  0  0  0  0  0  0  0  0  0  0
   18.0934    0.8117    0.0000 O   0  0  0  0  0  0  0  0  0  0  0  0
   18.8019   -2.0759    0.0000 O   0  0  0  0  0  0  0  0  0  0  0  0
   20.9324   -2.5078    0.0000 O   0  0  0  0  0  0  0  0  0  0  0  0
   15.2398   -2.4932    0.0000 O   0  0  0  0  0  0  0  0  0  0  0  0
   21.6555   -1.2799    0.0000 N   0  0  0  0  0  0  0  0  0  0  0  0
   15.2349   -0.0133    0.0000 C   0  0  0  0  0  0  0  0  0  0  0  0
   16.6617    0.8166    0.0000 C   0  0  0  0  0  0  0  0  0  0  0  0
   14.5215   -0.4258    0.0000 C   0  0  0  0  0  0  0  0  0  0  0  0
   14.5215   -1.2557    0.0000 C   0  0  0  0  0  0  0  0  0  0  0  0
   20.2482    1.2145    0.0000 C   0  0  0  0  0  0  0  0  0  0  0  0
   18.8165    1.2194    0.0000 C   0  0  0  0  0  0  0  0  0  0  0  0
   17.3751    0.3992    0.0000 H   0  0  0  0  0  0  0  0  0  0  0  0
   18.8068    0.3992    0.0000 H   0  0  0  0  0  0  0  0  0  0  0  0
  2  5  2  0
  3  1  1  0
  4  6  1  0
  5  1  1  0
  6  1  1  0
  7 10  1  0
  8  2  1  0
  9 11  1  0
 10  3  1  0
 11  3  1  0
 12  8  1  0
 13 14  1  0
 14  9  1  0
 15  4  1  0
 16  5  1  0
 17  7  1  0
 10 18  1  6
 19 12  2  0
 20  6  2  0
 21  8  2  0
 11 22  1  6
  1 23  1  6
 24 15  2  0
 25 19  1  0
 26 15  1  0
 27 13  2  0
 14 28  1  6
 29 27  1  0
 30 19  1  0
 31 18  1  0
 32 18  1  0
  9 33  1  6
  3 34  1  6
  2  9  1  0
  7  4  2  0
 12 13  1  0
 30 29  2  0
M  END
> <chembl_id>
CHEMBL1433

> <chembl_pref_name>
DOXYCYCLINE ANHYDROUS
