
     RDKit          2D

 17 17  0  0  0  0  0  0  0  0999 V2000
   -0.1144    0.4578    0.0000 C   0  0  0  0  0  0  0  0  0  0  0  0
   -0.5332   -0.2530    0.0000 C   0  0  0  0  0  0  0  0  0  0  0  0
   -1.3705   -1.6808    0.0000 C   0  0  0  0  0  0  0  0  0  0  0  0
   -1.8073   -2.3947    0.0000 Cl  0  0  0  0  0  0  0  0  0  0  0  0
   -1.3615   -0.2530    0.0000 C   0  0  0  0  0  0  0  0  0  0  0  0
   -0.1144   -0.9428    0.0000 C   0  0  0  0  0  0  0  0  0  0  0  0
   -0.5332   -1.6567    0.0000 C   0  0  0  0  0  0  0  0  0  0  0  0
   -1.7772   -0.9669    0.0000 C   0  0  0  0  0  0  0  0  0  0  0  0
    0.7105    0.4506    0.0000 C   0  0  0  0  0  0  0  0  0  0  0  0
    1.1292    1.1615    0.0000 C   0  0  0  0  0  0  0  0  0  0  0  0
    1.9542    1.1543    0.0000 C   0  0  0  0  0  0  0  0  0  0  0  0
    0.7105   -0.3744    0.0000 C   0  0  0  0  0  0  0  0  0  0  0  0
    1.5074    0.2371    0.0000 O   0  0  0  0  0  0  0  0  0  0  0  0
    0.7230    1.8795    0.0000 C   0  0  0  0  0  0  0  0  0  0  0  0
    2.3729    1.8651    0.0000 N   0  0  0  0  0  0  0  0  0  0  0  0
    3.1979    1.8579    0.0000 C   0  0  0  0  0  0  0  0  0  0  0  0
    1.9667    2.5832    0.0000 C   0  0  0  0  0  0  0  0  0  0  0  0
  2  1  1  0
  3  7  1  0
  4  3  1  0
  5  2  2  0
  6  2  1  0
  7  6  2  0
  8  5  1  0
  8  3  2  0
  1  9  1  0
  9 10  1  0
 10 11  1  0
  9 12  1  0
  9 13  1  0
 10 14  1  0
 11 15  1  0
 15 16  1  0
 15 17  1  0
M  END
> <chembl_id>
CHEMBL1474889

> <chembl_pref_name>
CLOBUTINOL
