
     RDKit          2D

 27 29  0  0  1  0  0  0  0  0999 V2000
    0.8958   -6.0833    0.0000 N   0  0  0  0  0  0  0  0  0  0  0  0
    0.8917   -5.3750    0.0000 C   0  0  0  0  0  0  0  0  0  0  0  0
    0.1875   -6.0875    0.0000 C   0  0  0  0  0  0  0  0  0  0  0  0
    0.1875   -5.3750    0.0000 C   0  0  0  0  0  0  0  0  0  0  0  0
    1.5708   -6.3000    0.0000 C   0  0  0  0  0  0  0  0  0  0  0  0
    1.5667   -5.1542    0.0000 S   0  0  0  0  0  0  0  0  0  0  0  0
    1.9875   -5.7250    0.0000 C   0  0  0  0  0  0  0  0  0  0  0  0
   -1.0500   -5.3750    0.0000 C   0  0  0  0  0  0  0  0  0  0  0  0
   -0.4333   -5.0167    0.0000 N   0  0  0  0  0  0  0  0  0  0  0  0
   -1.6625   -5.0208    0.0000 C   0  0  0  0  0  0  0  0  0  0  0  0
    1.5667   -7.0042    0.0000 C   0  0  0  0  0  0  0  0  0  0  0  0
   -0.3167   -6.5875    0.0000 O   0  0  0  0  0  0  0  0  0  0  0  0
   -1.0500   -6.0833    0.0000 O   0  0  0  0  0  0  0  0  0  0  0  0
   -1.6583   -4.3083    0.0000 C   0  0  0  0  0  0  0  0  0  0  0  0
   -2.2708   -5.3750    0.0000 C   0  0  0  0  0  0  0  0  0  0  0  0
    2.1750   -7.3667    0.0000 O   0  0  0  0  0  0  0  0  0  0  0  0
    0.9458   -7.3542    0.0000 O   0  0  0  0  0  0  0  0  0  0  0  0
    2.6000   -6.0792    0.0000 C   0  0  0  0  0  0  0  0  0  0  0  0
    2.6000   -5.3667    0.0000 C   0  0  0  0  0  0  0  0  0  0  0  0
   -1.0417   -3.9583    0.0000 O   0  0  0  0  0  0  0  0  0  0  0  0
   -2.2667   -6.0792    0.0000 O   0  0  0  0  0  0  0  0  0  0  0  0
   -2.8833   -4.3083    0.0000 C   0  0  0  0  0  0  0  0  0  0  0  0
   -2.8833   -5.0208    0.0000 C   0  0  0  0  0  0  0  0  0  0  0  0
   -2.2708   -3.9542    0.0000 C   0  0  0  0  0  0  0  0  0  0  0  0
   -0.4292   -4.3125    0.0000 C   0  0  0  0  0  0  0  0  0  0  0  0
   -1.6500   -6.4333    0.0000 C   0  0  0  0  0  0  0  0  0  0  0  0
    0.8875   -4.6667    0.0000 H   0  0  0  0  0  0  0  0  0  0  0  0
  2  1  1  0
  3  1  1  0
  4  3  1  0
  5  1  1  0
  6  2  1  0
  7  5  1  0
  8  9  1  0
  4  9  1  1
 10  8  1  0
  5 11  1  6
 12  3  2  0
 13  8  2  0
 14 10  2  0
 15 10  1  0
 16 11  1  0
 17 11  2  0
 18  7  1  0
 19  7  1  0
 20 14  1  0
 21 15  1  0
 22 23  1  0
 23 15  2  0
 24 14  1  0
 25 20  1  0
 26 21  1  0
  2 27  1  6
  4  2  1  0
  6  7  1  0
 22 24  2  0
M  END
> <chembl_id>
CHEMBL575

> <chembl_pref_name>
METHICILLIN
