
     RDKit          2D

 26 29  0  0  0  0  0  0  0  0999 V2000
    6.1083   -7.4000    0.0000 Cl  0  0  0  0  0  0  0  0  0  0  0  0
    5.0667   -5.1167    0.0000 N   0  0  0  0  0  0  0  0  0  0  0  0
    5.8250   -4.7792    0.0000 C   0  0  0  0  0  0  0  0  0  0  0  0
    4.3333   -4.7375    0.0000 C   0  0  0  0  0  0  0  0  0  0  0  0
    6.3833   -5.3875    0.0000 C   0  0  0  0  0  0  0  0  0  0  0  0
    2.9083   -4.8083    0.0000 C   0  0  0  0  0  0  0  0  0  0  0  0
    6.6292   -4.6042    0.0000 C   0  0  0  0  0  0  0  0  0  0  0  0
    5.1625   -5.9375    0.0000 C   0  0  0  0  0  0  0  0  0  0  0  0
    3.6417   -5.1833    0.0000 C   0  0  0  0  0  0  0  0  0  0  0  0
    1.6125   -5.1875    0.0000 C   0  0  0  0  0  0  0  0  0  0  0  0
    5.9708   -6.1083    0.0000 C   0  0  0  0  0  0  0  0  0  0  0  0
    4.5542   -6.4958    0.0000 C   0  0  0  0  0  0  0  0  0  0  0  0
    2.3667   -5.4917    0.0000 C   0  0  0  0  0  0  0  0  0  0  0  0
    3.9458   -7.0542    0.0000 N   0  0  0  0  0  0  0  0  0  0  0  0
    2.1583   -4.9917    0.0000 C   0  0  0  0  0  0  0  0  0  0  0  0
    2.9125   -3.9833    0.0000 C   0  0  0  0  0  0  0  0  0  0  0  0
    4.2917   -3.9167    0.0000 O   0  0  0  0  0  0  0  0  0  0  0  0
    2.1625   -3.6750    0.0000 C   0  0  0  0  0  0  0  0  0  0  0  0
    1.4458   -4.7292    0.0000 C   0  0  0  0  0  0  0  0  0  0  0  0
    0.8083   -5.4125    0.0000 C   0  0  0  0  0  0  0  0  0  0  0  0
    1.6125   -4.3375    0.0000 C   0  0  0  0  0  0  0  0  0  0  0  0
    1.4458   -3.9333    0.0000 C   0  0  0  0  0  0  0  0  0  0  0  0
    3.6792   -6.0083    0.0000 N   0  0  0  0  0  0  0  0  0  0  0  0
    1.3917   -5.9833    0.0000 O   0  0  0  0  0  0  0  0  0  0  0  0
    6.4042   -4.1917    0.0000 H   0  0  0  0  0  0  0  0  0  0  0  0
    6.9708   -5.9667    0.0000 H   0  0  0  0  0  0  0  0  0  0  0  0
  3  2  1  0
  4  2  1  0
  5  3  1  0
  6  9  1  0
  7  3  1  0
  8  2  1  0
  9  4  1  0
 10 13  1  0
 11  8  1  0
  8 12  1  1
 13  6  1  0
 14 12  3  0
 15  6  1  0
 16  6  1  0
 17  4  2  0
 18 16  1  0
 19 15  1  0
 20 10  1  0
 21 18  1  0
 22 18  1  0
  9 23  1  1
 24 10  1  0
  3 25  1  6
  5 26  1  6
  7  5  1  0
  5 11  1  0
 22 19  1  0
 21 10  1  0
 19 20  1  0
M  END
> <chembl_id>
CHEMBL1201743

> <chembl_pref_name>
SAXAGLIPTIN HYDROCHLORIDE
