
     RDKit          2D

 20 22  0  0  0  0  0  0  0  0999 V2000
    0.7146   -0.5153    0.0000 C   0  0  0  0  0  0  0  0  0  0  0  0
    0.0000    0.7111    0.0000 N   0  0  0  0  0  0  0  0  0  0  0  0
    0.0000   -0.9276    0.0000 S   0  0  0  0  0  0  0  0  0  0  0  0
    1.4258   -0.9276    0.0000 C   0  0  0  0  0  0  0  0  0  0  0  0
    0.7146    0.2954    0.0000 C   0  0  0  0  0  0  0  0  0  0  0  0
    2.1437   -0.5153    0.0000 C   0  0  0  0  0  0  0  0  0  0  0  0
   -0.7111   -0.5153    0.0000 C   0  0  0  0  0  0  0  0  0  0  0  0
    2.8584   -0.9276    0.0000 N   0  0  0  0  0  0  0  0  0  0  0  0
   -0.7111    0.2954    0.0000 C   0  0  0  0  0  0  0  0  0  0  0  0
   -1.4291   -0.9276    0.0000 C   0  0  0  0  0  0  0  0  0  0  0  0
    1.4258    0.7111    0.0000 C   0  0  0  0  0  0  0  0  0  0  0  0
    2.1437    0.2954    0.0000 C   0  0  0  0  0  0  0  0  0  0  0  0
   -2.1437   -0.5153    0.0000 C   0  0  0  0  0  0  0  0  0  0  0  0
   -2.8617   -0.9276    0.0000 N   0  0  0  0  0  0  0  0  0  0  0  0
   -1.4291    0.7111    0.0000 C   0  0  0  0  0  0  0  0  0  0  0  0
   -2.1437    0.2954    0.0000 C   0  0  0  0  0  0  0  0  0  0  0  0
    2.8584   -1.7556    0.0000 C   0  0  0  0  0  0  0  0  0  0  0  0
    3.5798   -0.5153    0.0000 C   0  0  0  0  0  0  0  0  0  0  0  0
   -3.5832   -0.5153    0.0000 C   0  0  0  0  0  0  0  0  0  0  0  0
   -2.8617   -1.7556    0.0000 C   0  0  0  0  0  0  0  0  0  0  0  0
  2  5  2  0
  3  1  1  0
  4  1  2  0
  5  1  1  0
  6  4  1  0
  7  3  1  0
  8  6  2  0
  9  2  1  0
 10  7  1  0
 11  5  1  0
 12 11  2  0
 13 10  2  0
 14 13  1  0
 15  9  1  0
 16 15  2  0
 17  8  1  0
 18  8  1  0
 19 14  1  0
 20 14  1  0
  6 12  1  0
  7  9  2  0
 13 16  1  0
M  CHG  1   8   1
M  END
> <chembl_id>
CHEMBL191083

> <chembl_pref_name>
METHYLENE BLUE CATION
