
     RDKit          2D

 22 25  0  0  0  0  0  0  0  0999 V2000
   -0.3250    0.1000    0.0000 C   0  0  0  0  0  0  0  0  0  0  0  0
   -0.3375   -0.6125    0.0000 C   0  0  0  0  0  0  0  0  0  0  0  0
   -1.0125   -0.8292    0.0000 N   0  0  0  0  0  0  0  0  0  0  0  0
   -0.9917    0.3042    0.0000 C   0  0  0  0  0  0  0  0  0  0  0  0
    0.2833    0.4625    0.0000 C   0  0  0  0  0  0  0  0  0  0  0  0
   -1.4250   -0.2250    0.0000 C   0  0  0  0  0  0  0  0  0  0  0  0
    2.1167    0.1667    0.0000 N   0  0  0  0  0  0  0  0  0  0  0  0
    0.8958    0.1167    0.0000 C   0  0  0  0  0  0  0  0  0  0  0  0
    2.3125   -0.5292    0.0000 C   0  0  0  0  0  0  0  0  0  0  0  0
    3.0208   -0.5333    0.0000 N   0  0  0  0  0  0  0  0  0  0  0  0
    1.4917    0.4833    0.0000 C   0  0  0  0  0  0  0  0  0  0  0  0
    0.2792   -0.9583    0.0000 C   0  0  0  0  0  0  0  0  0  0  0  0
    3.2458    0.1542    0.0000 C   0  0  0  0  0  0  0  0  0  0  0  0
    2.6833    0.5500    0.0000 C   0  0  0  0  0  0  0  0  0  0  0  0
    0.9000   -0.6000    0.0000 C   0  0  0  0  0  0  0  0  0  0  0  0
    0.2833    1.1625    0.0000 O   0  0  0  0  0  0  0  0  0  0  0  0
   -1.2250   -1.5167    0.0000 C   0  0  0  0  0  0  0  0  0  0  0  0
   -1.2417    0.9750    0.0000 C   0  0  0  0  0  0  0  0  0  0  0  0
   -2.1292   -0.1375    0.0000 C   0  0  0  0  0  0  0  0  0  0  0  0
    1.9542   -1.1375    0.0000 C   0  0  0  0  0  0  0  0  0  0  0  0
   -1.9458    1.0875    0.0000 C   0  0  0  0  0  0  0  0  0  0  0  0
   -2.4042    0.5250    0.0000 C   0  0  0  0  0  0  0  0  0  0  0  0
  2  1  2  0
  3  2  1  0
  4  1  1  0
  5  1  1  0
  6  4  1  0
  7 11  1  0
  8  5  1  0
  9  7  1  0
 10  9  2  0
 11  8  1  0
 12  2  1  0
 13 14  2  0
 14  7  1  0
 15  8  1  0
 16  5  2  0
 17  3  1  0
 18  4  2  0
 19  6  2  0
 20  9  1  0
 21 18  1  0
 22 21  2  0
  3  6  1  0
 15 12  1  0
 22 19  1  0
 13 10  1  0
M  END
> <chembl_id>
CHEMBL46

> <chembl_pref_name>
ONDANSETRON
