
     RDKit          2D

 31 33  0  0  1  0  0  0  0  0999 V2000
    2.5208   -7.0125    0.0000 N   0  0  0  0  0  0  0  0  0  0  0  0
    1.9042   -7.3625    0.0000 C   0  0  0  0  0  0  0  0  0  0  0  0
    3.0958   -7.4292    0.0000 C   0  0  0  0  0  0  0  0  0  0  0  0
    3.4500   -6.3375    0.0000 C   0  0  0  0  0  0  0  0  0  0  0  0
    3.6667   -7.0125    0.0000 C   0  0  0  0  0  0  0  0  0  0  0  0
    2.7375   -6.3417    0.0000 C   0  0  0  0  0  0  0  0  0  0  0  0
    0.6750   -7.3458    0.0000 N   0  0  0  0  0  0  0  0  0  0  0  0
    3.0917   -8.1375    0.0000 C   0  0  0  0  0  0  0  0  0  0  0  0
    1.2917   -7.0000    0.0000 C   0  0  0  0  0  0  0  0  0  0  0  0
    0.0750   -6.2750    0.0000 C   0  0  0  0  0  0  0  0  0  0  0  0
    0.0667   -6.9833    0.0000 C   0  0  0  0  0  0  0  0  0  0  0  0
    4.1583   -6.3375    0.0000 S   0  0  0  0  0  0  0  0  0  0  0  0
    3.2333   -5.6625    0.0000 S   0  0  0  0  0  0  0  0  0  0  0  0
    1.8917   -8.0667    0.0000 O   0  0  0  0  0  0  0  0  0  0  0  0
    2.4750   -8.4875    0.0000 O   0  0  0  0  0  0  0  0  0  0  0  0
    0.6958   -5.9292    0.0000 O   0  0  0  0  0  0  0  0  0  0  0  0
   -0.5500   -7.3292    0.0000 C   0  0  0  0  0  0  0  0  0  0  0  0
    3.7000   -8.4917    0.0000 O   0  0  0  0  0  0  0  0  0  0  0  0
   -0.5333   -5.9125    0.0000 O   0  0  0  0  0  0  0  0  0  0  0  0
   -1.1583   -6.9667    0.0000 C   0  0  0  0  0  0  0  0  0  0  0  0
   -1.7792   -7.3125    0.0000 C   0  0  0  0  0  0  0  0  0  0  0  0
    3.8042   -5.2458    0.0000 C   0  0  0  0  0  0  0  0  0  0  0  0
    4.3792   -5.6625    0.0000 C   0  0  0  0  0  0  0  0  0  0  0  0
    1.3042   -6.2917    0.0000 C   0  0  0  0  0  0  0  0  0  0  0  0
   -1.1500   -6.2583    0.0000 C   0  0  0  0  0  0  0  0  0  0  0  0
   -2.3875   -6.9500    0.0000 C   0  0  0  0  0  0  0  0  0  0  0  0
   -1.7833   -8.0167    0.0000 C   0  0  0  0  0  0  0  0  0  0  0  0
   -1.7583   -5.8958    0.0000 C   0  0  0  0  0  0  0  0  0  0  0  0
   -2.4000   -8.3667    0.0000 C   0  0  0  0  0  0  0  0  0  0  0  0
   -3.0042   -7.2958    0.0000 C   0  0  0  0  0  0  0  0  0  0  0  0
   -3.0125   -8.0042    0.0000 C   0  0  0  0  0  0  0  0  0  0  0  0
  2  1  1  0
  3  1  1  0
  4  6  1  0
  5  3  1  0
  6  1  1  0
  7  9  1  0
  3  8  1  1
  9  2  1  0
 11 10  1  1
 11  7  1  0
 12  4  1  0
 13  4  1  0
 14  2  2  0
 15  8  2  0
 16 10  2  0
 17 11  1  0
 18  8  1  0
 19 10  1  0
 20 17  1  0
 21 20  1  0
 22 13  1  0
 23 12  1  0
  9 24  1  1
 25 19  1  0
 26 21  2  0
 27 21  1  0
 28 25  1  0
 29 27  2  0
 30 26  1  0
 31 29  1  0
  4  5  1  0
 22 23  1  0
 31 30  2  0
M  END
> <chembl_id>
CHEMBL431

> <chembl_pref_name>
SPIRAPRIL
