
     RDKit          2D

 45 48  0  0  0  0  0  0  0  0999 V2000
  -11.0786  -12.5223    0.0000 S   0  0  0  0  0  0  0  0  0  0  0  0
  -10.2536  -12.5223    0.0000 O   0  0  0  0  0  0  0  0  0  0  0  0
  -11.0786  -11.6973    0.0000 O   0  0  0  0  0  0  0  0  0  0  0  0
  -11.0786  -13.3473    0.0000 O   0  0  0  0  0  0  0  0  0  0  0  0
  -11.9036  -12.5223    0.0000 O   0  0  0  0  0  0  0  0  0  0  0  0
  -21.6562  -15.8223    0.0000 C   0  0  0  0  0  0  0  0  0  0  0  0
  -22.3707  -16.2348    0.0000 C   0  0  0  0  0  0  0  0  0  0  0  0
  -22.3707  -17.0598    0.0000 C   0  0  0  0  0  0  0  0  0  0  0  0
  -21.6562  -17.4723    0.0000 C   0  0  0  0  0  0  0  0  0  0  0  0
  -20.9417  -17.0598    0.0000 C   0  0  0  0  0  0  0  0  0  0  0  0
  -20.9417  -16.2348    0.0000 C   0  0  0  0  0  0  0  0  0  0  0  0
  -20.2273  -15.8223    0.0000 C   0  0  0  0  0  0  0  0  0  0  0  0
  -19.5128  -16.2348    0.0000 C   0  0  0  0  0  0  0  0  0  0  0  0
  -18.7983  -15.8223    0.0000 C   0  0  0  0  0  0  0  0  0  0  0  0
  -18.7983  -14.9973    0.0000 C   0  0  0  0  0  0  0  0  0  0  0  0
  -19.5128  -14.5848    0.0000 N   0  0  0  0  0  0  0  0  0  0  0  0
  -20.2273  -14.9973    0.0000 C   0  0  0  0  0  0  0  0  0  0  0  0
  -18.0839  -14.5848    0.0000 C   0  0  0  0  0  0  0  0  0  0  0  0
  -17.3694  -14.9973    0.0000 C   0  0  0  0  0  0  0  0  0  0  0  0
  -16.6549  -14.5848    0.0000 C   0  0  0  0  0  0  0  0  0  0  0  0
  -15.9405  -14.9973    0.0000 C   0  0  0  0  0  0  0  0  0  0  0  0
  -15.2260  -14.5848    0.0000 C   0  0  0  0  0  0  0  0  0  0  0  0
  -15.2260  -13.7598    0.0000 C   0  0  0  0  0  0  0  0  0  0  0  0
  -15.9404  -13.3473    0.0000 C   0  0  0  0  0  0  0  0  0  0  0  0
  -16.6549  -13.7598    0.0000 C   0  0  0  0  0  0  0  0  0  0  0  0
  -15.9405  -15.8223    0.0000 C   0  0  0  0  0  0  0  0  0  0  0  0
  -15.2260  -16.2348    0.0000 C   0  0  0  0  0  0  0  0  0  0  0  0
  -14.5115  -15.8223    0.0000 C   0  0  0  0  0  0  0  0  0  0  0  0
  -14.5115  -14.9973    0.0000 C   0  0  0  0  0  0  0  0  0  0  0  0
  -17.2680  -13.2078    0.0000 C   0  0  0  0  0  0  0  0  0  0  0  0
  -16.9324  -12.4541    0.0000 O   0  0  0  0  0  0  0  0  0  0  0  0
  -16.1120  -12.5403    0.0000 C   0  0  0  0  0  0  0  0  0  0  0  0
  -15.5600  -11.9272    0.0000 O   0  0  0  0  0  0  0  0  0  0  0  0
  -18.0750  -13.3793    0.0000 C   0  0  0  0  0  0  0  0  0  0  0  0
  -13.7971  -16.2348    0.0000 N   0  0  0  0  0  0  0  0  0  0  0  0
  -13.0826  -15.8223    0.0000 C   0  0  0  0  0  0  0  0  0  0  0  0
  -12.3681  -16.2348    0.0000 O   0  0  0  0  0  0  0  0  0  0  0  0
  -13.0826  -14.9973    0.0000 O   0  0  0  0  0  0  0  0  0  0  0  0
  -11.6537  -15.8223    0.0000 C   0  0  0  0  0  0  0  0  0  0  0  0
  -10.9392  -16.2348    0.0000 C   0  0  0  0  0  0  0  0  0  0  0  0
  -21.6562  -18.2973    0.0000 F   0  0  0  0  0  0  0  0  0  0  0  0
  -17.5684  -14.1666    0.0000 H   0  0  0  0  0  0  0  0  0  0  0  0
  -15.1314  -12.7595    0.0000 H   0  0  0  0  0  0  0  0  0  0  0  0
  -14.3600  -14.0848    0.0000 H   0  0  0  0  0  0  0  0  0  0  0  0
  -16.8065  -15.4973    0.0000 H   0  0  0  0  0  0  0  0  0  0  0  0
  1  2  2  0
  1  3  2  0
  1  4  1  0
  1  5  1  0
  6  7  2  0
  6 11  1  0
  7  8  1  0
  8  9  2  0
  9 10  1  0
 10 11  2  0
 11 12  1  0
 12 13  2  0
 12 17  1  0
 13 14  1  0
 14 15  2  0
 15 16  1  0
 16 17  2  0
 15 18  1  0
 18 19  2  0
 20 19  1  6
 20 21  1  0
 25 20  1  0
 22 23  1  0
 23 24  1  0
 21 26  1  0
 22 21  1  0
 29 22  1  0
 26 27  1  0
 27 28  1  0
 28 29  1  0
 24 32  1  0
 24 25  1  0
 25 30  1  0
 30 31  1  0
 31 32  1  0
 32 33  2  0
 30 34  1  1
 28 35  1  6
 35 36  1  0
 36 37  1  0
 36 38  2  0
 37 39  1  0
 39 40  1  0
  9 41  1  0
 25 42  1  1
 24 43  1  1
 22 44  1  1
 21 45  1  6
M  END
> <chembl_id>
CHEMBL2107386

> <chembl_pref_name>
VORAPAXAR SULFATE
