
     RDKit          2D

 33 36  0  0  0  0  0  0  0  0999 V2000
   16.3290   -5.3624    0.0000 C   0  0  0  0  0  0  0  0  0  0  0  0
   14.8915   -6.1791    0.0000 C   0  0  0  0  0  0  0  0  0  0  0  0
   14.1791   -6.5916    0.0000 C   0  0  0  0  0  0  0  0  0  0  0  0
   16.3248   -6.1874    0.0000 C   0  0  0  0  0  0  0  0  0  0  0  0
   15.6123   -6.5916    0.0000 C   0  0  0  0  0  0  0  0  0  0  0  0
   17.1248   -5.1166    0.0000 C   0  0  0  0  0  0  0  0  0  0  0  0
   14.1791   -7.4166    0.0000 C   0  0  0  0  0  0  0  0  0  0  0  0
   14.8999   -5.3500    0.0000 C   0  0  0  0  0  0  0  0  0  0  0  0
   15.6165   -4.9416    0.0000 C   0  0  0  0  0  0  0  0  0  0  0  0
   17.5998   -5.7916    0.0000 C   0  0  0  0  0  0  0  0  0  0  0  0
   13.4749   -6.1750    0.0000 C   0  0  0  0  0  0  0  0  0  0  0  0
   17.1040   -6.4541    0.0000 C   0  0  0  0  0  0  0  0  0  0  0  0
   13.4749   -7.8249    0.0000 C   0  0  0  0  0  0  0  0  0  0  0  0
   17.3915   -4.3374    0.0000 C   0  0  0  0  0  0  0  0  0  0  0  0
   15.6040   -7.4166    0.0000 C   0  0  0  0  0  0  0  0  0  0  0  0
   12.7624   -6.5916    0.0000 C   0  0  0  0  0  0  0  0  0  0  0  0
   12.7624   -7.4166    0.0000 C   0  0  0  0  0  0  0  0  0  0  0  0
   14.8915   -7.8291    0.0000 C   0  0  0  0  0  0  0  0  0  0  0  0
   14.8915   -7.0041    0.0000 F   0  0  0  0  0  0  0  0  0  0  0  0
   16.8415   -3.7166    0.0000 O   0  0  0  0  0  0  0  0  0  0  0  0
   12.0415   -7.8291    0.0000 O   0  0  0  0  0  0  0  0  0  0  0  0
   17.9165   -4.8999    0.0000 O   0  0  0  0  0  0  0  0  0  0  0  0
   16.3290   -4.5291    0.0000 C   0  0  0  0  0  0  0  0  0  0  0  0
   14.1873   -4.9291    0.0000 O   0  0  0  0  0  0  0  0  0  0  0  0
   14.1791   -5.7666    0.0000 C   0  0  0  0  0  0  0  0  0  0  0  0
   18.4248   -5.8041    0.0000 C   0  0  0  0  0  0  0  0  0  0  0  0
   18.1998   -4.1750    0.0000 C   0  0  0  0  0  0  0  0  0  0  0  0
   18.4665   -3.3917    0.0000 O   0  0  0  0  0  0  0  0  0  0  0  0
   16.3165   -7.0041    0.0000 H   0  0  0  0  0  0  0  0  0  0  0  0
   15.6040   -5.7666    0.0000 H   0  0  0  0  0  0  0  0  0  0  0  0
   19.2835   -3.2298    0.0000 C   0  0  0  0  0  0  0  0  0  0  0  0
   19.5519   -2.4414    0.0000 O   0  0  0  0  0  0  0  0  0  0  0  0
   19.8321   -3.8566    0.0000 C   0  0  0  0  0  0  0  0  0  0  0  0
  2  8  1  0
  3  2  1  0
  4  1  1  0
  5  4  1  0
  6  1  1  0
  7  3  1  0
  8  9  1  0
  9  1  1  0
 10  6  1  0
 11  3  1  0
 12  4  1  0
 13  7  2  0
  6 14  1  1
 15  5  1  0
 16 11  2  0
 17 16  1  0
 18 15  1  0
  2 19  1  6
 20 14  2  0
 21 17  2  0
 22  6  1  0
  1 23  1  1
  8 24  1  1
  3 25  1  1
 10 26  1  6
 27 14  1  0
 28 27  1  0
  4 29  1  6
  5 30  1  1
 10 12  1  0
  2  5  1  0
 18  7  1  0
 17 13  1  0
 28 31  1  0
 31 32  2  0
 31 33  1  0
M  END
> <chembl_id>
CHEMBL1530428

> <chembl_pref_name>
DEXAMETHASONE ACETATE
