
     RDKit          2D

 34 37  0  0  0  0  0  0  0  0999 V2000
    5.0917   -1.4583    0.0000 C   0  0  0  0  0  0  0  0  0  0  0  0
    5.0917   -2.2833    0.0000 C   0  0  0  0  0  0  0  0  0  0  0  0
    4.3796   -2.6917    0.0000 S   0  0  0  0  0  0  0  0  0  0  0  0
    4.3796   -1.0417    0.0000 C   0  0  0  0  0  0  0  0  0  0  0  0
    5.8073   -1.0479    0.0000 C   0  0  0  0  0  0  0  0  0  0  0  0
    6.5206   -1.4625    0.0000 S   0  0  0  0  0  0  0  0  0  0  0  0
    4.3815   -0.2156    0.0000 C   0  0  0  0  0  0  0  0  0  0  0  0
    3.6671    0.1969    0.0000 O   0  0  0  0  0  0  0  0  0  0  0  0
    5.0960    0.1969    0.0000 O   0  0  0  0  0  0  0  0  0  0  0  0
    3.6676   -1.4583    0.0000 N   0  0  0  0  0  0  0  0  0  0  0  0
    3.6712   -2.2833    0.0000 C   0  0  0  0  0  0  0  0  0  0  0  0
    2.8473   -2.2877    0.0000 C   0  0  0  0  0  0  0  0  0  0  0  0
    2.8427   -1.4619    0.0000 C   0  0  0  0  0  0  0  0  0  0  0  0
    2.4334   -3.0014    0.0000 N   0  0  0  0  0  0  0  0  0  0  0  0
    7.2363   -1.0521    0.0000 C   0  0  0  0  0  0  0  0  0  0  0  0
    7.3276   -0.2290    0.0000 N   0  0  0  0  0  0  0  0  0  0  0  0
    8.1351   -0.0598    0.0000 N   0  0  0  0  0  0  0  0  0  0  0  0
    8.5455   -0.7755    0.0000 N   0  0  0  0  0  0  0  0  0  0  0  0
    7.9916   -1.3869    0.0000 N   0  0  0  0  0  0  0  0  0  0  0  0
    8.1625   -2.1940    0.0000 C   0  0  0  0  0  0  0  0  0  0  0  0
    2.2568   -0.8811    0.0000 O   0  0  0  0  0  0  0  0  0  0  0  0
    1.6085   -2.9999    0.0000 C   0  0  0  0  0  0  0  0  0  0  0  0
    1.1946   -3.7136    0.0000 C   0  0  0  0  0  0  0  0  0  0  0  0
    1.1973   -2.2847    0.0000 O   0  0  0  0  0  0  0  0  0  0  0  0
    1.6058   -4.4288    0.0000 O   0  0  0  0  0  0  0  0  0  0  0  0
    0.3696   -3.7121    0.0000 C   0  0  0  0  0  0  0  0  0  0  0  0
   -0.0395   -4.4287    0.0000 C   0  0  0  0  0  0  0  0  0  0  0  0
   -0.8637   -4.4275    0.0000 C   0  0  0  0  0  0  0  0  0  0  0  0
   -1.2757   -3.7118    0.0000 C   0  0  0  0  0  0  0  0  0  0  0  0
   -0.8575   -2.9957    0.0000 C   0  0  0  0  0  0  0  0  0  0  0  0
   -0.0346   -3.0004    0.0000 C   0  0  0  0  0  0  0  0  0  0  0  0
    1.1920   -5.1425    0.0000 C   0  0  0  0  0  0  0  0  0  0  0  0
    0.3670   -5.1410    0.0000 O   0  0  0  0  0  0  0  0  0  0  0  0
    3.6792   -3.1042    0.0000 H   0  0  0  0  0  0  0  0  0  0  0  0
  7  8  1  0
  7  9  2  0
 16 17  1  0
 17 18  2  0
 18 19  1  0
 19 15  1  0
  4  7  1  0
 19 20  1  0
 10 11  1  0
 13 21  2  0
 10  4  1  0
 14 22  1  0
 22 23  1  0
  1  5  1  0
 22 24  2  0
  1  2  1  0
 23 25  1  6
 11 12  1  0
 23 26  1  0
 12 13  1  0
 26 27  2  0
 13 10  1  0
 27 28  1  0
  5  6  1  0
 28 29  2  0
 12 14  1  6
 29 30  1  0
  1  4  2  0
 30 31  2  0
 31 26  1  0
  6 15  1  0
 25 32  1  0
 15 16  2  0
 32 33  2  0
  2  3  1  0
 11 34  1  1
 11  3  1  0
M  END
> <chembl_id>
CHEMBL1201218

> <chembl_pref_name>
CEFAMANDOLE NAFATE
