
     RDKit          2D

 34 35  0  0  0  0  0  0  0  0999 V2000
    2.8500   -1.4792    0.0000 C   0  0  0  0  0  0  0  0  0  0  0  0
   -2.8000    1.5208    0.0000 C   0  0  0  0  0  0  0  0  0  0  0  0
   -2.1375    1.9583    0.0000 C   0  0  0  0  0  0  0  0  0  0  0  0
    2.1542   -1.9000    0.0000 C   0  0  0  0  0  0  0  0  0  0  0  0
    1.4167   -1.4792    0.0000 C   0  0  0  0  0  0  0  0  0  0  0  0
   -1.4208    1.5458    0.0000 C   0  0  0  0  0  0  0  0  0  0  0  0
    2.8500   -0.6917    0.0000 C   0  0  0  0  0  0  0  0  0  0  0  0
   -2.8000    0.7500    0.0000 C   0  0  0  0  0  0  0  0  0  0  0  0
    1.4167   -0.6750    0.0000 C   0  0  0  0  0  0  0  0  0  0  0  0
   -1.4208    0.7500    0.0000 C   0  0  0  0  0  0  0  0  0  0  0  0
   -2.1375    0.3250    0.0000 C   0  0  0  0  0  0  0  0  0  0  0  0
    2.1542   -0.3000    0.0000 C   0  0  0  0  0  0  0  0  0  0  0  0
    3.5375   -1.8792    0.0000 C   0  0  0  0  0  0  0  0  0  0  0  0
   -3.5000    1.8958    0.0000 C   0  0  0  0  0  0  0  0  0  0  0  0
   -0.6500    1.9208    0.0000 N   0  0  0  0  0  0  0  0  0  0  0  0
    0.6667   -1.9167    0.0000 N   0  0  0  0  0  0  0  0  0  0  0  0
   -0.1958   -1.7625    0.0000 C   0  0  0  0  0  0  0  0  0  0  0  0
    0.1667    1.7000    0.0000 C   0  0  0  0  0  0  0  0  0  0  0  0
    4.2500   -1.4625    0.0000 O   0  0  0  0  0  0  0  0  0  0  0  0
   -4.1833    1.4750    0.0000 O   0  0  0  0  0  0  0  0  0  0  0  0
    2.1542   -2.7042    0.0000 I   0  0  0  0  0  0  0  0  0  0  0  0
   -2.1375    2.7875    0.0000 I   0  0  0  0  0  0  0  0  0  0  0  0
    0.9500    2.3750    0.0000 O   0  0  0  0  0  0  0  0  0  0  0  0
   -0.5833   -2.6542    0.0000 O   0  0  0  0  0  0  0  0  0  0  0  0
   -3.5208    0.3583    0.0000 I   0  0  0  0  0  0  0  0  0  0  0  0
    3.5375   -0.2542    0.0000 I   0  0  0  0  0  0  0  0  0  0  0  0
    0.7250   -0.3167    0.0000 I   0  0  0  0  0  0  0  0  0  0  0  0
   -0.7750    0.4583    0.0000 I   0  0  0  0  0  0  0  0  0  0  0  0
   -3.4500    2.6458    0.0000 O   0  0  0  0  0  0  0  0  0  0  0  0
    3.5542   -2.6667    0.0000 O   0  0  0  0  0  0  0  0  0  0  0  0
    0.6000    0.9458    0.0000 C   0  0  0  0  0  0  0  0  0  0  0  0
   -1.0208   -1.1417    0.0000 C   0  0  0  0  0  0  0  0  0  0  0  0
   -0.8833   -0.0917    0.0000 C   0  0  0  0  0  0  0  0  0  0  0  0
    0.1292    0.1333    0.0000 C   0  0  0  0  0  0  0  0  0  0  0  0
  2  3  1  0
  3  6  2  0
  4  1  1  0
  5  4  2  0
  6 15  1  0
  7  1  2  0
  8 11  1  0
  9 12  2  0
 10  6  1  0
 11 10  2  0
 12  7  1  0
 13  1  1  0
 14  2  1  0
 15 18  1  0
 16  5  1  0
 17 16  1  0
 18 31  1  0
 19 13  2  0
 20 14  2  0
 21  4  1  0
 22  3  1  0
 23 18  2  0
 24 17  2  0
 25  8  1  0
 26  7  1  0
 27  9  1  0
 28 10  1  0
 29 14  1  0
 30 13  1  0
 31 34  1  0
 32 17  1  0
 33 32  1  0
 34 33  1  0
  5  9  1  0
  2  8  2  0
M  END
> <chembl_id>
CHEMBL1165268

> <chembl_pref_name>
IODIPAMIDE
