
     RDKit          2D

 22 23  0  0  0  0  0  0  0  0999 V2000
   -2.9375   -1.5292    0.0000 Cl  0  0  0  0  0  0  0  0  0  0  0  0
    0.5917   -0.4542    0.0000 N   0  0  0  0  0  0  0  0  0  0  0  0
   -0.0208   -0.8125    0.0000 C   0  0  0  0  0  0  0  0  0  0  0  0
    0.5917   -1.8792    0.0000 S   0  0  0  0  0  0  0  0  0  0  0  0
    1.2042   -0.8167    0.0000 C   0  0  0  0  0  0  0  0  0  0  0  0
   -0.0250   -1.5167    0.0000 C   0  0  0  0  0  0  0  0  0  0  0  0
    1.2042   -1.5250    0.0000 C   0  0  0  0  0  0  0  0  0  0  0  0
   -0.6333   -0.4542    0.0000 C   0  0  0  0  0  0  0  0  0  0  0  0
   -0.6375   -1.8667    0.0000 C   0  0  0  0  0  0  0  0  0  0  0  0
    0.6042    0.2458    0.0000 C   0  0  0  0  0  0  0  0  0  0  0  0
   -1.2458   -0.8042    0.0000 C   0  0  0  0  0  0  0  0  0  0  0  0
   -0.0083    0.6083    0.0000 C   0  0  0  0  0  0  0  0  0  0  0  0
   -0.6208    1.6750    0.0000 N   0  0  0  0  0  0  0  0  0  0  0  0
   -1.2458   -1.5167    0.0000 C   0  0  0  0  0  0  0  0  0  0  0  0
   -1.8500   -0.4417    0.0000 Cl  0  0  0  0  0  0  0  0  0  0  0  0
    1.8250   -0.4667    0.0000 C   0  0  0  0  0  0  0  0  0  0  0  0
    1.8167   -1.8917    0.0000 C   0  0  0  0  0  0  0  0  0  0  0  0
   -0.0083    1.3125    0.0000 C   0  0  0  0  0  0  0  0  0  0  0  0
   -0.6125    2.3833    0.0000 C   0  0  0  0  0  0  0  0  0  0  0  0
   -1.2333    1.3208    0.0000 C   0  0  0  0  0  0  0  0  0  0  0  0
    2.4375   -0.8292    0.0000 C   0  0  0  0  0  0  0  0  0  0  0  0
    2.4292   -1.5417    0.0000 C   0  0  0  0  0  0  0  0  0  0  0  0
  3  2  1  0
  4  7  1  0
  5  2  1  0
  6  3  1  0
  7  5  2  0
  8  3  2  0
  9  6  2  0
 10  2  1  0
 11  8  1  0
 12 10  1  0
 13 18  1  0
 14 11  2  0
 15 11  1  0
 16  5  1  0
 17  7  1  0
 18 12  1  0
 19 13  1  0
 20 13  1  0
 21 16  2  0
 22 21  1  0
  4  6  1  0
 22 17  2  0
 14  9  1  0
M  END
> <chembl_id>
CHEMBL1713

> <chembl_pref_name>
CHLORPROMAZINE HYDROCHLORIDE
