
     RDKit          2D

 17 18  0  0  0  0  0  0  0  0999 V2000
   -4.7956   -5.2962    0.0000 C   0  0  0  0  0  0  0  0  0  0  0  0
   -4.7970   -4.4712    0.0000 N   0  0  0  0  0  0  0  0  0  0  0  0
   -4.0813   -4.0554    0.0000 C   0  0  0  0  0  0  0  0  0  0  0  0
   -3.3683   -4.4687    0.0000 C   0  0  0  0  0  0  0  0  0  0  0  0
   -3.3670   -5.2937    0.0000 C   0  0  0  0  0  0  0  0  0  0  0  0
   -4.0784   -5.7053    0.0000 N   0  0  0  0  0  0  0  0  0  0  0  0
   -5.5071   -5.7078    0.0000 O   0  0  0  0  0  0  0  0  0  0  0  0
   -4.7465   -7.0220    0.0000 O   0  0  0  0  0  0  0  0  0  0  0  0
   -4.0770   -6.5303    0.0000 C   0  0  0  0  0  0  0  0  0  0  0  0
   -3.4099   -7.0198    0.0000 C   0  0  0  0  0  0  0  0  0  0  0  0
   -3.6644   -7.8009    0.0000 C   0  0  0  0  0  0  0  0  0  0  0  0
   -4.4894   -7.8023    0.0000 C   0  0  0  0  0  0  0  0  0  0  0  0
   -4.9705   -8.4735    0.0000 C   0  0  0  0  0  0  0  0  0  0  0  0
   -4.6375   -9.2276    0.0000 O   0  0  0  0  0  0  0  0  0  0  0  0
   -4.0828   -3.2366    0.0000 N   0  0  0  0  0  0  0  0  0  0  0  0
   -2.6250   -6.7665    0.0000 O   0  0  0  0  0  0  0  0  0  0  0  0
   -3.1764   -8.4680    0.0000 O   0  0  0  0  0  0  0  0  0  0  0  0
  2  3  2  0
  3  4  1  0
  4  5  2  0
  5  6  1  0
  1  6  1  0
  1  7  2  0
  8  9  1  0
  9 10  1  0
 10 11  1  0
 11 12  1  0
  8 12  1  0
 13 14  1  0
 12 13  1  1
  9  6  1  1
  3 15  1  0
 10 16  1  1
  1  2  1  0
 11 17  1  6
M  END
> <chembl_id>
CHEMBL803

> <chembl_pref_name>
CYTARABINE
