
     RDKit          2D

 39 44  0  0  0  0  0  0  0  0999 V2000
   -4.7868    1.4314    0.0000 C   0  0  0  0  0  0  0  0  0  0  0  0
   -5.5012    1.0189    0.0000 C   0  0  0  0  0  0  0  0  0  0  0  0
   -6.2157    0.6064    0.0000 C   0  0  0  0  0  0  0  0  0  0  0  0
   -4.0723    1.0189    0.0000 O   0  0  0  0  0  0  0  0  0  0  0  0
   -2.6434    1.0189    0.0000 C   0  0  0  0  0  0  0  0  0  0  0  0
   -3.3578    1.4314    0.0000 C   0  0  0  0  0  0  0  0  0  0  0  0
   -3.3578    2.2564    0.0000 C   0  0  0  0  0  0  0  0  0  0  0  0
   -2.6434    2.6689    0.0000 N   0  0  0  0  0  0  0  0  0  0  0  0
   -1.9289    2.2564    0.0000 C   0  0  0  0  0  0  0  0  0  0  0  0
   -1.9289    1.4314    0.0000 C   0  0  0  0  0  0  0  0  0  0  0  0
   -1.2144    1.0189    0.0000 C   0  0  0  0  0  0  0  0  0  0  0  0
   -0.4999    1.4314    0.0000 C   0  0  0  0  0  0  0  0  0  0  0  0
   -1.3158    2.8084    0.0000 C   0  0  0  0  0  0  0  0  0  0  0  0
   -1.2144    0.1939    0.0000 C   0  0  0  0  0  0  0  0  0  0  0  0
   -0.4999   -0.2186    0.0000 N   0  0  0  0  0  0  0  0  0  0  0  0
    0.2145    0.1939    0.0000 C   0  0  0  0  0  0  0  0  0  0  0  0
    0.2145    1.0189    0.0000 C   0  0  0  0  0  0  0  0  0  0  0  0
    1.6435    0.1939    0.0000 C   0  0  0  0  0  0  0  0  0  0  0  0
    0.9290   -0.2186    0.0000 N   0  0  0  0  0  0  0  0  0  0  0  0
    0.9290   -1.0436    0.0000 C   0  0  0  0  0  0  0  0  0  0  0  0
    2.3579   -0.2186    0.0000 C   0  0  0  0  0  0  0  0  0  0  0  0
    2.3579   -1.0436    0.0000 N   0  0  0  0  0  0  0  0  0  0  0  0
    1.6435   -1.4561    0.0000 C   0  0  0  0  0  0  0  0  0  0  0  0
    3.0724   -1.4561    0.0000 C   0  0  0  0  0  0  0  0  0  0  0  0
    3.7869   -1.0436    0.0000 C   0  0  0  0  0  0  0  0  0  0  0  0
    3.7869   -0.2186    0.0000 C   0  0  0  0  0  0  0  0  0  0  0  0
    4.5014   -1.4561    0.0000 C   0  0  0  0  0  0  0  0  0  0  0  0
    5.2158   -1.0436    0.0000 N   0  0  0  0  0  0  0  0  0  0  0  0
    5.2158   -0.2186    0.0000 C   0  0  0  0  0  0  0  0  0  0  0  0
    4.5014    0.1939    0.0000 C   0  0  0  0  0  0  0  0  0  0  0  0
    5.9303    1.0189    0.0000 C   0  0  0  0  0  0  0  0  0  0  0  0
    5.9303    0.1939    0.0000 O   0  0  0  0  0  0  0  0  0  0  0  0
   -5.0887    0.3044    0.0000 C   0  0  0  0  0  0  0  0  0  0  0  0
   -5.9137    1.7334    0.0000 O   0  0  0  0  0  0  0  0  0  0  0  0
   -2.4718    3.4759    0.0000 N   0  0  0  0  0  0  0  0  0  0  0  0
   -1.6513    3.5621    0.0000 C   0  0  0  0  0  0  0  0  0  0  0  0
   -0.5088    2.6369    0.0000 C   0  0  0  0  0  0  0  0  0  0  0  0
    0.2982    2.4654    0.0000 N   0  0  0  0  0  0  0  0  0  0  0  0
    1.8460   -0.7481    0.0000 C   0  0  0  0  0  0  0  0  0  0  0  0
  1  2  1  0
  2  3  1  0
  1  4  1  0
  5  6  1  0
  4  6  1  0
  7  8  1  0
  8  9  1  0
  9 10  1  0
  5 10  2  0
  6  7  2  0
 11 12  2  0
  9 13  2  0
 10 11  1  0
 14 15  2  0
 15 16  1  0
 16 17  2  0
 12 17  1  0
 11 14  1  0
 18 19  1  0
 16 19  1  0
 21 22  1  0
 22 23  1  0
 20 23  1  0
 18 21  1  0
 20 19  1  0
 24 25  1  0
 25 26  2  0
 22 24  1  0
 27 28  2  0
 28 29  1  0
 29 30  2  0
 26 30  1  0
 25 27  1  0
 31 32  1  0
 29 32  1  0
  2 33  1  0
  2 34  1  0
  8 35  1  0
 35 36  2  0
 36 13  1  0
 13 37  1  0
 37 38  3  0
 23 39  1  0
 39 21  1  0
M  END
> <chembl_id>
CHEMBL4559134

> <chembl_pref_name>
SELPERCATINIB
