
     RDKit          2D

 21 23  0  0  0  0  0  0  0  0999 V2000
  -14.0936   -0.5963    0.0000 N   0  0  0  0  0  0  0  0  0  0  0  0
  -13.4262   -1.0812    0.0000 C   0  0  0  0  0  0  0  0  0  0  0  0
  -13.6811   -1.8658    0.0000 C   0  0  0  0  0  0  0  0  0  0  0  0
  -14.5061   -1.8658    0.0000 N   0  0  0  0  0  0  0  0  0  0  0  0
  -14.7611   -1.0812    0.0000 C   0  0  0  0  0  0  0  0  0  0  0  0
  -14.0936    0.2287    0.0000 C   0  0  0  0  0  0  0  0  0  0  0  0
  -14.8081    0.6412    0.0000 C   0  0  0  0  0  0  0  0  0  0  0  0
  -13.3791    0.6412    0.0000 C   0  0  0  0  0  0  0  0  0  0  0  0
  -15.7013    1.6332    0.0000 C   0  0  0  0  0  0  0  0  0  0  0  0
  -14.8943    1.4617    0.0000 S   0  0  0  0  0  0  0  0  0  0  0  0
  -15.5618    0.3056    0.0000 S   0  0  0  0  0  0  0  0  0  0  0  0
  -16.1138    0.9187    0.0000 C   0  0  0  0  0  0  0  0  0  0  0  0
  -16.0369    2.3869    0.0000 C   0  0  0  0  0  0  0  0  0  0  0  0
  -15.8875    3.8080    0.0000 C   0  0  0  0  0  0  0  0  0  0  0  0
  -15.5519    3.0543    0.0000 C   0  0  0  0  0  0  0  0  0  0  0  0
  -16.8573    2.4731    0.0000 C   0  0  0  0  0  0  0  0  0  0  0  0
  -17.1929    3.2268    0.0000 C   0  0  0  0  0  0  0  0  0  0  0  0
  -16.7080    3.8942    0.0000 C   0  0  0  0  0  0  0  0  0  0  0  0
  -14.7315    2.9681    0.0000 Cl  0  0  0  0  0  0  0  0  0  0  0  0
  -17.0435    4.6479    0.0000 Cl  0  0  0  0  0  0  0  0  0  0  0  0
  -12.6647    1.0537    0.0000 N   0  0  0  0  0  0  0  0  0  0  0  0
  1  2  1  0
  1  5  1  0
  2  3  2  0
  3  4  1  0
  4  5  2  0
  1  6  1  0
  6  7  2  0
  6  8  1  0
 10  7  1  0
  7 11  1  0
  9 10  1  0
  9 12  1  0
 11 12  1  0
  9 13  1  1
 15 13  2  0
 13 16  1  0
 14 15  1  0
 14 18  2  0
 16 17  2  0
 17 18  1  0
 15 19  1  0
 18 20  1  0
  8 21  3  0
M  END
> <chembl_id>
CHEMBL2105689

> <chembl_pref_name>
LULICONAZOLE
