
     RDKit          2D

 29 30  0  0  1  0  0  0  0  0999 V2000
    6.0167   -1.6042    0.0000 N   0  0  0  0  0  0  0  0  0  0  0  0
    5.4042   -1.9667    0.0000 C   0  0  0  0  0  0  0  0  0  0  0  0
    6.5792   -2.0292    0.0000 C   0  0  0  0  0  0  0  0  0  0  0  0
    4.1667   -1.9667    0.0000 N   0  0  0  0  0  0  0  0  0  0  0  0
    4.7875   -1.6125    0.0000 C   0  0  0  0  0  0  0  0  0  0  0  0
    6.5792   -2.7417    0.0000 C   0  0  0  0  0  0  0  0  0  0  0  0
    3.5542   -0.9042    0.0000 C   0  0  0  0  0  0  0  0  0  0  0  0
    3.5542   -1.6167    0.0000 C   0  0  0  0  0  0  0  0  0  0  0  0
    5.4042   -2.6792    0.0000 O   0  0  0  0  0  0  0  0  0  0  0  0
    5.9667   -3.1000    0.0000 O   0  0  0  0  0  0  0  0  0  0  0  0
    2.9375   -0.5542    0.0000 O   0  0  0  0  0  0  0  0  0  0  0  0
    2.9417   -1.9750    0.0000 C   0  0  0  0  0  0  0  0  0  0  0  0
    6.2375   -0.9292    0.0000 C   0  0  0  0  0  0  0  0  0  0  0  0
    7.2000   -3.1042    0.0000 O   0  0  0  0  0  0  0  0  0  0  0  0
    4.1667   -0.5542    0.0000 O   0  0  0  0  0  0  0  0  0  0  0  0
    2.3208   -1.6167    0.0000 C   0  0  0  0  0  0  0  0  0  0  0  0
    6.0167    1.2250    0.0000 N   0  0  0  0  0  0  0  0  0  0  0  0
    7.1625   -1.6125    0.0000 C   0  0  0  0  0  0  0  0  0  0  0  0
    1.7125   -1.9792    0.0000 C   0  0  0  0  0  0  0  0  0  0  0  0
    6.9542   -0.9292    0.0000 C   0  0  0  0  0  0  0  0  0  0  0  0
    4.7875   -0.9042    0.0000 C   0  0  0  0  0  0  0  0  0  0  0  0
    6.0167    0.5125    0.0000 C   0  0  0  0  0  0  0  0  0  0  0  0
    1.0917   -1.6167    0.0000 C   0  0  0  0  0  0  0  0  0  0  0  0
    1.7125   -2.6917    0.0000 C   0  0  0  0  0  0  0  0  0  0  0  0
    5.4042   -0.5542    0.0000 C   0  0  0  0  0  0  0  0  0  0  0  0
    5.4042    0.1583    0.0000 C   0  0  0  0  0  0  0  0  0  0  0  0
    0.4875   -1.9792    0.0000 C   0  0  0  0  0  0  0  0  0  0  0  0
    1.0917   -3.0542    0.0000 C   0  0  0  0  0  0  0  0  0  0  0  0
    0.4875   -2.6917    0.0000 C   0  0  0  0  0  0  0  0  0  0  0  0
  2  1  1  0
  3  1  1  0
  4  5  1  0
  5  2  1  0
  3  6  1  1
  8  7  1  1
  8  4  1  0
  9  2  2  0
 10  6  2  0
 11  7  2  0
 12  8  1  0
 13  1  1  0
 14  6  1  0
 15  7  1  0
 16 12  1  0
 17 22  1  0
 18  3  1  0
 19 16  1  0
 20 13  1  0
  5 21  1  1
 22 26  1  0
 23 19  2  0
 24 19  1  0
 25 21  1  0
 26 25  1  0
 27 23  1  0
 28 24  2  0
 29 27  2  0
 20 18  1  0
 29 28  1  0
M  END
> <chembl_id>
CHEMBL1237

> <chembl_pref_name>
LISINOPRIL ANHYDROUS
