
     RDKit          2D

 59 62  0  0  0  0  0  0  0  0999 V2000
   -1.4495  -11.3233    0.0000 C   0  0  0  0  0  0  0  0  0  0  0  0
   -2.1641  -11.7357    0.0000 C   0  0  0  0  0  0  0  0  0  0  0  0
   -2.1641  -12.5608    0.0000 C   0  0  0  0  0  0  0  0  0  0  0  0
   -1.4496  -12.9733    0.0000 O   0  0  0  0  0  0  0  0  0  0  0  0
   -0.7351  -12.5607    0.0000 C   0  0  0  0  0  0  0  0  0  0  0  0
   -1.4496  -10.4983    0.0000 C   0  0  0  0  0  0  0  0  0  0  0  0
   -0.7351  -10.0858    0.0000 C   0  0  0  0  0  0  0  0  0  0  0  0
   -0.7351   -9.2607    0.0000 C   0  0  0  0  0  0  0  0  0  0  0  0
   -0.0207   -8.8482    0.0000 C   0  0  0  0  0  0  0  0  0  0  0  0
    0.6938   -9.2607    0.0000 C   0  0  0  0  0  0  0  0  0  0  0  0
    0.6938  -10.0857    0.0000 C   0  0  0  0  0  0  0  0  0  0  0  0
   -0.0206  -12.9733    0.0000 C   0  0  0  0  0  0  0  0  0  0  0  0
    0.6939  -12.5608    0.0000 C   0  0  0  0  0  0  0  0  0  0  0  0
    0.6939  -11.7357    0.0000 C   0  0  0  0  0  0  0  0  0  0  0  0
    1.4084  -10.4981    0.0000 C   0  0  0  0  0  0  0  0  0  0  0  0
    1.4083  -11.3232    0.0000 C   0  0  0  0  0  0  0  0  0  0  0  0
   -0.0207  -11.3233    0.0000 O   0  0  0  0  0  0  0  0  0  0  0  0
   -0.0206  -10.4983    0.0000 C   0  0  0  0  0  0  0  0  0  0  0  0
   -0.7351  -11.7357    0.0000 O   0  0  0  0  0  0  0  0  0  0  0  0
    1.4083   -8.8481    0.0000 C   0  0  0  0  0  0  0  0  0  0  0  0
    2.1228  -10.0856    0.0000 C   0  0  0  0  0  0  0  0  0  0  0  0
    2.8372  -10.4981    0.0000 C   0  0  0  0  0  0  0  0  0  0  0  0
    2.8372  -11.3231    0.0000 O   0  0  0  0  0  0  0  0  0  0  0  0
    2.1229  -11.7356    0.0000 O   0  0  0  0  0  0  0  0  0  0  0  0
    2.5354  -12.4501    0.0000 C   0  0  0  0  0  0  0  0  0  0  0  0
    1.4084  -12.9733    0.0000 O   0  0  0  0  0  0  0  0  0  0  0  0
    2.1229  -13.1645    0.0000 O   0  0  0  0  0  0  0  0  0  0  0  0
    2.5354  -13.8790    0.0000 C   0  0  0  0  0  0  0  0  0  0  0  0
    3.3603  -13.8791    0.0000 C   0  0  0  0  0  0  0  0  0  0  0  0
    3.7728  -13.1646    0.0000 C   0  0  0  0  0  0  0  0  0  0  0  0
    3.3603  -12.4500    0.0000 C   0  0  0  0  0  0  0  0  0  0  0  0
    3.7728  -11.7356    0.0000 O   0  0  0  0  0  0  0  0  0  0  0  0
    4.5979  -13.1645    0.0000 N   0  0  0  0  0  0  0  0  0  0  0  0
    5.0104  -12.4501    0.0000 C   0  0  0  0  0  0  0  0  0  0  0  0
    5.0104  -13.8790    0.0000 C   0  0  0  0  0  0  0  0  0  0  0  0
    3.7728  -14.5936    0.0000 O   0  0  0  0  0  0  0  0  0  0  0  0
    3.3603  -15.3080    0.0000 C   0  0  0  0  0  0  0  0  0  0  0  0
    2.1229  -14.5935    0.0000 C   0  0  0  0  0  0  0  0  0  0  0  0
   -2.8786  -12.9733    0.0000 C   0  0  0  0  0  0  0  0  0  0  0  0
   -0.0207   -8.0231    0.0000 O   0  0  0  0  0  0  0  0  0  0  0  0
    0.3918   -7.3087    0.0000 C   0  0  0  0  0  0  0  0  0  0  0  0
    1.2168   -7.3087    0.0000 O   0  0  0  0  0  0  0  0  0  0  0  0
    1.6293   -6.5942    0.0000 C   0  0  0  0  0  0  0  0  0  0  0  0
    1.2168   -5.8797    0.0000 C   0  0  0  0  0  0  0  0  0  0  0  0
    0.3919   -5.8798    0.0000 C   0  0  0  0  0  0  0  0  0  0  0  0
   -0.0206   -6.5942    0.0000 C   0  0  0  0  0  0  0  0  0  0  0  0
    2.4544   -6.5942    0.0000 C   0  0  0  0  0  0  0  0  0  0  0  0
    1.6293   -5.1652    0.0000 N   0  0  0  0  0  0  0  0  0  0  0  0
    1.2169   -4.4508    0.0000 C   0  0  0  0  0  0  0  0  0  0  0  0
    2.4543   -5.1653    0.0000 C   0  0  0  0  0  0  0  0  0  0  0  0
    2.5353  -15.3080    0.0000 O   0  0  0  0  0  0  0  0  0  0  0  0
    2.1228  -16.0225    0.0000 C   0  0  0  0  0  0  0  0  0  0  0  0
    2.5353  -16.7370    0.0000 C   0  0  0  0  0  0  0  0  0  0  0  0
    3.3604  -16.7370    0.0000 C   0  0  0  0  0  0  0  0  0  0  0  0
    3.7729  -16.0225    0.0000 C   0  0  0  0  0  0  0  0  0  0  0  0
    1.2979  -16.0225    0.0000 C   0  0  0  0  0  0  0  0  0  0  0  0
    2.1228  -17.4514    0.0000 O   0  0  0  0  0  0  0  0  0  0  0  0
    4.0748  -17.1495    0.0000 O   0  0  0  0  0  0  0  0  0  0  0  0
    3.3604  -17.5619    0.0000 C   0  0  0  0  0  0  0  0  0  0  0  0
  1  2  1  0
  2  3  1  0
  3  4  1  0
  4  5  1  0
  1  6  2  0
  6  7  1  0
  7  8  2  0
  8  9  1  0
  9 10  1  0
 10 11  1  0
  5 12  1  0
 12 13  1  0
 13 14  1  0
 11 15  1  0
 16 14  1  0
 15 16  1  0
 14 17  1  6
 17 18  1  0
  5 19  2  0
 10 20  1  6
 15 21  1  6
 21 22  1  0
 22 23  2  0
 16 24  1  6
 25 24  1  1
 13 26  1  6
 25 27  1  0
 31 25  1  0
 27 28  1  0
 28 29  1  0
 29 30  1  0
 30 31  1  0
 31 32  1  6
 30 33  1  1
 33 34  1  0
 33 35  1  0
 29 36  1  6
 37 36  1  1
 28 38  1  1
  3 39  1  6
  9 40  1  6
 41 40  1  1
 41 42  1  0
 46 41  1  0
 42 43  1  0
 43 44  1  0
 44 45  1  0
 45 46  1  0
 43 47  1  1
 44 48  1  6
 48 49  1  0
 48 50  1  0
 37 51  1  0
 55 37  1  0
 51 52  1  0
 52 53  1  0
 53 54  1  0
 54 55  1  0
 52 56  1  6
 53 57  1  1
 54 58  1  1
 54 59  1  6
M  END
> <chembl_id>
CHEMBL453514

> <chembl_pref_name>
SPIRAMYCIN
