
     RDKit          2D

 31 33  0  0  1  0  0  0  0  0999 V2000
    5.7292   -5.1417    0.0000 N   0  0  0  0  0  0  0  0  0  0  0  0
    5.0667   -5.3917    0.0000 C   0  0  0  0  0  0  0  0  0  0  0  0
    5.9917   -4.5167    0.0000 C   0  0  0  0  0  0  0  0  0  0  0  0
    4.4792   -5.0000    0.0000 C   0  0  0  0  0  0  0  0  0  0  0  0
    3.8875   -5.3292    0.0000 N   0  0  0  0  0  0  0  0  0  0  0  0
    6.0917   -5.7542    0.0000 C   0  0  0  0  0  0  0  0  0  0  0  0
    3.2750   -4.2417    0.0000 C   0  0  0  0  0  0  0  0  0  0  0  0
    3.2750   -4.9667    0.0000 C   0  0  0  0  0  0  0  0  0  0  0  0
    6.8042   -5.7375    0.0000 C   0  0  0  0  0  0  0  0  0  0  0  0
    5.0667   -6.0667    0.0000 O   0  0  0  0  0  0  0  0  0  0  0  0
    5.6167   -3.8417    0.0000 C   0  0  0  0  0  0  0  0  0  0  0  0
    4.4167   -4.2792    0.0000 C   0  0  0  0  0  0  0  0  0  0  0  0
    3.8917   -3.8792    0.0000 O   0  0  0  0  0  0  0  0  0  0  0  0
    7.1667   -5.1250    0.0000 O   0  0  0  0  0  0  0  0  0  0  0  0
    4.9417   -3.7875    0.0000 C   0  0  0  0  0  0  0  0  0  0  0  0
    2.6542   -5.3292    0.0000 C   0  0  0  0  0  0  0  0  0  0  0  0
    2.6417   -3.8792    0.0000 O   0  0  0  0  0  0  0  0  0  0  0  0
    7.1417   -6.3625    0.0000 O   0  0  0  0  0  0  0  0  0  0  0  0
    2.0375   -4.9792    0.0000 C   0  0  0  0  0  0  0  0  0  0  0  0
    1.4250   -5.3375    0.0000 C   0  0  0  0  0  0  0  0  0  0  0  0
    6.6792   -4.5083    0.0000 C   0  0  0  0  0  0  0  0  0  0  0  0
    6.0042   -3.2625    0.0000 C   0  0  0  0  0  0  0  0  0  0  0  0
    2.0042   -4.2375    0.0000 C   0  0  0  0  0  0  0  0  0  0  0  0
    1.4250   -6.0667    0.0000 C   0  0  0  0  0  0  0  0  0  0  0  0
    0.8042   -4.9792    0.0000 C   0  0  0  0  0  0  0  0  0  0  0  0
    7.0542   -3.9125    0.0000 C   0  0  0  0  0  0  0  0  0  0  0  0
    1.3792   -3.8792    0.0000 C   0  0  0  0  0  0  0  0  0  0  0  0
    6.7125   -3.2625    0.0000 C   0  0  0  0  0  0  0  0  0  0  0  0
    0.8042   -6.4292    0.0000 C   0  0  0  0  0  0  0  0  0  0  0  0
    0.1792   -5.3375    0.0000 C   0  0  0  0  0  0  0  0  0  0  0  0
    0.1792   -6.0667    0.0000 C   0  0  0  0  0  0  0  0  0  0  0  0
  2  1  1  0
  3  1  1  0
  4  2  1  0
  4  5  1  1
  6  1  1  0
  8  7  1  1
  8  5  1  0
  9  6  1  0
 10  2  2  0
 11  3  1  0
 12  4  1  0
 13  7  2  0
 14  9  2  0
 15 11  1  0
 16  8  1  0
 17  7  1  0
 18  9  1  0
 19 16  1  0
 20 19  1  0
 21  3  2  0
 22 11  2  0
 23 17  1  0
 24 20  2  0
 25 20  1  0
 26 21  1  0
 27 23  1  0
 28 26  2  0
 29 24  1  0
 30 25  2  0
 31 29  2  0
 12 15  1  0
 28 22  1  0
 31 30  1  0
M  END
> <chembl_id>
CHEMBL838

> <chembl_pref_name>
BENAZEPRIL
