
     RDKit          2D

 74 76  0  0  0  0  0  0  0  0999 V2000
    6.8943  -27.6937    0.0000 Cl  0  0  0  0  0  0  0  0  0  0  0  0
    2.8135  -21.9888    0.0000 C   0  0  0  0  0  0  0  0  0  0  0  0
    1.3900  -21.9888    0.0000 C   0  0  0  0  0  0  0  0  0  0  0  0
    2.8135  -21.1568    0.0000 C   0  0  0  0  0  0  0  0  0  0  0  0
    4.2468  -21.9888    0.0000 C   0  0  0  0  0  0  0  0  0  0  0  0
    2.0970  -22.3977    0.0000 C   0  0  0  0  0  0  0  0  0  0  0  0
    3.5349  -22.3977    0.0000 C   0  0  0  0  0  0  0  0  0  0  0  0
    4.2468  -21.1568    0.0000 C   0  0  0  0  0  0  0  0  0  0  0  0
    0.6686  -22.3977    0.0000 C   0  0  0  0  0  0  0  0  0  0  0  0
    1.3900  -21.1568    0.0000 C   0  0  0  0  0  0  0  0  0  0  0  0
    3.5349  -20.7480    0.0000 C   0  0  0  0  0  0  0  0  0  0  0  0
   -0.0433  -21.9888    0.0000 C   0  0  0  0  0  0  0  0  0  0  0  0
    2.0970  -20.7480    0.0000 C   0  0  0  0  0  0  0  0  0  0  0  0
   -0.0433  -21.1568    0.0000 C   0  0  0  0  0  0  0  0  0  0  0  0
    0.6686  -20.7480    0.0000 C   0  0  0  0  0  0  0  0  0  0  0  0
    4.9634  -22.3977    0.0000 C   0  0  0  0  0  0  0  0  0  0  0  0
    3.5349  -19.9256    0.0000 N   0  0  0  0  0  0  0  0  0  0  0  0
    3.5349  -23.2345    0.0000 O   0  0  0  0  0  0  0  0  0  0  0  0
    0.6686  -23.2345    0.0000 O   0  0  0  0  0  0  0  0  0  0  0  0
   -0.7599  -22.3977    0.0000 C   0  0  0  0  0  0  0  0  0  0  0  0
    2.8135  -22.7728    0.0000 O   0  0  0  0  0  0  0  0  0  0  0  0
    4.9489  -23.2201    0.0000 O   0  0  0  0  0  0  0  0  0  0  0  0
    2.0970  -23.2345    0.0000 O   0  0  0  0  0  0  0  0  0  0  0  0
    4.9634  -20.7480    0.0000 O   0  0  0  0  0  0  0  0  0  0  0  0
    2.0970  -19.9256    0.0000 O   0  0  0  0  0  0  0  0  0  0  0  0
    5.6896  -22.0177    0.0000 N   0  0  0  0  0  0  0  0  0  0  0  0
   -0.7599  -20.7480    0.0000 C   0  0  0  0  0  0  0  0  0  0  0  0
    0.6686  -19.9256    0.0000 C   0  0  0  0  0  0  0  0  0  0  0  0
   -0.7599  -23.2345    0.0000 O   0  0  0  0  0  0  0  0  0  0  0  0
   -1.4717  -21.1568    0.0000 C   0  0  0  0  0  0  0  0  0  0  0  0
   -1.4717  -21.9888    0.0000 C   0  0  0  0  0  0  0  0  0  0  0  0
    4.2324  -19.5264    0.0000 C   0  0  0  0  0  0  0  0  0  0  0  0
    2.8184  -19.5120    0.0000 C   0  0  0  0  0  0  0  0  0  0  0  0
    1.3900  -20.4161    0.0000 H   0  0  0  0  0  0  0  0  0  0  0  0
    2.8135  -20.3777    0.0000 H   0  0  0  0  0  0  0  0  0  0  0  0
    6.1923  -23.0160    0.0000 Cl  0  0  0  0  0  0  0  0  0  0  0  0
    9.7487  -23.1335    0.0000 O   0  0  0  0  0  0  0  0  0  0  0  0
    9.0417  -22.7247    0.0000 C   0  0  0  0  0  0  0  0  0  0  0  0
    8.3300  -23.1335    0.0000 C   0  0  0  0  0  0  0  0  0  0  0  0
    9.3143  -24.2749    0.0000 O   0  0  0  0  0  0  0  0  0  0  0  0
    3.5155  -26.6665    0.0000 C   0  0  0  0  0  0  0  0  0  0  0  0
    2.0919  -26.6665    0.0000 C   0  0  0  0  0  0  0  0  0  0  0  0
    3.5155  -25.8345    0.0000 C   0  0  0  0  0  0  0  0  0  0  0  0
    4.9488  -26.6665    0.0000 C   0  0  0  0  0  0  0  0  0  0  0  0
    2.7989  -27.0754    0.0000 C   0  0  0  0  0  0  0  0  0  0  0  0
    4.2369  -27.0754    0.0000 C   0  0  0  0  0  0  0  0  0  0  0  0
    4.9488  -25.8345    0.0000 C   0  0  0  0  0  0  0  0  0  0  0  0
    1.3705  -27.0754    0.0000 C   0  0  0  0  0  0  0  0  0  0  0  0
    2.0919  -25.8345    0.0000 C   0  0  0  0  0  0  0  0  0  0  0  0
    4.2369  -25.4257    0.0000 C   0  0  0  0  0  0  0  0  0  0  0  0
    0.6587  -26.6665    0.0000 C   0  0  0  0  0  0  0  0  0  0  0  0
    2.7989  -25.4257    0.0000 C   0  0  0  0  0  0  0  0  0  0  0  0
    0.6587  -25.8345    0.0000 C   0  0  0  0  0  0  0  0  0  0  0  0
    1.3705  -25.4257    0.0000 C   0  0  0  0  0  0  0  0  0  0  0  0
    5.6653  -27.0754    0.0000 C   0  0  0  0  0  0  0  0  0  0  0  0
    4.2369  -24.6033    0.0000 N   0  0  0  0  0  0  0  0  0  0  0  0
    4.2369  -27.9122    0.0000 O   0  0  0  0  0  0  0  0  0  0  0  0
    1.3705  -27.9122    0.0000 O   0  0  0  0  0  0  0  0  0  0  0  0
   -0.0579  -27.0754    0.0000 C   0  0  0  0  0  0  0  0  0  0  0  0
    3.5155  -27.4505    0.0000 O   0  0  0  0  0  0  0  0  0  0  0  0
    5.6509  -27.8978    0.0000 O   0  0  0  0  0  0  0  0  0  0  0  0
    2.7989  -27.9122    0.0000 O   0  0  0  0  0  0  0  0  0  0  0  0
    5.6653  -25.4257    0.0000 O   0  0  0  0  0  0  0  0  0  0  0  0
    2.7989  -24.6033    0.0000 O   0  0  0  0  0  0  0  0  0  0  0  0
    6.3916  -26.6954    0.0000 N   0  0  0  0  0  0  0  0  0  0  0  0
   -0.0579  -25.4257    0.0000 C   0  0  0  0  0  0  0  0  0  0  0  0
    1.3705  -24.6033    0.0000 C   0  0  0  0  0  0  0  0  0  0  0  0
   -0.0579  -27.9122    0.0000 O   0  0  0  0  0  0  0  0  0  0  0  0
   -0.7697  -25.8345    0.0000 C   0  0  0  0  0  0  0  0  0  0  0  0
   -0.7697  -26.6665    0.0000 C   0  0  0  0  0  0  0  0  0  0  0  0
    4.9343  -24.2041    0.0000 C   0  0  0  0  0  0  0  0  0  0  0  0
    3.5204  -24.1897    0.0000 C   0  0  0  0  0  0  0  0  0  0  0  0
    2.0919  -25.0938    0.0000 H   0  0  0  0  0  0  0  0  0  0  0  0
    3.5155  -25.0554    0.0000 H   0  0  0  0  0  0  0  0  0  0  0  0
  3  6  2  0
  4  2  1  0
  5  7  1  0
  6  2  1  0
  7  2  1  0
  8 11  1  0
  9  3  1  0
 10 13  1  0
 11  4  1  0
 12  9  1  0
 13  4  1  0
 14 15  1  0
 15 10  1  0
 16  5  1  0
 11 17  1  6
 18  7  2  0
 19  9  2  0
 20 12  1  0
  2 21  1  6
 22 16  2  0
 23  6  1  0
 24  8  1  0
 13 25  1  6
 26 16  1  0
 27 14  1  0
 15 28  1  6
 29 20  1  0
 30 27  2  0
 31 20  2  0
 32 17  1  0
 33 17  1  0
 10 34  1  6
  4 35  1  6
  3 10  1  0
  5  8  2  0
 14 12  2  0
 30 31  1  0
 38 37  1  0
 39 38  1  0
 42 45  2  0
 43 41  1  0
 44 46  1  0
 45 41  1  0
 46 41  1  0
 47 50  1  0
 48 42  1  0
 49 52  1  0
 50 43  1  0
 51 48  1  0
 52 43  1  0
 53 54  1  0
 54 49  1  0
 55 44  1  0
 50 56  1  6
 57 46  2  0
 58 48  2  0
 59 51  1  0
 41 60  1  6
 61 55  2  0
 62 45  1  0
 63 47  1  0
 52 64  1  6
 65 55  1  0
 66 53  1  0
 54 67  1  6
 68 59  1  0
 69 66  2  0
 70 59  2  0
 71 56  1  0
 72 56  1  0
 49 73  1  6
 43 74  1  6
 42 49  1  0
 44 47  2  0
 53 51  2  0
 69 70  1  0
M  END
> <chembl_id>
CHEMBL3989740

> <chembl_pref_name>
DOXYCYCLINE HYCLATE
