
     RDKit          2D

 74 79  0  0  0  0  0  0  0  0999 V2000
    4.6191    6.7832    0.0000 C   0  0  0  0  0  0  0  0  0  0  0  0
   11.8863    3.4533    0.0000 C   0  0  0  0  0  0  0  0  0  0  0  0
    0.5000    2.5440    0.0000 C   0  0  0  0  0  0  0  0  0  0  0  0
    3.9208    2.5440    0.0000 C   0  0  0  0  0  0  0  0  0  0  0  0
    8.2256    3.8915    0.0000 C   0  0  0  0  0  0  0  0  0  0  0  0
    8.6721    0.5000    0.0000 C   0  0  0  0  0  0  0  0  0  0  0  0
    3.9208   12.4190    0.0000 C   0  0  0  0  0  0  0  0  0  0  0  0
   17.2604    3.3558    0.0000 C   0  0  0  0  0  0  0  0  0  0  0  0
    1.3552    2.0502    0.0000 C   0  0  0  0  0  0  0  0  0  0  0  0
    7.8477    2.9792    0.0000 C   0  0  0  0  0  0  0  0  0  0  0  0
    1.3552   11.9252    0.0000 C   0  0  0  0  0  0  0  0  0  0  0  0
   16.8825    2.4435    0.0000 C   0  0  0  0  0  0  0  0  0  0  0  0
    0.5000    9.4565    0.0000 C   0  0  0  0  0  0  0  0  0  0  0  0
   14.5465    1.2734    0.0000 C   0  0  0  0  0  0  0  0  0  0  0  0
    2.8796    6.1245    0.0000 C   0  0  0  0  0  0  0  0  0  0  0  0
   10.4461    4.6304    0.0000 C   0  0  0  0  0  0  0  0  0  0  0  0
    6.2711    5.6780    0.0000 C   0  0  0  0  0  0  0  0  0  0  0  0
    7.0545    5.0769    0.0000 C   0  0  0  0  0  0  0  0  0  0  0  0
    4.7760    8.9627    0.0000 C   0  0  0  0  0  0  0  0  0  0  0  0
   13.4988    5.4483    0.0000 C   0  0  0  0  0  0  0  0  0  0  0  0
    3.0085    7.1036    0.0000 C   0  0  0  0  0  0  0  0  0  0  0  0
   11.3584    5.0083    0.0000 C   0  0  0  0  0  0  0  0  0  0  0  0
    4.7760    7.9752    0.0000 C   0  0  0  0  0  0  0  0  0  0  0  0
   12.5197    5.3194    0.0000 C   0  0  0  0  0  0  0  0  0  0  0  0
    3.6630    5.5234    0.0000 C   0  0  0  0  0  0  0  0  0  0  0  0
    9.6626    5.2315    0.0000 C   0  0  0  0  0  0  0  0  0  0  0  0
    2.2104    7.4815    0.0000 C   0  0  0  0  0  0  0  0  0  0  0  0
   12.3651    2.7113    0.0000 C   0  0  0  0  0  0  0  0  0  0  0  0
    1.3552    5.0127    0.0000 C   0  0  0  0  0  0  0  0  0  0  0  0
    3.0656    5.0127    0.0000 C   0  0  0  0  0  0  0  0  0  0  0  0
   10.7849    3.3659    0.0000 C   0  0  0  0  0  0  0  0  0  0  0  0
   11.0081    1.6701    0.0000 C   0  0  0  0  0  0  0  0  0  0  0  0
    3.9208   10.4440    0.0000 C   0  0  0  0  0  0  0  0  0  0  0  0
   15.0790    4.7938    0.0000 C   0  0  0  0  0  0  0  0  0  0  0  0
    2.2104    5.5065    0.0000 C   0  0  0  0  0  0  0  0  0  0  0  0
   11.3860    2.5825    0.0000 C   0  0  0  0  0  0  0  0  0  0  0  0
    3.9208    9.4565    0.0000 C   0  0  0  0  0  0  0  0  0  0  0  0
   14.1000    4.6649    0.0000 C   0  0  0  0  0  0  0  0  0  0  0  0
    3.0656    7.9752    0.0000 C   0  0  0  0  0  0  0  0  0  0  0  0
   12.7430    3.6237    0.0000 C   0  0  0  0  0  0  0  0  0  0  0  0
    1.3552    4.0252    0.0000 C   0  0  0  0  0  0  0  0  0  0  0  0
    3.0656    4.0252    0.0000 C   0  0  0  0  0  0  0  0  0  0  0  0
    9.8058    3.2370    0.0000 C   0  0  0  0  0  0  0  0  0  0  0  0
   10.0291    1.5412    0.0000 C   0  0  0  0  0  0  0  0  0  0  0  0
    3.0656   10.9377    0.0000 C   0  0  0  0  0  0  0  0  0  0  0  0
   15.6802    4.0104    0.0000 C   0  0  0  0  0  0  0  0  0  0  0  0
    5.3588    5.3001    0.0000 C   0  0  0  0  0  0  0  0  0  0  0  0
    7.9669    5.4548    0.0000 C   0  0  0  0  0  0  0  0  0  0  0  0
    3.0656    8.9627    0.0000 C   0  0  0  0  0  0  0  0  0  0  0  0
   13.7221    3.7526    0.0000 C   0  0  0  0  0  0  0  0  0  0  0  0
    2.2104    3.5315    0.0000 C   0  0  0  0  0  0  0  0  0  0  0  0
    9.4279    2.3247    0.0000 C   0  0  0  0  0  0  0  0  0  0  0  0
    2.2104   10.4440    0.0000 C   0  0  0  0  0  0  0  0  0  0  0  0
   15.3023    3.0980    0.0000 C   0  0  0  0  0  0  0  0  0  0  0  0
    2.2104    9.4565    0.0000 C   0  0  0  0  0  0  0  0  0  0  0  0
   14.3232    2.9691    0.0000 C   0  0  0  0  0  0  0  0  0  0  0  0
    3.9208    7.4815    0.0000 N   0  0  0  0  0  0  0  0  0  0  0  0
   12.1418    4.4071    0.0000 N   0  0  0  0  0  0  0  0  0  0  0  0
    5.2299    4.3211    0.0000 O   0  0  0  0  0  0  0  0  0  0  0  0
    8.0958    6.4338    0.0000 O   0  0  0  0  0  0  0  0  0  0  0  0
    0.5000    3.5315    0.0000 O   0  0  0  0  0  0  0  0  0  0  0  0
    3.9208    3.5315    0.0000 O   0  0  0  0  0  0  0  0  0  0  0  0
    9.2047    4.0204    0.0000 O   0  0  0  0  0  0  0  0  0  0  0  0
    9.6512    0.6289    0.0000 O   0  0  0  0  0  0  0  0  0  0  0  0
    3.0656   11.9252    0.0000 O   0  0  0  0  0  0  0  0  0  0  0  0
   16.6592    4.1393    0.0000 O   0  0  0  0  0  0  0  0  0  0  0  0
    2.2104    2.5440    0.0000 O   0  0  0  0  0  0  0  0  0  0  0  0
    8.4489    2.1958    0.0000 O   0  0  0  0  0  0  0  0  0  0  0  0
    1.3552   10.9377    0.0000 O   0  0  0  0  0  0  0  0  0  0  0  0
   15.9034    2.3146    0.0000 O   0  0  0  0  0  0  0  0  0  0  0  0
    1.3552    8.9627    0.0000 O   0  0  0  0  0  0  0  0  0  0  0  0
   13.9453    2.0568    0.0000 O   0  0  0  0  0  0  0  0  0  0  0  0
    4.5753    5.9013    0.0000 O   0  0  0  0  0  0  0  0  0  0  0  0
    8.7503    4.8536    0.0000 O   0  0  0  0  0  0  0  0  0  0  0  0
  1 57  1  0
  2 58  1  0
  3 61  1  0
  4 62  1  0
  5 63  1  0
  6 64  1  0
  7 65  1  0
  8 66  1  0
  9 67  1  0
 10 68  1  0
 11 69  1  0
 12 70  1  0
 13 71  1  0
 14 72  1  0
 15 21  1  0
 15 25  1  0
 16 22  1  0
 16 26  1  0
 17 18  1  0
 17 47  1  0
 18 48  1  0
 19 23  1  0
 19 37  1  0
 20 24  1  0
 20 38  1  0
 21 57  1  0
 22 58  1  0
 23 57  1  0
 24 58  1  0
 25 73  1  0
 26 74  1  0
 27 35  1  0
 27 39  1  0
 28 36  1  0
 28 40  1  0
 29 35  2  0
 29 41  1  0
 30 35  1  0
 30 42  2  0
 31 36  2  0
 31 43  1  0
 32 36  1  0
 32 44  2  0
 33 37  2  0
 33 45  1  0
 34 38  2  0
 34 46  1  0
 37 49  1  0
 38 50  1  0
 39 49  1  0
 39 57  1  0
 40 50  1  0
 40 58  1  0
 41 51  2  0
 41 61  1  0
 42 51  1  0
 42 62  1  0
 43 52  2  0
 43 63  1  0
 44 52  1  0
 44 64  1  0
 45 53  2  0
 45 65  1  0
 46 54  2  0
 46 66  1  0
 47 59  2  0
 47 73  1  0
 48 60  2  0
 48 74  1  0
 49 55  2  0
 50 56  2  0
 51 67  1  0
 52 68  1  0
 53 55  1  0
 53 69  1  0
 54 56  1  0
 54 70  1  0
 55 71  1  0
 56 72  1  0
M  CHG  2  57   1  58   1
M  END
> <chembl_id>
CHEMBL1237123

> <chembl_pref_name>
DOXACURIUM
