
     RDKit          2D

 39 42  0  0  0  0  0  0  0  0999 V2000
    9.0856    1.4068    0.0000 C   0  0  0  0  0  0  0  0  0  0  0  0
    8.2606    1.4068    0.0000 S   0  0  0  0  0  0  0  0  0  0  0  0
    7.4356    1.4068    0.0000 O   0  0  0  0  0  0  0  0  0  0  0  0
    8.2606    2.2318    0.0000 O   0  0  0  0  0  0  0  0  0  0  0  0
    8.2606    0.5818    0.0000 O   0  0  0  0  0  0  0  0  0  0  0  0
    9.7825   -2.6021    0.0000 O   0  0  0  0  0  0  0  0  0  0  0  0
   11.2115   -1.7771    0.0000 O   0  0  0  0  0  0  0  0  0  0  0  0
    6.9246   -1.7771    0.0000 N   0  0  0  0  0  0  0  0  0  0  0  0
    6.2102   -3.0146    0.0000 N   0  0  0  0  0  0  0  0  0  0  0  0
    6.2102   -0.5396    0.0000 N   0  0  0  0  0  0  0  0  0  0  0  0
    3.2821    0.9529    0.0000 N   0  0  0  0  0  0  0  0  0  0  0  0
    2.7972    0.2854    0.0000 N   0  0  0  0  0  0  0  0  0  0  0  0
   10.4970   -0.5396    0.0000 N   0  0  0  0  0  0  0  0  0  0  0  0
    5.4957   -1.7771    0.0000 C   0  0  0  0  0  0  0  0  0  0  0  0
    6.2102   -1.3646    0.0000 C   0  0  0  0  0  0  0  0  0  0  0  0
    5.4957   -2.6021    0.0000 C   0  0  0  0  0  0  0  0  0  0  0  0
    6.9246   -2.6021    0.0000 C   0  0  0  0  0  0  0  0  0  0  0  0
    7.6391   -3.0146    0.0000 C   0  0  0  0  0  0  0  0  0  0  0  0
    5.4957   -0.1271    0.0000 C   0  0  0  0  0  0  0  0  0  0  0  0
    4.0668   -0.1271    0.0000 C   0  0  0  0  0  0  0  0  0  0  0  0
    4.7812   -1.3646    0.0000 C   0  0  0  0  0  0  0  0  0  0  0  0
    4.0668    0.6979    0.0000 C   0  0  0  0  0  0  0  0  0  0  0  0
    4.7812   -3.0146    0.0000 C   0  0  0  0  0  0  0  0  0  0  0  0
    4.7812   -0.5396    0.0000 C   0  0  0  0  0  0  0  0  0  0  0  0
    8.3536   -2.6021    0.0000 C   0  0  0  0  0  0  0  0  0  0  0  0
    5.4957    0.6979    0.0000 C   0  0  0  0  0  0  0  0  0  0  0  0
    7.6391   -3.8396    0.0000 C   0  0  0  0  0  0  0  0  0  0  0  0
    4.7812    1.1104    0.0000 C   0  0  0  0  0  0  0  0  0  0  0  0
    9.0681   -3.0146    0.0000 C   0  0  0  0  0  0  0  0  0  0  0  0
    4.0668   -1.7771    0.0000 C   0  0  0  0  0  0  0  0  0  0  0  0
    4.0668   -2.6021    0.0000 C   0  0  0  0  0  0  0  0  0  0  0  0
    3.2821   -0.3820    0.0000 C   0  0  0  0  0  0  0  0  0  0  0  0
    8.3536   -4.2521    0.0000 C   0  0  0  0  0  0  0  0  0  0  0  0
    9.0681   -3.8396    0.0000 C   0  0  0  0  0  0  0  0  0  0  0  0
    9.7825   -1.7771    0.0000 C   0  0  0  0  0  0  0  0  0  0  0  0
   10.4970   -1.3646    0.0000 C   0  0  0  0  0  0  0  0  0  0  0  0
   11.2115   -0.1271    0.0000 C   0  0  0  0  0  0  0  0  0  0  0  0
   11.2115    0.6979    0.0000 C   0  0  0  0  0  0  0  0  0  0  0  0
   11.9259   -0.5396    0.0000 C   0  0  0  0  0  0  0  0  0  0  0  0
  1  2  1  0
  2  3  2  0
  2  4  2  0
  2  5  1  0
  6 29  1  0
  6 35  1  0
  7 36  2  0
  8 15  1  0
  8 17  2  0
  9 16  2  0
  9 17  1  0
 10 15  1  0
 10 19  1  0
 11 12  1  0
 11 22  1  0
 12 32  2  0
 13 36  1  0
 13 37  1  0
 14 15  2  0
 14 16  1  0
 14 21  1  0
 16 23  1  0
 17 18  1  0
 18 25  2  0
 18 27  1  0
 19 24  1  0
 19 26  2  0
 20 22  1  0
 20 24  2  0
 20 32  1  0
 21 30  2  0
 22 28  2  0
 23 31  2  0
 25 29  1  0
 26 28  1  0
 27 33  2  0
 29 34  2  0
 30 31  1  0
 33 34  1  0
 35 36  1  0
 37 38  1  0
 37 39  1  0
M  END
> <chembl_id>
CHEMBL4802130

> <chembl_pref_name>
BELUMOSUDIL MESYLATE
