
     RDKit          2D

 34 37  0  0  1  0  0  0  0  0999 V2000
    3.0250   -5.8750    0.0000 C   0  0  0  0  0  0  0  0  0  0  0  0
    3.7042   -5.6750    0.0000 C   0  0  0  0  0  0  0  0  0  0  0  0
    1.1417   -6.9542    0.0000 C   0  0  0  0  0  0  0  0  0  0  0  0
    3.0250   -6.5750    0.0000 C   0  0  0  0  0  0  0  0  0  0  0  0
    1.1417   -7.6542    0.0000 C   0  0  0  0  0  0  0  0  0  0  0  0
    1.7667   -6.6000    0.0000 C   0  0  0  0  0  0  0  0  0  0  0  0
    2.3917   -6.9542    0.0000 C   0  0  0  0  0  0  0  0  0  0  0  0
    0.5292   -8.0042    0.0000 C   0  0  0  0  0  0  0  0  0  0  0  0
    2.3917   -5.5042    0.0000 C   0  0  0  0  0  0  0  0  0  0  0  0
    4.1042   -6.2042    0.0000 C   0  0  0  0  0  0  0  0  0  0  0  0
    4.3167   -5.3167    0.0000 O   0  0  0  0  0  0  0  0  0  0  0  0
    3.7042   -6.8000    0.0000 C   0  0  0  0  0  0  0  0  0  0  0  0
    1.7667   -5.8750    0.0000 C   0  0  0  0  0  0  0  0  0  0  0  0
    0.5292   -6.6000    0.0000 C   0  0  0  0  0  0  0  0  0  0  0  0
    3.7042   -4.9667    0.0000 C   0  0  0  0  0  0  0  0  0  0  0  0
    2.3917   -7.6542    0.0000 C   0  0  0  0  0  0  0  0  0  0  0  0
    4.9292   -5.6667    0.0000 C   0  0  0  0  0  0  0  0  0  0  0  0
    1.7667   -8.0042    0.0000 C   0  0  0  0  0  0  0  0  0  0  0  0
   -0.1000   -7.6542    0.0000 C   0  0  0  0  0  0  0  0  0  0  0  0
    4.9375   -6.3750    0.0000 O   0  0  0  0  0  0  0  0  0  0  0  0
    3.0875   -4.6125    0.0000 O   0  0  0  0  0  0  0  0  0  0  0  0
   -0.7333   -7.9792    0.0000 O   0  0  0  0  0  0  0  0  0  0  0  0
   -0.1000   -6.9542    0.0000 C   0  0  0  0  0  0  0  0  0  0  0  0
    3.0250   -5.1667    0.0000 C   0  0  0  0  0  0  0  0  0  0  0  0
    1.1417   -6.2417    0.0000 C   0  0  0  0  0  0  0  0  0  0  0  0
    5.5417   -5.3042    0.0000 C   0  0  0  0  0  0  0  0  0  0  0  0
    4.3125   -4.6042    0.0000 C   0  0  0  0  0  0  0  0  0  0  0  0
    6.1625   -5.6542    0.0000 C   0  0  0  0  0  0  0  0  0  0  0  0
    7.3875   -5.6500    0.0000 C   0  0  0  0  0  0  0  0  0  0  0  0
    6.7667   -5.3000    0.0000 C   0  0  0  0  0  0  0  0  0  0  0  0
    8.0000   -5.2917    0.0000 C   0  0  0  0  0  0  0  0  0  0  0  0
    1.7667   -7.3042    0.0000 H   0  0  0  0  0  0  0  0  0  0  0  0
    3.0375   -7.2792    0.0000 H   0  0  0  0  0  0  0  0  0  0  0  0
    2.3917   -6.2417    0.0000 H   0  0  0  0  0  0  0  0  0  0  0  0
  2  1  1  0
  3  6  1  0
  4  1  1  0
  5  3  1  0
  6 13  1  0
  7  4  1  0
  8  5  2  0
  9  1  1  0
 10  2  1  0
 11  2  1  0
 12  4  1  0
 13  9  1  0
 14  3  1  0
  2 15  1  1
 16  7  1  0
 17 11  1  0
 18 16  1  0
 19 23  1  0
 20 17  2  0
 21 15  2  0
 22 19  2  0
 23 14  1  0
  1 24  1  1
  3 25  1  1
 26 17  1  0
 27 15  1  0
 28 26  1  0
 29 30  1  0
 30 28  1  0
 31 29  1  0
  6 32  1  6
  4 33  1  6
  7 34  1  1
 12 10  1  0
  6  7  1  0
  5 18  1  0
 19  8  1  0
M  END
> <chembl_id>
CHEMBL1200848

> <chembl_pref_name>
HYDROXYPROGESTERONE CAPROATE
