
     RDKit          2D

 34 38  0  0  0  0  0  0  0  0999 V2000
    6.8136  -75.7527    0.0000 C   0  0  0  0  0  0  0  0  0  0  0  0
    6.0991  -75.3402    0.0000 C   0  0  0  0  0  0  0  0  0  0  0  0
    5.3846  -75.7527    0.0000 C   0  0  0  0  0  0  0  0  0  0  0  0
    5.3846  -76.5777    0.0000 C   0  0  0  0  0  0  0  0  0  0  0  0
    6.0991  -76.9902    0.0000 C   0  0  0  0  0  0  0  0  0  0  0  0
    6.8136  -76.5777    0.0000 C   0  0  0  0  0  0  0  0  0  0  0  0
    7.5281  -75.3402    0.0000 C   0  0  0  0  0  0  0  0  0  0  0  0
    8.2426  -75.7527    0.0000 C   0  0  0  0  0  0  0  0  0  0  0  0
    8.2425  -76.5777    0.0000 C   0  0  0  0  0  0  0  0  0  0  0  0
    7.5281  -76.9902    0.0000 C   0  0  0  0  0  0  0  0  0  0  0  0
    7.5281  -74.5151    0.0000 C   0  0  0  0  0  0  0  0  0  0  0  0
    8.2425  -74.1026    0.0000 C   0  0  0  0  0  0  0  0  0  0  0  0
    8.9570  -74.5151    0.0000 C   0  0  0  0  0  0  0  0  0  0  0  0
    8.9570  -75.3401    0.0000 C   0  0  0  0  0  0  0  0  0  0  0  0
    9.7416  -75.5950    0.0000 C   0  0  0  0  0  0  0  0  0  0  0  0
   10.2265  -74.9276    0.0000 C   0  0  0  0  0  0  0  0  0  0  0  0
    9.7416  -74.2602    0.0000 C   0  0  0  0  0  0  0  0  0  0  0  0
    6.8136  -74.1027    0.0000 C   0  0  0  0  0  0  0  0  0  0  0  0
    6.8136  -73.2776    0.0000 C   0  0  0  0  0  0  0  0  0  0  0  0
    6.0991  -72.8652    0.0000 C   0  0  0  0  0  0  0  0  0  0  0  0
    5.3846  -73.2777    0.0000 C   0  0  0  0  0  0  0  0  0  0  0  0
    5.3846  -74.1027    0.0000 C   0  0  0  0  0  0  0  0  0  0  0  0
    6.0991  -74.5152    0.0000 C   0  0  0  0  0  0  0  0  0  0  0  0
    4.6701  -72.8652    0.0000 N   0  0  0  0  0  0  0  0  0  0  0  0
    3.9557  -73.2778    0.0000 C   0  0  0  0  0  0  0  0  0  0  0  0
    4.6701  -72.0402    0.0000 C   0  0  0  0  0  0  0  0  0  0  0  0
    8.2426  -74.9277    0.0000 H   0  0  0  0  0  0  0  0  0  0  0  0
    8.9570  -76.1651    0.0000 H   0  0  0  0  0  0  0  0  0  0  0  0
    4.6701  -76.9902    0.0000 O   0  0  0  0  0  0  0  0  0  0  0  0
    8.9570  -73.6901    0.0000 C   0  0  0  0  0  0  0  0  0  0  0  0
    9.7417  -73.4352    0.0000 C   0  0  0  0  0  0  0  0  0  0  0  0
    9.0271  -73.0227    0.0000 O   0  0  0  0  0  0  0  0  0  0  0  0
   10.4560  -73.0227    0.0000 C   0  0  0  0  0  0  0  0  0  0  0  0
   10.3437  -73.7545    0.0000 O   0  0  0  0  0  0  0  0  0  0  0  0
  1  2  1  0
  2  3  1  0
  3  4  1  0
  4  5  1  0
  5  6  2  0
  1  7  2  0
  6  1  1  0
 10  6  1  0
  8  9  1  0
  9 10  1  0
 14  8  1  0
  8  7  1  0
  7 11  1  0
 11 12  1  0
 12 13  1  0
 13 17  1  0
 13 14  1  0
 14 15  1  0
 15 16  1  0
 16 17  1  0
 11 18  1  1
 18 19  1  0
 18 23  2  0
 19 20  2  0
 20 21  1  0
 21 22  2  0
 22 23  1  0
 21 24  1  0
 24 25  1  0
 24 26  1  0
  8 27  1  1
 14 28  1  6
  4 29  2  0
 13 30  1  1
 17 31  1  0
 31 32  2  0
 31 33  1  0
 17 34  1  6
M  END
> <chembl_id>
CHEMBL2103846

> <chembl_pref_name>
ULIPRISTAL
