
     RDKit          2D

 34 33  0  0  0  0  0  0  0  0999 V2000
   11.3933   -7.9353    0.0000 O   0  0  0  0  0  0  0  0  0  0  0  0
   12.1029   -5.8662    0.0000 O   0  0  0  0  0  0  0  0  0  0  0  0
    9.2489   -6.7085    0.0000 N   0  0  0  0  0  0  0  0  0  0  0  0
   10.6713   -5.8738    0.0000 O   0  0  0  0  0  0  0  0  0  0  0  0
   12.8201   -7.9325    0.0000 O   0  0  0  0  0  0  0  0  0  0  0  0
    9.9669   -7.1109    0.0000 C   0  0  0  0  0  0  0  0  0  0  0  0
   14.2424   -7.1027    0.0000 O   0  0  0  0  0  0  0  0  0  0  0  0
   13.5341   -6.6905    0.0000 C   0  0  0  0  0  0  0  0  0  0  0  0
    8.5401   -7.1137    0.0000 C   0  0  0  0  0  0  0  0  0  0  0  0
   10.6792   -6.7000    0.0000 C   0  0  0  0  0  0  0  0  0  0  0  0
   11.3917   -7.1083    0.0000 C   0  0  0  0  0  0  0  0  0  0  0  0
   12.1042   -6.6958    0.0000 C   0  0  0  0  0  0  0  0  0  0  0  0
   12.8167   -7.1042    0.0000 C   0  0  0  0  0  0  0  0  0  0  0  0
   10.6982  -10.0090    0.0000 C   0  0  0  0  0  0  0  0  0  0  0  0
   12.1201  -10.0014    0.0000 C   0  0  0  0  0  0  0  0  0  0  0  0
   11.4158  -11.2434    0.0000 C   0  0  0  0  0  0  0  0  0  0  0  0
   11.4070   -9.5942    0.0000 C   0  0  0  0  0  0  0  0  0  0  0  0
   10.7026  -10.8360    0.0000 C   0  0  0  0  0  0  0  0  0  0  0  0
   12.1245  -10.8285    0.0000 C   0  0  0  0  0  0  0  0  0  0  0  0
    9.9850   -9.6018    0.0000 N   0  0  0  0  0  0  0  0  0  0  0  0
   11.4201  -12.0656    0.0000 C   0  0  0  0  0  0  0  0  0  0  0  0
   12.8337   -9.5866    0.0000 N   0  0  0  0  0  0  0  0  0  0  0  0
    9.2714  -10.0166    0.0000 C   0  0  0  0  0  0  0  0  0  0  0  0
   13.5468   -9.9987    0.0000 C   0  0  0  0  0  0  0  0  0  0  0  0
   11.4074   -8.7719    0.0000 I   0  0  0  0  0  0  0  0  0  0  0  0
   10.7065  -12.4756    0.0000 O   0  0  0  0  0  0  0  0  0  0  0  0
    9.2806  -10.8388    0.0000 O   0  0  0  0  0  0  0  0  0  0  0  0
   12.8377  -11.2407    0.0000 I   0  0  0  0  0  0  0  0  0  0  0  0
    9.9938  -11.2510    0.0000 I   0  0  0  0  0  0  0  0  0  0  0  0
   13.5465  -10.8209    0.0000 O   0  0  0  0  0  0  0  0  0  0  0  0
   12.1333  -12.4729    0.0000 O   0  0  0  0  0  0  0  0  0  0  0  0
    9.9807   -8.7795    0.0000 C   0  0  0  0  0  0  0  0  0  0  0  0
    8.5582   -9.6093    0.0000 C   0  0  0  0  0  0  0  0  0  0  0  0
   14.2556   -9.5838    0.0000 C   0  0  0  0  0  0  0  0  0  0  0  0
  3  6  1  0
  7  8  1  0
  9  3  1  0
 13  8  1  0
 10 11  1  0
 10  4  1  6
 11 12  1  0
 11  1  1  6
  6 10  1  0
 12  2  1  6
 12 13  1  0
 13  5  1  1
 15 17  2  0
 16 18  1  0
 17 14  1  0
 18 14  2  0
 19 15  1  0
 20 14  1  0
 21 16  1  0
 22 15  1  0
 23 20  1  0
 24 22  1  0
 25 17  1  0
 26 21  2  0
 27 23  2  0
 28 19  1  0
 29 18  1  0
 30 24  2  0
 31 21  1  0
 32 20  1  0
 33 23  1  0
 34 24  1  0
 16 19  2  0
M  END
> <chembl_id>
CHEMBL1200353

> <chembl_pref_name>
MEGLUMINE METRIZOATE
