
     RDKit          2D

  7  6  0  0  0  0  0  0  0  0999 V2000
    1.0917    0.0458    0.0000 S   0  0  0  0  0  0  0  0  0  0  0  0
   -0.3208    0.0458    0.0000 C   0  0  0  0  0  0  0  0  0  0  0  0
    1.0917   -1.3917    0.0000 O   0  0  0  0  0  0  0  0  0  0  0  0
    1.0917    1.4958    0.0000 O   0  0  0  0  0  0  0  0  0  0  0  0
    2.5375    0.0458    0.0000 O   0  0  0  0  0  0  0  0  0  0  0  0
   -2.4625    1.2833    0.0000 N   0  0  0  0  0  0  0  0  0  0  0  0
   -1.0458    1.2833    0.0000 C   0  0  0  0  0  0  0  0  0  0  0  0
  2  1  1  0
  3  1  2  0
  4  1  2  0
  5  1  1  0
  6  7  1  0
  7  2  1  0
M  END
> <chembl_id>
CHEMBL239243

> <chembl_pref_name>
TAURINE
