
     RDKit          2D

 15 15  0  0  1  0  0  0  0  0999 V2000
    1.3708   -0.8542    0.0000 N   0  0  0  0  0  0  0  0  0  0  0  0
    0.8167   -1.9292    0.0000 C   0  0  0  0  0  0  0  0  0  0  0  0
    0.8083   -1.2333    0.0000 C   0  0  0  0  0  0  0  0  0  0  0  0
    1.4000   -2.2750    0.0000 C   0  0  0  0  0  0  0  0  0  0  0  0
    1.9917   -1.8917    0.0000 C   0  0  0  0  0  0  0  0  0  0  0  0
    1.9875   -1.2042    0.0000 C   0  0  0  0  0  0  0  0  0  0  0  0
    0.2292   -2.3083    0.0000 O   0  0  0  0  0  0  0  0  0  0  0  0
    1.4042   -2.9667    0.0000 O   0  0  0  0  0  0  0  0  0  0  0  0
    2.6000   -2.2375    0.0000 O   0  0  0  0  0  0  0  0  0  0  0  0
    1.3667   -0.1875    0.0000 C   0  0  0  0  0  0  0  0  0  0  0  0
    0.1958   -0.8917    0.0000 C   0  0  0  0  0  0  0  0  0  0  0  0
   -0.4083   -1.2792    0.0000 O   0  0  0  0  0  0  0  0  0  0  0  0
    0.6458    0.1875    0.0000 C   0  0  0  0  0  0  0  0  0  0  0  0
    0.1083   -0.2208    0.0000 C   0  0  0  0  0  0  0  0  0  0  0  0
   -0.6208    0.1458    0.0000 C   0  0  0  0  0  0  0  0  0  0  0  0
  2  3  1  0
  3  1  1  0
  4  5  1  0
  5  6  1  0
  6  1  1  0
  2  7  1  6
  4  8  1  1
  5  9  1  6
 10  1  1  0
  3 11  1  1
 12 11  1  0
 13 10  1  0
 14 13  1  0
 15 14  1  0
  4  2  1  0
M  END
> <chembl_id>
CHEMBL1029

> <chembl_pref_name>
MIGLUSTAT
