
     RDKit          2D

 41 45  0  0  0  0  0  0  0  0999 V2000
   -3.7897    1.0106    0.0000 C   0  0  0  0  0  0  0  0  0  0  0  0
   -3.0752    0.5981    0.0000 C   0  0  0  0  0  0  0  0  0  0  0  0
   -2.3608    1.0106    0.0000 C   0  0  0  0  0  0  0  0  0  0  0  0
   -2.3607    1.8356    0.0000 O   0  0  0  0  0  0  0  0  0  0  0  0
   -1.6463    0.5981    0.0000 N   0  0  0  0  0  0  0  0  0  0  0  0
   -0.9318    1.0106    0.0000 C   0  0  0  0  0  0  0  0  0  0  0  0
   -1.6463   -0.2269    0.0000 C   0  0  0  0  0  0  0  0  0  0  0  0
   -0.9319   -0.6394    0.0000 C   0  0  0  0  0  0  0  0  0  0  0  0
   -0.2174   -0.2269    0.0000 N   0  0  0  0  0  0  0  0  0  0  0  0
   -0.2174    0.5981    0.0000 C   0  0  0  0  0  0  0  0  0  0  0  0
    0.4971   -0.6395    0.0000 C   0  0  0  0  0  0  0  0  0  0  0  0
    1.2116   -0.2270    0.0000 C   0  0  0  0  0  0  0  0  0  0  0  0
    1.2116    0.5980    0.0000 C   0  0  0  0  0  0  0  0  0  0  0  0
    1.9260   -0.6395    0.0000 C   0  0  0  0  0  0  0  0  0  0  0  0
    2.6405   -0.2270    0.0000 N   0  0  0  0  0  0  0  0  0  0  0  0
    2.6405    0.5980    0.0000 C   0  0  0  0  0  0  0  0  0  0  0  0
    1.9261    1.0105    0.0000 C   0  0  0  0  0  0  0  0  0  0  0  0
    3.3550    1.0105    0.0000 C   0  0  0  0  0  0  0  0  0  0  0  0
    2.6406    2.2480    0.0000 O   0  0  0  0  0  0  0  0  0  0  0  0
    3.3550    1.8355    0.0000 C   0  0  0  0  0  0  0  0  0  0  0  0
    4.7840    1.0104    0.0000 C   0  0  0  0  0  0  0  0  0  0  0  0
    4.0695    0.5979    0.0000 C   0  0  0  0  0  0  0  0  0  0  0  0
    4.0695    2.2479    0.0000 C   0  0  0  0  0  0  0  0  0  0  0  0
    4.7840    1.8354    0.0000 C   0  0  0  0  0  0  0  0  0  0  0  0
    4.0694   -0.2271    0.0000 F   0  0  0  0  0  0  0  0  0  0  0  0
    1.9261    1.8355    0.0000 F   0  0  0  0  0  0  0  0  0  0  0  0
   -0.9319   -1.4644    0.0000 C   0  0  0  0  0  0  0  0  0  0  0  0
    0.4971   -1.4645    0.0000 N   0  0  0  0  0  0  0  0  0  0  0  0
    1.2115   -1.8770    0.0000 C   0  0  0  0  0  0  0  0  0  0  0  0
    1.9260   -1.4645    0.0000 N   0  0  0  0  0  0  0  0  0  0  0  0
    1.2115   -2.7020    0.0000 O   0  0  0  0  0  0  0  0  0  0  0  0
    1.9260   -3.1145    0.0000 C   0  0  0  0  0  0  0  0  0  0  0  0
    2.6404   -2.7020    0.0000 C   0  0  0  0  0  0  0  0  0  0  0  0
    2.6405   -1.8770    0.0000 C   0  0  0  0  0  0  0  0  0  0  0  0
    3.3549   -3.1145    0.0000 N   0  0  0  0  0  0  0  0  0  0  0  0
    4.0694   -2.7021    0.0000 C   0  0  0  0  0  0  0  0  0  0  0  0
    4.0694   -1.8771    0.0000 C   0  0  0  0  0  0  0  0  0  0  0  0
    3.3549   -1.4645    0.0000 C   0  0  0  0  0  0  0  0  0  0  0  0
    3.3550   -0.6395    0.0000 C   0  0  0  0  0  0  0  0  0  0  0  0
    1.9259   -3.9395    0.0000 C   0  0  0  0  0  0  0  0  0  0  0  0
    1.1055   -3.2007    0.0000 C   0  0  0  0  0  0  0  0  0  0  0  0
  1  2  2  0
  2  3  1  0
  3  4  2  0
  5  6  1  0
  3  5  1  0
  7  8  1  0
  8  9  1  0
  9 10  1  0
  5  7  1  0
  6 10  1  0
 11 12  1  0
 12 13  1  0
  9 11  1  0
 14 15  1  0
 15 16  2  0
 16 17  1  0
 12 14  2  0
 13 17  2  0
 19 20  1  0
 18 20  1  0
 18 16  1  0
 21 22  1  0
 23 24  1  0
 21 24  2  0
 22 18  2  0
 20 23  2  0
 26 17  1  0
 25 22  1  0
  8 27  1  1
 28 11  2  0
 29 30  1  0
 30 14  1  0
 28 29  1  0
 32 33  1  0
 33 34  1  0
 29 31  2  0
 30 34  1  0
 35 36  1  0
 36 37  2  0
 37 38  1  0
 33 35  2  0
 34 38  2  0
 38 39  1  0
 32 40  1  0
 32 41  1  0
M  END
> <chembl_id>
CHEMBL4535757

> <chembl_pref_name>
SOTORASIB
