
     RDKit          2D

 18 19  0  0  0  0  0  0  0  0999 V2000
    2.6500  -15.6917    0.0000 C   0  0  0  0  0  0  0  0  0  0  0  0
    3.2792  -15.3417    0.0000 C   0  0  0  0  0  0  0  0  0  0  0  0
    6.3792  -16.4167    0.0000 C   0  0  0  0  0  0  0  0  0  0  0  0
    2.0667  -15.2875    0.0000 S   0  0  0  0  0  0  0  0  0  0  0  0
    5.7625  -16.7667    0.0000 C   0  0  0  0  0  0  0  0  0  0  0  0
    3.9042  -15.7042    0.0000 C   0  0  0  0  0  0  0  0  0  0  0  0
    5.1292  -16.4125    0.0000 C   0  0  0  0  0  0  0  0  0  0  0  0
    2.4458  -16.3750    0.0000 C   0  0  0  0  0  0  0  0  0  0  0  0
    1.5042  -15.7042    0.0000 C   0  0  0  0  0  0  0  0  0  0  0  0
    3.2792  -14.6292    0.0000 O   0  0  0  0  0  0  0  0  0  0  0  0
    6.3792  -15.7042    0.0000 O   0  0  0  0  0  0  0  0  0  0  0  0
    1.7292  -16.3792    0.0000 C   0  0  0  0  0  0  0  0  0  0  0  0
    4.5167  -15.3375    0.0000 C   0  0  0  0  0  0  0  0  0  0  0  0
    3.9042  -16.4125    0.0000 C   0  0  0  0  0  0  0  0  0  0  0  0
    5.1292  -15.7000    0.0000 C   0  0  0  0  0  0  0  0  0  0  0  0
    4.5167  -16.7542    0.0000 C   0  0  0  0  0  0  0  0  0  0  0  0
    6.9917  -16.7667    0.0000 O   0  0  0  0  0  0  0  0  0  0  0  0
    5.7542  -17.4667    0.0000 C   0  0  0  0  0  0  0  0  0  0  0  0
  2  1  1  0
  3  5  1  0
  4  1  1  0
  5  7  1  0
  6  2  1  0
  7 16  2  0
  8  1  2  0
  9  4  1  0
 10  2  2  0
 11  3  2  0
 12  8  1  0
 13  6  1  0
 14  6  2  0
 15 13  2  0
 16 14  1  0
 17  3  1  0
 18  5  1  0
  9 12  2  0
  7 15  1  0
M  END
> <chembl_id>
CHEMBL956

> <chembl_pref_name>
SUPROFEN
