
     RDKit          2D

 23 25  0  0  0  0  0  0  0  0999 V2000
   -3.2833    0.1083    0.0000 C   0  0  0  0  0  0  0  0  0  0  0  0
   -3.9458   -0.3792    0.0000 N   0  0  0  0  0  0  0  0  0  0  0  0
   -2.6125   -0.4000    0.0000 N   0  0  0  0  0  0  0  0  0  0  0  0
    3.3750   -0.3167    0.0000 N   0  0  0  0  0  0  0  0  0  0  0  0
   -3.6833   -1.2167    0.0000 C   0  0  0  0  0  0  0  0  0  0  0  0
    0.3417    1.3083    0.0000 C   0  0  0  0  0  0  0  0  0  0  0  0
   -2.8625   -1.2042    0.0000 C   0  0  0  0  0  0  0  0  0  0  0  0
   -1.7833    0.0208    0.0000 N   0  0  0  0  0  0  0  0  0  0  0  0
   -0.3458    0.8083    0.0000 O   0  0  0  0  0  0  0  0  0  0  0  0
    0.0875    2.1333    0.0000 C   0  0  0  0  0  0  0  0  0  0  0  0
   -1.0333    1.3083    0.0000 C   0  0  0  0  0  0  0  0  0  0  0  0
   -1.7875    0.9083    0.0000 C   0  0  0  0  0  0  0  0  0  0  0  0
    2.6167    0.0958    0.0000 C   0  0  0  0  0  0  0  0  0  0  0  0
   -0.7583    2.1333    0.0000 C   0  0  0  0  0  0  0  0  0  0  0  0
    4.1042    0.1625    0.0000 O   0  0  0  0  0  0  0  0  0  0  0  0
    1.1125    0.9333    0.0000 C   0  0  0  0  0  0  0  0  0  0  0  0
    3.4125   -1.1792    0.0000 O   0  0  0  0  0  0  0  0  0  0  0  0
   -3.2750    0.9208    0.0000 O   0  0  0  0  0  0  0  0  0  0  0  0
   -4.2375   -1.9667    0.0000 O   0  0  0  0  0  0  0  0  0  0  0  0
    1.8667   -0.3667    0.0000 C   0  0  0  0  0  0  0  0  0  0  0  0
    2.6042    0.9500    0.0000 C   0  0  0  0  0  0  0  0  0  0  0  0
    1.1125    0.0875    0.0000 C   0  0  0  0  0  0  0  0  0  0  0  0
    1.8417    1.3833    0.0000 C   0  0  0  0  0  0  0  0  0  0  0  0
  2  1  1  0
  3  1  1  0
  4 13  1  0
  5  2  1  0
  6  9  1  0
  7  3  1  0
  8  3  1  0
  9 11  1  0
 10 14  1  0
 11 12  1  0
 12  8  2  0
 13 21  1  0
 14 11  2  0
 15  4  1  0
 16  6  1  0
 17  4  2  0
 18  1  2  0
 19  5  2  0
 20 22  1  0
 21 23  2  0
 22 16  2  0
 23 16  1  0
  7  5  1  0
  6 10  2  0
 20 13  2  0
M  CHG  2   4   1  15  -1
M  END
> <chembl_id>
CHEMBL1201288

> <chembl_pref_name>
DANTROLENE
