
     RDKit          2D

 23 25  0  0  0  0  0  0  0  0999 V2000
    6.6292   -4.3167    0.0000 C   0  0  0  0  0  0  0  0  0  0  0  0
    5.3667   -4.3167    0.0000 C   0  0  0  0  0  0  0  0  0  0  0  0
    5.3667   -5.0292    0.0000 C   0  0  0  0  0  0  0  0  0  0  0  0
    4.7417   -5.3875    0.0000 N   0  0  0  0  0  0  0  0  0  0  0  0
    6.0000   -3.9625    0.0000 C   0  0  0  0  0  0  0  0  0  0  0  0
    6.0000   -5.3875    0.0000 N   0  0  0  0  0  0  0  0  0  0  0  0
    6.6292   -5.0292    0.0000 C   0  0  0  0  0  0  0  0  0  0  0  0
    4.1167   -5.0292    0.0000 C   0  0  0  0  0  0  0  0  0  0  0  0
    4.7417   -3.9625    0.0000 C   0  0  0  0  0  0  0  0  0  0  0  0
    7.2500   -3.9625    0.0000 C   0  0  0  0  0  0  0  0  0  0  0  0
    4.1167   -4.3167    0.0000 C   0  0  0  0  0  0  0  0  0  0  0  0
    3.5000   -5.3750    0.0000 N   0  0  0  0  0  0  0  0  0  0  0  0
    6.0000   -3.2417    0.0000 O   0  0  0  0  0  0  0  0  0  0  0  0
    2.2917   -6.1042    0.0000 N   0  0  0  0  0  0  0  0  0  0  0  0
    7.2542   -3.2417    0.0000 O   0  0  0  0  0  0  0  0  0  0  0  0
    3.5000   -3.9750    0.0000 F   0  0  0  0  0  0  0  0  0  0  0  0
    7.8542   -4.3292    0.0000 O   0  0  0  0  0  0  0  0  0  0  0  0
    6.0000   -6.0875    0.0000 C   0  0  0  0  0  0  0  0  0  0  0  0
    2.8667   -5.0417    0.0000 C   0  0  0  0  0  0  0  0  0  0  0  0
    3.5000   -6.0625    0.0000 C   0  0  0  0  0  0  0  0  0  0  0  0
    2.2917   -5.3875    0.0000 C   0  0  0  0  0  0  0  0  0  0  0  0
    2.9042   -6.4417    0.0000 C   0  0  0  0  0  0  0  0  0  0  0  0
    5.4042   -6.4292    0.0000 C   0  0  0  0  0  0  0  0  0  0  0  0
  2  5  1  0
  3  6  1  0
  4  3  1  0
  5  1  1  0
  6  7  1  0
  7  1  2  0
  8  4  2  0
  9  2  1  0
 10  1  1  0
 11  9  2  0
 12  8  1  0
 13  5  2  0
 14 22  1  0
 15 10  2  0
 16 11  1  0
 17 10  1  0
 18  6  1  0
 19 12  1  0
 20 12  1  0
 21 19  1  0
 22 20  1  0
 23 18  1  0
  2  3  2  0
 11  8  1  0
 14 21  1  0
M  END
> <chembl_id>
CHEMBL826

> <chembl_pref_name>
ENOXACIN
