
     RDKit          2D

 40 43  0  0  0  0  0  0  0  0999 V2000
    0.0589   -2.3277    0.0000 Cl  0  0  0  0  0  0  0  0  0  0  0  0
   -4.4786   -0.9428    0.0000 N   0  0  0  0  0  0  0  0  0  0  0  0
   -5.1930   -1.3553    0.0000 C   0  0  0  0  0  0  0  0  0  0  0  0
   -5.1930   -2.1804    0.0000 C   0  0  0  0  0  0  0  0  0  0  0  0
   -4.4786   -2.5929    0.0000 C   0  0  0  0  0  0  0  0  0  0  0  0
   -3.7641   -2.1804    0.0000 C   0  0  0  0  0  0  0  0  0  0  0  0
   -3.7641   -1.3553    0.0000 N   0  0  0  0  0  0  0  0  0  0  0  0
   -5.8061   -0.8034    0.0000 N   0  0  0  0  0  0  0  0  0  0  0  0
   -5.4706   -0.0497    0.0000 C   0  0  0  0  0  0  0  0  0  0  0  0
   -4.6501   -0.1359    0.0000 C   0  0  0  0  0  0  0  0  0  0  0  0
   -3.9357    0.2766    0.0000 C   0  0  0  0  0  0  0  0  0  0  0  0
   -3.2212    0.6891    0.0000 C   0  0  0  0  0  0  0  0  0  0  0  0
   -2.5067    1.1016    0.0000 C   0  0  0  0  0  0  0  0  0  0  0  0
   -1.7923    2.3392    0.0000 C   0  0  0  0  0  0  0  0  0  0  0  0
   -2.5067    1.9266    0.0000 C   0  0  0  0  0  0  0  0  0  0  0  0
   -1.7923    0.6891    0.0000 C   0  0  0  0  0  0  0  0  0  0  0  0
   -1.0778    1.1016    0.0000 C   0  0  0  0  0  0  0  0  0  0  0  0
   -1.0778    1.9266    0.0000 C   0  0  0  0  0  0  0  0  0  0  0  0
   -0.3633    0.6891    0.0000 C   0  0  0  0  0  0  0  0  0  0  0  0
   -0.3633   -0.1359    0.0000 O   0  0  0  0  0  0  0  0  0  0  0  0
    0.3511    1.1016    0.0000 N   0  0  0  0  0  0  0  0  0  0  0  0
    1.0656    0.6891    0.0000 C   0  0  0  0  0  0  0  0  0  0  0  0
    2.4946    0.6891    0.0000 C   0  0  0  0  0  0  0  0  0  0  0  0
    1.7801    1.1016    0.0000 C   0  0  0  0  0  0  0  0  0  0  0  0
    1.0656   -0.1359    0.0000 C   0  0  0  0  0  0  0  0  0  0  0  0
    1.7801   -0.5484    0.0000 C   0  0  0  0  0  0  0  0  0  0  0  0
    2.4946   -0.1359    0.0000 C   0  0  0  0  0  0  0  0  0  0  0  0
    3.2090   -0.5484    0.0000 C   0  0  0  0  0  0  0  0  0  0  0  0
    3.9236   -0.1359    0.0000 N   0  0  0  0  0  0  0  0  0  0  0  0
    3.9236    0.6891    0.0000 C   0  0  0  0  0  0  0  0  0  0  0  0
    3.2091    1.1016    0.0000 C   0  0  0  0  0  0  0  0  0  0  0  0
    4.6380    1.1016    0.0000 C   0  0  0  0  0  0  0  0  0  0  0  0
    4.6380   -0.5484    0.0000 C   0  0  0  0  0  0  0  0  0  0  0  0
    5.3525   -0.1359    0.0000 C   0  0  0  0  0  0  0  0  0  0  0  0
    5.3525    0.6891    0.0000 N   0  0  0  0  0  0  0  0  0  0  0  0
    6.0670    1.1016    0.0000 C   0  0  0  0  0  0  0  0  0  0  0  0
    3.2091    1.9266    0.0000 F   0  0  0  0  0  0  0  0  0  0  0  0
    3.9235    1.5141    0.0000 F   0  0  0  0  0  0  0  0  0  0  0  0
    2.6257    1.6850    0.0000 F   0  0  0  0  0  0  0  0  0  0  0  0
   -3.2212    2.3390    0.0000 C   0  0  0  0  0  0  0  0  0  0  0  0
  2  7  1  0
  3  4  1  0
  4  5  2  0
  5  6  1  0
  6  7  2  0
  2 10  1  0
  2  3  1  0
  3  8  2  0
  8  9  1  0
  9 10  2  0
 10 11  1  0
 11 12  3  0
 12 13  1  0
 15 13  2  0
 13 16  1  0
 14 15  1  0
 14 18  2  0
 16 17  2  0
 17 18  1  0
 17 19  1  0
 19 20  2  0
 19 21  1  0
 21 22  1  0
 24 22  2  0
 22 25  1  0
 23 24  1  0
 23 27  2  0
 23 31  1  0
 25 26  2  0
 26 27  1  0
 27 28  1  0
 28 29  1  0
 32 30  1  0
 30 29  1  0
 29 33  1  0
 32 35  1  0
 33 34  1  0
 34 35  1  0
 35 36  1  0
 31 37  1  0
 31 38  1  0
 31 39  1  0
 15 40  1  0
M  END
> <chembl_id>
CHEMBL2105708

> <chembl_pref_name>
PONATINIB HYDROCHLORIDE
