
     RDKit          2D

 56 66  0  0  1  0  0  0  0  0999 V2000
   11.1757   -0.7559    0.0000 C   0  0  0  0  0  0  0  0  0  0  0  0
   14.8442    0.6924    0.0000 C   0  0  0  0  0  0  0  0  0  0  0  0
   14.0062   -0.3943    0.0000 N   0  0  0  0  0  0  0  0  0  0  0  0
   12.0186    0.3267    0.0000 N   0  0  0  0  0  0  0  0  0  0  0  0
   13.4047    0.9637    0.0000 C   0  0  0  0  0  0  0  0  0  0  0  0
   13.9965    0.4454    0.0000 C   0  0  0  0  0  0  0  0  0  0  0  0
   12.0253   -0.5123    0.0000 C   0  0  0  0  0  0  0  0  0  0  0  0
   10.1975   -1.5777    0.0000 N   0  0  0  0  0  0  0  0  0  0  0  0
   15.6325    1.4938    0.0000 N   0  0  0  0  0  0  0  0  0  0  0  0
   12.5330    0.9547    0.0000 C   0  0  0  0  0  0  0  0  0  0  0  0
   13.5348   -1.0843    0.0000 C   0  0  0  0  0  0  0  0  0  0  0  0
   15.2517   -0.0765    0.0000 C   0  0  0  0  0  0  0  0  0  0  0  0
   10.7694    0.0148    0.0000 C   0  0  0  0  0  0  0  0  0  0  0  0
   11.2748    0.6669    0.0000 C   0  0  0  0  0  0  0  0  0  0  0  0
   14.7519   -0.7328    0.0000 C   0  0  0  0  0  0  0  0  0  0  0  0
   13.8052    2.6108    0.0000 C   0  0  0  0  0  0  0  0  0  0  0  0
   12.0902   -2.5621    0.0000 C   0  0  0  0  0  0  0  0  0  0  0  0
   10.6254   -2.1314    0.0000 C   0  0  0  0  0  0  0  0  0  0  0  0
   15.3604    2.1140    0.0000 C   0  0  0  0  0  0  0  0  0  0  0  0
   15.5692    0.1691    0.0000 C   0  0  0  0  0  0  0  0  0  0  0  0
   10.5193   -0.3213    0.0000 C   0  0  0  0  0  0  0  0  0  0  0  0
   16.1764    0.8554    0.0000 C   0  0  0  0  0  0  0  0  0  0  0  0
    9.8372   -0.7782    0.0000 C   0  0  0  0  0  0  0  0  0  0  0  0
   13.3803    3.5003    0.0000 C   0  0  0  0  0  0  0  0  0  0  0  0
   12.6716   -3.4079    0.0000 C   0  0  0  0  0  0  0  0  0  0  0  0
   16.3129    1.5228    0.0000 C   0  0  0  0  0  0  0  0  0  0  0  0
    9.3100   -1.5589    0.0000 C   0  0  0  0  0  0  0  0  0  0  0  0
   16.6869    2.2610    0.0000 C   0  0  0  0  0  0  0  0  0  0  0  0
    8.9589   -2.2830    0.0000 C   0  0  0  0  0  0  0  0  0  0  0  0
   17.5724    2.2444    0.0000 C   0  0  0  0  0  0  0  0  0  0  0  0
    8.0714   -2.3098    0.0000 C   0  0  0  0  0  0  0  0  0  0  0  0
    9.9520    0.1265    0.0000 C   0  0  0  0  0  0  0  0  0  0  0  0
   16.0700   -0.1811    0.0000 C   0  0  0  0  0  0  0  0  0  0  0  0
   15.0704   -1.4939    0.0000 C   0  0  0  0  0  0  0  0  0  0  0  0
   10.9629    1.4306    0.0000 C   0  0  0  0  0  0  0  0  0  0  0  0
   11.7367    3.8120    0.0000 O   0  0  0  0  0  0  0  0  0  0  0  0
   13.9669   -3.7425    0.0000 O   0  0  0  0  0  0  0  0  0  0  0  0
   12.4124    3.4241    0.0000 C   0  0  0  0  0  0  0  0  0  0  0  0
   13.4995   -3.2159    0.0000 C   0  0  0  0  0  0  0  0  0  0  0  0
    9.6400    0.8903    0.0000 C   0  0  0  0  0  0  0  0  0  0  0  0
   16.3885   -0.9422    0.0000 C   0  0  0  0  0  0  0  0  0  0  0  0
   15.8887   -1.5985    0.0000 C   0  0  0  0  0  0  0  0  0  0  0  0
   10.1455    1.5423    0.0000 C   0  0  0  0  0  0  0  0  0  0  0  0
   14.3608    2.0256    0.0000 C   0  0  0  0  0  0  0  0  0  0  0  0
   13.5762    1.7706    0.0000 C   0  0  0  0  0  0  0  0  0  0  0  0
   14.9739    1.4736    0.0000 C   0  0  0  0  0  0  0  0  0  0  0  0
   14.1591    1.3445    0.0000 H   0  0  0  0  0  0  0  0  0  0  0  0
   12.7793    1.9842    0.0000 H   0  0  0  0  0  0  0  0  0  0  0  0
   13.2428    0.1099    0.0000 H   0  0  0  0  0  0  0  0  0  0  0  0
   11.0479   -1.5326    0.0000 C   0  0  0  0  0  0  0  0  0  0  0  0
   11.6371   -2.1101    0.0000 C   0  0  0  0  0  0  0  0  0  0  0  0
   12.4318   -1.8886    0.0000 C   0  0  0  0  0  0  0  0  0  0  0  0
   12.6145   -1.0898    0.0000 C   0  0  0  0  0  0  0  0  0  0  0  0
   13.1155   -1.6785    0.0000 H   0  0  0  0  0  0  0  0  0  0  0  0
   11.8448   -1.3191    0.0000 H   0  0  0  0  0  0  0  0  0  0  0  0
   12.7790   -0.1768    0.0000 H   0  0  0  0  0  0  0  0  0  0  0  0
  6  2  1  0
  3 11  1  0
  7  4  1  0
  5 10  2  0
  6  3  1  0
 10  4  1  0
 12 15  2  0
  1 13  1  0
 14 13  2  0
 15  3  1  0
 18  8  1  0
 19 16  1  0
  2 20  1  6
  1 21  1  6
 22 20  1  0
 23 21  1  0
 24 16  2  0
 25 17  2  0
  9 26  1  1
  8 27  1  1
 28 26  1  0
 29 27  1  0
 30 28  2  0
 31 29  2  0
 32 13  1  0
 33 12  1  0
 34 15  1  0
 35 14  1  0
 36 38  1  0
 37 39  1  0
 24 38  1  0
 25 39  1  0
 40 32  2  0
 41 42  1  0
 42 34  2  0
 43 40  1  0
  8 23  1  0
  4 14  1  0
 18 17  1  0
 35 43  2  0
  6  5  1  0
  2 12  1  0
 19  9  1  0
 33 41  2  0
  9 22  1  0
 44 45  1  0
 44 46  1  0
 45  5  1  0
  2 46  1  0
  9 46  1  0
 46 47  1  1
 45 48  1  1
  6 49  1  6
 16 45  1  0
 50 51  1  0
 51 52  1  0
 52 53  1  0
  7 53  1  0
  1 50  1  0
  7  1  1  0
 11 53  2  0
 17 52  1  0
 52 54  1  1
  8 50  1  0
 50 55  1  1
  7 56  1  6
M  CHG  2   8   1   9   1
M  END
> <chembl_id>
CHEMBL3305985

> <chembl_pref_name>
ALCURONIUM
