
     RDKit          2D

 35 37  0  0  1  0  0  0  0  0999 V2000
    1.8542   -7.6917    0.0000 S   0  0  0  0  0  0  0  0  0  0  0  0
    4.3083   -7.6792    0.0000 N   0  0  0  0  0  0  0  0  0  0  0  0
    1.8583   -8.4000    0.0000 C   0  0  0  0  0  0  0  0  0  0  0  0
    3.6917   -7.3292    0.0000 C   0  0  0  0  0  0  0  0  0  0  0  0
    2.4667   -7.3375    0.0000 N   0  0  0  0  0  0  0  0  0  0  0  0
    1.2500   -8.7583    0.0000 C   0  0  0  0  0  0  0  0  0  0  0  0
    4.9167   -7.3208    0.0000 C   0  0  0  0  0  0  0  0  0  0  0  0
    3.0833   -7.6875    0.0000 C   0  0  0  0  0  0  0  0  0  0  0  0
    0.6417   -8.4042    0.0000 N   0  0  0  0  0  0  0  0  0  0  0  0
    4.9125   -6.6125    0.0000 C   0  0  0  0  0  0  0  0  0  0  0  0
    1.2458   -9.4667    0.0000 C   0  0  0  0  0  0  0  0  0  0  0  0
    4.3250  -10.5125    0.0000 C   0  0  0  0  0  0  0  0  0  0  0  0
    4.3083   -8.3875    0.0000 C   0  0  0  0  0  0  0  0  0  0  0  0
    1.4917   -7.0750    0.0000 O   0  0  0  0  0  0  0  0  0  0  0  0
    1.1417   -7.6875    0.0000 O   0  0  0  0  0  0  0  0  0  0  0  0
    3.7125  -10.8708    0.0000 N   0  0  0  0  0  0  0  0  0  0  0  0
    3.6875   -6.6208    0.0000 O   0  0  0  0  0  0  0  0  0  0  0  0
    5.5333   -7.6750    0.0000 C   0  0  0  0  0  0  0  0  0  0  0  0
    0.6333   -9.8208    0.0000 C   0  0  0  0  0  0  0  0  0  0  0  0
    4.2958   -6.2625    0.0000 O   0  0  0  0  0  0  0  0  0  0  0  0
    0.0292   -8.7542    0.0000 C   0  0  0  0  0  0  0  0  0  0  0  0
    4.3208   -9.8042    0.0000 N   0  0  0  0  0  0  0  0  0  0  0  0
    4.9375  -10.8667    0.0000 N   0  0  0  0  0  0  0  0  0  0  0  0
    2.4708   -8.7542    0.0000 C   0  0  0  0  0  0  0  0  0  0  0  0
    5.5208   -6.2542    0.0000 O   0  0  0  0  0  0  0  0  0  0  0  0
    4.9208   -8.7375    0.0000 C   0  0  0  0  0  0  0  0  0  0  0  0
    0.0250   -9.4625    0.0000 C   0  0  0  0  0  0  0  0  0  0  0  0
    5.5333   -8.3833    0.0000 C   0  0  0  0  0  0  0  0  0  0  0  0
    3.0833   -8.3958    0.0000 C   0  0  0  0  0  0  0  0  0  0  0  0
    1.8583   -9.8208    0.0000 C   0  0  0  0  0  0  0  0  0  0  0  0
    2.4708   -9.4667    0.0000 C   0  0  0  0  0  0  0  0  0  0  0  0
    3.7042   -9.4542    0.0000 C   0  0  0  0  0  0  0  0  0  0  0  0
    6.1458   -8.7375    0.0000 C   0  0  0  0  0  0  0  0  0  0  0  0
   -0.5917   -9.8125    0.0000 C   0  0  0  0  0  0  0  0  0  0  0  0
    3.7000   -8.7458    0.0000 C   0  0  0  0  0  0  0  0  0  0  0  0
  2  4  1  0
  3  1  1  0
  4  8  1  0
  5  1  1  0
  6  3  1  0
  7  2  1  0
  8  5  1  0
  9  6  1  0
  7 10  1  1
 11  6  2  0
 12 22  1  0
 13  2  1  0
 14  1  2  0
 15  1  2  0
 16 12  2  0
 17  4  2  0
 18  7  1  0
 19 11  1  0
 20 10  2  0
 21  9  1  0
 22 32  1  0
 23 12  1  0
 24  3  2  0
 25 10  1  0
 26 13  1  0
 27 19  1  0
 28 18  1  0
  8 29  1  6
 30 11  1  0
 31 24  1  0
 32 35  1  0
 28 33  1  6
 34 27  1  0
 35 29  1  0
 31 30  2  0
 27 21  1  0
 28 26  1  0
M  END
> <chembl_id>
CHEMBL1166

> <chembl_pref_name>
ARGATROBAN
