
     RDKit          2D

 45 48  0  0  0  0  0  0  0  0999 V2000
    1.4382    1.2927    0.0000 C   0  0  0  0  0  0  0  0  0  0  0  0
    1.4382    0.4677    0.0000 C   0  0  0  0  0  0  0  0  0  0  0  0
    2.1526    0.0552    0.0000 C   0  0  0  0  0  0  0  0  0  0  0  0
    2.8671    0.4677    0.0000 C   0  0  0  0  0  0  0  0  0  0  0  0
    2.8671    1.2927    0.0000 C   0  0  0  0  0  0  0  0  0  0  0  0
    2.1526    1.7052    0.0000 C   0  0  0  0  0  0  0  0  0  0  0  0
    3.5816    0.0552    0.0000 C   0  0  0  0  0  0  0  0  0  0  0  0
    2.1526   -0.7698    0.0000 F   0  0  0  0  0  0  0  0  0  0  0  0
    3.5816   -0.7698    0.0000 C   0  0  0  0  0  0  0  0  0  0  0  0
    4.2961   -1.1823    0.0000 N   0  0  0  0  0  0  0  0  0  0  0  0
    5.0105   -0.7698    0.0000 C   0  0  0  0  0  0  0  0  0  0  0  0
    5.0105    0.0552    0.0000 N   0  0  0  0  0  0  0  0  0  0  0  0
    4.2961    0.4677    0.0000 C   0  0  0  0  0  0  0  0  0  0  0  0
    4.2961    1.2927    0.0000 O   0  0  0  0  0  0  0  0  0  0  0  0
    2.8671   -1.1823    0.0000 C   0  0  0  0  0  0  0  0  0  0  0  0
    4.3044   -2.0323    0.0000 C   0  0  0  0  0  0  0  0  0  0  0  0
    5.7250   -1.1823    0.0000 O   0  0  0  0  0  0  0  0  0  0  0  0
    5.7250    0.4677    0.0000 C   0  0  0  0  0  0  0  0  0  0  0  0
    6.4395    0.0552    0.0000 C   0  0  0  0  0  0  0  0  0  0  0  0
    7.1539    0.4677    0.0000 N   0  0  0  0  0  0  0  0  0  0  0  0
    7.8684    0.0552    0.0000 C   0  0  0  0  0  0  0  0  0  0  0  0
    8.5829    0.4677    0.0000 C   0  0  0  0  0  0  0  0  0  0  0  0
    9.2974    0.0552    0.0000 C   0  0  0  0  0  0  0  0  0  0  0  0
    6.8520   -0.6593    0.0000 C   0  0  0  0  0  0  0  0  0  0  0  0
    6.4395   -1.3738    0.0000 C   0  0  0  0  0  0  0  0  0  0  0  0
    6.8520   -2.0882    0.0000 C   0  0  0  0  0  0  0  0  0  0  0  0
    7.6770   -2.0882    0.0000 C   0  0  0  0  0  0  0  0  0  0  0  0
    8.0895   -1.3738    0.0000 C   0  0  0  0  0  0  0  0  0  0  0  0
    7.6770   -0.6593    0.0000 C   0  0  0  0  0  0  0  0  0  0  0  0
    0.7237    0.0552    0.0000 O   0  0  0  0  0  0  0  0  0  0  0  0
    0.0093    0.4677    0.0000 C   0  0  0  0  0  0  0  0  0  0  0  0
   10.0119    0.4677    0.0000 C   0  0  0  0  0  0  0  0  0  0  0  0
   10.7263    0.0552    0.0000 O   0  0  0  0  0  0  0  0  0  0  0  0
   10.0118    1.2927    0.0000 O   0  0  0  0  0  0  0  0  0  0  0  0
    4.8792   -2.5875    0.0000 C   0  0  0  0  0  0  0  0  0  0  0  0
    4.6653   -3.3829    0.0000 C   0  0  0  0  0  0  0  0  0  0  0  0
    5.2476   -3.9627    0.0000 C   0  0  0  0  0  0  0  0  0  0  0  0
    6.0425   -3.7481    0.0000 C   0  0  0  0  0  0  0  0  0  0  0  0
    6.2520   -2.9482    0.0000 C   0  0  0  0  0  0  0  0  0  0  0  0
    5.6682   -2.3718    0.0000 C   0  0  0  0  0  0  0  0  0  0  0  0
    5.8772   -1.5737    0.0000 F   0  0  0  0  0  0  0  0  0  0  0  0
    3.8685   -3.5969    0.0000 C   0  0  0  0  0  0  0  0  0  0  0  0
    3.2848   -3.0138    0.0000 F   0  0  0  0  0  0  0  0  0  0  0  0
    3.6555   -4.3939    0.0000 F   0  0  0  0  0  0  0  0  0  0  0  0
    3.8681   -2.7719    0.0000 F   0  0  0  0  0  0  0  0  0  0  0  0
  9 15  1  0
 10 16  1  0
 11 17  2  0
 12 18  1  0
 19 18  1  6
 19 20  1  0
 20 21  1  0
 21 22  1  0
 22 23  1  0
 19 24  1  0
 24 25  1  0
 25 26  2  0
 26 27  1  0
 27 28  2  0
 28 29  1  0
 29 24  2  0
  2 30  1  0
  1  2  2  0
 30 31  1  0
  2  3  1  0
 23 32  1  0
  3  4  2  0
 32 33  1  0
  4  5  1  0
 32 34  2  0
  5  6  2  0
 16 35  1  0
  6  1  1  0
 35 36  1  0
  4  7  1  0
 36 37  2  0
  3  8  1  0
 37 38  1  0
  7  9  2  0
 38 39  2  0
  9 10  1  0
 39 40  1  0
 40 35  2  0
 10 11  1  0
 40 41  1  0
 11 12  1  0
 36 42  1  0
 12 13  1  0
 42 43  1  0
 13  7  1  0
 42 44  1  0
 13 14  2  0
 42 45  1  0
M  END
> <chembl_id>
CHEMBL1208155

> <chembl_pref_name>
ELAGOLIX
