
     RDKit          2D

 13 14  0  0  0  0  0  0  0  0999 V2000
   -0.4833   -1.2625    0.0000 C   0  0  0  0  0  0  0  0  0  0  0  0
    0.7500   -0.5292    0.0000 C   0  0  0  0  0  0  0  0  0  0  0  0
   -1.7250   -0.5292    0.0000 C   0  0  0  0  0  0  0  0  0  0  0  0
    0.7667    0.8625    0.0000 C   0  0  0  0  0  0  0  0  0  0  0  0
   -0.4833    1.6208    0.0000 C   0  0  0  0  0  0  0  0  0  0  0  0
   -1.7250    0.9000    0.0000 C   0  0  0  0  0  0  0  0  0  0  0  0
    1.9917   -1.2625    0.0000 N   0  0  0  0  0  0  0  0  0  0  0  0
   -0.4833   -2.6750    0.0000 O   0  0  0  0  0  0  0  0  0  0  0  0
   -2.9750   -1.2250    0.0000 Br  0  0  0  0  0  0  0  0  0  0  0  0
   -0.4833    3.0333    0.0000 C   0  0  0  0  0  0  0  0  0  0  0  0
    1.9917    1.6208    0.0000 C   0  0  0  0  0  0  0  0  0  0  0  0
    3.2417   -0.5292    0.0000 C   0  0  0  0  0  0  0  0  0  0  0  0
    3.2417    0.8833    0.0000 C   0  0  0  0  0  0  0  0  0  0  0  0
  2  1  1  0
  3  1  2  0
  4  2  1  0
  5  6  2  0
  6  3  1  0
  7  2  2  0
  8  1  1  0
  9  3  1  0
 10  5  1  0
 11  4  2  0
 12  7  1  0
 13 12  2  0
  4  5  1  0
 11 13  1  0
M  END
> <chembl_id>
CHEMBL1788385

> <chembl_pref_name>
TILBROQUINOL
