
     RDKit          2D

 25 28  0  0  1  0  0  0  0  0999 V2000
    4.3208   -5.3750    0.0000 C   0  0  0  0  0  0  0  0  0  0  0  0
    4.3167   -6.0833    0.0000 C   0  0  0  0  0  0  0  0  0  0  0  0
    3.6958   -6.4375    0.0000 C   0  0  0  0  0  0  0  0  0  0  0  0
    3.0833   -6.0792    0.0000 C   0  0  0  0  0  0  0  0  0  0  0  0
    2.4708   -6.4375    0.0000 C   0  0  0  0  0  0  0  0  0  0  0  0
    4.9958   -5.1625    0.0000 C   0  0  0  0  0  0  0  0  0  0  0  0
    2.4708   -7.1500    0.0000 C   0  0  0  0  0  0  0  0  0  0  0  0
    5.6042   -4.8042    0.0000 C   0  0  0  0  0  0  0  0  0  0  0  0
    3.7042   -5.0167    0.0000 C   0  0  0  0  0  0  0  0  0  0  0  0
    3.0833   -5.3667    0.0000 C   0  0  0  0  0  0  0  0  0  0  0  0
    4.9875   -6.3083    0.0000 C   0  0  0  0  0  0  0  0  0  0  0  0
    3.7000   -7.1500    0.0000 C   0  0  0  0  0  0  0  0  0  0  0  0
    6.2167   -4.4417    0.0000 C   0  0  0  0  0  0  0  0  0  0  0  0
    1.8583   -6.0833    0.0000 C   0  0  0  0  0  0  0  0  0  0  0  0
    3.0833   -7.5042    0.0000 C   0  0  0  0  0  0  0  0  0  0  0  0
    5.4083   -5.7375    0.0000 C   0  0  0  0  0  0  0  0  0  0  0  0
    1.8583   -7.5042    0.0000 C   0  0  0  0  0  0  0  0  0  0  0  0
    1.2458   -7.1500    0.0000 C   0  0  0  0  0  0  0  0  0  0  0  0
    4.9917   -4.4542    0.0000 O   0  0  0  0  0  0  0  0  0  0  0  0
    1.2458   -6.4375    0.0000 C   0  0  0  0  0  0  0  0  0  0  0  0
    4.3167   -4.6667    0.0000 C   0  0  0  0  0  0  0  0  0  0  0  0
    0.6333   -7.5042    0.0000 O   0  0  0  0  0  0  0  0  0  0  0  0
    3.0792   -6.7875    0.0000 H   0  0  0  0  0  0  0  0  0  0  0  0
    4.3125   -6.7917    0.0000 H   0  0  0  0  0  0  0  0  0  0  0  0
    3.6917   -5.7292    0.0000 H   0  0  0  0  0  0  0  0  0  0  0  0
  2  1  1  0
  3  2  1  0
  4  3  1  0
  5  4  1  0
  6  1  1  0
  7  5  1  0
  8  6  1  0
  9  1  1  0
 10  9  1  0
 11  2  1  0
 12  3  1  0
 13  8  3  0
 14  5  2  0
 15 12  1  0
 16  6  1  0
 17  7  2  0
 18 17  1  0
  6 19  1  1
 20 14  1  0
  1 21  1  1
 22 18  1  0
  4 23  1  6
  2 24  1  6
  3 25  1  1
 16 11  1  0
 10  4  1  0
 15  7  1  0
 18 20  2  0
M  END
> <chembl_id>
CHEMBL691

> <chembl_pref_name>
ETHINYL ESTRADIOL
