
     RDKit          2D

 24 26  0  0  0  0  0  0  0  0999 V2000
    1.0625    1.2083    0.0000 N   0  0  0  0  0  0  0  0  0  0  0  0
   -0.9000   -2.3750    0.0000 C   0  0  0  0  0  0  0  0  0  0  0  0
   -1.9250   -2.3750    0.0000 C   0  0  0  0  0  0  0  0  0  0  0  0
    1.6167    2.0208    0.0000 C   0  0  0  0  0  0  0  0  0  0  0  0
    1.6167    0.3958    0.0000 C   0  0  0  0  0  0  0  0  0  0  0  0
   -1.4958   -1.4667    0.0000 C   0  0  0  0  0  0  0  0  0  0  0  0
    2.5792    1.6958    0.0000 C   0  0  0  0  0  0  0  0  0  0  0  0
    2.5792    0.6875    0.0000 C   0  0  0  0  0  0  0  0  0  0  0  0
    0.0750    1.1958    0.0000 C   0  0  0  0  0  0  0  0  0  0  0  0
   -1.4958   -0.4542    0.0000 C   0  0  0  0  0  0  0  0  0  0  0  0
   -2.6625   -2.9167    0.0000 C   0  0  0  0  0  0  0  0  0  0  0  0
   -0.4125    0.2000    0.0000 O   0  0  0  0  0  0  0  0  0  0  0  0
    1.2667    2.9708    0.0000 O   0  0  0  0  0  0  0  0  0  0  0  0
    1.3000   -0.5917    0.0000 O   0  0  0  0  0  0  0  0  0  0  0  0
   -3.5500   -2.5000    0.0000 C   0  0  0  0  0  0  0  0  0  0  0  0
   -2.4083   -0.0042    0.0000 O   0  0  0  0  0  0  0  0  0  0  0  0
   -0.5625   -2.9625    0.0000 C   0  0  0  0  0  0  0  0  0  0  0  0
   -0.1250   -2.1542    0.0000 C   0  0  0  0  0  0  0  0  0  0  0  0
    3.4417    2.2208    0.0000 C   0  0  0  0  0  0  0  0  0  0  0  0
    3.4417    0.1875    0.0000 C   0  0  0  0  0  0  0  0  0  0  0  0
   -3.6708   -1.5000    0.0000 C   0  0  0  0  0  0  0  0  0  0  0  0
   -4.3458   -3.1167    0.0000 C   0  0  0  0  0  0  0  0  0  0  0  0
    4.3417    1.7333    0.0000 C   0  0  0  0  0  0  0  0  0  0  0  0
    4.3417    0.6875    0.0000 C   0  0  0  0  0  0  0  0  0  0  0  0
  2  6  1  0
  3  6  1  0
  4  1  1  0
  5  1  1  0
  6 10  1  0
  7  4  1  0
  8  5  1  0
  9  1  1  0
 10 12  1  0
 11  3  1  0
 12  9  1  0
 13  4  2  0
 14  5  2  0
 15 11  2  0
 16 10  2  0
 17  2  1  0
 18  2  1  0
 19  7  1  0
 20  8  1  0
 21 15  1  0
 22 15  1  0
 23 19  1  0
 24 20  1  0
  7  8  2  0
 23 24  1  0
  3  2  1  0
M  END
> <chembl_id>
CHEMBL1788386

> <chembl_pref_name>
TETRAMETHRIN
