
     RDKit          2D

 39 44  0  0  1  0  0  0  0  0999 V2000
    4.9750   -3.8292    0.0000 C   0  0  0  0  0  0  0  0  0  0  0  0
    4.3167   -4.0417    0.0000 C   0  0  0  0  0  0  0  0  0  0  0  0
    3.1125   -4.7292    0.0000 C   0  0  0  0  0  0  0  0  0  0  0  0
    2.5292   -5.0750    0.0000 C   0  0  0  0  0  0  0  0  0  0  0  0
    4.3042   -4.7625    0.0000 C   0  0  0  0  0  0  0  0  0  0  0  0
    3.7417   -5.0917    0.0000 C   0  0  0  0  0  0  0  0  0  0  0  0
    5.4000   -4.4167    0.0000 C   0  0  0  0  0  0  0  0  0  0  0  0
    2.5292   -5.7917    0.0000 C   0  0  0  0  0  0  0  0  0  0  0  0
    5.4042   -3.2417    0.0000 O   0  0  0  0  0  0  0  0  0  0  0  0
    3.1042   -4.0167    0.0000 C   0  0  0  0  0  0  0  0  0  0  0  0
    3.7167   -3.6667    0.0000 C   0  0  0  0  0  0  0  0  0  0  0  0
    6.1000   -3.4792    0.0000 C   0  0  0  0  0  0  0  0  0  0  0  0
    6.0917   -4.2042    0.0000 O   0  0  0  0  0  0  0  0  0  0  0  0
    1.9167   -4.7125    0.0000 C   0  0  0  0  0  0  0  0  0  0  0  0
    4.9625   -5.0000    0.0000 C   0  0  0  0  0  0  0  0  0  0  0  0
    4.9667   -3.1167    0.0000 C   0  0  0  0  0  0  0  0  0  0  0  0
    1.9250   -6.1417    0.0000 C   0  0  0  0  0  0  0  0  0  0  0  0
    3.7542   -5.8000    0.0000 C   0  0  0  0  0  0  0  0  0  0  0  0
    1.3042   -5.0625    0.0000 C   0  0  0  0  0  0  0  0  0  0  0  0
    1.3042   -5.7875    0.0000 C   0  0  0  0  0  0  0  0  0  0  0  0
    3.1500   -6.1542    0.0000 C   0  0  0  0  0  0  0  0  0  0  0  0
    6.1875   -1.6917    0.0000 C   0  0  0  0  0  0  0  0  0  0  0  0
    3.1167   -5.4375    0.0000 F   0  0  0  0  0  0  0  0  0  0  0  0
    5.5792   -2.7625    0.0000 C   0  0  0  0  0  0  0  0  0  0  0  0
    4.3542   -2.7667    0.0000 O   0  0  0  0  0  0  0  0  0  0  0  0
    5.5750   -2.0542    0.0000 O   0  0  0  0  0  0  0  0  0  0  0  0
    6.1792   -0.9875    0.0000 O   0  0  0  0  0  0  0  0  0  0  0  0
    0.6917   -6.1375    0.0000 O   0  0  0  0  0  0  0  0  0  0  0  0
    4.4042   -3.3417    0.0000 C   0  0  0  0  0  0  0  0  0  0  0  0
    2.4875   -3.6667    0.0000 O   0  0  0  0  0  0  0  0  0  0  0  0
    2.5000   -4.3542    0.0000 C   0  0  0  0  0  0  0  0  0  0  0  0
    6.7750   -3.7000    0.0000 C   0  0  0  0  0  0  0  0  0  0  0  0
    6.1042   -2.7667    0.0000 C   0  0  0  0  0  0  0  0  0  0  0  0
    6.8042   -2.0417    0.0000 C   0  0  0  0  0  0  0  0  0  0  0  0
    6.7792   -2.5542    0.0000 C   0  0  0  0  0  0  0  0  0  0  0  0
    7.1917   -3.1292    0.0000 C   0  0  0  0  0  0  0  0  0  0  0  0
    5.9750   -5.2348    0.0000 H   0  0  0  0  0  0  0  0  0  0  0  0
    4.6136   -5.5815    0.0000 H   0  0  0  0  0  0  0  0  0  0  0  0
    4.3957   -5.7583    0.0000 H   0  0  0  0  0  0  0  0  0  0  0  0
  2  1  1  0
  3 10  1  0
  4  3  1  0
  5  2  1  0
  6  5  1  0
  7  1  1  0
  8  4  1  0
  1  9  1  0
 10 11  1  0
 11  2  1  0
 12  9  1  0
  7 13  1  0
 14  4  1  0
 15  7  1  0
  1 16  1  1
 17  8  2  0
 18  6  1  0
 19 14  2  0
 20 19  1  0
 21 18  1  0
 22 26  1  0
  3 23  1  6
 24 16  1  0
 25 16  2  0
 26 24  1  0
 27 22  2  0
 28 20  2  0
  2 29  1  1
 10 30  1  1
  4 31  1  1
 32 12  1  0
 33 12  1  0
 34 22  1  0
 35 33  1  0
 36 32  1  0
 15  5  1  0
 12 13  1  0
  3  6  1  0
 35 36  1  0
  8 21  1  0
 20 17  1  0
  7 37  1  1
  6 38  1  1
  5 39  1  6
M  END
> <chembl_id>
CHEMBL1200732

> <chembl_pref_name>
AMCINONIDE
