
     RDKit          2D

 59 63  0  0  1  0  0  0  0  0999 V2000
    3.8250  -10.9417    0.0000 C   0  0  0  0  0  0  0  0  0  0  0  0
    3.8250  -10.2333    0.0000 C   0  0  0  0  0  0  0  0  0  0  0  0
    2.7333  -10.5833    0.0000 C   0  0  0  0  0  0  0  0  0  0  0  0
    3.1500  -11.1542    0.0000 O   0  0  0  0  0  0  0  0  0  0  0  0
    3.1500  -10.0083    0.0000 N   0  0  0  0  0  0  0  0  0  0  0  0
    9.0792  -12.5083    0.0000 C   0  0  0  0  0  0  0  0  0  0  0  0
    4.4375   -9.8875    0.0000 C   0  0  0  0  0  0  0  0  0  0  0  0
    5.0500  -12.3417    0.0000 C   0  0  0  0  0  0  0  0  0  0  0  0
    5.6542  -11.2875    0.0000 C   0  0  0  0  0  0  0  0  0  0  0  0
    5.6542  -11.9917    0.0000 C   0  0  0  0  0  0  0  0  0  0  0  0
    8.7292  -13.1167    0.0000 C   0  0  0  0  0  0  0  0  0  0  0  0
    6.2750  -10.2292    0.0000 C   0  0  0  0  0  0  0  0  0  0  0  0
    6.2667  -10.9375    0.0000 C   0  0  0  0  0  0  0  0  0  0  0  0
   -0.2375  -10.0000    0.0000 N   0  0  0  0  0  0  0  0  0  0  0  0
    4.4417   -9.1875    0.0000 C   0  0  0  0  0  0  0  0  0  0  0  0
    4.4375  -11.9917    0.0000 O   0  0  0  0  0  0  0  0  0  0  0  0
   -0.4583   -9.3250    0.0000 C   0  0  0  0  0  0  0  0  0  0  0  0
    9.0750  -11.5667    0.0000 O   0  0  0  0  0  0  0  0  0  0  0  0
    8.0167  -13.1167    0.0000 C   0  0  0  0  0  0  0  0  0  0  0  0
    5.6542   -9.8792    0.0000 C   0  0  0  0  0  0  0  0  0  0  0  0
    4.4375  -11.2917    0.0000 C   0  0  0  0  0  0  0  0  0  0  0  0
    8.7292  -11.8958    0.0000 O   0  0  0  0  0  0  0  0  0  0  0  0
    0.1167   -8.9083    0.0000 C   0  0  0  0  0  0  0  0  0  0  0  0
    0.6917   -9.3250    0.0000 N   0  0  0  0  0  0  0  0  0  0  0  0
    0.4708  -10.0000    0.0000 C   0  0  0  0  0  0  0  0  0  0  0  0
    5.0417   -8.8292    0.0000 C   0  0  0  0  0  0  0  0  0  0  0  0
    5.6542   -9.1792    0.0000 C   0  0  0  0  0  0  0  0  0  0  0  0
    7.6625  -12.5083    0.0000 C   0  0  0  0  0  0  0  0  0  0  0  0
   -1.0750   -8.9667    0.0000 C   0  0  0  0  0  0  0  0  0  0  0  0
    2.0250  -10.5833    0.0000 O   0  0  0  0  0  0  0  0  0  0  0  0
    7.6667  -13.7333    0.0000 N   0  0  0  0  0  0  0  0  0  0  0  0
    5.0500  -13.0542    0.0000 O   0  0  0  0  0  0  0  0  0  0  0  0
    5.0417  -10.9292    0.0000 O   0  0  0  0  0  0  0  0  0  0  0  0
    8.0167  -11.8958    0.0000 C   0  0  0  0  0  0  0  0  0  0  0  0
    3.8292   -8.8333    0.0000 O   0  0  0  0  0  0  0  0  0  0  0  0
   -1.6917   -7.9042    0.0000 N   0  0  0  0  0  0  0  0  0  0  0  0
    9.0792  -13.7333    0.0000 O   0  0  0  0  0  0  0  0  0  0  0  0
    3.4667  -11.5542    0.0000 C   0  0  0  0  0  0  0  0  0  0  0  0
    5.3000  -10.4917    0.0000 O   0  0  0  0  0  0  0  0  0  0  0  0
    3.1417   -9.3000    0.0000 C   0  0  0  0  0  0  0  0  0  0  0  0
    3.8167   -9.5292    0.0000 C   0  0  0  0  0  0  0  0  0  0  0  0
    6.2708  -12.3417    0.0000 C   0  0  0  0  0  0  0  0  0  0  0  0
    6.8833  -11.2917    0.0000 C   0  0  0  0  0  0  0  0  0  0  0  0
   -1.0792   -8.2542    0.0000 C   0  0  0  0  0  0  0  0  0  0  0  0
    4.9500   -9.8792    0.0000 C   0  0  0  0  0  0  0  0  0  0  0  0
    1.3000   -8.9667    0.0000 C   0  0  0  0  0  0  0  0  0  0  0  0
    3.8167  -11.6417    0.0000 C   0  0  0  0  0  0  0  0  0  0  0  0
    5.0375   -8.1208    0.0000 C   0  0  0  0  0  0  0  0  0  0  0  0
   -1.6875   -9.3250    0.0000 C   0  0  0  0  0  0  0  0  0  0  0  0
   -2.3042   -8.2583    0.0000 C   0  0  0  0  0  0  0  0  0  0  0  0
    6.9583  -13.7333    0.0000 C   0  0  0  0  0  0  0  0  0  0  0  0
    8.0208  -14.3458    0.0000 C   0  0  0  0  0  0  0  0  0  0  0  0
    7.6667  -11.2792    0.0000 C   0  0  0  0  0  0  0  0  0  0  0  0
    4.5917  -10.4917    0.0000 C   0  0  0  0  0  0  0  0  0  0  0  0
    2.5250   -8.9500    0.0000 C   0  0  0  0  0  0  0  0  0  0  0  0
    1.9167   -9.3125    0.0000 C   0  0  0  0  0  0  0  0  0  0  0  0
   -2.3042   -8.9708    0.0000 C   0  0  0  0  0  0  0  0  0  0  0  0
    3.8125  -12.3500    0.0000 C   0  0  0  0  0  0  0  0  0  0  0  0
    3.7290   -9.2379    0.0000 H   0  0  0  0  0  0  0  0  0  0  0  0
  2  1  1  0
  3  4  1  0
  4  1  1  0
  5  2  1  0
  6 18  1  1
  7  2  1  0
  8 16  1  0
  9 10  1  0
 10  8  1  0
 11  6  1  0
 12 20  1  0
 13  9  1  0
 14 25  2  0
 15  7  1  0
 16 21  1  0
 17 23  2  0
 12 18  1  6
 19 11  1  0
 20 27  1  0
 21  1  1  0
 22  6  1  0
 23 24  1  0
 24 46  1  0
 25 24  1  0
 26 15  1  0
 27 26  1  0
 28 34  1  0
 29 17  1  0
 30  3  2  0
 19 31  1  1
 32  8  2  0
 33  9  2  0
 34 22  1  0
 35 15  2  0
 36 44  2  0
 11 37  1  6
  1 38  1  6
 20 39  1  0
 40  5  1  0
  7 41  1  6
 10 42  1  1
 13 43  1  1
 44 29  1  0
 20 45  1  1
 46 56  1  0
 21 47  1  1
 26 48  1  6
 49 29  2  0
 50 57  2  0
 51 31  1  0
 52 31  1  0
 34 53  1  1
 54 39  1  0
 55 40  1  0
 56 55  1  0
 57 49  1  0
 58 47  1  0
  3  5  1  0
 12 13  1  0
 14 17  1  0
 28 19  1  0
 50 36  1  0
  2 59  1  1
M  END
> <chembl_id>
CHEMBL1136

> <chembl_pref_name>
TELITHROMYCIN
