
     RDKit          2D

 22 23  0  0  0  0  0  0  0  0999 V2000
    1.5616   -5.2741    0.0000 C   0  0  0  0  0  0  0  0  0  0  0  0
    0.8471   -5.6866    0.0000 C   0  0  0  0  0  0  0  0  0  0  0  0
    0.8471   -6.5116    0.0000 C   0  0  0  0  0  0  0  0  0  0  0  0
    1.5616   -6.9241    0.0000 C   0  0  0  0  0  0  0  0  0  0  0  0
    2.2761   -6.5116    0.0000 C   0  0  0  0  0  0  0  0  0  0  0  0
    2.2761   -5.6866    0.0000 C   0  0  0  0  0  0  0  0  0  0  0  0
    0.1327   -6.9241    0.0000 F   0  0  0  0  0  0  0  0  0  0  0  0
    2.9905   -6.9241    0.0000 C   0  0  0  0  0  0  0  0  0  0  0  0
    3.7050   -6.5116    0.0000 O   0  0  0  0  0  0  0  0  0  0  0  0
    4.4195   -6.9241    0.0000 C   0  0  0  0  0  0  0  0  0  0  0  0
    5.1340   -6.5116    0.0000 C   0  0  0  0  0  0  0  0  0  0  0  0
    4.4195   -7.7491    0.0000 C   0  0  0  0  0  0  0  0  0  0  0  0
    5.1340   -8.1616    0.0000 C   0  0  0  0  0  0  0  0  0  0  0  0
    5.8484   -7.7491    0.0000 C   0  0  0  0  0  0  0  0  0  0  0  0
    5.8484   -6.9241    0.0000 C   0  0  0  0  0  0  0  0  0  0  0  0
    6.5629   -8.1616    0.0000 C   0  0  0  0  0  0  0  0  0  0  0  0
    7.2774   -7.7491    0.0000 N   0  0  0  0  0  0  0  0  0  0  0  0
    7.9918   -8.1616    0.0000 C   0  0  0  0  0  0  0  0  0  0  0  0
    8.7063   -7.7491    0.0000 C   0  0  0  0  0  0  0  0  0  0  0  0
    7.9918   -8.9866    0.0000 C   0  0  0  0  0  0  0  0  0  0  0  0
    9.4208   -8.1616    0.0000 N   0  0  0  0  0  0  0  0  0  0  0  0
    8.7063   -6.9241    0.0000 O   0  0  0  0  0  0  0  0  0  0  0  0
  1  2  2  0
  2  3  1  0
  3  4  2  0
  4  5  1  0
  5  6  2  0
  1  6  1  0
  3  7  1  0
  5  8  1  0
  8  9  1  0
  9 10  1  0
 11 10  2  0
 10 12  1  0
 12 13  2  0
 13 14  1  0
 14 15  2  0
 11 15  1  0
 14 16  1  0
 16 17  1  0
 17 18  1  0
 18 19  1  0
 18 20  1  6
 19 21  1  0
 19 22  2  0
M  END
> <chembl_id>
CHEMBL396778

> <chembl_pref_name>
SAFINAMIDE
