
     RDKit          2D

 26 29  0  0  1  0  0  0  0  0999 V2000
    5.6917   -4.4417    0.0000 C   0  0  0  0  0  0  0  0  0  0  0  0
    3.8667   -5.5167    0.0000 C   0  0  0  0  0  0  0  0  0  0  0  0
    3.8667   -6.2417    0.0000 C   0  0  0  0  0  0  0  0  0  0  0  0
    5.6917   -5.1625    0.0000 C   0  0  0  0  0  0  0  0  0  0  0  0
    5.0917   -5.5167    0.0000 C   0  0  0  0  0  0  0  0  0  0  0  0
    4.4792   -5.1625    0.0000 C   0  0  0  0  0  0  0  0  0  0  0  0
    5.0917   -6.2417    0.0000 C   0  0  0  0  0  0  0  0  0  0  0  0
    6.3667   -4.2375    0.0000 C   0  0  0  0  0  0  0  0  0  0  0  0
    4.4792   -6.6000    0.0000 C   0  0  0  0  0  0  0  0  0  0  0  0
    3.2667   -6.6000    0.0000 C   0  0  0  0  0  0  0  0  0  0  0  0
    5.0917   -4.1000    0.0000 C   0  0  0  0  0  0  0  0  0  0  0  0
    4.4792   -4.4417    0.0000 C   0  0  0  0  0  0  0  0  0  0  0  0
    6.3667   -5.4042    0.0000 C   0  0  0  0  0  0  0  0  0  0  0  0
    3.2667   -5.1625    0.0000 C   0  0  0  0  0  0  0  0  0  0  0  0
    6.7875   -4.8042    0.0000 C   0  0  0  0  0  0  0  0  0  0  0  0
    6.3667   -3.5250    0.0000 C   0  0  0  0  0  0  0  0  0  0  0  0
    2.6250   -6.2417    0.0000 C   0  0  0  0  0  0  0  0  0  0  0  0
    5.7542   -3.1750    0.0000 O   0  0  0  0  0  0  0  0  0  0  0  0
    2.0542   -6.6000    0.0000 O   0  0  0  0  0  0  0  0  0  0  0  0
    2.6417   -5.5167    0.0000 C   0  0  0  0  0  0  0  0  0  0  0  0
    5.6917   -3.7417    0.0000 C   0  0  0  0  0  0  0  0  0  0  0  0
    3.8667   -4.8292    0.0000 C   0  0  0  0  0  0  0  0  0  0  0  0
    6.9542   -3.1792    0.0000 C   0  0  0  0  0  0  0  0  0  0  0  0
    4.4792   -5.9417    0.0000 H   0  0  0  0  0  0  0  0  0  0  0  0
    5.0542   -4.8875    0.0000 H   0  0  0  0  0  0  0  0  0  0  0  0
    5.6875   -5.8792    0.0000 H   0  0  0  0  0  0  0  0  0  0  0  0
  2  6  1  0
  3  2  1  0
  4  1  1  0
  5  4  1  0
  6 12  1  0
  7  5  1  0
  8  1  1  0
  9  7  2  0
 10  3  2  0
 11  1  1  0
 12 11  1  0
 13  4  1  0
 14  2  1  0
 15  8  1  0
  8 16  1  1
 17 20  1  0
 18 16  2  0
 19 17  2  0
 20 14  1  0
  1 21  1  1
  2 22  1  6
 23 16  1  0
  6 24  1  1
  5 25  1  1
  4 26  1  6
 15 13  1  0
  5  6  1  0
  9  3  1  0
 17 10  1  0
M  END
> <chembl_id>
CHEMBL1200853

> <chembl_pref_name>
DYDROGESTERONE
