
     RDKit          2D

 28 30  0  0  1  0  0  0  0  0999 V2000
    4.2792   -0.9792    0.0000 N   0  0  0  0  0  0  0  0  0  0  0  0
    3.4292   -0.9667    0.0000 C   0  0  0  0  0  0  0  0  0  0  0  0
    3.4292   -0.1542    0.0000 C   0  0  0  0  0  0  0  0  0  0  0  0
    4.2792   -0.1542    0.0000 C   0  0  0  0  0  0  0  0  0  0  0  0
    4.9917   -1.3917    0.0000 C   0  0  0  0  0  0  0  0  0  0  0  0
    2.8542    0.4333    0.0000 N   0  0  0  0  0  0  0  0  0  0  0  0
    4.9917    0.2583    0.0000 S   0  0  0  0  0  0  0  0  0  0  0  0
    2.1417    0.0208    0.0000 C   0  0  0  0  0  0  0  0  0  0  0  0
    5.7042   -0.9792    0.0000 C   0  0  0  0  0  0  0  0  0  0  0  0
    4.9917   -2.2167    0.0000 C   0  0  0  0  0  0  0  0  0  0  0  0
    1.4167    0.4333    0.0000 C   0  0  0  0  0  0  0  0  0  0  0  0
    5.7042   -0.1542    0.0000 C   0  0  0  0  0  0  0  0  0  0  0  0
    2.8417   -1.5417    0.0000 O   0  0  0  0  0  0  0  0  0  0  0  0
    6.4167   -1.3917    0.0000 C   0  0  0  0  0  0  0  0  0  0  0  0
    2.1417   -0.8042    0.0000 O   0  0  0  0  0  0  0  0  0  0  0  0
    0.7042    0.0083    0.0000 C   0  0  0  0  0  0  0  0  0  0  0  0
    4.2792   -2.6292    0.0000 O   0  0  0  0  0  0  0  0  0  0  0  0
    7.1292   -0.9792    0.0000 C   0  0  0  0  0  0  0  0  0  0  0  0
    0.7042   -0.8167    0.0000 C   0  0  0  0  0  0  0  0  0  0  0  0
   -0.0083    0.4208    0.0000 C   0  0  0  0  0  0  0  0  0  0  0  0
    1.4167    1.2583    0.0000 N   0  0  0  0  0  0  0  0  0  0  0  0
    5.7042   -2.6292    0.0000 O   0  0  0  0  0  0  0  0  0  0  0  0
   -0.7208   -0.8167    0.0000 C   0  0  0  0  0  0  0  0  0  0  0  0
   -0.7208    0.0083    0.0000 C   0  0  0  0  0  0  0  0  0  0  0  0
   -0.0083   -1.2292    0.0000 C   0  0  0  0  0  0  0  0  0  0  0  0
   -1.4333   -1.2292    0.0000 O   0  0  0  0  0  0  0  0  0  0  0  0
    7.8500   -1.3875    0.0000 C   0  0  0  0  0  0  0  0  0  0  0  0
    4.5292    0.6333    0.0000 H   0  0  0  0  0  0  0  0  0  0  0  0
  2  1  1  0
  3  4  1  0
  4  1  1  0
  5  1  1  0
  3  6  1  1
  7  4  1  0
  8  6  1  0
  9  5  2  0
 10  5  1  0
 11  8  1  0
 12  9  1  0
 13  2  2  0
 14  9  1  0
 15  8  2  0
 16 11  1  0
 17 10  2  0
 18 14  2  0
 19 16  1  0
 20 16  2  0
 11 21  1  1
 22 10  1  0
 23 24  2  0
 24 20  1  0
 25 19  2  0
 26 23  1  0
 27 18  1  0
  4 28  1  6
  3  2  1  0
  7 12  1  0
 23 25  1  0
M  END
> <chembl_id>
CHEMBL276568

> <chembl_pref_name>
CEFPROZIL ANHYDROUS, (E)-
