
     RDKit          2D

 39 41  0  0  0  0  0  0  0  0999 V2000
   11.1829   -5.9455    0.0000 O   0  0  0  0  0  0  0  0  0  0  0  0
   11.9785   -5.5402    0.0000 C   0  0  0  0  0  0  0  0  0  0  0  0
   11.1966   -4.3114    0.0000 C   0  0  0  0  0  0  0  0  0  0  0  0
   11.9203   -4.7166    0.0000 C   0  0  0  0  0  0  0  0  0  0  0  0
   11.1975   -3.4771    0.0000 C   0  0  0  0  0  0  0  0  0  0  0  0
   11.9168   -3.0645    0.0000 C   0  0  0  0  0  0  0  0  0  0  0  0
   12.6316   -3.4765    0.0000 C   0  0  0  0  0  0  0  0  0  0  0  0
   13.3467   -3.0701    0.0000 C   0  0  0  0  0  0  0  0  0  0  0  0
   13.5775   -2.2870    0.0000 C   0  0  0  0  0  0  0  0  0  0  0  0
   14.3937   -2.2509    0.0000 S   0  0  0  0  0  0  0  0  0  0  0  0
   13.9978   -3.5264    0.0000 N   0  0  0  0  0  0  0  0  0  0  0  0
   12.6204   -4.3209    0.0000 C   0  0  0  0  0  0  0  0  0  0  0  0
    7.6453   -5.5362    0.0000 C   0  0  0  0  0  0  0  0  0  0  0  0
    8.3482   -5.9506    0.0000 C   0  0  0  0  0  0  0  0  0  0  0  0
    9.0756   -5.5537    0.0000 C   0  0  0  0  0  0  0  0  0  0  0  0
    9.7844   -5.9613    0.0000 C   0  0  0  0  0  0  0  0  0  0  0  0
   10.4977   -5.5361    0.0000 C   0  0  0  0  0  0  0  0  0  0  0  0
   16.8293   -4.2968    0.0000 C   0  0  0  0  0  0  0  0  0  0  0  0
   17.5378   -4.6840    0.0000 C   0  0  0  0  0  0  0  0  0  0  0  0
   16.8183   -3.4606    0.0000 C   0  0  0  0  0  0  0  0  0  0  0  0
   16.1912   -3.0772    0.0000 C   0  0  0  0  0  0  0  0  0  0  0  0
   15.3833   -3.4384    0.0000 N   0  0  0  0  0  0  0  0  0  0  0  0
   16.2270   -2.2364    0.0000 O   0  0  0  0  0  0  0  0  0  0  0  0
   17.5343   -3.0426    0.0000 C   0  0  0  0  0  0  0  0  0  0  0  0
   18.2529   -3.4683    0.0000 C   0  0  0  0  0  0  0  0  0  0  0  0
   18.2535   -4.2772    0.0000 C   0  0  0  0  0  0  0  0  0  0  0  0
   19.6688   -4.2866    0.0000 C   0  0  0  0  0  0  0  0  0  0  0  0
   18.9547   -4.6971    0.0000 C   0  0  0  0  0  0  0  0  0  0  0  0
   14.6763   -3.0468    0.0000 C   0  0  0  0  0  0  0  0  0  0  0  0
   13.3302   -4.7414    0.0000 O   0  0  0  0  0  0  0  0  0  0  0  0
   14.0447   -4.3289    0.0000 C   0  0  0  0  0  0  0  0  0  0  0  0
    6.9308   -5.9487    0.0000 C   0  0  0  0  0  0  0  0  0  0  0  0
   20.3825   -4.7005    0.0000 C   0  0  0  0  0  0  0  0  0  0  0  0
   19.6703   -3.4616    0.0000 C   0  0  0  0  0  0  0  0  0  0  0  0
   21.0977   -4.2893    0.0000 O   0  0  0  0  0  0  0  0  0  0  0  0
   20.3825   -5.5255    0.0000 O   0  0  0  0  0  0  0  0  0  0  0  0
   18.9695   -3.0596    0.0000 Cl  0  0  0  0  0  0  0  0  0  0  0  0
   17.5447   -5.5090    0.0000 Cl  0  0  0  0  0  0  0  0  0  0  0  0
   12.6967   -5.9462    0.0000 C   0  0  0  0  0  0  0  0  0  0  0  0
  1  2  1  0
  2  4  1  0
  3  4  1  0
  3  5  2  0
  4 12  2  0
  5  6  1  0
  6  7  2  0
  7  8  1  0
  8  9  2  0
  8 11  1  0
  9 10  1  0
 11 29  2  0
 12  7  1  0
 13 14  1  0
 14 15  1  0
 16 17  1  0
 16 15  1  0
 17  1  1  0
 18 19  1  0
 19 26  2  0
 20 18  2  0
 20 24  1  0
 21 20  1  0
 21 22  1  0
 23 21  2  0
 24 25  2  0
 26 25  1  0
 26 28  1  0
 28 27  2  0
 29 10  1  0
 29 22  1  0
 12 30  1  0
 30 31  1  0
 13 32  1  0
 27 33  1  0
 27 34  1  0
 33 35  1  0
 33 36  2  0
 25 37  1  0
 19 38  1  0
  2 39  1  6
M  END
> <chembl_id>
CHEMBL2107831

> <chembl_pref_name>
LUSUTROMBOPAG
