
     RDKit          2D

 20 23  0  0  0  0  0  0  0  0999 V2000
    5.3542   -4.1292    0.0000 C   0  0  0  0  0  0  0  0  0  0  0  0
    5.3542   -3.4542    0.0000 C   0  0  0  0  0  0  0  0  0  0  0  0
    4.1750   -4.1292    0.0000 C   0  0  0  0  0  0  0  0  0  0  0  0
    4.7667   -4.4667    0.0000 C   0  0  0  0  0  0  0  0  0  0  0  0
    4.1750   -3.4542    0.0000 C   0  0  0  0  0  0  0  0  0  0  0  0
    5.9542   -4.4667    0.0000 C   0  0  0  0  0  0  0  0  0  0  0  0
    5.9542   -3.1167    0.0000 C   0  0  0  0  0  0  0  0  0  0  0  0
    6.5417   -4.1292    0.0000 N   0  0  0  0  0  0  0  0  0  0  0  0
    4.7667   -5.1750    0.0000 C   0  0  0  0  0  0  0  0  0  0  0  0
    6.5417   -3.4542    0.0000 C   0  0  0  0  0  0  0  0  0  0  0  0
    3.5792   -4.4667    0.0000 C   0  0  0  0  0  0  0  0  0  0  0  0
    3.5792   -3.1167    0.0000 C   0  0  0  0  0  0  0  0  0  0  0  0
    7.1542   -4.4792    0.0000 C   0  0  0  0  0  0  0  0  0  0  0  0
    5.3792   -5.5125    0.0000 C   0  0  0  0  0  0  0  0  0  0  0  0
    4.1542   -5.5167    0.0000 C   0  0  0  0  0  0  0  0  0  0  0  0
    2.9917   -4.1292    0.0000 C   0  0  0  0  0  0  0  0  0  0  0  0
    2.9917   -3.4542    0.0000 C   0  0  0  0  0  0  0  0  0  0  0  0
    5.3792   -6.2167    0.0000 C   0  0  0  0  0  0  0  0  0  0  0  0
    4.1625   -6.2167    0.0000 C   0  0  0  0  0  0  0  0  0  0  0  0
    4.7792   -6.5667    0.0000 C   0  0  0  0  0  0  0  0  0  0  0  0
  2  1  2  0
  3  4  1  0
  4  1  1  0
  5  2  1  0
  6  1  1  0
  7  2  1  0
  8  6  1  0
  9  4  1  0
 10  8  1  0
 11  3  1  0
 12  5  1  0
 13  8  1  0
 14  9  1  0
 15  9  2  0
 16 11  2  0
 17 12  2  0
 18 14  2  0
 19 15  1  0
 20 19  2  0
  3  5  2  0
  7 10  1  0
 16 17  1  0
 18 20  1  0
M  END
> <chembl_id>
CHEMBL278398

> <chembl_pref_name>
PHENINDAMINE
