
     RDKit          2D

  3  2  0  0  0  0  0  0  0  0999 V2000
    4.9795   -2.1214    0.0000 Ra  0  0  0  0  0  2  0  0  0  0  0  0
    5.8045   -2.1214    0.0000 Cl  0  0  0  0  0  0  0  0  0  0  0  0
    4.1545   -2.1214    0.0000 Cl  0  0  0  0  0  0  0  0  0  0  0  0
  1  2  1  0
  1  3  1  0
M  END
> <chembl_id>
CHEMBL2111187

> <chembl_pref_name>
RADIUM DICHLORIDE
