
     RDKit          2D

 35 39  0  0  0  0  0  0  0  0999 V2000
    5.7012    0.8054    0.0000 C   0  0  0  0  0  0  0  0  0  0  0  0
    4.9867    0.3928    0.0000 C   0  0  0  0  0  0  0  0  0  0  0  0
    4.9867   -0.4322    0.0000 C   0  0  0  0  0  0  0  0  0  0  0  0
    5.7012   -0.8447    0.0000 N   0  0  0  0  0  0  0  0  0  0  0  0
    6.4156   -0.4322    0.0000 C   0  0  0  0  0  0  0  0  0  0  0  0
    6.4156    0.3928    0.0000 C   0  0  0  0  0  0  0  0  0  0  0  0
    6.4156    2.0429    0.0000 C   0  0  0  0  0  0  0  0  0  0  0  0
    5.7012    1.6304    0.0000 N   0  0  0  0  0  0  0  0  0  0  0  0
    7.1301    0.8054    0.0000 C   0  0  0  0  0  0  0  0  0  0  0  0
    7.1301    1.6304    0.0000 N   0  0  0  0  0  0  0  0  0  0  0  0
    4.2021   -0.6871    0.0000 N   0  0  0  0  0  0  0  0  0  0  0  0
    3.7172   -0.0197    0.0000 C   0  0  0  0  0  0  0  0  0  0  0  0
    4.2021    0.6478    0.0000 C   0  0  0  0  0  0  0  0  0  0  0  0
    4.9867    2.0429    0.0000 C   0  0  0  0  0  0  0  0  0  0  0  0
    4.2722    1.6304    0.0000 C   0  0  0  0  0  0  0  0  0  0  0  0
    6.4156    2.8679    0.0000 O   0  0  0  0  0  0  0  0  0  0  0  0
    7.8446    2.0429    0.0000 C   0  0  0  0  0  0  0  0  0  0  0  0
    8.5591    3.2804    0.0000 C   0  0  0  0  0  0  0  0  0  0  0  0
    7.8446    2.8679    0.0000 C   0  0  0  0  0  0  0  0  0  0  0  0
    8.5591    1.6304    0.0000 C   0  0  0  0  0  0  0  0  0  0  0  0
    9.2735    2.0429    0.0000 C   0  0  0  0  0  0  0  0  0  0  0  0
    9.2735    2.8679    0.0000 C   0  0  0  0  0  0  0  0  0  0  0  0
    7.1301    3.2804    0.0000 F   0  0  0  0  0  0  0  0  0  0  0  0
    8.5591    4.1054    0.0000 O   0  0  0  0  0  0  0  0  0  0  0  0
    9.9880    1.6304    0.0000 O   0  0  0  0  0  0  0  0  0  0  0  0
    8.5591    0.8054    0.0000 F   0  0  0  0  0  0  0  0  0  0  0  0
    2.8922   -0.0197    0.0000 C   0  0  0  0  0  0  0  0  0  0  0  0
    2.4797    0.6948    0.0000 N   0  0  0  0  0  0  0  0  0  0  0  0
    2.8922    1.4093    0.0000 C   0  0  0  0  0  0  0  0  0  0  0  0
    2.4796    2.1237    0.0000 C   0  0  0  0  0  0  0  0  0  0  0  0
    1.6546    2.1237    0.0000 O   0  0  0  0  0  0  0  0  0  0  0  0
    1.2422    1.4093    0.0000 C   0  0  0  0  0  0  0  0  0  0  0  0
    1.6547    0.6948    0.0000 C   0  0  0  0  0  0  0  0  0  0  0  0
    9.2735    4.5179    0.0000 C   0  0  0  0  0  0  0  0  0  0  0  0
   10.7025    2.0429    0.0000 C   0  0  0  0  0  0  0  0  0  0  0  0
  1  2  2  0
  2  3  1  0
  3  4  2  0
  4  5  1  0
  5  6  2  0
  1  6  1  0
  7  8  1  0
  9 10  1  0
  7 10  1  0
  8  1  1  0
  6  9  1  0
 11 12  1  0
 12 13  2  0
  2 13  1  0
  3 11  1  0
  8 14  1  0
 14 15  1  0
  7 16  2  0
 10 17  1  0
 18 19  1  0
 20 21  2  0
 21 22  1  0
 18 22  2  0
 19 17  2  0
 17 20  1  0
 19 23  1  0
 18 24  1  0
 21 25  1  0
 20 26  1  0
 12 27  1  0
 27 28  1  0
 29 30  1  0
 30 31  1  0
 31 32  1  0
 32 33  1  0
 28 29  1  0
 28 33  1  0
 24 34  1  0
 25 35  1  0
M  END
> <chembl_id>
CHEMBL4297522

> <chembl_pref_name>
PEMIGATINIB
