
     RDKit          2D

138148  0  0  0  0  0  0  0  0999 V2000
   10.6346   -1.7184    0.0000 P   0  0  0  0  0  0  0  0  0  0  0  0
   11.0525   -0.9772    0.0000 O   0  0  0  0  0  0  0  0  0  0  0  0
   11.3659   -2.1413    0.0000 O   0  0  0  0  0  0  0  0  0  0  0  0
    9.9133   -2.1413    0.0000 O   0  0  0  0  0  0  0  0  0  0  0  0
   10.2168   -0.9772    0.0000 O   0  0  0  0  0  0  0  0  0  0  0  0
   19.1988   -1.0696    0.0000 C   0  0  0  0  0  0  0  0  0  0  0  0
   27.1928   -1.0099    0.0000 C   0  0  0  0  0  0  0  0  0  0  0  0
   19.9300   -1.6417    0.0000 N   0  0  0  0  0  0  0  0  0  0  0  0
   20.4374    4.6710    0.0000 C   0  0  0  0  0  0  0  0  0  0  0  0
   20.8702    5.4222    0.0000 C   0  0  0  0  0  0  0  0  0  0  0  0
   18.4675   -2.5769    0.0000 N   0  0  0  0  0  0  0  0  0  0  0  0
   18.4675   -1.5621    0.0000 C   0  0  0  0  0  0  0  0  0  0  0  0
   21.9149   -1.0696    0.0000 N   0  0  0  0  0  0  0  0  0  0  0  0
   23.8997   -1.3830    0.0000 N   0  0  0  0  0  0  0  0  0  0  0  0
   26.5063   -1.3830    0.0000 C   0  0  0  0  0  0  0  0  0  0  0  0
   19.8255   -4.2334    0.0000 C   0  0  0  0  0  0  0  0  0  0  0  0
   20.5867   -1.2089    0.0000 C   0  0  0  0  0  0  0  0  0  0  0  0
   19.1092   -3.8006    0.0000 C   0  0  0  0  0  0  0  0  0  0  0  0
   22.5566   -1.4477    0.0000 C   0  0  0  0  0  0  0  0  0  0  0  0
   20.5518   -3.8006    0.0000 C   0  0  0  0  0  0  0  0  0  0  0  0
   23.2132    1.7361    0.0000 C   0  0  0  0  0  0  0  0  0  0  0  0
   19.0943   -2.9848    0.0000 C   0  0  0  0  0  0  0  0  0  0  0  0
   19.6713    4.6710    0.0000 C   0  0  0  0  0  0  0  0  0  0  0  0
   25.8547   -0.9403    0.0000 N   0  0  0  0  0  0  0  0  0  0  0  0
   23.2132   -1.0696    0.0000 C   0  0  0  0  0  0  0  0  0  0  0  0
   27.8246   -1.4128    0.0000 N   0  0  0  0  0  0  0  0  0  0  0  0
   23.8997    1.3182    0.0000 C   0  0  0  0  0  0  0  0  0  0  0  0
   22.5118    1.3182    0.0000 C   0  0  0  0  0  0  0  0  0  0  0  0
   24.5414   -0.9203    0.0000 C   0  0  0  0  0  0  0  0  0  0  0  0
   21.2582   -1.5173    0.0000 C   0  0  0  0  0  0  0  0  0  0  0  0
   20.4921    6.0141    0.0000 O   0  0  0  0  0  0  0  0  0  0  0  0
   19.1988   -0.0398    0.0000 C   0  0  0  0  0  0  0  0  0  0  0  0
   18.0795    1.9301    0.0000 C   0  0  0  0  0  0  0  0  0  0  0  0
   23.2132    2.4822    0.0000 O   0  0  0  0  0  0  0  0  0  0  0  0
   16.2886   -0.8606    0.0000 C   0  0  0  0  0  0  0  0  0  0  0  0
   23.2132    0.1542    0.0000 C   0  0  0  0  0  0  0  0  0  0  0  0
   19.3131    5.3327    0.0000 C   0  0  0  0  0  0  0  0  0  0  0  0
   24.5066    1.7958    0.0000 O   0  0  0  0  0  0  0  0  0  0  0  0
   21.8552    1.6863    0.0000 O   0  0  0  0  0  0  0  0  0  0  0  0
   25.1930   -1.3134    0.0000 C   0  0  0  0  0  0  0  0  0  0  0  0
   19.8255   -5.0393    0.0000 C   0  0  0  0  0  0  0  0  0  0  0  0
   19.3629    2.6763    0.0000 C   0  0  0  0  0  0  0  0  0  0  0  0
   28.5260   -1.0696    0.0000 C   0  0  0  0  0  0  0  0  0  0  0  0
   17.5572   -0.1294    0.0000 C   0  0  0  0  0  0  0  0  0  0  0  0
   19.7062    6.0141    0.0000 C   0  0  0  0  0  0  0  0  0  0  0  0
   27.1928    0.1939    0.0000 C   0  0  0  0  0  0  0  0  0  0  0  0
   18.9301    1.9301    0.0000 C   0  0  0  0  0  0  0  0  0  0  0  0
   17.1393   -0.8606    0.0000 C   0  0  0  0  0  0  0  0  0  0  0  0
   20.5518   -3.0594    0.0000 C   0  0  0  0  0  0  0  0  0  0  0  0
   18.9301    3.4075    0.0000 O   0  0  0  0  0  0  0  0  0  0  0  0
   17.1393    0.6019    0.0000 O   0  0  0  0  0  0  0  0  0  0  0  0
   21.2582   -2.6366    0.0000 C   0  0  0  0  0  0  0  0  0  0  0  0
   17.6417    2.6763    0.0000 C   0  0  0  0  0  0  0  0  0  0  0  0
   15.8658   -0.1294    0.0000 C   0  0  0  0  0  0  0  0  0  0  0  0
   19.9101    0.4377    0.0000 C   0  0  0  0  0  0  0  0  0  0  0  0
   25.2279   -2.0596    0.0000 C   0  0  0  0  0  0  0  0  0  0  0  0
   26.5412    0.5869    0.0000 C   0  0  0  0  0  0  0  0  0  0  0  0
   20.8254    3.9895    0.0000 O   0  0  0  0  0  0  0  0  0  0  0  0
   19.6315   -2.4774    0.0000 C   0  0  0  0  0  0  0  0  0  0  0  0
   22.5118    0.5571    0.0000 C   0  0  0  0  0  0  0  0  0  0  0  0
   23.8997    0.5571    0.0000 C   0  0  0  0  0  0  0  0  0  0  0  0
   25.1632    1.3630    0.0000 C   0  0  0  0  0  0  0  0  0  0  0  0
   21.2433    1.2585    0.0000 C   0  0  0  0  0  0  0  0  0  0  0  0
   18.0795    3.4075    0.0000 C   0  0  0  0  0  0  0  0  0  0  0  0
   16.2886    0.6019    0.0000 C   0  0  0  0  0  0  0  0  0  0  0  0
   18.3929    0.3929    0.0000 O   0  0  0  0  0  0  0  0  0  0  0  0
   19.1092   -5.4571    0.0000 C   0  0  0  0  0  0  0  0  0  0  0  0
   17.4378    1.3630    0.0000 N   0  0  0  0  0  0  0  0  0  0  0  0
   21.2433    0.4974    0.0000 C   0  0  0  0  0  0  0  0  0  0  0  0
   25.8696    1.7510    0.0000 C   0  0  0  0  0  0  0  0  0  0  0  0
   24.4370   -2.4873    0.0000 C   0  0  0  0  0  0  0  0  0  0  0  0
   20.5867    0.1094    0.0000 C   0  0  0  0  0  0  0  0  0  0  0  0
   26.5412    1.3580    0.0000 C   0  0  0  0  0  0  0  0  0  0  0  0
   21.2234   -4.2334    0.0000 C   0  0  0  0  0  0  0  0  0  0  0  0
   18.4078   -4.2334    0.0000 C   0  0  0  0  0  0  0  0  0  0  0  0
   29.1777   -1.4477    0.0000 C   0  0  0  0  0  0  0  0  0  0  0  0
   17.8407   -1.1890    0.0000 O   0  0  0  0  0  0  0  0  0  0  0  0
   26.5063   -2.0745    0.0000 O   0  0  0  0  0  0  0  0  0  0  0  0
   20.5867   -0.4876    0.0000 O   0  0  0  0  0  0  0  0  0  0  0  0
   22.5417   -2.2635    0.0000 O   0  0  0  0  0  0  0  0  0  0  0  0
   18.4078   -5.0393    0.0000 C   0  0  0  0  0  0  0  0  0  0  0  0
   24.5414   -0.2339    0.0000 O   0  0  0  0  0  0  0  0  0  0  0  0
   14.3784    2.6414    0.0000 C   0  0  0  0  0  0  0  0  0  0  0  0
   13.6472    3.0593    0.0000 C   0  0  0  0  0  0  0  0  0  0  0  0
   28.5260   -0.2936    0.0000 O   0  0  0  0  0  0  0  0  0  0  0  0
   19.9101    1.2087    0.0000 C   0  0  0  0  0  0  0  0  0  0  0  0
   21.9596   -3.0097    0.0000 C   0  0  0  0  0  0  0  0  0  0  0  0
   25.8547    0.1939    0.0000 C   0  0  0  0  0  0  0  0  0  0  0  0
   19.3928   -1.7462    0.0000 O   0  0  0  0  0  0  0  0  0  0  0  0
   25.1632    0.6317    0.0000 C   0  0  0  0  0  0  0  0  0  0  0  0
   20.5369    1.6167    0.0000 C   0  0  0  0  0  0  0  0  0  0  0  0
   24.4469   -3.3380    0.0000 O   0  0  0  0  0  0  0  0  0  0  0  0
   29.1777   -2.0993    0.0000 C   0  0  0  0  0  0  0  0  0  0  0  0
   15.5574   -1.2785    0.0000 N   0  0  0  0  0  0  0  0  0  0  0  0
   21.9596   -3.8355    0.0000 C   0  0  0  0  0  0  0  0  0  0  0  0
   19.2137    3.9895    0.0000 O   0  0  0  0  0  0  0  0  0  0  0  0
   14.3883    1.7808    0.0000 C   0  0  0  0  0  0  0  0  0  0  0  0
   15.1196    3.0593    0.0000 C   0  0  0  0  0  0  0  0  0  0  0  0
   13.6472    3.9000    0.0000 C   0  0  0  0  0  0  0  0  0  0  0  0
   12.9258    2.6265    0.0000 C   0  0  0  0  0  0  0  0  0  0  0  0
   18.4774    5.3327    0.0000 O   0  0  0  0  0  0  0  0  0  0  0  0
   20.5518   -5.4273    0.0000 O   0  0  0  0  0  0  0  0  0  0  0  0
   29.8692   -1.1144    0.0000 N   0  0  0  0  0  0  0  0  0  0  0  0
   23.7007   -2.0695    0.0000 N   0  0  0  0  0  0  0  0  0  0  0  0
   16.5871    1.3630    0.0000 C   0  0  0  0  0  0  0  0  0  0  0  0
   15.0201   -0.1294    0.0000 O   0  0  0  0  0  0  0  0  0  0  0  0
   16.7910    2.6862    0.0000 O   0  0  0  0  0  0  0  0  0  0  0  0
   21.9695    0.0945    0.0000 Cl  0  0  0  0  0  0  0  0  0  0  0  0
   25.8696    2.4822    0.0000 Cl  0  0  0  0  0  0  0  0  0  0  0  0
   27.9390    0.6168    0.0000 O   0  0  0  0  0  0  0  0  0  0  0  0
   20.4026   -2.6515    0.0000 O   0  0  0  0  0  0  0  0  0  0  0  0
   12.1846    3.8950    0.0000 C   0  0  0  0  0  0  0  0  0  0  0  0
   15.8559    1.7907    0.0000 C   0  0  0  0  0  0  0  0  0  0  0  0
   12.9159    4.3278    0.0000 C   0  0  0  0  0  0  0  0  0  0  0  0
   12.1846    3.0443    0.0000 C   0  0  0  0  0  0  0  0  0  0  0  0
   15.1246    1.3630    0.0000 C   0  0  0  0  0  0  0  0  0  0  0  0
   15.8559    2.6414    0.0000 C   0  0  0  0  0  0  0  0  0  0  0  0
   21.2234   -5.0393    0.0000 O   0  0  0  0  0  0  0  0  0  0  0  0
   19.3131    6.7056    0.0000 C   0  0  0  0  0  0  0  0  0  0  0  0
   11.4484    4.3128    0.0000 Cl  0  0  0  0  0  0  0  0  0  0  0  0
   17.7064   -5.3974    0.0000 O   0  0  0  0  0  0  0  0  0  0  0  0
   18.2884    1.1192    0.0000 C   0  0  0  0  0  0  0  0  0  0  0  0
   16.2886   -1.7014    0.0000 C   0  0  0  0  0  0  0  0  0  0  0  0
   18.6117    6.7056    0.0000 O   0  0  0  0  0  0  0  0  0  0  0  0
   17.6467    4.1636    0.0000 C   0  0  0  0  0  0  0  0  0  0  0  0
   15.8708    1.3430    0.0000 C   0  0  0  0  0  0  0  0  0  0  0  0
   28.4365   -2.5371    0.0000 C   0  0  0  0  0  0  0  0  0  0  0  0
   30.5706   -1.5820    0.0000 C   0  0  0  0  0  0  0  0  0  0  0  0
   28.4365   -3.3878    0.0000 C   0  0  0  0  0  0  0  0  0  0  0  0
   27.6903   -2.0993    0.0000 C   0  0  0  0  0  0  0  0  0  0  0  0
   22.5566   -0.5523    0.0000 H   0  0  0  0  0  0  0  0  0  0  0  0
   18.6018   -0.6866    0.0000 H   0  0  0  0  0  0  0  0  0  0  0  0
   21.8552   -1.8456    0.0000 H   0  0  0  0  0  0  0  0  0  0  0  0
   13.9755   -4.3677    0.0000 P   0  0  0  0  0  0  0  0  0  0  0  0
   14.3933   -3.6265    0.0000 O   0  0  0  0  0  0  0  0  0  0  0  0
   14.7067   -4.7906    0.0000 O   0  0  0  0  0  0  0  0  0  0  0  0
   13.2541   -4.7906    0.0000 O   0  0  0  0  0  0  0  0  0  0  0  0
   13.5576   -3.6265    0.0000 O   0  0  0  0  0  0  0  0  0  0  0  0
  2  1  2  0
  3  1  1  0
  4  1  1  0
  5  1  1  0
  7 15  1  0
  8  6  1  0
  9 10  1  0
 10 34  1  1
 11 12  1  0
 12  6  1  0
 13 30  1  0
 14 25  1  0
 15 24  1  0
 16 18  1  0
 17  8  1  0
 18 22  1  0
 19 13  1  0
 20 49  1  0
 21 28  1  0
 22 11  1  0
 23  9  1  0
 24 40  1  0
 25 19  1  0
  7 26  1  1
 27 61  1  0
 28 39  1  0
 29 14  1  0
 30 17  1  0
 31 10  1  0
 32  6  1  0
 33 47  1  0
 34 21  1  0
 35 48  1  0
 36 25  1  0
 37 23  1  0
 38 27  1  0
 39 63  1  0
 40 29  1  0
 41 16  2  0
 42 58  1  1
 43 26  1  0
 44 66  1  1
 45 31  1  0
 46  7  1  0
 47 42  1  0
 48 44  1  0
 49 52  2  0
 50 42  1  0
 51 44  1  0
 52 30  1  0
 53 64  1  0
 54 65  1  0
 55 32  1  0
 40 56  1  1
 57 88  1  0
  9 58  1  6
 22 59  1  6
 60 36  1  0
 61 36  2  0
 62 38  1  0
 63 91  2  0
 64 50  1  0
 65 51  1  0
 32 66  1  6
 67 81  2  0
 68 33  1  0
 69 72  2  0
 70 62  2  0
 71 56  1  0
 72 55  1  0
 73 70  1  0
 74 95  1  0
 75 18  2  0
 76 43  1  0
 77 12  2  0
 78 15  2  0
 79 17  2  0
 80 19  2  0
 81 75  1  0
 82 29  2  0
 83 97  1  0
 84 83  1  0
 85 43  2  0
 86 55  2  0
 87 52  1  0
 88 90  2  0
 89 59  2  0
 90 62  1  0
 91 86  1  0
 92 71  2  0
 76 93  1  6
 35 94  1  6
 95 87  2  0
 23 96  1  1
 97116  2  0
 98117  1  0
 99 84  2  0
100 84  1  0
 37101  1  6
102 41  1  0
103 76  1  0
104 71  1  0
105 68  1  0
 54106  1  1
 53107  1  1
108 69  1  0
109 70  1  0
 46110  1  1
111 59  1  0
112114  2  0
113105  1  0
114 99  1  0
115100  2  0
116113  1  0
117113  2  0
118 74  1  0
 45119  1  1
120112  1  0
121 81  1  0
 33122  1  1
 35123  1  0
124119  1  0
 64125  1  6
 65126  1  6
127 93  1  0
128103  1  0
129127  1  0
130127  1  0
 25131  1  6
  6132  1  1
 30133  1  1
 63 69  1  0
 20 16  1  0
 54 35  1  0
 74 20  2  0
 67 41  1  0
 28 60  2  0
 21 27  2  0
 45 37  1  0
 57 73  2  0
 57 46  1  0
 33 53  1  0
 98 83  2  0
115112  1  0
135134  2  0
136134  1  0
137134  1  0
138134  1  0
M  END
> <chembl_id>
CHEMBL3989766

> <chembl_pref_name>
ORITAVANCIN DIPHOSPHATE
