
     RDKit          2D

 49 51  0  0  0  0  0  0  0  0999 V2000
   32.3304    0.1339    0.0000 O   0  0  0  0  0  0  0  0  0  0  0  0
   19.4727    3.4755    0.0000 C   0  0  0  0  0  0  0  0  0  0  0  0
   19.6689    2.6728    0.0000 C   0  0  0  0  0  0  0  0  0  0  0  0
   20.4605    2.4428    0.0000 O   0  0  0  0  0  0  0  0  0  0  0  0
   20.6567    1.6401    0.0000 N   0  0  0  0  0  0  0  0  0  0  0  0
   21.4464    1.4137    0.0000 C   0  0  0  0  0  0  0  0  0  0  0  0
   21.6425    0.6111    0.0000 C   0  0  0  0  0  0  0  0  0  0  0  0
   22.4065    0.2992    0.0000 N   0  0  0  0  0  0  0  0  0  0  0  0
   22.3469   -0.5198    0.0000 S   0  0  0  0  0  0  0  0  0  0  0  0
   21.5441   -0.7159    0.0000 C   0  0  0  0  0  0  0  0  0  0  0  0
   21.1127   -0.0150    0.0000 N   0  0  0  0  0  0  0  0  0  0  0  0
   21.2359   -1.4779    0.0000 N   0  0  0  0  0  0  0  0  0  0  0  0
   20.4198   -1.5917    0.0000 P   0  0  0  0  0  0  0  0  0  0  0  0
   20.3060   -0.7756    0.0000 O   0  0  0  0  0  0  0  0  0  0  0  0
   20.5280   -2.4062    0.0000 O   0  0  0  0  0  0  0  0  0  0  0  0
   19.6018   -1.7019    0.0000 O   0  0  0  0  0  0  0  0  0  0  0  0
   22.0441    1.9828    0.0000 C   0  0  0  0  0  0  0  0  0  0  0  0
   21.8444    2.7835    0.0000 O   0  0  0  0  0  0  0  0  0  0  0  0
   22.8322    1.7507    0.0000 N   0  0  0  0  0  0  0  0  0  0  0  0
   23.4279    2.3233    0.0000 C   0  0  0  0  0  0  0  0  0  0  0  0
   24.2693    3.1316    0.0000 N   0  0  0  0  0  0  0  0  0  0  0  0
   23.4445    3.1482    0.0000 C   0  0  0  0  0  0  0  0  0  0  0  0
   22.8738    3.7402    0.0000 O   0  0  0  0  0  0  0  0  0  0  0  0
   24.9912    3.5283    0.0000 C   0  0  0  0  0  0  0  0  0  0  0  0
   25.6965    3.1004    0.0000 C   0  0  0  0  0  0  0  0  0  0  0  0
   25.6798    2.2756    0.0000 C   0  0  0  0  0  0  0  0  0  0  0  0
   24.9581    1.8789    0.0000 S   0  0  0  0  0  0  0  0  0  0  0  0
   26.4184    3.4973    0.0000 S   0  0  0  0  0  0  0  0  0  0  0  0
   27.1237    3.0694    0.0000 C   0  0  0  0  0  0  0  0  0  0  0  0
   27.8803    3.3886    0.0000 N   0  0  0  0  0  0  0  0  0  0  0  0
   28.4189    2.7663    0.0000 C   0  0  0  0  0  0  0  0  0  0  0  0
   27.9909    2.0609    0.0000 C   0  0  0  0  0  0  0  0  0  0  0  0
   27.1912    2.2467    0.0000 S   0  0  0  0  0  0  0  0  0  0  0  0
   29.2414    2.8338    0.0000 C   0  0  0  0  0  0  0  0  0  0  0  0
   29.5905    3.5779    0.0000 C   0  0  0  0  0  0  0  0  0  0  0  0
   30.4109    3.6491    0.0000 C   0  0  0  0  0  0  0  0  0  0  0  0
   30.8808    2.9704    0.0000 N   0  0  0  0  0  0  0  0  0  0  0  0
   30.5317    2.2262    0.0000 C   0  0  0  0  0  0  0  0  0  0  0  0
   29.7092    2.1587    0.0000 C   0  0  0  0  0  0  0  0  0  0  0  0
   31.7013    3.0416    0.0000 C   0  0  0  0  0  0  0  0  0  0  0  0
   25.0098    4.3496    0.0000 C   0  0  0  0  0  0  0  0  0  0  0  0
   24.3045    4.7774    0.0000 O   0  0  0  0  0  0  0  0  0  0  0  0
   25.7317    4.7464    0.0000 O   0  0  0  0  0  0  0  0  0  0  0  0
   24.2527    2.3067    0.0000 C   0  0  0  0  0  0  0  0  0  0  0  0
   24.2527    1.4817    0.0000 H   0  0  0  0  0  0  0  0  0  0  0  0
   27.3451   -1.5395    0.0000 C   0  0  0  0  0  0  0  0  0  0  0  0
   27.7569   -0.8205    0.0000 C   0  0  0  0  0  0  0  0  0  0  0  0
   27.3451   -0.1057    0.0000 O   0  0  0  0  0  0  0  0  0  0  0  0
   28.5849   -0.8205    0.0000 O   0  0  0  0  0  0  0  0  0  0  0  0
  4  5  1  0
  5  6  2  0
  6  7  1  0
  7  8  2  0
  8  9  1  0
  9 10  1  0
 10 11  2  0
  7 11  1  0
 10 12  1  0
 12 13  1  0
 13 14  2  0
 13 15  1  0
 13 16  1  0
  6 17  1  0
 17 18  2  0
 17 19  1  0
 20 19  1  6
 20 44  1  0
 44 21  1  0
 21 22  1  0
 20 22  1  0
 22 23  2  0
 21 24  1  0
 24 25  2  0
 25 26  1  0
 26 27  1  0
 44 27  1  0
 25 28  1  0
 28 29  1  0
 29 30  2  0
 30 31  1  0
 31 32  2  0
 32 33  1  0
 29 33  1  0
 31 34  1  0
 34 35  2  0
 35 36  1  0
 36 37  2  0
 37 38  1  0
 38 39  2  0
 34 39  1  0
 37 40  1  0
 24 41  1  0
 41 42  2  0
 41 43  1  0
  2  3  1  0
  3  4  1  0
 44 45  1  1
 46 47  1  0
 47 48  2  0
 47 49  1  0
M  CHG  2  37   1  43  -1
M  END
> <chembl_id>
CHEMBL3544973

> <chembl_pref_name>
CEFTAROLINE FOSAMIL ACETATE
