
     RDKit          2D

 20 21  0  0  0  0  0  0  0  0999 V2000
    0.5167   -4.8833    0.0000 S   0  0  0  0  0  0  0  0  0  0  0  0
    1.7417   -5.5917    0.0000 N   0  0  0  0  0  0  0  0  0  0  0  0
    2.3667   -5.9542    0.0000 C   0  0  0  0  0  0  0  0  0  0  0  0
    1.1292   -4.5292    0.0000 N   0  0  0  0  0  0  0  0  0  0  0  0
    1.7500   -4.8792    0.0000 C   0  0  0  0  0  0  0  0  0  0  0  0
    2.9542   -5.6125    0.0000 N   0  0  0  0  0  0  0  0  0  0  0  0
    2.3667   -4.5167    0.0000 C   0  0  0  0  0  0  0  0  0  0  0  0
    2.9750   -4.9167    0.0000 C   0  0  0  0  0  0  0  0  0  0  0  0
   -0.0958   -4.5292    0.0000 C   0  0  0  0  0  0  0  0  0  0  0  0
    0.8667   -5.4917    0.0000 O   0  0  0  0  0  0  0  0  0  0  0  0
    0.1542   -5.4917    0.0000 O   0  0  0  0  0  0  0  0  0  0  0  0
    2.3917   -6.6750    0.0000 O   0  0  0  0  0  0  0  0  0  0  0  0
   -0.0917   -3.8250    0.0000 C   0  0  0  0  0  0  0  0  0  0  0  0
   -0.7000   -4.8875    0.0000 C   0  0  0  0  0  0  0  0  0  0  0  0
   -1.3208   -3.8250    0.0000 C   0  0  0  0  0  0  0  0  0  0  0  0
   -1.9333   -3.4750    0.0000 N   0  0  0  0  0  0  0  0  0  0  0  0
   -0.7083   -3.4708    0.0000 C   0  0  0  0  0  0  0  0  0  0  0  0
   -1.3167   -4.5375    0.0000 C   0  0  0  0  0  0  0  0  0  0  0  0
    3.5792   -6.0125    0.0000 C   0  0  0  0  0  0  0  0  0  0  0  0
    4.2125   -5.7000    0.0000 C   0  0  0  0  0  0  0  0  0  0  0  0
  2  5  2  0
  3  2  1  0
  4  1  1  0
  5  4  1  0
  6  8  1  0
  7  5  1  0
  8  7  2  0
  9  1  1  0
 10  1  2  0
 11  1  2  0
 12  3  2  0
 13  9  2  0
 14  9  1  0
 15 18  1  0
 16 15  1  0
 17 13  1  0
 18 14  2  0
 19  6  1  0
 20 19  1  0
 15 17  2  0
  6  3  1  0
M  END
> <chembl_id>
CHEMBL1201056

> <chembl_pref_name>
SULFACYTINE
