
     RDKit          2D

 30 31  0  0  0  0  0  0  0  0999 V2000
   -1.6458   -0.0917    0.0000 C   0  0  0  0  0  0  0  0  0  0  0  0
    1.6875    0.4250    0.0000 C   0  0  0  0  0  0  0  0  0  0  0  0
   -3.6833   -1.2667    0.0000 N   0  0  0  0  0  0  0  0  0  0  0  0
    3.6667    1.6625    0.0000 N   0  0  0  0  0  0  0  0  0  0  0  0
    2.3417    0.0833    0.0000 O   0  0  0  0  0  0  0  0  0  0  0  0
   -1.6500   -0.8500    0.0000 O   0  0  0  0  0  0  0  0  0  0  0  0
    1.6875    1.1958    0.0000 N   0  0  0  0  0  0  0  0  0  0  0  0
   -2.2750    0.2708    0.0000 N   0  0  0  0  0  0  0  0  0  0  0  0
    0.8792   -0.0792    0.0000 O   0  0  0  0  0  0  0  0  0  0  0  0
   -0.9583    0.3708    0.0000 O   0  0  0  0  0  0  0  0  0  0  0  0
    2.9917    1.2583    0.0000 C   0  0  0  0  0  0  0  0  0  0  0  0
   -3.0250   -0.8667    0.0000 C   0  0  0  0  0  0  0  0  0  0  0  0
   -2.3583   -1.2500    0.0000 C   0  0  0  0  0  0  0  0  0  0  0  0
    3.0042    0.4833    0.0000 C   0  0  0  0  0  0  0  0  0  0  0  0
   -3.6833   -2.0542    0.0000 C   0  0  0  0  0  0  0  0  0  0  0  0
    4.3292    1.2958    0.0000 C   0  0  0  0  0  0  0  0  0  0  0  0
   -4.3458   -0.8792    0.0000 C   0  0  0  0  0  0  0  0  0  0  0  0
    3.6792    2.4375    0.0000 C   0  0  0  0  0  0  0  0  0  0  0  0
   -3.0083   -2.4292    0.0000 C   0  0  0  0  0  0  0  0  0  0  0  0
    4.3292    0.5000    0.0000 C   0  0  0  0  0  0  0  0  0  0  0  0
   -2.2750    0.9958    0.0000 C   0  0  0  0  0  0  0  0  0  0  0  0
    1.0125    1.5583    0.0000 C   0  0  0  0  0  0  0  0  0  0  0  0
   -3.0833    0.1458    0.0000 C   0  0  0  0  0  0  0  0  0  0  0  0
    2.2792    1.8708    0.0000 C   0  0  0  0  0  0  0  0  0  0  0  0
   -2.3583   -2.0167    0.0000 C   0  0  0  0  0  0  0  0  0  0  0  0
    3.6875    0.1125    0.0000 C   0  0  0  0  0  0  0  0  0  0  0  0
    0.3000    1.1083    0.0000 C   0  0  0  0  0  0  0  0  0  0  0  0
   -1.6875    1.4125    0.0000 C   0  0  0  0  0  0  0  0  0  0  0  0
   -0.9958    1.0458    0.0000 C   0  0  0  0  0  0  0  0  0  0  0  0
   -0.3333    1.4833    0.0000 C   0  0  0  0  0  0  0  0  0  0  0  0
  2  7  1  0
  3 12  1  0
  4 11  2  0
  5  2  1  0
  6  1  1  0
  7 22  1  0
  8  1  1  0
  9  2  2  0
 10  1  2  0
 11 14  1  0
 12 13  2  0
 13  6  1  0
 14  5  1  0
 15 19  1  0
 16 20  2  0
 17  3  1  0
 18  4  1  0
 19 25  2  0
 20 26  1  0
 21  8  1  0
 22 27  1  0
 23  8  1  0
 24  7  1  0
 25 13  1  0
 26 14  2  0
 27 30  1  0
 28 21  1  0
 29 28  1  0
 30 29  1  0
  3 15  2  0
  4 16  1  0
M  CHG  2   3   1   4   1
M  END
> <chembl_id>
CHEMBL1199307

> <chembl_pref_name>
DISTIGMINE
