
     RDKit          2D

 41 43  0  0  0  0  0  0  0  0999 V2000
    5.7667   -9.7708    0.0000 O   0  0  0  0  0  0  0  0  0  0  0  0
    7.8792   -4.2333    0.0000 N   0  0  0  0  0  0  0  0  0  0  0  0
    6.4625   -6.7250    0.0000 C   0  0  0  0  0  0  0  0  0  0  0  0
    1.4667   -5.5083    0.0000 C   0  0  0  0  0  0  0  0  0  0  0  0
    9.1792   -3.9417    0.0000 N   0  0  0  0  0  0  0  0  0  0  0  0
    0.7542   -5.9208    0.0000 N   0  0  0  0  0  0  0  0  0  0  0  0
    8.6333   -4.5583    0.0000 C   0  0  0  0  0  0  0  0  0  0  0  0
    7.1667   -4.6500    0.0000 C   0  0  0  0  0  0  0  0  0  0  0  0
    4.3167   -4.6667    0.0000 C   0  0  0  0  0  0  0  0  0  0  0  0
    6.4583   -5.9000    0.0000 C   0  0  0  0  0  0  0  0  0  0  0  0
    7.9583   -3.4042    0.0000 C   0  0  0  0  0  0  0  0  0  0  0  0
    2.1750   -4.2625    0.0000 C   0  0  0  0  0  0  0  0  0  0  0  0
    1.4625   -4.6792    0.0000 N   0  0  0  0  0  0  0  0  0  0  0  0
    5.0292   -4.2542    0.0000 N   0  0  0  0  0  0  0  0  0  0  0  0
    5.7458   -4.6625    0.0000 C   0  0  0  0  0  0  0  0  0  0  0  0
    3.6000   -4.2583    0.0000 C   0  0  0  0  0  0  0  0  0  0  0  0
    0.7542   -6.7458    0.0000 C   0  0  0  0  0  0  0  0  0  0  0  0
    8.7625   -3.2292    0.0000 C   0  0  0  0  0  0  0  0  0  0  0  0
    6.4500   -4.2458    0.0000 C   0  0  0  0  0  0  0  0  0  0  0  0
    7.1750   -5.4833    0.0000 C   0  0  0  0  0  0  0  0  0  0  0  0
    2.8875   -4.6750    0.0000 C   0  0  0  0  0  0  0  0  0  0  0  0
    2.1833   -5.9125    0.0000 N   0  0  0  0  0  0  0  0  0  0  0  0
    5.7458   -5.4875    0.0000 C   0  0  0  0  0  0  0  0  0  0  0  0
    0.0417   -7.1583    0.0000 C   0  0  0  0  0  0  0  0  0  0  0  0
    2.1667   -3.4417    0.0000 C   0  0  0  0  0  0  0  0  0  0  0  0
    4.3208   -5.4958    0.0000 O   0  0  0  0  0  0  0  0  0  0  0  0
   -1.3875   -7.1542    0.0000 N   0  0  0  0  0  0  0  0  0  0  0  0
    3.5958   -3.4333    0.0000 C   0  0  0  0  0  0  0  0  0  0  0  0
    7.2875   -6.7292    0.0000 F   0  0  0  0  0  0  0  0  0  0  0  0
    5.6375   -6.7250    0.0000 F   0  0  0  0  0  0  0  0  0  0  0  0
    6.4542   -7.5458    0.0000 F   0  0  0  0  0  0  0  0  0  0  0  0
    2.8750   -3.0250    0.0000 C   0  0  0  0  0  0  0  0  0  0  0  0
    1.4667   -7.1583    0.0000 C   0  0  0  0  0  0  0  0  0  0  0  0
    2.1875   -6.7458    0.0000 C   0  0  0  0  0  0  0  0  0  0  0  0
   -0.6708   -6.7417    0.0000 C   0  0  0  0  0  0  0  0  0  0  0  0
    9.0917   -2.4708    0.0000 C   0  0  0  0  0  0  0  0  0  0  0  0
    0.0417   -7.9792    0.0000 C   0  0  0  0  0  0  0  0  0  0  0  0
   -1.3875   -7.9792    0.0000 C   0  0  0  0  0  0  0  0  0  0  0  0
    1.4500   -3.0333    0.0000 C   0  0  0  0  0  0  0  0  0  0  0  0
   -0.6708   -8.3917    0.0000 C   0  0  0  0  0  0  0  0  0  0  0  0
    3.0208   -8.6792    0.0000 Cl  0  0  0  0  0  0  0  0  0  0  0  0
  3 10  1  0
  4 13  1  0
  5  7  2  0
  6  4  1  0
  7  2  1  0
  8  2  1  0
  9 14  1  0
 10 20  2  0
 11  2  1  0
 12 21  2  0
 13 12  1  0
 14 15  1  0
 15 19  1  0
 16  9  1  0
 17  6  2  0
 18 11  2  0
 19  8  2  0
 20  8  1  0
 21 16  1  0
 22  4  2  0
 23 10  1  0
 24 17  1  0
 25 32  2  0
 26  9  2  0
 27 35  1  0
 28 16  2  0
 29  3  1  0
 30  3  1  0
 31  3  1  0
 32 28  1  0
 33 34  2  0
 34 22  1  0
 35 24  2  0
 36 18  1  0
 37 24  1  0
 38 40  1  0
 39 25  1  0
 40 37  2  0
  5 18  1  0
 15 23  2  0
 25 12  1  0
 17 33  1  0
 27 38  2  0
M  END
> <chembl_id>
CHEMBL1201740

> <chembl_pref_name>
NILOTINIB HYDROCHLORIDE MONOHYDRATE
