
     RDKit          2D

 18 19  0  0  0  0  0  0  0  0999 V2000
  -14.2607    7.9897    0.0000 C   0  0  0  0  0  0  0  0  0  0  0  0
  -14.6732    7.2752    0.0000 C   0  0  0  0  0  0  0  0  0  0  0  0
  -13.8482    7.2752    0.0000 C   0  0  0  0  0  0  0  0  0  0  0  0
  -15.3877    7.6877    0.0000 C   0  0  0  0  0  0  0  0  0  0  0  0
  -13.8482    6.4502    0.0000 C   0  0  0  0  0  0  0  0  0  0  0  0
  -13.1338    7.6877    0.0000 C   0  0  0  0  0  0  0  0  0  0  0  0
  -12.4193    7.2752    0.0000 N   0  0  0  0  0  0  0  0  0  0  0  0
  -13.1338    8.5127    0.0000 O   0  0  0  0  0  0  0  0  0  0  0  0
  -11.7048    7.6877    0.0000 C   0  0  0  0  0  0  0  0  0  0  0  0
  -12.4193    6.4502    0.0000 C   0  0  0  0  0  0  0  0  0  0  0  0
  -11.7048    6.0377    0.0000 C   0  0  0  0  0  0  0  0  0  0  0  0
  -10.9904    7.2752    0.0000 C   0  0  0  0  0  0  0  0  0  0  0  0
  -16.1021    7.2752    0.0000 N   0  0  0  0  0  0  0  0  0  0  0  0
  -14.5627    6.0377    0.0000 C   0  0  0  0  0  0  0  0  0  0  0  0
  -14.5627    5.2127    0.0000 C   0  0  0  0  0  0  0  0  0  0  0  0
  -13.8482    4.8002    0.0000 C   0  0  0  0  0  0  0  0  0  0  0  0
  -13.1337    5.2127    0.0000 C   0  0  0  0  0  0  0  0  0  0  0  0
  -13.1337    6.0377    0.0000 C   0  0  0  0  0  0  0  0  0  0  0  0
  1  2  1  0
  2  3  1  0
  3  1  1  0
  2  4  1  6
  3  5  1  1
  3  6  1  0
  6  7  1  0
  6  8  2  0
  7  9  1  0
  7 10  1  0
 10 11  1  0
  9 12  1  0
  4 13  1  0
  5 14  1  0
  5 18  2  0
 14 15  2  0
 15 16  1  0
 16 17  2  0
 17 18  1  0
M  END
> <chembl_id>
CHEMBL99946

> <chembl_pref_name>
LEVOMILNACIPRAN
