
     RDKit          2D

 13 14  0  0  0  0  0  0  0  0999 V2000
   -0.5801    0.7996    0.0000 N   0  0  0  0  0  0  0  0  0  0  0  0
   -1.3871    0.9711    0.0000 C   0  0  0  0  0  0  0  0  0  0  0  0
   -1.6420    1.7557    0.0000 C   0  0  0  0  0  0  0  0  0  0  0  0
   -1.8970    2.5404    0.0000 C   0  0  0  0  0  0  0  0  0  0  0  0
   -0.3252    0.0150    0.0000 C   0  0  0  0  0  0  0  0  0  0  0  0
   -0.8101   -0.6525    0.0000 C   0  0  0  0  0  0  0  0  0  0  0  0
   -0.3252   -1.3199    0.0000 C   0  0  0  0  0  0  0  0  0  0  0  0
    0.4594   -1.0650    0.0000 C   0  0  0  0  0  0  0  0  0  0  0  0
    0.4594   -0.2400    0.0000 C   0  0  0  0  0  0  0  0  0  0  0  0
    1.1739    0.1725    0.0000 C   0  0  0  0  0  0  0  0  0  0  0  0
    1.1739   -1.4775    0.0000 C   0  0  0  0  0  0  0  0  0  0  0  0
    1.8884   -1.0650    0.0000 C   0  0  0  0  0  0  0  0  0  0  0  0
    1.8884   -0.2400    0.0000 C   0  0  0  0  0  0  0  0  0  0  0  0
  2  1  1  0
  5  1  1  1
  2  3  1  0
  3  4  3  0
  6  5  1  0
  9  5  1  0
  6  7  1  0
  7  8  1  0
  8  9  2  0
  8 11  1  0
 10  9  1  0
 13 10  2  0
 11 12  2  0
 12 13  1  0
M  END
> <chembl_id>
CHEMBL887

> <chembl_pref_name>
RASAGILINE
