
     RDKit          2D

 30 32  0  0  0  0  0  0  0  0999 V2000
    3.6167   -2.0292    0.0000 Cl  0  0  0  0  0  0  0  0  0  0  0  0
    1.0250   -4.9042    0.0000 C   0  0  0  0  0  0  0  0  0  0  0  0
    2.2750   -5.6167    0.0000 C   0  0  0  0  0  0  0  0  0  0  0  0
    2.2750   -4.9042    0.0000 C   0  0  0  0  0  0  0  0  0  0  0  0
    1.6625   -4.5292    0.0000 O   0  0  0  0  0  0  0  0  0  0  0  0
    1.6625   -5.9667    0.0000 C   0  0  0  0  0  0  0  0  0  0  0  0
    1.0250   -5.6167    0.0000 C   0  0  0  0  0  0  0  0  0  0  0  0
    0.4250   -4.5292    0.0000 C   0  0  0  0  0  0  0  0  0  0  0  0
    0.4250   -3.8167    0.0000 C   0  0  0  0  0  0  0  0  0  0  0  0
    1.6625   -1.7292    0.0000 N   0  0  0  0  0  0  0  0  0  0  0  0
    2.8750   -4.5292    0.0000 C   0  0  0  0  0  0  0  0  0  0  0  0
    1.6625   -6.6667    0.0000 O   0  0  0  0  0  0  0  0  0  0  0  0
   -0.1958   -3.4792    0.0000 O   0  0  0  0  0  0  0  0  0  0  0  0
    2.8750   -5.9667    0.0000 C   0  0  0  0  0  0  0  0  0  0  0  0
    1.0250   -3.4792    0.0000 O   0  0  0  0  0  0  0  0  0  0  0  0
   -0.1958   -4.9042    0.0000 C   0  0  0  0  0  0  0  0  0  0  0  0
    0.4250   -5.9667    0.0000 C   0  0  0  0  0  0  0  0  0  0  0  0
    1.6625   -2.4417    0.0000 C   0  0  0  0  0  0  0  0  0  0  0  0
    1.0250   -2.7792    0.0000 C   0  0  0  0  0  0  0  0  0  0  0  0
   -0.1958   -5.6167    0.0000 C   0  0  0  0  0  0  0  0  0  0  0  0
    1.0250   -1.3417    0.0000 C   0  0  0  0  0  0  0  0  0  0  0  0
    2.2750   -1.3417    0.0000 C   0  0  0  0  0  0  0  0  0  0  0  0
    3.4750   -4.9042    0.0000 C   0  0  0  0  0  0  0  0  0  0  0  0
    2.8750   -3.8167    0.0000 C   0  0  0  0  0  0  0  0  0  0  0  0
    1.0250   -0.6417    0.0000 C   0  0  0  0  0  0  0  0  0  0  0  0
    2.2750   -0.6417    0.0000 C   0  0  0  0  0  0  0  0  0  0  0  0
    3.4750   -3.4792    0.0000 C   0  0  0  0  0  0  0  0  0  0  0  0
    4.0917   -4.5292    0.0000 C   0  0  0  0  0  0  0  0  0  0  0  0
    1.6625   -0.3042    0.0000 C   0  0  0  0  0  0  0  0  0  0  0  0
    4.0917   -3.8167    0.0000 C   0  0  0  0  0  0  0  0  0  0  0  0
  3  6  1  0
  4  5  1  0
  5  2  1  0
  6  7  1  0
  7  2  2  0
  8  2  1  0
  9  8  1  0
 10 18  1  0
 11  4  1  0
 12  6  2  0
 13  9  2  0
 14  3  1  0
 15  9  1  0
 16  8  2  0
 17  7  1  0
 18 19  1  0
 19 15  1  0
 20 16  1  0
 21 10  1  0
 22 10  1  0
 23 11  1  0
 24 11  2  0
 25 21  1  0
 26 22  1  0
 27 24  1  0
 28 23  2  0
 29 25  1  0
 30 28  1  0
  4  3  2  0
 17 20  2  0
 27 30  2  0
 26 29  1  0
M  END
> <chembl_id>
CHEMBL1200875

> <chembl_pref_name>
FLAVOXATE HYDROCHLORIDE
