
     RDKit          2D

 11 11  0  0  0  0  0  0  0  0999 V2000
    3.6625   -6.6125    0.0000 N   0  0  0  0  0  0  0  0  0  0  0  0
    3.6542   -5.9000    0.0000 C   0  0  0  0  0  0  0  0  0  0  0  0
    4.2667   -6.9542    0.0000 C   0  0  0  0  0  0  0  0  0  0  0  0
    4.8875   -6.5917    0.0000 C   0  0  0  0  0  0  0  0  0  0  0  0
    4.2750   -5.5417    0.0000 N   0  0  0  0  0  0  0  0  0  0  0  0
    4.8917   -5.9000    0.0000 C   0  0  0  0  0  0  0  0  0  0  0  0
    3.0375   -5.5500    0.0000 S   0  0  0  0  0  0  0  0  0  0  0  0
    4.2750   -7.6667    0.0000 O   0  0  0  0  0  0  0  0  0  0  0  0
    5.4917   -5.5417    0.0000 C   0  0  0  0  0  0  0  0  0  0  0  0
    6.1125   -5.8917    0.0000 C   0  0  0  0  0  0  0  0  0  0  0  0
    6.7292   -5.5417    0.0000 C   0  0  0  0  0  0  0  0  0  0  0  0
  2  1  1  0
  3  1  1  0
  4  3  1  0
  5  2  1  0
  6  4  2  0
  7  2  2  0
  8  3  2  0
  9  6  1  0
 10  9  1  0
 11 10  1  0
  6  5  1  0
M  END
> <chembl_id>
CHEMBL1518

> <chembl_pref_name>
PROPYLTHIOURACIL
