
     RDKit          2D

 23 26  0  0  0  0  0  0  0  0999 V2000
    4.7667   -6.4667    0.0000 N   0  0  0  0  0  0  0  0  0  0  0  0
    5.9917   -5.7542    0.0000 N   0  0  0  0  0  0  0  0  0  0  0  0
    5.9917   -6.4542    0.0000 C   0  0  0  0  0  0  0  0  0  0  0  0
    5.3667   -5.4042    0.0000 C   0  0  0  0  0  0  0  0  0  0  0  0
    4.1542   -6.8250    0.0000 C   0  0  0  0  0  0  0  0  0  0  0  0
    5.3792   -6.8167    0.0000 C   0  0  0  0  0  0  0  0  0  0  0  0
    4.7667   -5.7667    0.0000 C   0  0  0  0  0  0  0  0  0  0  0  0
    6.6125   -6.8167    0.0000 C   0  0  0  0  0  0  0  0  0  0  0  0
    6.6042   -5.3917    0.0000 C   0  0  0  0  0  0  0  0  0  0  0  0
    5.3667   -4.6875    0.0000 O   0  0  0  0  0  0  0  0  0  0  0  0
    7.2292   -6.4625    0.0000 C   0  0  0  0  0  0  0  0  0  0  0  0
    4.1542   -7.5375    0.0000 O   0  0  0  0  0  0  0  0  0  0  0  0
    7.2250   -5.7542    0.0000 C   0  0  0  0  0  0  0  0  0  0  0  0
    3.5292   -6.4667    0.0000 C   0  0  0  0  0  0  0  0  0  0  0  0
    6.6167   -7.5250    0.0000 C   0  0  0  0  0  0  0  0  0  0  0  0
    7.8417   -6.8042    0.0000 C   0  0  0  0  0  0  0  0  0  0  0  0
    2.9167   -6.8250    0.0000 C   0  0  0  0  0  0  0  0  0  0  0  0
    3.5292   -5.7667    0.0000 C   0  0  0  0  0  0  0  0  0  0  0  0
    7.2292   -7.8792    0.0000 C   0  0  0  0  0  0  0  0  0  0  0  0
    7.8500   -7.5167    0.0000 C   0  0  0  0  0  0  0  0  0  0  0  0
    2.3042   -6.4792    0.0000 C   0  0  0  0  0  0  0  0  0  0  0  0
    2.9167   -5.4167    0.0000 C   0  0  0  0  0  0  0  0  0  0  0  0
    2.3000   -5.7792    0.0000 C   0  0  0  0  0  0  0  0  0  0  0  0
  2  4  1  0
  3  6  1  0
  4  7  1  0
  5  1  1  0
  6  1  1  0
  7  1  1  0
  8  3  1  0
  9  2  1  0
 10  4  2  0
 11  8  2  0
 12  5  2  0
 13  9  1  0
 14  5  1  0
 15  8  1  0
 16 11  1  0
 17 14  1  0
 18 14  1  0
 19 15  2  0
 20 19  1  0
 21 17  1  0
 22 18  1  0
 23 22  1  0
  3  2  1  0
 11 13  1  0
 21 23  1  0
 16 20  2  0
M  END
> <chembl_id>
CHEMBL976

> <chembl_pref_name>
PRAZIQUANTEL
