
     RDKit          2D

 27 30  0  0  0  0  0  0  0  0999 V2000
   -1.9000   -5.0417    0.0000 C   0  0  0  0  0  0  0  0  0  0  0  0
   -2.6250   -3.8083    0.0000 N   0  0  0  0  0  0  0  0  0  0  0  0
   -1.9042   -4.2167    0.0000 C   0  0  0  0  0  0  0  0  0  0  0  0
   -3.3292   -5.0458    0.0000 C   0  0  0  0  0  0  0  0  0  0  0  0
   -3.3333   -4.2250    0.0000 C   0  0  0  0  0  0  0  0  0  0  0  0
   -2.6125   -5.4583    0.0000 C   0  0  0  0  0  0  0  0  0  0  0  0
   -1.1875   -5.4500    0.0000 C   0  0  0  0  0  0  0  0  0  0  0  0
   -0.4917   -3.3917    0.0000 N   0  0  0  0  0  0  0  0  0  0  0  0
   -0.4833   -4.2167    0.0000 C   0  0  0  0  0  0  0  0  0  0  0  0
   -4.0375   -5.4625    0.0000 C   0  0  0  0  0  0  0  0  0  0  0  0
   -2.6292   -2.9875    0.0000 C   0  0  0  0  0  0  0  0  0  0  0  0
   -1.1917   -3.8000    0.0000 O   0  0  0  0  0  0  0  0  0  0  0  0
   -0.4792   -5.0375    0.0000 C   0  0  0  0  0  0  0  0  0  0  0  0
   -4.7542   -5.0500    0.0000 N   0  0  0  0  0  0  0  0  0  0  0  0
   -1.1833   -6.2792    0.0000 C   0  0  0  0  0  0  0  0  0  0  0  0
   -5.4667   -5.4625    0.0000 C   0  0  0  0  0  0  0  0  0  0  0  0
   -4.0375   -6.2917    0.0000 C   0  0  0  0  0  0  0  0  0  0  0  0
   -1.9167   -2.5708    0.0000 C   0  0  0  0  0  0  0  0  0  0  0  0
   -3.3458   -2.5833    0.0000 C   0  0  0  0  0  0  0  0  0  0  0  0
    0.2375   -5.4417    0.0000 C   0  0  0  0  0  0  0  0  0  0  0  0
   -0.4708   -6.6875    0.0000 C   0  0  0  0  0  0  0  0  0  0  0  0
   -5.4667   -6.2917    0.0000 C   0  0  0  0  0  0  0  0  0  0  0  0
    0.2417   -6.2708    0.0000 C   0  0  0  0  0  0  0  0  0  0  0  0
   -1.9208   -1.7458    0.0000 C   0  0  0  0  0  0  0  0  0  0  0  0
   -3.3542   -1.7583    0.0000 C   0  0  0  0  0  0  0  0  0  0  0  0
   -4.7500   -6.7042    0.0000 C   0  0  0  0  0  0  0  0  0  0  0  0
   -2.6417   -1.3375    0.0000 C   0  0  0  0  0  0  0  0  0  0  0  0
  2  3  1  0
  3  1  1  0
  4  6  1  0
  5  2  1  0
  6  1  2  0
  7  1  1  0
  8  9  3  0
  9 13  1  0
 10  4  1  0
 11  2  1  0
 12  3  2  0
 13  7  1  0
 14 10  2  0
 15  7  2  0
 16 14  1  0
 17 10  1  0
 18 11  2  0
 19 11  1  0
 20 13  2  0
 21 15  1  0
 22 16  2  0
 23 20  1  0
 24 18  1  0
 25 19  2  0
 26 17  2  0
 27 25  1  0
  4  5  2  0
 23 21  2  0
 26 22  1  0
 27 24  2  0
M  END
> <chembl_id>
CHEMBL1214124

> <chembl_pref_name>
PERAMPANEL
