
     RDKit          2D

 39 43  0  0  0  0  0  0  0  0999 V2000
   -1.8980    1.0867    0.0000 C   0  0  0  0  0  0  0  0  0  0  0  0
   -1.1220    0.8064    0.0000 C   0  0  0  0  0  0  0  0  0  0  0  0
   -0.4392    1.2693    0.0000 C   0  0  0  0  0  0  0  0  0  0  0  0
    0.2121    0.7630    0.0000 C   0  0  0  0  0  0  0  0  0  0  0  0
    1.0243    0.9082    0.0000 C   0  0  0  0  0  0  0  0  0  0  0  0
    1.3046    1.6841    0.0000 C   0  0  0  0  0  0  0  0  0  0  0  0
    2.1167    1.8293    0.0000 C   0  0  0  0  0  0  0  0  0  0  0  0
    2.3970    2.6053    0.0000 F   0  0  0  0  0  0  0  0  0  0  0  0
    2.6485    1.1986    0.0000 C   0  0  0  0  0  0  0  0  0  0  0  0
    3.4606    1.3439    0.0000 C   0  0  0  0  0  0  0  0  0  0  0  0
    3.9924    0.7131    0.0000 C   0  0  0  0  0  0  0  0  0  0  0  0
    4.8046    0.8584    0.0000 O   0  0  0  0  0  0  0  0  0  0  0  0
    3.7121   -0.0628    0.0000 C   0  0  0  0  0  0  0  0  0  0  0  0
    2.9000   -0.2080    0.0000 C   0  0  0  0  0  0  0  0  0  0  0  0
    2.3682    0.4227    0.0000 C   0  0  0  0  0  0  0  0  0  0  0  0
    2.0879   -0.3532    0.0000 C   0  0  0  0  0  0  0  0  0  0  0  0
    1.5561    0.2775    0.0000 C   0  0  0  0  0  0  0  0  0  0  0  0
    1.6156   -0.5453    0.0000 F   0  0  0  0  0  0  0  0  0  0  0  0
    1.2758   -0.4984    0.0000 C   0  0  0  0  0  0  0  0  0  0  0  0
    1.8076   -1.1291    0.0000 O   0  0  0  0  0  0  0  0  0  0  0  0
    0.4637   -0.6436    0.0000 C   0  0  0  0  0  0  0  0  0  0  0  0
   -0.0682   -0.0129    0.0000 C   0  0  0  0  0  0  0  0  0  0  0  0
   -0.4280   -0.7553    0.0000 C   0  0  0  0  0  0  0  0  0  0  0  0
   -0.8927    0.0139    0.0000 C   0  0  0  0  0  0  0  0  0  0  0  0
   -1.6536   -0.3050    0.0000 O   0  0  0  0  0  0  0  0  0  0  0  0
   -2.3102    0.1945    0.0000 C   0  0  0  0  0  0  0  0  0  0  0  0
   -2.2059    1.0129    0.0000 O   0  0  0  0  0  0  0  0  0  0  0  0
   -3.0711   -0.1244    0.0000 C   0  0  0  0  0  0  0  0  0  0  0  0
   -3.7763    0.3038    0.0000 C   0  0  0  0  0  0  0  0  0  0  0  0
   -4.4014   -0.2346    0.0000 C   0  0  0  0  0  0  0  0  0  0  0  0
   -4.0825   -0.9955    0.0000 C   0  0  0  0  0  0  0  0  0  0  0  0
   -3.2603   -0.9274    0.0000 O   0  0  0  0  0  0  0  0  0  0  0  0
   -1.0141   -0.8021    0.0000 C   0  0  0  0  0  0  0  0  0  0  0  0
   -0.3681   -1.3153    0.0000 O   0  0  0  0  0  0  0  0  0  0  0  0
   -1.7815   -1.1050    0.0000 S   0  0  0  0  0  0  0  0  0  0  0  0
   -1.9029   -1.9210    0.0000 C   0  0  0  0  0  0  0  0  0  0  0  0
   -2.6703   -2.2239    0.0000 F   0  0  0  0  0  0  0  0  0  0  0  0
    0.3797    1.6727    0.0000 H   0  0  0  0  0  0  0  0  0  0  0  0
    0.4517    1.7339    0.0000 H   0  0  0  0  0  0  0  0  0  0  0  0
  2  1  1  6
  2  3  1  0
  2 24  1  0
  4  3  1  0
  4  5  1  0
 22  4  1  0
  5  6  1  0
 17  5  1  0
  6  7  1  0
  7  8  1  6
  7  9  1  0
  9 10  2  0
 15  9  1  0
 11 10  1  0
 11 12  2  0
 11 13  1  0
 13 14  2  0
 14 15  1  0
 15 16  1  1
 15 17  1  0
 17 18  1  6
 17 19  1  0
 19 20  1  1
 19 21  1  0
 21 22  1  0
 22 23  1  1
 22 24  1  0
 24 25  1  6
 24 33  1  0
 26 25  1  0
 26 27  2  0
 26 28  1  0
 28 29  2  0
 28 32  1  0
 29 30  1  0
 30 31  2  0
 31 32  1  0
 33 34  2  0
 33 35  1  0
 36 35  1  0
 36 37  1  0
  5 38  1  1
  4 39  1  6
M  END
> <chembl_id>
CHEMBL1676

> <chembl_pref_name>
FLUTICASONE FUROATE
