
     RDKit          2D

 32 32  0  0  0  0  0  0  0  0999 V2000
    4.1750   -3.0625    0.0000 C   0  0  0  0  0  0  0  0  0  0  0  0
    3.5500   -4.1292    0.0000 C   0  0  0  0  0  0  0  0  0  0  0  0
    2.9375   -3.0625    0.0000 C   0  0  0  0  0  0  0  0  0  0  0  0
    3.5500   -2.7042    0.0000 C   0  0  0  0  0  0  0  0  0  0  0  0
    4.1750   -3.7792    0.0000 C   0  0  0  0  0  0  0  0  0  0  0  0
    2.9375   -3.7792    0.0000 C   0  0  0  0  0  0  0  0  0  0  0  0
    4.7875   -2.7042    0.0000 C   0  0  0  0  0  0  0  0  0  0  0  0
    3.5500   -4.8542    0.0000 C   0  0  0  0  0  0  0  0  0  0  0  0
    5.4000   -3.0625    0.0000 N   0  0  0  0  0  0  0  0  0  0  0  0
    2.3167   -2.7042    0.0000 N   0  0  0  0  0  0  0  0  0  0  0  0
    4.1792   -5.2167    0.0000 N   0  0  0  0  0  0  0  0  0  0  0  0
    1.7000   -3.0625    0.0000 C   0  0  0  0  0  0  0  0  0  0  0  0
    4.7875   -2.0042    0.0000 O   0  0  0  0  0  0  0  0  0  0  0  0
    6.0167   -2.7167    0.0000 C   0  0  0  0  0  0  0  0  0  0  0  0
    2.9417   -5.1917    0.0000 O   0  0  0  0  0  0  0  0  0  0  0  0
    3.5500   -1.9917    0.0000 I   0  0  0  0  0  0  0  0  0  0  0  0
    4.7875   -4.1292    0.0000 I   0  0  0  0  0  0  0  0  0  0  0  0
    2.3125   -4.1292    0.0000 I   0  0  0  0  0  0  0  0  0  0  0  0
    1.7125   -3.7542    0.0000 O   0  0  0  0  0  0  0  0  0  0  0  0
    6.6292   -3.0625    0.0000 C   0  0  0  0  0  0  0  0  0  0  0  0
    4.7917   -4.8542    0.0000 C   0  0  0  0  0  0  0  0  0  0  0  0
    5.4125   -5.2167    0.0000 C   0  0  0  0  0  0  0  0  0  0  0  0
    6.6292   -3.7792    0.0000 O   0  0  0  0  0  0  0  0  0  0  0  0
    5.4125   -5.9167    0.0000 O   0  0  0  0  0  0  0  0  0  0  0  0
    5.4000   -3.7792    0.0000 C   0  0  0  0  0  0  0  0  0  0  0  0
    1.0792   -2.7042    0.0000 C   0  0  0  0  0  0  0  0  0  0  0  0
    7.8667   -3.0542    0.0000 O   0  0  0  0  0  0  0  0  0  0  0  0
    6.6042   -5.1667    0.0000 O   0  0  0  0  0  0  0  0  0  0  0  0
    0.4667   -3.0542    0.0000 O   0  0  0  0  0  0  0  0  0  0  0  0
    7.2500   -2.7042    0.0000 C   0  0  0  0  0  0  0  0  0  0  0  0
    6.0375   -4.8500    0.0000 C   0  0  0  0  0  0  0  0  0  0  0  0
   -0.1458   -2.7000    0.0000 C   0  0  0  0  0  0  0  0  0  0  0  0
  2  5  1  0
  3  4  2  0
  4  1  1  0
  5  1  2  0
  6  2  2  0
  7  1  1  0
  8  2  1  0
  9  7  1  0
 10  3  1  0
 11  8  1  0
 12 10  1  0
 13  7  2  0
 14  9  1  0
 15  8  2  0
 16  4  1  0
 17  5  1  0
 18  6  1  0
 19 12  2  0
 20 14  1  0
 21 11  1  0
 22 21  1  0
 23 20  1  0
 24 22  1  0
 25  9  1  0
 26 12  1  0
 27 30  1  0
 28 31  1  0
 29 26  1  0
 30 20  1  0
 31 22  1  0
 32 29  1  0
  6  3  1  0
M  END
> <chembl_id>
CHEMBL1725

> <chembl_pref_name>
IOPROMIDE
