
     RDKit          2D

 11 11  0  0  0  0  0  0  0  0999 V2000
   10.8417   -3.8167    0.0000 S   0  0  0  0  0  0  0  0  0  0  0  0
   10.2292   -3.4667    0.0000 C   0  0  0  0  0  0  0  0  0  0  0  0
   10.4917   -4.4292    0.0000 O   0  0  0  0  0  0  0  0  0  0  0  0
   11.2042   -4.4292    0.0000 O   0  0  0  0  0  0  0  0  0  0  0  0
   11.4625   -3.4667    0.0000 N   0  0  0  0  0  0  0  0  0  0  0  0
   10.2292   -2.7542    0.0000 C   0  0  0  0  0  0  0  0  0  0  0  0
    9.6167   -3.8167    0.0000 C   0  0  0  0  0  0  0  0  0  0  0  0
    9.0042   -2.7542    0.0000 C   0  0  0  0  0  0  0  0  0  0  0  0
    8.3917   -2.3917    0.0000 N   0  0  0  0  0  0  0  0  0  0  0  0
    9.6167   -2.4000    0.0000 C   0  0  0  0  0  0  0  0  0  0  0  0
    9.0042   -3.4667    0.0000 C   0  0  0  0  0  0  0  0  0  0  0  0
  2  1  1  0
  3  1  2  0
  4  1  2  0
  5  1  1  0
  6  2  2  0
  7  2  1  0
  8 11  1  0
  9  8  1  0
 10  6  1  0
 11  7  2  0
 10  8  2  0
M  END
> <chembl_id>
CHEMBL21

> <chembl_pref_name>
SULFANILAMIDE
