
     RDKit          2D

 24 26  0  0  0  0  0  0  0  0999 V2000
    1.2625    0.6208    0.0000 N   0  0  0  0  0  0  0  0  0  0  0  0
    1.2625   -0.5792    0.0000 N   0  0  0  0  0  0  0  0  0  0  0  0
    0.0792    1.0000    0.0000 C   0  0  0  0  0  0  0  0  0  0  0  0
    0.1292   -0.9542    0.0000 C   0  0  0  0  0  0  0  0  0  0  0  0
   -0.6000    0.0250    0.0000 C   0  0  0  0  0  0  0  0  0  0  0  0
   -1.8458    0.0250    0.0000 C   0  0  0  0  0  0  0  0  0  0  0  0
    2.1917   -1.3917    0.0000 C   0  0  0  0  0  0  0  0  0  0  0  0
    2.2167    1.4125    0.0000 C   0  0  0  0  0  0  0  0  0  0  0  0
   -0.2833   -2.1625    0.0000 O   0  0  0  0  0  0  0  0  0  0  0  0
   -0.3875    2.1500    0.0000 O   0  0  0  0  0  0  0  0  0  0  0  0
   -2.4208   -1.0792    0.0000 C   0  0  0  0  0  0  0  0  0  0  0  0
   -3.7000   -1.0792    0.0000 C   0  0  0  0  0  0  0  0  0  0  0  0
    2.0167    2.6458    0.0000 C   0  0  0  0  0  0  0  0  0  0  0  0
    3.3667    0.9625    0.0000 C   0  0  0  0  0  0  0  0  0  0  0  0
    1.9500   -2.6167    0.0000 C   0  0  0  0  0  0  0  0  0  0  0  0
    3.3667   -0.9917    0.0000 C   0  0  0  0  0  0  0  0  0  0  0  0
   -4.2833   -2.1625    0.0000 C   0  0  0  0  0  0  0  0  0  0  0  0
   -4.3458   -0.0417    0.0000 C   0  0  0  0  0  0  0  0  0  0  0  0
    4.3417    1.7208    0.0000 C   0  0  0  0  0  0  0  0  0  0  0  0
    2.9917    3.4250    0.0000 C   0  0  0  0  0  0  0  0  0  0  0  0
    2.8792   -3.4167    0.0000 C   0  0  0  0  0  0  0  0  0  0  0  0
    4.2667   -1.8042    0.0000 C   0  0  0  0  0  0  0  0  0  0  0  0
    4.0375   -3.0292    0.0000 C   0  0  0  0  0  0  0  0  0  0  0  0
    4.1250    2.9833    0.0000 C   0  0  0  0  0  0  0  0  0  0  0  0
  2  1  1  0
  3  1  1  0
  4  2  1  0
  5  3  1  0
  6  5  1  0
  7  2  1  0
  8  1  1  0
  9  4  2  0
 10  3  2  0
 11  6  1  0
 12 11  2  0
 13  8  1  0
 14  8  2  0
 15  7  2  0
 16  7  1  0
 17 12  1  0
 18 12  1  0
 19 14  1  0
 20 13  2  0
 21 15  1  0
 22 16  2  0
 23 22  1  0
 24 19  2  0
  4  5  1  0
 20 24  1  0
 21 23  2  0
M  END
> <chembl_id>
CHEMBL1452696

> <chembl_pref_name>
FEPRAZONE
