
     RDKit          2D

 21 22  0  0  0  0  0  0  0  0999 V2000
    6.5542   -8.3750    0.0000 Cl  0  0  0  0  0  0  0  0  0  0  0  0
    5.7167   -7.3875    0.0000 N   0  0  0  0  0  0  0  0  0  0  0  0
    5.7375   -5.9667    0.0000 S   0  0  0  0  0  0  0  0  0  0  0  0
    6.3375   -7.0250    0.0000 C   0  0  0  0  0  0  0  0  0  0  0  0
    5.1042   -7.0292    0.0000 C   0  0  0  0  0  0  0  0  0  0  0  0
    6.3417   -6.3167    0.0000 C   0  0  0  0  0  0  0  0  0  0  0  0
    5.1167   -6.3167    0.0000 C   0  0  0  0  0  0  0  0  0  0  0  0
    5.7375   -8.0875    0.0000 C   0  0  0  0  0  0  0  0  0  0  0  0
    5.1042   -8.4417    0.0000 C   0  0  0  0  0  0  0  0  0  0  0  0
    3.8792   -8.4542    0.0000 N   0  0  0  0  0  0  0  0  0  0  0  0
    4.5042   -7.3792    0.0000 C   0  0  0  0  0  0  0  0  0  0  0  0
    6.9625   -7.3792    0.0000 C   0  0  0  0  0  0  0  0  0  0  0  0
    4.5042   -5.9667    0.0000 C   0  0  0  0  0  0  0  0  0  0  0  0
    6.9542   -5.9542    0.0000 C   0  0  0  0  0  0  0  0  0  0  0  0
    4.4917   -8.0917    0.0000 C   0  0  0  0  0  0  0  0  0  0  0  0
    3.2667   -8.0917    0.0000 C   0  0  0  0  0  0  0  0  0  0  0  0
    3.8792   -9.1667    0.0000 C   0  0  0  0  0  0  0  0  0  0  0  0
    7.5750   -7.0250    0.0000 C   0  0  0  0  0  0  0  0  0  0  0  0
    3.8917   -7.0250    0.0000 C   0  0  0  0  0  0  0  0  0  0  0  0
    3.8792   -6.3250    0.0000 C   0  0  0  0  0  0  0  0  0  0  0  0
    7.5667   -6.3125    0.0000 C   0  0  0  0  0  0  0  0  0  0  0  0
  3  7  1  0
  4  2  1  0
  5  2  1  0
  6  4  2  0
  7  5  1  0
  8  2  1  0
  9  8  1  0
 10 15  1  0
 11  5  2  0
 12  4  1  0
 13  7  2  0
 14  6  1  0
 15  9  1  0
 16 10  1  0
 17 10  1  0
 18 12  2  0
 19 11  1  0
 20 19  2  0
 21 18  1  0
  3  6  1  0
 20 13  1  0
 21 14  2  0
M  END
> <chembl_id>
CHEMBL1200469

> <chembl_pref_name>
PROMAZINE HYDROCHLORIDE
