
     RDKit          2D

  7  7  0  0  1  0  0  0  0  0999 V2000
    4.9167   -5.1792    0.0000 C   0  0  0  0  0  0  0  0  0  0  0  0
    4.9167   -4.4750    0.0000 C   0  0  0  0  0  0  0  0  0  0  0  0
    4.2417   -5.4000    0.0000 N   0  0  0  0  0  0  0  0  0  0  0  0
    3.8250   -4.8292    0.0000 O   0  0  0  0  0  0  0  0  0  0  0  0
    5.4917   -5.5917    0.0000 O   0  0  0  0  0  0  0  0  0  0  0  0
    4.2417   -4.2542    0.0000 C   0  0  0  0  0  0  0  0  0  0  0  0
    5.4917   -4.0542    0.0000 N   0  0  0  0  0  0  0  0  0  0  0  0
  2  1  1  0
  3  1  1  0
  4  3  1  0
  5  1  2  0
  6  2  1  0
  2  7  1  1
  4  6  1  0
M  END
> <chembl_id>
CHEMBL771

> <chembl_pref_name>
CYCLOSERINE
