
     RDKit          2D

 14 15  0  0  0  0  0  0  0  0999 V2000
   -0.4250    0.0708    0.0000 N   0  0  0  0  0  0  0  0  0  0  0  0
    0.3000   -1.1792    0.0000 C   0  0  0  0  0  0  0  0  0  0  0  0
    1.7292   -1.1792    0.0000 N   0  0  0  0  0  0  0  0  0  0  0  0
    0.3000    1.3208    0.0000 C   0  0  0  0  0  0  0  0  0  0  0  0
    1.7292    1.3208    0.0000 C   0  0  0  0  0  0  0  0  0  0  0  0
    2.4542    0.0708    0.0000 C   0  0  0  0  0  0  0  0  0  0  0  0
   -1.8583    0.0708    0.0000 C   0  0  0  0  0  0  0  0  0  0  0  0
   -0.4250   -2.4250    0.0000 O   0  0  0  0  0  0  0  0  0  0  0  0
    3.8792    0.0875    0.0000 O   0  0  0  0  0  0  0  0  0  0  0  0
   -2.7000    1.2250    0.0000 O   0  0  0  0  0  0  0  0  0  0  0  0
    2.4167    2.5583    0.0000 F   0  0  0  0  0  0  0  0  0  0  0  0
   -2.6708   -1.0875    0.0000 C   0  0  0  0  0  0  0  0  0  0  0  0
   -4.0458    0.7625    0.0000 C   0  0  0  0  0  0  0  0  0  0  0  0
   -4.0333   -0.6542    0.0000 C   0  0  0  0  0  0  0  0  0  0  0  0
  2  1  1  0
  3  2  1  0
  4  1  1  0
  5  4  2  0
  6  5  1  0
  7  1  1  0
  8  2  2  0
  9  6  2  0
 10  7  1  0
 11  5  1  0
 12  7  1  0
 13 10  1  0
 14 12  1  0
 14 13  1  0
  3  6  1  0
M  END
> <chembl_id>
CHEMBL20883

> <chembl_pref_name>
TEGAFUR
