
     RDKit          2D

 23 24  0  0  1  0  0  0  0  0999 V2000
    4.2417   -5.2417    0.0000 C   0  0  0  0  0  0  0  0  0  0  0  0
    4.2417   -4.5292    0.0000 C   0  0  0  0  0  0  0  0  0  0  0  0
    4.8542   -5.5917    0.0000 C   0  0  0  0  0  0  0  0  0  0  0  0
    7.3042   -4.1792    0.0000 C   0  0  0  0  0  0  0  0  0  0  0  0
    3.6250   -5.5917    0.0000 O   0  0  0  0  0  0  0  0  0  0  0  0
    5.4667   -4.5292    0.0000 C   0  0  0  0  0  0  0  0  0  0  0  0
    1.7792   -5.2417    0.0000 C   0  0  0  0  0  0  0  0  0  0  0  0
    2.4000   -5.5917    0.0000 C   0  0  0  0  0  0  0  0  0  0  0  0
    6.6917   -4.5292    0.0000 C   0  0  0  0  0  0  0  0  0  0  0  0
    5.4667   -5.2417    0.0000 C   0  0  0  0  0  0  0  0  0  0  0  0
    4.8542   -4.1792    0.0000 C   0  0  0  0  0  0  0  0  0  0  0  0
    3.0125   -5.2417    0.0000 C   0  0  0  0  0  0  0  0  0  0  0  0
    6.0792   -4.1792    0.0000 C   0  0  0  0  0  0  0  0  0  0  0  0
    1.7792   -4.5292    0.0000 C   0  0  0  0  0  0  0  0  0  0  0  0
    7.9167   -4.5292    0.0000 O   0  0  0  0  0  0  0  0  0  0  0  0
    7.3042   -3.4667    0.0000 O   0  0  0  0  0  0  0  0  0  0  0  0
    2.4000   -4.1792    0.0000 C   0  0  0  0  0  0  0  0  0  0  0  0
    3.6292   -4.1792    0.0000 I   0  0  0  0  0  0  0  0  0  0  0  0
    4.8542   -6.3042    0.0000 I   0  0  0  0  0  0  0  0  0  0  0  0
    1.1667   -5.5917    0.0000 I   0  0  0  0  0  0  0  0  0  0  0  0
    6.6917   -5.2417    0.0000 N   0  0  0  0  0  0  0  0  0  0  0  0
    3.0125   -4.5292    0.0000 C   0  0  0  0  0  0  0  0  0  0  0  0
    1.1667   -4.1792    0.0000 O   0  0  0  0  0  0  0  0  0  0  0  0
  2  1  2  0
  3  1  1  0
  4  9  1  0
  5  1  1  0
  6 10  1  0
  7  8  2  0
  8 12  1  0
  9 13  1  0
 10  3  2  0
 11  2  1  0
 12  5  1  0
 13  6  1  0
 14 17  2  0
 15  4  1  0
 16  4  2  0
 17 22  1  0
 18  2  1  0
 19  3  1  0
 20  7  1  0
  9 21  1  1
 22 12  2  0
 23 14  1  0
  6 11  2  0
 14  7  1  0
M  END
> <chembl_id>
CHEMBL1544

> <chembl_pref_name>
LIOTHYRONINE
